
     RDKit          3D

  6  5  0  0  0  0  0  0  0  0999 V2000
   -0.5072   -0.0291   -0.0097 C   0  0  0  0  0  0  0  0  0  0  0  0
    1.1321   -0.1527   -0.7687 S   0  0  0  0  0  0  0  0  0  0  0  0
   -0.6174   -0.7330    0.8127 H   0  0  0  0  0  0  0  0  0  0  0  0
   -0.5863    0.9827    0.3845 H   0  0  0  0  0  0  0  0  0  0  0  0
   -1.2962   -0.1800   -0.7434 H   0  0  0  0  0  0  0  0  0  0  0  0
    1.0312   -1.4237   -1.1764 H   0  0  0  0  0  0  0  0  0  0  0  0
  1  2  1  0
  1  3  1  0
  1  4  1  0
  1  5  1  0
  2  6  1  0
M  END
>  <reaction>  (1) 
rxn_1835

>  <mol_properties>  (1) 
{"0": {"label": "donator", "atom_type": "Cs"}, "2": {"label": "d_hydrogen", "atom_type": "H0"}}

>  <type>  (1) 
r1h

$$$$

     RDKit          3D

  8  7  0  0  0  0  0  0  0  0999 V2000
    1.4098   -0.3617   -0.1137 C   0  0  0  0  0  0  0  0  0  0  0  0
    0.1829   -0.1715   -0.5109 C   0  0  0  0  0  3  0  0  0  0  0  0
   -1.1129    0.2669    0.0153 C   0  0  0  0  0  0  0  0  0  0  0  0
    2.1881   -0.7137   -0.7829 H   0  0  0  0  0  0  0  0  0  0  0  0
    1.7065   -0.1722    0.9205 H   0  0  0  0  0  0  0  0  0  0  0  0
   -1.8665   -0.5154   -0.0958 H   0  0  0  0  0  0  0  0  0  0  0  0
   -1.0351    0.5163    1.0818 H   0  0  0  0  0  0  0  0  0  0  0  0
   -1.4726    1.1513   -0.5143 H   0  0  0  0  0  0  0  0  0  0  0  0
  1  2  2  3
  1  4  1  0
  1  5  1  0
  2  3  1  0
  3  6  1  0
  3  7  1  0
  3  8  1  0
M  RAD  1   2   2
M  END
>  <reaction>  (2) 
rxn_1835

>  <mol_properties>  (2) 
{"1": {"label": "acceptor", "atom_type": "Cd"}}

>  <type>  (2) 
r2

$$$$

     RDKit          3D

  9  8  0  0  0  0  0  0  0  0999 V2000
    1.1303   -0.2933   -0.7510 C   0  0  0  0  0  0  0  0  0  0  0  0
    0.2866    0.4560   -0.0588 C   0  0  0  0  0  0  0  0  0  0  0  0
   -0.9719   -0.0331    0.5823 C   0  0  0  0  0  0  0  0  0  0  0  0
    2.0274    0.1230   -1.1916 H   0  0  0  0  0  0  0  0  0  0  0  0
    0.9532   -1.3530   -0.9023 H   0  0  0  0  0  0  0  0  0  0  0  0
    0.5065    1.5132    0.0659 H   0  0  0  0  0  0  0  0  0  0  0  0
   -0.9526    0.1426    1.6610 H   0  0  0  0  0  0  0  0  0  0  0  0
   -1.1182   -1.1002    0.4106 H   0  0  0  0  0  0  0  0  0  0  0  0
   -1.8412    0.5010    0.1901 H   0  0  0  0  0  0  0  0  0  0  0  0
  1  2  2  3
  1  4  1  0
  1  5  1  0
  2  3  1  0
  2  6  1  0
  3  7  1  0
  3  8  1  0
  3  9  1  0
M  END
>  <reaction>  (3) 
rxn_1835

>  <mol_properties>  (3) 
{"0": {"label": "a_hydrogen", "atom_type": "H0"}, "2": {"label": "acceptor", "atom_type": "Cd"}}

>  <type>  (3) 
r2h

$$$$

     RDKit          3D

 14 12  0  0  0  0  0  0  0  0999 V2000
   -0.1211   -1.3076    0.0227 C   0  0  0  0  0  0  0  0  0  0  0  0
    0.1694   -1.1699   -1.7244 S   0  0  0  0  0  0  0  0  0  0  0  0
   -0.0847   -0.1420    0.5741 H   0  0  0  0  0  0  0  0  0  0  0  0
   -1.1323   -1.6737    0.1855 H   0  0  0  0  0  0  0  0  0  0  0  0
    0.6143   -1.9138    0.5471 H   0  0  0  0  0  0  0  0  0  0  0  0
    1.4386   -0.7484   -1.6508 H   0  0  0  0  0  0  0  0  0  0  0  0
   -0.1190    2.0839    0.1755 C   0  0  0  0  0  0  0  0  0  0  0  0
   -0.0382    1.1528    1.0982 C   0  0  0  0  0  3  0  0  0  0  0  0
    0.0991    1.2307    2.5711 C   0  0  0  0  0  0  0  0  0  0  0  0
   -0.2229    1.8303   -0.8747 H   0  0  0  0  0  0  0  0  0  0  0  0
   -0.0878    3.1430    0.4285 H   0  0  0  0  0  0  0  0  0  0  0  0
    1.0084    0.7261    2.9063 H   0  0  0  0  0  0  0  0  0  0  0  0
    0.1397    2.2709    2.9090 H   0  0  0  0  0  0  0  0  0  0  0  0
   -0.7428    0.7425    3.0676 H   0  0  0  0  0  0  0  0  0  0  0  0
  1  2  1  0
  1  3  1  0
  1  4  1  0
  1  5  1  0
  2  6  1  0
  7  8  2  3
  7 10  1  0
  7 11  1  0
  8  9  1  0
  9 12  1  0
  9 13  1  0
  9 14  1  0
M  RAD  1   8   2
M  END
>  <reaction>  (4) 
rxn_1835

>  <mol_properties>  (4) 
{"0": {"label": "*1", "atom_type": "Cs"}, "1": {"label": "*0", "atom_type": "S2s"}, "2": {"label": "*2", "atom_type": "H0"}, "6": {"label": "*4", "atom_type": "Cd"}, "7": {"label": "*3", "atom_type": "Cd"}}

>  <type>  (4) 
ts

$$$$

     RDKit          3D

 14 12  0  0  0  0  0  0  0  0999 V2000
   -0.1011   -1.2429    0.0451 C   0  0  0  0  0  3  0  0  0  0  0  0
   -0.1011   -1.2429   -1.7656 S   0  0  0  0  0  0  0  0  0  0  0  0
   -0.1011   -0.0270    0.5209 H   0  0  0  0  0  0  0  0  0  0  0  0
   -1.0218   -1.7370    0.3510 H   0  0  0  0  0  0  0  0  0  0  0  0
    0.7432   -1.8029    0.4416 H   0  0  0  0  0  0  0  0  0  0  0  0
    1.0692   -0.6147   -1.9320 H   0  0  0  0  0  0  0  0  0  0  0  0
   -1.1058    1.5700    1.7687 C   0  0  0  0  0  0  0  0  0  0  0  0
   -0.1011    1.1877    0.9962 C   0  0  0  0  0  0  0  0  0  0  0  0
    1.3429    1.4691    1.2604 C   0  0  0  0  0  0  0  0  0  0  0  0
   -2.1329    1.3335    1.5207 H   0  0  0  0  0  0  0  0  0  0  0  0
   -0.9364    2.1348    2.6794 H   0  0  0  0  0  0  0  0  0  0  0  0
    1.7851    2.0376    0.4382 H   0  0  0  0  0  0  0  0  0  0  0  0
    1.4763    2.0373    2.1818 H   0  0  0  0  0  0  0  0  0  0  0  0
    1.9114    0.5392    1.3440 H   0  0  0  0  0  0  0  0  0  0  0  0
  1  2  1  0
  1  4  1  0
  1  5  1  0
  2  6  1  0
  3  8  1  0
  7  8  2  3
  7 10  1  0
  7 11  1  0
  8  9  1  0
  9 12  1  0
  9 13  1  0
  9 14  1  0
M  RAD  1   1   2
M  END
>  <reaction>  (5) 
rxn_1835

>  <mol_properties>  (5) 
{"0": {"label": "*1", "atom_type": "Cs"}, "1": {"label": "*0", "atom_type": "S2s"}, "2": {"label": "*2", "atom_type": "H0"}, "6": {"label": "*4", "atom_type": "Cd"}, "7": {"label": "*3", "atom_type": "Cd"}}

>  <type>  (5) 
unop_1

>  <geom_source>  (5) 
Heuristics

$$$$

     RDKit          3D

 14 12  0  0  0  0  0  0  0  0999 V2000
    0.0250   -1.3036    0.0799 C   0  0  0  0  0  3  0  0  0  0  0  0
    0.0250   -1.3036   -1.7307 S   0  0  0  0  0  0  0  0  0  0  0  0
    0.0250   -0.0878    0.5557 H   0  0  0  0  0  0  0  0  0  0  0  0
   -0.8957   -1.7978    0.3859 H   0  0  0  0  0  0  0  0  0  0  0  0
    0.8694   -1.8636    0.4764 H   0  0  0  0  0  0  0  0  0  0  0  0
    1.1953   -0.6755   -1.8971 H   0  0  0  0  0  0  0  0  0  0  0  0
   -0.5550    2.0867    0.3278 C   0  0  0  0  0  0  0  0  0  0  0  0
    0.0250    1.1269    1.0310 C   0  0  0  0  0  0  0  0  0  0  0  0
    0.3594    1.2080    2.4856 C   0  0  0  0  0  0  0  0  0  0  0  0
   -0.7710    1.9652   -0.7262 H   0  0  0  0  0  0  0  0  0  0  0  0
   -0.8354    3.0310    0.7825 H   0  0  0  0  0  0  0  0  0  0  0  0
    1.4325    1.0758    2.6460 H   0  0  0  0  0  0  0  0  0  0  0  0
    0.0643    2.1686    2.9096 H   0  0  0  0  0  0  0  0  0  0  0  0
   -0.1442    0.4155    3.0452 H   0  0  0  0  0  0  0  0  0  0  0  0
  1  2  1  0
  1  4  1  0
  1  5  1  0
  2  6  1  0
  3  8  1  0
  7  8  2  3
  7 10  1  0
  7 11  1  0
  8  9  1  0
  9 12  1  0
  9 13  1  0
  9 14  1  0
M  RAD  1   1   2
M  END
>  <reaction>  (6) 
rxn_1835

>  <mol_properties>  (6) 
{"0": {"label": "*1", "atom_type": "Cs"}, "1": {"label": "*0", "atom_type": "S2s"}, "2": {"label": "*2", "atom_type": "H0"}, "6": {"label": "*4", "atom_type": "Cd"}, "7": {"label": "*3", "atom_type": "Cd"}}

>  <type>  (6) 
unop_2

>  <geom_source>  (6) 
Heuristics

$$$$

     RDKit          3D

 14 12  0  0  0  0  0  0  0  0999 V2000
   -0.1321   -1.2914    0.1158 C   0  0  0  0  0  3  0  0  0  0  0  0
   -0.1321   -1.2914   -1.6948 S   0  0  0  0  0  0  0  0  0  0  0  0
   -0.1321   -0.0756    0.5916 H   0  0  0  0  0  0  0  0  0  0  0  0
   -1.0528   -1.7856    0.4218 H   0  0  0  0  0  0  0  0  0  0  0  0
    0.7122   -1.8514    0.5123 H   0  0  0  0  0  0  0  0  0  0  0  0
    1.0382   -0.6633   -1.8612 H   0  0  0  0  0  0  0  0  0  0  0  0
   -0.7122    1.3667    2.2349 C   0  0  0  0  0  0  0  0  0  0  0  0
   -0.1321    1.1391    1.0669 C   0  0  0  0  0  0  0  0  0  0  0  0
    1.0876    1.8394    0.5610 C   0  0  0  0  0  0  0  0  0  0  0  0
   -1.5967    0.8237    2.5435 H   0  0  0  0  0  0  0  0  0  0  0  0
   -0.3220    2.1064    2.9261 H   0  0  0  0  0  0  0  0  0  0  0  0
    0.8786    2.3529   -0.3810 H   0  0  0  0  0  0  0  0  0  0  0  0
    1.4522    2.5745    1.2795 H   0  0  0  0  0  0  0  0  0  0  0  0
    1.8910    1.1256    0.3609 H   0  0  0  0  0  0  0  0  0  0  0  0
  1  2  1  0
  1  4  1  0
  1  5  1  0
  2  6  1  0
  3  8  1  0
  7  8  2  3
  7 10  1  0
  7 11  1  0
  8  9  1  0
  9 12  1  0
  9 13  1  0
  9 14  1  0
M  RAD  1   1   2
M  END
>  <reaction>  (7) 
rxn_1835

>  <mol_properties>  (7) 
{"0": {"label": "*1", "atom_type": "Cs"}, "1": {"label": "*0", "atom_type": "S2s"}, "2": {"label": "*2", "atom_type": "H0"}, "6": {"label": "*4", "atom_type": "Cd"}, "7": {"label": "*3", "atom_type": "Cd"}}

>  <type>  (7) 
unop_3

>  <geom_source>  (7) 
Heuristics

$$$$

     RDKit          3D

 14 12  0  0  0  0  0  0  0  0999 V2000
   -0.0449   -1.2682    0.0439 C   0  0  0  0  0  3  0  0  0  0  0  0
   -0.0449   -1.2682   -1.7668 S   0  0  0  0  0  0  0  0  0  0  0  0
   -0.0449   -0.0523    0.5196 H   0  0  0  0  0  0  0  0  0  0  0  0
   -0.9655   -1.7623    0.3498 H   0  0  0  0  0  0  0  0  0  0  0  0
    0.7995   -1.8282    0.4403 H   0  0  0  0  0  0  0  0  0  0  0  0
    1.1254   -0.6400   -1.9332 H   0  0  0  0  0  0  0  0  0  0  0  0
    0.9598    1.9674    0.6871 C   0  0  0  0  0  0  0  0  0  0  0  0
   -0.0449    1.1624    0.9950 C   0  0  0  0  0  0  0  0  0  0  0  0
   -0.8059    1.1890    2.2812 C   0  0  0  0  0  0  0  0  0  0  0  0
    1.4713    1.8967   -0.2646 H   0  0  0  0  0  0  0  0  0  0  0  0
    1.3076    2.7282    1.3780 H   0  0  0  0  0  0  0  0  0  0  0  0
   -0.7355    0.2267    2.7948 H   0  0  0  0  0  0  0  0  0  0  0  0
   -0.4305    1.9640    2.9505 H   0  0  0  0  0  0  0  0  0  0  0  0
   -1.8679    1.3746    2.1009 H   0  0  0  0  0  0  0  0  0  0  0  0
  1  2  1  0
  1  4  1  0
  1  5  1  0
  2  6  1  0
  3  8  1  0
  7  8  2  3
  7 10  1  0
  7 11  1  0
  8  9  1  0
  9 12  1  0
  9 13  1  0
  9 14  1  0
M  RAD  1   1   2
M  END
>  <reaction>  (8) 
rxn_1835

>  <mol_properties>  (8) 
{"0": {"label": "*1", "atom_type": "Cs"}, "1": {"label": "*0", "atom_type": "S2s"}, "2": {"label": "*2", "atom_type": "H0"}, "6": {"label": "*4", "atom_type": "Cd"}, "7": {"label": "*3", "atom_type": "Cd"}}

>  <type>  (8) 
unop_4

>  <geom_source>  (8) 
Heuristics

$$$$

     RDKit          3D

 14 12  0  0  0  0  0  0  0  0999 V2000
   -0.0124   -1.3531    0.1813 C   0  0  0  0  0  3  0  0  0  0  0  0
   -0.0124   -1.3531   -1.6293 S   0  0  0  0  0  0  0  0  0  0  0  0
   -0.0124   -0.1372    0.6571 H   0  0  0  0  0  0  0  0  0  0  0  0
   -0.9331   -1.8472    0.4873 H   0  0  0  0  0  0  0  0  0  0  0  0
    0.8320   -1.9131    0.5778 H   0  0  0  0  0  0  0  0  0  0  0  0
    1.1579   -0.7249   -1.7957 H   0  0  0  0  0  0  0  0  0  0  0  0
   -0.0124    1.2484    2.4451 C   0  0  0  0  0  0  0  0  0  0  0  0
   -0.0124    1.0775    1.1325 C   0  0  0  0  0  0  0  0  0  0  0  0
   -0.0124    2.1783    0.1213 C   0  0  0  0  0  0  0  0  0  0  0  0
   -0.0124    0.4066    3.1260 H   0  0  0  0  0  0  0  0  0  0  0  0
   -0.0124    2.2394    2.8869 H   0  0  0  0  0  0  0  0  0  0  0  0
   -0.8901    2.1112   -0.5266 H   0  0  0  0  0  0  0  0  0  0  0  0
   -0.0124    3.1587    0.5993 H   0  0  0  0  0  0  0  0  0  0  0  0
    0.8653    2.1112   -0.5266 H   0  0  0  0  0  0  0  0  0  0  0  0
  1  2  1  0
  1  4  1  0
  1  5  1  0
  2  6  1  0
  3  8  1  0
  7  8  2  3
  7 10  1  0
  7 11  1  0
  8  9  1  0
  9 12  1  0
  9 13  1  0
  9 14  1  0
M  RAD  1   1   2
M  END
>  <reaction>  (9) 
rxn_1835

>  <mol_properties>  (9) 
{"0": {"label": "*1", "atom_type": "Cs"}, "1": {"label": "*0", "atom_type": "S2s"}, "2": {"label": "*2", "atom_type": "H0"}, "6": {"label": "*4", "atom_type": "Cd"}, "7": {"label": "*3", "atom_type": "Cd"}}

>  <type>  (9) 
unop_5

>  <geom_source>  (9) 
Heuristics

$$$$

     RDKit          3D

 14 12  0  0  0  0  0  0  0  0999 V2000
    0.0066   -1.2409    0.0237 C   0  0  0  0  0  3  0  0  0  0  0  0
    0.0066   -1.2409   -1.7869 S   0  0  0  0  0  0  0  0  0  0  0  0
    0.0066   -0.0251    0.4995 H   0  0  0  0  0  0  0  0  0  0  0  0
   -0.9141   -1.7350    0.3297 H   0  0  0  0  0  0  0  0  0  0  0  0
    0.8510   -1.8009    0.4202 H   0  0  0  0  0  0  0  0  0  0  0  0
    1.1769   -0.6128   -1.9533 H   0  0  0  0  0  0  0  0  0  0  0  0
    1.1667    1.7834    1.2072 C   0  0  0  0  0  0  0  0  0  0  0  0
    0.0066    1.1897    0.9748 C   0  0  0  0  0  0  0  0  0  0  0  0
   -1.1906    1.2612    1.8669 C   0  0  0  0  0  0  0  0  0  0  0  0
    1.9977    1.6920    0.5190 H   0  0  0  0  0  0  0  0  0  0  0  0
    1.3272    2.3837    2.0965 H   0  0  0  0  0  0  0  0  0  0  0  0
   -1.4892    0.2632    2.1979 H   0  0  0  0  0  0  0  0  0  0  0  0
   -0.9942    1.8714    2.7494 H   0  0  0  0  0  0  0  0  0  0  0  0
   -2.0458    1.6879    1.3366 H   0  0  0  0  0  0  0  0  0  0  0  0
  1  2  1  0
  1  4  1  0
  1  5  1  0
  2  6  1  0
  3  8  1  0
  7  8  2  3
  7 10  1  0
  7 11  1  0
  8  9  1  0
  9 12  1  0
  9 13  1  0
  9 14  1  0
M  RAD  1   1   2
M  END
>  <reaction>  (10) 
rxn_1835

>  <mol_properties>  (10) 
{"0": {"label": "*1", "atom_type": "Cs"}, "1": {"label": "*0", "atom_type": "S2s"}, "2": {"label": "*2", "atom_type": "H0"}, "6": {"label": "*4", "atom_type": "Cd"}, "7": {"label": "*3", "atom_type": "Cd"}}

>  <type>  (10) 
unop_6

>  <geom_source>  (10) 
Heuristics

$$$$

     RDKit          3D

 14 12  0  0  0  0  0  0  0  0999 V2000
    0.0764   -1.2429    0.0451 C   0  0  0  0  0  3  0  0  0  0  0  0
    0.0764   -1.2429   -1.7656 S   0  0  0  0  0  0  0  0  0  0  0  0
    0.0764   -0.0270    0.5209 H   0  0  0  0  0  0  0  0  0  0  0  0
   -0.8443   -1.7370    0.3510 H   0  0  0  0  0  0  0  0  0  0  0  0
    0.9207   -1.8029    0.4416 H   0  0  0  0  0  0  0  0  0  0  0  0
    1.2467   -0.6147   -1.9320 H   0  0  0  0  0  0  0  0  0  0  0  0
    1.0810    1.5700    1.7687 C   0  0  0  0  0  0  0  0  0  0  0  0
    0.0764    1.1877    0.9962 C   0  0  0  0  0  0  0  0  0  0  0  0
   -1.3677    1.4691    1.2604 C   0  0  0  0  0  0  0  0  0  0  0  0
    2.1081    1.3335    1.5207 H   0  0  0  0  0  0  0  0  0  0  0  0
    0.9116    2.1348    2.6794 H   0  0  0  0  0  0  0  0  0  0  0  0
   -1.9361    0.5392    1.3440 H   0  0  0  0  0  0  0  0  0  0  0  0
   -1.5010    2.0373    2.1818 H   0  0  0  0  0  0  0  0  0  0  0  0
   -1.8099    2.0376    0.4382 H   0  0  0  0  0  0  0  0  0  0  0  0
  1  2  1  0
  1  4  1  0
  1  5  1  0
  2  6  1  0
  3  8  1  0
  7  8  2  3
  7 10  1  0
  7 11  1  0
  8  9  1  0
  9 12  1  0
  9 13  1  0
  9 14  1  0
M  RAD  1   1   2
M  END
>  <reaction>  (11) 
rxn_1835

>  <mol_properties>  (11) 
{"0": {"label": "*1", "atom_type": "Cs"}, "1": {"label": "*0", "atom_type": "S2s"}, "2": {"label": "*2", "atom_type": "H0"}, "6": {"label": "*4", "atom_type": "Cd"}, "7": {"label": "*3", "atom_type": "Cd"}}

>  <type>  (11) 
unop_7

>  <geom_source>  (11) 
Heuristics

$$$$

     RDKit          3D

 14 12  0  0  0  0  0  0  0  0999 V2000
   -0.0314   -1.2409    0.0237 C   0  0  0  0  0  3  0  0  0  0  0  0
   -0.0314   -1.2409   -1.7869 S   0  0  0  0  0  0  0  0  0  0  0  0
   -0.0314   -0.0251    0.4995 H   0  0  0  0  0  0  0  0  0  0  0  0
   -0.9521   -1.7350    0.3297 H   0  0  0  0  0  0  0  0  0  0  0  0
    0.8130   -1.8009    0.4202 H   0  0  0  0  0  0  0  0  0  0  0  0
    1.1389   -0.6128   -1.9533 H   0  0  0  0  0  0  0  0  0  0  0  0
   -1.1915    1.7834    1.2072 C   0  0  0  0  0  0  0  0  0  0  0  0
   -0.0314    1.1897    0.9748 C   0  0  0  0  0  0  0  0  0  0  0  0
    1.1658    1.2612    1.8669 C   0  0  0  0  0  0  0  0  0  0  0  0
   -2.0224    1.6920    0.5190 H   0  0  0  0  0  0  0  0  0  0  0  0
   -1.3520    2.3837    2.0965 H   0  0  0  0  0  0  0  0  0  0  0  0
    2.0210    1.6879    1.3366 H   0  0  0  0  0  0  0  0  0  0  0  0
    0.9695    1.8714    2.7494 H   0  0  0  0  0  0  0  0  0  0  0  0
    1.4644    0.2632    2.1979 H   0  0  0  0  0  0  0  0  0  0  0  0
  1  2  1  0
  1  4  1  0
  1  5  1  0
  2  6  1  0
  3  8  1  0
  7  8  2  3
  7 10  1  0
  7 11  1  0
  8  9  1  0
  9 12  1  0
  9 13  1  0
  9 14  1  0
M  RAD  1   1   2
M  END
>  <reaction>  (12) 
rxn_1835

>  <mol_properties>  (12) 
{"0": {"label": "*1", "atom_type": "Cs"}, "1": {"label": "*0", "atom_type": "S2s"}, "2": {"label": "*2", "atom_type": "H0"}, "6": {"label": "*4", "atom_type": "Cd"}, "7": {"label": "*3", "atom_type": "Cd"}}

>  <type>  (12) 
unop_8

>  <geom_source>  (12) 
Heuristics

$$$$

     RDKit          3D

 14 12  0  0  0  0  0  0  0  0999 V2000
   -0.0498   -1.3036    0.0799 C   0  0  0  0  0  3  0  0  0  0  0  0
   -0.0498   -1.3036   -1.7307 S   0  0  0  0  0  0  0  0  0  0  0  0
   -0.0498   -0.0878    0.5557 H   0  0  0  0  0  0  0  0  0  0  0  0
   -0.9705   -1.7978    0.3859 H   0  0  0  0  0  0  0  0  0  0  0  0
    0.7946   -1.8636    0.4764 H   0  0  0  0  0  0  0  0  0  0  0  0
    1.1205   -0.6755   -1.8971 H   0  0  0  0  0  0  0  0  0  0  0  0
    0.5303    2.0867    0.3278 C   0  0  0  0  0  0  0  0  0  0  0  0
   -0.0498    1.1269    1.0310 C   0  0  0  0  0  0  0  0  0  0  0  0
   -0.3841    1.2080    2.4856 C   0  0  0  0  0  0  0  0  0  0  0  0
    0.7462    1.9652   -0.7262 H   0  0  0  0  0  0  0  0  0  0  0  0
    0.8107    3.0310    0.7825 H   0  0  0  0  0  0  0  0  0  0  0  0
    0.1195    0.4155    3.0452 H   0  0  0  0  0  0  0  0  0  0  0  0
   -0.0891    2.1686    2.9096 H   0  0  0  0  0  0  0  0  0  0  0  0
   -1.4572    1.0758    2.6460 H   0  0  0  0  0  0  0  0  0  0  0  0
  1  2  1  0
  1  4  1  0
  1  5  1  0
  2  6  1  0
  3  8  1  0
  7  8  2  3
  7 10  1  0
  7 11  1  0
  8  9  1  0
  9 12  1  0
  9 13  1  0
  9 14  1  0
M  RAD  1   1   2
M  END
>  <reaction>  (13) 
rxn_1835

>  <mol_properties>  (13) 
{"0": {"label": "*1", "atom_type": "Cs"}, "1": {"label": "*0", "atom_type": "S2s"}, "2": {"label": "*2", "atom_type": "H0"}, "6": {"label": "*4", "atom_type": "Cd"}, "7": {"label": "*3", "atom_type": "Cd"}}

>  <type>  (13) 
unop_9

>  <geom_source>  (13) 
Heuristics

$$$$

     RDKit          3D

 14 12  0  0  0  0  0  0  0  0999 V2000
    0.0201   -1.2682    0.0439 C   0  0  0  0  0  3  0  0  0  0  0  0
    0.0201   -1.2682   -1.7668 S   0  0  0  0  0  0  0  0  0  0  0  0
    0.0201   -0.0523    0.5196 H   0  0  0  0  0  0  0  0  0  0  0  0
   -0.9006   -1.7623    0.3498 H   0  0  0  0  0  0  0  0  0  0  0  0
    0.8645   -1.8282    0.4403 H   0  0  0  0  0  0  0  0  0  0  0  0
    1.1904   -0.6400   -1.9332 H   0  0  0  0  0  0  0  0  0  0  0  0
   -0.9846    1.9674    0.6871 C   0  0  0  0  0  0  0  0  0  0  0  0
    0.0201    1.1624    0.9950 C   0  0  0  0  0  0  0  0  0  0  0  0
    0.7812    1.1890    2.2812 C   0  0  0  0  0  0  0  0  0  0  0  0
   -1.4960    1.8967   -0.2646 H   0  0  0  0  0  0  0  0  0  0  0  0
   -1.3324    2.7282    1.3780 H   0  0  0  0  0  0  0  0  0  0  0  0
    1.8432    1.3746    2.1009 H   0  0  0  0  0  0  0  0  0  0  0  0
    0.4058    1.9640    2.9505 H   0  0  0  0  0  0  0  0  0  0  0  0
    0.7107    0.2268    2.7948 H   0  0  0  0  0  0  0  0  0  0  0  0
  1  2  1  0
  1  4  1  0
  1  5  1  0
  2  6  1  0
  3  8  1  0
  7  8  2  3
  7 10  1  0
  7 11  1  0
  8  9  1  0
  9 12  1  0
  9 13  1  0
  9 14  1  0
M  RAD  1   1   2
M  END
>  <reaction>  (14) 
rxn_1835

>  <mol_properties>  (14) 
{"0": {"label": "*1", "atom_type": "Cs"}, "1": {"label": "*0", "atom_type": "S2s"}, "2": {"label": "*2", "atom_type": "H0"}, "6": {"label": "*4", "atom_type": "Cd"}, "7": {"label": "*3", "atom_type": "Cd"}}

>  <type>  (14) 
unop_10

>  <geom_source>  (14) 
Heuristics

$$$$

     RDKit          3D

 14 12  0  0  0  0  0  0  0  0999 V2000
    0.1074   -1.2914    0.1158 C   0  0  0  0  0  3  0  0  0  0  0  0
    0.1074   -1.2914   -1.6948 S   0  0  0  0  0  0  0  0  0  0  0  0
    0.1074   -0.0756    0.5916 H   0  0  0  0  0  0  0  0  0  0  0  0
   -0.8133   -1.7856    0.4218 H   0  0  0  0  0  0  0  0  0  0  0  0
    0.9517   -1.8514    0.5123 H   0  0  0  0  0  0  0  0  0  0  0  0
    1.2777   -0.6633   -1.8612 H   0  0  0  0  0  0  0  0  0  0  0  0
    0.6874    1.3667    2.2349 C   0  0  0  0  0  0  0  0  0  0  0  0
    0.1074    1.1391    1.0669 C   0  0  0  0  0  0  0  0  0  0  0  0
   -1.1124    1.8394    0.5610 C   0  0  0  0  0  0  0  0  0  0  0  0
    1.5719    0.8237    2.5435 H   0  0  0  0  0  0  0  0  0  0  0  0
    0.2972    2.1064    2.9261 H   0  0  0  0  0  0  0  0  0  0  0  0
   -1.9157    1.1256    0.3609 H   0  0  0  0  0  0  0  0  0  0  0  0
   -1.4770    2.5745    1.2795 H   0  0  0  0  0  0  0  0  0  0  0  0
   -0.9034    2.3529   -0.3810 H   0  0  0  0  0  0  0  0  0  0  0  0
  1  2  1  0
  1  4  1  0
  1  5  1  0
  2  6  1  0
  3  8  1  0
  7  8  2  3
  7 10  1  0
  7 11  1  0
  8  9  1  0
  9 12  1  0
  9 13  1  0
  9 14  1  0
M  RAD  1   1   2
M  END
>  <reaction>  (15) 
rxn_1835

>  <mol_properties>  (15) 
{"0": {"label": "*1", "atom_type": "Cs"}, "1": {"label": "*0", "atom_type": "S2s"}, "2": {"label": "*2", "atom_type": "H0"}, "6": {"label": "*4", "atom_type": "Cd"}, "7": {"label": "*3", "atom_type": "Cd"}}

>  <type>  (15) 
unop_11

>  <geom_source>  (15) 
Heuristics

$$$$

     RDKit          3D

 14 12  0  0  0  0  0  0  0  0999 V2000
   -0.0124   -1.3204    0.0978 C   0  0  0  0  0  3  0  0  0  0  0  0
   -0.0124   -1.3204   -1.7128 S   0  0  0  0  0  0  0  0  0  0  0  0
   -0.0124   -0.1046    0.5736 H   0  0  0  0  0  0  0  0  0  0  0  0
   -0.9331   -1.8145    0.4038 H   0  0  0  0  0  0  0  0  0  0  0  0
    0.8320   -1.8804    0.4943 H   0  0  0  0  0  0  0  0  0  0  0  0
    1.1579   -0.6923   -1.8792 H   0  0  0  0  0  0  0  0  0  0  0  0
   -0.0124    2.1266    0.2009 C   0  0  0  0  0  0  0  0  0  0  0  0
   -0.0124    1.1102    1.0490 C   0  0  0  0  0  0  0  0  0  0  0  0
   -0.0124    1.2323    2.5387 C   0  0  0  0  0  0  0  0  0  0  0  0
   -0.0124    1.9705   -0.8705 H   0  0  0  0  0  0  0  0  0  0  0  0
   -0.0124    3.1542    0.5491 H   0  0  0  0  0  0  0  0  0  0  0  0
    0.8653    0.7433    2.9690 H   0  0  0  0  0  0  0  0  0  0  0  0
   -0.0124    2.2768    2.8530 H   0  0  0  0  0  0  0  0  0  0  0  0
   -0.8901    0.7433    2.9690 H   0  0  0  0  0  0  0  0  0  0  0  0
  1  2  1  0
  1  4  1  0
  1  5  1  0
  2  6  1  0
  3  8  1  0
  7  8  2  3
  7 10  1  0
  7 11  1  0
  8  9  1  0
  9 12  1  0
  9 13  1  0
  9 14  1  0
M  RAD  1   1   2
M  END
>  <reaction>  (16) 
rxn_1835

>  <mol_properties>  (16) 
{"0": {"label": "*1", "atom_type": "Cs"}, "1": {"label": "*0", "atom_type": "S2s"}, "2": {"label": "*2", "atom_type": "H0"}, "6": {"label": "*4", "atom_type": "Cd"}, "7": {"label": "*3", "atom_type": "Cd"}}

>  <type>  (16) 
unop_12

>  <geom_source>  (16) 
Heuristics

$$$$

     RDKit          3D

 14 12  0  0  0  0  0  0  0  0999 V2000
    2.2551    1.5427    0.6283 S   0  0  0  0  0  0  0  0  0  0  0  0
   -1.3455   -1.2514   -0.1284 C   0  0  0  0  0  0  0  0  0  0  0  0
   -0.5587   -0.0139   -0.4259 C   0  0  0  0  0  0  0  0  0  0  0  0
   -1.1653    1.1390   -0.7141 C   0  0  0  0  0  0  0  0  0  0  0  0
    1.8804   -0.2146    0.3779 C   0  0  0  0  0  3  0  0  0  0  0  0
   -0.6503   -2.0900    0.0834 H   0  0  0  0  0  0  0  0  0  0  0  0
   -1.9771   -1.5189   -1.0018 H   0  0  0  0  0  0  0  0  0  0  0  0
   -1.9916   -1.0862    0.7597 H   0  0  0  0  0  0  0  0  0  0  0  0
    0.7134   -0.0630   -0.4033 H   0  0  0  0  0  0  0  0  0  0  0  0
   -2.2487    1.2090   -0.7402 H   0  0  0  0  0  0  0  0  0  0  0  0
   -0.5730    2.0226   -0.9263 H   0  0  0  0  0  0  0  0  0  0  0  0
    2.6351   -0.6597   -0.3025 H   0  0  0  0  0  0  0  0  0  0  0  0
    1.9063   -0.7432    1.3532 H   0  0  0  0  0  0  0  0  0  0  0  0
    1.1201    1.7277    1.4400 H   0  0  0  0  0  0  0  0  0  0  0  0
  1  5  1  0
  1 14  1  0
  2  3  1  0
  2  6  1  0
  2  7  1  0
  2  8  1  0
  3  4  2  3
  3  9  1  0
  4 10  1  0
  4 11  1  0
  5 12  1  0
  5 13  1  0
M  RAD  1   5   2
M  END
>  <reaction>  (17) 
rxn_1835

>  <mol_properties>  (17) 
{"0": {"label": "*1", "atom_type": "Cs"}, "1": {"label": "*0", "atom_type": "S2s"}, "2": {"label": "*2", "atom_type": "H0"}, "6": {"label": "*4", "atom_type": "Cd"}, "7": {"label": "*3", "atom_type": "Cd"}}

>  <type>  (17) 
unop_13

>  <geom_source>  (17) 
AutoTST

$$$$
