
     RDKit          3D

 12 11  0  0  0  0  0  0  0  0999 V2000
    2.1696    0.6854    1.1310 C   0  0  0  0  0  0  0  0  0  0  0  0
    1.2518    0.4145    0.4134 C   0  0  0  0  0  0  0  0  0  0  0  0
    0.1391    0.0443   -0.4683 C   0  0  0  0  0  0  0  0  0  0  0  0
   -0.2054   -1.4492   -0.3339 C   0  0  0  0  0  0  0  0  0  0  0  0
   -1.0375    0.8853   -0.2222 C   0  0  0  0  0  0  0  0  0  0  0  0
   -2.0160    1.5463   -0.0311 C   0  0  0  0  0  0  0  0  0  0  0  0
    2.9819    0.9356    1.7702 H   0  0  0  0  0  0  0  0  0  0  0  0
    0.4629    0.2285   -1.4981 H   0  0  0  0  0  0  0  0  0  0  0  0
   -0.5327   -1.6703    0.6812 H   0  0  0  0  0  0  0  0  0  0  0  0
    0.6727   -2.0535   -0.5593 H   0  0  0  0  0  0  0  0  0  0  0  0
   -1.0064   -1.7081   -1.0256 H   0  0  0  0  0  0  0  0  0  0  0  0
   -2.8802    2.1413    0.1426 H   0  0  0  0  0  0  0  0  0  0  0  0
  1  2  3  0
  1  7  1  0
  2  3  1  0
  3  4  1  0
  3  5  1  0
  3  8  1  0
  4  9  1  0
  4 10  1  0
  4 11  1  0
  5  6  3  0
  6 12  1  0
M  END
>  <reaction>  (1) 
rxn_1400

>  <mol_properties>  (1) 
{"2": {"label": "donator", "atom_type": "Cs"}, "7": {"label": "d_hydrogen", "atom_type": "H0"}}

>  <type>  (1) 
r1h

$$$$

     RDKit          3D

  9  8  0  0  0  0  0  0  0  0999 V2000
    2.3038   -0.0269    0.1590 C   0  0  0  0  0  0  0  0  0  0  0  0
    1.1426    0.1377   -0.1648 C   0  0  0  0  0  0  0  0  0  0  0  0
   -0.1694    0.3175   -0.5203 C   0  0  0  0  0  3  0  0  0  0  0  0
   -1.3163   -0.1910    0.2856 C   0  0  0  0  0  0  0  0  0  0  0  0
    3.3199   -0.1683    0.4378 H   0  0  0  0  0  0  0  0  0  0  0  0
   -0.3786    0.8584   -1.4360 H   0  0  0  0  0  0  0  0  0  0  0  0
   -1.9694    0.6309    0.5951 H   0  0  0  0  0  0  0  0  0  0  0  0
   -1.9325   -0.8770   -0.3039 H   0  0  0  0  0  0  0  0  0  0  0  0
   -0.9753   -0.7144    1.1774 H   0  0  0  0  0  0  0  0  0  0  0  0
  1  2  3  0
  1  5  1  0
  2  3  1  0
  3  4  1  0
  3  6  1  0
  4  7  1  0
  4  8  1  0
  4  9  1  0
M  RAD  1   3   2
M  END
>  <reaction>  (2) 
rxn_1400

>  <mol_properties>  (2) 
{"2": {"label": "acceptor", "atom_type": "Cs"}}

>  <type>  (2) 
r2

$$$$

     RDKit          3D

 10  9  0  0  0  0  0  0  0  0999 V2000
    2.2738    0.0217   -0.0992 C   0  0  0  0  0  0  0  0  0  0  0  0
    1.1083    0.2960   -0.0695 C   0  0  0  0  0  0  0  0  0  0  0  0
   -0.3173    0.6046   -0.0227 C   0  0  0  0  0  0  0  0  0  0  0  0
   -1.1561   -0.5495    0.5292 C   0  0  0  0  0  0  0  0  0  0  0  0
    3.3097   -0.2166   -0.1277 H   0  0  0  0  0  0  0  0  0  0  0  0
   -0.6542    0.8617   -1.0302 H   0  0  0  0  0  0  0  0  0  0  0  0
   -0.4633    1.4978    0.5900 H   0  0  0  0  0  0  0  0  0  0  0  0
   -0.8485   -0.7997    1.5447 H   0  0  0  0  0  0  0  0  0  0  0  0
   -2.2115   -0.2752    0.5459 H   0  0  0  0  0  0  0  0  0  0  0  0
   -1.0409   -1.4407   -0.0879 H   0  0  0  0  0  0  0  0  0  0  0  0
  1  2  3  0
  1  5  1  0
  2  3  1  0
  3  4  1  0
  3  6  1  0
  3  7  1  0
  4  8  1  0
  4  9  1  0
  4 10  1  0
M  END
>  <reaction>  (3) 
rxn_1400

>  <mol_properties>  (3) 
{"0": {"label": "a_hydrogen", "atom_type": "H0"}, "3": {"label": "acceptor", "atom_type": "Cs"}}

>  <type>  (3) 
r2h

$$$$

     RDKit          3D

 21 19  0  0  0  0  0  0  0  0999 V2000
   -1.4122   -2.0422   -1.5153 C   0  0  0  0  0  0  0  0  0  0  0  0
   -1.2696   -1.0201   -0.9028 C   0  0  0  0  0  0  0  0  0  0  0  0
   -1.0221    0.2098   -0.1982 C   0  0  0  0  0  0  0  0  0  0  0  0
   -1.2082    1.4818   -1.0143 C   0  0  0  0  0  0  0  0  0  0  0  0
   -1.5457    0.2599    1.1400 C   0  0  0  0  0  0  0  0  0  0  0  0
   -1.9277    0.3345    2.2751 C   0  0  0  0  0  0  0  0  0  0  0  0
   -1.5617   -2.9478   -2.0522 H   0  0  0  0  0  0  0  0  0  0  0  0
    0.2746    0.1978   -0.0105 H   0  0  0  0  0  0  0  0  0  0  0  0
   -2.2648    1.6537   -1.2257 H   0  0  0  0  0  0  0  0  0  0  0  0
   -0.6725    1.3980   -1.9598 H   0  0  0  0  0  0  0  0  0  0  0  0
   -0.8164    2.3342   -0.4597 H   0  0  0  0  0  0  0  0  0  0  0  0
   -2.2833    0.3944    3.2754 H   0  0  0  0  0  0  0  0  0  0  0  0
    2.2175    2.6077    0.9200 C   0  0  0  0  0  0  0  0  0  0  0  0
    1.9853    1.4724    0.5911 C   0  0  0  0  0  0  0  0  0  0  0  0
    1.6416    0.1499    0.2173 C   0  0  0  0  0  3  0  0  0  0  0  0
    1.7387   -0.9390    1.2563 C   0  0  0  0  0  0  0  0  0  0  0  0
    2.4409    3.6060    1.2100 H   0  0  0  0  0  0  0  0  0  0  0  0
    1.9722   -0.1308   -0.7815 H   0  0  0  0  0  0  0  0  0  0  0  0
    1.2646   -1.8507    0.8907 H   0  0  0  0  0  0  0  0  0  0  0  0
    2.7828   -1.1645    1.4890 H   0  0  0  0  0  0  0  0  0  0  0  0
    1.2416   -0.6358    2.1779 H   0  0  0  0  0  0  0  0  0  0  0  0
  1  2  3  0
  1  7  1  0
  2  3  1  0
  3  4  1  0
  3  5  1  0
  3  8  1  0
  4  9  1  0
  4 10  1  0
  4 11  1  0
  5  6  3  0
  6 12  1  0
 13 14  3  0
 13 17  1  0
 14 15  1  0
 15 16  1  0
 15 18  1  0
 16 19  1  0
 16 20  1  0
 16 21  1  0
M  RAD  1  15   2
M  END
>  <reaction>  (4) 
rxn_1400

>  <mol_properties>  (4) 
{"1": {"label": "*0", "atom_type": "Ct"}, "2": {"label": "*1", "atom_type": "Cs"}, "7": {"label": "*2", "atom_type": "H0"}, "13": {"label": "*4", "atom_type": "Ct"}, "14": {"label": "*3", "atom_type": "Cs"}}

>  <type>  (4) 
ts

$$$$

     RDKit          3D

 21 19  0  0  0  0  0  0  0  0999 V2000
   -0.7676   -0.0406   -3.1121 C   0  0  0  0  0  0  0  0  0  0  0  0
   -0.7676   -0.0406   -1.9160 C   0  0  0  0  0  0  0  0  0  0  0  0
   -0.7676   -0.0005   -0.4494 C   0  0  0  0  0  3  0  0  0  0  0  0
   -1.4056    1.2987    0.0726 C   0  0  0  0  0  0  0  0  0  0  0  0
   -1.4294   -1.1817    0.1153 C   0  0  0  0  0  0  0  0  0  0  0  0
   -1.9777   -2.1270    0.6018 C   0  0  0  0  0  0  0  0  0  0  0  0
   -0.7676   -0.0406   -4.1756 H   0  0  0  0  0  0  0  0  0  0  0  0
    0.4860   -0.0277   -0.0563 H   0  0  0  0  0  0  0  0  0  0  0  0
   -2.4489    1.3560   -0.2352 H   0  0  0  0  0  0  0  0  0  0  0  0
   -0.8730    2.1602   -0.3291 H   0  0  0  0  0  0  0  0  0  0  0  0
   -1.3584    1.3232    1.1608 H   0  0  0  0  0  0  0  0  0  0  0  0
   -2.4651   -2.9674    1.0343 H   0  0  0  0  0  0  0  0  0  0  0  0
    2.2333    2.1387    1.7508 C   0  0  0  0  0  0  0  0  0  0  0  0
    2.0145    1.1555    1.1028 C   0  0  0  0  0  0  0  0  0  0  0  0
    1.7372   -0.0549    0.3361 C   0  0  0  0  0  0  0  0  0  0  0  0
    1.0916   -1.1561    1.1793 C   0  0  0  0  0  0  0  0  0  0  0  0
    2.4275    3.0116    2.3262 H   0  0  0  0  0  0  0  0  0  0  0  0
    2.6724   -0.4177   -0.0979 H   0  0  0  0  0  0  0  0  0  0  0  0
    0.9028   -2.0388    0.5673 H   0  0  0  0  0  0  0  0  0  0  0  0
    1.7426   -1.4418    2.0056 H   0  0  0  0  0  0  0  0  0  0  0  0
    0.1437   -0.8170    1.5975 H   0  0  0  0  0  0  0  0  0  0  0  0
  1  2  3  0
  1  7  1  0
  2  3  1  0
  3  4  1  0
  3  5  1  0
  4  9  1  0
  4 10  1  0
  4 11  1  0
  5  6  3  0
  6 12  1  0
  8 15  1  0
 13 14  3  0
 13 17  1  0
 14 15  1  0
 15 16  1  0
 15 18  1  0
 16 19  1  0
 16 20  1  0
 16 21  1  0
M  RAD  1   3   2
M  END
>  <reaction>  (5) 
rxn_1400

>  <mol_properties>  (5) 
{"1": {"label": "*0", "atom_type": "Ct"}, "2": {"label": "*1", "atom_type": "Cs"}, "7": {"label": "*2", "atom_type": "H0"}, "13": {"label": "*4", "atom_type": "Ct"}, "14": {"label": "*3", "atom_type": "Cs"}}

>  <type>  (5) 
unop_1

>  <geom_source>  (5) 
Heuristics

$$$$

     RDKit          3D

 21 19  0  0  0  0  0  0  0  0999 V2000
   -0.9680   -0.1201   -2.6666 C   0  0  0  0  0  0  0  0  0  0  0  0
   -0.9680   -0.1201   -1.4705 C   0  0  0  0  0  0  0  0  0  0  0  0
   -0.9680   -0.0801   -0.0039 C   0  0  0  0  0  3  0  0  0  0  0  0
   -1.6061    1.2192    0.5181 C   0  0  0  0  0  0  0  0  0  0  0  0
   -1.6299   -1.2613    0.5609 C   0  0  0  0  0  0  0  0  0  0  0  0
   -2.1781   -2.2066    1.0473 C   0  0  0  0  0  0  0  0  0  0  0  0
   -0.9680   -0.1201   -3.7301 H   0  0  0  0  0  0  0  0  0  0  0  0
    0.2856   -0.1073    0.3892 H   0  0  0  0  0  0  0  0  0  0  0  0
   -2.6493    1.2764    0.2103 H   0  0  0  0  0  0  0  0  0  0  0  0
   -1.0734    2.0806    0.1164 H   0  0  0  0  0  0  0  0  0  0  0  0
   -1.5589    1.2436    1.6063 H   0  0  0  0  0  0  0  0  0  0  0  0
   -2.6655   -3.0470    1.4799 H   0  0  0  0  0  0  0  0  0  0  0  0
    3.0410    1.0472   -1.0624 C   0  0  0  0  0  0  0  0  0  0  0  0
    2.3620    0.5042   -0.2386 C   0  0  0  0  0  0  0  0  0  0  0  0
    1.5367   -0.1345    0.7816 C   0  0  0  0  0  0  0  0  0  0  0  0
    1.3118    0.7556    2.0052 C   0  0  0  0  0  0  0  0  0  0  0  0
    3.6438    1.5292   -1.7938 H   0  0  0  0  0  0  0  0  0  0  0  0
    2.0137   -1.0702    1.0839 H   0  0  0  0  0  0  0  0  0  0  0  0
    0.6919    0.2394    2.7391 H   0  0  0  0  0  0  0  0  0  0  0  0
    2.2610    1.0133    2.4754 H   0  0  0  0  0  0  0  0  0  0  0  0
    0.8123    1.6824    1.7224 H   0  0  0  0  0  0  0  0  0  0  0  0
  1  2  3  0
  1  7  1  0
  2  3  1  0
  3  4  1  0
  3  5  1  0
  4  9  1  0
  4 10  1  0
  4 11  1  0
  5  6  3  0
  6 12  1  0
  8 15  1  0
 13 14  3  0
 13 17  1  0
 14 15  1  0
 15 16  1  0
 15 18  1  0
 16 19  1  0
 16 20  1  0
 16 21  1  0
M  RAD  1   3   2
M  END
>  <reaction>  (6) 
rxn_1400

>  <mol_properties>  (6) 
{"1": {"label": "*0", "atom_type": "Ct"}, "2": {"label": "*1", "atom_type": "Cs"}, "7": {"label": "*2", "atom_type": "H0"}, "13": {"label": "*4", "atom_type": "Ct"}, "14": {"label": "*3", "atom_type": "Cs"}}

>  <type>  (6) 
unop_2

>  <geom_source>  (6) 
Heuristics

$$$$

     RDKit          3D

 21 19  0  0  0  0  0  0  0  0999 V2000
   -0.7783    0.1406   -3.1697 C   0  0  0  0  0  0  0  0  0  0  0  0
   -0.7783    0.1406   -1.9735 C   0  0  0  0  0  0  0  0  0  0  0  0
   -0.7783    0.1806   -0.5070 C   0  0  0  0  0  3  0  0  0  0  0  0
   -1.4164    1.4799    0.0150 C   0  0  0  0  0  0  0  0  0  0  0  0
   -1.4402   -1.0006    0.0578 C   0  0  0  0  0  0  0  0  0  0  0  0
   -1.9884   -1.9459    0.5443 C   0  0  0  0  0  0  0  0  0  0  0  0
   -0.7783    0.1406   -4.2331 H   0  0  0  0  0  0  0  0  0  0  0  0
    0.4752    0.1534   -0.1138 H   0  0  0  0  0  0  0  0  0  0  0  0
   -2.4596    1.5371   -0.2927 H   0  0  0  0  0  0  0  0  0  0  0  0
   -0.8838    2.3413   -0.3866 H   0  0  0  0  0  0  0  0  0  0  0  0
   -1.3692    1.5043    1.1032 H   0  0  0  0  0  0  0  0  0  0  0  0
   -2.4759   -2.7863    0.9768 H   0  0  0  0  0  0  0  0  0  0  0  0
    1.9265    1.4220    2.5895 C   0  0  0  0  0  0  0  0  0  0  0  0
    1.8375    0.8490    1.5415 C   0  0  0  0  0  0  0  0  0  0  0  0
    1.7264    0.1262    0.2785 C   0  0  0  0  0  0  0  0  0  0  0  0
    1.5508   -1.3812    0.4714 C   0  0  0  0  0  0  0  0  0  0  0  0
    2.0055    1.9308    3.5198 H   0  0  0  0  0  0  0  0  0  0  0  0
    2.6199    0.3240   -0.3189 H   0  0  0  0  0  0  0  0  0  0  0  0
    1.4724   -1.8791   -0.4958 H   0  0  0  0  0  0  0  0  0  0  0  0
    2.3999   -1.8035    1.0091 H   0  0  0  0  0  0  0  0  0  0  0  0
    0.6481   -1.5950    1.0438 H   0  0  0  0  0  0  0  0  0  0  0  0
  1  2  3  0
  1  7  1  0
  2  3  1  0
  3  4  1  0
  3  5  1  0
  4  9  1  0
  4 10  1  0
  4 11  1  0
  5  6  3  0
  6 12  1  0
  8 15  1  0
 13 14  3  0
 13 17  1  0
 14 15  1  0
 15 16  1  0
 15 18  1  0
 16 19  1  0
 16 20  1  0
 16 21  1  0
M  RAD  1   3   2
M  END
>  <reaction>  (7) 
rxn_1400

>  <mol_properties>  (7) 
{"1": {"label": "*0", "atom_type": "Ct"}, "2": {"label": "*1", "atom_type": "Cs"}, "7": {"label": "*2", "atom_type": "H0"}, "13": {"label": "*4", "atom_type": "Ct"}, "14": {"label": "*3", "atom_type": "Cs"}}

>  <type>  (7) 
unop_3

>  <geom_source>  (7) 
Heuristics

$$$$

     RDKit          3D

 21 19  0  0  0  0  0  0  0  0999 V2000
   -1.0535    0.3661   -2.6977 C   0  0  0  0  0  0  0  0  0  0  0  0
   -1.0535    0.3661   -1.5015 C   0  0  0  0  0  0  0  0  0  0  0  0
   -1.0535    0.4061   -0.0350 C   0  0  0  0  0  3  0  0  0  0  0  0
   -1.6916    1.7054    0.4870 C   0  0  0  0  0  0  0  0  0  0  0  0
   -1.7154   -0.7751    0.5298 C   0  0  0  0  0  0  0  0  0  0  0  0
   -2.2636   -1.7204    1.0163 C   0  0  0  0  0  0  0  0  0  0  0  0
   -1.0535    0.3661   -3.7611 H   0  0  0  0  0  0  0  0  0  0  0  0
    0.2001    0.3789    0.3582 H   0  0  0  0  0  0  0  0  0  0  0  0
   -2.7348    1.7626    0.1793 H   0  0  0  0  0  0  0  0  0  0  0  0
   -1.1590    2.5668    0.0854 H   0  0  0  0  0  0  0  0  0  0  0  0
   -1.6444    1.7298    1.5753 H   0  0  0  0  0  0  0  0  0  0  0  0
   -2.7510   -2.5608    1.4488 H   0  0  0  0  0  0  0  0  0  0  0  0
    2.5956   -1.8771   -0.1342 C   0  0  0  0  0  0  0  0  0  0  0  0
    2.0684   -0.8782    0.2644 C   0  0  0  0  0  0  0  0  0  0  0  0
    1.4512    0.3517    0.7505 C   0  0  0  0  0  0  0  0  0  0  0  0
    2.4642    1.4766    0.9709 C   0  0  0  0  0  0  0  0  0  0  0  0
    3.0636   -2.7638   -0.4880 H   0  0  0  0  0  0  0  0  0  0  0  0
    0.9254    0.1355    1.6840 H   0  0  0  0  0  0  0  0  0  0  0  0
    1.9601    2.3734    1.3330 H   0  0  0  0  0  0  0  0  0  0  0  0
    3.2148    1.1826    1.7047 H   0  0  0  0  0  0  0  0  0  0  0  0
    2.9782    1.7214    0.0412 H   0  0  0  0  0  0  0  0  0  0  0  0
  1  2  3  0
  1  7  1  0
  2  3  1  0
  3  4  1  0
  3  5  1  0
  4  9  1  0
  4 10  1  0
  4 11  1  0
  5  6  3  0
  6 12  1  0
  8 15  1  0
 13 14  3  0
 13 17  1  0
 14 15  1  0
 15 16  1  0
 15 18  1  0
 16 19  1  0
 16 20  1  0
 16 21  1  0
M  RAD  1   3   2
M  END
>  <reaction>  (8) 
rxn_1400

>  <mol_properties>  (8) 
{"1": {"label": "*0", "atom_type": "Ct"}, "2": {"label": "*1", "atom_type": "Cs"}, "7": {"label": "*2", "atom_type": "H0"}, "13": {"label": "*4", "atom_type": "Ct"}, "14": {"label": "*3", "atom_type": "Cs"}}

>  <type>  (8) 
unop_4

>  <geom_source>  (8) 
Heuristics

$$$$

     RDKit          3D

 21 19  0  0  0  0  0  0  0  0999 V2000
   -0.8609    0.2918   -3.1317 C   0  0  0  0  0  0  0  0  0  0  0  0
   -0.8609    0.2918   -1.9355 C   0  0  0  0  0  0  0  0  0  0  0  0
   -0.8609    0.3319   -0.4690 C   0  0  0  0  0  3  0  0  0  0  0  0
   -1.4990    1.6311    0.0530 C   0  0  0  0  0  0  0  0  0  0  0  0
   -1.5228   -0.8494    0.0958 C   0  0  0  0  0  0  0  0  0  0  0  0
   -2.0710   -1.7947    0.5823 C   0  0  0  0  0  0  0  0  0  0  0  0
   -0.8609    0.2918   -4.1951 H   0  0  0  0  0  0  0  0  0  0  0  0
    0.3927    0.3046   -0.0758 H   0  0  0  0  0  0  0  0  0  0  0  0
   -2.5422    1.6883   -0.2547 H   0  0  0  0  0  0  0  0  0  0  0  0
   -0.9663    2.4925   -0.3486 H   0  0  0  0  0  0  0  0  0  0  0  0
   -1.4518    1.6555    1.1413 H   0  0  0  0  0  0  0  0  0  0  0  0
   -2.5584   -2.6351    1.0148 H   0  0  0  0  0  0  0  0  0  0  0  0
    1.7191    0.3281    2.9720 C   0  0  0  0  0  0  0  0  0  0  0  0
    1.6787    0.3162    1.7750 C   0  0  0  0  0  0  0  0  0  0  0  0
    1.6438    0.2774    0.3165 C   0  0  0  0  0  0  0  0  0  0  0  0
    2.3450   -0.9535   -0.2609 C   0  0  0  0  0  0  0  0  0  0  0  0
    1.7550    0.3386    4.0346 H   0  0  0  0  0  0  0  0  0  0  0  0
    2.1096    1.1874   -0.0701 H   0  0  0  0  0  0  0  0  0  0  0  0
    2.2944   -0.9408   -1.3502 H   0  0  0  0  0  0  0  0  0  0  0  0
    3.3938   -0.9754    0.0356 H   0  0  0  0  0  0  0  0  0  0  0  0
    1.8738   -1.8695    0.0958 H   0  0  0  0  0  0  0  0  0  0  0  0
  1  2  3  0
  1  7  1  0
  2  3  1  0
  3  4  1  0
  3  5  1  0
  4  9  1  0
  4 10  1  0
  4 11  1  0
  5  6  3  0
  6 12  1  0
  8 15  1  0
 13 14  3  0
 13 17  1  0
 14 15  1  0
 15 16  1  0
 15 18  1  0
 16 19  1  0
 16 20  1  0
 16 21  1  0
M  RAD  1   3   2
M  END
>  <reaction>  (9) 
rxn_1400

>  <mol_properties>  (9) 
{"1": {"label": "*0", "atom_type": "Ct"}, "2": {"label": "*1", "atom_type": "Cs"}, "7": {"label": "*2", "atom_type": "H0"}, "13": {"label": "*4", "atom_type": "Ct"}, "14": {"label": "*3", "atom_type": "Cs"}}

>  <type>  (9) 
unop_5

>  <geom_source>  (9) 
Heuristics

$$$$

     RDKit          3D

 21 19  0  0  0  0  0  0  0  0999 V2000
   -1.0155    0.4281   -2.8377 C   0  0  0  0  0  0  0  0  0  0  0  0
   -1.0155    0.4281   -1.6416 C   0  0  0  0  0  0  0  0  0  0  0  0
   -1.0155    0.4682   -0.1750 C   0  0  0  0  0  3  0  0  0  0  0  0
   -1.6535    1.7674    0.3470 C   0  0  0  0  0  0  0  0  0  0  0  0
   -1.6773   -0.7131    0.3898 C   0  0  0  0  0  0  0  0  0  0  0  0
   -2.2256   -1.6583    0.8763 C   0  0  0  0  0  0  0  0  0  0  0  0
   -1.0155    0.4281   -3.9012 H   0  0  0  0  0  0  0  0  0  0  0  0
    0.2381    0.4409    0.2181 H   0  0  0  0  0  0  0  0  0  0  0  0
   -2.6968    1.8247    0.0392 H   0  0  0  0  0  0  0  0  0  0  0  0
   -1.1209    2.6288   -0.0547 H   0  0  0  0  0  0  0  0  0  0  0  0
   -1.6063    1.7918    1.4352 H   0  0  0  0  0  0  0  0  0  0  0  0
   -2.7130   -2.4988    1.3088 H   0  0  0  0  0  0  0  0  0  0  0  0
    2.2496   -2.1116    0.9334 C   0  0  0  0  0  0  0  0  0  0  0  0
    1.8947   -0.9769    0.7885 C   0  0  0  0  0  0  0  0  0  0  0  0
    1.4893    0.4138    0.6105 C   0  0  0  0  0  0  0  0  0  0  0  0
    2.6791    1.3647    0.4680 C   0  0  0  0  0  0  0  0  0  0  0  0
    2.5647   -3.1190    1.0620 H   0  0  0  0  0  0  0  0  0  0  0  0
    0.8738    0.7119    1.4630 H   0  0  0  0  0  0  0  0  0  0  0  0
    2.3299    2.3897    0.3376 H   0  0  0  0  0  0  0  0  0  0  0  0
    3.3128    1.3262    1.3542 H   0  0  0  0  0  0  0  0  0  0  0  0
    3.2881    1.0951   -0.3949 H   0  0  0  0  0  0  0  0  0  0  0  0
  1  2  3  0
  1  7  1  0
  2  3  1  0
  3  4  1  0
  3  5  1  0
  4  9  1  0
  4 10  1  0
  4 11  1  0
  5  6  3  0
  6 12  1  0
  8 15  1  0
 13 14  3  0
 13 17  1  0
 14 15  1  0
 15 16  1  0
 15 18  1  0
 16 19  1  0
 16 20  1  0
 16 21  1  0
M  RAD  1   3   2
M  END
>  <reaction>  (10) 
rxn_1400

>  <mol_properties>  (10) 
{"1": {"label": "*0", "atom_type": "Ct"}, "2": {"label": "*1", "atom_type": "Cs"}, "7": {"label": "*2", "atom_type": "H0"}, "13": {"label": "*4", "atom_type": "Ct"}, "14": {"label": "*3", "atom_type": "Cs"}}

>  <type>  (10) 
unop_6

>  <geom_source>  (10) 
Heuristics

$$$$

     RDKit          3D

 21 19  0  0  0  0  0  0  0  0999 V2000
   -0.9748    0.4125   -2.9682 C   0  0  0  0  0  0  0  0  0  0  0  0
   -0.9748    0.4125   -1.7720 C   0  0  0  0  0  0  0  0  0  0  0  0
   -0.9748    0.4526   -0.3055 C   0  0  0  0  0  3  0  0  0  0  0  0
   -1.6128    1.7518    0.2165 C   0  0  0  0  0  0  0  0  0  0  0  0
   -1.6366   -0.7287    0.2593 C   0  0  0  0  0  0  0  0  0  0  0  0
   -2.1849   -1.6739    0.7458 C   0  0  0  0  0  0  0  0  0  0  0  0
   -0.9748    0.4125   -4.0316 H   0  0  0  0  0  0  0  0  0  0  0  0
    0.2788    0.4253    0.0877 H   0  0  0  0  0  0  0  0  0  0  0  0
   -2.6561    1.8091   -0.0912 H   0  0  0  0  0  0  0  0  0  0  0  0
   -1.0802    2.6132   -0.1851 H   0  0  0  0  0  0  0  0  0  0  0  0
   -1.5656    1.7762    1.3048 H   0  0  0  0  0  0  0  0  0  0  0  0
   -2.6723   -2.5144    1.1783 H   0  0  0  0  0  0  0  0  0  0  0  0
    1.9257   -1.7510    1.9914 C   0  0  0  0  0  0  0  0  0  0  0  0
    1.7348   -0.7832    1.3121 C   0  0  0  0  0  0  0  0  0  0  0  0
    1.5300    0.3982    0.4801 C   0  0  0  0  0  0  0  0  0  0  0  0
    2.8379    0.9707   -0.0692 C   0  0  0  0  0  0  0  0  0  0  0  0
    2.0952   -2.6102    2.5944 H   0  0  0  0  0  0  0  0  0  0  0  0
    1.0095    1.1570    1.0698 H   0  0  0  0  0  0  0  0  0  0  0  0
    2.6373    1.8494   -0.6832 H   0  0  0  0  0  0  0  0  0  0  0  0
    3.5036    1.2621    0.7433 H   0  0  0  0  0  0  0  0  0  0  0  0
    3.3557    0.2325   -0.6820 H   0  0  0  0  0  0  0  0  0  0  0  0
  1  2  3  0
  1  7  1  0
  2  3  1  0
  3  4  1  0
  3  5  1  0
  4  9  1  0
  4 10  1  0
  4 11  1  0
  5  6  3  0
  6 12  1  0
  8 15  1  0
 13 14  3  0
 13 17  1  0
 14 15  1  0
 15 16  1  0
 15 18  1  0
 16 19  1  0
 16 20  1  0
 16 21  1  0
M  RAD  1   3   2
M  END
>  <reaction>  (11) 
rxn_1400

>  <mol_properties>  (11) 
{"1": {"label": "*0", "atom_type": "Ct"}, "2": {"label": "*1", "atom_type": "Cs"}, "7": {"label": "*2", "atom_type": "H0"}, "13": {"label": "*4", "atom_type": "Ct"}, "14": {"label": "*3", "atom_type": "Cs"}}

>  <type>  (11) 
unop_7

>  <geom_source>  (11) 
Heuristics

$$$$

     RDKit          3D

 21 19  0  0  0  0  0  0  0  0999 V2000
   -0.8117   -0.1622   -2.9785 C   0  0  0  0  0  0  0  0  0  0  0  0
   -0.8117   -0.1622   -1.7823 C   0  0  0  0  0  0  0  0  0  0  0  0
   -0.8117   -0.1221   -0.3158 C   0  0  0  0  0  3  0  0  0  0  0  0
   -1.4497    1.1771    0.2062 C   0  0  0  0  0  0  0  0  0  0  0  0
   -1.4735   -1.3034    0.2490 C   0  0  0  0  0  0  0  0  0  0  0  0
   -2.0218   -2.2487    0.7355 C   0  0  0  0  0  0  0  0  0  0  0  0
   -0.8117   -0.1622   -4.0419 H   0  0  0  0  0  0  0  0  0  0  0  0
    0.4419   -0.1494    0.0774 H   0  0  0  0  0  0  0  0  0  0  0  0
   -2.4930    1.2343   -0.1015 H   0  0  0  0  0  0  0  0  0  0  0  0
   -0.9171    2.0385   -0.1954 H   0  0  0  0  0  0  0  0  0  0  0  0
   -1.4025    1.2015    1.2945 H   0  0  0  0  0  0  0  0  0  0  0  0
   -2.5092   -3.0891    1.1680 H   0  0  0  0  0  0  0  0  0  0  0  0
    2.5742    2.3214    0.6776 C   0  0  0  0  0  0  0  0  0  0  0  0
    2.1821    1.1946    0.5723 C   0  0  0  0  0  0  0  0  0  0  0  0
    1.6930   -0.1766    0.4697 C   0  0  0  0  0  0  0  0  0  0  0  0
    0.9313   -0.6292    1.7168 C   0  0  0  0  0  0  0  0  0  0  0  0
    2.9223    3.3218    0.7711 H   0  0  0  0  0  0  0  0  0  0  0  0
    2.5429   -0.8400    0.2908 H   0  0  0  0  0  0  0  0  0  0  0  0
    0.5854   -1.6565    1.5960 H   0  0  0  0  0  0  0  0  0  0  0  0
    1.5704   -0.5817    2.5986 H   0  0  0  0  0  0  0  0  0  0  0  0
    0.0647    0.0082    1.8929 H   0  0  0  0  0  0  0  0  0  0  0  0
  1  2  3  0
  1  7  1  0
  2  3  1  0
  3  4  1  0
  3  5  1  0
  4  9  1  0
  4 10  1  0
  4 11  1  0
  5  6  3  0
  6 12  1  0
  8 15  1  0
 13 14  3  0
 13 17  1  0
 14 15  1  0
 15 16  1  0
 15 18  1  0
 16 19  1  0
 16 20  1  0
 16 21  1  0
M  RAD  1   3   2
M  END
>  <reaction>  (12) 
rxn_1400

>  <mol_properties>  (12) 
{"1": {"label": "*0", "atom_type": "Ct"}, "2": {"label": "*1", "atom_type": "Cs"}, "7": {"label": "*2", "atom_type": "H0"}, "13": {"label": "*4", "atom_type": "Ct"}, "14": {"label": "*3", "atom_type": "Cs"}}

>  <type>  (12) 
unop_8

>  <geom_source>  (12) 
Heuristics

$$$$

     RDKit          3D

 21 19  0  0  0  0  0  0  0  0999 V2000
   -1.0681    0.2213   -2.5978 C   0  0  0  0  0  0  0  0  0  0  0  0
   -1.0681    0.2213   -1.4016 C   0  0  0  0  0  0  0  0  0  0  0  0
   -1.0681    0.2614    0.0649 C   0  0  0  0  0  3  0  0  0  0  0  0
   -1.7061    1.5606    0.5869 C   0  0  0  0  0  0  0  0  0  0  0  0
   -1.7300   -0.9199    0.6297 C   0  0  0  0  0  0  0  0  0  0  0  0
   -2.2782   -1.8652    1.1162 C   0  0  0  0  0  0  0  0  0  0  0  0
   -1.0681    0.2213   -3.6613 H   0  0  0  0  0  0  0  0  0  0  0  0
    0.1855    0.2341    0.4580 H   0  0  0  0  0  0  0  0  0  0  0  0
   -2.7494    1.6178    0.2791 H   0  0  0  0  0  0  0  0  0  0  0  0
   -1.1735    2.4220    0.1852 H   0  0  0  0  0  0  0  0  0  0  0  0
   -1.6590    1.5850    1.6751 H   0  0  0  0  0  0  0  0  0  0  0  0
   -2.7656   -2.7056    1.5487 H   0  0  0  0  0  0  0  0  0  0  0  0
    2.8802   -1.1290   -0.9359 C   0  0  0  0  0  0  0  0  0  0  0  0
    2.2201   -0.5353   -0.1321 C   0  0  0  0  0  0  0  0  0  0  0  0
    1.4366    0.2069    0.8504 C   0  0  0  0  0  0  0  0  0  0  0  0
    2.1730    1.4337    1.3917 C   0  0  0  0  0  0  0  0  0  0  0  0
    3.4663   -1.6562   -1.6495 H   0  0  0  0  0  0  0  0  0  0  0  0
    1.1771   -0.4648    1.6725 H   0  0  0  0  0  0  0  0  0  0  0  0
    1.5519    1.9561    2.1203 H   0  0  0  0  0  0  0  0  0  0  0  0
    3.1041    1.1422    1.8779 H   0  0  0  0  0  0  0  0  0  0  0  0
    2.4152    2.1261    0.5853 H   0  0  0  0  0  0  0  0  0  0  0  0
  1  2  3  0
  1  7  1  0
  2  3  1  0
  3  4  1  0
  3  5  1  0
  4  9  1  0
  4 10  1  0
  4 11  1  0
  5  6  3  0
  6 12  1  0
  8 15  1  0
 13 14  3  0
 13 17  1  0
 14 15  1  0
 15 16  1  0
 15 18  1  0
 16 19  1  0
 16 20  1  0
 16 21  1  0
M  RAD  1   3   2
M  END
>  <reaction>  (13) 
rxn_1400

>  <mol_properties>  (13) 
{"1": {"label": "*0", "atom_type": "Ct"}, "2": {"label": "*1", "atom_type": "Cs"}, "7": {"label": "*2", "atom_type": "H0"}, "13": {"label": "*4", "atom_type": "Ct"}, "14": {"label": "*3", "atom_type": "Cs"}}

>  <type>  (13) 
unop_9

>  <geom_source>  (13) 
Heuristics

$$$$

     RDKit          3D

 21 19  0  0  0  0  0  0  0  0999 V2000
   -0.8847   -0.1911   -2.8139 C   0  0  0  0  0  0  0  0  0  0  0  0
   -0.8847   -0.1911   -1.6177 C   0  0  0  0  0  0  0  0  0  0  0  0
   -0.8847   -0.1510   -0.1512 C   0  0  0  0  0  3  0  0  0  0  0  0
   -1.5228    1.1482    0.3708 C   0  0  0  0  0  0  0  0  0  0  0  0
   -1.5466   -1.3322    0.4136 C   0  0  0  0  0  0  0  0  0  0  0  0
   -2.0948   -2.2775    0.9001 C   0  0  0  0  0  0  0  0  0  0  0  0
   -0.8847   -0.1911   -3.8773 H   0  0  0  0  0  0  0  0  0  0  0  0
    0.3688   -0.1782    0.2420 H   0  0  0  0  0  0  0  0  0  0  0  0
   -2.5660    1.2055    0.0631 H   0  0  0  0  0  0  0  0  0  0  0  0
   -0.9902    2.0096   -0.0308 H   0  0  0  0  0  0  0  0  0  0  0  0
   -1.4756    1.1726    1.4591 H   0  0  0  0  0  0  0  0  0  0  0  0
   -2.5822   -3.1179    1.3326 H   0  0  0  0  0  0  0  0  0  0  0  0
    2.8701    1.9221   -0.3508 C   0  0  0  0  0  0  0  0  0  0  0  0
    2.3097    0.9565    0.0828 C   0  0  0  0  0  0  0  0  0  0  0  0
    1.6200   -0.2054    0.6343 C   0  0  0  0  0  0  0  0  0  0  0  0
    1.0079    0.0659    2.0098 C   0  0  0  0  0  0  0  0  0  0  0  0
    3.3677    2.7793   -0.7358 H   0  0  0  0  0  0  0  0  0  0  0  0
    2.3275   -1.0360    0.6985 H   0  0  0  0  0  0  0  0  0  0  0  0
    0.5044   -0.8270    2.3821 H   0  0  0  0  0  0  0  0  0  0  0  0
    1.7784    0.3515    2.7262 H   0  0  0  0  0  0  0  0  0  0  0  0
    0.2799    0.8755    1.9560 H   0  0  0  0  0  0  0  0  0  0  0  0
  1  2  3  0
  1  7  1  0
  2  3  1  0
  3  4  1  0
  3  5  1  0
  4  9  1  0
  4 10  1  0
  4 11  1  0
  5  6  3  0
  6 12  1  0
  8 15  1  0
 13 14  3  0
 13 17  1  0
 14 15  1  0
 15 16  1  0
 15 18  1  0
 16 19  1  0
 16 20  1  0
 16 21  1  0
M  RAD  1   3   2
M  END
>  <reaction>  (14) 
rxn_1400

>  <mol_properties>  (14) 
{"1": {"label": "*0", "atom_type": "Ct"}, "2": {"label": "*1", "atom_type": "Cs"}, "7": {"label": "*2", "atom_type": "H0"}, "13": {"label": "*4", "atom_type": "Ct"}, "14": {"label": "*3", "atom_type": "Cs"}}

>  <type>  (14) 
unop_10

>  <geom_source>  (14) 
Heuristics

$$$$

     RDKit          3D

 21 19  0  0  0  0  0  0  0  0999 V2000
   -0.9345    0.3590   -3.0605 C   0  0  0  0  0  0  0  0  0  0  0  0
   -0.9345    0.3590   -1.8643 C   0  0  0  0  0  0  0  0  0  0  0  0
   -0.9345    0.3991   -0.3978 C   0  0  0  0  0  3  0  0  0  0  0  0
   -1.5725    1.6983    0.1242 C   0  0  0  0  0  0  0  0  0  0  0  0
   -1.5963   -0.7821    0.1670 C   0  0  0  0  0  0  0  0  0  0  0  0
   -2.1446   -1.7274    0.6535 C   0  0  0  0  0  0  0  0  0  0  0  0
   -0.9345    0.3590   -4.1239 H   0  0  0  0  0  0  0  0  0  0  0  0
    0.3191    0.3719   -0.0046 H   0  0  0  0  0  0  0  0  0  0  0  0
   -2.6158    1.7556   -0.1835 H   0  0  0  0  0  0  0  0  0  0  0  0
   -1.0399    2.5598   -0.2774 H   0  0  0  0  0  0  0  0  0  0  0  0
   -1.5253    1.7228    1.2125 H   0  0  0  0  0  0  0  0  0  0  0  0
   -2.6320   -2.5678    1.0860 H   0  0  0  0  0  0  0  0  0  0  0  0
    1.7175   -0.8612    2.7508 C   0  0  0  0  0  0  0  0  0  0  0  0
    1.6395   -0.3135    1.6885 C   0  0  0  0  0  0  0  0  0  0  0  0
    1.5702    0.3447    0.3878 C   0  0  0  0  0  0  0  0  0  0  0  0
    2.8360    0.1426   -0.4472 C   0  0  0  0  0  0  0  0  0  0  0  0
    1.7868   -1.3475    3.6938 H   0  0  0  0  0  0  0  0  0  0  0  0
    1.3927    1.4118    0.5432 H   0  0  0  0  0  0  0  0  0  0  0  0
    2.7400    0.6500   -1.4078 H   0  0  0  0  0  0  0  0  0  0  0  0
    3.7080    0.5440    0.0694 H   0  0  0  0  0  0  0  0  0  0  0  0
    3.0114   -0.9172   -0.6328 H   0  0  0  0  0  0  0  0  0  0  0  0
  1  2  3  0
  1  7  1  0
  2  3  1  0
  3  4  1  0
  3  5  1  0
  4  9  1  0
  4 10  1  0
  4 11  1  0
  5  6  3  0
  6 12  1  0
  8 15  1  0
 13 14  3  0
 13 17  1  0
 14 15  1  0
 15 16  1  0
 15 18  1  0
 16 19  1  0
 16 20  1  0
 16 21  1  0
M  RAD  1   3   2
M  END
>  <reaction>  (15) 
rxn_1400

>  <mol_properties>  (15) 
{"1": {"label": "*0", "atom_type": "Ct"}, "2": {"label": "*1", "atom_type": "Cs"}, "7": {"label": "*2", "atom_type": "H0"}, "13": {"label": "*4", "atom_type": "Ct"}, "14": {"label": "*3", "atom_type": "Cs"}}

>  <type>  (15) 
unop_11

>  <geom_source>  (15) 
Heuristics

$$$$

     RDKit          3D

 21 19  0  0  0  0  0  0  0  0999 V2000
   -1.0383    0.0349   -2.5840 C   0  0  0  0  0  0  0  0  0  0  0  0
   -1.0383    0.0349   -1.3878 C   0  0  0  0  0  0  0  0  0  0  0  0
   -1.0383    0.0750    0.0787 C   0  0  0  0  0  3  0  0  0  0  0  0
   -1.6763    1.3742    0.6007 C   0  0  0  0  0  0  0  0  0  0  0  0
   -1.7001   -1.1063    0.6435 C   0  0  0  0  0  0  0  0  0  0  0  0
   -2.2484   -2.0516    1.1300 C   0  0  0  0  0  0  0  0  0  0  0  0
   -1.0383    0.0349   -3.6474 H   0  0  0  0  0  0  0  0  0  0  0  0
    0.2153    0.0477    0.4719 H   0  0  0  0  0  0  0  0  0  0  0  0
   -2.7196    1.4314    0.2930 H   0  0  0  0  0  0  0  0  0  0  0  0
   -1.1437    2.2356    0.1991 H   0  0  0  0  0  0  0  0  0  0  0  0
   -1.6291    1.3986    1.6890 H   0  0  0  0  0  0  0  0  0  0  0  0
   -2.7358   -2.8920    1.5625 H   0  0  0  0  0  0  0  0  0  0  0  0
    3.0420   -0.0660   -1.2735 C   0  0  0  0  0  0  0  0  0  0  0  0
    2.3261   -0.0377   -0.3137 C   0  0  0  0  0  0  0  0  0  0  0  0
    1.4665    0.0205    0.8642 C   0  0  0  0  0  0  0  0  0  0  0  0
    1.7606    1.2298    1.7538 C   0  0  0  0  0  0  0  0  0  0  0  0
    3.6775   -0.0911   -2.1256 H   0  0  0  0  0  0  0  0  0  0  0  0
    1.5917   -0.9023    1.4363 H   0  0  0  0  0  0  0  0  0  0  0  0
    1.0968    1.2326    2.6191 H   0  0  0  0  0  0  0  0  0  0  0  0
    2.7909    1.2066    2.1093 H   0  0  0  0  0  0  0  0  0  0  0  0
    1.6140    2.1593    1.2034 H   0  0  0  0  0  0  0  0  0  0  0  0
  1  2  3  0
  1  7  1  0
  2  3  1  0
  3  4  1  0
  3  5  1  0
  4  9  1  0
  4 10  1  0
  4 11  1  0
  5  6  3  0
  6 12  1  0
  8 15  1  0
 13 14  3  0
 13 17  1  0
 14 15  1  0
 15 16  1  0
 15 18  1  0
 16 19  1  0
 16 20  1  0
 16 21  1  0
M  RAD  1   3   2
M  END
>  <reaction>  (16) 
rxn_1400

>  <mol_properties>  (16) 
{"1": {"label": "*0", "atom_type": "Ct"}, "2": {"label": "*1", "atom_type": "Cs"}, "7": {"label": "*2", "atom_type": "H0"}, "13": {"label": "*4", "atom_type": "Ct"}, "14": {"label": "*3", "atom_type": "Cs"}}

>  <type>  (16) 
unop_12

>  <geom_source>  (16) 
Heuristics

$$$$

     RDKit          3D

 21 19  0  0  0  0  0  0  0  0999 V2000
    1.3322   -0.6237   -0.2064 C   0  0  0  0  0  3  0  0  0  0  0  0
    2.3242    0.0843   -1.1189 C   0  0  0  0  0  0  0  0  0  0  0  0
   -1.7462    0.6554   -1.5329 C   0  0  0  0  0  0  0  0  0  0  0  0
   -1.1389    0.2404   -0.1960 C   0  0  0  0  0  0  0  0  0  0  0  0
    1.8770   -0.7487    1.1499 C   0  0  0  0  0  0  0  0  0  0  0  0
   -1.7797   -0.9798    0.3092 C   0  0  0  0  0  0  0  0  0  0  0  0
   -1.2760    1.3164    0.7931 C   0  0  0  0  0  0  0  0  0  0  0  0
    2.3236   -0.8516    2.2649 C   0  0  0  0  0  0  0  0  0  0  0  0
   -2.3050   -1.9832    0.7232 C   0  0  0  0  0  0  0  0  0  0  0  0
   -1.3871    2.2010    1.6051 C   0  0  0  0  0  0  0  0  0  0  0  0
    1.1142   -1.6366   -0.6059 H   0  0  0  0  0  0  0  0  0  0  0  0
    0.1715    0.0925   -0.1577 H   0  0  0  0  0  0  0  0  0  0  0  0
    2.5367    1.1058   -0.7368 H   0  0  0  0  0  0  0  0  0  0  0  0
    3.2727   -0.4914   -1.1820 H   0  0  0  0  0  0  0  0  0  0  0  0
    1.8909    0.1703   -2.1372 H   0  0  0  0  0  0  0  0  0  0  0  0
   -2.8320    0.8710   -1.4259 H   0  0  0  0  0  0  0  0  0  0  0  0
   -1.6102   -0.1572   -2.2780 H   0  0  0  0  0  0  0  0  0  0  0  0
   -1.2328    1.5633   -1.9154 H   0  0  0  0  0  0  0  0  0  0  0  0
    2.7159   -0.9418    3.2437 H   0  0  0  0  0  0  0  0  0  0  0  0
   -2.7662   -2.8637    1.0865 H   0  0  0  0  0  0  0  0  0  0  0  0
   -1.4848    2.9773    2.3176 H   0  0  0  0  0  0  0  0  0  0  0  0
  1  2  1  0
  1  5  1  0
  1 11  1  0
  2 13  1  0
  2 14  1  0
  2 15  1  0
  3  4  1  0
  3 16  1  0
  3 17  1  0
  3 18  1  0
  4  6  1  0
  4  7  1  0
  4 12  1  0
  5  8  3  0
  6  9  3  0
  7 10  3  0
  8 19  1  0
  9 20  1  0
 10 21  1  0
M  RAD  1   1   2
M  END
>  <reaction>  (17) 
rxn_1400

>  <mol_properties>  (17) 
{"1": {"label": "*0", "atom_type": "Ct"}, "2": {"label": "*1", "atom_type": "Cs"}, "7": {"label": "*2", "atom_type": "H0"}, "13": {"label": "*4", "atom_type": "Ct"}, "14": {"label": "*3", "atom_type": "Cs"}}

>  <type>  (17) 
unop_13

>  <geom_source>  (17) 
AutoTST

$$$$
