
     RDKit          3D

  9  8  0  0  0  0  0  0  0  0999 V2000
   -2.1022   -0.6873    0.3932 C   0  0  0  0  0  0  0  0  0  0  0  0
   -1.2072   -0.1086   -0.1482 C   0  0  0  0  0  0  0  0  0  0  0  0
   -0.1242    0.6105   -0.8193 C   0  0  0  0  0  0  0  0  0  0  0  0
    1.2067    0.1106   -0.4741 C   0  0  0  0  0  0  0  0  0  0  0  0
    2.3005   -0.2875   -0.2012 C   0  0  0  0  0  0  0  0  0  0  0  0
   -2.8942   -1.2059    0.8778 H   0  0  0  0  0  0  0  0  0  0  0  0
   -0.1862    1.6723   -0.5649 H   0  0  0  0  0  0  0  0  0  0  0  0
   -0.2641    0.5418   -1.9017 H   0  0  0  0  0  0  0  0  0  0  0  0
    3.2709   -0.6459    0.0455 H   0  0  0  0  0  0  0  0  0  0  0  0
  1  2  3  0
  1  6  1  0
  2  3  1  0
  3  4  1  0
  3  7  1  0
  3  8  1  0
  4  5  3  0
  5  9  1  0
M  END
>  <reaction>  (1) 
rxn_1378

>  <mol_properties>  (1) 
{"2": {"label": "donator", "atom_type": "Cs"}, "6": {"label": "d_hydrogen", "atom_type": "H0"}}

>  <type>  (1) 
r1h

$$$$

     RDKit          3D

 10  9  0  0  0  0  0  0  0  0999 V2000
   -1.3354   -0.2069    0.0525 C   0  0  0  0  0  0  0  0  0  0  0  0
    0.0851    0.2624    0.0266 C   0  0  0  0  0  0  0  0  0  0  0  0
    0.4841    1.3876    0.7359 C   0  0  0  0  0  0  0  0  0  0  0  0
    2.0191    2.0303    0.8057 S   0  0  0  0  0  1  0  0  0  0  0  0
    1.1566   -0.6823   -0.9297 S   0  0  0  0  0  0  0  0  0  0  0  0
   -1.7589   -0.2174   -0.9545 H   0  0  0  0  0  0  0  0  0  0  0  0
   -1.4004   -1.2253    0.4427 H   0  0  0  0  0  0  0  0  0  0  0  0
   -1.9442    0.4442    0.6783 H   0  0  0  0  0  0  0  0  0  0  0  0
   -0.3073    1.8814    1.2951 H   0  0  0  0  0  0  0  0  0  0  0  0
    2.2383    0.0827   -0.6554 H   0  0  0  0  0  0  0  0  0  0  0  0
  1  2  1  0
  1  6  1  0
  1  7  1  0
  1  8  1  0
  2  3  2  3
  2  5  1  0
  3  4  1  0
  3  9  1  0
  5 10  1  0
M  RAD  1   4   2
M  END
>  <reaction>  (2) 
rxn_1378

>  <mol_properties>  (2) 
{"1": {"label": "acceptor", "atom_type": "Cs"}}

>  <type>  (2) 
r2

$$$$

     RDKit          3D

 11 10  0  0  0  0  0  0  0  0999 V2000
   -1.0997   -0.5860   -0.1182 C   0  0  0  0  0  0  0  0  0  0  0  0
    0.0827    0.2961    0.2270 C   0  0  0  0  0  0  0  0  0  0  0  0
    0.1622    1.6171   -0.4774 C   0  0  0  0  0  0  0  0  0  0  0  0
   -0.9879    2.3087   -1.3633 S   0  0  0  0  0  0  0  0  0  0  0  0
    0.2176    0.6619    2.0187 S   0  0  0  0  0  0  0  0  0  0  0  0
   -1.1052   -0.8107   -1.1861 H   0  0  0  0  0  0  0  0  0  0  0  0
   -2.0402   -0.0893    0.1198 H   0  0  0  0  0  0  0  0  0  0  0  0
   -1.0438   -1.5182    0.4423 H   0  0  0  0  0  0  0  0  0  0  0  0
    1.0207   -0.2324    0.0280 H   0  0  0  0  0  0  0  0  0  0  0  0
    1.1091    2.1333   -0.3182 H   0  0  0  0  0  0  0  0  0  0  0  0
   -0.9205    1.3661    2.0994 H   0  0  0  0  0  0  0  0  0  0  0  0
  1  2  1  0
  1  6  1  0
  1  7  1  0
  1  8  1  0
  2  3  1  0
  2  5  1  0
  2  9  1  0
  3  4  2  0
  3 10  1  0
  5 11  1  0
M  END
>  <reaction>  (3) 
rxn_1378

>  <mol_properties>  (3) 
{"0": {"label": "a_hydrogen", "atom_type": "H0"}, "2": {"label": "acceptor", "atom_type": "Cs"}}

>  <type>  (3) 
r2h

$$$$

     RDKit          3D

 19 17  0  0  0  0  0  0  0  0999 V2000
   -0.6577   -0.7383   -3.5059 C   0  0  0  0  0  0  0  0  0  0  0  0
   -0.8290   -0.9912   -2.3437 C   0  0  0  0  0  0  0  0  0  0  0  0
   -0.9699   -1.2513   -0.9552 C   0  0  0  0  0  3  0  0  0  0  0  0
   -2.1504   -0.8248   -0.2869 C   0  0  0  0  0  0  0  0  0  0  0  0
   -3.0921   -0.4155    0.3373 C   0  0  0  0  0  0  0  0  0  0  0  0
   -0.5245   -0.5222   -4.5388 H   0  0  0  0  0  0  0  0  0  0  0  0
   -0.0198   -0.3957   -0.3486 H   0  0  0  0  0  0  0  0  0  0  0  0
   -0.5585   -2.1978   -0.6091 H   0  0  0  0  0  0  0  0  0  0  0  0
   -3.9514   -0.0835    0.8691 H   0  0  0  0  0  0  0  0  0  0  0  0
    2.1214   -0.0188   -0.5685 C   0  0  0  0  0  0  0  0  0  0  0  0
    0.8624    0.4084    0.1489 C   0  0  0  0  0  0  0  0  0  0  0  0
    0.7101    0.1079    1.5672 C   0  0  0  0  0  0  0  0  0  0  0  0
    1.4597   -1.0852    2.3725 S   0  0  0  0  0  0  0  0  0  0  0  0
    0.3077    2.0165   -0.3967 S   0  0  0  0  0  0  0  0  0  0  0  0
    2.9598    0.6213   -0.2854 H   0  0  0  0  0  0  0  0  0  0  0  0
    2.3731   -1.0419   -0.2937 H   0  0  0  0  0  0  0  0  0  0  0  0
    1.9812    0.0396   -1.6482 H   0  0  0  0  0  0  0  0  0  0  0  0
   -0.0343    0.7100    2.0872 H   0  0  0  0  0  0  0  0  0  0  0  0
   -0.8238    2.0479    0.3222 H   0  0  0  0  0  0  0  0  0  0  0  0
  1  2  3  0
  1  6  1  0
  2  3  1  0
  3  4  1  0
  3  8  1  0
  4  5  3  0
  5  9  1  0
  7 11  1  0
 10 11  1  0
 10 15  1  0
 10 16  1  0
 10 17  1  0
 11 12  1  0
 11 14  1  0
 12 13  2  0
 12 18  1  0
 14 19  1  0
M  RAD  1   3   2
M  END
>  <reaction>  (4) 
rxn_1378

>  <mol_properties>  (4) 
{"1": {"label": "*4", "atom_type": "Ct"}, "2": {"label": "*3", "atom_type": "Cs"}, "6": {"label": "*2", "atom_type": "H0"}, "10": {"label": "*1", "atom_type": "Cs"}, "11": {"label": "*0", "atom_type": "CS"}}

>  <type>  (4) 
ts

$$$$

     RDKit          3D

 19 17  0  0  0  0  0  0  0  0999 V2000
   -1.3015   -1.2933   -3.1946 C   0  0  0  0  0  0  0  0  0  0  0  0
   -1.3015   -1.2933   -1.9991 C   0  0  0  0  0  0  0  0  0  0  0  0
   -1.3015   -1.2933   -0.5361 C   0  0  0  0  0  0  0  0  0  0  0  0
   -2.6155   -1.0177    0.0451 C   0  0  0  0  0  0  0  0  0  0  0  0
   -3.6892   -0.7924    0.5200 C   0  0  0  0  0  0  0  0  0  0  0  0
   -1.3015   -1.2933   -4.2581 H   0  0  0  0  0  0  0  0  0  0  0  0
   -0.4433   -0.3989   -0.1051 H   0  0  0  0  0  0  0  0  0  0  0  0
   -0.9461   -2.2631   -0.1769 H   0  0  0  0  0  0  0  0  0  0  0  0
   -4.6444   -0.5921    0.9424 H   0  0  0  0  0  0  0  0  0  0  0  0
   -0.2911    1.5379    1.1700 C   0  0  0  0  0  0  0  0  0  0  0  0
    0.4158    0.4966    0.3265 C   0  0  0  0  0  0  0  0  0  0  0  0
    1.7657    0.8703   -0.2082 C   0  0  0  0  0  0  0  0  0  0  0  0
    2.6525    2.1430    0.2154 S   0  0  0  0  0  1  0  0  0  0  0  0
    0.6313   -1.1093    1.1848 S   0  0  0  0  0  0  0  0  0  0  0  0
    0.2958    1.7891    2.0534 H   0  0  0  0  0  0  0  0  0  0  0  0
   -0.4351    2.4551    0.5967 H   0  0  0  0  0  0  0  0  0  0  0  0
   -1.2616    1.1606    1.4894 H   0  0  0  0  0  0  0  0  0  0  0  0
    2.1520    0.1578   -0.9373 H   0  0  0  0  0  0  0  0  0  0  0  0
    1.4588   -0.6465    2.1328 H   0  0  0  0  0  0  0  0  0  0  0  0
  1  2  3  0
  1  6  1  0
  2  3  1  0
  3  4  1  0
  3  7  1  0
  3  8  1  0
  4  5  3  0
  5  9  1  0
 10 11  1  0
 10 15  1  0
 10 16  1  0
 10 17  1  0
 11 12  2  3
 11 14  1  0
 12 13  1  0
 12 18  1  0
 14 19  1  0
M  RAD  1  13   2
M  END
>  <reaction>  (5) 
rxn_1378

>  <mol_properties>  (5) 
{"1": {"label": "*4", "atom_type": "Ct"}, "2": {"label": "*3", "atom_type": "Cs"}, "6": {"label": "*2", "atom_type": "H0"}, "10": {"label": "*1", "atom_type": "Cs"}, "11": {"label": "*0", "atom_type": "CS"}}

>  <type>  (5) 
unop_1

>  <geom_source>  (5) 
Heuristics

$$$$

     RDKit          3D

 19 17  0  0  0  0  0  0  0  0999 V2000
   -1.1839   -1.3639   -3.3530 C   0  0  0  0  0  0  0  0  0  0  0  0
   -1.1839   -1.3639   -2.1575 C   0  0  0  0  0  0  0  0  0  0  0  0
   -1.1839   -1.3639   -0.6945 C   0  0  0  0  0  0  0  0  0  0  0  0
   -2.4979   -1.0883   -0.1134 C   0  0  0  0  0  0  0  0  0  0  0  0
   -3.5717   -0.8631    0.3615 C   0  0  0  0  0  0  0  0  0  0  0  0
   -1.1839   -1.3639   -4.4165 H   0  0  0  0  0  0  0  0  0  0  0  0
   -0.3258   -0.4695   -0.2635 H   0  0  0  0  0  0  0  0  0  0  0  0
   -0.8285   -2.3338   -0.3354 H   0  0  0  0  0  0  0  0  0  0  0  0
   -4.5269   -0.6628    0.7840 H   0  0  0  0  0  0  0  0  0  0  0  0
    0.6435    1.5672   -0.8224 C   0  0  0  0  0  0  0  0  0  0  0  0
    0.5334    0.4259    0.1680 C   0  0  0  0  0  0  0  0  0  0  0  0
    1.8082   -0.0262    0.8147 C   0  0  0  0  0  0  0  0  0  0  0  0
    3.2314    0.7207    0.7676 S   0  0  0  0  0  1  0  0  0  0  0  0
   -0.6434    0.7604    1.5338 S   0  0  0  0  0  0  0  0  0  0  0  0
    1.0430    2.4617   -0.3448 H   0  0  0  0  0  0  0  0  0  0  0  0
    1.3179    1.2976   -1.6369 H   0  0  0  0  0  0  0  0  0  0  0  0
   -0.3383    1.7980   -1.2337 H   0  0  0  0  0  0  0  0  0  0  0  0
    1.6975   -0.9482    1.3856 H   0  0  0  0  0  0  0  0  0  0  0  0
    0.0563    1.7700    2.0715 H   0  0  0  0  0  0  0  0  0  0  0  0
  1  2  3  0
  1  6  1  0
  2  3  1  0
  3  4  1  0
  3  7  1  0
  3  8  1  0
  4  5  3  0
  5  9  1  0
 10 11  1  0
 10 15  1  0
 10 16  1  0
 10 17  1  0
 11 12  2  3
 11 14  1  0
 12 13  1  0
 12 18  1  0
 14 19  1  0
M  RAD  1  13   2
M  END
>  <reaction>  (6) 
rxn_1378

>  <mol_properties>  (6) 
{"1": {"label": "*4", "atom_type": "Ct"}, "2": {"label": "*3", "atom_type": "Cs"}, "6": {"label": "*2", "atom_type": "H0"}, "10": {"label": "*1", "atom_type": "Cs"}, "11": {"label": "*0", "atom_type": "CS"}}

>  <type>  (6) 
unop_2

>  <geom_source>  (6) 
Heuristics

$$$$

     RDKit          3D

 19 17  0  0  0  0  0  0  0  0999 V2000
   -1.2826   -1.4320   -3.0082 C   0  0  0  0  0  0  0  0  0  0  0  0
   -1.2826   -1.4320   -1.8127 C   0  0  0  0  0  0  0  0  0  0  0  0
   -1.2826   -1.4320   -0.3497 C   0  0  0  0  0  0  0  0  0  0  0  0
   -2.5966   -1.1564    0.2315 C   0  0  0  0  0  0  0  0  0  0  0  0
   -3.6704   -0.9312    0.7064 C   0  0  0  0  0  0  0  0  0  0  0  0
   -1.2826   -1.4320   -4.0717 H   0  0  0  0  0  0  0  0  0  0  0  0
   -0.4244   -0.5376    0.0814 H   0  0  0  0  0  0  0  0  0  0  0  0
   -0.9272   -2.4018    0.0095 H   0  0  0  0  0  0  0  0  0  0  0  0
   -4.6255   -0.7308    1.1288 H   0  0  0  0  0  0  0  0  0  0  0  0
   -0.0151    0.9156    1.8479 C   0  0  0  0  0  0  0  0  0  0  0  0
    0.4347    0.3579    0.5129 C   0  0  0  0  0  0  0  0  0  0  0  0
    1.2390    1.2738   -0.3599 C   0  0  0  0  0  0  0  0  0  0  0  0
    1.8885    2.6833    0.0608 S   0  0  0  0  0  1  0  0  0  0  0  0
    1.4053   -1.1906    0.6625 S   0  0  0  0  0  0  0  0  0  0  0  0
    0.8402    1.2001    2.4605 H   0  0  0  0  0  0  0  0  0  0  0  0
   -0.6265    1.8072    1.6988 H   0  0  0  0  0  0  0  0  0  0  0  0
   -0.5982    0.1688    2.3849 H   0  0  0  0  0  0  0  0  0  0  0  0
    1.3924    0.8841   -1.3664 H   0  0  0  0  0  0  0  0  0  0  0  0
    2.4449   -0.6376    1.3037 H   0  0  0  0  0  0  0  0  0  0  0  0
  1  2  3  0
  1  6  1  0
  2  3  1  0
  3  4  1  0
  3  7  1  0
  3  8  1  0
  4  5  3  0
  5  9  1  0
 10 11  1  0
 10 15  1  0
 10 16  1  0
 10 17  1  0
 11 12  2  3
 11 14  1  0
 12 13  1  0
 12 18  1  0
 14 19  1  0
M  RAD  1  13   2
M  END
>  <reaction>  (7) 
rxn_1378

>  <mol_properties>  (7) 
{"1": {"label": "*4", "atom_type": "Ct"}, "2": {"label": "*3", "atom_type": "Cs"}, "6": {"label": "*2", "atom_type": "H0"}, "10": {"label": "*1", "atom_type": "Cs"}, "11": {"label": "*0", "atom_type": "CS"}}

>  <type>  (7) 
unop_3

>  <geom_source>  (7) 
Heuristics

$$$$

     RDKit          3D

 19 17  0  0  0  0  0  0  0  0999 V2000
   -0.9360   -1.2035   -3.5456 C   0  0  0  0  0  0  0  0  0  0  0  0
   -0.9360   -1.2035   -2.3501 C   0  0  0  0  0  0  0  0  0  0  0  0
   -0.9360   -1.2035   -0.8872 C   0  0  0  0  0  0  0  0  0  0  0  0
   -2.2500   -0.9279   -0.3060 C   0  0  0  0  0  0  0  0  0  0  0  0
   -3.3238   -0.7027    0.1689 C   0  0  0  0  0  0  0  0  0  0  0  0
   -0.9360   -1.2035   -4.6091 H   0  0  0  0  0  0  0  0  0  0  0  0
   -0.0779   -0.3091   -0.4561 H   0  0  0  0  0  0  0  0  0  0  0  0
   -0.5806   -2.1733   -0.5280 H   0  0  0  0  0  0  0  0  0  0  0  0
   -4.2790   -0.5023    0.5914 H   0  0  0  0  0  0  0  0  0  0  0  0
    2.1741    0.2600   -0.5236 C   0  0  0  0  0  0  0  0  0  0  0  0
    0.7813    0.5864   -0.0246 C   0  0  0  0  0  0  0  0  0  0  0  0
    0.3907    0.0057    1.3012 C   0  0  0  0  0  0  0  0  0  0  0  0
    1.3614   -0.7112    2.3640 S   0  0  0  0  0  1  0  0  0  0  0  0
    0.4534    2.3869    0.0881 S   0  0  0  0  0  0  0  0  0  0  0  0
    2.9325    0.6220    0.1705 H   0  0  0  0  0  0  0  0  0  0  0  0
    2.2993   -0.8201   -0.6166 H   0  0  0  0  0  0  0  0  0  0  0  0
    2.3385    0.7233   -1.4955 H   0  0  0  0  0  0  0  0  0  0  0  0
   -0.6672    0.1328    1.5318 H   0  0  0  0  0  0  0  0  0  0  0  0
    1.3551    2.6290    1.0504 H   0  0  0  0  0  0  0  0  0  0  0  0
  1  2  3  0
  1  6  1  0
  2  3  1  0
  3  4  1  0
  3  7  1  0
  3  8  1  0
  4  5  3  0
  5  9  1  0
 10 11  1  0
 10 15  1  0
 10 16  1  0
 10 17  1  0
 11 12  2  3
 11 14  1  0
 12 13  1  0
 12 18  1  0
 14 19  1  0
M  RAD  1  13   2
M  END
>  <reaction>  (8) 
rxn_1378

>  <mol_properties>  (8) 
{"1": {"label": "*4", "atom_type": "Ct"}, "2": {"label": "*3", "atom_type": "Cs"}, "6": {"label": "*2", "atom_type": "H0"}, "10": {"label": "*1", "atom_type": "Cs"}, "11": {"label": "*0", "atom_type": "CS"}}

>  <type>  (8) 
unop_4

>  <geom_source>  (8) 
Heuristics

$$$$

     RDKit          3D

 19 17  0  0  0  0  0  0  0  0999 V2000
   -0.9995   -1.6832   -2.9489 C   0  0  0  0  0  0  0  0  0  0  0  0
   -0.9995   -1.6832   -1.7534 C   0  0  0  0  0  0  0  0  0  0  0  0
   -0.9995   -1.6832   -0.2904 C   0  0  0  0  0  0  0  0  0  0  0  0
   -2.3135   -1.4076    0.2907 C   0  0  0  0  0  0  0  0  0  0  0  0
   -3.3872   -1.1824    0.7656 C   0  0  0  0  0  0  0  0  0  0  0  0
   -0.9995   -1.6832   -4.0124 H   0  0  0  0  0  0  0  0  0  0  0  0
   -0.1413   -0.7888    0.1406 H   0  0  0  0  0  0  0  0  0  0  0  0
   -0.6441   -2.6531    0.0688 H   0  0  0  0  0  0  0  0  0  0  0  0
   -4.3424   -0.9821    1.1881 H   0  0  0  0  0  0  0  0  0  0  0  0
    0.7376    0.1272    2.0870 C   0  0  0  0  0  0  0  0  0  0  0  0
    0.7178    0.1066    0.5721 C   0  0  0  0  0  0  0  0  0  0  0  0
    0.3891    1.3995   -0.1119 C   0  0  0  0  0  0  0  0  0  0  0  0
    0.3025    2.8549    0.5663 S   0  0  0  0  0  1  0  0  0  0  0  0
    2.2905   -0.4787   -0.1669 S   0  0  0  0  0  0  0  0  0  0  0  0
    1.4806    0.8326    2.4584 H   0  0  0  0  0  0  0  0  0  0  0  0
   -0.2348    0.4366    2.4739 H   0  0  0  0  0  0  0  0  0  0  0  0
    0.9742   -0.8650    2.4688 H   0  0  0  0  0  0  0  0  0  0  0  0
    0.2269    1.2898   -1.1843 H   0  0  0  0  0  0  0  0  0  0  0  0
    3.0355    0.5472    0.2694 H   0  0  0  0  0  0  0  0  0  0  0  0
  1  2  3  0
  1  6  1  0
  2  3  1  0
  3  4  1  0
  3  7  1  0
  3  8  1  0
  4  5  3  0
  5  9  1  0
 10 11  1  0
 10 15  1  0
 10 16  1  0
 10 17  1  0
 11 12  2  3
 11 14  1  0
 12 13  1  0
 12 18  1  0
 14 19  1  0
M  RAD  1  13   2
M  END
>  <reaction>  (9) 
rxn_1378

>  <mol_properties>  (9) 
{"1": {"label": "*4", "atom_type": "Ct"}, "2": {"label": "*3", "atom_type": "Cs"}, "6": {"label": "*2", "atom_type": "H0"}, "10": {"label": "*1", "atom_type": "Cs"}, "11": {"label": "*0", "atom_type": "CS"}}

>  <type>  (9) 
unop_5

>  <geom_source>  (9) 
Heuristics

$$$$

     RDKit          3D

 19 17  0  0  0  0  0  0  0  0999 V2000
   -0.7341   -1.3154   -3.5436 C   0  0  0  0  0  0  0  0  0  0  0  0
   -0.7341   -1.3154   -2.3481 C   0  0  0  0  0  0  0  0  0  0  0  0
   -0.7341   -1.3154   -0.8851 C   0  0  0  0  0  0  0  0  0  0  0  0
   -2.0481   -1.0398   -0.3040 C   0  0  0  0  0  0  0  0  0  0  0  0
   -3.1219   -0.8145    0.1709 C   0  0  0  0  0  0  0  0  0  0  0  0
   -0.7341   -1.3154   -4.6071 H   0  0  0  0  0  0  0  0  0  0  0  0
    0.1240   -0.4210   -0.4541 H   0  0  0  0  0  0  0  0  0  0  0  0
   -0.3788   -2.2852   -0.5260 H   0  0  0  0  0  0  0  0  0  0  0  0
   -4.0771   -0.6142    0.5934 H   0  0  0  0  0  0  0  0  0  0  0  0
    2.3518   -0.1521    0.1497 C   0  0  0  0  0  0  0  0  0  0  0  0
    0.9832    0.4745   -0.0226 C   0  0  0  0  0  0  0  0  0  0  0  0
    0.0179    0.2994    1.1111 C   0  0  0  0  0  0  0  0  0  0  0  0
    0.3491   -0.2571    2.5829 S   0  0  0  0  0  1  0  0  0  0  0  0
    1.0465    2.2741   -0.3683 S   0  0  0  0  0  0  0  0  0  0  0  0
    2.8655    0.2637    1.0163 H   0  0  0  0  0  0  0  0  0  0  0  0
    2.2584   -1.2282    0.3053 H   0  0  0  0  0  0  0  0  0  0  0  0
    2.9574    0.0289   -0.7372 H   0  0  0  0  0  0  0  0  0  0  0  0
   -0.9945    0.6227    0.8680 H   0  0  0  0  0  0  0  0  0  0  0  0
    1.5655    2.6219    0.8181 H   0  0  0  0  0  0  0  0  0  0  0  0
  1  2  3  0
  1  6  1  0
  2  3  1  0
  3  4  1  0
  3  7  1  0
  3  8  1  0
  4  5  3  0
  5  9  1  0
 10 11  1  0
 10 15  1  0
 10 16  1  0
 10 17  1  0
 11 12  2  3
 11 14  1  0
 12 13  1  0
 12 18  1  0
 14 19  1  0
M  RAD  1  13   2
M  END
>  <reaction>  (10) 
rxn_1378

>  <mol_properties>  (10) 
{"1": {"label": "*4", "atom_type": "Ct"}, "2": {"label": "*3", "atom_type": "Cs"}, "6": {"label": "*2", "atom_type": "H0"}, "10": {"label": "*1", "atom_type": "Cs"}, "11": {"label": "*0", "atom_type": "CS"}}

>  <type>  (10) 
unop_6

>  <geom_source>  (10) 
Heuristics

$$$$

     RDKit          3D

 19 17  0  0  0  0  0  0  0  0999 V2000
   -0.6029   -1.5003   -3.4163 C   0  0  0  0  0  0  0  0  0  0  0  0
   -0.6029   -1.5003   -2.2208 C   0  0  0  0  0  0  0  0  0  0  0  0
   -0.6029   -1.5003   -0.7578 C   0  0  0  0  0  0  0  0  0  0  0  0
   -1.9169   -1.2247   -0.1766 C   0  0  0  0  0  0  0  0  0  0  0  0
   -2.9906   -0.9994    0.2983 C   0  0  0  0  0  0  0  0  0  0  0  0
   -0.6029   -1.5003   -4.4798 H   0  0  0  0  0  0  0  0  0  0  0  0
    0.2553   -0.6059   -0.3267 H   0  0  0  0  0  0  0  0  0  0  0  0
   -0.2475   -2.4701   -0.3986 H   0  0  0  0  0  0  0  0  0  0  0  0
   -3.9458   -0.7991    0.7207 H   0  0  0  0  0  0  0  0  0  0  0  0
    2.1840   -0.3736    0.9484 C   0  0  0  0  0  0  0  0  0  0  0  0
    1.1144    0.2896    0.1048 C   0  0  0  0  0  0  0  0  0  0  0  0
   -0.1715    0.6282    0.7971 C   0  0  0  0  0  0  0  0  0  0  0  0
   -0.4520    0.5977    2.3801 S   0  0  0  0  0  1  0  0  0  0  0  0
    1.6819    1.8333   -0.7057 S   0  0  0  0  0  0  0  0  0  0  0  0
    2.4784    0.2664    1.7799 H   0  0  0  0  0  0  0  0  0  0  0  0
    1.8095   -1.3091    1.3674 H   0  0  0  0  0  0  0  0  0  0  0  0
    3.0619   -0.5821    0.3383 H   0  0  0  0  0  0  0  0  0  0  0  0
   -0.9576    0.9475    0.1125 H   0  0  0  0  0  0  0  0  0  0  0  0
    1.8657    2.5229    0.4295 H   0  0  0  0  0  0  0  0  0  0  0  0
  1  2  3  0
  1  6  1  0
  2  3  1  0
  3  4  1  0
  3  7  1  0
  3  8  1  0
  4  5  3  0
  5  9  1  0
 10 11  1  0
 10 15  1  0
 10 16  1  0
 10 17  1  0
 11 12  2  3
 11 14  1  0
 12 13  1  0
 12 18  1  0
 14 19  1  0
M  RAD  1  13   2
M  END
>  <reaction>  (11) 
rxn_1378

>  <mol_properties>  (11) 
{"1": {"label": "*4", "atom_type": "Ct"}, "2": {"label": "*3", "atom_type": "Cs"}, "6": {"label": "*2", "atom_type": "H0"}, "10": {"label": "*1", "atom_type": "Cs"}, "11": {"label": "*0", "atom_type": "CS"}}

>  <type>  (11) 
unop_7

>  <geom_source>  (11) 
Heuristics

$$$$

     RDKit          3D

 19 17  0  0  0  0  0  0  0  0999 V2000
   -1.2329   -1.2980   -3.3229 C   0  0  0  0  0  0  0  0  0  0  0  0
   -1.2329   -1.2980   -2.1274 C   0  0  0  0  0  0  0  0  0  0  0  0
   -1.2329   -1.2980   -0.6645 C   0  0  0  0  0  0  0  0  0  0  0  0
   -2.5469   -1.0224   -0.0833 C   0  0  0  0  0  0  0  0  0  0  0  0
   -3.6207   -0.7972    0.3916 C   0  0  0  0  0  0  0  0  0  0  0  0
   -1.2329   -1.2980   -4.3864 H   0  0  0  0  0  0  0  0  0  0  0  0
   -0.3748   -0.4036   -0.2334 H   0  0  0  0  0  0  0  0  0  0  0  0
   -0.8776   -2.2678   -0.3053 H   0  0  0  0  0  0  0  0  0  0  0  0
   -4.5759   -0.5968    0.8141 H   0  0  0  0  0  0  0  0  0  0  0  0
   -0.1984    1.8334    0.3704 C   0  0  0  0  0  0  0  0  0  0  0  0
    0.4844    0.4919    0.1981 C   0  0  0  0  0  0  0  0  0  0  0  0
    1.9809    0.5073    0.1103 C   0  0  0  0  0  0  0  0  0  0  0  0
    2.9531    1.7482    0.4278 S   0  0  0  0  0  1  0  0  0  0  0  0
    0.0607   -0.7130    1.5137 S   0  0  0  0  0  0  0  0  0  0  0  0
    0.1269    2.3222    1.2886 H   0  0  0  0  0  0  0  0  0  0  0  0
    0.0500    2.4940   -0.4620 H   0  0  0  0  0  0  0  0  0  0  0  0
   -1.2784    1.6983    0.4087 H   0  0  0  0  0  0  0  0  0  0  0  0
    2.4050   -0.4550   -0.1770 H   0  0  0  0  0  0  0  0  0  0  0  0
    0.6355   -0.0296    2.5138 H   0  0  0  0  0  0  0  0  0  0  0  0
  1  2  3  0
  1  6  1  0
  2  3  1  0
  3  4  1  0
  3  7  1  0
  3  8  1  0
  4  5  3  0
  5  9  1  0
 10 11  1  0
 10 15  1  0
 10 16  1  0
 10 17  1  0
 11 12  2  3
 11 14  1  0
 12 13  1  0
 12 18  1  0
 14 19  1  0
M  RAD  1  13   2
M  END
>  <reaction>  (12) 
rxn_1378

>  <mol_properties>  (12) 
{"1": {"label": "*4", "atom_type": "Ct"}, "2": {"label": "*3", "atom_type": "Cs"}, "6": {"label": "*2", "atom_type": "H0"}, "10": {"label": "*1", "atom_type": "Cs"}, "11": {"label": "*0", "atom_type": "CS"}}

>  <type>  (12) 
unop_8

>  <geom_source>  (12) 
Heuristics

$$$$

     RDKit          3D

 19 17  0  0  0  0  0  0  0  0999 V2000
   -1.1135   -1.2043   -3.4617 C   0  0  0  0  0  0  0  0  0  0  0  0
   -1.1135   -1.2043   -2.2662 C   0  0  0  0  0  0  0  0  0  0  0  0
   -1.1135   -1.2043   -0.8032 C   0  0  0  0  0  0  0  0  0  0  0  0
   -2.4276   -0.9287   -0.2220 C   0  0  0  0  0  0  0  0  0  0  0  0
   -3.5013   -0.7035    0.2529 C   0  0  0  0  0  0  0  0  0  0  0  0
   -1.1135   -1.2043   -4.5252 H   0  0  0  0  0  0  0  0  0  0  0  0
   -0.2554   -0.3099   -0.3722 H   0  0  0  0  0  0  0  0  0  0  0  0
   -0.7582   -2.1742   -0.4440 H   0  0  0  0  0  0  0  0  0  0  0  0
   -4.4565   -0.5032    0.6753 H   0  0  0  0  0  0  0  0  0  0  0  0
    1.7395    0.7427   -0.9310 C   0  0  0  0  0  0  0  0  0  0  0  0
    0.6037    0.5855    0.0594 C   0  0  0  0  0  0  0  0  0  0  0  0
    0.9045   -0.1888    1.3074 C   0  0  0  0  0  0  0  0  0  0  0  0
    2.3529   -0.6538    1.8286 S   0  0  0  0  0  1  0  0  0  0  0  0
   -0.1087    2.1838    0.6073 S   0  0  0  0  0  0  0  0  0  0  0  0
    2.5826    1.2646   -0.4789 H   0  0  0  0  0  0  0  0  0  0  0  0
    2.0936   -0.2360   -1.2591 H   0  0  0  0  0  0  0  0  0  0  0  0
    1.4007    1.3085   -1.7978 H   0  0  0  0  0  0  0  0  0  0  0  0
    0.0171   -0.4111    1.9002 H   0  0  0  0  0  0  0  0  0  0  0  0
    0.9939    2.6151    1.2366 H   0  0  0  0  0  0  0  0  0  0  0  0
  1  2  3  0
  1  6  1  0
  2  3  1  0
  3  4  1  0
  3  7  1  0
  3  8  1  0
  4  5  3  0
  5  9  1  0
 10 11  1  0
 10 15  1  0
 10 16  1  0
 10 17  1  0
 11 12  2  3
 11 14  1  0
 12 13  1  0
 12 18  1  0
 14 19  1  0
M  RAD  1  13   2
M  END
>  <reaction>  (13) 
rxn_1378

>  <mol_properties>  (13) 
{"1": {"label": "*4", "atom_type": "Ct"}, "2": {"label": "*3", "atom_type": "Cs"}, "6": {"label": "*2", "atom_type": "H0"}, "10": {"label": "*1", "atom_type": "Cs"}, "11": {"label": "*0", "atom_type": "CS"}}

>  <type>  (13) 
unop_9

>  <geom_source>  (13) 
Heuristics

$$$$

     RDKit          3D

 19 17  0  0  0  0  0  0  0  0999 V2000
   -1.1819   -1.3515   -3.3619 C   0  0  0  0  0  0  0  0  0  0  0  0
   -1.1819   -1.3515   -2.1664 C   0  0  0  0  0  0  0  0  0  0  0  0
   -1.1819   -1.3515   -0.7034 C   0  0  0  0  0  0  0  0  0  0  0  0
   -2.4960   -1.0759   -0.1223 C   0  0  0  0  0  0  0  0  0  0  0  0
   -3.5697   -0.8507    0.3526 C   0  0  0  0  0  0  0  0  0  0  0  0
   -1.1819   -1.3515   -4.4254 H   0  0  0  0  0  0  0  0  0  0  0  0
   -0.3238   -0.4571   -0.2724 H   0  0  0  0  0  0  0  0  0  0  0  0
   -0.8266   -2.3213   -0.3442 H   0  0  0  0  0  0  0  0  0  0  0  0
   -4.5249   -0.6503    0.7751 H   0  0  0  0  0  0  0  0  0  0  0  0
    0.1517    1.8165   -0.3398 C   0  0  0  0  0  0  0  0  0  0  0  0
    0.5353    0.4384    0.1592 C   0  0  0  0  0  0  0  0  0  0  0  0
    1.9855    0.2167    0.4681 C   0  0  0  0  0  0  0  0  0  0  0  0
    3.1327    1.3389    0.5698 S   0  0  0  0  0  1  0  0  0  0  0  0
   -0.3917   -0.0767    1.6549 S   0  0  0  0  0  0  0  0  0  0  0  0
    0.3969    2.5811    0.3971 H   0  0  0  0  0  0  0  0  0  0  0  0
    0.6965    2.0527   -1.2554 H   0  0  0  0  0  0  0  0  0  0  0  0
   -0.9180    1.8540   -0.5415 H   0  0  0  0  0  0  0  0  0  0  0  0
    2.2293   -0.8281    0.6617 H   0  0  0  0  0  0  0  0  0  0  0  0
    0.1200    0.8637    2.4622 H   0  0  0  0  0  0  0  0  0  0  0  0
  1  2  3  0
  1  6  1  0
  2  3  1  0
  3  4  1  0
  3  7  1  0
  3  8  1  0
  4  5  3  0
  5  9  1  0
 10 11  1  0
 10 15  1  0
 10 16  1  0
 10 17  1  0
 11 12  2  3
 11 14  1  0
 12 13  1  0
 12 18  1  0
 14 19  1  0
M  RAD  1  13   2
M  END
>  <reaction>  (14) 
rxn_1378

>  <mol_properties>  (14) 
{"1": {"label": "*4", "atom_type": "Ct"}, "2": {"label": "*3", "atom_type": "Cs"}, "6": {"label": "*2", "atom_type": "H0"}, "10": {"label": "*1", "atom_type": "Cs"}, "11": {"label": "*0", "atom_type": "CS"}}

>  <type>  (14) 
unop_10

>  <geom_source>  (14) 
Heuristics

$$$$

     RDKit          3D

 19 17  0  0  0  0  0  0  0  0999 V2000
   -0.6580   -1.6854   -3.1737 C   0  0  0  0  0  0  0  0  0  0  0  0
   -0.6580   -1.6854   -1.9782 C   0  0  0  0  0  0  0  0  0  0  0  0
   -0.6580   -1.6854   -0.5152 C   0  0  0  0  0  0  0  0  0  0  0  0
   -1.9720   -1.4098    0.0660 C   0  0  0  0  0  0  0  0  0  0  0  0
   -3.0458   -1.1846    0.5409 C   0  0  0  0  0  0  0  0  0  0  0  0
   -0.6580   -1.6854   -4.2371 H   0  0  0  0  0  0  0  0  0  0  0  0
    0.2002   -0.7910   -0.0841 H   0  0  0  0  0  0  0  0  0  0  0  0
   -0.3026   -2.6553   -0.1560 H   0  0  0  0  0  0  0  0  0  0  0  0
   -4.0010   -0.9843    0.9634 H   0  0  0  0  0  0  0  0  0  0  0  0
    1.6352   -0.3219    1.6824 C   0  0  0  0  0  0  0  0  0  0  0  0
    1.0593    0.1044    0.3474 C   0  0  0  0  0  0  0  0  0  0  0  0
   -0.1287    1.0179    0.3905 C   0  0  0  0  0  0  0  0  0  0  0  0
   -0.7034    1.7931    1.6767 S   0  0  0  0  0  1  0  0  0  0  0  0
    2.2873    0.9123   -0.7487 S   0  0  0  0  0  0  0  0  0  0  0  0
    1.9715    0.5414    2.2564 H   0  0  0  0  0  0  0  0  0  0  0  0
    0.8771   -0.8377    2.2741 H   0  0  0  0  0  0  0  0  0  0  0  0
    2.4810   -0.9899    1.5256 H   0  0  0  0  0  0  0  0  0  0  0  0
   -0.5994    1.1576   -0.5828 H   0  0  0  0  0  0  0  0  0  0  0  0
    2.4812    1.9849    0.0321 H   0  0  0  0  0  0  0  0  0  0  0  0
  1  2  3  0
  1  6  1  0
  2  3  1  0
  3  4  1  0
  3  7  1  0
  3  8  1  0
  4  5  3  0
  5  9  1  0
 10 11  1  0
 10 15  1  0
 10 16  1  0
 10 17  1  0
 11 12  2  3
 11 14  1  0
 12 13  1  0
 12 18  1  0
 14 19  1  0
M  RAD  1  13   2
M  END
>  <reaction>  (15) 
rxn_1378

>  <mol_properties>  (15) 
{"1": {"label": "*4", "atom_type": "Ct"}, "2": {"label": "*3", "atom_type": "Cs"}, "6": {"label": "*2", "atom_type": "H0"}, "10": {"label": "*1", "atom_type": "Cs"}, "11": {"label": "*0", "atom_type": "CS"}}

>  <type>  (15) 
unop_11

>  <geom_source>  (15) 
Heuristics

$$$$

     RDKit          3D

 19 17  0  0  0  0  0  0  0  0999 V2000
   -1.1920   -1.2929   -3.3755 C   0  0  0  0  0  0  0  0  0  0  0  0
   -1.1920   -1.2929   -2.1800 C   0  0  0  0  0  0  0  0  0  0  0  0
   -1.1920   -1.2929   -0.7170 C   0  0  0  0  0  0  0  0  0  0  0  0
   -2.5060   -1.0173   -0.1359 C   0  0  0  0  0  0  0  0  0  0  0  0
   -3.5798   -0.7921    0.3390 C   0  0  0  0  0  0  0  0  0  0  0  0
   -1.1920   -1.2929   -4.4390 H   0  0  0  0  0  0  0  0  0  0  0  0
   -0.3339   -0.3985   -0.2860 H   0  0  0  0  0  0  0  0  0  0  0  0
   -0.8367   -2.2628   -0.3578 H   0  0  0  0  0  0  0  0  0  0  0  0
   -4.5350   -0.5917    0.7615 H   0  0  0  0  0  0  0  0  0  0  0  0
    1.1915    1.1913   -1.0247 C   0  0  0  0  0  0  0  0  0  0  0  0
    0.5253    0.4970    0.1456 C   0  0  0  0  0  0  0  0  0  0  0  0
    1.4315   -0.1941    1.1197 C   0  0  0  0  0  0  0  0  0  0  0  0
    3.0326   -0.0709    1.2022 S   0  0  0  0  0  1  0  0  0  0  0  0
   -0.5417    1.6094    1.1386 S   0  0  0  0  0  0  0  0  0  0  0  0
    1.8722    1.9699   -0.6810 H   0  0  0  0  0  0  0  0  0  0  0  0
    1.7742    0.4758   -1.6073 H   0  0  0  0  0  0  0  0  0  0  0  0
    0.4368    1.6436   -1.6667 H   0  0  0  0  0  0  0  0  0  0  0  0
    0.8965   -0.8110    1.8419 H   0  0  0  0  0  0  0  0  0  0  0  0
    0.4523    2.3960    1.5758 H   0  0  0  0  0  0  0  0  0  0  0  0
  1  2  3  0
  1  6  1  0
  2  3  1  0
  3  4  1  0
  3  7  1  0
  3  8  1  0
  4  5  3  0
  5  9  1  0
 10 11  1  0
 10 15  1  0
 10 16  1  0
 10 17  1  0
 11 12  2  3
 11 14  1  0
 12 13  1  0
 12 18  1  0
 14 19  1  0
M  RAD  1  13   2
M  END
>  <reaction>  (16) 
rxn_1378

>  <mol_properties>  (16) 
{"1": {"label": "*4", "atom_type": "Ct"}, "2": {"label": "*3", "atom_type": "Cs"}, "6": {"label": "*2", "atom_type": "H0"}, "10": {"label": "*1", "atom_type": "Cs"}, "11": {"label": "*0", "atom_type": "CS"}}

>  <type>  (16) 
unop_12

>  <geom_source>  (16) 
Heuristics

$$$$

     RDKit          3D

 19 17  0  0  0  0  0  0  0  0999 V2000
   -1.5328   -2.1493   -0.6906 S   0  0  0  0  0  0  0  0  0  0  0  0
   -3.2196   -0.1587    1.3779 S   0  0  0  0  0  0  0  0  0  0  0  0
   -1.1939   -0.4205   -0.2090 C   0  0  0  0  0  0  0  0  0  0  0  0
   -1.6685    0.5368   -1.3032 C   0  0  0  0  0  0  0  0  0  0  0  0
   -1.8016   -0.0945    1.1354 C   0  0  0  0  0  0  0  0  0  0  0  0
    1.2529   -0.1812    0.6797 C   0  0  0  0  0  3  0  0  0  0  0  0
    2.1656   -0.7153   -0.3331 C   0  0  0  0  0  0  0  0  0  0  0  0
    1.5429    1.2355    0.9095 C   0  0  0  0  0  0  0  0  0  0  0  0
    2.9161   -1.1568   -1.1671 C   0  0  0  0  0  0  0  0  0  0  0  0
    1.7801    2.4022    1.1000 C   0  0  0  0  0  0  0  0  0  0  0  0
    0.1115   -0.2880   -0.1042 H   0  0  0  0  0  0  0  0  0  0  0  0
   -1.4566    1.5865   -1.0082 H   0  0  0  0  0  0  0  0  0  0  0  0
   -1.1259    0.3228   -2.2480 H   0  0  0  0  0  0  0  0  0  0  0  0
   -2.7585    0.4219   -1.4844 H   0  0  0  0  0  0  0  0  0  0  0  0
   -1.1441    0.1915    1.9494 H   0  0  0  0  0  0  0  0  0  0  0  0
    1.3812   -0.7439    1.6273 H   0  0  0  0  0  0  0  0  0  0  0  0
   -0.8125   -2.6711    0.4010 H   0  0  0  0  0  0  0  0  0  0  0  0
    3.5750   -1.5442   -1.8991 H   0  0  0  0  0  0  0  0  0  0  0  0
    1.9885    3.4262    1.2670 H   0  0  0  0  0  0  0  0  0  0  0  0
  1  3  1  0
  1 17  1  0
  2  5  2  0
  3  4  1  0
  3  5  1  0
  3 11  1  0
  4 12  1  0
  4 13  1  0
  4 14  1  0
  5 15  1  0
  6  7  1  0
  6  8  1  0
  6 16  1  0
  7  9  3  0
  8 10  3  0
  9 18  1  0
 10 19  1  0
M  RAD  1   6   2
M  END
>  <reaction>  (17) 
rxn_1378

>  <mol_properties>  (17) 
{"1": {"label": "*4", "atom_type": "Ct"}, "2": {"label": "*3", "atom_type": "Cs"}, "6": {"label": "*2", "atom_type": "H0"}, "10": {"label": "*1", "atom_type": "Cs"}, "11": {"label": "*0", "atom_type": "CS"}}

>  <type>  (17) 
unop_13

>  <geom_source>  (17) 
AutoTST

$$$$

     RDKit          3D

 19 17  0  0  0  0  0  0  0  0999 V2000
   -1.1839   -1.3639   -3.3530 C   0  0  0  0  0  0  0  0  0  0  0  0
   -1.1839   -1.3639   -2.1575 C   0  0  0  0  0  0  0  0  0  0  0  0
   -1.1839   -1.3639   -0.6946 C   0  0  0  0  0  0  0  0  0  0  0  0
   -2.4979   -1.0883   -0.1134 C   0  0  0  0  0  0  0  0  0  0  0  0
   -3.5717   -0.8631    0.3615 C   0  0  0  0  0  0  0  0  0  0  0  0
   -1.1839   -1.3639   -4.4165 H   0  0  0  0  0  0  0  0  0  0  0  0
   -0.3257   -0.4695   -0.2635 H   0  0  0  0  0  0  0  0  0  0  0  0
   -0.8285   -2.3338   -0.3353 H   0  0  0  0  0  0  0  0  0  0  0  0
   -4.5269   -0.6628    0.7840 H   0  0  0  0  0  0  0  0  0  0  0  0
    0.6435    1.5672   -0.8224 C   0  0  0  0  0  0  0  0  0  0  0  0
    0.5334    0.4259    0.1680 C   0  0  0  0  0  0  0  0  0  0  0  0
    1.8082   -0.0262    0.8146 C   0  0  0  0  0  0  0  0  0  0  0  0
    3.2314    0.7207    0.7676 S   0  0  0  0  0  1  0  0  0  0  0  0
   -0.6434    0.7604    1.5338 S   0  0  0  0  0  0  0  0  0  0  0  0
    1.0430    2.4617   -0.3448 H   0  0  0  0  0  0  0  0  0  0  0  0
    1.3179    1.2976   -1.6369 H   0  0  0  0  0  0  0  0  0  0  0  0
   -0.3383    1.7980   -1.2336 H   0  0  0  0  0  0  0  0  0  0  0  0
    1.6975   -0.9482    1.3857 H   0  0  0  0  0  0  0  0  0  0  0  0
    0.0563    1.7700    2.0715 H   0  0  0  0  0  0  0  0  0  0  0  0
  1  2  3  0
  1  6  1  0
  2  3  1  0
  3  4  1  0
  3  7  1  0
  3  8  1  0
  4  5  3  0
  5  9  1  0
 10 11  1  0
 10 15  1  0
 10 16  1  0
 10 17  1  0
 11 12  2  3
 11 14  1  0
 12 13  1  0
 12 18  1  0
 14 19  1  0
M  RAD  1  13   2
M  END
>  <reaction>  (18) 
rxn_1378

>  <mol_properties>  (18) 
{"1": {"label": "*4", "atom_type": "Ct"}, "2": {"label": "*3", "atom_type": "Cs"}, "6": {"label": "*2", "atom_type": "H0"}, "10": {"label": "*1", "atom_type": "Cs"}, "11": {"label": "*0", "atom_type": "CS"}}

>  <type>  (18) 
unop_14

>  <geom_source>  (18) 
gaussian_log

$$$$
