
     RDKit          3D

  5  4  0  0  0  0  0  0  0  0999 V2000
    0.0000    0.0000    0.0000 C   0  0  0  0  0  0  0  0  0  0  0  0
   -0.6486   -0.7720   -0.4113 H   0  0  0  0  0  0  0  0  0  0  0  0
   -0.3482    0.9787   -0.3267 H   0  0  0  0  0  0  0  0  0  0  0  0
   -0.0223   -0.0487    1.0876 H   0  0  0  0  0  0  0  0  0  0  0  0
    1.0191   -0.1580   -0.3496 H   0  0  0  0  0  0  0  0  0  0  0  0
  1  2  1  0
  1  3  1  0
  1  4  1  0
  1  5  1  0
M  END
>  <reaction>  (1) 
rxn_3205

>  <mol_properties>  (1) 
{"0": {"label": "donator", "atom_type": "Cs"}, "1": {"label": "d_hydrogen", "atom_type": "H0"}}

>  <type>  (1) 
r1h

$$$$

     RDKit          3D

  7  6  0  0  0  0  0  0  0  0999 V2000
   -1.3059    0.5497   -0.1304 N   0  0  0  0  0  2  0  0  0  0  0  0
   -0.2700   -0.4288    0.0448 C   0  0  0  0  0  0  0  0  0  0  0  0
    1.1109    0.0669    0.0401 C   0  0  0  0  0  0  0  0  0  0  0  0
    2.1758    0.4925    0.0308 N   0  0  0  0  0  0  0  0  0  0  0  0
   -0.8815    1.4733   -0.2339 H   0  0  0  0  0  0  0  0  0  0  0  0
   -0.3767   -1.1909   -0.7373 H   0  0  0  0  0  0  0  0  0  0  0  0
   -0.4527   -0.9628    0.9858 H   0  0  0  0  0  0  0  0  0  0  0  0
  1  2  1  0
  1  5  1  0
  2  3  1  0
  2  6  1  0
  2  7  1  0
  3  4  3  0
M  RAD  1   1   2
M  END
>  <reaction>  (2) 
rxn_3205

>  <mol_properties>  (2) 
{"0": {"label": "acceptor", "atom_type": "N3s"}}

>  <type>  (2) 
r2

$$$$

     RDKit          3D

  8  7  0  0  0  0  0  0  0  0999 V2000
   -1.0805    0.5317    0.0204 N   0  0  0  0  0  0  0  0  0  0  0  0
   -0.1080   -0.5393    0.0956 C   0  0  0  0  0  0  0  0  0  0  0  0
    1.2945   -0.1247   -0.1005 C   0  0  0  0  0  0  0  0  0  0  0  0
    2.3714    0.2386   -0.2580 N   0  0  0  0  0  0  0  0  0  0  0  0
   -1.0516    0.9857   -0.8822 H   0  0  0  0  0  0  0  0  0  0  0  0
   -0.9009    1.2352    0.7235 H   0  0  0  0  0  0  0  0  0  0  0  0
   -0.3427   -1.2965   -0.6542 H   0  0  0  0  0  0  0  0  0  0  0  0
   -0.1810   -1.0288    1.0680 H   0  0  0  0  0  0  0  0  0  0  0  0
  1  2  1  0
  1  5  1  0
  1  6  1  0
  2  3  1  0
  2  7  1  0
  2  8  1  0
  3  4  3  0
M  END
>  <reaction>  (3) 
rxn_3205

>  <mol_properties>  (3) 
{"0": {"label": "acceptor", "atom_type": "N3s"}, "7": {"label": "a_hydrogen", "atom_type": "H0"}}

>  <type>  (3) 
r2h

$$$$

     RDKit          3D

 12 10  0  0  0  0  0  0  0  0999 V2000
    0.6811   -0.1334    1.2696 N   0  0  0  0  0  0  0  0  0  0  0  0
   -0.6211    0.4001    0.9134 C   0  0  0  0  0  0  0  0  0  0  0  0
   -0.8669    0.5547   -0.5289 C   0  0  0  0  0  0  0  0  0  0  0  0
   -1.0180    0.6629   -1.6611 N   0  0  0  0  0  0  0  0  0  0  0  0
    1.3916    0.3451    0.7168 H   0  0  0  0  0  0  0  0  0  0  0  0
   -0.7405    1.3826    1.3809 H   0  0  0  0  0  0  0  0  0  0  0  0
   -1.3992   -0.2433    1.3279 H   0  0  0  0  0  0  0  0  0  0  0  0
    0.7214   -2.3927    0.0435 C   0  0  0  0  0  3  0  0  0  0  0  0
    0.7334   -1.2929    0.7683 H   0  0  0  0  0  0  0  0  0  0  0  0
   -0.0292   -3.0109    0.5286 H   0  0  0  0  0  0  0  0  0  0  0  0
    0.4596   -2.1017   -0.9693 H   0  0  0  0  0  0  0  0  0  0  0  0
    1.7313   -2.7799    0.1433 H   0  0  0  0  0  0  0  0  0  0  0  0
  1  2  1  0
  1  5  1  0
  1  9  1  0
  2  3  1  0
  2  6  1  0
  2  7  1  0
  3  4  3  0
  8 10  1  0
  8 11  1  0
  8 12  1  0
M  RAD  1   8   2
M  END
>  <reaction>  (4) 
rxn_3205

>  <mol_properties>  (4) 
{"0": {"label": "*1", "atom_type": "N3s"}, "1": {"label": "*0", "atom_type": "Cs"}, "7": {"label": "*3", "atom_type": "Cs"}, "8": {"label": "*2", "atom_type": "H0"}, "9": {"label": "*4", "atom_type": "H0"}}

>  <type>  (4) 
ts

$$$$

     RDKit          3D

 12 10  0  0  0  0  0  0  0  0999 V2000
    1.2061   -0.0162    0.0774 N   0  0  0  0  0  0  0  0  0  0  0  0
    0.0353    0.2491    0.8882 C   0  0  0  0  0  0  0  0  0  0  0  0
   -1.0353    1.0057    0.2109 C   0  0  0  0  0  0  0  0  0  0  0  0
   -1.8432    1.5953   -0.3516 N   0  0  0  0  0  0  0  0  0  0  0  0
    1.6335    0.8445   -0.2357 H   0  0  0  0  0  0  0  0  0  0  0  0
    0.3289    0.8065    1.7790 H   0  0  0  0  0  0  0  0  0  0  0  0
   -0.3880   -0.6948    1.2351 H   0  0  0  0  0  0  0  0  0  0  0  0
    1.2061   -2.3917   -0.7624 C   0  0  0  0  0  3  0  0  0  0  0  0
    1.2061   -1.1597   -0.3269 H   0  0  0  0  0  0  0  0  0  0  0  0
    2.0952   -2.9050   -0.3995 H   0  0  0  0  0  0  0  0  0  0  0  0
    0.3170   -2.9050   -0.3995 H   0  0  0  0  0  0  0  0  0  0  0  0
    1.2061   -2.3917   -1.8514 H   0  0  0  0  0  0  0  0  0  0  0  0
  1  2  1  0
  1  5  1  0
  1  9  1  0
  2  3  1  0
  2  6  1  0
  2  7  1  0
  3  4  3  0
  8 10  1  0
  8 11  1  0
  8 12  1  0
M  RAD  1   8   2
M  END
>  <reaction>  (5) 
rxn_3205

>  <mol_properties>  (5) 
{"0": {"label": "*1", "atom_type": "N3s"}, "1": {"label": "*0", "atom_type": "Cs"}, "7": {"label": "*3", "atom_type": "Cs"}, "8": {"label": "*2", "atom_type": "H0"}, "9": {"label": "*4", "atom_type": "H0"}}

>  <type>  (5) 
unop_1

>  <geom_source>  (5) 
Heuristics

$$$$

     RDKit          3D

 12 10  0  0  0  0  0  0  0  0999 V2000
   -0.0352   -0.1786    1.3114 N   0  0  0  0  0  0  0  0  0  0  0  0
   -0.7112    0.7023    0.3810 C   0  0  0  0  0  0  0  0  0  0  0  0
    0.0880    1.1030   -0.7930 C   0  0  0  0  0  0  0  0  0  0  0  0
    0.7423    1.3907   -1.6906 N   0  0  0  0  0  0  0  0  0  0  0  0
    0.7989    0.2557    1.6818 H   0  0  0  0  0  0  0  0  0  0  0  0
   -1.0231    1.6095    0.9008 H   0  0  0  0  0  0  0  0  0  0  0  0
   -1.6208    0.2202    0.0197 H   0  0  0  0  0  0  0  0  0  0  0  0
   -0.0352   -2.5541    0.4715 C   0  0  0  0  0  3  0  0  0  0  0  0
   -0.0352   -1.3221    0.9071 H   0  0  0  0  0  0  0  0  0  0  0  0
    0.8539   -3.0674    0.8345 H   0  0  0  0  0  0  0  0  0  0  0  0
   -0.9243   -3.0674    0.8345 H   0  0  0  0  0  0  0  0  0  0  0  0
   -0.0352   -2.5541   -0.6174 H   0  0  0  0  0  0  0  0  0  0  0  0
  1  2  1  0
  1  5  1  0
  1  9  1  0
  2  3  1  0
  2  6  1  0
  2  7  1  0
  3  4  3  0
  8 10  1  0
  8 11  1  0
  8 12  1  0
M  RAD  1   8   2
M  END
>  <reaction>  (6) 
rxn_3205

>  <mol_properties>  (6) 
{"0": {"label": "*1", "atom_type": "N3s"}, "1": {"label": "*0", "atom_type": "Cs"}, "7": {"label": "*3", "atom_type": "Cs"}, "8": {"label": "*2", "atom_type": "H0"}, "9": {"label": "*4", "atom_type": "H0"}}

>  <type>  (6) 
unop_2

>  <geom_source>  (6) 
Heuristics

$$$$

     RDKit          3D

 12 10  0  0  0  0  0  0  0  0999 V2000
    1.1222    0.3134   -0.4905 N   0  0  0  0  0  0  0  0  0  0  0  0
    0.4463    0.4138    0.7868 C   0  0  0  0  0  0  0  0  0  0  0  0
   -0.9975    0.7082    0.7082 C   0  0  0  0  0  0  0  0  0  0  0  0
   -2.1169    0.9378    0.6037 N   0  0  0  0  0  0  0  0  0  0  0  0
    1.0457    1.1766   -1.0106 H   0  0  0  0  0  0  0  0  0  0  0  0
    0.9164    1.1948    1.3864 H   0  0  0  0  0  0  0  0  0  0  0  0
    0.5693   -0.5202    1.3374 H   0  0  0  0  0  0  0  0  0  0  0  0
    1.1222   -2.0621   -1.3303 C   0  0  0  0  0  3  0  0  0  0  0  0
    1.1222   -0.8301   -0.8947 H   0  0  0  0  0  0  0  0  0  0  0  0
    2.0114   -2.5754   -0.9673 H   0  0  0  0  0  0  0  0  0  0  0  0
    0.2331   -2.5754   -0.9673 H   0  0  0  0  0  0  0  0  0  0  0  0
    1.1222   -2.0621   -2.4192 H   0  0  0  0  0  0  0  0  0  0  0  0
  1  2  1  0
  1  5  1  0
  1  9  1  0
  2  3  1  0
  2  6  1  0
  2  7  1  0
  3  4  3  0
  8 10  1  0
  8 11  1  0
  8 12  1  0
M  RAD  1   8   2
M  END
>  <reaction>  (7) 
rxn_3205

>  <mol_properties>  (7) 
{"0": {"label": "*1", "atom_type": "N3s"}, "1": {"label": "*0", "atom_type": "Cs"}, "7": {"label": "*3", "atom_type": "Cs"}, "8": {"label": "*2", "atom_type": "H0"}, "9": {"label": "*4", "atom_type": "H0"}}

>  <type>  (7) 
unop_3

>  <geom_source>  (7) 
Heuristics

$$$$

     RDKit          3D

 12 10  0  0  0  0  0  0  0  0999 V2000
   -1.2682    0.5639    0.5875 N   0  0  0  0  0  0  0  0  0  0  0  0
   -0.0974    1.2798    0.1236 C   0  0  0  0  0  0  0  0  0  0  0  0
    1.0776    0.4353   -0.1652 C   0  0  0  0  0  0  0  0  0  0  0  0
    1.9681   -0.2563   -0.3782 N   0  0  0  0  0  0  0  0  0  0  0  0
   -1.0723    0.0635    1.4434 H   0  0  0  0  0  0  0  0  0  0  0  0
    0.1956    2.0196    0.8702 H   0  0  0  0  0  0  0  0  0  0  0  0
   -0.3453    1.8325   -0.7839 H   0  0  0  0  0  0  0  0  0  0  0  0
   -1.2682   -1.8116   -0.2524 C   0  0  0  0  0  3  0  0  0  0  0  0
   -1.2682   -0.5796    0.1832 H   0  0  0  0  0  0  0  0  0  0  0  0
   -0.3791   -2.3249    0.1106 H   0  0  0  0  0  0  0  0  0  0  0  0
   -2.1573   -2.3249    0.1106 H   0  0  0  0  0  0  0  0  0  0  0  0
   -1.2682   -1.8116   -1.3413 H   0  0  0  0  0  0  0  0  0  0  0  0
  1  2  1  0
  1  5  1  0
  1  9  1  0
  2  3  1  0
  2  6  1  0
  2  7  1  0
  3  4  3  0
  8 10  1  0
  8 11  1  0
  8 12  1  0
M  RAD  1   8   2
M  END
>  <reaction>  (8) 
rxn_3205

>  <mol_properties>  (8) 
{"0": {"label": "*1", "atom_type": "N3s"}, "1": {"label": "*0", "atom_type": "Cs"}, "7": {"label": "*3", "atom_type": "Cs"}, "8": {"label": "*2", "atom_type": "H0"}, "9": {"label": "*4", "atom_type": "H0"}}

>  <type>  (8) 
unop_4

>  <geom_source>  (8) 
Heuristics

$$$$

     RDKit          3D

 12 10  0  0  0  0  0  0  0  0999 V2000
    0.6017    0.8370   -0.9579 N   0  0  0  0  0  0  0  0  0  0  0  0
    0.6017    0.8770    0.4902 C   0  0  0  0  0  0  0  0  0  0  0  0
   -0.5547    0.2239    1.1332 C   0  0  0  0  0  0  0  0  0  0  0  0
   -1.4693   -0.2939    1.5938 N   0  0  0  0  0  0  0  0  0  0  0  0
   -0.2169    1.2954   -1.3337 H   0  0  0  0  0  0  0  0  0  0  0  0
    0.6306    1.9150    0.8251 H   0  0  0  0  0  0  0  0  0  0  0  0
    1.5086    0.4014    0.8668 H   0  0  0  0  0  0  0  0  0  0  0  0
    0.6017   -1.5385   -1.7977 C   0  0  0  0  0  3  0  0  0  0  0  0
    0.6017   -0.3065   -1.3622 H   0  0  0  0  0  0  0  0  0  0  0  0
    1.4908   -2.0518   -1.4348 H   0  0  0  0  0  0  0  0  0  0  0  0
   -0.2874   -2.0518   -1.4348 H   0  0  0  0  0  0  0  0  0  0  0  0
    0.6017   -1.5385   -2.8867 H   0  0  0  0  0  0  0  0  0  0  0  0
  1  2  1  0
  1  5  1  0
  1  9  1  0
  2  3  1  0
  2  6  1  0
  2  7  1  0
  3  4  3  0
  8 10  1  0
  8 11  1  0
  8 12  1  0
M  RAD  1   8   2
M  END
>  <reaction>  (9) 
rxn_3205

>  <mol_properties>  (9) 
{"0": {"label": "*1", "atom_type": "N3s"}, "1": {"label": "*0", "atom_type": "Cs"}, "7": {"label": "*3", "atom_type": "Cs"}, "8": {"label": "*2", "atom_type": "H0"}, "9": {"label": "*4", "atom_type": "H0"}}

>  <type>  (9) 
unop_5

>  <geom_source>  (9) 
Heuristics

$$$$

     RDKit          3D

 12 10  0  0  0  0  0  0  0  0999 V2000
   -1.2950    0.7958    0.0387 N   0  0  0  0  0  0  0  0  0  0  0  0
    0.0569    1.2864    0.2121 C   0  0  0  0  0  0  0  0  0  0  0  0
    1.0956    0.2412    0.2910 C   0  0  0  0  0  0  0  0  0  0  0  0
    1.8722   -0.6015    0.3475 N   0  0  0  0  0  0  0  0  0  0  0  0
   -1.5653    0.1970    0.8068 H   0  0  0  0  0  0  0  0  0  0  0  0
    0.1123    1.8847    1.1229 H   0  0  0  0  0  0  0  0  0  0  0  0
    0.3111    1.9512   -0.6149 H   0  0  0  0  0  0  0  0  0  0  0  0
   -1.2950   -1.5797   -0.8012 C   0  0  0  0  0  3  0  0  0  0  0  0
   -1.2950   -0.3477   -0.3656 H   0  0  0  0  0  0  0  0  0  0  0  0
   -0.4059   -2.0930   -0.4382 H   0  0  0  0  0  0  0  0  0  0  0  0
   -2.1841   -2.0930   -0.4382 H   0  0  0  0  0  0  0  0  0  0  0  0
   -1.2950   -1.5797   -1.8901 H   0  0  0  0  0  0  0  0  0  0  0  0
  1  2  1  0
  1  5  1  0
  1  9  1  0
  2  3  1  0
  2  6  1  0
  2  7  1  0
  3  4  3  0
  8 10  1  0
  8 11  1  0
  8 12  1  0
M  RAD  1   8   2
M  END
>  <reaction>  (10) 
rxn_3205

>  <mol_properties>  (10) 
{"0": {"label": "*1", "atom_type": "N3s"}, "1": {"label": "*0", "atom_type": "Cs"}, "7": {"label": "*3", "atom_type": "Cs"}, "8": {"label": "*2", "atom_type": "H0"}, "9": {"label": "*4", "atom_type": "H0"}}

>  <type>  (10) 
unop_6

>  <geom_source>  (10) 
Heuristics

$$$$

     RDKit          3D

 12 10  0  0  0  0  0  0  0  0999 V2000
   -1.0128    1.0018   -0.5348 N   0  0  0  0  0  0  0  0  0  0  0  0
    0.1580    1.2671    0.2760 C   0  0  0  0  0  0  0  0  0  0  0  0
    0.8571    0.0673    0.7752 C   0  0  0  0  0  0  0  0  0  0  0  0
    1.3713   -0.8902    1.1432 N   0  0  0  0  0  0  0  0  0  0  0  0
   -1.7032    0.4776   -0.0150 H   0  0  0  0  0  0  0  0  0  0  0  0
   -0.1263    1.8733    1.1375 H   0  0  0  0  0  0  0  0  0  0  0  0
    0.8726    1.8573   -0.2998 H   0  0  0  0  0  0  0  0  0  0  0  0
   -1.0128   -1.3737   -1.3746 C   0  0  0  0  0  3  0  0  0  0  0  0
   -1.0128   -0.1417   -0.9391 H   0  0  0  0  0  0  0  0  0  0  0  0
   -0.1237   -1.8870   -1.0117 H   0  0  0  0  0  0  0  0  0  0  0  0
   -1.9019   -1.8870   -1.0117 H   0  0  0  0  0  0  0  0  0  0  0  0
   -1.0128   -1.3737   -2.4636 H   0  0  0  0  0  0  0  0  0  0  0  0
  1  2  1  0
  1  5  1  0
  1  9  1  0
  2  3  1  0
  2  6  1  0
  2  7  1  0
  3  4  3  0
  8 10  1  0
  8 11  1  0
  8 12  1  0
M  RAD  1   8   2
M  END
>  <reaction>  (11) 
rxn_3205

>  <mol_properties>  (11) 
{"0": {"label": "*1", "atom_type": "N3s"}, "1": {"label": "*0", "atom_type": "Cs"}, "7": {"label": "*3", "atom_type": "Cs"}, "8": {"label": "*2", "atom_type": "H0"}, "9": {"label": "*4", "atom_type": "H0"}}

>  <type>  (11) 
unop_7

>  <geom_source>  (11) 
Heuristics

$$$$

     RDKit          3D

 12 10  0  0  0  0  0  0  0  0999 V2000
    1.0088   -0.2059    0.6411 N   0  0  0  0  0  0  0  0  0  0  0  0
   -0.3431    0.2847    0.8146 C   0  0  0  0  0  0  0  0  0  0  0  0
   -0.8317    1.1647   -0.2644 C   0  0  0  0  0  0  0  0  0  0  0  0
   -1.1733    1.8444   -1.1235 N   0  0  0  0  0  0  0  0  0  0  0  0
    1.6685    0.5581    0.5896 H   0  0  0  0  0  0  0  0  0  0  0  0
   -0.4123    0.8349    1.7543 H   0  0  0  0  0  0  0  0  0  0  0  0
   -1.0287   -0.5602    0.8956 H   0  0  0  0  0  0  0  0  0  0  0  0
    1.0088   -2.5814   -0.1987 C   0  0  0  0  0  3  0  0  0  0  0  0
    1.0088   -1.3494    0.2369 H   0  0  0  0  0  0  0  0  0  0  0  0
    1.8979   -3.0947    0.1643 H   0  0  0  0  0  0  0  0  0  0  0  0
    0.1197   -3.0947    0.1643 H   0  0  0  0  0  0  0  0  0  0  0  0
    1.0088   -2.5814   -1.2876 H   0  0  0  0  0  0  0  0  0  0  0  0
  1  2  1  0
  1  5  1  0
  1  9  1  0
  2  3  1  0
  2  6  1  0
  2  7  1  0
  3  4  3  0
  8 10  1  0
  8 11  1  0
  8 12  1  0
M  RAD  1   8   2
M  END
>  <reaction>  (12) 
rxn_3205

>  <mol_properties>  (12) 
{"0": {"label": "*1", "atom_type": "N3s"}, "1": {"label": "*0", "atom_type": "Cs"}, "7": {"label": "*3", "atom_type": "Cs"}, "8": {"label": "*2", "atom_type": "H0"}, "9": {"label": "*4", "atom_type": "H0"}}

>  <type>  (12) 
unop_8

>  <geom_source>  (12) 
Heuristics

$$$$

     RDKit          3D

 12 10  0  0  0  0  0  0  0  0999 V2000
   -1.0204    0.3168    1.0135 N   0  0  0  0  0  0  0  0  0  0  0  0
   -0.3444    1.1976    0.0831 C   0  0  0  0  0  0  0  0  0  0  0  0
    0.8851    0.6463   -0.5184 C   0  0  0  0  0  0  0  0  0  0  0  0
    1.8351    0.1812   -0.9632 N   0  0  0  0  0  0  0  0  0  0  0  0
   -0.4184    0.0771    1.7892 H   0  0  0  0  0  0  0  0  0  0  0  0
   -0.0831    2.1286    0.5886 H   0  0  0  0  0  0  0  0  0  0  0  0
   -1.0256    1.4621   -0.7272 H   0  0  0  0  0  0  0  0  0  0  0  0
   -1.0204   -2.0587    0.1736 C   0  0  0  0  0  3  0  0  0  0  0  0
   -1.0204   -0.8267    0.6092 H   0  0  0  0  0  0  0  0  0  0  0  0
   -0.1313   -2.5721    0.5366 H   0  0  0  0  0  0  0  0  0  0  0  0
   -1.9095   -2.5721    0.5366 H   0  0  0  0  0  0  0  0  0  0  0  0
   -1.0204   -2.0587   -0.9153 H   0  0  0  0  0  0  0  0  0  0  0  0
  1  2  1  0
  1  5  1  0
  1  9  1  0
  2  3  1  0
  2  6  1  0
  2  7  1  0
  3  4  3  0
  8 10  1  0
  8 11  1  0
  8 12  1  0
M  RAD  1   8   2
M  END
>  <reaction>  (13) 
rxn_3205

>  <mol_properties>  (13) 
{"0": {"label": "*1", "atom_type": "N3s"}, "1": {"label": "*0", "atom_type": "Cs"}, "7": {"label": "*3", "atom_type": "Cs"}, "8": {"label": "*2", "atom_type": "H0"}, "9": {"label": "*4", "atom_type": "H0"}}

>  <type>  (13) 
unop_9

>  <geom_source>  (13) 
Heuristics

$$$$

     RDKit          3D

 12 10  0  0  0  0  0  0  0  0999 V2000
    0.5598   -0.2698    1.0889 N   0  0  0  0  0  0  0  0  0  0  0  0
   -0.6110    0.4461    0.6250 C   0  0  0  0  0  0  0  0  0  0  0  0
   -0.4245    1.2038   -0.6274 C   0  0  0  0  0  0  0  0  0  0  0  0
   -0.2383    1.7793   -1.6025 N   0  0  0  0  0  0  0  0  0  0  0  0
    1.3277    0.3640    1.2627 H   0  0  0  0  0  0  0  0  0  0  0  0
   -0.9381    1.1459    1.3957 H   0  0  0  0  0  0  0  0  0  0  0  0
   -1.4308   -0.2577    0.4731 H   0  0  0  0  0  0  0  0  0  0  0  0
    0.5598   -2.6453    0.2490 C   0  0  0  0  0  3  0  0  0  0  0  0
    0.5598   -1.4133    0.6846 H   0  0  0  0  0  0  0  0  0  0  0  0
    1.4489   -3.1586    0.6120 H   0  0  0  0  0  0  0  0  0  0  0  0
   -0.3293   -3.1586    0.6120 H   0  0  0  0  0  0  0  0  0  0  0  0
    0.5598   -2.6453   -0.8399 H   0  0  0  0  0  0  0  0  0  0  0  0
  1  2  1  0
  1  5  1  0
  1  9  1  0
  2  3  1  0
  2  6  1  0
  2  7  1  0
  3  4  3  0
  8 10  1  0
  8 11  1  0
  8 12  1  0
M  RAD  1   8   2
M  END
>  <reaction>  (14) 
rxn_3205

>  <mol_properties>  (14) 
{"0": {"label": "*1", "atom_type": "N3s"}, "1": {"label": "*0", "atom_type": "Cs"}, "7": {"label": "*3", "atom_type": "Cs"}, "8": {"label": "*2", "atom_type": "H0"}, "9": {"label": "*4", "atom_type": "H0"}}

>  <type>  (14) 
unop_10

>  <geom_source>  (14) 
Heuristics

$$$$

     RDKit          3D

 12 10  0  0  0  0  0  0  0  0999 V2000
   -0.3446    1.1005   -0.9638 N   0  0  0  0  0  0  0  0  0  0  0  0
    0.3314    1.2009    0.3135 C   0  0  0  0  0  0  0  0  0  0  0  0
    0.2806   -0.0174    1.1446 C   0  0  0  0  0  0  0  0  0  0  0  0
    0.2181   -0.9841    1.7596 N   0  0  0  0  0  0  0  0  0  0  0  0
   -1.3260    0.8929   -0.8399 H   0  0  0  0  0  0  0  0  0  0  0  0
   -0.1015    2.0196    0.8903 H   0  0  0  0  0  0  0  0  0  0  0  0
    1.3803    1.4532    0.1506 H   0  0  0  0  0  0  0  0  0  0  0  0
   -0.3446   -1.2750   -1.8037 C   0  0  0  0  0  3  0  0  0  0  0  0
   -0.3446   -0.0430   -1.3681 H   0  0  0  0  0  0  0  0  0  0  0  0
    0.5445   -1.7883   -1.4407 H   0  0  0  0  0  0  0  0  0  0  0  0
   -1.2337   -1.7883   -1.4407 H   0  0  0  0  0  0  0  0  0  0  0  0
   -0.3446   -1.2750   -2.8926 H   0  0  0  0  0  0  0  0  0  0  0  0
  1  2  1  0
  1  5  1  0
  1  9  1  0
  2  3  1  0
  2  6  1  0
  2  7  1  0
  3  4  3  0
  8 10  1  0
  8 11  1  0
  8 12  1  0
M  RAD  1   8   2
M  END
>  <reaction>  (15) 
rxn_3205

>  <mol_properties>  (15) 
{"0": {"label": "*1", "atom_type": "N3s"}, "1": {"label": "*0", "atom_type": "Cs"}, "7": {"label": "*3", "atom_type": "Cs"}, "8": {"label": "*2", "atom_type": "H0"}, "9": {"label": "*4", "atom_type": "H0"}}

>  <type>  (15) 
unop_11

>  <geom_source>  (15) 
Heuristics

$$$$

     RDKit          3D

 12 10  0  0  0  0  0  0  0  0999 V2000
   -0.6017    0.0490    1.2711 N   0  0  0  0  0  0  0  0  0  0  0  0
   -0.6017    0.9902    0.1700 C   0  0  0  0  0  0  0  0  0  0  0  0
    0.5547    0.8864   -0.7407 C   0  0  0  0  0  0  0  0  0  0  0  0
    1.4693    0.7732   -1.4243 N   0  0  0  0  0  0  0  0  0  0  0  0
    0.2169    0.1692    1.8516 H   0  0  0  0  0  0  0  0  0  0  0  0
   -0.6306    2.0081    0.5620 H   0  0  0  0  0  0  0  0  0  0  0  0
   -1.5086    0.8570   -0.4219 H   0  0  0  0  0  0  0  0  0  0  0  0
   -0.6017   -2.3265    0.4313 C   0  0  0  0  0  3  0  0  0  0  0  0
   -0.6017   -1.0945    0.8668 H   0  0  0  0  0  0  0  0  0  0  0  0
    0.2874   -2.8399    0.7942 H   0  0  0  0  0  0  0  0  0  0  0  0
   -1.4908   -2.8399    0.7942 H   0  0  0  0  0  0  0  0  0  0  0  0
   -0.6017   -2.3265   -0.6577 H   0  0  0  0  0  0  0  0  0  0  0  0
  1  2  1  0
  1  5  1  0
  1  9  1  0
  2  3  1  0
  2  6  1  0
  2  7  1  0
  3  4  3  0
  8 10  1  0
  8 11  1  0
  8 12  1  0
M  RAD  1   8   2
M  END
>  <reaction>  (16) 
rxn_3205

>  <mol_properties>  (16) 
{"0": {"label": "*1", "atom_type": "N3s"}, "1": {"label": "*0", "atom_type": "Cs"}, "7": {"label": "*3", "atom_type": "Cs"}, "8": {"label": "*2", "atom_type": "H0"}, "9": {"label": "*4", "atom_type": "H0"}}

>  <type>  (16) 
unop_12

>  <geom_source>  (16) 
Heuristics

$$$$

     RDKit          3D

 12 10  0  0  0  0  0  0  0  0999 V2000
   -0.0352   -0.1786    1.3114 N   0  0  0  0  0  0  0  0  0  0  0  0
   -0.7111    0.7023    0.3810 C   0  0  0  0  0  0  0  0  0  0  0  0
    0.0880    1.1030   -0.7930 C   0  0  0  0  0  0  0  0  0  0  0  0
    0.7423    1.3907   -1.6906 N   0  0  0  0  0  0  0  0  0  0  0  0
    0.7989    0.2557    1.6818 H   0  0  0  0  0  0  0  0  0  0  0  0
   -1.0231    1.6095    0.9008 H   0  0  0  0  0  0  0  0  0  0  0  0
   -1.6208    0.2202    0.0197 H   0  0  0  0  0  0  0  0  0  0  0  0
   -0.0352   -2.5541    0.4715 C   0  0  0  0  0  3  0  0  0  0  0  0
   -0.0352   -1.3221    0.9071 H   0  0  0  0  0  0  0  0  0  0  0  0
    0.8539   -3.0674    0.8345 H   0  0  0  0  0  0  0  0  0  0  0  0
   -0.9243   -3.0674    0.8345 H   0  0  0  0  0  0  0  0  0  0  0  0
   -0.0352   -2.5541   -0.6174 H   0  0  0  0  0  0  0  0  0  0  0  0
  1  2  1  0
  1  5  1  0
  1  9  1  0
  2  3  1  0
  2  6  1  0
  2  7  1  0
  3  4  3  0
  8 10  1  0
  8 11  1  0
  8 12  1  0
M  RAD  1   8   2
M  END
>  <reaction>  (17) 
rxn_3205

>  <mol_properties>  (17) 
{"0": {"label": "*1", "atom_type": "N3s"}, "1": {"label": "*0", "atom_type": "Cs"}, "7": {"label": "*3", "atom_type": "Cs"}, "8": {"label": "*2", "atom_type": "H0"}, "9": {"label": "*4", "atom_type": "H0"}}

>  <type>  (17) 
unop_13

>  <geom_source>  (17) 
gaussian_log

$$$$
