
     RDKit          3D

 12 11  0  0  0  0  0  0  0  0999 V2000
    1.9877    0.1011    0.4814 C   0  0  0  0  0  0  0  0  0  0  0  0
    0.8179    0.5502    0.0525 C   0  0  0  0  0  0  0  0  0  0  0  0
   -0.2939   -0.2692   -0.5320 C   0  0  0  0  0  0  0  0  0  0  0  0
   -0.0292   -1.7631   -0.6328 C   0  0  0  0  0  0  0  0  0  0  0  0
    2.2522   -0.9490    0.4436 H   0  0  0  0  0  0  0  0  0  0  0  0
    2.7295    0.7757    0.8896 H   0  0  0  0  0  0  0  0  0  0  0  0
    0.6162    1.6164    0.1190 H   0  0  0  0  0  0  0  0  0  0  0  0
   -0.5268    0.1319   -1.5245 H   0  0  0  0  0  0  0  0  0  0  0  0
   -1.1959   -0.0938    0.0644 H   0  0  0  0  0  0  0  0  0  0  0  0
    0.1590   -2.1992    0.3502 H   0  0  0  0  0  0  0  0  0  0  0  0
    0.8382   -1.9701   -1.2626 H   0  0  0  0  0  0  0  0  0  0  0  0
   -0.8879   -2.2759   -1.0672 H   0  0  0  0  0  0  0  0  0  0  0  0
  1  2  2  3
  1  5  1  0
  1  6  1  0
  2  3  1  0
  2  7  1  0
  3  4  1  0
  3  8  1  0
  3  9  1  0
  4 10  1  0
  4 11  1  0
  4 12  1  0
M  END
>  <reaction>  (1) 
rxn_1049

>  <mol_properties>  (1) 
{"2": {"label": "donator", "atom_type": "Cs"}, "7": {"label": "d_hydrogen", "atom_type": "H0"}}

>  <type>  (1) 
r1h

$$$$

     RDKit          3D

  8  7  0  0  0  0  0  0  0  0999 V2000
   -2.2129    0.4855    0.7390 C   0  0  0  0  0  0  0  0  0  0  0  0
   -1.2226    0.0526    0.1974 C   0  0  0  0  0  0  0  0  0  0  0  0
   -0.1006   -0.4575   -0.4419 C   0  0  0  0  0  3  0  0  0  0  0  0
    1.1960   -0.1737   -0.0342 C   0  0  0  0  0  0  0  0  0  0  0  0
    2.3329    0.0603    0.3036 C   0  0  0  0  0  0  0  0  0  0  0  0
   -3.0803    0.8696    1.2198 H   0  0  0  0  0  0  0  0  0  0  0  0
   -0.2433   -1.1067   -1.2980 H   0  0  0  0  0  0  0  0  0  0  0  0
    3.3308    0.2700    0.6058 H   0  0  0  0  0  0  0  0  0  0  0  0
  1  2  3  0
  1  6  1  0
  2  3  1  0
  3  4  1  0
  3  7  1  0
  4  5  3  0
  5  8  1  0
M  RAD  1   3   2
M  END
>  <reaction>  (2) 
rxn_1049

>  <mol_properties>  (2) 
{"2": {"label": "acceptor", "atom_type": "Cs"}}

>  <type>  (2) 
r2

$$$$

     RDKit          3D

  9  8  0  0  0  0  0  0  0  0999 V2000
   -2.1022   -0.6873    0.3932 C   0  0  0  0  0  0  0  0  0  0  0  0
   -1.2072   -0.1086   -0.1482 C   0  0  0  0  0  0  0  0  0  0  0  0
   -0.1242    0.6105   -0.8193 C   0  0  0  0  0  0  0  0  0  0  0  0
    1.2067    0.1106   -0.4741 C   0  0  0  0  0  0  0  0  0  0  0  0
    2.3005   -0.2875   -0.2012 C   0  0  0  0  0  0  0  0  0  0  0  0
   -2.8942   -1.2059    0.8778 H   0  0  0  0  0  0  0  0  0  0  0  0
   -0.1862    1.6723   -0.5649 H   0  0  0  0  0  0  0  0  0  0  0  0
   -0.2641    0.5418   -1.9017 H   0  0  0  0  0  0  0  0  0  0  0  0
    3.2709   -0.6459    0.0455 H   0  0  0  0  0  0  0  0  0  0  0  0
  1  2  3  0
  1  6  1  0
  2  3  1  0
  3  4  1  0
  3  7  1  0
  3  8  1  0
  4  5  3  0
  5  9  1  0
M  END
>  <reaction>  (3) 
rxn_1049

>  <mol_properties>  (3) 
{"2": {"label": "acceptor", "atom_type": "Cs"}, "8": {"label": "a_hydrogen", "atom_type": "H0"}}

>  <type>  (3) 
r2h

$$$$

     RDKit          3D

 20 18  0  0  0  0  0  0  0  0999 V2000
    2.1388   -2.0484    1.0537 C   0  0  0  0  0  0  0  0  0  0  0  0
    1.7421   -0.9528    0.7653 C   0  0  0  0  0  0  0  0  0  0  0  0
    1.2339    0.3212    0.3573 C   0  0  0  0  0  3  0  0  0  0  0  0
    0.4609    1.0640    1.3028 C   0  0  0  0  0  0  0  0  0  0  0  0
   -0.2381    1.6919    2.0504 C   0  0  0  0  0  0  0  0  0  0  0  0
    2.5031   -3.0086    1.3292 H   0  0  0  0  0  0  0  0  0  0  0  0
    1.9530    0.9267   -0.1926 H   0  0  0  0  0  0  0  0  0  0  0  0
   -0.8385    2.2508    2.7269 H   0  0  0  0  0  0  0  0  0  0  0  0
   -2.1414    1.6628   -1.6444 C   0  0  0  0  0  0  0  0  0  0  0  0
   -1.0826    0.9546   -2.0518 C   0  0  0  0  0  0  0  0  0  0  0  0
   -0.6354   -0.3070   -1.4863 C   0  0  0  0  0  0  0  0  0  0  0  0
   -1.5414   -1.0900   -0.5755 C   0  0  0  0  0  0  0  0  0  0  0  0
   -2.7946    1.3150   -0.8538 H   0  0  0  0  0  0  0  0  0  0  0  0
   -2.3856    2.6131   -2.1004 H   0  0  0  0  0  0  0  0  0  0  0  0
   -0.4663    1.3621   -2.8482 H   0  0  0  0  0  0  0  0  0  0  0  0
    0.3530    0.0473   -0.6386 H   0  0  0  0  0  0  0  0  0  0  0  0
   -0.0490   -0.9171   -2.1721 H   0  0  0  0  0  0  0  0  0  0  0  0
   -2.4312   -1.4344   -1.1101 H   0  0  0  0  0  0  0  0  0  0  0  0
   -1.8713   -0.4842    0.2708 H   0  0  0  0  0  0  0  0  0  0  0  0
   -1.0219   -1.9614   -0.1767 H   0  0  0  0  0  0  0  0  0  0  0  0
  1  2  3  0
  1  6  1  0
  2  3  1  0
  3  4  1  0
  3  7  1  0
  4  5  3  0
  5  8  1  0
  9 10  2  3
  9 13  1  0
  9 14  1  0
 10 11  1  0
 10 15  1  0
 11 12  1  0
 11 16  1  0
 11 17  1  0
 12 18  1  0
 12 19  1  0
 12 20  1  0
M  RAD  1   3   2
M  END
>  <reaction>  (4) 
rxn_1049

>  <mol_properties>  (4) 
{"1": {"label": "*4", "atom_type": "Ct"}, "2": {"label": "*3", "atom_type": "Cs"}, "9": {"label": "*0", "atom_type": "Cd"}, "10": {"label": "*1", "atom_type": "Cs"}, "15": {"label": "*2", "atom_type": "H0"}}

>  <type>  (4) 
ts

$$$$

     RDKit          3D

 20 18  0  0  0  0  0  0  0  0999 V2000
    2.0793    2.1246    0.6644 C   0  0  0  0  0  0  0  0  0  0  0  0
    1.3760    1.1740    0.8403 C   0  0  0  0  0  0  0  0  0  0  0  0
    0.5153    0.0107    1.0556 C   0  0  0  0  0  0  0  0  0  0  0  0
    1.1999   -1.1062    1.7069 C   0  0  0  0  0  0  0  0  0  0  0  0
    1.7593   -2.0188    2.2391 C   0  0  0  0  0  0  0  0  0  0  0  0
    2.7049    2.9702    0.5079 H   0  0  0  0  0  0  0  0  0  0  0  0
   -0.3449    0.3077    1.6622 H   0  0  0  0  0  0  0  0  0  0  0  0
    2.2570   -2.8307    2.7126 H   0  0  0  0  0  0  0  0  0  0  0  0
   -1.5694   -1.0308   -2.7523 C   0  0  0  0  0  0  0  0  0  0  0  0
   -1.5694   -1.0308   -1.4279 C   0  0  0  0  0  0  0  0  0  0  0  0
   -1.5694    0.1737   -0.5345 C   0  0  0  0  0  3  0  0  0  0  0  0
   -1.5694    1.5195   -1.2422 C   0  0  0  0  0  0  0  0  0  0  0  0
   -1.5694   -0.1139   -3.3297 H   0  0  0  0  0  0  0  0  0  0  0  0
   -1.5694   -1.9581   -3.3109 H   0  0  0  0  0  0  0  0  0  0  0  0
   -1.5694   -1.9865   -0.9097 H   0  0  0  0  0  0  0  0  0  0  0  0
   -0.5261    0.0922    0.2613 H   0  0  0  0  0  0  0  0  0  0  0  0
   -2.4388    0.1058    0.1287 H   0  0  0  0  0  0  0  0  0  0  0  0
   -2.4518    1.6345   -1.8746 H   0  0  0  0  0  0  0  0  0  0  0  0
   -0.6870    1.6345   -1.8746 H   0  0  0  0  0  0  0  0  0  0  0  0
   -1.5694    2.3339   -0.5169 H   0  0  0  0  0  0  0  0  0  0  0  0
  1  2  3  0
  1  6  1  0
  2  3  1  0
  3  4  1  0
  3  7  1  0
  3 16  1  0
  4  5  3  0
  5  8  1  0
  9 10  2  3
  9 13  1  0
  9 14  1  0
 10 11  1  0
 10 15  1  0
 11 12  1  0
 11 17  1  0
 12 18  1  0
 12 19  1  0
 12 20  1  0
M  RAD  1  11   2
M  END
>  <reaction>  (5) 
rxn_1049

>  <mol_properties>  (5) 
{"1": {"label": "*4", "atom_type": "Ct"}, "2": {"label": "*3", "atom_type": "Cs"}, "9": {"label": "*0", "atom_type": "Cd"}, "10": {"label": "*1", "atom_type": "Cs"}, "15": {"label": "*2", "atom_type": "H0"}}

>  <type>  (5) 
unop_1

>  <geom_source>  (5) 
Heuristics

$$$$

     RDKit          3D

 20 18  0  0  0  0  0  0  0  0999 V2000
    2.6362   -0.9665   -0.2743 C   0  0  0  0  0  0  0  0  0  0  0  0
    1.7602   -0.3768    0.2860 C   0  0  0  0  0  0  0  0  0  0  0  0
    0.6880    0.3448    0.9717 C   0  0  0  0  0  0  0  0  0  0  0  0
    0.5668   -0.0025    2.3876 C   0  0  0  0  0  0  0  0  0  0  0  0
    0.4678   -0.2864    3.5447 C   0  0  0  0  0  0  0  0  0  0  0  0
    3.4156   -1.4911   -0.7728 H   0  0  0  0  0  0  0  0  0  0  0  0
    0.8628    1.4204    0.8793 H   0  0  0  0  0  0  0  0  0  0  0  0
    0.3796   -0.5389    4.5740 H   0  0  0  0  0  0  0  0  0  0  0  0
   -1.3966   -0.6967   -2.8362 C   0  0  0  0  0  0  0  0  0  0  0  0
   -1.3966   -0.6967   -1.5119 C   0  0  0  0  0  0  0  0  0  0  0  0
   -1.3966    0.5078   -0.6184 C   0  0  0  0  0  3  0  0  0  0  0  0
   -1.3966    1.8535   -1.3261 C   0  0  0  0  0  0  0  0  0  0  0  0
   -1.3966    0.2202   -3.4137 H   0  0  0  0  0  0  0  0  0  0  0  0
   -1.3966   -1.6240   -3.3949 H   0  0  0  0  0  0  0  0  0  0  0  0
   -1.3966   -1.6524   -0.9937 H   0  0  0  0  0  0  0  0  0  0  0  0
   -0.3534    0.4262    0.1773 H   0  0  0  0  0  0  0  0  0  0  0  0
   -2.2660    0.4398    0.0447 H   0  0  0  0  0  0  0  0  0  0  0  0
   -2.2791    1.9686   -1.9586 H   0  0  0  0  0  0  0  0  0  0  0  0
   -0.5142    1.9686   -1.9586 H   0  0  0  0  0  0  0  0  0  0  0  0
   -1.3966    2.6679   -0.6008 H   0  0  0  0  0  0  0  0  0  0  0  0
  1  2  3  0
  1  6  1  0
  2  3  1  0
  3  4  1  0
  3  7  1  0
  3 16  1  0
  4  5  3  0
  5  8  1  0
  9 10  2  3
  9 13  1  0
  9 14  1  0
 10 11  1  0
 10 15  1  0
 11 12  1  0
 11 17  1  0
 12 18  1  0
 12 19  1  0
 12 20  1  0
M  RAD  1  11   2
M  END
>  <reaction>  (6) 
rxn_1049

>  <mol_properties>  (6) 
{"1": {"label": "*4", "atom_type": "Ct"}, "2": {"label": "*3", "atom_type": "Cs"}, "9": {"label": "*0", "atom_type": "Cd"}, "10": {"label": "*1", "atom_type": "Cs"}, "15": {"label": "*2", "atom_type": "H0"}}

>  <type>  (6) 
unop_2

>  <geom_source>  (6) 
Heuristics

$$$$

     RDKit          3D

 20 18  0  0  0  0  0  0  0  0999 V2000
    1.3380    2.3708    1.7113 C   0  0  0  0  0  0  0  0  0  0  0  0
    0.9693    1.2681    1.4328 C   0  0  0  0  0  0  0  0  0  0  0  0
    0.5183   -0.0812    1.0920 C   0  0  0  0  0  0  0  0  0  0  0  0
    1.5998   -1.0660    1.0648 C   0  0  0  0  0  0  0  0  0  0  0  0
    2.4836   -1.8707    1.0425 C   0  0  0  0  0  0  0  0  0  0  0  0
    1.6659    3.3516    1.9591 H   0  0  0  0  0  0  0  0  0  0  0  0
   -0.2393   -0.3996    1.8135 H   0  0  0  0  0  0  0  0  0  0  0  0
    3.2699   -2.5866    1.0227 H   0  0  0  0  0  0  0  0  0  0  0  0
   -1.5664   -1.1227   -2.7158 C   0  0  0  0  0  0  0  0  0  0  0  0
   -1.5664   -1.1227   -1.3915 C   0  0  0  0  0  0  0  0  0  0  0  0
   -1.5664    0.0818   -0.4980 C   0  0  0  0  0  3  0  0  0  0  0  0
   -1.5664    1.4275   -1.2057 C   0  0  0  0  0  0  0  0  0  0  0  0
   -1.5664   -0.2058   -3.2933 H   0  0  0  0  0  0  0  0  0  0  0  0
   -1.5664   -2.0501   -3.2745 H   0  0  0  0  0  0  0  0  0  0  0  0
   -1.5664   -2.0784   -0.8733 H   0  0  0  0  0  0  0  0  0  0  0  0
   -0.5231    0.0002    0.2977 H   0  0  0  0  0  0  0  0  0  0  0  0
   -2.4358    0.0138    0.1651 H   0  0  0  0  0  0  0  0  0  0  0  0
   -2.4489    1.5425   -1.8382 H   0  0  0  0  0  0  0  0  0  0  0  0
   -0.6840    1.5425   -1.8382 H   0  0  0  0  0  0  0  0  0  0  0  0
   -1.5664    2.2419   -0.4804 H   0  0  0  0  0  0  0  0  0  0  0  0
  1  2  3  0
  1  6  1  0
  2  3  1  0
  3  4  1  0
  3  7  1  0
  3 16  1  0
  4  5  3  0
  5  8  1  0
  9 10  2  3
  9 13  1  0
  9 14  1  0
 10 11  1  0
 10 15  1  0
 11 12  1  0
 11 17  1  0
 12 18  1  0
 12 19  1  0
 12 20  1  0
M  RAD  1  11   2
M  END
>  <reaction>  (7) 
rxn_1049

>  <mol_properties>  (7) 
{"1": {"label": "*4", "atom_type": "Ct"}, "2": {"label": "*3", "atom_type": "Cs"}, "9": {"label": "*0", "atom_type": "Cd"}, "10": {"label": "*1", "atom_type": "Cs"}, "15": {"label": "*2", "atom_type": "H0"}}

>  <type>  (7) 
unop_3

>  <geom_source>  (7) 
Heuristics

$$$$

     RDKit          3D

 20 18  0  0  0  0  0  0  0  0999 V2000
    1.0141   -2.1773    2.2064 C   0  0  0  0  0  0  0  0  0  0  0  0
    1.0942   -1.1780    1.5551 C   0  0  0  0  0  0  0  0  0  0  0  0
    1.1922    0.0449    0.7581 C   0  0  0  0  0  0  0  0  0  0  0  0
    0.5660    1.2044    1.3934 C   0  0  0  0  0  0  0  0  0  0  0  0
    0.0542    2.1520    1.9126 C   0  0  0  0  0  0  0  0  0  0  0  0
    0.9428   -3.0663    2.7858 H   0  0  0  0  0  0  0  0  0  0  0  0
    2.2461    0.2656    0.5670 H   0  0  0  0  0  0  0  0  0  0  0  0
   -0.4010    2.9949    2.3745 H   0  0  0  0  0  0  0  0  0  0  0  0
   -0.8925   -0.9966   -3.0498 C   0  0  0  0  0  0  0  0  0  0  0  0
   -0.8925   -0.9966   -1.7255 C   0  0  0  0  0  0  0  0  0  0  0  0
   -0.8925    0.2079   -0.8320 C   0  0  0  0  0  3  0  0  0  0  0  0
   -0.8925    1.5537   -1.5397 C   0  0  0  0  0  0  0  0  0  0  0  0
   -0.8925   -0.0797   -3.6273 H   0  0  0  0  0  0  0  0  0  0  0  0
   -0.8925   -1.9239   -3.6085 H   0  0  0  0  0  0  0  0  0  0  0  0
   -0.8925   -1.9523   -1.2073 H   0  0  0  0  0  0  0  0  0  0  0  0
    0.1508    0.1263   -0.0363 H   0  0  0  0  0  0  0  0  0  0  0  0
   -1.7619    0.1399   -0.1689 H   0  0  0  0  0  0  0  0  0  0  0  0
   -1.7749    1.6687   -2.1721 H   0  0  0  0  0  0  0  0  0  0  0  0
   -0.0100    1.6687   -2.1721 H   0  0  0  0  0  0  0  0  0  0  0  0
   -0.8925    2.3680   -0.8144 H   0  0  0  0  0  0  0  0  0  0  0  0
  1  2  3  0
  1  6  1  0
  2  3  1  0
  3  4  1  0
  3  7  1  0
  3 16  1  0
  4  5  3  0
  5  8  1  0
  9 10  2  3
  9 13  1  0
  9 14  1  0
 10 11  1  0
 10 15  1  0
 11 12  1  0
 11 17  1  0
 12 18  1  0
 12 19  1  0
 12 20  1  0
M  RAD  1  11   2
M  END
>  <reaction>  (8) 
rxn_1049

>  <mol_properties>  (8) 
{"1": {"label": "*4", "atom_type": "Ct"}, "2": {"label": "*3", "atom_type": "Cs"}, "9": {"label": "*0", "atom_type": "Cd"}, "10": {"label": "*1", "atom_type": "Cs"}, "15": {"label": "*2", "atom_type": "H0"}}

>  <type>  (8) 
unop_4

>  <geom_source>  (8) 
Heuristics

$$$$

     RDKit          3D

 20 18  0  0  0  0  0  0  0  0999 V2000
    0.6456    1.8404    2.7714 C   0  0  0  0  0  0  0  0  0  0  0  0
    0.6270    0.8877    2.0494 C   0  0  0  0  0  0  0  0  0  0  0  0
    0.6042   -0.2782    1.1659 C   0  0  0  0  0  0  0  0  0  0  0  0
    1.8154   -0.4184    0.3574 C   0  0  0  0  0  0  0  0  0  0  0  0
    2.8052   -0.5331   -0.3032 C   0  0  0  0  0  0  0  0  0  0  0  0
    0.6622    2.6879    3.4136 H   0  0  0  0  0  0  0  0  0  0  0  0
    0.4668   -1.1815    1.7667 H   0  0  0  0  0  0  0  0  0  0  0  0
    3.6857   -0.6350   -0.8909 H   0  0  0  0  0  0  0  0  0  0  0  0
   -1.4804   -1.3197   -2.6420 C   0  0  0  0  0  0  0  0  0  0  0  0
   -1.4804   -1.3197   -1.3176 C   0  0  0  0  0  0  0  0  0  0  0  0
   -1.4804   -0.1152   -0.4242 C   0  0  0  0  0  3  0  0  0  0  0  0
   -1.4804    1.2306   -1.1319 C   0  0  0  0  0  0  0  0  0  0  0  0
   -1.4804   -0.4028   -3.2194 H   0  0  0  0  0  0  0  0  0  0  0  0
   -1.4804   -2.2470   -3.2007 H   0  0  0  0  0  0  0  0  0  0  0  0
   -1.4804   -2.2754   -0.7994 H   0  0  0  0  0  0  0  0  0  0  0  0
   -0.4372   -0.1967    0.3716 H   0  0  0  0  0  0  0  0  0  0  0  0
   -2.3498   -0.1831    0.2390 H   0  0  0  0  0  0  0  0  0  0  0  0
   -2.3629    1.3456   -1.7643 H   0  0  0  0  0  0  0  0  0  0  0  0
   -0.5980    1.3456   -1.7643 H   0  0  0  0  0  0  0  0  0  0  0  0
   -1.4804    2.0450   -0.4066 H   0  0  0  0  0  0  0  0  0  0  0  0
  1  2  3  0
  1  6  1  0
  2  3  1  0
  3  4  1  0
  3  7  1  0
  3 16  1  0
  4  5  3  0
  5  8  1  0
  9 10  2  3
  9 13  1  0
  9 14  1  0
 10 11  1  0
 10 15  1  0
 11 12  1  0
 11 17  1  0
 12 18  1  0
 12 19  1  0
 12 20  1  0
M  RAD  1  11   2
M  END
>  <reaction>  (9) 
rxn_1049

>  <mol_properties>  (9) 
{"1": {"label": "*4", "atom_type": "Ct"}, "2": {"label": "*3", "atom_type": "Cs"}, "9": {"label": "*0", "atom_type": "Cd"}, "10": {"label": "*1", "atom_type": "Cs"}, "15": {"label": "*2", "atom_type": "H0"}}

>  <type>  (9) 
unop_5

>  <geom_source>  (9) 
Heuristics

$$$$

     RDKit          3D

 20 18  0  0  0  0  0  0  0  0999 V2000
    0.5032   -1.4899    3.0263 C   0  0  0  0  0  0  0  0  0  0  0  0
    0.8131   -0.9039    2.0314 C   0  0  0  0  0  0  0  0  0  0  0  0
    1.1923   -0.1867    0.8139 C   0  0  0  0  0  0  0  0  0  0  0  0
    0.8464    1.2345    0.8450 C   0  0  0  0  0  0  0  0  0  0  0  0
    0.5638    2.3958    0.8704 C   0  0  0  0  0  0  0  0  0  0  0  0
    0.2276   -2.0112    3.9113 H   0  0  0  0  0  0  0  0  0  0  0  0
    2.2694   -0.2909    0.6564 H   0  0  0  0  0  0  0  0  0  0  0  0
    0.3124    3.4289    0.8930 H   0  0  0  0  0  0  0  0  0  0  0  0
   -0.8924   -1.2282   -2.9940 C   0  0  0  0  0  0  0  0  0  0  0  0
   -0.8924   -1.2282   -1.6696 C   0  0  0  0  0  0  0  0  0  0  0  0
   -0.8924   -0.0237   -0.7762 C   0  0  0  0  0  3  0  0  0  0  0  0
   -0.8924    1.3220   -1.4839 C   0  0  0  0  0  0  0  0  0  0  0  0
   -0.8924   -0.3113   -3.5714 H   0  0  0  0  0  0  0  0  0  0  0  0
   -0.8924   -2.1556   -3.5526 H   0  0  0  0  0  0  0  0  0  0  0  0
   -0.8924   -2.1839   -1.1514 H   0  0  0  0  0  0  0  0  0  0  0  0
    0.1509   -0.1053    0.0196 H   0  0  0  0  0  0  0  0  0  0  0  0
   -1.7618   -0.0917   -0.1130 H   0  0  0  0  0  0  0  0  0  0  0  0
   -1.7749    1.4371   -2.1163 H   0  0  0  0  0  0  0  0  0  0  0  0
   -0.0100    1.4371   -2.1163 H   0  0  0  0  0  0  0  0  0  0  0  0
   -0.8924    2.1364   -0.7586 H   0  0  0  0  0  0  0  0  0  0  0  0
  1  2  3  0
  1  6  1  0
  2  3  1  0
  3  4  1  0
  3  7  1  0
  3 16  1  0
  4  5  3  0
  5  8  1  0
  9 10  2  3
  9 13  1  0
  9 14  1  0
 10 11  1  0
 10 15  1  0
 11 12  1  0
 11 17  1  0
 12 18  1  0
 12 19  1  0
 12 20  1  0
M  RAD  1  11   2
M  END
>  <reaction>  (10) 
rxn_1049

>  <mol_properties>  (10) 
{"1": {"label": "*4", "atom_type": "Ct"}, "2": {"label": "*3", "atom_type": "Cs"}, "9": {"label": "*0", "atom_type": "Cd"}, "10": {"label": "*1", "atom_type": "Cs"}, "15": {"label": "*2", "atom_type": "H0"}}

>  <type>  (10) 
unop_6

>  <geom_source>  (10) 
Heuristics

$$$$

     RDKit          3D

 20 18  0  0  0  0  0  0  0  0999 V2000
    0.2521   -0.4221    3.4644 C   0  0  0  0  0  0  0  0  0  0  0  0
    0.6252   -0.3999    2.3289 C   0  0  0  0  0  0  0  0  0  0  0  0
    1.0818   -0.3727    0.9392 C   0  0  0  0  0  0  0  0  0  0  0  0
    1.1778    0.9780    0.3854 C   0  0  0  0  0  0  0  0  0  0  0  0
    1.2563    2.0818   -0.0672 C   0  0  0  0  0  0  0  0  0  0  0  0
   -0.0798   -0.4419    4.4746 H   0  0  0  0  0  0  0  0  0  0  0  0
    2.0592   -0.8585    0.8727 H   0  0  0  0  0  0  0  0  0  0  0  0
    1.3262    3.0637   -0.4697 H   0  0  0  0  0  0  0  0  0  0  0  0
   -1.0029   -1.4142   -2.8687 C   0  0  0  0  0  0  0  0  0  0  0  0
   -1.0029   -1.4142   -1.5443 C   0  0  0  0  0  0  0  0  0  0  0  0
   -1.0029   -0.2097   -0.6509 C   0  0  0  0  0  3  0  0  0  0  0  0
   -1.0029    1.1361   -1.3586 C   0  0  0  0  0  0  0  0  0  0  0  0
   -1.0029   -0.4973   -3.4461 H   0  0  0  0  0  0  0  0  0  0  0  0
   -1.0029   -2.3415   -3.4274 H   0  0  0  0  0  0  0  0  0  0  0  0
   -1.0029   -2.3699   -1.0262 H   0  0  0  0  0  0  0  0  0  0  0  0
    0.0404   -0.2912    0.1449 H   0  0  0  0  0  0  0  0  0  0  0  0
   -1.8723   -0.2777    0.0122 H   0  0  0  0  0  0  0  0  0  0  0  0
   -1.8854    1.2511   -1.9910 H   0  0  0  0  0  0  0  0  0  0  0  0
   -0.1205    1.2511   -1.9910 H   0  0  0  0  0  0  0  0  0  0  0  0
   -1.0029    1.9504   -0.6333 H   0  0  0  0  0  0  0  0  0  0  0  0
  1  2  3  0
  1  6  1  0
  2  3  1  0
  3  4  1  0
  3  7  1  0
  3 16  1  0
  4  5  3  0
  5  8  1  0
  9 10  2  3
  9 13  1  0
  9 14  1  0
 10 11  1  0
 10 15  1  0
 11 12  1  0
 11 17  1  0
 12 18  1  0
 12 19  1  0
 12 20  1  0
M  RAD  1  11   2
M  END
>  <reaction>  (11) 
rxn_1049

>  <mol_properties>  (11) 
{"1": {"label": "*4", "atom_type": "Ct"}, "2": {"label": "*3", "atom_type": "Cs"}, "9": {"label": "*0", "atom_type": "Cd"}, "10": {"label": "*1", "atom_type": "Cs"}, "15": {"label": "*2", "atom_type": "H0"}}

>  <type>  (11) 
unop_7

>  <geom_source>  (11) 
Heuristics

$$$$

     RDKit          3D

 20 18  0  0  0  0  0  0  0  0999 V2000
    2.5951    1.2971   -0.0969 C   0  0  0  0  0  0  0  0  0  0  0  0
    1.6621    0.7598    0.4226 C   0  0  0  0  0  0  0  0  0  0  0  0
    0.5202    0.1022    1.0584 C   0  0  0  0  0  0  0  0  0  0  0  0
    0.9023   -0.8213    2.1267 C   0  0  0  0  0  0  0  0  0  0  0  0
    1.2145   -1.5760    2.9997 C   0  0  0  0  0  0  0  0  0  0  0  0
    3.4252    1.7750   -0.5591 H   0  0  0  0  0  0  0  0  0  0  0  0
   -0.1519    0.8632    1.4647 H   0  0  0  0  0  0  0  0  0  0  0  0
    1.4922   -2.2474    3.7763 H   0  0  0  0  0  0  0  0  0  0  0  0
   -1.5645   -0.9393   -2.7495 C   0  0  0  0  0  0  0  0  0  0  0  0
   -1.5645   -0.9393   -1.4252 C   0  0  0  0  0  0  0  0  0  0  0  0
   -1.5645    0.2652   -0.5317 C   0  0  0  0  0  3  0  0  0  0  0  0
   -1.5645    1.6110   -1.2394 C   0  0  0  0  0  0  0  0  0  0  0  0
   -1.5645   -0.0224   -3.3270 H   0  0  0  0  0  0  0  0  0  0  0  0
   -1.5645   -1.8666   -3.3082 H   0  0  0  0  0  0  0  0  0  0  0  0
   -1.5645   -1.8950   -0.9070 H   0  0  0  0  0  0  0  0  0  0  0  0
   -0.5212    0.1837    0.2640 H   0  0  0  0  0  0  0  0  0  0  0  0
   -2.4339    0.1973    0.1314 H   0  0  0  0  0  0  0  0  0  0  0  0
   -2.4469    1.7260   -1.8719 H   0  0  0  0  0  0  0  0  0  0  0  0
   -0.6820    1.7260   -1.8719 H   0  0  0  0  0  0  0  0  0  0  0  0
   -1.5645    2.4253   -0.5141 H   0  0  0  0  0  0  0  0  0  0  0  0
  1  2  3  0
  1  6  1  0
  2  3  1  0
  3  4  1  0
  3  7  1  0
  3 16  1  0
  4  5  3  0
  5  8  1  0
  9 10  2  3
  9 13  1  0
  9 14  1  0
 10 11  1  0
 10 15  1  0
 11 12  1  0
 11 17  1  0
 12 18  1  0
 12 19  1  0
 12 20  1  0
M  RAD  1  11   2
M  END
>  <reaction>  (12) 
rxn_1049

>  <mol_properties>  (12) 
{"1": {"label": "*4", "atom_type": "Ct"}, "2": {"label": "*3", "atom_type": "Cs"}, "9": {"label": "*0", "atom_type": "Cd"}, "10": {"label": "*1", "atom_type": "Cs"}, "15": {"label": "*2", "atom_type": "H0"}}

>  <type>  (12) 
unop_8

>  <geom_source>  (12) 
Heuristics

$$$$

     RDKit          3D

 20 18  0  0  0  0  0  0  0  0999 V2000
    1.6475   -2.3052    1.2156 C   0  0  0  0  0  0  0  0  0  0  0  0
    1.3928   -1.1538    1.0187 C   0  0  0  0  0  0  0  0  0  0  0  0
    1.0813    0.2552    0.7777 C   0  0  0  0  0  0  0  0  0  0  0  0
    0.4123    0.9035    1.9058 C   0  0  0  0  0  0  0  0  0  0  0  0
   -0.1343    1.4334    2.8275 C   0  0  0  0  0  0  0  0  0  0  0  0
    1.8740   -3.3294    1.3907 H   0  0  0  0  0  0  0  0  0  0  0  0
    2.0055    0.7937    0.5505 H   0  0  0  0  0  0  0  0  0  0  0  0
   -0.6206    1.9047    3.6475 H   0  0  0  0  0  0  0  0  0  0  0  0
   -1.0034   -0.7863   -3.0301 C   0  0  0  0  0  0  0  0  0  0  0  0
   -1.0034   -0.7863   -1.7058 C   0  0  0  0  0  0  0  0  0  0  0  0
   -1.0034    0.4181   -0.8123 C   0  0  0  0  0  3  0  0  0  0  0  0
   -1.0034    1.7639   -1.5200 C   0  0  0  0  0  0  0  0  0  0  0  0
   -1.0034    0.1306   -3.6076 H   0  0  0  0  0  0  0  0  0  0  0  0
   -1.0034   -1.7137   -3.5888 H   0  0  0  0  0  0  0  0  0  0  0  0
   -1.0034   -1.7421   -1.1876 H   0  0  0  0  0  0  0  0  0  0  0  0
    0.0399    0.3366   -0.0166 H   0  0  0  0  0  0  0  0  0  0  0  0
   -1.8728    0.3502   -0.1492 H   0  0  0  0  0  0  0  0  0  0  0  0
   -1.8859    1.8789   -2.1525 H   0  0  0  0  0  0  0  0  0  0  0  0
   -0.1210    1.8789   -2.1525 H   0  0  0  0  0  0  0  0  0  0  0  0
   -1.0034    2.5783   -0.7947 H   0  0  0  0  0  0  0  0  0  0  0  0
  1  2  3  0
  1  6  1  0
  2  3  1  0
  3  4  1  0
  3  7  1  0
  3 16  1  0
  4  5  3  0
  5  8  1  0
  9 10  2  3
  9 13  1  0
  9 14  1  0
 10 11  1  0
 10 15  1  0
 11 12  1  0
 11 17  1  0
 12 18  1  0
 12 19  1  0
 12 20  1  0
M  RAD  1  11   2
M  END
>  <reaction>  (13) 
rxn_1049

>  <mol_properties>  (13) 
{"1": {"label": "*4", "atom_type": "Ct"}, "2": {"label": "*3", "atom_type": "Cs"}, "9": {"label": "*0", "atom_type": "Cd"}, "10": {"label": "*1", "atom_type": "Cs"}, "15": {"label": "*2", "atom_type": "H0"}}

>  <type>  (13) 
unop_9

>  <geom_source>  (13) 
Heuristics

$$$$

     RDKit          3D

 20 18  0  0  0  0  0  0  0  0999 V2000
    2.7806    0.1687   -0.4262 C   0  0  0  0  0  0  0  0  0  0  0  0
    1.7843    0.1952    0.2340 C   0  0  0  0  0  0  0  0  0  0  0  0
    0.5650    0.2276    1.0419 C   0  0  0  0  0  0  0  0  0  0  0  0
    0.7127   -0.4242    2.3433 C   0  0  0  0  0  0  0  0  0  0  0  0
    0.8334   -0.9569    3.4068 C   0  0  0  0  0  0  0  0  0  0  0  0
    3.6669    0.1452   -1.0135 H   0  0  0  0  0  0  0  0  0  0  0  0
    0.2620    1.2674    1.1933 H   0  0  0  0  0  0  0  0  0  0  0  0
    0.9408   -1.4307    4.3528 H   0  0  0  0  0  0  0  0  0  0  0  0
   -1.5196   -0.8139   -2.7660 C   0  0  0  0  0  0  0  0  0  0  0  0
   -1.5196   -0.8139   -1.4416 C   0  0  0  0  0  0  0  0  0  0  0  0
   -1.5196    0.3906   -0.5482 C   0  0  0  0  0  3  0  0  0  0  0  0
   -1.5196    1.7363   -1.2559 C   0  0  0  0  0  0  0  0  0  0  0  0
   -1.5196    0.1030   -3.3434 H   0  0  0  0  0  0  0  0  0  0  0  0
   -1.5196   -1.7412   -3.3246 H   0  0  0  0  0  0  0  0  0  0  0  0
   -1.5196   -1.7696   -0.9234 H   0  0  0  0  0  0  0  0  0  0  0  0
   -0.4764    0.3090    0.2476 H   0  0  0  0  0  0  0  0  0  0  0  0
   -2.3890    0.3226    0.1150 H   0  0  0  0  0  0  0  0  0  0  0  0
   -2.4021    1.8514   -1.8883 H   0  0  0  0  0  0  0  0  0  0  0  0
   -0.6372    1.8514   -1.8883 H   0  0  0  0  0  0  0  0  0  0  0  0
   -1.5196    2.5507   -0.5306 H   0  0  0  0  0  0  0  0  0  0  0  0
  1  2  3  0
  1  6  1  0
  2  3  1  0
  3  4  1  0
  3  7  1  0
  3 16  1  0
  4  5  3  0
  5  8  1  0
  9 10  2  3
  9 13  1  0
  9 14  1  0
 10 11  1  0
 10 15  1  0
 11 12  1  0
 11 17  1  0
 12 18  1  0
 12 19  1  0
 12 20  1  0
M  RAD  1  11   2
M  END
>  <reaction>  (14) 
rxn_1049

>  <mol_properties>  (14) 
{"1": {"label": "*4", "atom_type": "Ct"}, "2": {"label": "*3", "atom_type": "Cs"}, "9": {"label": "*0", "atom_type": "Cd"}, "10": {"label": "*1", "atom_type": "Cs"}, "15": {"label": "*2", "atom_type": "H0"}}

>  <type>  (14) 
unop_10

>  <geom_source>  (14) 
Heuristics

$$$$

     RDKit          3D

 20 18  0  0  0  0  0  0  0  0999 V2000
    0.2992    0.7698    3.4013 C   0  0  0  0  0  0  0  0  0  0  0  0
    0.5520    0.2289    2.3656 C   0  0  0  0  0  0  0  0  0  0  0  0
    0.8615   -0.4331    1.0982 C   0  0  0  0  0  0  0  0  0  0  0  0
    1.5415    0.4372    0.1388 C   0  0  0  0  0  0  0  0  0  0  0  0
    2.0972    1.1483   -0.6452 C   0  0  0  0  0  0  0  0  0  0  0  0
    0.0742    1.2511    4.3226 H   0  0  0  0  0  0  0  0  0  0  0  0
    1.4859   -1.3094    1.2937 H   0  0  0  0  0  0  0  0  0  0  0  0
    2.5916    1.7810   -1.3426 H   0  0  0  0  0  0  0  0  0  0  0  0
   -1.2232   -1.4746   -2.7097 C   0  0  0  0  0  0  0  0  0  0  0  0
   -1.2232   -1.4746   -1.3854 C   0  0  0  0  0  0  0  0  0  0  0  0
   -1.2232   -0.2701   -0.4919 C   0  0  0  0  0  3  0  0  0  0  0  0
   -1.2232    1.0756   -1.1996 C   0  0  0  0  0  0  0  0  0  0  0  0
   -1.2232   -0.5577   -3.2871 H   0  0  0  0  0  0  0  0  0  0  0  0
   -1.2232   -2.4020   -3.2684 H   0  0  0  0  0  0  0  0  0  0  0  0
   -1.2232   -2.4304   -0.8672 H   0  0  0  0  0  0  0  0  0  0  0  0
   -0.1799   -0.3517    0.3039 H   0  0  0  0  0  0  0  0  0  0  0  0
   -2.0926   -0.3381    0.1712 H   0  0  0  0  0  0  0  0  0  0  0  0
   -2.1057    1.1906   -1.8320 H   0  0  0  0  0  0  0  0  0  0  0  0
   -0.3408    1.1906   -1.8320 H   0  0  0  0  0  0  0  0  0  0  0  0
   -1.2232    1.8900   -0.4743 H   0  0  0  0  0  0  0  0  0  0  0  0
  1  2  3  0
  1  6  1  0
  2  3  1  0
  3  4  1  0
  3  7  1  0
  3 16  1  0
  4  5  3  0
  5  8  1  0
  9 10  2  3
  9 13  1  0
  9 14  1  0
 10 11  1  0
 10 15  1  0
 11 12  1  0
 11 17  1  0
 12 18  1  0
 12 19  1  0
 12 20  1  0
M  RAD  1  11   2
M  END
>  <reaction>  (15) 
rxn_1049

>  <mol_properties>  (15) 
{"1": {"label": "*4", "atom_type": "Ct"}, "2": {"label": "*3", "atom_type": "Cs"}, "9": {"label": "*0", "atom_type": "Cd"}, "10": {"label": "*1", "atom_type": "Cs"}, "15": {"label": "*2", "atom_type": "H0"}}

>  <type>  (15) 
unop_11

>  <geom_source>  (15) 
Heuristics

$$$$

     RDKit          3D

 20 18  0  0  0  0  0  0  0  0999 V2000
    2.2301   -1.8572    0.3150 C   0  0  0  0  0  0  0  0  0  0  0  0
    1.6255   -0.8557    0.5616 C   0  0  0  0  0  0  0  0  0  0  0  0
    0.8856    0.3698    0.8634 C   0  0  0  0  0  0  0  0  0  0  0  0
    0.4371    0.4504    2.2536 C   0  0  0  0  0  0  0  0  0  0  0  0
    0.0705    0.5163    3.3896 C   0  0  0  0  0  0  0  0  0  0  0  0
    2.7680   -2.7480    0.0957 H   0  0  0  0  0  0  0  0  0  0  0  0
    1.5161    1.2346    0.6387 H   0  0  0  0  0  0  0  0  0  0  0  0
   -0.2555    0.5749    4.4002 H   0  0  0  0  0  0  0  0  0  0  0  0
   -1.1991   -0.6718   -2.9445 C   0  0  0  0  0  0  0  0  0  0  0  0
   -1.1991   -0.6718   -1.6201 C   0  0  0  0  0  0  0  0  0  0  0  0
   -1.1991    0.5327   -0.7267 C   0  0  0  0  0  3  0  0  0  0  0  0
   -1.1990    1.8785   -1.4344 C   0  0  0  0  0  0  0  0  0  0  0  0
   -1.1990    0.2452   -3.5219 H   0  0  0  0  0  0  0  0  0  0  0  0
   -1.1990   -1.5991   -3.5032 H   0  0  0  0  0  0  0  0  0  0  0  0
   -1.1991   -1.6275   -1.1020 H   0  0  0  0  0  0  0  0  0  0  0  0
   -0.1558    0.4512    0.0691 H   0  0  0  0  0  0  0  0  0  0  0  0
   -2.0684    0.4648   -0.0636 H   0  0  0  0  0  0  0  0  0  0  0  0
   -2.0815    1.9935   -2.0668 H   0  0  0  0  0  0  0  0  0  0  0  0
   -0.3166    1.9935   -2.0668 H   0  0  0  0  0  0  0  0  0  0  0  0
   -1.1990    2.6929   -0.7091 H   0  0  0  0  0  0  0  0  0  0  0  0
  1  2  3  0
  1  6  1  0
  2  3  1  0
  3  4  1  0
  3  7  1  0
  3 16  1  0
  4  5  3  0
  5  8  1  0
  9 10  2  3
  9 13  1  0
  9 14  1  0
 10 11  1  0
 10 15  1  0
 11 12  1  0
 11 17  1  0
 12 18  1  0
 12 19  1  0
 12 20  1  0
M  RAD  1  11   2
M  END
>  <reaction>  (16) 
rxn_1049

>  <mol_properties>  (16) 
{"1": {"label": "*4", "atom_type": "Ct"}, "2": {"label": "*3", "atom_type": "Cs"}, "9": {"label": "*0", "atom_type": "Cd"}, "10": {"label": "*1", "atom_type": "Cs"}, "15": {"label": "*2", "atom_type": "H0"}}

>  <type>  (16) 
unop_12

>  <geom_source>  (16) 
Heuristics

$$$$

     RDKit          3D

 20 18  0  0  0  0  0  0  0  0999 V2000
    1.5588   -0.1530   -0.5200 C   0  0  0  0  0  0  0  0  0  0  0  0
   -1.5549    0.2828    1.5982 C   0  0  0  0  0  0  0  0  0  0  0  0
   -0.9516   -0.2034    0.2861 C   0  0  0  0  0  3  0  0  0  0  0  0
   -1.6268    0.4133   -0.9044 C   0  0  0  0  0  0  0  0  0  0  0  0
   -2.8694    0.0769   -1.2618 C   0  0  0  0  0  0  0  0  0  0  0  0
    2.4176   -1.3324   -0.3966 C   0  0  0  0  0  0  0  0  0  0  0  0
    2.2383    1.0145    0.0450 C   0  0  0  0  0  0  0  0  0  0  0  0
    3.1232   -2.3048   -0.2958 C   0  0  0  0  0  0  0  0  0  0  0  0
    2.7960    1.9770    0.5101 C   0  0  0  0  0  0  0  0  0  0  0  0
    1.3364    0.0316   -1.5912 H   0  0  0  0  0  0  0  0  0  0  0  0
    0.4163   -0.3645    0.1403 H   0  0  0  0  0  0  0  0  0  0  0  0
   -1.4985    1.3904    1.6569 H   0  0  0  0  0  0  0  0  0  0  0  0
   -2.6144   -0.0395    1.6833 H   0  0  0  0  0  0  0  0  0  0  0  0
   -0.9817   -0.1471    2.4456 H   0  0  0  0  0  0  0  0  0  0  0  0
   -0.9823   -1.3128    0.2246 H   0  0  0  0  0  0  0  0  0  0  0  0
   -1.0737    1.1285   -1.5046 H   0  0  0  0  0  0  0  0  0  0  0  0
   -3.4375   -0.6511   -0.6906 H   0  0  0  0  0  0  0  0  0  0  0  0
   -3.3242    0.5304   -2.1364 H   0  0  0  0  0  0  0  0  0  0  0  0
    3.7427   -3.1583   -0.2071 H   0  0  0  0  0  0  0  0  0  0  0  0
    3.2857    2.8217    0.9183 H   0  0  0  0  0  0  0  0  0  0  0  0
  1  6  1  0
  1  7  1  0
  1 10  1  0
  1 11  1  0
  2  3  1  0
  2 12  1  0
  2 13  1  0
  2 14  1  0
  3  4  1  0
  3 15  1  0
  4  5  2  3
  4 16  1  0
  5 17  1  0
  5 18  1  0
  6  8  3  0
  7  9  3  0
  8 19  1  0
  9 20  1  0
M  RAD  1   3   2
M  END
>  <reaction>  (17) 
rxn_1049

>  <mol_properties>  (17) 
{"1": {"label": "*4", "atom_type": "Ct"}, "2": {"label": "*3", "atom_type": "Cs"}, "9": {"label": "*0", "atom_type": "Cd"}, "10": {"label": "*1", "atom_type": "Cs"}, "15": {"label": "*2", "atom_type": "H0"}}

>  <type>  (17) 
unop_13

>  <geom_source>  (17) 
AutoTST

$$$$
