
     RDKit          3D

 25 26  0  0  0  0  0  0  0  0999 V2000
    2.0298   -1.1515    0.0571 C   0  0  0  0  0  0  0  0  0  0  0  0
    2.2278    0.2445    0.6528 C   0  0  0  0  0  0  0  0  0  0  0  0
    1.2292    1.2625    0.0947 C   0  0  0  0  0  0  0  0  0  0  0  0
   -0.1869    0.7454    0.2762 C   0  0  0  0  0  0  0  0  0  0  0  0
   -1.3415    1.5501   -0.3122 C   0  0  0  0  0  0  0  0  0  0  0  0
   -2.5060    0.5338   -0.4178 C   0  0  0  0  0  0  0  0  0  0  0  0
   -1.8709   -0.8658   -0.2234 C   0  0  0  0  0  0  0  0  0  0  0  0
   -0.3715   -0.6265   -0.3693 C   0  0  0  0  0  0  0  0  0  0  0  0
    0.5898   -1.6500    0.2086 C   0  0  0  0  0  0  0  0  0  0  0  0
    2.2820   -1.1226   -1.0088 H   0  0  0  0  0  0  0  0  0  0  0  0
    2.7243   -1.8549    0.5221 H   0  0  0  0  0  0  0  0  0  0  0  0
    2.1030    0.1885    1.7400 H   0  0  0  0  0  0  0  0  0  0  0  0
    3.2514    0.5819    0.4743 H   0  0  0  0  0  0  0  0  0  0  0  0
    1.3611    2.2304    0.5855 H   0  0  0  0  0  0  0  0  0  0  0  0
    1.4198    1.4194   -0.9737 H   0  0  0  0  0  0  0  0  0  0  0  0
   -0.3675    0.6209    1.3539 H   0  0  0  0  0  0  0  0  0  0  0  0
   -1.5992    2.4249    0.2862 H   0  0  0  0  0  0  0  0  0  0  0  0
   -1.0595    1.9116   -1.3055 H   0  0  0  0  0  0  0  0  0  0  0  0
   -3.2666    0.7244    0.3399 H   0  0  0  0  0  0  0  0  0  0  0  0
   -3.0030    0.6112   -1.3853 H   0  0  0  0  0  0  0  0  0  0  0  0
   -2.2549   -1.6039   -0.9288 H   0  0  0  0  0  0  0  0  0  0  0  0
   -2.0796   -1.2429    0.7821 H   0  0  0  0  0  0  0  0  0  0  0  0
   -0.1432   -0.5121   -1.4391 H   0  0  0  0  0  0  0  0  0  0  0  0
    0.4720   -2.6209   -0.2799 H   0  0  0  0  0  0  0  0  0  0  0  0
    0.3601   -1.7986    1.2704 H   0  0  0  0  0  0  0  0  0  0  0  0
  1  2  1  0
  1  9  1  0
  1 10  1  0
  1 11  1  0
  2  3  1  0
  2 12  1  0
  2 13  1  0
  3  4  1  0
  3 14  1  0
  3 15  1  0
  4  5  1  0
  4  8  1  0
  4 16  1  0
  5  6  1  0
  5 17  1  0
  5 18  1  0
  6  7  1  0
  6 19  1  0
  6 20  1  0
  7  8  1  0
  7 21  1  0
  7 22  1  0
  8  9  1  0
  8 23  1  0
  9 24  1  0
  9 25  1  0
M  END
>  <reaction>  (1) 
rxn_618

>  <mol_properties>  (1) 
{"5": {"label": "donator", "atom_type": "Cs"}, "18": {"label": "d_hydrogen", "atom_type": "H0"}}

>  <type>  (1) 
r1h

$$$$

     RDKit          3D

  9  8  0  0  0  0  0  0  0  0999 V2000
    1.8963   -0.1405   -0.2150 C   0  0  0  0  0  0  0  0  0  0  0  0
    0.6340    0.1486   -0.2254 C   0  0  0  0  0  3  0  0  0  0  0  0
   -0.6770    0.4501   -0.2373 C   0  0  0  0  0  0  0  0  0  0  0  0
   -1.6600   -0.2303    0.4662 C   0  0  0  0  0  0  0  0  0  0  0  0
    2.3274   -0.8354   -0.9313 H   0  0  0  0  0  0  0  0  0  0  0  0
    2.5751    0.2988    0.5117 H   0  0  0  0  0  0  0  0  0  0  0  0
   -0.9723    1.2966   -0.8520 H   0  0  0  0  0  0  0  0  0  0  0  0
   -2.6934    0.0777    0.4015 H   0  0  0  0  0  0  0  0  0  0  0  0
   -1.4140   -1.0782    1.0904 H   0  0  0  0  0  0  0  0  0  0  0  0
  1  2  2  3
  1  5  1  0
  1  6  1  0
  2  3  1  0
  3  4  2  3
  3  7  1  0
  4  8  1  0
  4  9  1  0
M  RAD  1   2   2
M  END
>  <reaction>  (2) 
rxn_618

>  <mol_properties>  (2) 
{"1": {"label": "acceptor", "atom_type": "Cd"}}

>  <type>  (2) 
r2

$$$$

     RDKit          3D

 10  9  0  0  0  0  0  0  0  0999 V2000
    1.8334    0.0847   -0.1062 C   0  0  0  0  0  0  0  0  0  0  0  0
    0.5993   -0.4071   -0.0750 C   0  0  0  0  0  0  0  0  0  0  0  0
   -0.5993    0.4071    0.0750 C   0  0  0  0  0  0  0  0  0  0  0  0
   -1.8334   -0.0847    0.1062 C   0  0  0  0  0  0  0  0  0  0  0  0
    2.0179    1.1498   -0.0189 H   0  0  0  0  0  0  0  0  0  0  0  0
    2.6972   -0.5572   -0.2194 H   0  0  0  0  0  0  0  0  0  0  0  0
    0.4465   -1.4793   -0.1649 H   0  0  0  0  0  0  0  0  0  0  0  0
   -0.4465    1.4793    0.1649 H   0  0  0  0  0  0  0  0  0  0  0  0
   -2.0179   -1.1498    0.0189 H   0  0  0  0  0  0  0  0  0  0  0  0
   -2.6972    0.5572    0.2194 H   0  0  0  0  0  0  0  0  0  0  0  0
  1  2  2  3
  1  5  1  0
  1  6  1  0
  2  3  1  0
  2  7  1  0
  3  4  2  3
  3  8  1  0
  4  9  1  0
  4 10  1  0
M  END
>  <reaction>  (3) 
rxn_618

>  <mol_properties>  (3) 
{"1": {"label": "acceptor", "atom_type": "Cd"}, "9": {"label": "a_hydrogen", "atom_type": "H0"}}

>  <type>  (3) 
r2h

$$$$

     RDKit          3D

 34 34  0  0  0  0  0  0  0  0999 V2000
   -0.8497    2.4677    1.8216 C   0  0  0  0  0  0  0  0  0  0  0  0
   -0.0846    2.6920    0.7703 C   0  0  0  0  0  3  0  0  0  0  0  0
   -0.0385    3.8421   -0.1049 C   0  0  0  0  0  0  0  0  0  0  0  0
    0.7622    3.9507   -1.1608 C   0  0  0  0  0  0  0  0  0  0  0  0
   -0.7873    1.5450    2.3877 H   0  0  0  0  0  0  0  0  0  0  0  0
   -1.5778    3.2021    2.1640 H   0  0  0  0  0  0  0  0  0  0  0  0
   -0.7189    4.6592    0.1368 H   0  0  0  0  0  0  0  0  0  0  0  0
    0.7537    4.8339   -1.7859 H   0  0  0  0  0  0  0  0  0  0  0  0
    1.4484    3.1563   -1.4297 H   0  0  0  0  0  0  0  0  0  0  0  0
   -1.2296   -3.1867   -1.0640 C   0  0  0  0  0  0  0  0  0  0  0  0
   -1.4806   -3.1224    0.4448 C   0  0  0  0  0  0  0  0  0  0  0  0
   -0.2984   -2.5183    1.2086 C   0  0  0  0  0  0  0  0  0  0  0  0
    0.0516   -1.1658    0.6159 C   0  0  1  0  0  0  0  0  0  0  0  0
    1.2667   -0.4113    1.1426 C   0  0  0  0  0  0  0  0  0  0  0  0
    1.5005    0.6427    0.0648 C   0  0  0  0  0  0  0  0  0  0  0  0
    0.8769    0.1221   -1.2370 C   0  0  0  0  0  0  0  0  0  0  0  0
    0.3570   -1.2732   -0.8783 C   0  0  2  0  0  0  0  0  0  0  0  0
   -0.8278   -1.8292   -1.6482 C   0  0  0  0  0  0  0  0  0  0  0  0
   -0.4265   -3.9057   -1.2608 H   0  0  0  0  0  0  0  0  0  0  0  0
   -2.1191   -3.5678   -1.5709 H   0  0  0  0  0  0  0  0  0  0  0  0
   -2.3691   -2.5093    0.6319 H   0  0  0  0  0  0  0  0  0  0  0  0
   -1.7059   -4.1212    0.8254 H   0  0  0  0  0  0  0  0  0  0  0  0
   -0.5392   -2.4327    2.2715 H   0  0  0  0  0  0  0  0  0  0  0  0
    0.5708   -3.1822    1.1315 H   0  0  0  0  0  0  0  0  0  0  0  0
   -0.8224   -0.5070    0.7229 H   0  0  0  0  0  0  0  0  0  0  0  0
    1.1209    0.0238    2.1338 H   0  0  0  0  0  0  0  0  0  0  0  0
    2.1243   -1.0911    1.2130 H   0  0  0  0  0  0  0  0  0  0  0  0
    0.8196    1.6468    0.4094 H   0  0  0  0  0  0  0  0  0  0  0  0
    2.5167    1.0262   -0.0074 H   0  0  0  0  0  0  0  0  0  0  0  0
    1.5864    0.1042   -2.0660 H   0  0  0  0  0  0  0  0  0  0  0  0
    0.0446    0.7652   -1.5444 H   0  0  0  0  0  0  0  0  0  0  0  0
    1.1894   -1.9836   -0.9813 H   0  0  0  0  0  0  0  0  0  0  0  0
   -0.5948   -1.9294   -2.7116 H   0  0  0  0  0  0  0  0  0  0  0  0
   -1.6668   -1.1280   -1.5707 H   0  0  0  0  0  0  0  0  0  0  0  0
  1  2  2  3
  1  5  1  0
  1  6  1  0
  2  3  1  0
  3  4  2  3
  3  7  1  0
  4  8  1  0
  4  9  1  0
 10 11  1  0
 10 18  1  0
 10 19  1  0
 10 20  1  0
 11 12  1  0
 11 21  1  0
 11 22  1  0
 12 13  1  0
 12 23  1  0
 12 24  1  0
 13 14  1  0
 13 17  1  0
 13 25  1  6
 14 15  1  0
 14 26  1  0
 14 27  1  0
 15 16  1  0
 15 28  1  0
 15 29  1  0
 16 17  1  0
 16 30  1  0
 16 31  1  0
 17 18  1  0
 17 32  1  1
 18 33  1  0
 18 34  1  0
M  RAD  1   2   2
M  END
>  <reaction>  (4) 
rxn_618

>  <mol_properties>  (4) 
{"1": {"label": "*3", "atom_type": "Cd"}, "2": {"label": "*4", "atom_type": "Cd"}, "13": {"label": "*0", "atom_type": "Cs"}, "14": {"label": "*1", "atom_type": "Cs"}, "27": {"label": "*2", "atom_type": "H0"}}

>  <type>  (4) 
ts

$$$$

     RDKit          3D

 34 34  0  0  0  0  0  0  0  0999 V2000
   -1.2979    3.0147    0.3378 C   0  0  0  0  0  0  0  0  0  0  0  0
   -0.0031    3.0031    0.6366 C   0  0  0  0  0  0  0  0  0  0  0  0
    0.8647    4.1698    0.5474 C   0  0  0  0  0  0  0  0  0  0  0  0
    2.1595    4.1583    0.8462 C   0  0  0  0  0  0  0  0  0  0  0  0
   -1.9065    2.1236    0.4183 H   0  0  0  0  0  0  0  0  0  0  0  0
   -1.7906    3.9205    0.0020 H   0  0  0  0  0  0  0  0  0  0  0  0
    0.3993    5.0933    0.2134 H   0  0  0  0  0  0  0  0  0  0  0  0
    2.7682    5.0493    0.7657 H   0  0  0  0  0  0  0  0  0  0  0  0
    2.6522    3.2524    1.1820 H   0  0  0  0  0  0  0  0  0  0  0  0
   -1.1894   -3.5293   -1.0158 C   0  0  0  0  0  0  0  0  0  0  0  0
   -1.1894   -3.5293    0.5148 C   0  0  0  0  0  0  0  0  0  0  0  0
   -0.0463   -2.6929    1.0968 C   0  0  0  0  0  0  0  0  0  0  0  0
   -0.0859   -1.2919    0.5127 C   0  0  0  0  0  0  0  0  0  0  0  0
    1.0332   -0.3181    0.8681 C   0  0  0  0  0  0  0  0  0  0  0  0
    0.9832    0.7524   -0.2505 C   0  0  0  0  0  3  0  0  0  0  0  0
    0.0897    0.1606   -1.3691 C   0  0  0  0  0  0  0  0  0  0  0  0
   -0.0353   -1.3175   -1.0137 C   0  0  0  0  0  0  0  0  0  0  0  0
   -1.1894   -2.1129   -1.5978 C   0  0  0  0  0  0  0  0  0  0  0  0
   -0.2969   -4.0561   -1.3717 H   0  0  0  0  0  0  0  0  0  0  0  0
   -2.0503   -4.0904   -1.3865 H   0  0  0  0  0  0  0  0  0  0  0  0
   -2.1415   -3.1201    0.8707 H   0  0  0  0  0  0  0  0  0  0  0  0
   -1.1339   -4.5554    0.8855 H   0  0  0  0  0  0  0  0  0  0  0  0
   -0.1135   -2.6669    2.1876 H   0  0  0  0  0  0  0  0  0  0  0  0
    0.9153   -3.1580    0.8488 H   0  0  0  0  0  0  0  0  0  0  0  0
   -1.0447   -0.8331    0.7952 H   0  0  0  0  0  0  0  0  0  0  0  0
    0.9243    0.1098    1.8656 H   0  0  0  0  0  0  0  0  0  0  0  0
    1.9908   -0.8467    0.8477 H   0  0  0  0  0  0  0  0  0  0  0  0
    0.4892    1.8797    0.1938 H   0  0  0  0  0  0  0  0  0  0  0  0
    1.9844    0.9749   -0.6208 H   0  0  0  0  0  0  0  0  0  0  0  0
    0.4994    0.3255   -2.3665 H   0  0  0  0  0  0  0  0  0  0  0  0
   -0.9023    0.6213   -1.3487 H   0  0  0  0  0  0  0  0  0  0  0  0
    0.9011   -1.8204   -1.2962 H   0  0  0  0  0  0  0  0  0  0  0  0
   -1.1287   -2.1518   -2.6886 H   0  0  0  0  0  0  0  0  0  0  0  0
   -2.1325   -1.6115   -1.3497 H   0  0  0  0  0  0  0  0  0  0  0  0
  1  2  2  3
  1  5  1  0
  1  6  1  0
  2  3  1  0
  2 28  1  0
  3  4  2  3
  3  7  1  0
  4  8  1  0
  4  9  1  0
 10 11  1  0
 10 18  1  0
 10 19  1  0
 10 20  1  0
 11 12  1  0
 11 21  1  0
 11 22  1  0
 12 13  1  0
 12 23  1  0
 12 24  1  0
 13 14  1  0
 13 17  1  0
 13 25  1  0
 14 15  1  0
 14 26  1  0
 14 27  1  0
 15 16  1  0
 15 29  1  0
 16 17  1  0
 16 30  1  0
 16 31  1  0
 17 18  1  0
 17 32  1  0
 18 33  1  0
 18 34  1  0
M  RAD  1  15   2
M  END
>  <reaction>  (5) 
rxn_618

>  <mol_properties>  (5) 
{"1": {"label": "*3", "atom_type": "Cd"}, "2": {"label": "*4", "atom_type": "Cd"}, "13": {"label": "*0", "atom_type": "Cs"}, "14": {"label": "*1", "atom_type": "Cs"}, "27": {"label": "*2", "atom_type": "H0"}}

>  <type>  (5) 
unop_1

>  <geom_source>  (5) 
Heuristics

$$$$

     RDKit          3D

 34 34  0  0  0  0  0  0  0  0999 V2000
   -0.2600    4.0435   -0.4990 C   0  0  0  0  0  0  0  0  0  0  0  0
    0.0925    3.1352    0.4046 C   0  0  0  0  0  0  0  0  0  0  0  0
    0.3212    3.4318    1.8125 C   0  0  0  0  0  0  0  0  0  0  0  0
    0.6738    2.5235    2.7162 C   0  0  0  0  0  0  0  0  0  0  0  0
   -0.4200    3.7794   -1.5361 H   0  0  0  0  0  0  0  0  0  0  0  0
   -0.3999    5.0840   -0.2272 H   0  0  0  0  0  0  0  0  0  0  0  0
    0.1886    4.4669    2.1155 H   0  0  0  0  0  0  0  0  0  0  0  0
    0.8337    2.7875    3.7533 H   0  0  0  0  0  0  0  0  0  0  0  0
    0.8137    1.4830    2.4443 H   0  0  0  0  0  0  0  0  0  0  0  0
   -1.0938   -3.3972   -1.2478 C   0  0  0  0  0  0  0  0  0  0  0  0
   -1.0938   -3.3972    0.2828 C   0  0  0  0  0  0  0  0  0  0  0  0
    0.0493   -2.5608    0.8648 C   0  0  0  0  0  0  0  0  0  0  0  0
    0.0097   -1.1598    0.2807 C   0  0  0  0  0  0  0  0  0  0  0  0
    1.1288   -0.1860    0.6362 C   0  0  0  0  0  0  0  0  0  0  0  0
    1.0788    0.8845   -0.4825 C   0  0  0  0  0  3  0  0  0  0  0  0
    0.1853    0.2927   -1.6011 C   0  0  0  0  0  0  0  0  0  0  0  0
    0.0602   -1.1855   -1.2457 C   0  0  0  0  0  0  0  0  0  0  0  0
   -1.0938   -1.9808   -1.8298 C   0  0  0  0  0  0  0  0  0  0  0  0
   -0.2014   -3.9240   -1.6037 H   0  0  0  0  0  0  0  0  0  0  0  0
   -1.9547   -3.9583   -1.6185 H   0  0  0  0  0  0  0  0  0  0  0  0
   -2.0459   -2.9880    0.6387 H   0  0  0  0  0  0  0  0  0  0  0  0
   -1.0383   -4.4233    0.6535 H   0  0  0  0  0  0  0  0  0  0  0  0
   -0.0179   -2.5349    1.9557 H   0  0  0  0  0  0  0  0  0  0  0  0
    1.0109   -3.0259    0.6168 H   0  0  0  0  0  0  0  0  0  0  0  0
   -0.9491   -0.7010    0.5632 H   0  0  0  0  0  0  0  0  0  0  0  0
    1.0199    0.2419    1.6336 H   0  0  0  0  0  0  0  0  0  0  0  0
    2.0864   -0.7146    0.6157 H   0  0  0  0  0  0  0  0  0  0  0  0
    0.5848    2.0118   -0.0382 H   0  0  0  0  0  0  0  0  0  0  0  0
    2.0800    1.1070   -0.8527 H   0  0  0  0  0  0  0  0  0  0  0  0
    0.5950    0.4575   -2.5985 H   0  0  0  0  0  0  0  0  0  0  0  0
   -0.8067    0.7534   -1.5807 H   0  0  0  0  0  0  0  0  0  0  0  0
    0.9967   -1.6883   -1.5282 H   0  0  0  0  0  0  0  0  0  0  0  0
   -1.0331   -2.0197   -2.9206 H   0  0  0  0  0  0  0  0  0  0  0  0
   -2.0370   -1.4794   -1.5817 H   0  0  0  0  0  0  0  0  0  0  0  0
  1  2  2  3
  1  5  1  0
  1  6  1  0
  2  3  1  0
  2 28  1  0
  3  4  2  3
  3  7  1  0
  4  8  1  0
  4  9  1  0
 10 11  1  0
 10 18  1  0
 10 19  1  0
 10 20  1  0
 11 12  1  0
 11 21  1  0
 11 22  1  0
 12 13  1  0
 12 23  1  0
 12 24  1  0
 13 14  1  0
 13 17  1  0
 13 25  1  0
 14 15  1  0
 14 26  1  0
 14 27  1  0
 15 16  1  0
 15 29  1  0
 16 17  1  0
 16 30  1  0
 16 31  1  0
 17 18  1  0
 17 32  1  0
 18 33  1  0
 18 34  1  0
M  RAD  1  15   2
M  END
>  <reaction>  (6) 
rxn_618

>  <mol_properties>  (6) 
{"1": {"label": "*3", "atom_type": "Cd"}, "2": {"label": "*4", "atom_type": "Cd"}, "13": {"label": "*0", "atom_type": "Cs"}, "14": {"label": "*1", "atom_type": "Cs"}, "27": {"label": "*2", "atom_type": "H0"}}

>  <type>  (6) 
unop_2

>  <geom_source>  (6) 
Heuristics

$$$$

     RDKit          3D

 34 34  0  0  0  0  0  0  0  0999 V2000
   -1.1711    2.8485    1.2049 C   0  0  0  0  0  0  0  0  0  0  0  0
    0.0571    2.9962    0.7194 C   0  0  0  0  0  0  0  0  0  0  0  0
    0.5394    4.2119    0.0776 C   0  0  0  0  0  0  0  0  0  0  0  0
    1.7676    4.3595   -0.4079 C   0  0  0  0  0  0  0  0  0  0  0  0
   -1.4882    1.9268    1.6747 H   0  0  0  0  0  0  0  0  0  0  0  0
   -1.9000    3.6493    1.1467 H   0  0  0  0  0  0  0  0  0  0  0  0
   -0.1689    5.0327    0.0043 H   0  0  0  0  0  0  0  0  0  0  0  0
    2.0847    5.2813   -0.8777 H   0  0  0  0  0  0  0  0  0  0  0  0
    2.4965    3.5587   -0.3497 H   0  0  0  0  0  0  0  0  0  0  0  0
   -1.1292   -3.5362   -0.9330 C   0  0  0  0  0  0  0  0  0  0  0  0
   -1.1292   -3.5362    0.5976 C   0  0  0  0  0  0  0  0  0  0  0  0
    0.0139   -2.6998    1.1796 C   0  0  0  0  0  0  0  0  0  0  0  0
   -0.0257   -1.2988    0.5955 C   0  0  0  0  0  0  0  0  0  0  0  0
    1.0934   -0.3250    0.9509 C   0  0  0  0  0  0  0  0  0  0  0  0
    1.0434    0.7456   -0.1677 C   0  0  0  0  0  3  0  0  0  0  0  0
    0.1499    0.1537   -1.2863 C   0  0  0  0  0  0  0  0  0  0  0  0
    0.0248   -1.3244   -0.9309 C   0  0  0  0  0  0  0  0  0  0  0  0
   -1.1292   -2.1197   -1.5150 C   0  0  0  0  0  0  0  0  0  0  0  0
   -0.2368   -4.0630   -1.2889 H   0  0  0  0  0  0  0  0  0  0  0  0
   -1.9901   -4.0972   -1.3037 H   0  0  0  0  0  0  0  0  0  0  0  0
   -2.0813   -3.1270    0.9535 H   0  0  0  0  0  0  0  0  0  0  0  0
   -1.0737   -4.5622    0.9683 H   0  0  0  0  0  0  0  0  0  0  0  0
   -0.0533   -2.6738    2.2705 H   0  0  0  0  0  0  0  0  0  0  0  0
    0.9755   -3.1649    0.9316 H   0  0  0  0  0  0  0  0  0  0  0  0
   -0.9845   -0.8399    0.8780 H   0  0  0  0  0  0  0  0  0  0  0  0
    0.9845    0.1029    1.9484 H   0  0  0  0  0  0  0  0  0  0  0  0
    2.0510   -0.8535    0.9305 H   0  0  0  0  0  0  0  0  0  0  0  0
    0.5494    1.8728    0.2766 H   0  0  0  0  0  0  0  0  0  0  0  0
    2.0446    0.9680   -0.5379 H   0  0  0  0  0  0  0  0  0  0  0  0
    0.5596    0.3186   -2.2837 H   0  0  0  0  0  0  0  0  0  0  0  0
   -0.8421    0.6145   -1.2659 H   0  0  0  0  0  0  0  0  0  0  0  0
    0.9613   -1.8273   -1.2134 H   0  0  0  0  0  0  0  0  0  0  0  0
   -1.0685   -2.1587   -2.6058 H   0  0  0  0  0  0  0  0  0  0  0  0
   -2.0724   -1.6184   -1.2669 H   0  0  0  0  0  0  0  0  0  0  0  0
  1  2  2  3
  1  5  1  0
  1  6  1  0
  2  3  1  0
  2 28  1  0
  3  4  2  3
  3  7  1  0
  4  8  1  0
  4  9  1  0
 10 11  1  0
 10 18  1  0
 10 19  1  0
 10 20  1  0
 11 12  1  0
 11 21  1  0
 11 22  1  0
 12 13  1  0
 12 23  1  0
 12 24  1  0
 13 14  1  0
 13 17  1  0
 13 25  1  0
 14 15  1  0
 14 26  1  0
 14 27  1  0
 15 16  1  0
 15 29  1  0
 16 17  1  0
 16 30  1  0
 16 31  1  0
 17 18  1  0
 17 32  1  0
 18 33  1  0
 18 34  1  0
M  RAD  1  15   2
M  END
>  <reaction>  (7) 
rxn_618

>  <mol_properties>  (7) 
{"1": {"label": "*3", "atom_type": "Cd"}, "2": {"label": "*4", "atom_type": "Cd"}, "13": {"label": "*0", "atom_type": "Cs"}, "14": {"label": "*1", "atom_type": "Cs"}, "27": {"label": "*2", "atom_type": "H0"}}

>  <type>  (7) 
unop_3

>  <geom_source>  (7) 
Heuristics

$$$$

     RDKit          3D

 34 34  0  0  0  0  0  0  0  0999 V2000
    0.8561    4.2471   -0.0728 C   0  0  0  0  0  0  0  0  0  0  0  0
    0.3370    3.1891    0.5412 C   0  0  0  0  0  0  0  0  0  0  0  0
   -1.0195    3.1375    1.0700 C   0  0  0  0  0  0  0  0  0  0  0  0
   -1.5386    2.0795    1.6839 C   0  0  0  0  0  0  0  0  0  0  0  0
    1.8700    4.2426   -0.4509 H   0  0  0  0  0  0  0  0  0  0  0  0
    0.2796    5.1544   -0.2163 H   0  0  0  0  0  0  0  0  0  0  0  0
   -1.6222    4.0325    0.9412 H   0  0  0  0  0  0  0  0  0  0  0  0
   -2.5525    2.0840    2.0621 H   0  0  0  0  0  0  0  0  0  0  0  0
   -0.9621    1.1722    1.8275 H   0  0  0  0  0  0  0  0  0  0  0  0
   -0.8493   -3.3433   -1.1112 C   0  0  0  0  0  0  0  0  0  0  0  0
   -0.8493   -3.3433    0.4194 C   0  0  0  0  0  0  0  0  0  0  0  0
    0.2938   -2.5069    1.0014 C   0  0  0  0  0  0  0  0  0  0  0  0
    0.2542   -1.1059    0.4173 C   0  0  0  0  0  0  0  0  0  0  0  0
    1.3732   -0.1321    0.7727 C   0  0  0  0  0  0  0  0  0  0  0  0
    1.3233    0.9384   -0.3459 C   0  0  0  0  0  3  0  0  0  0  0  0
    0.4298    0.3466   -1.4646 C   0  0  0  0  0  0  0  0  0  0  0  0
    0.3047   -1.1316   -1.1091 C   0  0  0  0  0  0  0  0  0  0  0  0
   -0.8493   -1.9269   -1.6932 C   0  0  0  0  0  0  0  0  0  0  0  0
    0.0431   -3.8701   -1.4672 H   0  0  0  0  0  0  0  0  0  0  0  0
   -1.7102   -3.9044   -1.4819 H   0  0  0  0  0  0  0  0  0  0  0  0
   -1.8015   -2.9341    0.7753 H   0  0  0  0  0  0  0  0  0  0  0  0
   -0.7938   -4.3694    0.7901 H   0  0  0  0  0  0  0  0  0  0  0  0
    0.2265   -2.4810    2.0922 H   0  0  0  0  0  0  0  0  0  0  0  0
    1.2553   -2.9720    0.7533 H   0  0  0  0  0  0  0  0  0  0  0  0
   -0.7046   -0.6471    0.6998 H   0  0  0  0  0  0  0  0  0  0  0  0
    1.2644    0.2958    1.7701 H   0  0  0  0  0  0  0  0  0  0  0  0
    2.3309   -0.6607    0.7523 H   0  0  0  0  0  0  0  0  0  0  0  0
    0.8293    2.0657    0.0984 H   0  0  0  0  0  0  0  0  0  0  0  0
    2.3245    1.1609   -0.7162 H   0  0  0  0  0  0  0  0  0  0  0  0
    0.8394    0.5115   -2.4620 H   0  0  0  0  0  0  0  0  0  0  0  0
   -0.5622    0.8073   -1.4441 H   0  0  0  0  0  0  0  0  0  0  0  0
    1.2412   -1.6344   -1.3916 H   0  0  0  0  0  0  0  0  0  0  0  0
   -0.7887   -1.9658   -2.7841 H   0  0  0  0  0  0  0  0  0  0  0  0
   -1.7925   -1.4255   -1.4452 H   0  0  0  0  0  0  0  0  0  0  0  0
  1  2  2  3
  1  5  1  0
  1  6  1  0
  2  3  1  0
  2 28  1  0
  3  4  2  3
  3  7  1  0
  4  8  1  0
  4  9  1  0
 10 11  1  0
 10 18  1  0
 10 19  1  0
 10 20  1  0
 11 12  1  0
 11 21  1  0
 11 22  1  0
 12 13  1  0
 12 23  1  0
 12 24  1  0
 13 14  1  0
 13 17  1  0
 13 25  1  0
 14 15  1  0
 14 26  1  0
 14 27  1  0
 15 16  1  0
 15 29  1  0
 16 17  1  0
 16 30  1  0
 16 31  1  0
 17 18  1  0
 17 32  1  0
 18 33  1  0
 18 34  1  0
M  RAD  1  15   2
M  END
>  <reaction>  (8) 
rxn_618

>  <mol_properties>  (8) 
{"1": {"label": "*3", "atom_type": "Cd"}, "2": {"label": "*4", "atom_type": "Cd"}, "13": {"label": "*0", "atom_type": "Cs"}, "14": {"label": "*1", "atom_type": "Cs"}, "27": {"label": "*2", "atom_type": "H0"}}

>  <type>  (8) 
unop_4

>  <geom_source>  (8) 
Heuristics

$$$$

     RDKit          3D

 34 34  0  0  0  0  0  0  0  0999 V2000
   -0.2334    3.1105    2.0366 C   0  0  0  0  0  0  0  0  0  0  0  0
    0.1439    3.0150    0.7660 C   0  0  0  0  0  0  0  0  0  0  0  0
    0.0460    4.1032   -0.1976 C   0  0  0  0  0  0  0  0  0  0  0  0
    0.4233    4.0076   -1.4682 C   0  0  0  0  0  0  0  0  0  0  0  0
   -0.1430    2.2760    2.7194 H   0  0  0  0  0  0  0  0  0  0  0  0
   -0.6463    4.0312    2.4340 H   0  0  0  0  0  0  0  0  0  0  0  0
   -0.3643    5.0393    0.1714 H   0  0  0  0  0  0  0  0  0  0  0  0
    0.3329    4.8422   -2.1511 H   0  0  0  0  0  0  0  0  0  0  0  0
    0.8362    3.0870   -1.8657 H   0  0  0  0  0  0  0  0  0  0  0  0
   -1.0424   -3.5174   -0.8864 C   0  0  0  0  0  0  0  0  0  0  0  0
   -1.0424   -3.5174    0.6442 C   0  0  0  0  0  0  0  0  0  0  0  0
    0.1007   -2.6810    1.2262 C   0  0  0  0  0  0  0  0  0  0  0  0
    0.0611   -1.2800    0.6421 C   0  0  0  0  0  0  0  0  0  0  0  0
    1.1802   -0.3062    0.9975 C   0  0  0  0  0  0  0  0  0  0  0  0
    1.1302    0.7643   -0.1211 C   0  0  0  0  0  3  0  0  0  0  0  0
    0.2367    0.1725   -1.2397 C   0  0  0  0  0  0  0  0  0  0  0  0
    0.1117   -1.3056   -0.8843 C   0  0  0  0  0  0  0  0  0  0  0  0
   -1.0424   -2.1009   -1.4684 C   0  0  0  0  0  0  0  0  0  0  0  0
   -0.1499   -4.0442   -1.2423 H   0  0  0  0  0  0  0  0  0  0  0  0
   -1.9033   -4.0785   -1.2571 H   0  0  0  0  0  0  0  0  0  0  0  0
   -1.9945   -3.1082    1.0001 H   0  0  0  0  0  0  0  0  0  0  0  0
   -0.9869   -4.5435    1.0149 H   0  0  0  0  0  0  0  0  0  0  0  0
    0.0335   -2.6550    2.3170 H   0  0  0  0  0  0  0  0  0  0  0  0
    1.0623   -3.1461    0.9781 H   0  0  0  0  0  0  0  0  0  0  0  0
   -0.8977   -0.8212    0.9246 H   0  0  0  0  0  0  0  0  0  0  0  0
    1.0713    0.1217    1.9949 H   0  0  0  0  0  0  0  0  0  0  0  0
    2.1378   -0.8348    0.9771 H   0  0  0  0  0  0  0  0  0  0  0  0
    0.6362    1.8916    0.3232 H   0  0  0  0  0  0  0  0  0  0  0  0
    2.1314    0.9868   -0.4914 H   0  0  0  0  0  0  0  0  0  0  0  0
    0.6464    0.3374   -2.2372 H   0  0  0  0  0  0  0  0  0  0  0  0
   -0.7553    0.6332   -1.2193 H   0  0  0  0  0  0  0  0  0  0  0  0
    1.0481   -1.8085   -1.1668 H   0  0  0  0  0  0  0  0  0  0  0  0
   -0.9817   -2.1399   -2.5593 H   0  0  0  0  0  0  0  0  0  0  0  0
   -1.9856   -1.5996   -1.2204 H   0  0  0  0  0  0  0  0  0  0  0  0
  1  2  2  3
  1  5  1  0
  1  6  1  0
  2  3  1  0
  2 28  1  0
  3  4  2  3
  3  7  1  0
  4  8  1  0
  4  9  1  0
 10 11  1  0
 10 18  1  0
 10 19  1  0
 10 20  1  0
 11 12  1  0
 11 21  1  0
 11 22  1  0
 12 13  1  0
 12 23  1  0
 12 24  1  0
 13 14  1  0
 13 17  1  0
 13 25  1  0
 14 15  1  0
 14 26  1  0
 14 27  1  0
 15 16  1  0
 15 29  1  0
 16 17  1  0
 16 30  1  0
 16 31  1  0
 17 18  1  0
 17 32  1  0
 18 33  1  0
 18 34  1  0
M  RAD  1  15   2
M  END
>  <reaction>  (9) 
rxn_618

>  <mol_properties>  (9) 
{"1": {"label": "*3", "atom_type": "Cd"}, "2": {"label": "*4", "atom_type": "Cd"}, "13": {"label": "*0", "atom_type": "Cs"}, "14": {"label": "*1", "atom_type": "Cs"}, "27": {"label": "*2", "atom_type": "H0"}}

>  <type>  (9) 
unop_5

>  <geom_source>  (9) 
Heuristics

$$$$

     RDKit          3D

 34 34  0  0  0  0  0  0  0  0999 V2000
    1.2251    4.1242    0.3916 C   0  0  0  0  0  0  0  0  0  0  0  0
    0.3489    3.1562    0.6391 C   0  0  0  0  0  0  0  0  0  0  0  0
   -1.0951    3.3168    0.5325 C   0  0  0  0  0  0  0  0  0  0  0  0
   -1.9713    2.3488    0.7799 C   0  0  0  0  0  0  0  0  0  0  0  0
    2.2910    3.9615    0.4833 H   0  0  0  0  0  0  0  0  0  0  0  0
    0.9009    5.1137    0.0884 H   0  0  0  0  0  0  0  0  0  0  0  0
   -1.4507    4.2981    0.2303 H   0  0  0  0  0  0  0  0  0  0  0  0
   -3.0371    2.5115    0.6883 H   0  0  0  0  0  0  0  0  0  0  0  0
   -1.6471    1.3593    1.0832 H   0  0  0  0  0  0  0  0  0  0  0  0
   -0.8374   -3.3761   -1.0133 C   0  0  0  0  0  0  0  0  0  0  0  0
   -0.8374   -3.3761    0.5173 C   0  0  0  0  0  0  0  0  0  0  0  0
    0.3057   -2.5397    1.0993 C   0  0  0  0  0  0  0  0  0  0  0  0
    0.2661   -1.1388    0.5152 C   0  0  0  0  0  0  0  0  0  0  0  0
    1.3852   -0.1650    0.8706 C   0  0  0  0  0  0  0  0  0  0  0  0
    1.3352    0.9056   -0.2480 C   0  0  0  0  0  3  0  0  0  0  0  0
    0.4417    0.3137   -1.3666 C   0  0  0  0  0  0  0  0  0  0  0  0
    0.3167   -1.1644   -1.0112 C   0  0  0  0  0  0  0  0  0  0  0  0
   -0.8374   -1.9597   -1.5953 C   0  0  0  0  0  0  0  0  0  0  0  0
    0.0551   -3.9029   -1.3692 H   0  0  0  0  0  0  0  0  0  0  0  0
   -1.6983   -3.9372   -1.3840 H   0  0  0  0  0  0  0  0  0  0  0  0
   -1.7895   -2.9670    0.8732 H   0  0  0  0  0  0  0  0  0  0  0  0
   -0.7818   -4.4022    0.8880 H   0  0  0  0  0  0  0  0  0  0  0  0
    0.2385   -2.5138    2.1901 H   0  0  0  0  0  0  0  0  0  0  0  0
    1.2673   -3.0049    0.8512 H   0  0  0  0  0  0  0  0  0  0  0  0
   -0.6927   -0.6799    0.7977 H   0  0  0  0  0  0  0  0  0  0  0  0
    1.2764    0.2630    1.8680 H   0  0  0  0  0  0  0  0  0  0  0  0
    2.3428   -0.6935    0.8502 H   0  0  0  0  0  0  0  0  0  0  0  0
    0.8412    2.0328    0.1963 H   0  0  0  0  0  0  0  0  0  0  0  0
    2.3364    1.1281   -0.6183 H   0  0  0  0  0  0  0  0  0  0  0  0
    0.8514    0.4786   -2.3641 H   0  0  0  0  0  0  0  0  0  0  0  0
   -0.5503    0.7745   -1.3462 H   0  0  0  0  0  0  0  0  0  0  0  0
    1.2531   -1.6672   -1.2937 H   0  0  0  0  0  0  0  0  0  0  0  0
   -0.7767   -1.9987   -2.6862 H   0  0  0  0  0  0  0  0  0  0  0  0
   -1.7805   -1.4584   -1.3473 H   0  0  0  0  0  0  0  0  0  0  0  0
  1  2  2  3
  1  5  1  0
  1  6  1  0
  2  3  1  0
  2 28  1  0
  3  4  2  3
  3  7  1  0
  4  8  1  0
  4  9  1  0
 10 11  1  0
 10 18  1  0
 10 19  1  0
 10 20  1  0
 11 12  1  0
 11 21  1  0
 11 22  1  0
 12 13  1  0
 12 23  1  0
 12 24  1  0
 13 14  1  0
 13 17  1  0
 13 25  1  0
 14 15  1  0
 14 26  1  0
 14 27  1  0
 15 16  1  0
 15 29  1  0
 16 17  1  0
 16 30  1  0
 16 31  1  0
 17 18  1  0
 17 32  1  0
 18 33  1  0
 18 34  1  0
M  RAD  1  15   2
M  END
>  <reaction>  (10) 
rxn_618

>  <mol_properties>  (10) 
{"1": {"label": "*3", "atom_type": "Cd"}, "2": {"label": "*4", "atom_type": "Cd"}, "13": {"label": "*0", "atom_type": "Cs"}, "14": {"label": "*1", "atom_type": "Cs"}, "27": {"label": "*2", "atom_type": "H0"}}

>  <type>  (10) 
unop_6

>  <geom_source>  (10) 
Heuristics

$$$$

     RDKit          3D

 34 34  0  0  0  0  0  0  0  0999 V2000
    1.3355    3.8863    1.0544 C   0  0  0  0  0  0  0  0  0  0  0  0
    0.3115    3.1072    0.7222 C   0  0  0  0  0  0  0  0  0  0  0  0
   -0.8986    3.5862    0.0676 C   0  0  0  0  0  0  0  0  0  0  0  0
   -1.9227    2.8071   -0.2646 C   0  0  0  0  0  0  0  0  0  0  0  0
    2.2167    3.4883    1.5402 H   0  0  0  0  0  0  0  0  0  0  0  0
    1.3231    4.9511    0.8492 H   0  0  0  0  0  0  0  0  0  0  0  0
   -0.9405    4.6498   -0.1511 H   0  0  0  0  0  0  0  0  0  0  0  0
   -2.8039    3.2051   -0.7504 H   0  0  0  0  0  0  0  0  0  0  0  0
   -1.9103    1.7423   -0.0594 H   0  0  0  0  0  0  0  0  0  0  0  0
   -0.8748   -3.4252   -0.9302 C   0  0  0  0  0  0  0  0  0  0  0  0
   -0.8748   -3.4252    0.6004 C   0  0  0  0  0  0  0  0  0  0  0  0
    0.2683   -2.5888    1.1824 C   0  0  0  0  0  0  0  0  0  0  0  0
    0.2287   -1.1878    0.5983 C   0  0  0  0  0  0  0  0  0  0  0  0
    1.3477   -0.2140    0.9537 C   0  0  0  0  0  0  0  0  0  0  0  0
    1.2978    0.8565   -0.1649 C   0  0  0  0  0  3  0  0  0  0  0  0
    0.4043    0.2647   -1.2835 C   0  0  0  0  0  0  0  0  0  0  0  0
    0.2792   -1.2134   -0.9281 C   0  0  0  0  0  0  0  0  0  0  0  0
   -0.8748   -2.0088   -1.5122 C   0  0  0  0  0  0  0  0  0  0  0  0
    0.0176   -3.9520   -1.2861 H   0  0  0  0  0  0  0  0  0  0  0  0
   -1.7357   -3.9863   -1.3009 H   0  0  0  0  0  0  0  0  0  0  0  0
   -1.8270   -3.0160    0.9563 H   0  0  0  0  0  0  0  0  0  0  0  0
   -0.8193   -4.4513    0.9711 H   0  0  0  0  0  0  0  0  0  0  0  0
    0.2010   -2.5628    2.2732 H   0  0  0  0  0  0  0  0  0  0  0  0
    1.2298   -3.0539    0.9343 H   0  0  0  0  0  0  0  0  0  0  0  0
   -0.7301   -0.7290    0.8808 H   0  0  0  0  0  0  0  0  0  0  0  0
    1.2389    0.2139    1.9511 H   0  0  0  0  0  0  0  0  0  0  0  0
    2.3053   -0.7426    0.9333 H   0  0  0  0  0  0  0  0  0  0  0  0
    0.8038    1.9838    0.2794 H   0  0  0  0  0  0  0  0  0  0  0  0
    2.2990    1.0790   -0.5352 H   0  0  0  0  0  0  0  0  0  0  0  0
    0.8139    0.4296   -2.2810 H   0  0  0  0  0  0  0  0  0  0  0  0
   -0.5878    0.7254   -1.2631 H   0  0  0  0  0  0  0  0  0  0  0  0
    1.2157   -1.7163   -1.2106 H   0  0  0  0  0  0  0  0  0  0  0  0
   -0.8142   -2.0477   -2.6030 H   0  0  0  0  0  0  0  0  0  0  0  0
   -1.8180   -1.5074   -1.2642 H   0  0  0  0  0  0  0  0  0  0  0  0
  1  2  2  3
  1  5  1  0
  1  6  1  0
  2  3  1  0
  2 28  1  0
  3  4  2  3
  3  7  1  0
  4  8  1  0
  4  9  1  0
 10 11  1  0
 10 18  1  0
 10 19  1  0
 10 20  1  0
 11 12  1  0
 11 21  1  0
 11 22  1  0
 12 13  1  0
 12 23  1  0
 12 24  1  0
 13 14  1  0
 13 17  1  0
 13 25  1  0
 14 15  1  0
 14 26  1  0
 14 27  1  0
 15 16  1  0
 15 29  1  0
 16 17  1  0
 16 30  1  0
 16 31  1  0
 17 18  1  0
 17 32  1  0
 18 33  1  0
 18 34  1  0
M  RAD  1  15   2
M  END
>  <reaction>  (11) 
rxn_618

>  <mol_properties>  (11) 
{"1": {"label": "*3", "atom_type": "Cd"}, "2": {"label": "*4", "atom_type": "Cd"}, "13": {"label": "*0", "atom_type": "Cs"}, "14": {"label": "*1", "atom_type": "Cs"}, "27": {"label": "*2", "atom_type": "H0"}}

>  <type>  (11) 
unop_7

>  <geom_source>  (11) 
Heuristics

$$$$

     RDKit          3D

 34 34  0  0  0  0  0  0  0  0999 V2000
   -1.0501    3.3712   -0.2274 C   0  0  0  0  0  0  0  0  0  0  0  0
   -0.0181    3.0347    0.5392 C   0  0  0  0  0  0  0  0  0  0  0  0
    0.9372    3.9894    1.0854 C   0  0  0  0  0  0  0  0  0  0  0  0
    1.9692    3.6530    1.8521 C   0  0  0  0  0  0  0  0  0  0  0  0
   -1.7365    2.6285   -0.6125 H   0  0  0  0  0  0  0  0  0  0  0  0
   -1.2404    4.4049   -0.4943 H   0  0  0  0  0  0  0  0  0  0  0  0
    0.7726    5.0340    0.8352 H   0  0  0  0  0  0  0  0  0  0  0  0
    2.6556    4.3956    2.2372 H   0  0  0  0  0  0  0  0  0  0  0  0
    2.1595    2.6192    2.1189 H   0  0  0  0  0  0  0  0  0  0  0  0
   -1.2044   -3.4976   -1.1132 C   0  0  0  0  0  0  0  0  0  0  0  0
   -1.2044   -3.4976    0.4174 C   0  0  0  0  0  0  0  0  0  0  0  0
   -0.0613   -2.6612    0.9994 C   0  0  0  0  0  0  0  0  0  0  0  0
   -0.1009   -1.2602    0.4153 C   0  0  0  0  0  0  0  0  0  0  0  0
    1.0181   -0.2865    0.7707 C   0  0  0  0  0  0  0  0  0  0  0  0
    0.9682    0.7841   -0.3479 C   0  0  0  0  0  3  0  0  0  0  0  0
    0.0747    0.1923   -1.4665 C   0  0  0  0  0  0  0  0  0  0  0  0
   -0.0504   -1.2859   -1.1111 C   0  0  0  0  0  0  0  0  0  0  0  0
   -1.2044   -2.0812   -1.6952 C   0  0  0  0  0  0  0  0  0  0  0  0
   -0.3120   -4.0244   -1.4691 H   0  0  0  0  0  0  0  0  0  0  0  0
   -2.0653   -4.0587   -1.4839 H   0  0  0  0  0  0  0  0  0  0  0  0
   -2.1566   -3.0885    0.7733 H   0  0  0  0  0  0  0  0  0  0  0  0
   -1.1489   -4.5237    0.7881 H   0  0  0  0  0  0  0  0  0  0  0  0
   -0.1286   -2.6353    2.0902 H   0  0  0  0  0  0  0  0  0  0  0  0
    0.9002   -3.1264    0.7513 H   0  0  0  0  0  0  0  0  0  0  0  0
   -1.0597   -0.8014    0.6978 H   0  0  0  0  0  0  0  0  0  0  0  0
    0.9093    0.1415    1.7682 H   0  0  0  0  0  0  0  0  0  0  0  0
    1.9757   -0.8150    0.7503 H   0  0  0  0  0  0  0  0  0  0  0  0
    0.4742    1.9113    0.0964 H   0  0  0  0  0  0  0  0  0  0  0  0
    1.9694    1.0066   -0.7182 H   0  0  0  0  0  0  0  0  0  0  0  0
    0.4843    0.3571   -2.4639 H   0  0  0  0  0  0  0  0  0  0  0  0
   -0.9174    0.6530   -1.4461 H   0  0  0  0  0  0  0  0  0  0  0  0
    0.8861   -1.7887   -1.3936 H   0  0  0  0  0  0  0  0  0  0  0  0
   -1.1438   -2.1201   -2.7860 H   0  0  0  0  0  0  0  0  0  0  0  0
   -2.1476   -1.5799   -1.4471 H   0  0  0  0  0  0  0  0  0  0  0  0
  1  2  2  3
  1  5  1  0
  1  6  1  0
  2  3  1  0
  2 28  1  0
  3  4  2  3
  3  7  1  0
  4  8  1  0
  4  9  1  0
 10 11  1  0
 10 18  1  0
 10 19  1  0
 10 20  1  0
 11 12  1  0
 11 21  1  0
 11 22  1  0
 12 13  1  0
 12 23  1  0
 12 24  1  0
 13 14  1  0
 13 17  1  0
 13 25  1  0
 14 15  1  0
 14 26  1  0
 14 27  1  0
 15 16  1  0
 15 29  1  0
 16 17  1  0
 16 30  1  0
 16 31  1  0
 17 18  1  0
 17 32  1  0
 18 33  1  0
 18 34  1  0
M  RAD  1  15   2
M  END
>  <reaction>  (12) 
rxn_618

>  <mol_properties>  (12) 
{"1": {"label": "*3", "atom_type": "Cd"}, "2": {"label": "*4", "atom_type": "Cd"}, "13": {"label": "*0", "atom_type": "Cs"}, "14": {"label": "*1", "atom_type": "Cs"}, "27": {"label": "*2", "atom_type": "H0"}}

>  <type>  (12) 
unop_8

>  <geom_source>  (12) 
Heuristics

$$$$

     RDKit          3D

 34 34  0  0  0  0  0  0  0  0999 V2000
    0.4290    4.2715   -0.3116 C   0  0  0  0  0  0  0  0  0  0  0  0
    0.2783    3.1967    0.4552 C   0  0  0  0  0  0  0  0  0  0  0  0
   -0.6926    3.0962    1.5366 C   0  0  0  0  0  0  0  0  0  0  0  0
   -0.8433    2.0214    2.3034 C   0  0  0  0  0  0  0  0  0  0  0  0
    1.1638    4.3036   -1.1052 H   0  0  0  0  0  0  0  0  0  0  0  0
   -0.1814    5.1563   -0.1677 H   0  0  0  0  0  0  0  0  0  0  0  0
   -1.3194    3.9678    1.7052 H   0  0  0  0  0  0  0  0  0  0  0  0
   -1.5781    1.9893    3.0970 H   0  0  0  0  0  0  0  0  0  0  0  0
   -0.2329    1.1366    2.1595 H   0  0  0  0  0  0  0  0  0  0  0  0
   -0.9080   -3.3357   -1.1972 C   0  0  0  0  0  0  0  0  0  0  0  0
   -0.9080   -3.3357    0.3334 C   0  0  0  0  0  0  0  0  0  0  0  0
    0.2351   -2.4993    0.9154 C   0  0  0  0  0  0  0  0  0  0  0  0
    0.1955   -1.0983    0.3313 C   0  0  0  0  0  0  0  0  0  0  0  0
    1.3146   -0.1245    0.6867 C   0  0  0  0  0  0  0  0  0  0  0  0
    1.2646    0.9460   -0.4319 C   0  0  0  0  0  3  0  0  0  0  0  0
    0.3711    0.3542   -1.5505 C   0  0  0  0  0  0  0  0  0  0  0  0
    0.2460   -1.1240   -1.1951 C   0  0  0  0  0  0  0  0  0  0  0  0
   -0.9080   -1.9193   -1.7792 C   0  0  0  0  0  0  0  0  0  0  0  0
   -0.0156   -3.8625   -1.5531 H   0  0  0  0  0  0  0  0  0  0  0  0
   -1.7689   -3.8968   -1.5679 H   0  0  0  0  0  0  0  0  0  0  0  0
   -1.8601   -2.9265    0.6893 H   0  0  0  0  0  0  0  0  0  0  0  0
   -0.8525   -4.3618    0.7041 H   0  0  0  0  0  0  0  0  0  0  0  0
    0.1679   -2.4734    2.0062 H   0  0  0  0  0  0  0  0  0  0  0  0
    1.1967   -2.9644    0.6673 H   0  0  0  0  0  0  0  0  0  0  0  0
   -0.7633   -0.6395    0.6138 H   0  0  0  0  0  0  0  0  0  0  0  0
    1.2057    0.3034    1.6841 H   0  0  0  0  0  0  0  0  0  0  0  0
    2.2722   -0.6531    0.6663 H   0  0  0  0  0  0  0  0  0  0  0  0
    0.7706    2.0733    0.0124 H   0  0  0  0  0  0  0  0  0  0  0  0
    2.2658    1.1685   -0.8022 H   0  0  0  0  0  0  0  0  0  0  0  0
    0.7808    0.5190   -2.5480 H   0  0  0  0  0  0  0  0  0  0  0  0
   -0.6209    0.8149   -1.5301 H   0  0  0  0  0  0  0  0  0  0  0  0
    1.1825   -1.6268   -1.4776 H   0  0  0  0  0  0  0  0  0  0  0  0
   -0.8473   -1.9582   -2.8701 H   0  0  0  0  0  0  0  0  0  0  0  0
   -1.8512   -1.4179   -1.5312 H   0  0  0  0  0  0  0  0  0  0  0  0
  1  2  2  3
  1  5  1  0
  1  6  1  0
  2  3  1  0
  2 28  1  0
  3  4  2  3
  3  7  1  0
  4  8  1  0
  4  9  1  0
 10 11  1  0
 10 18  1  0
 10 19  1  0
 10 20  1  0
 11 12  1  0
 11 21  1  0
 11 22  1  0
 12 13  1  0
 12 23  1  0
 12 24  1  0
 13 14  1  0
 13 17  1  0
 13 25  1  0
 14 15  1  0
 14 26  1  0
 14 27  1  0
 15 16  1  0
 15 29  1  0
 16 17  1  0
 16 30  1  0
 16 31  1  0
 17 18  1  0
 17 32  1  0
 18 33  1  0
 18 34  1  0
M  RAD  1  15   2
M  END
>  <reaction>  (13) 
rxn_618

>  <mol_properties>  (13) 
{"1": {"label": "*3", "atom_type": "Cd"}, "2": {"label": "*4", "atom_type": "Cd"}, "13": {"label": "*0", "atom_type": "Cs"}, "14": {"label": "*1", "atom_type": "Cs"}, "27": {"label": "*2", "atom_type": "H0"}}

>  <type>  (13) 
unop_9

>  <geom_source>  (13) 
Heuristics

$$$$

     RDKit          3D

 34 34  0  0  0  0  0  0  0  0999 V2000
   -0.6508    3.7484   -0.4828 C   0  0  0  0  0  0  0  0  0  0  0  0
    0.0168    3.0831    0.4540 C   0  0  0  0  0  0  0  0  0  0  0  0
    0.7382    3.7193    1.5482 C   0  0  0  0  0  0  0  0  0  0  0  0
    1.4058    3.0540    2.4851 C   0  0  0  0  0  0  0  0  0  0  0  0
   -1.1738    3.2352   -1.2791 H   0  0  0  0  0  0  0  0  0  0  0  0
   -0.6946    4.8320   -0.4814 H   0  0  0  0  0  0  0  0  0  0  0  0
    0.7126    4.8053    1.5765 H   0  0  0  0  0  0  0  0  0  0  0  0
    1.9287    3.5671    3.2814 H   0  0  0  0  0  0  0  0  0  0  0  0
    1.4495    1.9704    2.4836 H   0  0  0  0  0  0  0  0  0  0  0  0
   -1.1696   -3.4493   -1.1984 C   0  0  0  0  0  0  0  0  0  0  0  0
   -1.1696   -3.4493    0.3322 C   0  0  0  0  0  0  0  0  0  0  0  0
   -0.0264   -2.6129    0.9142 C   0  0  0  0  0  0  0  0  0  0  0  0
   -0.0661   -1.2119    0.3301 C   0  0  0  0  0  0  0  0  0  0  0  0
    1.0530   -0.2381    0.6856 C   0  0  0  0  0  0  0  0  0  0  0  0
    1.0030    0.8324   -0.4331 C   0  0  0  0  0  3  0  0  0  0  0  0
    0.1096    0.2406   -1.5517 C   0  0  0  0  0  0  0  0  0  0  0  0
   -0.0155   -1.2375   -1.1962 C   0  0  0  0  0  0  0  0  0  0  0  0
   -1.1696   -2.0328   -1.7804 C   0  0  0  0  0  0  0  0  0  0  0  0
   -0.2771   -3.9761   -1.5543 H   0  0  0  0  0  0  0  0  0  0  0  0
   -2.0304   -4.0104   -1.5691 H   0  0  0  0  0  0  0  0  0  0  0  0
   -2.1217   -3.0401    0.6882 H   0  0  0  0  0  0  0  0  0  0  0  0
   -1.1140   -4.4754    0.7030 H   0  0  0  0  0  0  0  0  0  0  0  0
   -0.0937   -2.5869    2.0051 H   0  0  0  0  0  0  0  0  0  0  0  0
    0.9351   -3.0780    0.6662 H   0  0  0  0  0  0  0  0  0  0  0  0
   -1.0248   -0.7531    0.6127 H   0  0  0  0  0  0  0  0  0  0  0  0
    0.9442    0.1898    1.6830 H   0  0  0  0  0  0  0  0  0  0  0  0
    2.0106   -0.7667    0.6651 H   0  0  0  0  0  0  0  0  0  0  0  0
    0.5091    1.9597    0.0113 H   0  0  0  0  0  0  0  0  0  0  0  0
    2.0042    1.0549   -0.8033 H   0  0  0  0  0  0  0  0  0  0  0  0
    0.5192    0.4055   -2.5491 H   0  0  0  0  0  0  0  0  0  0  0  0
   -0.8825    0.7013   -1.5313 H   0  0  0  0  0  0  0  0  0  0  0  0
    0.9209   -1.7404   -1.4788 H   0  0  0  0  0  0  0  0  0  0  0  0
   -1.1089   -2.0718   -2.8712 H   0  0  0  0  0  0  0  0  0  0  0  0
   -2.1127   -1.5315   -1.5323 H   0  0  0  0  0  0  0  0  0  0  0  0
  1  2  2  3
  1  5  1  0
  1  6  1  0
  2  3  1  0
  2 28  1  0
  3  4  2  3
  3  7  1  0
  4  8  1  0
  4  9  1  0
 10 11  1  0
 10 18  1  0
 10 19  1  0
 10 20  1  0
 11 12  1  0
 11 21  1  0
 11 22  1  0
 12 13  1  0
 12 23  1  0
 12 24  1  0
 13 14  1  0
 13 17  1  0
 13 25  1  0
 14 15  1  0
 14 26  1  0
 14 27  1  0
 15 16  1  0
 15 29  1  0
 16 17  1  0
 16 30  1  0
 16 31  1  0
 17 18  1  0
 17 32  1  0
 18 33  1  0
 18 34  1  0
M  RAD  1  15   2
M  END
>  <reaction>  (14) 
rxn_618

>  <mol_properties>  (14) 
{"1": {"label": "*3", "atom_type": "Cd"}, "2": {"label": "*4", "atom_type": "Cd"}, "13": {"label": "*0", "atom_type": "Cs"}, "14": {"label": "*1", "atom_type": "Cs"}, "27": {"label": "*2", "atom_type": "H0"}}

>  <type>  (14) 
unop_10

>  <geom_source>  (14) 
Heuristics

$$$$

     RDKit          3D

 34 34  0  0  0  0  0  0  0  0999 V2000
    0.9423    3.5480    1.7799 C   0  0  0  0  0  0  0  0  0  0  0  0
    0.2357    3.0553    0.7680 C   0  0  0  0  0  0  0  0  0  0  0  0
   -0.4817    3.8739   -0.2003 C   0  0  0  0  0  0  0  0  0  0  0  0
   -1.1883    3.3812   -1.2121 C   0  0  0  0  0  0  0  0  0  0  0  0
    1.4606    2.9028    2.4770 H   0  0  0  0  0  0  0  0  0  0  0  0
    1.0240    4.6171    1.9423 H   0  0  0  0  0  0  0  0  0  0  0  0
   -0.4186    4.9501   -0.0636 H   0  0  0  0  0  0  0  0  0  0  0  0
   -1.7066    4.0265   -1.9093 H   0  0  0  0  0  0  0  0  0  0  0  0
   -1.2700    2.3121   -1.3745 H   0  0  0  0  0  0  0  0  0  0  0  0
   -0.9506   -3.4770   -0.8844 C   0  0  0  0  0  0  0  0  0  0  0  0
   -0.9506   -3.4770    0.6462 C   0  0  0  0  0  0  0  0  0  0  0  0
    0.1925   -2.6406    1.2282 C   0  0  0  0  0  0  0  0  0  0  0  0
    0.1529   -1.2397    0.6441 C   0  0  0  0  0  0  0  0  0  0  0  0
    1.2720   -0.2659    0.9995 C   0  0  0  0  0  0  0  0  0  0  0  0
    1.2220    0.8047   -0.1191 C   0  0  0  0  0  3  0  0  0  0  0  0
    0.3285    0.2128   -1.2377 C   0  0  0  0  0  0  0  0  0  0  0  0
    0.2034   -1.2653   -0.8823 C   0  0  0  0  0  0  0  0  0  0  0  0
   -0.9506   -2.0606   -1.4664 C   0  0  0  0  0  0  0  0  0  0  0  0
   -0.0582   -4.0039   -1.2403 H   0  0  0  0  0  0  0  0  0  0  0  0
   -1.8115   -4.0381   -1.2551 H   0  0  0  0  0  0  0  0  0  0  0  0
   -1.9027   -3.0679    1.0021 H   0  0  0  0  0  0  0  0  0  0  0  0
   -0.8951   -4.5031    1.0169 H   0  0  0  0  0  0  0  0  0  0  0  0
    0.1253   -2.6147    2.3191 H   0  0  0  0  0  0  0  0  0  0  0  0
    1.1541   -3.1058    0.9802 H   0  0  0  0  0  0  0  0  0  0  0  0
   -0.8059   -0.7808    0.9266 H   0  0  0  0  0  0  0  0  0  0  0  0
    1.1631    0.1621    1.9970 H   0  0  0  0  0  0  0  0  0  0  0  0
    2.2296   -0.7944    0.9791 H   0  0  0  0  0  0  0  0  0  0  0  0
    0.7280    1.9319    0.3252 H   0  0  0  0  0  0  0  0  0  0  0  0
    2.2232    1.0271   -0.4893 H   0  0  0  0  0  0  0  0  0  0  0  0
    0.7382    0.3777   -2.2351 H   0  0  0  0  0  0  0  0  0  0  0  0
   -0.6635    0.6736   -1.2173 H   0  0  0  0  0  0  0  0  0  0  0  0
    1.1399   -1.7681   -1.1648 H   0  0  0  0  0  0  0  0  0  0  0  0
   -0.8899   -2.0996   -2.5572 H   0  0  0  0  0  0  0  0  0  0  0  0
   -1.8938   -1.5593   -1.2183 H   0  0  0  0  0  0  0  0  0  0  0  0
  1  2  2  3
  1  5  1  0
  1  6  1  0
  2  3  1  0
  2 28  1  0
  3  4  2  3
  3  7  1  0
  4  8  1  0
  4  9  1  0
 10 11  1  0
 10 18  1  0
 10 19  1  0
 10 20  1  0
 11 12  1  0
 11 21  1  0
 11 22  1  0
 12 13  1  0
 12 23  1  0
 12 24  1  0
 13 14  1  0
 13 17  1  0
 13 25  1  0
 14 15  1  0
 14 26  1  0
 14 27  1  0
 15 16  1  0
 15 29  1  0
 16 17  1  0
 16 30  1  0
 16 31  1  0
 17 18  1  0
 17 32  1  0
 18 33  1  0
 18 34  1  0
M  RAD  1  15   2
M  END
>  <reaction>  (15) 
rxn_618

>  <mol_properties>  (15) 
{"1": {"label": "*3", "atom_type": "Cd"}, "2": {"label": "*4", "atom_type": "Cd"}, "13": {"label": "*0", "atom_type": "Cs"}, "14": {"label": "*1", "atom_type": "Cs"}, "27": {"label": "*2", "atom_type": "H0"}}

>  <type>  (15) 
unop_11

>  <geom_source>  (15) 
Heuristics

$$$$

     RDKit          3D

 34 34  0  0  0  0  0  0  0  0999 V2000
    0.0704    4.2120   -0.4200 C   0  0  0  0  0  0  0  0  0  0  0  0
    0.1886    3.1769    0.4050 C   0  0  0  0  0  0  0  0  0  0  0  0
   -0.2021    3.2039    1.8082 C   0  0  0  0  0  0  0  0  0  0  0  0
   -0.0840    2.1688    2.6331 C   0  0  0  0  0  0  0  0  0  0  0  0
    0.3736    4.1484   -1.4568 H   0  0  0  0  0  0  0  0  0  0  0  0
   -0.3352    5.1590   -0.0812 H   0  0  0  0  0  0  0  0  0  0  0  0
   -0.6124    4.1400    2.1772 H   0  0  0  0  0  0  0  0  0  0  0  0
   -0.3871    2.2323    3.6699 H   0  0  0  0  0  0  0  0  0  0  0  0
    0.3216    1.2217    2.2944 H   0  0  0  0  0  0  0  0  0  0  0  0
   -0.9977   -3.3555   -1.2474 C   0  0  0  0  0  0  0  0  0  0  0  0
   -0.9977   -3.3555    0.2832 C   0  0  0  0  0  0  0  0  0  0  0  0
    0.1454   -2.5191    0.8652 C   0  0  0  0  0  0  0  0  0  0  0  0
    0.1058   -1.1181    0.2810 C   0  0  0  0  0  0  0  0  0  0  0  0
    1.2248   -0.1444    0.6365 C   0  0  0  0  0  0  0  0  0  0  0  0
    1.1749    0.9262   -0.4821 C   0  0  0  0  0  3  0  0  0  0  0  0
    0.2814    0.3344   -1.6008 C   0  0  0  0  0  0  0  0  0  0  0  0
    0.1563   -1.1438   -1.2453 C   0  0  0  0  0  0  0  0  0  0  0  0
   -0.9977   -1.9391   -1.8294 C   0  0  0  0  0  0  0  0  0  0  0  0
   -0.1053   -3.8823   -1.6034 H   0  0  0  0  0  0  0  0  0  0  0  0
   -1.8586   -3.9166   -1.6182 H   0  0  0  0  0  0  0  0  0  0  0  0
   -1.9499   -2.9464    0.6391 H   0  0  0  0  0  0  0  0  0  0  0  0
   -0.9422   -4.3816    0.6539 H   0  0  0  0  0  0  0  0  0  0  0  0
    0.0781   -2.4932    1.9560 H   0  0  0  0  0  0  0  0  0  0  0  0
    1.1069   -2.9842    0.6171 H   0  0  0  0  0  0  0  0  0  0  0  0
   -0.8530   -0.6593    0.5636 H   0  0  0  0  0  0  0  0  0  0  0  0
    1.1160    0.2836    1.6339 H   0  0  0  0  0  0  0  0  0  0  0  0
    2.1825   -0.6729    0.6161 H   0  0  0  0  0  0  0  0  0  0  0  0
    0.6809    2.0535   -0.0378 H   0  0  0  0  0  0  0  0  0  0  0  0
    2.1761    1.1487   -0.8524 H   0  0  0  0  0  0  0  0  0  0  0  0
    0.6910    0.4992   -2.5982 H   0  0  0  0  0  0  0  0  0  0  0  0
   -0.7106    0.7951   -1.5803 H   0  0  0  0  0  0  0  0  0  0  0  0
    1.0928   -1.6466   -1.5279 H   0  0  0  0  0  0  0  0  0  0  0  0
   -0.9371   -1.9780   -2.9203 H   0  0  0  0  0  0  0  0  0  0  0  0
   -1.9409   -1.4377   -1.5814 H   0  0  0  0  0  0  0  0  0  0  0  0
  1  2  2  3
  1  5  1  0
  1  6  1  0
  2  3  1  0
  2 28  1  0
  3  4  2  3
  3  7  1  0
  4  8  1  0
  4  9  1  0
 10 11  1  0
 10 18  1  0
 10 19  1  0
 10 20  1  0
 11 12  1  0
 11 21  1  0
 11 22  1  0
 12 13  1  0
 12 23  1  0
 12 24  1  0
 13 14  1  0
 13 17  1  0
 13 25  1  0
 14 15  1  0
 14 26  1  0
 14 27  1  0
 15 16  1  0
 15 29  1  0
 16 17  1  0
 16 30  1  0
 16 31  1  0
 17 18  1  0
 17 32  1  0
 18 33  1  0
 18 34  1  0
M  RAD  1  15   2
M  END
>  <reaction>  (16) 
rxn_618

>  <mol_properties>  (16) 
{"1": {"label": "*3", "atom_type": "Cd"}, "2": {"label": "*4", "atom_type": "Cd"}, "13": {"label": "*0", "atom_type": "Cs"}, "14": {"label": "*1", "atom_type": "Cs"}, "27": {"label": "*2", "atom_type": "H0"}}

>  <type>  (16) 
unop_12

>  <geom_source>  (16) 
Heuristics

$$$$

     RDKit          3D

 34 34  0  0  0  0  0  0  0  0999 V2000
   -1.3507   -0.6132    0.4099 C   0  0  0  0  0  0  0  0  0  0  0  0
   -1.3492    0.3276   -0.7786 C   0  0  0  0  0  0  0  0  0  0  0  0
   -2.6907   -1.3702    0.5005 C   0  0  0  0  0  0  0  0  0  0  0  0
   -2.3351    1.4907   -0.5510 C   0  0  0  0  0  0  0  0  0  0  0  0
   -3.8861   -0.4804    0.0667 C   0  0  0  0  0  0  0  0  0  0  0  0
   -3.6010    1.0308    0.2203 C   0  0  0  0  0  0  0  0  0  0  0  0
   -0.1058   -1.4635    0.2055 C   0  0  0  0  0  0  0  0  0  0  0  0
    0.1152    0.7057   -0.9472 C   0  0  0  0  0  0  0  0  0  0  0  0
    0.8950   -0.5276   -0.4805 C   0  0  0  0  0  3  0  0  0  0  0  0
    4.1180    1.0491   -0.1143 C   0  0  0  0  0  0  0  0  0  0  0  0
    3.3850   -0.2180    0.1011 C   0  0  0  0  0  0  0  0  0  0  0  0
    5.2773    1.3698    0.4629 C   0  0  0  0  0  0  0  0  0  0  0  0
    3.7854   -1.2075    0.9005 C   0  0  0  0  0  0  0  0  0  0  0  0
   -1.2127   -0.0207    1.3458 H   0  0  0  0  0  0  0  0  0  0  0  0
   -1.6656   -0.2340   -1.6899 H   0  0  0  0  0  0  0  0  0  0  0  0
   -2.6719   -2.2769   -0.1427 H   0  0  0  0  0  0  0  0  0  0  0  0
   -2.8391   -1.7073    1.5494 H   0  0  0  0  0  0  0  0  0  0  0  0
   -4.1243   -0.6850   -1.0003 H   0  0  0  0  0  0  0  0  0  0  0  0
   -4.7842   -0.7499    0.6631 H   0  0  0  0  0  0  0  0  0  0  0  0
   -3.4700    1.2542    1.3020 H   0  0  0  0  0  0  0  0  0  0  0  0
   -4.4809    1.6109   -0.1324 H   0  0  0  0  0  0  0  0  0  0  0  0
   -2.6314    1.9050   -1.5391 H   0  0  0  0  0  0  0  0  0  0  0  0
   -1.8483    2.3092    0.0227 H   0  0  0  0  0  0  0  0  0  0  0  0
   -0.3219   -2.3308   -0.4570 H   0  0  0  0  0  0  0  0  0  0  0  0
    0.2979   -1.8251    1.1749 H   0  0  0  0  0  0  0  0  0  0  0  0
    0.3463    0.9594   -2.0045 H   0  0  0  0  0  0  0  0  0  0  0  0
    0.3842    1.5617   -0.2918 H   0  0  0  0  0  0  0  0  0  0  0  0
    1.3815   -1.0400   -1.3390 H   0  0  0  0  0  0  0  0  0  0  0  0
    3.6731    1.7653   -0.7934 H   0  0  0  0  0  0  0  0  0  0  0  0
    2.3083   -0.3659   -0.5166 H   0  0  0  0  0  0  0  0  0  0  0  0
    5.7885    0.7143    1.1518 H   0  0  0  0  0  0  0  0  0  0  0  0
    5.7373    2.3241    0.2408 H   0  0  0  0  0  0  0  0  0  0  0  0
    3.1751   -2.0964    0.9893 H   0  0  0  0  0  0  0  0  0  0  0  0
    4.7008   -1.1652    1.4712 H   0  0  0  0  0  0  0  0  0  0  0  0
  1  3  1  0
  1  7  1  0
  1  2  1  0
  1 14  1  0
  2  4  1  0
  2  8  1  0
  2 15  1  0
  3  5  1  0
  3 16  1  0
  3 17  1  0
  4  6  1  0
  4 22  1  0
  4 23  1  0
  5  6  1  0
  5 18  1  0
  5 19  1  0
  6 20  1  0
  6 21  1  0
  7  9  1  0
  7 24  1  0
  7 25  1  0
  8  9  1  0
  8 26  1  0
  8 27  1  0
  9 28  1  0
 10 12  2  3
 10 11  1  0
 10 29  1  0
 11 13  2  3
 11 30  1  0
 12 31  1  0
 12 32  1  0
 13 33  1  0
 13 34  1  0
M  RAD  1   9   2
M  END
>  <reaction>  (17) 
rxn_618

>  <mol_properties>  (17) 
{"1": {"label": "*3", "atom_type": "Cd"}, "2": {"label": "*4", "atom_type": "Cd"}, "13": {"label": "*0", "atom_type": "Cs"}, "14": {"label": "*1", "atom_type": "Cs"}, "27": {"label": "*2", "atom_type": "H0"}}

>  <type>  (17) 
unop_13

>  <geom_source>  (17) 
AutoTST

$$$$

     RDKit          3D

 34 34  0  0  0  0  0  0  0  0999 V2000
   -0.2600    4.0435   -0.4990 C   0  0  0  0  0  0  0  0  0  0  0  0
    0.0925    3.1352    0.4046 C   0  0  0  0  0  0  0  0  0  0  0  0
    0.3212    3.4318    1.8125 C   0  0  0  0  0  0  0  0  0  0  0  0
    0.6738    2.5235    2.7162 C   0  0  0  0  0  0  0  0  0  0  0  0
   -0.4200    3.7794   -1.5361 H   0  0  0  0  0  0  0  0  0  0  0  0
   -0.3999    5.0840   -0.2272 H   0  0  0  0  0  0  0  0  0  0  0  0
    0.1886    4.4669    2.1155 H   0  0  0  0  0  0  0  0  0  0  0  0
    0.8337    2.7875    3.7533 H   0  0  0  0  0  0  0  0  0  0  0  0
    0.8137    1.4830    2.4443 H   0  0  0  0  0  0  0  0  0  0  0  0
   -1.0938   -3.3972   -1.2478 C   0  0  0  0  0  0  0  0  0  0  0  0
   -1.0938   -3.3972    0.2828 C   0  0  0  0  0  0  0  0  0  0  0  0
    0.0493   -2.5608    0.8648 C   0  0  0  0  0  0  0  0  0  0  0  0
    0.0097   -1.1598    0.2807 C   0  0  0  0  0  0  0  0  0  0  0  0
    1.1288   -0.1860    0.6361 C   0  0  0  0  0  0  0  0  0  0  0  0
    1.0788    0.8845   -0.4825 C   0  0  0  0  0  3  0  0  0  0  0  0
    0.1853    0.2927   -1.6011 C   0  0  0  0  0  0  0  0  0  0  0  0
    0.0602   -1.1855   -1.2456 C   0  0  0  0  0  0  0  0  0  0  0  0
   -1.0938   -1.9808   -1.8298 C   0  0  0  0  0  0  0  0  0  0  0  0
   -0.2014   -3.9240   -1.6037 H   0  0  0  0  0  0  0  0  0  0  0  0
   -1.9547   -3.9583   -1.6185 H   0  0  0  0  0  0  0  0  0  0  0  0
   -2.0459   -2.9880    0.6388 H   0  0  0  0  0  0  0  0  0  0  0  0
   -1.0383   -4.4233    0.6535 H   0  0  0  0  0  0  0  0  0  0  0  0
   -0.0179   -2.5349    1.9557 H   0  0  0  0  0  0  0  0  0  0  0  0
    1.0109   -3.0259    0.6168 H   0  0  0  0  0  0  0  0  0  0  0  0
   -0.9491   -0.7010    0.5632 H   0  0  0  0  0  0  0  0  0  0  0  0
    1.0199    0.2419    1.6336 H   0  0  0  0  0  0  0  0  0  0  0  0
    2.0864   -0.7146    0.6157 H   0  0  0  0  0  0  0  0  0  0  0  0
    0.5848    2.0118   -0.0382 H   0  0  0  0  0  0  0  0  0  0  0  0
    2.0800    1.1070   -0.8527 H   0  0  0  0  0  0  0  0  0  0  0  0
    0.5949    0.4576   -2.5985 H   0  0  0  0  0  0  0  0  0  0  0  0
   -0.8067    0.7534   -1.5807 H   0  0  0  0  0  0  0  0  0  0  0  0
    0.9967   -1.6883   -1.5282 H   0  0  0  0  0  0  0  0  0  0  0  0
   -1.0332   -2.0197   -2.9206 H   0  0  0  0  0  0  0  0  0  0  0  0
   -2.0370   -1.4794   -1.5817 H   0  0  0  0  0  0  0  0  0  0  0  0
  1  2  2  3
  1  5  1  0
  1  6  1  0
  2  3  1  0
  2 28  1  0
  3  4  2  3
  3  7  1  0
  4  8  1  0
  4  9  1  0
 10 11  1  0
 10 18  1  0
 10 19  1  0
 10 20  1  0
 11 12  1  0
 11 21  1  0
 11 22  1  0
 12 13  1  0
 12 23  1  0
 12 24  1  0
 13 14  1  0
 13 17  1  0
 13 25  1  0
 14 15  1  0
 14 26  1  0
 14 27  1  0
 15 16  1  0
 15 29  1  0
 16 17  1  0
 16 30  1  0
 16 31  1  0
 17 18  1  0
 17 32  1  0
 18 33  1  0
 18 34  1  0
M  RAD  1  15   2
M  END
>  <reaction>  (18) 
rxn_618

>  <mol_properties>  (18) 
{"1": {"label": "*3", "atom_type": "Cd"}, "2": {"label": "*4", "atom_type": "Cd"}, "13": {"label": "*0", "atom_type": "Cs"}, "14": {"label": "*1", "atom_type": "Cs"}, "27": {"label": "*2", "atom_type": "H0"}}

>  <type>  (18) 
unop_14

>  <geom_source>  (18) 
gaussian_log

$$$$
