
     RDKit          3D

 13 12  0  0  0  0  0  0  0  0999 V2000
    3.0977   -0.3549   -0.5105 C   0  0  0  0  0  0  0  0  0  0  0  0
    2.0556    0.4221   -0.2627 C   0  0  0  0  0  0  0  0  0  0  0  0
    0.6313   -0.0354   -0.2366 C   0  0  0  0  0  0  0  0  0  0  0  0
   -0.2567    0.6038   -1.2694 C   0  0  0  0  0  0  0  0  0  0  0  0
    0.1459    1.3456   -2.2891 C   0  0  0  0  0  0  0  0  0  0  0  0
    4.1081    0.0344   -0.5074 H   0  0  0  0  0  0  0  0  0  0  0  0
    2.9777   -1.4116   -0.7243 H   0  0  0  0  0  0  0  0  0  0  0  0
    2.2171    1.4781   -0.0618 H   0  0  0  0  0  0  0  0  0  0  0  0
    0.5865   -1.1233   -0.3540 H   0  0  0  0  0  0  0  0  0  0  0  0
    0.2065    0.1743    0.7521 H   0  0  0  0  0  0  0  0  0  0  0  0
   -1.3190    0.4126   -1.1445 H   0  0  0  0  0  0  0  0  0  0  0  0
    1.1948    1.5564   -2.4628 H   0  0  0  0  0  0  0  0  0  0  0  0
   -0.5644    1.7621   -2.9918 H   0  0  0  0  0  0  0  0  0  0  0  0
  1  2  2  3
  1  6  1  0
  1  7  1  0
  2  3  1  0
  2  8  1  0
  3  4  1  0
  3  9  1  0
  3 10  1  0
  4  5  2  3
  4 11  1  0
  5 12  1  0
  5 13  1  0
M  END
>  <reaction>  (1) 
rxn_1143

>  <mol_properties>  (1) 
{"2": {"label": "donator", "atom_type": "Cs"}, "8": {"label": "d_hydrogen", "atom_type": "H0"}}

>  <type>  (1) 
r1h

$$$$

     RDKit          3D

  8  7  0  0  0  0  0  0  0  0999 V2000
    1.4038   -0.4003    0.0140 C   0  0  0  0  0  0  0  0  0  0  0  0
    0.2804    0.0563    0.4920 C   0  0  0  0  0  3  0  0  0  0  0  0
   -1.0935    0.3323    0.0625 C   0  0  0  0  0  0  0  0  0  0  0  0
    1.4898   -0.7154   -1.0285 H   0  0  0  0  0  0  0  0  0  0  0  0
    2.2990   -0.4891    0.6210 H   0  0  0  0  0  0  0  0  0  0  0  0
   -1.3399    1.3883    0.1900 H   0  0  0  0  0  0  0  0  0  0  0  0
   -1.2285    0.0762   -0.9967 H   0  0  0  0  0  0  0  0  0  0  0  0
   -1.8111   -0.2482    0.6457 H   0  0  0  0  0  0  0  0  0  0  0  0
  1  2  2  3
  1  4  1  0
  1  5  1  0
  2  3  1  0
  3  6  1  0
  3  7  1  0
  3  8  1  0
M  RAD  1   2   2
M  END
>  <reaction>  (2) 
rxn_1143

>  <mol_properties>  (2) 
{"1": {"label": "acceptor", "atom_type": "Cd"}}

>  <type>  (2) 
r2

$$$$

     RDKit          3D

  9  8  0  0  0  0  0  0  0  0999 V2000
    1.1303   -0.2933   -0.7510 C   0  0  0  0  0  0  0  0  0  0  0  0
    0.2866    0.4560   -0.0588 C   0  0  0  0  0  0  0  0  0  0  0  0
   -0.9719   -0.0331    0.5823 C   0  0  0  0  0  0  0  0  0  0  0  0
    2.0274    0.1230   -1.1916 H   0  0  0  0  0  0  0  0  0  0  0  0
    0.9532   -1.3530   -0.9023 H   0  0  0  0  0  0  0  0  0  0  0  0
    0.5065    1.5132    0.0659 H   0  0  0  0  0  0  0  0  0  0  0  0
   -0.9526    0.1426    1.6610 H   0  0  0  0  0  0  0  0  0  0  0  0
   -1.1182   -1.1002    0.4106 H   0  0  0  0  0  0  0  0  0  0  0  0
   -1.8412    0.5010    0.1901 H   0  0  0  0  0  0  0  0  0  0  0  0
  1  2  2  3
  1  4  1  0
  1  5  1  0
  2  3  1  0
  2  6  1  0
  3  7  1  0
  3  8  1  0
  3  9  1  0
M  END
>  <reaction>  (3) 
rxn_1143

>  <mol_properties>  (3) 
{"1": {"label": "acceptor", "atom_type": "Cd"}, "8": {"label": "a_hydrogen", "atom_type": "H0"}}

>  <type>  (3) 
r2h

$$$$

     RDKit          3D

 21 19  0  0  0  0  0  0  0  0999 V2000
   -1.9965    1.8464   -0.9779 C   0  0  0  0  0  0  0  0  0  0  0  0
   -0.7878    1.4769   -0.6291 C   0  0  0  0  0  3  0  0  0  0  0  0
    0.5567    2.0643   -0.7815 C   0  0  0  0  0  0  0  0  0  0  0  0
   -2.1751    2.7849   -1.5023 H   0  0  0  0  0  0  0  0  0  0  0  0
   -2.8666    1.2367   -0.7592 H   0  0  0  0  0  0  0  0  0  0  0  0
    1.2030    1.3935   -1.3522 H   0  0  0  0  0  0  0  0  0  0  0  0
    0.5121    3.0301   -1.2956 H   0  0  0  0  0  0  0  0  0  0  0  0
    1.0252    2.2085    0.1946 H   0  0  0  0  0  0  0  0  0  0  0  0
    0.1392   -1.6639   -1.6193 C   0  0  0  0  0  0  0  0  0  0  0  0
    0.2555   -1.7419   -0.3010 C   0  0  0  0  0  0  0  0  0  0  0  0
   -0.4745   -0.8839    0.6748 C   0  0  0  0  0  0  0  0  0  0  0  0
    0.2250   -0.5365    1.9285 C   0  0  0  0  0  0  0  0  0  0  0  0
    1.5433   -0.5413    2.1071 C   0  0  0  0  0  0  0  0  0  0  0  0
    0.6752   -2.3427   -2.2705 H   0  0  0  0  0  0  0  0  0  0  0  0
   -0.4973   -0.9223   -2.0901 H   0  0  0  0  0  0  0  0  0  0  0  0
    0.9192   -2.4913    0.1252 H   0  0  0  0  0  0  0  0  0  0  0  0
   -0.6938    0.1937    0.0977 H   0  0  0  0  0  0  0  0  0  0  0  0
   -1.4884   -1.2437    0.8614 H   0  0  0  0  0  0  0  0  0  0  0  0
   -0.4090   -0.2057    2.7458 H   0  0  0  0  0  0  0  0  0  0  0  0
    2.2262   -0.8452    1.3217 H   0  0  0  0  0  0  0  0  0  0  0  0
    1.9818   -0.2418    3.0501 H   0  0  0  0  0  0  0  0  0  0  0  0
  1  2  2  3
  1  4  1  0
  1  5  1  0
  2  3  1  0
  3  6  1  0
  3  7  1  0
  3  8  1  0
  9 10  2  3
  9 14  1  0
  9 15  1  0
 10 11  1  0
 10 16  1  0
 11 12  1  0
 11 17  1  0
 11 18  1  0
 12 13  2  3
 12 19  1  0
 13 20  1  0
 13 21  1  0
M  RAD  1   2   2
M  END
>  <reaction>  (4) 
rxn_1143

>  <mol_properties>  (4) 
{"0": {"label": "*4", "atom_type": "Cd"}, "1": {"label": "*3", "atom_type": "Cd"}, "9": {"label": "*0", "atom_type": "Cd"}, "10": {"label": "*1", "atom_type": "Cs"}, "16": {"label": "*2", "atom_type": "H0"}}

>  <type>  (4) 
ts

$$$$

     RDKit          3D

 21 19  0  0  0  0  0  0  0  0999 V2000
   -1.6922    2.3106   -0.5660 C   0  0  0  0  0  0  0  0  0  0  0  0
   -0.6532    1.5126   -0.7557 C   0  0  0  0  0  0  0  0  0  0  0  0
    0.7560    1.9680   -0.9581 C   0  0  0  0  0  0  0  0  0  0  0  0
   -1.5807    3.3896   -0.5447 H   0  0  0  0  0  0  0  0  0  0  0  0
   -2.6908    1.9166   -0.4251 H   0  0  0  0  0  0  0  0  0  0  0  0
    1.1429    1.6200   -1.9194 H   0  0  0  0  0  0  0  0  0  0  0  0
    0.8313    3.0557   -0.9309 H   0  0  0  0  0  0  0  0  0  0  0  0
    1.4119    1.5580   -0.1858 H   0  0  0  0  0  0  0  0  0  0  0  0
   -0.4139   -1.8493   -1.4414 C   0  0  0  0  0  0  0  0  0  0  0  0
   -0.4139   -1.8493   -0.1182 C   0  0  0  0  0  0  0  0  0  0  0  0
   -0.4139   -0.6235    0.7398 C   0  0  0  0  0  3  0  0  0  0  0  0
    0.7958   -0.4691    1.6210 C   0  0  0  0  0  0  0  0  0  0  0  0
    1.9069   -1.1848    1.5486 C   0  0  0  0  0  0  0  0  0  0  0  0
   -0.4221   -2.7720   -2.0080 H   0  0  0  0  0  0  0  0  0  0  0  0
   -0.4076   -0.9238   -2.0074 H   0  0  0  0  0  0  0  0  0  0  0  0
   -0.4114   -2.7980    0.4123 H   0  0  0  0  0  0  0  0  0  0  0  0
   -0.5340    0.4485   -0.0107 H   0  0  0  0  0  0  0  0  0  0  0  0
   -1.3019   -0.6370    1.3826 H   0  0  0  0  0  0  0  0  0  0  0  0
    0.7231    0.3159    2.3687 H   0  0  0  0  0  0  0  0  0  0  0  0
    2.0324   -1.9717    0.8137 H   0  0  0  0  0  0  0  0  0  0  0  0
    2.7352   -1.0005    2.2209 H   0  0  0  0  0  0  0  0  0  0  0  0
  1  2  2  3
  1  4  1  0
  1  5  1  0
  2  3  1  0
  2 17  1  0
  3  6  1  0
  3  7  1  0
  3  8  1  0
  9 10  2  3
  9 14  1  0
  9 15  1  0
 10 11  1  0
 10 16  1  0
 11 12  1  0
 11 18  1  0
 12 13  2  3
 12 19  1  0
 13 20  1  0
 13 21  1  0
M  RAD  1  11   2
M  END
>  <reaction>  (5) 
rxn_1143

>  <mol_properties>  (5) 
{"0": {"label": "*4", "atom_type": "Cd"}, "1": {"label": "*3", "atom_type": "Cd"}, "9": {"label": "*0", "atom_type": "Cd"}, "10": {"label": "*1", "atom_type": "Cs"}, "16": {"label": "*2", "atom_type": "H0"}}

>  <type>  (5) 
unop_1

>  <geom_source>  (5) 
Heuristics

$$$$

     RDKit          3D

 21 19  0  0  0  0  0  0  0  0999 V2000
   -1.2148    1.4241   -1.8458 C   0  0  0  0  0  0  0  0  0  0  0  0
   -0.5460    1.5147   -0.7071 C   0  0  0  0  0  0  0  0  0  0  0  0
   -0.2247    2.7902    0.0030 C   0  0  0  0  0  0  0  0  0  0  0  0
   -1.5868    2.3066   -2.3556 H   0  0  0  0  0  0  0  0  0  0  0  0
   -1.4154    0.4668   -2.3103 H   0  0  0  0  0  0  0  0  0  0  0  0
    0.8558    2.9110    0.1157 H   0  0  0  0  0  0  0  0  0  0  0  0
   -0.6127    3.6553   -0.5362 H   0  0  0  0  0  0  0  0  0  0  0  0
   -0.6503    2.7927    1.0098 H   0  0  0  0  0  0  0  0  0  0  0  0
   -0.3067   -1.8471   -1.3928 C   0  0  0  0  0  0  0  0  0  0  0  0
   -0.3067   -1.8471   -0.0695 C   0  0  0  0  0  0  0  0  0  0  0  0
   -0.3067   -0.6213    0.7885 C   0  0  0  0  0  3  0  0  0  0  0  0
    0.9030   -0.4669    1.6697 C   0  0  0  0  0  0  0  0  0  0  0  0
    2.0142   -1.1826    1.5973 C   0  0  0  0  0  0  0  0  0  0  0  0
   -0.3149   -2.7698   -1.9593 H   0  0  0  0  0  0  0  0  0  0  0  0
   -0.3004   -0.9217   -1.9587 H   0  0  0  0  0  0  0  0  0  0  0  0
   -0.3041   -2.7959    0.4610 H   0  0  0  0  0  0  0  0  0  0  0  0
   -0.4268    0.4507    0.0379 H   0  0  0  0  0  0  0  0  0  0  0  0
   -1.1947   -0.6348    1.4313 H   0  0  0  0  0  0  0  0  0  0  0  0
    0.8303    0.3181    2.4174 H   0  0  0  0  0  0  0  0  0  0  0  0
    2.1396   -1.9695    0.8624 H   0  0  0  0  0  0  0  0  0  0  0  0
    2.8424   -0.9983    2.2696 H   0  0  0  0  0  0  0  0  0  0  0  0
  1  2  2  3
  1  4  1  0
  1  5  1  0
  2  3  1  0
  2 17  1  0
  3  6  1  0
  3  7  1  0
  3  8  1  0
  9 10  2  3
  9 14  1  0
  9 15  1  0
 10 11  1  0
 10 16  1  0
 11 12  1  0
 11 18  1  0
 12 13  2  3
 12 19  1  0
 13 20  1  0
 13 21  1  0
M  RAD  1  11   2
M  END
>  <reaction>  (6) 
rxn_1143

>  <mol_properties>  (6) 
{"0": {"label": "*4", "atom_type": "Cd"}, "1": {"label": "*3", "atom_type": "Cd"}, "9": {"label": "*0", "atom_type": "Cd"}, "10": {"label": "*1", "atom_type": "Cs"}, "16": {"label": "*2", "atom_type": "H0"}}

>  <type>  (6) 
unop_2

>  <geom_source>  (6) 
Heuristics

$$$$

     RDKit          3D

 21 19  0  0  0  0  0  0  0  0999 V2000
   -1.2770    2.6037   -0.1861 C   0  0  0  0  0  0  0  0  0  0  0  0
   -0.6747    1.5375   -0.6889 C   0  0  0  0  0  0  0  0  0  0  0  0
    0.4725    1.5688   -1.6466 C   0  0  0  0  0  0  0  0  0  0  0  0
   -0.9622    3.6081   -0.4488 H   0  0  0  0  0  0  0  0  0  0  0  0
   -2.1052    2.5130    0.5054 H   0  0  0  0  0  0  0  0  0  0  0  0
    0.2169    1.0545   -2.5766 H   0  0  0  0  0  0  0  0  0  0  0  0
    0.7622    2.5922   -1.8884 H   0  0  0  0  0  0  0  0  0  0  0  0
    1.3419    1.0544   -1.2290 H   0  0  0  0  0  0  0  0  0  0  0  0
   -0.4354   -1.8244   -1.3746 C   0  0  0  0  0  0  0  0  0  0  0  0
   -0.4354   -1.8244   -0.0514 C   0  0  0  0  0  0  0  0  0  0  0  0
   -0.4354   -0.5986    0.8066 C   0  0  0  0  0  3  0  0  0  0  0  0
    0.7743   -0.4442    1.6878 C   0  0  0  0  0  0  0  0  0  0  0  0
    1.8855   -1.1599    1.6154 C   0  0  0  0  0  0  0  0  0  0  0  0
   -0.4436   -2.7471   -1.9412 H   0  0  0  0  0  0  0  0  0  0  0  0
   -0.4291   -0.8989   -1.9406 H   0  0  0  0  0  0  0  0  0  0  0  0
   -0.4329   -2.7731    0.4791 H   0  0  0  0  0  0  0  0  0  0  0  0
   -0.5555    0.4734    0.0561 H   0  0  0  0  0  0  0  0  0  0  0  0
   -1.3234   -0.6120    1.4494 H   0  0  0  0  0  0  0  0  0  0  0  0
    0.7016    0.3408    2.4355 H   0  0  0  0  0  0  0  0  0  0  0  0
    2.0109   -1.9467    0.8805 H   0  0  0  0  0  0  0  0  0  0  0  0
    2.7137   -0.9756    2.2877 H   0  0  0  0  0  0  0  0  0  0  0  0
  1  2  2  3
  1  4  1  0
  1  5  1  0
  2  3  1  0
  2 17  1  0
  3  6  1  0
  3  7  1  0
  3  8  1  0
  9 10  2  3
  9 14  1  0
  9 15  1  0
 10 11  1  0
 10 16  1  0
 11 12  1  0
 11 18  1  0
 12 13  2  3
 12 19  1  0
 13 20  1  0
 13 21  1  0
M  RAD  1  11   2
M  END
>  <reaction>  (7) 
rxn_1143

>  <mol_properties>  (7) 
{"0": {"label": "*4", "atom_type": "Cd"}, "1": {"label": "*3", "atom_type": "Cd"}, "9": {"label": "*0", "atom_type": "Cd"}, "10": {"label": "*1", "atom_type": "Cs"}, "16": {"label": "*2", "atom_type": "H0"}}

>  <type>  (7) 
unop_3

>  <geom_source>  (7) 
Heuristics

$$$$

     RDKit          3D

 21 19  0  0  0  0  0  0  0  0999 V2000
    0.3170    1.7451   -1.6608 C   0  0  0  0  0  0  0  0  0  0  0  0
   -0.6055    1.5029   -0.7428 C   0  0  0  0  0  0  0  0  0  0  0  0
   -1.3687    2.5471    0.0065 C   0  0  0  0  0  0  0  0  0  0  0  0
    0.5875    2.7586   -1.9378 H   0  0  0  0  0  0  0  0  0  0  0  0
    0.8352    0.9415   -2.1688 H   0  0  0  0  0  0  0  0  0  0  0  0
   -1.2063    2.4499    1.0830 H   0  0  0  0  0  0  0  0  0  0  0  0
   -1.0720    3.5520   -0.2964 H   0  0  0  0  0  0  0  0  0  0  0  0
   -2.4432    2.4397   -0.1625 H   0  0  0  0  0  0  0  0  0  0  0  0
   -0.3662   -1.8589   -1.4285 C   0  0  0  0  0  0  0  0  0  0  0  0
   -0.3662   -1.8589   -0.1052 C   0  0  0  0  0  0  0  0  0  0  0  0
   -0.3662   -0.6331    0.7528 C   0  0  0  0  0  3  0  0  0  0  0  0
    0.8435   -0.4787    1.6340 C   0  0  0  0  0  0  0  0  0  0  0  0
    1.9546   -1.1944    1.5615 C   0  0  0  0  0  0  0  0  0  0  0  0
   -0.3744   -2.7816   -1.9950 H   0  0  0  0  0  0  0  0  0  0  0  0
   -0.3599   -0.9335   -1.9945 H   0  0  0  0  0  0  0  0  0  0  0  0
   -0.3637   -2.8077    0.4253 H   0  0  0  0  0  0  0  0  0  0  0  0
   -0.4863    0.4389    0.0022 H   0  0  0  0  0  0  0  0  0  0  0  0
   -1.2542   -0.6466    1.3955 H   0  0  0  0  0  0  0  0  0  0  0  0
    0.7708    0.3063    2.3817 H   0  0  0  0  0  0  0  0  0  0  0  0
    2.0801   -1.9813    0.8267 H   0  0  0  0  0  0  0  0  0  0  0  0
    2.7829   -1.0101    2.2339 H   0  0  0  0  0  0  0  0  0  0  0  0
  1  2  2  3
  1  4  1  0
  1  5  1  0
  2  3  1  0
  2 17  1  0
  3  6  1  0
  3  7  1  0
  3  8  1  0
  9 10  2  3
  9 14  1  0
  9 15  1  0
 10 11  1  0
 10 16  1  0
 11 12  1  0
 11 18  1  0
 12 13  2  3
 12 19  1  0
 13 20  1  0
 13 21  1  0
M  RAD  1  11   2
M  END
>  <reaction>  (8) 
rxn_1143

>  <mol_properties>  (8) 
{"0": {"label": "*4", "atom_type": "Cd"}, "1": {"label": "*3", "atom_type": "Cd"}, "9": {"label": "*0", "atom_type": "Cd"}, "10": {"label": "*1", "atom_type": "Cs"}, "16": {"label": "*2", "atom_type": "H0"}}

>  <type>  (8) 
unop_4

>  <geom_source>  (8) 
Heuristics

$$$$

     RDKit          3D

 21 19  0  0  0  0  0  0  0  0999 V2000
   -0.5925    2.7478   -0.0418 C   0  0  0  0  0  0  0  0  0  0  0  0
   -0.5726    1.5598   -0.6254 C   0  0  0  0  0  0  0  0  0  0  0  0
   -0.6771    1.3225   -2.0975 C   0  0  0  0  0  0  0  0  0  0  0  0
   -0.6898    3.6608   -0.6197 H   0  0  0  0  0  0  0  0  0  0  0  0
   -0.5123    2.8524    1.0329 H   0  0  0  0  0  0  0  0  0  0  0  0
   -1.5426    0.6966   -2.3300 H   0  0  0  0  0  0  0  0  0  0  0  0
   -0.7736    2.2599   -2.6466 H   0  0  0  0  0  0  0  0  0  0  0  0
    0.2045    0.7944   -2.4698 H   0  0  0  0  0  0  0  0  0  0  0  0
   -0.3334   -1.8020   -1.3111 C   0  0  0  0  0  0  0  0  0  0  0  0
   -0.3334   -1.8020    0.0121 C   0  0  0  0  0  0  0  0  0  0  0  0
   -0.3334   -0.5762    0.8701 C   0  0  0  0  0  3  0  0  0  0  0  0
    0.8763   -0.4218    1.7513 C   0  0  0  0  0  0  0  0  0  0  0  0
    1.9875   -1.1375    1.6789 C   0  0  0  0  0  0  0  0  0  0  0  0
   -0.3416   -2.7247   -1.8777 H   0  0  0  0  0  0  0  0  0  0  0  0
   -0.3270   -0.8766   -1.8771 H   0  0  0  0  0  0  0  0  0  0  0  0
   -0.3308   -2.7508    0.5427 H   0  0  0  0  0  0  0  0  0  0  0  0
   -0.4535    0.4958    0.1196 H   0  0  0  0  0  0  0  0  0  0  0  0
   -1.2213   -0.5897    1.5129 H   0  0  0  0  0  0  0  0  0  0  0  0
    0.8037    0.3632    2.4991 H   0  0  0  0  0  0  0  0  0  0  0  0
    2.1130   -1.9244    0.9440 H   0  0  0  0  0  0  0  0  0  0  0  0
    2.8157   -0.9532    2.3512 H   0  0  0  0  0  0  0  0  0  0  0  0
  1  2  2  3
  1  4  1  0
  1  5  1  0
  2  3  1  0
  2 17  1  0
  3  6  1  0
  3  7  1  0
  3  8  1  0
  9 10  2  3
  9 14  1  0
  9 15  1  0
 10 11  1  0
 10 16  1  0
 11 12  1  0
 11 18  1  0
 12 13  2  3
 12 19  1  0
 13 20  1  0
 13 21  1  0
M  RAD  1  11   2
M  END
>  <reaction>  (9) 
rxn_1143

>  <mol_properties>  (9) 
{"0": {"label": "*4", "atom_type": "Cd"}, "1": {"label": "*3", "atom_type": "Cd"}, "9": {"label": "*0", "atom_type": "Cd"}, "10": {"label": "*1", "atom_type": "Cs"}, "16": {"label": "*2", "atom_type": "H0"}}

>  <type>  (9) 
unop_5

>  <geom_source>  (9) 
Heuristics

$$$$

     RDKit          3D

 21 19  0  0  0  0  0  0  0  0999 V2000
    0.5306    2.0886   -1.2302 C   0  0  0  0  0  0  0  0  0  0  0  0
   -0.5658    1.5038   -0.7737 C   0  0  0  0  0  0  0  0  0  0  0  0
   -1.7664    2.2199   -0.2447 C   0  0  0  0  0  0  0  0  0  0  0  0
    0.6298    3.1688   -1.2495 H   0  0  0  0  0  0  0  0  0  0  0  0
    1.3681    1.5112   -1.6009 H   0  0  0  0  0  0  0  0  0  0  0  0
   -1.9675    1.9303    0.7899 H   0  0  0  0  0  0  0  0  0  0  0  0
   -1.6325    3.3018   -0.2788 H   0  0  0  0  0  0  0  0  0  0  0  0
   -2.6578    1.9649   -0.8237 H   0  0  0  0  0  0  0  0  0  0  0  0
   -0.3265   -1.8580   -1.4594 C   0  0  0  0  0  0  0  0  0  0  0  0
   -0.3265   -1.8580   -0.1362 C   0  0  0  0  0  0  0  0  0  0  0  0
   -0.3265   -0.6322    0.7218 C   0  0  0  0  0  3  0  0  0  0  0  0
    0.8832   -0.4778    1.6031 C   0  0  0  0  0  0  0  0  0  0  0  0
    1.9943   -1.1935    1.5306 C   0  0  0  0  0  0  0  0  0  0  0  0
   -0.3347   -2.7808   -2.0259 H   0  0  0  0  0  0  0  0  0  0  0  0
   -0.3202   -0.9326   -2.0254 H   0  0  0  0  0  0  0  0  0  0  0  0
   -0.3240   -2.8068    0.3944 H   0  0  0  0  0  0  0  0  0  0  0  0
   -0.4466    0.4398   -0.0287 H   0  0  0  0  0  0  0  0  0  0  0  0
   -1.2145   -0.6457    1.3646 H   0  0  0  0  0  0  0  0  0  0  0  0
    0.8105    0.3072    2.3508 H   0  0  0  0  0  0  0  0  0  0  0  0
    2.1198   -1.9804    0.7957 H   0  0  0  0  0  0  0  0  0  0  0  0
    2.8226   -1.0092    2.2030 H   0  0  0  0  0  0  0  0  0  0  0  0
  1  2  2  3
  1  4  1  0
  1  5  1  0
  2  3  1  0
  2 17  1  0
  3  6  1  0
  3  7  1  0
  3  8  1  0
  9 10  2  3
  9 14  1  0
  9 15  1  0
 10 11  1  0
 10 16  1  0
 11 12  1  0
 11 18  1  0
 12 13  2  3
 12 19  1  0
 13 20  1  0
 13 21  1  0
M  RAD  1  11   2
M  END
>  <reaction>  (10) 
rxn_1143

>  <mol_properties>  (10) 
{"0": {"label": "*4", "atom_type": "Cd"}, "1": {"label": "*3", "atom_type": "Cd"}, "9": {"label": "*0", "atom_type": "Cd"}, "10": {"label": "*1", "atom_type": "Cs"}, "16": {"label": "*2", "atom_type": "H0"}}

>  <type>  (10) 
unop_6

>  <geom_source>  (10) 
Heuristics

$$$$

     RDKit          3D

 21 19  0  0  0  0  0  0  0  0999 V2000
    0.4519    2.4307   -0.7375 C   0  0  0  0  0  0  0  0  0  0  0  0
   -0.5090    1.5206   -0.7673 C   0  0  0  0  0  0  0  0  0  0  0  0
   -1.9742    1.8151   -0.7397 C   0  0  0  0  0  0  0  0  0  0  0  0
    0.2261    3.4908   -0.6893 H   0  0  0  0  0  0  0  0  0  0  0  0
    1.4977    2.1512   -0.7602 H   0  0  0  0  0  0  0  0  0  0  0  0
   -2.4498    1.3418    0.1231 H   0  0  0  0  0  0  0  0  0  0  0  0
   -2.1644    2.8880   -0.6913 H   0  0  0  0  0  0  0  0  0  0  0  0
   -2.4675    1.4178   -1.6305 H   0  0  0  0  0  0  0  0  0  0  0  0
   -0.2698   -1.8412   -1.4530 C   0  0  0  0  0  0  0  0  0  0  0  0
   -0.2698   -1.8412   -0.1297 C   0  0  0  0  0  0  0  0  0  0  0  0
   -0.2698   -0.6154    0.7283 C   0  0  0  0  0  3  0  0  0  0  0  0
    0.9400   -0.4610    1.6095 C   0  0  0  0  0  0  0  0  0  0  0  0
    2.0511   -1.1767    1.5371 C   0  0  0  0  0  0  0  0  0  0  0  0
   -0.2779   -2.7640   -2.0195 H   0  0  0  0  0  0  0  0  0  0  0  0
   -0.2634   -0.9158   -2.0189 H   0  0  0  0  0  0  0  0  0  0  0  0
   -0.2672   -2.7900    0.4008 H   0  0  0  0  0  0  0  0  0  0  0  0
   -0.3898    0.4566   -0.0223 H   0  0  0  0  0  0  0  0  0  0  0  0
   -1.1577   -0.6289    1.3711 H   0  0  0  0  0  0  0  0  0  0  0  0
    0.8673    0.3240    2.3572 H   0  0  0  0  0  0  0  0  0  0  0  0
    2.1766   -1.9636    0.8022 H   0  0  0  0  0  0  0  0  0  0  0  0
    2.8793   -0.9924    2.2094 H   0  0  0  0  0  0  0  0  0  0  0  0
  1  2  2  3
  1  4  1  0
  1  5  1  0
  2  3  1  0
  2 17  1  0
  3  6  1  0
  3  7  1  0
  3  8  1  0
  9 10  2  3
  9 14  1  0
  9 15  1  0
 10 11  1  0
 10 16  1  0
 11 12  1  0
 11 18  1  0
 12 13  2  3
 12 19  1  0
 13 20  1  0
 13 21  1  0
M  RAD  1  11   2
M  END
>  <reaction>  (11) 
rxn_1143

>  <mol_properties>  (11) 
{"0": {"label": "*4", "atom_type": "Cd"}, "1": {"label": "*3", "atom_type": "Cd"}, "9": {"label": "*0", "atom_type": "Cd"}, "10": {"label": "*1", "atom_type": "Cs"}, "16": {"label": "*2", "atom_type": "H0"}}

>  <type>  (11) 
unop_7

>  <geom_source>  (11) 
Heuristics

$$$$

     RDKit          3D

 21 19  0  0  0  0  0  0  0  0999 V2000
   -1.8095    1.9575   -1.0430 C   0  0  0  0  0  0  0  0  0  0  0  0
   -0.5967    1.5021   -0.7712 C   0  0  0  0  0  0  0  0  0  0  0  0
    0.5857    2.3517   -0.4329 C   0  0  0  0  0  0  0  0  0  0  0  0
   -2.0298    3.0198   -1.0367 H   0  0  0  0  0  0  0  0  0  0  0  0
   -2.6260    1.2875   -1.2814 H   0  0  0  0  0  0  0  0  0  0  0  0
    1.3967    2.1920   -1.1481 H   0  0  0  0  0  0  0  0  0  0  0  0
    0.3289    3.4117   -0.4357 H   0  0  0  0  0  0  0  0  0  0  0  0
    0.9790    2.0953    0.5542 H   0  0  0  0  0  0  0  0  0  0  0  0
   -0.3574   -1.8598   -1.4569 C   0  0  0  0  0  0  0  0  0  0  0  0
   -0.3574   -1.8598   -0.1337 C   0  0  0  0  0  0  0  0  0  0  0  0
   -0.3574   -0.6339    0.7243 C   0  0  0  0  0  3  0  0  0  0  0  0
    0.8523   -0.4796    1.6055 C   0  0  0  0  0  0  0  0  0  0  0  0
    1.9635   -1.1953    1.5331 C   0  0  0  0  0  0  0  0  0  0  0  0
   -0.3656   -2.7825   -2.0235 H   0  0  0  0  0  0  0  0  0  0  0  0
   -0.3510   -0.9343   -2.0229 H   0  0  0  0  0  0  0  0  0  0  0  0
   -0.3548   -2.8085    0.3968 H   0  0  0  0  0  0  0  0  0  0  0  0
   -0.4775    0.4380   -0.0262 H   0  0  0  0  0  0  0  0  0  0  0  0
   -1.2454   -0.6474    1.3671 H   0  0  0  0  0  0  0  0  0  0  0  0
    0.7796    0.3054    2.3532 H   0  0  0  0  0  0  0  0  0  0  0  0
    2.0889   -1.9821    0.7982 H   0  0  0  0  0  0  0  0  0  0  0  0
    2.7917   -1.0110    2.2054 H   0  0  0  0  0  0  0  0  0  0  0  0
  1  2  2  3
  1  4  1  0
  1  5  1  0
  2  3  1  0
  2 17  1  0
  3  6  1  0
  3  7  1  0
  3  8  1  0
  9 10  2  3
  9 14  1  0
  9 15  1  0
 10 11  1  0
 10 16  1  0
 11 12  1  0
 11 18  1  0
 12 13  2  3
 12 19  1  0
 13 20  1  0
 13 21  1  0
M  RAD  1  11   2
M  END
>  <reaction>  (12) 
rxn_1143

>  <mol_properties>  (12) 
{"0": {"label": "*4", "atom_type": "Cd"}, "1": {"label": "*3", "atom_type": "Cd"}, "9": {"label": "*0", "atom_type": "Cd"}, "10": {"label": "*1", "atom_type": "Cs"}, "16": {"label": "*2", "atom_type": "H0"}}

>  <type>  (12) 
unop_8

>  <geom_source>  (12) 
Heuristics

$$$$

     RDKit          3D

 21 19  0  0  0  0  0  0  0  0999 V2000
   -0.1210    1.4853   -1.9333 C   0  0  0  0  0  0  0  0  0  0  0  0
   -0.6067    1.5113   -0.7022 C   0  0  0  0  0  0  0  0  0  0  0  0
   -0.9509    2.7495    0.0611 C   0  0  0  0  0  0  0  0  0  0  0  0
    0.0652    2.3991   -2.4878 H   0  0  0  0  0  0  0  0  0  0  0  0
    0.1084    0.5521   -2.4322 H   0  0  0  0  0  0  0  0  0  0  0  0
   -0.3741    2.8082    0.9877 H   0  0  0  0  0  0  0  0  0  0  0  0
   -0.7517    3.6475   -0.5251 H   0  0  0  0  0  0  0  0  0  0  0  0
   -2.0065    2.7507    0.3448 H   0  0  0  0  0  0  0  0  0  0  0  0
   -0.3675   -1.8505   -1.3879 C   0  0  0  0  0  0  0  0  0  0  0  0
   -0.3675   -1.8505   -0.0646 C   0  0  0  0  0  0  0  0  0  0  0  0
   -0.3675   -0.6247    0.7934 C   0  0  0  0  0  3  0  0  0  0  0  0
    0.8422   -0.4703    1.6746 C   0  0  0  0  0  0  0  0  0  0  0  0
    1.9534   -1.1860    1.6021 C   0  0  0  0  0  0  0  0  0  0  0  0
   -0.3757   -2.7733   -1.9544 H   0  0  0  0  0  0  0  0  0  0  0  0
   -0.3611   -0.9251   -1.9539 H   0  0  0  0  0  0  0  0  0  0  0  0
   -0.3649   -2.7993    0.4659 H   0  0  0  0  0  0  0  0  0  0  0  0
   -0.4876    0.4473    0.0428 H   0  0  0  0  0  0  0  0  0  0  0  0
   -1.2554   -0.6382    1.4361 H   0  0  0  0  0  0  0  0  0  0  0  0
    0.7696    0.3147    2.4223 H   0  0  0  0  0  0  0  0  0  0  0  0
    2.0789   -1.9729    0.8673 H   0  0  0  0  0  0  0  0  0  0  0  0
    2.7816   -1.0017    2.2745 H   0  0  0  0  0  0  0  0  0  0  0  0
  1  2  2  3
  1  4  1  0
  1  5  1  0
  2  3  1  0
  2 17  1  0
  3  6  1  0
  3  7  1  0
  3  8  1  0
  9 10  2  3
  9 14  1  0
  9 15  1  0
 10 11  1  0
 10 16  1  0
 11 12  1  0
 11 18  1  0
 12 13  2  3
 12 19  1  0
 13 20  1  0
 13 21  1  0
M  RAD  1  11   2
M  END
>  <reaction>  (13) 
rxn_1143

>  <mol_properties>  (13) 
{"0": {"label": "*4", "atom_type": "Cd"}, "1": {"label": "*3", "atom_type": "Cd"}, "9": {"label": "*0", "atom_type": "Cd"}, "10": {"label": "*1", "atom_type": "Cs"}, "16": {"label": "*2", "atom_type": "H0"}}

>  <type>  (13) 
unop_9

>  <geom_source>  (13) 
Heuristics

$$$$

     RDKit          3D

 21 19  0  0  0  0  0  0  0  0999 V2000
   -1.6301    1.6360   -1.5050 C   0  0  0  0  0  0  0  0  0  0  0  0
   -0.5527    1.5059   -0.7470 C   0  0  0  0  0  0  0  0  0  0  0  0
    0.1990    2.6349   -0.1189 C   0  0  0  0  0  0  0  0  0  0  0  0
   -2.0519    2.6108   -1.7267 H   0  0  0  0  0  0  0  0  0  0  0  0
   -2.1299    0.7755   -1.9316 H   0  0  0  0  0  0  0  0  0  0  0  0
    1.2384    2.6459   -0.4571 H   0  0  0  0  0  0  0  0  0  0  0  0
   -0.2516    3.5980   -0.3620 H   0  0  0  0  0  0  0  0  0  0  0  0
    0.2211    2.5299    0.9688 H   0  0  0  0  0  0  0  0  0  0  0  0
   -0.3134   -1.8560   -1.4327 C   0  0  0  0  0  0  0  0  0  0  0  0
   -0.3134   -1.8560   -0.1095 C   0  0  0  0  0  0  0  0  0  0  0  0
   -0.3134   -0.6301    0.7485 C   0  0  0  0  0  3  0  0  0  0  0  0
    0.8963   -0.4758    1.6297 C   0  0  0  0  0  0  0  0  0  0  0  0
    2.0074   -1.1915    1.5573 C   0  0  0  0  0  0  0  0  0  0  0  0
   -0.3216   -2.7787   -1.9993 H   0  0  0  0  0  0  0  0  0  0  0  0
   -0.3071   -0.9305   -1.9987 H   0  0  0  0  0  0  0  0  0  0  0  0
   -0.3109   -2.8047    0.4211 H   0  0  0  0  0  0  0  0  0  0  0  0
   -0.4335    0.4418   -0.0020 H   0  0  0  0  0  0  0  0  0  0  0  0
   -1.2014   -0.6436    1.3913 H   0  0  0  0  0  0  0  0  0  0  0  0
    0.8236    0.3092    2.3775 H   0  0  0  0  0  0  0  0  0  0  0  0
    2.1329   -1.9783    0.8224 H   0  0  0  0  0  0  0  0  0  0  0  0
    2.8356   -1.0072    2.2296 H   0  0  0  0  0  0  0  0  0  0  0  0
  1  2  2  3
  1  4  1  0
  1  5  1  0
  2  3  1  0
  2 17  1  0
  3  6  1  0
  3  7  1  0
  3  8  1  0
  9 10  2  3
  9 14  1  0
  9 15  1  0
 10 11  1  0
 10 16  1  0
 11 12  1  0
 11 18  1  0
 12 13  2  3
 12 19  1  0
 13 20  1  0
 13 21  1  0
M  RAD  1  11   2
M  END
>  <reaction>  (14) 
rxn_1143

>  <mol_properties>  (14) 
{"0": {"label": "*4", "atom_type": "Cd"}, "1": {"label": "*3", "atom_type": "Cd"}, "9": {"label": "*0", "atom_type": "Cd"}, "10": {"label": "*1", "atom_type": "Cs"}, "16": {"label": "*2", "atom_type": "H0"}}

>  <type>  (14) 
unop_10

>  <geom_source>  (14) 
Heuristics

$$$$

     RDKit          3D

 21 19  0  0  0  0  0  0  0  0999 V2000
    0.0722    2.6792   -0.2940 C   0  0  0  0  0  0  0  0  0  0  0  0
   -0.4801    1.5484   -0.7045 C   0  0  0  0  0  0  0  0  0  0  0  0
   -1.7609    1.4438   -1.4679 C   0  0  0  0  0  0  0  0  0  0  0  0
   -0.3897    3.6402   -0.4946 H   0  0  0  0  0  0  0  0  0  0  0  0
    1.0045    2.6871    0.2566 H   0  0  0  0  0  0  0  0  0  0  0  0
   -2.4906    0.8398   -0.9224 H   0  0  0  0  0  0  0  0  0  0  0  0
   -2.1970    2.4265   -1.6516 H   0  0  0  0  0  0  0  0  0  0  0  0
   -1.6005    0.9528   -2.4312 H   0  0  0  0  0  0  0  0  0  0  0  0
   -0.2409   -1.8135   -1.3902 C   0  0  0  0  0  0  0  0  0  0  0  0
   -0.2409   -1.8135   -0.0670 C   0  0  0  0  0  0  0  0  0  0  0  0
   -0.2409   -0.5877    0.7910 C   0  0  0  0  0  3  0  0  0  0  0  0
    0.9689   -0.4333    1.6723 C   0  0  0  0  0  0  0  0  0  0  0  0
    2.0800   -1.1490    1.5998 C   0  0  0  0  0  0  0  0  0  0  0  0
   -0.2490   -2.7362   -1.9567 H   0  0  0  0  0  0  0  0  0  0  0  0
   -0.2345   -0.8880   -1.9562 H   0  0  0  0  0  0  0  0  0  0  0  0
   -0.2383   -2.7622    0.4636 H   0  0  0  0  0  0  0  0  0  0  0  0
   -0.3609    0.4843    0.0405 H   0  0  0  0  0  0  0  0  0  0  0  0
   -1.1288   -0.6011    1.4338 H   0  0  0  0  0  0  0  0  0  0  0  0
    0.8962    0.3517    2.4200 H   0  0  0  0  0  0  0  0  0  0  0  0
    2.2055   -1.9358    0.8650 H   0  0  0  0  0  0  0  0  0  0  0  0
    2.9082   -0.9647    2.2722 H   0  0  0  0  0  0  0  0  0  0  0  0
  1  2  2  3
  1  4  1  0
  1  5  1  0
  2  3  1  0
  2 17  1  0
  3  6  1  0
  3  7  1  0
  3  8  1  0
  9 10  2  3
  9 14  1  0
  9 15  1  0
 10 11  1  0
 10 16  1  0
 11 12  1  0
 11 18  1  0
 12 13  2  3
 12 19  1  0
 13 20  1  0
 13 21  1  0
M  RAD  1  11   2
M  END
>  <reaction>  (15) 
rxn_1143

>  <mol_properties>  (15) 
{"0": {"label": "*4", "atom_type": "Cd"}, "1": {"label": "*3", "atom_type": "Cd"}, "9": {"label": "*0", "atom_type": "Cd"}, "10": {"label": "*1", "atom_type": "Cs"}, "16": {"label": "*2", "atom_type": "H0"}}

>  <type>  (15) 
unop_11

>  <geom_source>  (15) 
Heuristics

$$$$

     RDKit          3D

 21 19  0  0  0  0  0  0  0  0999 V2000
   -0.6718    1.3699   -1.9971 C   0  0  0  0  0  0  0  0  0  0  0  0
   -0.5751    1.5177   -0.6852 C   0  0  0  0  0  0  0  0  0  0  0  0
   -0.5906    2.8264    0.0367 C   0  0  0  0  0  0  0  0  0  0  0  0
   -0.7725    2.2250   -2.6572 H   0  0  0  0  0  0  0  0  0  0  0  0
   -0.6540    0.3911   -2.4598 H   0  0  0  0  0  0  0  0  0  0  0  0
    0.3294    2.9650    0.6104 H   0  0  0  0  0  0  0  0  0  0  0  0
   -0.6928    3.6627   -0.6560 H   0  0  0  0  0  0  0  0  0  0  0  0
   -1.4177    2.8672    0.7502 H   0  0  0  0  0  0  0  0  0  0  0  0
   -0.3358   -1.8442   -1.3709 C   0  0  0  0  0  0  0  0  0  0  0  0
   -0.3358   -1.8442   -0.0477 C   0  0  0  0  0  0  0  0  0  0  0  0
   -0.3358   -0.6183    0.8103 C   0  0  0  0  0  3  0  0  0  0  0  0
    0.8739   -0.4640    1.6915 C   0  0  0  0  0  0  0  0  0  0  0  0
    1.9851   -1.1797    1.6191 C   0  0  0  0  0  0  0  0  0  0  0  0
   -0.3440   -2.7669   -1.9375 H   0  0  0  0  0  0  0  0  0  0  0  0
   -0.3295   -0.9187   -1.9369 H   0  0  0  0  0  0  0  0  0  0  0  0
   -0.3332   -2.7929    0.4829 H   0  0  0  0  0  0  0  0  0  0  0  0
   -0.4559    0.4536    0.0598 H   0  0  0  0  0  0  0  0  0  0  0  0
   -1.2238   -0.6318    1.4531 H   0  0  0  0  0  0  0  0  0  0  0  0
    0.8012    0.3210    2.4393 H   0  0  0  0  0  0  0  0  0  0  0  0
    2.1105   -1.9665    0.8842 H   0  0  0  0  0  0  0  0  0  0  0  0
    2.8133   -0.9954    2.2914 H   0  0  0  0  0  0  0  0  0  0  0  0
  1  2  2  3
  1  4  1  0
  1  5  1  0
  2  3  1  0
  2 17  1  0
  3  6  1  0
  3  7  1  0
  3  8  1  0
  9 10  2  3
  9 14  1  0
  9 15  1  0
 10 11  1  0
 10 16  1  0
 11 12  1  0
 11 18  1  0
 12 13  2  3
 12 19  1  0
 13 20  1  0
 13 21  1  0
M  RAD  1  11   2
M  END
>  <reaction>  (16) 
rxn_1143

>  <mol_properties>  (16) 
{"0": {"label": "*4", "atom_type": "Cd"}, "1": {"label": "*3", "atom_type": "Cd"}, "9": {"label": "*0", "atom_type": "Cd"}, "10": {"label": "*1", "atom_type": "Cs"}, "16": {"label": "*2", "atom_type": "H0"}}

>  <type>  (16) 
unop_12

>  <geom_source>  (16) 
Heuristics

$$$$

     RDKit          3D

 21 19  0  0  0  0  0  0  0  0999 V2000
    2.5987   -0.7558   -0.4844 C   0  0  0  0  0  0  0  0  0  0  0  0
    1.6387    0.3722   -0.2705 C   0  0  0  0  0  0  0  0  0  0  0  0
   -0.7655   -0.5299    0.2933 C   0  0  0  0  0  3  0  0  0  0  0  0
   -1.1547    0.6990    1.0590 C   0  0  0  0  0  0  0  0  0  0  0  0
   -1.8805   -0.9884   -0.5935 C   0  0  0  0  0  0  0  0  0  0  0  0
    2.0709    1.6142   -0.0440 C   0  0  0  0  0  0  0  0  0  0  0  0
   -2.0043    0.6444    2.0887 C   0  0  0  0  0  0  0  0  0  0  0  0
   -1.7902   -0.8631   -1.9178 C   0  0  0  0  0  0  0  0  0  0  0  0
    3.2438   -0.8800    0.4110 H   0  0  0  0  0  0  0  0  0  0  0  0
    3.2332   -0.5509   -1.3726 H   0  0  0  0  0  0  0  0  0  0  0  0
    2.0348   -1.6964   -0.6546 H   0  0  0  0  0  0  0  0  0  0  0  0
    0.4585    0.1549   -0.3036 H   0  0  0  0  0  0  0  0  0  0  0  0
   -0.7283    1.6532    0.7669 H   0  0  0  0  0  0  0  0  0  0  0  0
   -0.4449   -1.3443    0.9776 H   0  0  0  0  0  0  0  0  0  0  0  0
   -2.7787   -1.4104   -0.1520 H   0  0  0  0  0  0  0  0  0  0  0  0
    1.3566    2.4164    0.1083 H   0  0  0  0  0  0  0  0  0  0  0  0
    3.1330    1.8383   -0.0090 H   0  0  0  0  0  0  0  0  0  0  0  0
   -2.4419   -0.2988    2.4017 H   0  0  0  0  0  0  0  0  0  0  0  0
   -2.2661    1.5505    2.6252 H   0  0  0  0  0  0  0  0  0  0  0  0
   -2.6083   -1.1903   -2.5513 H   0  0  0  0  0  0  0  0  0  0  0  0
   -0.9048   -0.4351   -2.3785 H   0  0  0  0  0  0  0  0  0  0  0  0
  1  2  1  0
  1  9  1  0
  1 10  1  0
  1 11  1  0
  2  6  2  3
  2 12  1  0
  3  4  1  0
  3  5  1  0
  3 14  1  0
  4  7  2  3
  4 13  1  0
  5  8  2  3
  5 15  1  0
  6 16  1  0
  6 17  1  0
  7 18  1  0
  7 19  1  0
  8 20  1  0
  8 21  1  0
M  RAD  1   3   2
M  END
>  <reaction>  (17) 
rxn_1143

>  <mol_properties>  (17) 
{"0": {"label": "*4", "atom_type": "Cd"}, "1": {"label": "*3", "atom_type": "Cd"}, "9": {"label": "*0", "atom_type": "Cd"}, "10": {"label": "*1", "atom_type": "Cs"}, "16": {"label": "*2", "atom_type": "H0"}}

>  <type>  (17) 
unop_13

>  <geom_source>  (17) 
AutoTST

$$$$
