
     RDKit          3D

 12 11  0  0  0  0  0  0  0  0999 V2000
    2.1696    0.6854    1.1310 C   0  0  0  0  0  0  0  0  0  0  0  0
    1.2518    0.4145    0.4134 C   0  0  0  0  0  0  0  0  0  0  0  0
    0.1391    0.0443   -0.4683 C   0  0  0  0  0  0  0  0  0  0  0  0
   -0.2054   -1.4492   -0.3339 C   0  0  0  0  0  0  0  0  0  0  0  0
   -1.0375    0.8853   -0.2222 C   0  0  0  0  0  0  0  0  0  0  0  0
   -2.0160    1.5463   -0.0311 C   0  0  0  0  0  0  0  0  0  0  0  0
    2.9819    0.9356    1.7702 H   0  0  0  0  0  0  0  0  0  0  0  0
    0.4629    0.2285   -1.4981 H   0  0  0  0  0  0  0  0  0  0  0  0
   -0.5327   -1.6703    0.6812 H   0  0  0  0  0  0  0  0  0  0  0  0
    0.6727   -2.0535   -0.5593 H   0  0  0  0  0  0  0  0  0  0  0  0
   -1.0064   -1.7081   -1.0256 H   0  0  0  0  0  0  0  0  0  0  0  0
   -2.8802    2.1413    0.1426 H   0  0  0  0  0  0  0  0  0  0  0  0
  1  2  3  0
  1  7  1  0
  2  3  1  0
  3  4  1  0
  3  5  1  0
  3  8  1  0
  4  9  1  0
  4 10  1  0
  4 11  1  0
  5  6  3  0
  6 12  1  0
M  END
>  <reaction>  (1) 
rxn_1422

>  <mol_properties>  (1) 
{"2": {"label": "donator", "atom_type": "Cs"}, "7": {"label": "d_hydrogen", "atom_type": "H0"}}

>  <type>  (1) 
r1h

$$$$

     RDKit          3D

 10  9  0  0  0  0  0  0  0  0999 V2000
   -1.3354   -0.2069    0.0525 C   0  0  0  0  0  0  0  0  0  0  0  0
    0.0851    0.2624    0.0266 C   0  0  0  0  0  0  0  0  0  0  0  0
    0.4841    1.3876    0.7359 C   0  0  0  0  0  0  0  0  0  0  0  0
    2.0191    2.0303    0.8057 S   0  0  0  0  0  1  0  0  0  0  0  0
    1.1566   -0.6823   -0.9297 S   0  0  0  0  0  0  0  0  0  0  0  0
   -1.7589   -0.2174   -0.9545 H   0  0  0  0  0  0  0  0  0  0  0  0
   -1.4004   -1.2253    0.4427 H   0  0  0  0  0  0  0  0  0  0  0  0
   -1.9442    0.4442    0.6783 H   0  0  0  0  0  0  0  0  0  0  0  0
   -0.3073    1.8814    1.2951 H   0  0  0  0  0  0  0  0  0  0  0  0
    2.2383    0.0827   -0.6554 H   0  0  0  0  0  0  0  0  0  0  0  0
  1  2  1  0
  1  6  1  0
  1  7  1  0
  1  8  1  0
  2  3  2  3
  2  5  1  0
  3  4  1  0
  3  9  1  0
  5 10  1  0
M  RAD  1   4   2
M  END
>  <reaction>  (2) 
rxn_1422

>  <mol_properties>  (2) 
{"1": {"label": "acceptor", "atom_type": "Cs"}}

>  <type>  (2) 
r2

$$$$

     RDKit          3D

 11 10  0  0  0  0  0  0  0  0999 V2000
   -1.0997   -0.5860   -0.1182 C   0  0  0  0  0  0  0  0  0  0  0  0
    0.0827    0.2961    0.2270 C   0  0  0  0  0  0  0  0  0  0  0  0
    0.1622    1.6171   -0.4774 C   0  0  0  0  0  0  0  0  0  0  0  0
   -0.9879    2.3087   -1.3633 S   0  0  0  0  0  0  0  0  0  0  0  0
    0.2176    0.6619    2.0187 S   0  0  0  0  0  0  0  0  0  0  0  0
   -1.1052   -0.8107   -1.1861 H   0  0  0  0  0  0  0  0  0  0  0  0
   -2.0402   -0.0893    0.1198 H   0  0  0  0  0  0  0  0  0  0  0  0
   -1.0438   -1.5182    0.4423 H   0  0  0  0  0  0  0  0  0  0  0  0
    1.0207   -0.2324    0.0280 H   0  0  0  0  0  0  0  0  0  0  0  0
    1.1091    2.1333   -0.3182 H   0  0  0  0  0  0  0  0  0  0  0  0
   -0.9205    1.3661    2.0994 H   0  0  0  0  0  0  0  0  0  0  0  0
  1  2  1  0
  1  6  1  0
  1  7  1  0
  1  8  1  0
  2  3  1  0
  2  5  1  0
  2  9  1  0
  3  4  2  0
  3 10  1  0
  5 11  1  0
M  END
>  <reaction>  (3) 
rxn_1422

>  <mol_properties>  (3) 
{"0": {"label": "a_hydrogen", "atom_type": "H0"}, "2": {"label": "acceptor", "atom_type": "Cs"}}

>  <type>  (3) 
r2h

$$$$

     RDKit          3D

 22 20  0  0  0  0  0  0  0  0999 V2000
   -0.5738   -0.8109   -3.1166 C   0  0  0  0  0  0  0  0  0  0  0  0
   -0.9944   -0.5203   -2.0289 C   0  0  0  0  0  0  0  0  0  0  0  0
   -1.4401   -0.1450   -0.7245 C   0  0  0  0  0  3  0  0  0  0  0  0
   -1.9779    1.2640   -0.5634 C   0  0  0  0  0  0  0  0  0  0  0  0
   -2.0767   -1.1666    0.0430 C   0  0  0  0  0  0  0  0  0  0  0  0
   -2.5814   -2.0024    0.7422 C   0  0  0  0  0  0  0  0  0  0  0  0
   -0.2287   -1.0774   -4.0869 H   0  0  0  0  0  0  0  0  0  0  0  0
   -0.2297    0.0137   -0.0357 H   0  0  0  0  0  0  0  0  0  0  0  0
   -2.9452    1.3632   -1.0592 H   0  0  0  0  0  0  0  0  0  0  0  0
   -1.2833    1.9800   -1.0031 H   0  0  0  0  0  0  0  0  0  0  0  0
   -2.1075    1.4904    0.4952 H   0  0  0  0  0  0  0  0  0  0  0  0
   -3.0321   -2.7447    1.3562 H   0  0  0  0  0  0  0  0  0  0  0  0
    1.3586   -1.3539    0.5606 C   0  0  0  0  0  0  0  0  0  0  0  0
    0.9378    0.0934    0.5475 C   0  0  0  0  0  0  0  0  0  0  0  0
    0.5687    0.7498    1.7861 C   0  0  0  0  0  0  0  0  0  0  0  0
    0.1969    0.0170    3.1900 S   0  0  0  0  0  0  0  0  0  0  0  0
    1.8564    1.1856   -0.5378 S   0  0  0  0  0  0  0  0  0  0  0  0
    2.3556   -1.4529    0.9935 H   0  0  0  0  0  0  0  0  0  0  0  0
    0.6619   -1.9399    1.1590 H   0  0  0  0  0  0  0  0  0  0  0  0
    1.3769   -1.7520   -0.4547 H   0  0  0  0  0  0  0  0  0  0  0  0
    0.4888    1.8353    1.7170 H   0  0  0  0  0  0  0  0  0  0  0  0
    1.6861    0.4554   -1.6493 H   0  0  0  0  0  0  0  0  0  0  0  0
  1  2  3  0
  1  7  1  0
  2  3  1  0
  3  4  1  0
  3  5  1  0
  4  9  1  0
  4 10  1  0
  4 11  1  0
  5  6  3  0
  6 12  1  0
  8 14  1  0
 13 14  1  0
 13 18  1  0
 13 19  1  0
 13 20  1  0
 14 15  1  0
 14 17  1  0
 15 16  2  0
 15 21  1  0
 17 22  1  0
M  RAD  1   3   2
M  END
>  <reaction>  (4) 
rxn_1422

>  <mol_properties>  (4) 
{"1": {"label": "*4", "atom_type": "Ct"}, "2": {"label": "*3", "atom_type": "Cs"}, "7": {"label": "*2", "atom_type": "H0"}, "13": {"label": "*1", "atom_type": "Cs"}, "14": {"label": "*0", "atom_type": "CS"}}

>  <type>  (4) 
ts

$$$$

     RDKit          3D

 22 20  0  0  0  0  0  0  0  0999 V2000
   -1.6629    0.3878   -3.1493 C   0  0  0  0  0  0  0  0  0  0  0  0
   -1.6629    0.3878   -1.9531 C   0  0  0  0  0  0  0  0  0  0  0  0
   -1.6629    0.4278   -0.4866 C   0  0  0  0  0  3  0  0  0  0  0  0
   -2.3009    1.7271    0.0354 C   0  0  0  0  0  0  0  0  0  0  0  0
   -2.3248   -0.7534    0.0782 C   0  0  0  0  0  0  0  0  0  0  0  0
   -2.8730   -1.6987    0.5647 C   0  0  0  0  0  0  0  0  0  0  0  0
   -1.6629    0.3878   -4.2127 H   0  0  0  0  0  0  0  0  0  0  0  0
   -0.4093    0.4006   -0.0934 H   0  0  0  0  0  0  0  0  0  0  0  0
   -3.3442    1.7843   -0.2723 H   0  0  0  0  0  0  0  0  0  0  0  0
   -1.7683    2.5885   -0.3662 H   0  0  0  0  0  0  0  0  0  0  0  0
   -2.2538    1.7515    1.1237 H   0  0  0  0  0  0  0  0  0  0  0  0
   -3.3604   -2.5391    0.9972 H   0  0  0  0  0  0  0  0  0  0  0  0
    1.1696    1.6174    1.1008 C   0  0  0  0  0  0  0  0  0  0  0  0
    0.8441    0.3733    0.2997 C   0  0  0  0  0  0  0  0  0  0  0  0
    2.0086   -0.3929   -0.2520 C   0  0  0  0  0  0  0  0  0  0  0  0
    3.5601   -0.1884    0.1175 S   0  0  0  0  0  0  0  0  0  0  0  0
   -0.1759   -0.8389    1.2228 S   0  0  0  0  0  0  0  0  0  0  0  0
    1.7769    1.3730    1.9722 H   0  0  0  0  0  0  0  0  0  0  0  0
    1.7356    2.3232    0.4905 H   0  0  0  0  0  0  0  0  0  0  0  0
    0.2498    2.0940    1.4369 H   0  0  0  0  0  0  0  0  0  0  0  0
    1.7158   -1.1758   -0.9518 H   0  0  0  0  0  0  0  0  0  0  0  0
    0.7516   -1.1186    2.1498 H   0  0  0  0  0  0  0  0  0  0  0  0
  1  2  3  0
  1  7  1  0
  2  3  1  0
  3  4  1  0
  3  5  1  0
  4  9  1  0
  4 10  1  0
  4 11  1  0
  5  6  3  0
  6 12  1  0
  8 14  1  0
 13 14  1  0
 13 18  1  0
 13 19  1  0
 13 20  1  0
 14 15  1  0
 14 17  1  0
 15 16  2  0
 15 21  1  0
 17 22  1  0
M  RAD  1   3   2
M  END
>  <reaction>  (5) 
rxn_1422

>  <mol_properties>  (5) 
{"1": {"label": "*4", "atom_type": "Ct"}, "2": {"label": "*3", "atom_type": "Cs"}, "7": {"label": "*2", "atom_type": "H0"}, "13": {"label": "*1", "atom_type": "Cs"}, "14": {"label": "*0", "atom_type": "CS"}}

>  <type>  (5) 
unop_1

>  <geom_source>  (5) 
Heuristics

$$$$

     RDKit          3D

 22 20  0  0  0  0  0  0  0  0999 V2000
   -1.6432    0.2596   -3.2930 C   0  0  0  0  0  0  0  0  0  0  0  0
   -1.6432    0.2596   -2.0968 C   0  0  0  0  0  0  0  0  0  0  0  0
   -1.6432    0.2997   -0.6303 C   0  0  0  0  0  3  0  0  0  0  0  0
   -2.2812    1.5989   -0.1083 C   0  0  0  0  0  0  0  0  0  0  0  0
   -2.3051   -0.8816   -0.0655 C   0  0  0  0  0  0  0  0  0  0  0  0
   -2.8533   -1.8268    0.4210 C   0  0  0  0  0  0  0  0  0  0  0  0
   -1.6432    0.2596   -4.3564 H   0  0  0  0  0  0  0  0  0  0  0  0
   -0.3896    0.2724   -0.2371 H   0  0  0  0  0  0  0  0  0  0  0  0
   -3.3245    1.6562   -0.4160 H   0  0  0  0  0  0  0  0  0  0  0  0
   -1.7486    2.4603   -0.5099 H   0  0  0  0  0  0  0  0  0  0  0  0
   -2.2341    1.6233    0.9800 H   0  0  0  0  0  0  0  0  0  0  0  0
   -3.3407   -2.6673    0.8535 H   0  0  0  0  0  0  0  0  0  0  0  0
    1.7529    0.9012   -0.8806 C   0  0  0  0  0  0  0  0  0  0  0  0
    0.8638    0.2452    0.1560 C   0  0  0  0  0  0  0  0  0  0  0  0
    1.4026   -0.9869    0.8186 C   0  0  0  0  0  0  0  0  0  0  0  0
    2.9085   -1.5451    0.7387 S   0  0  0  0  0  0  0  0  0  0  0  0
    0.3668    1.3788    1.5087 S   0  0  0  0  0  0  0  0  0  0  0  0
    2.6992    1.2158   -0.4409 H   0  0  0  0  0  0  0  0  0  0  0  0
    1.9790    0.1986   -1.6844 H   0  0  0  0  0  0  0  0  0  0  0  0
    1.2536    1.7738   -1.2995 H   0  0  0  0  0  0  0  0  0  0  0  0
    0.6625   -1.5068    1.4272 H   0  0  0  0  0  0  0  0  0  0  0  0
    1.6013    1.5492    2.0033 H   0  0  0  0  0  0  0  0  0  0  0  0
  1  2  3  0
  1  7  1  0
  2  3  1  0
  3  4  1  0
  3  5  1  0
  4  9  1  0
  4 10  1  0
  4 11  1  0
  5  6  3  0
  6 12  1  0
  8 14  1  0
 13 14  1  0
 13 18  1  0
 13 19  1  0
 13 20  1  0
 14 15  1  0
 14 17  1  0
 15 16  2  0
 15 21  1  0
 17 22  1  0
M  RAD  1   3   2
M  END
>  <reaction>  (6) 
rxn_1422

>  <mol_properties>  (6) 
{"1": {"label": "*4", "atom_type": "Ct"}, "2": {"label": "*3", "atom_type": "Cs"}, "7": {"label": "*2", "atom_type": "H0"}, "13": {"label": "*1", "atom_type": "Cs"}, "14": {"label": "*0", "atom_type": "CS"}}

>  <type>  (6) 
unop_2

>  <geom_source>  (6) 
Heuristics

$$$$

     RDKit          3D

 22 20  0  0  0  0  0  0  0  0999 V2000
   -1.7408    0.2936   -2.9720 C   0  0  0  0  0  0  0  0  0  0  0  0
   -1.7408    0.2936   -1.7759 C   0  0  0  0  0  0  0  0  0  0  0  0
   -1.7408    0.3337   -0.3093 C   0  0  0  0  0  3  0  0  0  0  0  0
   -2.3789    1.6329    0.2127 C   0  0  0  0  0  0  0  0  0  0  0  0
   -2.4027   -0.8476    0.2554 C   0  0  0  0  0  0  0  0  0  0  0  0
   -2.9509   -1.7928    0.7419 C   0  0  0  0  0  0  0  0  0  0  0  0
   -1.7408    0.2936   -4.0355 H   0  0  0  0  0  0  0  0  0  0  0  0
   -0.4872    0.3064    0.0838 H   0  0  0  0  0  0  0  0  0  0  0  0
   -3.4221    1.6901   -0.0951 H   0  0  0  0  0  0  0  0  0  0  0  0
   -1.8462    2.4943   -0.1890 H   0  0  0  0  0  0  0  0  0  0  0  0
   -2.3317    1.6573    1.3009 H   0  0  0  0  0  0  0  0  0  0  0  0
   -3.4383   -2.6333    1.1745 H   0  0  0  0  0  0  0  0  0  0  0  0
    0.9207    1.0217    1.7885 C   0  0  0  0  0  0  0  0  0  0  0  0
    0.7662    0.2792    0.4769 C   0  0  0  0  0  0  0  0  0  0  0  0
    1.9568    0.2720   -0.4341 C   0  0  0  0  0  0  0  0  0  0  0  0
    3.4508    0.7442   -0.0726 S   0  0  0  0  0  0  0  0  0  0  0  0
    0.2722   -1.4739    0.6884 S   0  0  0  0  0  0  0  0  0  0  0  0
    1.7240    0.5932    2.3876 H   0  0  0  0  0  0  0  0  0  0  0  0
    1.1679    2.0684    1.6039 H   0  0  0  0  0  0  0  0  0  0  0  0
   -0.0070    0.9690    2.3567 H   0  0  0  0  0  0  0  0  0  0  0  0
    1.7388   -0.1292   -1.4240 H   0  0  0  0  0  0  0  0  0  0  0  0
    1.3991   -1.8589    1.3047 H   0  0  0  0  0  0  0  0  0  0  0  0
  1  2  3  0
  1  7  1  0
  2  3  1  0
  3  4  1  0
  3  5  1  0
  4  9  1  0
  4 10  1  0
  4 11  1  0
  5  6  3  0
  6 12  1  0
  8 14  1  0
 13 14  1  0
 13 18  1  0
 13 19  1  0
 13 20  1  0
 14 15  1  0
 14 17  1  0
 15 16  2  0
 15 21  1  0
 17 22  1  0
M  RAD  1   3   2
M  END
>  <reaction>  (7) 
rxn_1422

>  <mol_properties>  (7) 
{"1": {"label": "*4", "atom_type": "Ct"}, "2": {"label": "*3", "atom_type": "Cs"}, "7": {"label": "*2", "atom_type": "H0"}, "13": {"label": "*1", "atom_type": "Cs"}, "14": {"label": "*0", "atom_type": "CS"}}

>  <type>  (7) 
unop_3

>  <geom_source>  (7) 
Heuristics

$$$$

     RDKit          3D

 22 20  0  0  0  0  0  0  0  0999 V2000
   -1.3856    0.1841   -3.4771 C   0  0  0  0  0  0  0  0  0  0  0  0
   -1.3856    0.1841   -2.2809 C   0  0  0  0  0  0  0  0  0  0  0  0
   -1.3856    0.2242   -0.8144 C   0  0  0  0  0  3  0  0  0  0  0  0
   -2.0236    1.5234   -0.2924 C   0  0  0  0  0  0  0  0  0  0  0  0
   -2.0474   -0.9571   -0.2496 C   0  0  0  0  0  0  0  0  0  0  0  0
   -2.5957   -1.9023    0.2369 C   0  0  0  0  0  0  0  0  0  0  0  0
   -1.3856    0.1841   -4.5406 H   0  0  0  0  0  0  0  0  0  0  0  0
   -0.1320    0.1969   -0.4213 H   0  0  0  0  0  0  0  0  0  0  0  0
   -3.0669    1.5807   -0.6002 H   0  0  0  0  0  0  0  0  0  0  0  0
   -1.4910    2.3848   -0.6941 H   0  0  0  0  0  0  0  0  0  0  0  0
   -1.9764    1.5478    0.7958 H   0  0  0  0  0  0  0  0  0  0  0  0
   -3.0831   -2.7428    0.6694 H   0  0  0  0  0  0  0  0  0  0  0  0
    1.7965   -1.0961   -0.5155 C   0  0  0  0  0  0  0  0  0  0  0  0
    1.1214    0.1697   -0.0282 C   0  0  0  0  0  0  0  0  0  0  0  0
    0.4708    0.1060    1.3210 C   0  0  0  0  0  0  0  0  0  0  0  0
    0.6227   -1.0666    2.4108 S   0  0  0  0  0  0  0  0  0  0  0  0
    2.2411    1.6212    0.0109 S   0  0  0  0  0  0  0  0  0  0  0  0
    2.5949   -1.3987    0.1619 H   0  0  0  0  0  0  0  0  0  0  0  0
    1.0762   -1.9144   -0.5644 H   0  0  0  0  0  0  0  0  0  0  0  0
    2.2196   -0.9336   -1.5059 H   0  0  0  0  0  0  0  0  0  0  0  0
   -0.1362    0.9826    1.5477 H   0  0  0  0  0  0  0  0  0  0  0  0
    3.0550    1.1391    0.9611 H   0  0  0  0  0  0  0  0  0  0  0  0
  1  2  3  0
  1  7  1  0
  2  3  1  0
  3  4  1  0
  3  5  1  0
  4  9  1  0
  4 10  1  0
  4 11  1  0
  5  6  3  0
  6 12  1  0
  8 14  1  0
 13 14  1  0
 13 18  1  0
 13 19  1  0
 13 20  1  0
 14 15  1  0
 14 17  1  0
 15 16  2  0
 15 21  1  0
 17 22  1  0
M  RAD  1   3   2
M  END
>  <reaction>  (8) 
rxn_1422

>  <mol_properties>  (8) 
{"1": {"label": "*4", "atom_type": "Ct"}, "2": {"label": "*3", "atom_type": "Cs"}, "7": {"label": "*2", "atom_type": "H0"}, "13": {"label": "*1", "atom_type": "Cs"}, "14": {"label": "*0", "atom_type": "CS"}}

>  <type>  (8) 
unop_4

>  <geom_source>  (8) 
Heuristics

$$$$

     RDKit          3D

 22 20  0  0  0  0  0  0  0  0999 V2000
   -1.7361   -0.0544   -2.9083 C   0  0  0  0  0  0  0  0  0  0  0  0
   -1.7361   -0.0544   -1.7121 C   0  0  0  0  0  0  0  0  0  0  0  0
   -1.7361   -0.0143   -0.2456 C   0  0  0  0  0  3  0  0  0  0  0  0
   -2.3741    1.2849    0.2764 C   0  0  0  0  0  0  0  0  0  0  0  0
   -2.3980   -1.1955    0.3192 C   0  0  0  0  0  0  0  0  0  0  0  0
   -2.9462   -2.1408    0.8057 C   0  0  0  0  0  0  0  0  0  0  0  0
   -1.7361   -0.0544   -3.9717 H   0  0  0  0  0  0  0  0  0  0  0  0
   -0.4825   -0.0415    0.1476 H   0  0  0  0  0  0  0  0  0  0  0  0
   -3.4174    1.3422   -0.0313 H   0  0  0  0  0  0  0  0  0  0  0  0
   -1.8415    2.1464   -0.1252 H   0  0  0  0  0  0  0  0  0  0  0  0
   -2.3270    1.3094    1.3647 H   0  0  0  0  0  0  0  0  0  0  0  0
   -3.4336   -2.9812    1.2382 H   0  0  0  0  0  0  0  0  0  0  0  0
    0.8471   -0.0297    2.0533 C   0  0  0  0  0  0  0  0  0  0  0  0
    0.7709   -0.0688    0.5407 C   0  0  0  0  0  0  0  0  0  0  0  0
    1.4883    1.0226   -0.1954 C   0  0  0  0  0  0  0  0  0  0  0  0
    2.5314    2.0789    0.4226 S   0  0  0  0  0  0  0  0  0  0  0  0
    1.3667   -1.6477   -0.1762 S   0  0  0  0  0  0  0  0  0  0  0  0
    1.8799   -0.0996    2.3943 H   0  0  0  0  0  0  0  0  0  0  0  0
    0.4375    0.9095    2.4287 H   0  0  0  0  0  0  0  0  0  0  0  0
    0.2816   -0.8595    2.4752 H   0  0  0  0  0  0  0  0  0  0  0  0
    1.2644    1.0414   -1.2621 H   0  0  0  0  0  0  0  0  0  0  0  0
    2.6405   -1.5028    0.2165 H   0  0  0  0  0  0  0  0  0  0  0  0
  1  2  3  0
  1  7  1  0
  2  3  1  0
  3  4  1  0
  3  5  1  0
  4  9  1  0
  4 10  1  0
  4 11  1  0
  5  6  3  0
  6 12  1  0
  8 14  1  0
 13 14  1  0
 13 18  1  0
 13 19  1  0
 13 20  1  0
 14 15  1  0
 14 17  1  0
 15 16  2  0
 15 21  1  0
 17 22  1  0
M  RAD  1   3   2
M  END
>  <reaction>  (9) 
rxn_1422

>  <mol_properties>  (9) 
{"1": {"label": "*4", "atom_type": "Ct"}, "2": {"label": "*3", "atom_type": "Cs"}, "7": {"label": "*2", "atom_type": "H0"}, "13": {"label": "*1", "atom_type": "Cs"}, "14": {"label": "*0", "atom_type": "CS"}}

>  <type>  (9) 
unop_5

>  <geom_source>  (9) 
Heuristics

$$$$

     RDKit          3D

 22 20  0  0  0  0  0  0  0  0999 V2000
   -1.3373   -0.0234   -3.4713 C   0  0  0  0  0  0  0  0  0  0  0  0
   -1.3373   -0.0234   -2.2751 C   0  0  0  0  0  0  0  0  0  0  0  0
   -1.3373    0.0167   -0.8086 C   0  0  0  0  0  3  0  0  0  0  0  0
   -1.9753    1.3159   -0.2866 C   0  0  0  0  0  0  0  0  0  0  0  0
   -1.9991   -1.1646   -0.2438 C   0  0  0  0  0  0  0  0  0  0  0  0
   -2.5474   -2.1098    0.2427 C   0  0  0  0  0  0  0  0  0  0  0  0
   -1.3373   -0.0234   -4.5348 H   0  0  0  0  0  0  0  0  0  0  0  0
   -0.0837   -0.0106   -0.4155 H   0  0  0  0  0  0  0  0  0  0  0  0
   -3.0186    1.3732   -0.5944 H   0  0  0  0  0  0  0  0  0  0  0  0
   -1.4427    2.1773   -0.6883 H   0  0  0  0  0  0  0  0  0  0  0  0
   -1.9281    1.3403    0.8016 H   0  0  0  0  0  0  0  0  0  0  0  0
   -3.0348   -2.9503    0.6752 H   0  0  0  0  0  0  0  0  0  0  0  0
    1.6270   -1.4689    0.1733 C   0  0  0  0  0  0  0  0  0  0  0  0
    1.1697   -0.0378   -0.0224 C   0  0  0  0  0  0  0  0  0  0  0  0
    0.4290    0.5916    1.1190 C   0  0  0  0  0  0  0  0  0  0  0  0
    0.2844    0.0120    2.6119 S   0  0  0  0  0  0  0  0  0  0  0  0
    2.5363    1.1105   -0.4418 S   0  0  0  0  0  0  0  0  0  0  0  0
    2.3068   -1.5492    1.0214 H   0  0  0  0  0  0  0  0  0  0  0  0
    0.7710   -2.1157    0.3731 H   0  0  0  0  0  0  0  0  0  0  0  0
    2.1390   -1.8208   -0.7212 H   0  0  0  0  0  0  0  0  0  0  0  0
   -0.0169    1.5533    0.8644 H   0  0  0  0  0  0  0  0  0  0  0  0
    3.1793    0.9892    0.7285 H   0  0  0  0  0  0  0  0  0  0  0  0
  1  2  3  0
  1  7  1  0
  2  3  1  0
  3  4  1  0
  3  5  1  0
  4  9  1  0
  4 10  1  0
  4 11  1  0
  5  6  3  0
  6 12  1  0
  8 14  1  0
 13 14  1  0
 13 18  1  0
 13 19  1  0
 13 20  1  0
 14 15  1  0
 14 17  1  0
 15 16  2  0
 15 21  1  0
 17 22  1  0
M  RAD  1   3   2
M  END
>  <reaction>  (10) 
rxn_1422

>  <mol_properties>  (10) 
{"1": {"label": "*4", "atom_type": "Ct"}, "2": {"label": "*3", "atom_type": "Cs"}, "7": {"label": "*2", "atom_type": "H0"}, "13": {"label": "*1", "atom_type": "Cs"}, "14": {"label": "*0", "atom_type": "CS"}}

>  <type>  (10) 
unop_6

>  <geom_source>  (10) 
Heuristics

$$$$

     RDKit          3D

 22 20  0  0  0  0  0  0  0  0999 V2000
   -1.3791   -0.2246   -3.3470 C   0  0  0  0  0  0  0  0  0  0  0  0
   -1.3791   -0.2246   -2.1508 C   0  0  0  0  0  0  0  0  0  0  0  0
   -1.3791   -0.1845   -0.6843 C   0  0  0  0  0  3  0  0  0  0  0  0
   -2.0171    1.1147   -0.1623 C   0  0  0  0  0  0  0  0  0  0  0  0
   -2.0409   -1.3657   -0.1195 C   0  0  0  0  0  0  0  0  0  0  0  0
   -2.5891   -2.3110    0.3670 C   0  0  0  0  0  0  0  0  0  0  0  0
   -1.3791   -0.2246   -4.4104 H   0  0  0  0  0  0  0  0  0  0  0  0
   -0.1255   -0.2117   -0.2911 H   0  0  0  0  0  0  0  0  0  0  0  0
   -3.0604    1.1720   -0.4700 H   0  0  0  0  0  0  0  0  0  0  0  0
   -1.4845    1.9761   -0.5639 H   0  0  0  0  0  0  0  0  0  0  0  0
   -1.9699    1.1392    0.9260 H   0  0  0  0  0  0  0  0  0  0  0  0
   -3.0766   -3.1514    0.7995 H   0  0  0  0  0  0  0  0  0  0  0  0
    1.3789   -1.4549    0.9704 C   0  0  0  0  0  0  0  0  0  0  0  0
    1.1279   -0.2390    0.1020 C   0  0  0  0  0  0  0  0  0  0  0  0
    0.5396    0.9607    0.7817 C   0  0  0  0  0  0  0  0  0  0  0  0
    0.3790    1.1903    2.3651 S   0  0  0  0  0  0  0  0  0  0  0  0
    2.6277    0.3515   -0.7721 S   0  0  0  0  0  0  0  0  0  0  0  0
    2.0772   -1.2232    1.7745 H   0  0  0  0  0  0  0  0  0  0  0  0
    0.4473   -1.7918    1.4280 H   0  0  0  0  0  0  0  0  0  0  0  0
    1.7931   -2.2623    0.3680 H   0  0  0  0  0  0  0  0  0  0  0  0
    0.2284    1.7401    0.0859 H   0  0  0  0  0  0  0  0  0  0  0  0
    3.2981    0.7065    0.3335 H   0  0  0  0  0  0  0  0  0  0  0  0
  1  2  3  0
  1  7  1  0
  2  3  1  0
  3  4  1  0
  3  5  1  0
  4  9  1  0
  4 10  1  0
  4 11  1  0
  5  6  3  0
  6 12  1  0
  8 14  1  0
 13 14  1  0
 13 18  1  0
 13 19  1  0
 13 20  1  0
 14 15  1  0
 14 17  1  0
 15 16  2  0
 15 21  1  0
 17 22  1  0
M  RAD  1   3   2
M  END
>  <reaction>  (11) 
rxn_1422

>  <mol_properties>  (11) 
{"1": {"label": "*4", "atom_type": "Ct"}, "2": {"label": "*3", "atom_type": "Cs"}, "7": {"label": "*2", "atom_type": "H0"}, "13": {"label": "*1", "atom_type": "Cs"}, "14": {"label": "*0", "atom_type": "CS"}}

>  <type>  (11) 
unop_7

>  <geom_source>  (11) 
Heuristics

$$$$

     RDKit          3D

 22 20  0  0  0  0  0  0  0  0999 V2000
   -1.6275    0.3347   -3.2676 C   0  0  0  0  0  0  0  0  0  0  0  0
   -1.6275    0.3347   -2.0715 C   0  0  0  0  0  0  0  0  0  0  0  0
   -1.6275    0.3748   -0.6049 C   0  0  0  0  0  3  0  0  0  0  0  0
   -2.2655    1.6740   -0.0829 C   0  0  0  0  0  0  0  0  0  0  0  0
   -2.2893   -0.8064   -0.0401 C   0  0  0  0  0  0  0  0  0  0  0  0
   -2.8376   -1.7517    0.4464 C   0  0  0  0  0  0  0  0  0  0  0  0
   -1.6275    0.3347   -4.3311 H   0  0  0  0  0  0  0  0  0  0  0  0
   -0.3739    0.3476   -0.2118 H   0  0  0  0  0  0  0  0  0  0  0  0
   -3.3088    1.7313   -0.3907 H   0  0  0  0  0  0  0  0  0  0  0  0
   -1.7329    2.5354   -0.4846 H   0  0  0  0  0  0  0  0  0  0  0  0
   -2.2183    1.6985    1.0053 H   0  0  0  0  0  0  0  0  0  0  0  0
   -3.3250   -2.5921    0.8789 H   0  0  0  0  0  0  0  0  0  0  0  0
    1.4229    1.7297    0.2994 C   0  0  0  0  0  0  0  0  0  0  0  0
    0.8795    0.3203    0.1813 C   0  0  0  0  0  0  0  0  0  0  0  0
    1.8906   -0.7829    0.0906 C   0  0  0  0  0  0  0  0  0  0  0  0
    3.4723   -0.6659    0.3554 S   0  0  0  0  0  0  0  0  0  0  0  0
   -0.2567   -0.1369    1.5459 S   0  0  0  0  0  0  0  0  0  0  0  0
    2.0323    1.8395    1.1962 H   0  0  0  0  0  0  0  0  0  0  0  0
    2.0531    1.9655   -0.5598 H   0  0  0  0  0  0  0  0  0  0  0  0
    0.6004    2.4422    0.3449 H   0  0  0  0  0  0  0  0  0  0  0  0
    1.4517   -1.7494   -0.1577 H   0  0  0  0  0  0  0  0  0  0  0  0
    0.6669   -0.0799    2.5162 H   0  0  0  0  0  0  0  0  0  0  0  0
  1  2  3  0
  1  7  1  0
  2  3  1  0
  3  4  1  0
  3  5  1  0
  4  9  1  0
  4 10  1  0
  4 11  1  0
  5  6  3  0
  6 12  1  0
  8 14  1  0
 13 14  1  0
 13 18  1  0
 13 19  1  0
 13 20  1  0
 14 15  1  0
 14 17  1  0
 15 16  2  0
 15 21  1  0
 17 22  1  0
M  RAD  1   3   2
M  END
>  <reaction>  (12) 
rxn_1422

>  <mol_properties>  (12) 
{"1": {"label": "*4", "atom_type": "Ct"}, "2": {"label": "*3", "atom_type": "Cs"}, "7": {"label": "*2", "atom_type": "H0"}, "13": {"label": "*1", "atom_type": "Cs"}, "14": {"label": "*0", "atom_type": "CS"}}

>  <type>  (12) 
unop_8

>  <geom_source>  (12) 
Heuristics

$$$$

     RDKit          3D

 22 20  0  0  0  0  0  0  0  0999 V2000
   -1.4935    0.3074   -3.3994 C   0  0  0  0  0  0  0  0  0  0  0  0
   -1.4935    0.3074   -2.2032 C   0  0  0  0  0  0  0  0  0  0  0  0
   -1.4935    0.3475   -0.7367 C   0  0  0  0  0  3  0  0  0  0  0  0
   -2.1316    1.6467   -0.2147 C   0  0  0  0  0  0  0  0  0  0  0  0
   -2.1554   -0.8338   -0.1719 C   0  0  0  0  0  0  0  0  0  0  0  0
   -2.7036   -1.7791    0.3146 C   0  0  0  0  0  0  0  0  0  0  0  0
   -1.4935    0.3074   -4.4628 H   0  0  0  0  0  0  0  0  0  0  0  0
   -0.2399    0.3202   -0.3435 H   0  0  0  0  0  0  0  0  0  0  0  0
   -3.1748    1.7039   -0.5224 H   0  0  0  0  0  0  0  0  0  0  0  0
   -1.5990    2.5081   -0.6163 H   0  0  0  0  0  0  0  0  0  0  0  0
   -2.0844    1.6711    0.8736 H   0  0  0  0  0  0  0  0  0  0  0  0
   -3.1910   -2.6195    0.7471 H   0  0  0  0  0  0  0  0  0  0  0  0
    1.8596   -0.4712   -0.9482 C   0  0  0  0  0  0  0  0  0  0  0  0
    1.0135    0.2930    0.0496 C   0  0  0  0  0  0  0  0  0  0  0  0
    0.6798   -0.4158    1.3278 C   0  0  0  0  0  0  0  0  0  0  0  0
    1.3215   -1.7887    1.8655 S   0  0  0  0  0  0  0  0  0  0  0  0
    1.7392    1.9061    0.5325 S   0  0  0  0  0  0  0  0  0  0  0  0
    2.8258   -0.7361   -0.5192 H   0  0  0  0  0  0  0  0  0  0  0  0
    1.3603   -1.3979   -1.2364 H   0  0  0  0  0  0  0  0  0  0  0  0
    2.0251    0.1362   -1.8370 H   0  0  0  0  0  0  0  0  0  0  0  0
   -0.0608    0.1100    1.9306 H   0  0  0  0  0  0  0  0  0  0  0  0
    2.8176    1.3927    1.1418 H   0  0  0  0  0  0  0  0  0  0  0  0
  1  2  3  0
  1  7  1  0
  2  3  1  0
  3  4  1  0
  3  5  1  0
  4  9  1  0
  4 10  1  0
  4 11  1  0
  5  6  3  0
  6 12  1  0
  8 14  1  0
 13 14  1  0
 13 18  1  0
 13 19  1  0
 13 20  1  0
 14 15  1  0
 14 17  1  0
 15 16  2  0
 15 21  1  0
 17 22  1  0
M  RAD  1   3   2
M  END
>  <reaction>  (13) 
rxn_1422

>  <mol_properties>  (13) 
{"1": {"label": "*4", "atom_type": "Ct"}, "2": {"label": "*3", "atom_type": "Cs"}, "7": {"label": "*2", "atom_type": "H0"}, "13": {"label": "*1", "atom_type": "Cs"}, "14": {"label": "*0", "atom_type": "CS"}}

>  <type>  (13) 
unop_9

>  <geom_source>  (13) 
Heuristics

$$$$

     RDKit          3D

 22 20  0  0  0  0  0  0  0  0999 V2000
   -1.6337    0.2658   -3.3016 C   0  0  0  0  0  0  0  0  0  0  0  0
   -1.6337    0.2658   -2.1055 C   0  0  0  0  0  0  0  0  0  0  0  0
   -1.6337    0.3058   -0.6389 C   0  0  0  0  0  3  0  0  0  0  0  0
   -2.2718    1.6051   -0.1169 C   0  0  0  0  0  0  0  0  0  0  0  0
   -2.2956   -0.8754   -0.0741 C   0  0  0  0  0  0  0  0  0  0  0  0
   -2.8438   -1.8207    0.4124 C   0  0  0  0  0  0  0  0  0  0  0  0
   -1.6337    0.2658   -4.3651 H   0  0  0  0  0  0  0  0  0  0  0  0
   -0.3801    0.2786   -0.2458 H   0  0  0  0  0  0  0  0  0  0  0  0
   -3.3150    1.6623   -0.4247 H   0  0  0  0  0  0  0  0  0  0  0  0
   -1.7391    2.4665   -0.5186 H   0  0  0  0  0  0  0  0  0  0  0  0
   -2.2246    1.6295    0.9713 H   0  0  0  0  0  0  0  0  0  0  0  0
   -3.3312   -2.6611    0.8449 H   0  0  0  0  0  0  0  0  0  0  0  0
    1.6229    1.4455   -0.4073 C   0  0  0  0  0  0  0  0  0  0  0  0
    0.8733    0.2514    0.1473 C   0  0  0  0  0  0  0  0  0  0  0  0
    1.6899   -0.9657    0.4628 C   0  0  0  0  0  0  0  0  0  0  0  0
    3.2940   -1.0637    0.5166 S   0  0  0  0  0  0  0  0  0  0  0  0
   -0.0827    0.6344    1.6644 S   0  0  0  0  0  0  0  0  0  0  0  0
    2.3776    1.7945    0.2973 H   0  0  0  0  0  0  0  0  0  0  0  0
    2.1342    1.1748   -1.3326 H   0  0  0  0  0  0  0  0  0  0  0  0
    0.9279    2.2595   -0.6086 H   0  0  0  0  0  0  0  0  0  0  0  0
    1.0842   -1.8409    0.6988 H   0  0  0  0  0  0  0  0  0  0  0  0
    0.9832    0.9050    2.4316 H   0  0  0  0  0  0  0  0  0  0  0  0
  1  2  3  0
  1  7  1  0
  2  3  1  0
  3  4  1  0
  3  5  1  0
  4  9  1  0
  4 10  1  0
  4 11  1  0
  5  6  3  0
  6 12  1  0
  8 14  1  0
 13 14  1  0
 13 18  1  0
 13 19  1  0
 13 20  1  0
 14 15  1  0
 14 17  1  0
 15 16  2  0
 15 21  1  0
 17 22  1  0
M  RAD  1   3   2
M  END
>  <reaction>  (14) 
rxn_1422

>  <mol_properties>  (14) 
{"1": {"label": "*4", "atom_type": "Ct"}, "2": {"label": "*3", "atom_type": "Cs"}, "7": {"label": "*2", "atom_type": "H0"}, "13": {"label": "*1", "atom_type": "Cs"}, "14": {"label": "*0", "atom_type": "CS"}}

>  <type>  (14) 
unop_10

>  <geom_source>  (14) 
Heuristics

$$$$

     RDKit          3D

 22 20  0  0  0  0  0  0  0  0999 V2000
   -1.5329   -0.2953   -3.1160 C   0  0  0  0  0  0  0  0  0  0  0  0
   -1.5329   -0.2953   -1.9199 C   0  0  0  0  0  0  0  0  0  0  0  0
   -1.5329   -0.2552   -0.4533 C   0  0  0  0  0  3  0  0  0  0  0  0
   -2.1710    1.0440    0.0687 C   0  0  0  0  0  0  0  0  0  0  0  0
   -2.1948   -1.4365    0.1115 C   0  0  0  0  0  0  0  0  0  0  0  0
   -2.7430   -2.3818    0.5980 C   0  0  0  0  0  0  0  0  0  0  0  0
   -1.5329   -0.2953   -4.1795 H   0  0  0  0  0  0  0  0  0  0  0  0
   -0.2793   -0.2825   -0.0602 H   0  0  0  0  0  0  0  0  0  0  0  0
   -3.2142    1.1012   -0.2391 H   0  0  0  0  0  0  0  0  0  0  0  0
   -1.6384    1.9054   -0.3330 H   0  0  0  0  0  0  0  0  0  0  0  0
   -2.1238    1.0684    1.1569 H   0  0  0  0  0  0  0  0  0  0  0  0
   -3.2304   -3.2222    1.0305 H   0  0  0  0  0  0  0  0  0  0  0  0
    1.0856   -0.9875    1.6833 C   0  0  0  0  0  0  0  0  0  0  0  0
    0.9741   -0.3097    0.3329 C   0  0  0  0  0  0  0  0  0  0  0  0
    0.8573    1.1849    0.3403 C   0  0  0  0  0  0  0  0  0  0  0  0
    1.0880    2.1644    1.5945 S   0  0  0  0  0  0  0  0  0  0  0  0
    2.3613   -0.7098   -0.7974 S   0  0  0  0  0  0  0  0  0  0  0  0
    1.9694   -0.6443    2.2209 H   0  0  0  0  0  0  0  0  0  0  0  0
    0.2138   -0.7542    2.2969 H   0  0  0  0  0  0  0  0  0  0  0  0
    1.1516   -2.0668    1.5529 H   0  0  0  0  0  0  0  0  0  0  0  0
    0.6150    1.6023   -0.6372 H   0  0  0  0  0  0  0  0  0  0  0  0
    3.3115   -0.1152   -0.0615 H   0  0  0  0  0  0  0  0  0  0  0  0
  1  2  3  0
  1  7  1  0
  2  3  1  0
  3  4  1  0
  3  5  1  0
  4  9  1  0
  4 10  1  0
  4 11  1  0
  5  6  3  0
  6 12  1  0
  8 14  1  0
 13 14  1  0
 13 18  1  0
 13 19  1  0
 13 20  1  0
 14 15  1  0
 14 17  1  0
 15 16  2  0
 15 21  1  0
 17 22  1  0
M  RAD  1   3   2
M  END
>  <reaction>  (15) 
rxn_1422

>  <mol_properties>  (15) 
{"1": {"label": "*4", "atom_type": "Ct"}, "2": {"label": "*3", "atom_type": "Cs"}, "7": {"label": "*2", "atom_type": "H0"}, "13": {"label": "*1", "atom_type": "Cs"}, "14": {"label": "*0", "atom_type": "CS"}}

>  <type>  (15) 
unop_11

>  <geom_source>  (15) 
Heuristics

$$$$

     RDKit          3D

 22 20  0  0  0  0  0  0  0  0999 V2000
   -1.6002    0.3085   -3.3164 C   0  0  0  0  0  0  0  0  0  0  0  0
   -1.6002    0.3085   -2.1202 C   0  0  0  0  0  0  0  0  0  0  0  0
   -1.6002    0.3486   -0.6537 C   0  0  0  0  0  3  0  0  0  0  0  0
   -2.2383    1.6478   -0.1317 C   0  0  0  0  0  0  0  0  0  0  0  0
   -2.2621   -0.8326   -0.0889 C   0  0  0  0  0  0  0  0  0  0  0  0
   -2.8103   -1.7779    0.3976 C   0  0  0  0  0  0  0  0  0  0  0  0
   -1.6002    0.3085   -4.3798 H   0  0  0  0  0  0  0  0  0  0  0  0
   -0.3466    0.3214   -0.2605 H   0  0  0  0  0  0  0  0  0  0  0  0
   -3.2815    1.7051   -0.4394 H   0  0  0  0  0  0  0  0  0  0  0  0
   -1.7057    2.5093   -0.5333 H   0  0  0  0  0  0  0  0  0  0  0  0
   -2.1911    1.6723    0.9566 H   0  0  0  0  0  0  0  0  0  0  0  0
   -3.2977   -2.6183    0.8301 H   0  0  0  0  0  0  0  0  0  0  0  0
    1.8312    0.2334   -1.0663 C   0  0  0  0  0  0  0  0  0  0  0  0
    0.9068    0.2941    0.1326 C   0  0  0  0  0  0  0  0  0  0  0  0
    1.0318   -0.8156    1.1328 C   0  0  0  0  0  0  0  0  0  0  0  0
    2.1983   -1.9199    1.2077 S   0  0  0  0  0  0  0  0  0  0  0  0
    1.0487    1.8571    1.0808 S   0  0  0  0  0  0  0  0  0  0  0  0
    2.8756    0.2580   -0.7559 H   0  0  0  0  0  0  0  0  0  0  0  0
    1.6724   -0.6936   -1.6199 H   0  0  0  0  0  0  0  0  0  0  0  0
    1.6410    1.0795   -1.7252 H   0  0  0  0  0  0  0  0  0  0  0  0
    0.2386   -0.8122    1.8806 H   0  0  0  0  0  0  0  0  0  0  0  0
    2.3118    1.6570    1.4837 H   0  0  0  0  0  0  0  0  0  0  0  0
  1  2  3  0
  1  7  1  0
  2  3  1  0
  3  4  1  0
  3  5  1  0
  4  9  1  0
  4 10  1  0
  4 11  1  0
  5  6  3  0
  6 12  1  0
  8 14  1  0
 13 14  1  0
 13 18  1  0
 13 19  1  0
 13 20  1  0
 14 15  1  0
 14 17  1  0
 15 16  2  0
 15 21  1  0
 17 22  1  0
M  RAD  1   3   2
M  END
>  <reaction>  (16) 
rxn_1422

>  <mol_properties>  (16) 
{"1": {"label": "*4", "atom_type": "Ct"}, "2": {"label": "*3", "atom_type": "Cs"}, "7": {"label": "*2", "atom_type": "H0"}, "13": {"label": "*1", "atom_type": "Cs"}, "14": {"label": "*0", "atom_type": "CS"}}

>  <type>  (16) 
unop_12

>  <geom_source>  (16) 
Heuristics

$$$$

     RDKit          3D

 22 20  0  0  0  0  0  0  0  0999 V2000
    1.4201   -1.0943   -1.5819 S   0  0  0  0  0  0  0  0  0  0  0  0
    3.5059   -1.1098    1.0608 S   0  0  0  0  0  0  0  0  0  0  0  0
    1.3682   -0.1349   -0.0259 C   0  0  0  0  0  0  0  0  0  0  0  0
    1.8876    1.2884   -0.2423 C   0  0  0  0  0  0  0  0  0  0  0  0
   -1.6995   -1.5278   -0.4247 C   0  0  0  0  0  0  0  0  0  0  0  0
   -1.2241   -0.1620    0.0623 C   0  0  0  0  0  3  0  0  0  0  0  0
    2.0899   -0.8505    1.0926 C   0  0  0  0  0  0  0  0  0  0  0  0
   -1.5567    0.8823   -0.9143 C   0  0  0  0  0  0  0  0  0  0  0  0
   -1.8267    0.1653    1.3602 C   0  0  0  0  0  0  0  0  0  0  0  0
   -1.8284    1.7398   -1.7174 C   0  0  0  0  0  0  0  0  0  0  0  0
   -2.3204    0.4332    2.4273 C   0  0  0  0  0  0  0  0  0  0  0  0
    0.0889   -0.0395    0.3249 H   0  0  0  0  0  0  0  0  0  0  0  0
    1.2705    1.7983   -1.0117 H   0  0  0  0  0  0  0  0  0  0  0  0
    1.8151    1.8658    0.7036 H   0  0  0  0  0  0  0  0  0  0  0  0
    2.9452    1.2799   -0.5815 H   0  0  0  0  0  0  0  0  0  0  0  0
   -1.4165   -2.3106    0.3109 H   0  0  0  0  0  0  0  0  0  0  0  0
   -2.8035   -1.5391   -0.5593 H   0  0  0  0  0  0  0  0  0  0  0  0
   -1.2142   -1.7733   -1.3933 H   0  0  0  0  0  0  0  0  0  0  0  0
    1.5201   -1.1700    1.9586 H   0  0  0  0  0  0  0  0  0  0  0  0
    2.7993   -0.9021   -1.7902 H   0  0  0  0  0  0  0  0  0  0  0  0
   -2.0670    2.4923   -2.4222 H   0  0  0  0  0  0  0  0  0  0  0  0
   -2.7538    0.6684    3.3636 H   0  0  0  0  0  0  0  0  0  0  0  0
  1  3  1  0
  1 20  1  0
  2  7  2  0
  3  4  1  0
  3  7  1  0
  3 12  1  0
  4 13  1  0
  4 14  1  0
  4 15  1  0
  5  6  1  0
  5 16  1  0
  5 17  1  0
  5 18  1  0
  6  8  1  0
  6  9  1  0
  7 19  1  0
  8 10  3  0
  9 11  3  0
 10 21  1  0
 11 22  1  0
M  RAD  1   6   2
M  END
>  <reaction>  (17) 
rxn_1422

>  <mol_properties>  (17) 
{"1": {"label": "*4", "atom_type": "Ct"}, "2": {"label": "*3", "atom_type": "Cs"}, "7": {"label": "*2", "atom_type": "H0"}, "13": {"label": "*1", "atom_type": "Cs"}, "14": {"label": "*0", "atom_type": "CS"}}

>  <type>  (17) 
unop_13

>  <geom_source>  (17) 
AutoTST

$$$$

     RDKit          3D

 22 20  0  0  0  0  0  0  0  0999 V2000
   -1.6432    0.2596   -3.2930 C   0  0  0  0  0  0  0  0  0  0  0  0
   -1.6432    0.2596   -2.0968 C   0  0  0  0  0  0  0  0  0  0  0  0
   -1.6432    0.2997   -0.6302 C   0  0  0  0  0  3  0  0  0  0  0  0
   -2.2812    1.5989   -0.1082 C   0  0  0  0  0  0  0  0  0  0  0  0
   -2.3051   -0.8816   -0.0655 C   0  0  0  0  0  0  0  0  0  0  0  0
   -2.8533   -1.8268    0.4210 C   0  0  0  0  0  0  0  0  0  0  0  0
   -1.6432    0.2596   -4.3564 H   0  0  0  0  0  0  0  0  0  0  0  0
   -0.3896    0.2724   -0.2371 H   0  0  0  0  0  0  0  0  0  0  0  0
   -3.3245    1.6562   -0.4160 H   0  0  0  0  0  0  0  0  0  0  0  0
   -1.7486    2.4603   -0.5099 H   0  0  0  0  0  0  0  0  0  0  0  0
   -2.2340    1.6233    0.9800 H   0  0  0  0  0  0  0  0  0  0  0  0
   -3.3407   -2.6673    0.8535 H   0  0  0  0  0  0  0  0  0  0  0  0
    1.7529    0.9012   -0.8807 C   0  0  0  0  0  0  0  0  0  0  0  0
    0.8638    0.2452    0.1560 C   0  0  0  0  0  0  0  0  0  0  0  0
    1.4026   -0.9869    0.8186 C   0  0  0  0  0  0  0  0  0  0  0  0
    2.9085   -1.5451    0.7387 S   0  0  0  0  0  0  0  0  0  0  0  0
    0.3668    1.3788    1.5087 S   0  0  0  0  0  0  0  0  0  0  0  0
    2.6992    1.2158   -0.4409 H   0  0  0  0  0  0  0  0  0  0  0  0
    1.9790    0.1986   -1.6844 H   0  0  0  0  0  0  0  0  0  0  0  0
    1.2536    1.7738   -1.2995 H   0  0  0  0  0  0  0  0  0  0  0  0
    0.6625   -1.5068    1.4272 H   0  0  0  0  0  0  0  0  0  0  0  0
    1.6013    1.5492    2.0033 H   0  0  0  0  0  0  0  0  0  0  0  0
  1  2  3  0
  1  7  1  0
  2  3  1  0
  3  4  1  0
  3  5  1  0
  4  9  1  0
  4 10  1  0
  4 11  1  0
  5  6  3  0
  6 12  1  0
  8 14  1  0
 13 14  1  0
 13 18  1  0
 13 19  1  0
 13 20  1  0
 14 15  1  0
 14 17  1  0
 15 16  2  0
 15 21  1  0
 17 22  1  0
M  RAD  1   3   2
M  END
>  <reaction>  (18) 
rxn_1422

>  <mol_properties>  (18) 
{"1": {"label": "*4", "atom_type": "Ct"}, "2": {"label": "*3", "atom_type": "Cs"}, "7": {"label": "*2", "atom_type": "H0"}, "13": {"label": "*1", "atom_type": "Cs"}, "14": {"label": "*0", "atom_type": "CS"}}

>  <type>  (18) 
unop_14

>  <geom_source>  (18) 
gaussian_log

$$$$
