
     RDKit          3D

  7  6  0  0  0  0  0  0  0  0999 V2000
   -0.6782    0.0507    0.0301 C   0  0  0  0  0  0  0  0  0  0  0  0
    0.8092    0.0996    0.0213 C   0  0  0  0  0  0  0  0  0  0  0  0
    1.7473    0.7521    1.1507 S   0  0  0  0  0  0  0  0  0  0  0  0
   -1.0667    0.5456   -0.8653 H   0  0  0  0  0  0  0  0  0  0  0  0
   -1.0112   -0.9904   -0.0239 H   0  0  0  0  0  0  0  0  0  0  0  0
   -1.0920    0.5225    0.9188 H   0  0  0  0  0  0  0  0  0  0  0  0
    1.2740   -0.3620   -0.8520 H   0  0  0  0  0  0  0  0  0  0  0  0
  1  2  1  0
  1  4  1  0
  1  5  1  0
  1  6  1  0
  2  3  2  0
  2  7  1  0
M  END
>  <reaction>  (1) 
rxn_463

>  <mol_properties>  (1) 
{"1": {"label": "donator", "atom_type": "CS"}, "6": {"label": "d_hydrogen", "atom_type": "H0"}}

>  <type>  (1) 
r1h

$$$$

     RDKit          3D

  7  6  0  0  0  0  0  0  0  0999 V2000
   -0.6201    0.0189   -0.0017 C   0  0  0  0  0  0  0  0  0  0  0  0
    0.8589   -0.0553    0.0500 C   0  0  0  0  0  3  0  0  0  0  0  0
   -1.0738   -0.9730   -0.0559 H   0  0  0  0  0  0  0  0  0  0  0  0
   -0.9680    0.5706   -0.8872 H   0  0  0  0  0  0  0  0  0  0  0  0
   -1.0303    0.5369    0.8678 H   0  0  0  0  0  0  0  0  0  0  0  0
    1.3939   -0.8386   -0.4695 H   0  0  0  0  0  0  0  0  0  0  0  0
    1.4394    0.7404    0.4965 H   0  0  0  0  0  0  0  0  0  0  0  0
  1  2  1  0
  1  3  1  0
  1  4  1  0
  1  5  1  0
  2  6  1  0
  2  7  1  0
M  RAD  1   2   2
M  END
>  <reaction>  (2) 
rxn_463

>  <mol_properties>  (2) 
{"1": {"label": "acceptor", "atom_type": "Cs"}}

>  <type>  (2) 
r2

$$$$

     RDKit          3D

  8  7  0  0  0  0  0  0  0  0999 V2000
    0.7610    0.0250    0.0051 C   0  0  0  0  0  0  0  0  0  0  0  0
   -0.7610   -0.0250   -0.0051 C   0  0  0  0  0  0  0  0  0  0  0  0
    1.1904   -0.9237   -0.3217 H   0  0  0  0  0  0  0  0  0  0  0  0
    1.1359    0.8041   -0.6609 H   0  0  0  0  0  0  0  0  0  0  0  0
    1.1435    0.2336    1.0058 H   0  0  0  0  0  0  0  0  0  0  0  0
   -1.1435   -0.2336   -1.0058 H   0  0  0  0  0  0  0  0  0  0  0  0
   -1.1904    0.9237    0.3216 H   0  0  0  0  0  0  0  0  0  0  0  0
   -1.1359   -0.8041    0.6609 H   0  0  0  0  0  0  0  0  0  0  0  0
  1  2  1  0
  1  3  1  0
  1  4  1  0
  1  5  1  0
  2  6  1  0
  2  7  1  0
  2  8  1  0
M  END
>  <reaction>  (3) 
rxn_463

>  <mol_properties>  (3) 
{"1": {"label": "acceptor", "atom_type": "Cs"}, "7": {"label": "a_hydrogen", "atom_type": "H0"}}

>  <type>  (3) 
r2h

$$$$

     RDKit          3D

 14 12  0  0  0  0  0  0  0  0999 V2000
    0.8122   -1.9959    1.6513 C   0  0  0  0  0  0  0  0  0  0  0  0
   -0.1004   -2.1004    0.4640 C   0  0  0  0  0  3  0  0  0  0  0  0
    0.7602   -2.8937    2.2771 H   0  0  0  0  0  0  0  0  0  0  0  0
    0.5492   -1.1423    2.2785 H   0  0  0  0  0  0  0  0  0  0  0  0
    1.8515   -1.8704    1.3426 H   0  0  0  0  0  0  0  0  0  0  0  0
   -1.1657   -2.1174    0.6872 H   0  0  0  0  0  0  0  0  0  0  0  0
    0.1760   -2.8435   -0.2818 H   0  0  0  0  0  0  0  0  0  0  0  0
   -0.5001    0.3495   -2.0669 C   0  0  0  0  0  0  0  0  0  0  0  0
    0.2571    0.2687   -0.7951 C   0  0  0  0  0  0  0  0  0  0  0  0
    1.2074    1.3364   -0.0980 S   0  0  0  0  0  0  0  0  0  0  0  0
   -0.1874   -0.4688   -2.7225 H   0  0  0  0  0  0  0  0  0  0  0  0
   -1.5627    0.1886   -1.8622 H   0  0  0  0  0  0  0  0  0  0  0  0
   -0.3634    1.3028   -2.5773 H   0  0  0  0  0  0  0  0  0  0  0  0
    0.0673   -0.8822   -0.2099 H   0  0  0  0  0  0  0  0  0  0  0  0
  1  2  1  0
  1  3  1  0
  1  4  1  0
  1  5  1  0
  2  6  1  0
  2  7  1  0
  8  9  1  0
  8 11  1  0
  8 12  1  0
  8 13  1  0
  9 10  2  0
  9 14  1  0
M  RAD  1   2   2
M  END
>  <reaction>  (4) 
rxn_463

>  <mol_properties>  (4) 
{"0": {"label": "*4", "atom_type": "Cs"}, "1": {"label": "*3", "atom_type": "Cs"}, "8": {"label": "*1", "atom_type": "CS"}, "9": {"label": "*0", "atom_type": "S2d"}, "13": {"label": "*2", "atom_type": "H0"}}

>  <type>  (4) 
ts

$$$$

     RDKit          3D

 14 12  0  0  0  0  0  0  0  0999 V2000
    1.0245   -2.2211    1.3678 C   0  0  0  0  0  0  0  0  0  0  0  0
   -0.2045   -2.0144    0.4927 C   0  0  0  0  0  0  0  0  0  0  0  0
    0.7729   -2.7611    2.2823 H   0  0  0  0  0  0  0  0  0  0  0  0
    1.4682   -1.2674    1.6588 H   0  0  0  0  0  0  0  0  0  0  0  0
    1.7906   -2.7961    0.8448 H   0  0  0  0  0  0  0  0  0  0  0  0
   -0.9707   -1.4394    1.0158 H   0  0  0  0  0  0  0  0  0  0  0  0
   -0.6483   -2.9681    0.2018 H   0  0  0  0  0  0  0  0  0  0  0  0
   -0.2045    0.3676   -2.0860 C   0  0  0  0  0  0  0  0  0  0  0  0
   -0.2045    0.3676   -0.5979 C   0  0  0  0  0  3  0  0  0  0  0  0
   -0.2045    1.6615    0.3546 S   0  0  0  0  0  0  0  0  0  0  0  0
    0.6716   -0.1761   -2.4528 H   0  0  0  0  0  0  0  0  0  0  0  0
   -1.0807   -0.1761   -2.4528 H   0  0  0  0  0  0  0  0  0  0  0  0
   -0.2045    1.3780   -2.4893 H   0  0  0  0  0  0  0  0  0  0  0  0
   -0.2045   -0.8235   -0.0525 H   0  0  0  0  0  0  0  0  0  0  0  0
  1  2  1  0
  1  3  1  0
  1  4  1  0
  1  5  1  0
  2  6  1  0
  2  7  1  0
  2 14  1  0
  8  9  1  0
  8 11  1  0
  8 12  1  0
  8 13  1  0
  9 10  2  0
M  RAD  1   9   2
M  END
>  <reaction>  (5) 
rxn_463

>  <mol_properties>  (5) 
{"0": {"label": "*4", "atom_type": "Cs"}, "1": {"label": "*3", "atom_type": "Cs"}, "8": {"label": "*1", "atom_type": "CS"}, "9": {"label": "*0", "atom_type": "S2d"}, "13": {"label": "*2", "atom_type": "H0"}}

>  <type>  (5) 
unop_1

>  <geom_source>  (5) 
Heuristics

$$$$

     RDKit          3D

 14 12  0  0  0  0  0  0  0  0999 V2000
    0.5866   -2.8880   -0.0934 C   0  0  0  0  0  0  0  0  0  0  0  0
   -0.1229   -1.8742    0.7941 C   0  0  0  0  0  0  0  0  0  0  0  0
    0.8686   -3.7789    0.4705 H   0  0  0  0  0  0  0  0  0  0  0  0
    1.4971   -2.4680   -0.5244 H   0  0  0  0  0  0  0  0  0  0  0  0
   -0.0525   -3.2077   -0.9183 H   0  0  0  0  0  0  0  0  0  0  0  0
    0.5162   -1.5545    1.6191 H   0  0  0  0  0  0  0  0  0  0  0  0
   -1.0334   -2.2942    1.2252 H   0  0  0  0  0  0  0  0  0  0  0  0
   -0.1229    0.5077   -1.7847 C   0  0  0  0  0  0  0  0  0  0  0  0
   -0.1229    0.5077   -0.2965 C   0  0  0  0  0  3  0  0  0  0  0  0
   -0.1229    1.8016    0.6559 S   0  0  0  0  0  0  0  0  0  0  0  0
    0.7532   -0.0359   -2.1515 H   0  0  0  0  0  0  0  0  0  0  0  0
   -0.9991   -0.0359   -2.1515 H   0  0  0  0  0  0  0  0  0  0  0  0
   -0.1229    1.5181   -2.1880 H   0  0  0  0  0  0  0  0  0  0  0  0
   -0.1229   -0.6834    0.2488 H   0  0  0  0  0  0  0  0  0  0  0  0
  1  2  1  0
  1  3  1  0
  1  4  1  0
  1  5  1  0
  2  6  1  0
  2  7  1  0
  2 14  1  0
  8  9  1  0
  8 11  1  0
  8 12  1  0
  8 13  1  0
  9 10  2  0
M  RAD  1   9   2
M  END
>  <reaction>  (6) 
rxn_463

>  <mol_properties>  (6) 
{"0": {"label": "*4", "atom_type": "Cs"}, "1": {"label": "*3", "atom_type": "Cs"}, "8": {"label": "*1", "atom_type": "CS"}, "9": {"label": "*0", "atom_type": "S2d"}, "13": {"label": "*2", "atom_type": "H0"}}

>  <type>  (6) 
unop_2

>  <geom_source>  (6) 
Heuristics

$$$$

     RDKit          3D

 14 12  0  0  0  0  0  0  0  0999 V2000
    0.5944   -2.0388    1.7632 C   0  0  0  0  0  0  0  0  0  0  0  0
   -0.1152   -2.0483    0.4159 C   0  0  0  0  0  0  0  0  0  0  0  0
    0.1919   -2.8051    2.4280 H   0  0  0  0  0  0  0  0  0  0  0  0
    0.4815   -1.0752    2.2633 H   0  0  0  0  0  0  0  0  0  0  0  0
    1.6631   -2.2286    1.6491 H   0  0  0  0  0  0  0  0  0  0  0  0
   -1.1839   -1.8585    0.5300 H   0  0  0  0  0  0  0  0  0  0  0  0
   -0.0023   -3.0118   -0.0842 H   0  0  0  0  0  0  0  0  0  0  0  0
   -0.1152    0.3336   -2.1629 C   0  0  0  0  0  0  0  0  0  0  0  0
   -0.1152    0.3336   -0.6748 C   0  0  0  0  0  3  0  0  0  0  0  0
   -0.1152    1.6275    0.2777 S   0  0  0  0  0  0  0  0  0  0  0  0
    0.7610   -0.2100   -2.5297 H   0  0  0  0  0  0  0  0  0  0  0  0
   -0.9913   -0.2100   -2.5297 H   0  0  0  0  0  0  0  0  0  0  0  0
   -0.1151    1.3441   -2.5662 H   0  0  0  0  0  0  0  0  0  0  0  0
   -0.1152   -0.8575   -0.1294 H   0  0  0  0  0  0  0  0  0  0  0  0
  1  2  1  0
  1  3  1  0
  1  4  1  0
  1  5  1  0
  2  6  1  0
  2  7  1  0
  2 14  1  0
  8  9  1  0
  8 11  1  0
  8 12  1  0
  8 13  1  0
  9 10  2  0
M  RAD  1   9   2
M  END
>  <reaction>  (7) 
rxn_463

>  <mol_properties>  (7) 
{"0": {"label": "*4", "atom_type": "Cs"}, "1": {"label": "*3", "atom_type": "Cs"}, "8": {"label": "*1", "atom_type": "CS"}, "9": {"label": "*0", "atom_type": "S2d"}, "13": {"label": "*2", "atom_type": "H0"}}

>  <type>  (7) 
unop_3

>  <geom_source>  (7) 
Heuristics

$$$$

     RDKit          3D

 14 12  0  0  0  0  0  0  0  0999 V2000
   -1.0181   -2.7106    0.2966 C   0  0  0  0  0  0  0  0  0  0  0  0
    0.2109   -1.9131    0.7118 C   0  0  0  0  0  0  0  0  0  0  0  0
   -1.3330   -3.3931    1.0880 H   0  0  0  0  0  0  0  0  0  0  0  0
   -0.8197   -3.3079   -0.5951 H   0  0  0  0  0  0  0  0  0  0  0  0
   -1.8599   -2.0529    0.0732 H   0  0  0  0  0  0  0  0  0  0  0  0
    1.0527   -2.5708    0.9353 H   0  0  0  0  0  0  0  0  0  0  0  0
    0.0125   -1.3158    1.6036 H   0  0  0  0  0  0  0  0  0  0  0  0
    0.2109    0.4688   -1.8670 C   0  0  0  0  0  0  0  0  0  0  0  0
    0.2109    0.4688   -0.3788 C   0  0  0  0  0  3  0  0  0  0  0  0
    0.2109    1.7628    0.5736 S   0  0  0  0  0  0  0  0  0  0  0  0
    1.0871   -0.0748   -2.2337 H   0  0  0  0  0  0  0  0  0  0  0  0
   -0.6652   -0.0748   -2.2337 H   0  0  0  0  0  0  0  0  0  0  0  0
    0.2109    1.4793   -2.2702 H   0  0  0  0  0  0  0  0  0  0  0  0
    0.2109   -0.7222    0.1666 H   0  0  0  0  0  0  0  0  0  0  0  0
  1  2  1  0
  1  3  1  0
  1  4  1  0
  1  5  1  0
  2  6  1  0
  2  7  1  0
  2 14  1  0
  8  9  1  0
  8 11  1  0
  8 12  1  0
  8 13  1  0
  9 10  2  0
M  RAD  1   9   2
M  END
>  <reaction>  (8) 
rxn_463

>  <mol_properties>  (8) 
{"0": {"label": "*4", "atom_type": "Cs"}, "1": {"label": "*3", "atom_type": "Cs"}, "8": {"label": "*1", "atom_type": "CS"}, "9": {"label": "*0", "atom_type": "S2d"}, "13": {"label": "*2", "atom_type": "H0"}}

>  <type>  (8) 
unop_4

>  <geom_source>  (8) 
Heuristics

$$$$

     RDKit          3D

 14 12  0  0  0  0  0  0  0  0999 V2000
   -0.0000   -1.9704    1.9093 C   0  0  0  0  0  0  0  0  0  0  0  0
   -0.0000   -2.0591    0.3891 C   0  0  0  0  0  0  0  0  0  0  0  0
   -0.0000   -2.9628    2.3637 H   0  0  0  0  0  0  0  0  0  0  0  0
   -0.8808   -1.4397    2.2749 H   0  0  0  0  0  0  0  0  0  0  0  0
    0.8808   -1.4397    2.2749 H   0  0  0  0  0  0  0  0  0  0  0  0
   -0.8809   -2.5898    0.0235 H   0  0  0  0  0  0  0  0  0  0  0  0
    0.8808   -2.5898    0.0235 H   0  0  0  0  0  0  0  0  0  0  0  0
    0.0000    0.3228   -2.1897 C   0  0  0  0  0  0  0  0  0  0  0  0
    0.0000    0.3228   -0.7015 C   0  0  0  0  0  3  0  0  0  0  0  0
    0.0000    1.6167    0.2509 S   0  0  0  0  0  0  0  0  0  0  0  0
    0.8761   -0.2208   -2.5565 H   0  0  0  0  0  0  0  0  0  0  0  0
   -0.8762   -0.2208   -2.5565 H   0  0  0  0  0  0  0  0  0  0  0  0
    0.0000    1.3333   -2.5930 H   0  0  0  0  0  0  0  0  0  0  0  0
   -0.0000   -0.8683   -0.1562 H   0  0  0  0  0  0  0  0  0  0  0  0
  1  2  1  0
  1  3  1  0
  1  4  1  0
  1  5  1  0
  2  6  1  0
  2  7  1  0
  2 14  1  0
  8  9  1  0
  8 11  1  0
  8 12  1  0
  8 13  1  0
  9 10  2  0
M  RAD  1   9   2
M  END
>  <reaction>  (9) 
rxn_463

>  <mol_properties>  (9) 
{"0": {"label": "*4", "atom_type": "Cs"}, "1": {"label": "*3", "atom_type": "Cs"}, "8": {"label": "*1", "atom_type": "CS"}, "9": {"label": "*0", "atom_type": "S2d"}, "13": {"label": "*2", "atom_type": "H0"}}

>  <type>  (9) 
unop_5

>  <geom_source>  (9) 
Heuristics

$$$$

     RDKit          3D

 14 12  0  0  0  0  0  0  0  0999 V2000
   -1.1787   -2.4668    0.8311 C   0  0  0  0  0  0  0  0  0  0  0  0
    0.2404   -1.9646    0.6012 C   0  0  0  0  0  0  0  0  0  0  0  0
   -1.2623   -2.9956    1.7822 H   0  0  0  0  0  0  0  0  0  0  0  0
   -1.4878   -3.1549    0.0423 H   0  0  0  0  0  0  0  0  0  0  0  0
   -1.8928   -1.6415    0.8481 H   0  0  0  0  0  0  0  0  0  0  0  0
    0.9544   -2.7899    0.5842 H   0  0  0  0  0  0  0  0  0  0  0  0
    0.5495   -1.2766    1.3900 H   0  0  0  0  0  0  0  0  0  0  0  0
    0.2404    0.4173   -1.9776 C   0  0  0  0  0  0  0  0  0  0  0  0
    0.2404    0.4173   -0.4895 C   0  0  0  0  0  3  0  0  0  0  0  0
    0.2404    1.7112    0.4630 S   0  0  0  0  0  0  0  0  0  0  0  0
    1.1165   -0.1264   -2.3444 H   0  0  0  0  0  0  0  0  0  0  0  0
   -0.6358   -0.1263   -2.3444 H   0  0  0  0  0  0  0  0  0  0  0  0
    0.2404    1.4277   -2.3809 H   0  0  0  0  0  0  0  0  0  0  0  0
    0.2404   -0.7738    0.0559 H   0  0  0  0  0  0  0  0  0  0  0  0
  1  2  1  0
  1  3  1  0
  1  4  1  0
  1  5  1  0
  2  6  1  0
  2  7  1  0
  2 14  1  0
  8  9  1  0
  8 11  1  0
  8 12  1  0
  8 13  1  0
  9 10  2  0
M  RAD  1   9   2
M  END
>  <reaction>  (10) 
rxn_463

>  <mol_properties>  (10) 
{"0": {"label": "*4", "atom_type": "Cs"}, "1": {"label": "*3", "atom_type": "Cs"}, "8": {"label": "*1", "atom_type": "CS"}, "9": {"label": "*0", "atom_type": "S2d"}, "13": {"label": "*2", "atom_type": "H0"}}

>  <type>  (10) 
unop_6

>  <geom_source>  (10) 
Heuristics

$$$$

     RDKit          3D

 14 12  0  0  0  0  0  0  0  0999 V2000
   -1.0245   -2.2211    1.3678 C   0  0  0  0  0  0  0  0  0  0  0  0
    0.2045   -2.0144    0.4927 C   0  0  0  0  0  0  0  0  0  0  0  0
   -0.7730   -2.7611    2.2823 H   0  0  0  0  0  0  0  0  0  0  0  0
   -1.7907   -2.7961    0.8448 H   0  0  0  0  0  0  0  0  0  0  0  0
   -1.4682   -1.2674    1.6588 H   0  0  0  0  0  0  0  0  0  0  0  0
    0.6483   -2.9681    0.2018 H   0  0  0  0  0  0  0  0  0  0  0  0
    0.9707   -1.4394    1.0158 H   0  0  0  0  0  0  0  0  0  0  0  0
    0.2045    0.3675   -2.0860 C   0  0  0  0  0  0  0  0  0  0  0  0
    0.2045    0.3675   -0.5979 C   0  0  0  0  0  3  0  0  0  0  0  0
    0.2045    1.6615    0.3546 S   0  0  0  0  0  0  0  0  0  0  0  0
    1.0806   -0.1761   -2.4528 H   0  0  0  0  0  0  0  0  0  0  0  0
   -0.6716   -0.1761   -2.4528 H   0  0  0  0  0  0  0  0  0  0  0  0
    0.2045    1.3780   -2.4893 H   0  0  0  0  0  0  0  0  0  0  0  0
    0.2045   -0.8235   -0.0525 H   0  0  0  0  0  0  0  0  0  0  0  0
  1  2  1  0
  1  3  1  0
  1  4  1  0
  1  5  1  0
  2  6  1  0
  2  7  1  0
  2 14  1  0
  8  9  1  0
  8 11  1  0
  8 12  1  0
  8 13  1  0
  9 10  2  0
M  RAD  1   9   2
M  END
>  <reaction>  (11) 
rxn_463

>  <mol_properties>  (11) 
{"0": {"label": "*4", "atom_type": "Cs"}, "1": {"label": "*3", "atom_type": "Cs"}, "8": {"label": "*1", "atom_type": "CS"}, "9": {"label": "*0", "atom_type": "S2d"}, "13": {"label": "*2", "atom_type": "H0"}}

>  <type>  (11) 
unop_7

>  <geom_source>  (11) 
Heuristics

$$$$

     RDKit          3D

 14 12  0  0  0  0  0  0  0  0999 V2000
    1.1787   -2.4668    0.8311 C   0  0  0  0  0  0  0  0  0  0  0  0
   -0.2404   -1.9646    0.6012 C   0  0  0  0  0  0  0  0  0  0  0  0
    1.2623   -2.9956    1.7822 H   0  0  0  0  0  0  0  0  0  0  0  0
    1.8928   -1.6415    0.8481 H   0  0  0  0  0  0  0  0  0  0  0  0
    1.4878   -3.1549    0.0423 H   0  0  0  0  0  0  0  0  0  0  0  0
   -0.5495   -1.2766    1.3900 H   0  0  0  0  0  0  0  0  0  0  0  0
   -0.9544   -2.7899    0.5842 H   0  0  0  0  0  0  0  0  0  0  0  0
   -0.2404    0.4173   -1.9776 C   0  0  0  0  0  0  0  0  0  0  0  0
   -0.2404    0.4173   -0.4895 C   0  0  0  0  0  3  0  0  0  0  0  0
   -0.2404    1.7112    0.4630 S   0  0  0  0  0  0  0  0  0  0  0  0
    0.6358   -0.1264   -2.3444 H   0  0  0  0  0  0  0  0  0  0  0  0
   -1.1165   -0.1263   -2.3444 H   0  0  0  0  0  0  0  0  0  0  0  0
   -0.2404    1.4277   -2.3809 H   0  0  0  0  0  0  0  0  0  0  0  0
   -0.2404   -0.7738    0.0559 H   0  0  0  0  0  0  0  0  0  0  0  0
  1  2  1  0
  1  3  1  0
  1  4  1  0
  1  5  1  0
  2  6  1  0
  2  7  1  0
  2 14  1  0
  8  9  1  0
  8 11  1  0
  8 12  1  0
  8 13  1  0
  9 10  2  0
M  RAD  1   9   2
M  END
>  <reaction>  (12) 
rxn_463

>  <mol_properties>  (12) 
{"0": {"label": "*4", "atom_type": "Cs"}, "1": {"label": "*3", "atom_type": "Cs"}, "8": {"label": "*1", "atom_type": "CS"}, "9": {"label": "*0", "atom_type": "S2d"}, "13": {"label": "*2", "atom_type": "H0"}}

>  <type>  (12) 
unop_8

>  <geom_source>  (12) 
Heuristics

$$$$

     RDKit          3D

 14 12  0  0  0  0  0  0  0  0999 V2000
   -0.5867   -2.8880   -0.0934 C   0  0  0  0  0  0  0  0  0  0  0  0
    0.1229   -1.8742    0.7941 C   0  0  0  0  0  0  0  0  0  0  0  0
   -0.8686   -3.7789    0.4705 H   0  0  0  0  0  0  0  0  0  0  0  0
    0.0524   -3.2077   -0.9183 H   0  0  0  0  0  0  0  0  0  0  0  0
   -1.4971   -2.4680   -0.5244 H   0  0  0  0  0  0  0  0  0  0  0  0
    1.0334   -2.2942    1.2252 H   0  0  0  0  0  0  0  0  0  0  0  0
   -0.5162   -1.5545    1.6191 H   0  0  0  0  0  0  0  0  0  0  0  0
    0.1229    0.5077   -1.7847 C   0  0  0  0  0  0  0  0  0  0  0  0
    0.1229    0.5077   -0.2965 C   0  0  0  0  0  3  0  0  0  0  0  0
    0.1229    1.8016    0.6559 S   0  0  0  0  0  0  0  0  0  0  0  0
    0.9990   -0.0359   -2.1515 H   0  0  0  0  0  0  0  0  0  0  0  0
   -0.7532   -0.0359   -2.1515 H   0  0  0  0  0  0  0  0  0  0  0  0
    0.1229    1.5181   -2.1880 H   0  0  0  0  0  0  0  0  0  0  0  0
    0.1229   -0.6834    0.2488 H   0  0  0  0  0  0  0  0  0  0  0  0
  1  2  1  0
  1  3  1  0
  1  4  1  0
  1  5  1  0
  2  6  1  0
  2  7  1  0
  2 14  1  0
  8  9  1  0
  8 11  1  0
  8 12  1  0
  8 13  1  0
  9 10  2  0
M  RAD  1   9   2
M  END
>  <reaction>  (13) 
rxn_463

>  <mol_properties>  (13) 
{"0": {"label": "*4", "atom_type": "Cs"}, "1": {"label": "*3", "atom_type": "Cs"}, "8": {"label": "*1", "atom_type": "CS"}, "9": {"label": "*0", "atom_type": "S2d"}, "13": {"label": "*2", "atom_type": "H0"}}

>  <type>  (13) 
unop_9

>  <geom_source>  (13) 
Heuristics

$$$$

     RDKit          3D

 14 12  0  0  0  0  0  0  0  0999 V2000
    1.0181   -2.7106    0.2966 C   0  0  0  0  0  0  0  0  0  0  0  0
   -0.2109   -1.9131    0.7118 C   0  0  0  0  0  0  0  0  0  0  0  0
    1.3330   -3.3931    1.0880 H   0  0  0  0  0  0  0  0  0  0  0  0
    1.8599   -2.0529    0.0732 H   0  0  0  0  0  0  0  0  0  0  0  0
    0.8197   -3.3079   -0.5951 H   0  0  0  0  0  0  0  0  0  0  0  0
   -0.0126   -1.3158    1.6036 H   0  0  0  0  0  0  0  0  0  0  0  0
   -1.0528   -2.5708    0.9353 H   0  0  0  0  0  0  0  0  0  0  0  0
   -0.2109    0.4688   -1.8670 C   0  0  0  0  0  0  0  0  0  0  0  0
   -0.2109    0.4688   -0.3788 C   0  0  0  0  0  3  0  0  0  0  0  0
   -0.2109    1.7628    0.5736 S   0  0  0  0  0  0  0  0  0  0  0  0
    0.6652   -0.0748   -2.2337 H   0  0  0  0  0  0  0  0  0  0  0  0
   -1.0871   -0.0748   -2.2337 H   0  0  0  0  0  0  0  0  0  0  0  0
   -0.2109    1.4793   -2.2702 H   0  0  0  0  0  0  0  0  0  0  0  0
   -0.2109   -0.7222    0.1666 H   0  0  0  0  0  0  0  0  0  0  0  0
  1  2  1  0
  1  3  1  0
  1  4  1  0
  1  5  1  0
  2  6  1  0
  2  7  1  0
  2 14  1  0
  8  9  1  0
  8 11  1  0
  8 12  1  0
  8 13  1  0
  9 10  2  0
M  RAD  1   9   2
M  END
>  <reaction>  (14) 
rxn_463

>  <mol_properties>  (14) 
{"0": {"label": "*4", "atom_type": "Cs"}, "1": {"label": "*3", "atom_type": "Cs"}, "8": {"label": "*1", "atom_type": "CS"}, "9": {"label": "*0", "atom_type": "S2d"}, "13": {"label": "*2", "atom_type": "H0"}}

>  <type>  (14) 
unop_10

>  <geom_source>  (14) 
Heuristics

$$$$

     RDKit          3D

 14 12  0  0  0  0  0  0  0  0999 V2000
   -0.5944   -2.0388    1.7632 C   0  0  0  0  0  0  0  0  0  0  0  0
    0.1152   -2.0483    0.4159 C   0  0  0  0  0  0  0  0  0  0  0  0
   -0.1919   -2.8051    2.4280 H   0  0  0  0  0  0  0  0  0  0  0  0
   -1.6631   -2.2286    1.6491 H   0  0  0  0  0  0  0  0  0  0  0  0
   -0.4815   -1.0752    2.2633 H   0  0  0  0  0  0  0  0  0  0  0  0
    0.0023   -3.0118   -0.0842 H   0  0  0  0  0  0  0  0  0  0  0  0
    1.1839   -1.8585    0.5300 H   0  0  0  0  0  0  0  0  0  0  0  0
    0.1152    0.3336   -2.1629 C   0  0  0  0  0  0  0  0  0  0  0  0
    0.1152    0.3336   -0.6748 C   0  0  0  0  0  3  0  0  0  0  0  0
    0.1152    1.6275    0.2777 S   0  0  0  0  0  0  0  0  0  0  0  0
    0.9913   -0.2100   -2.5297 H   0  0  0  0  0  0  0  0  0  0  0  0
   -0.7610   -0.2100   -2.5297 H   0  0  0  0  0  0  0  0  0  0  0  0
    0.1152    1.3441   -2.5662 H   0  0  0  0  0  0  0  0  0  0  0  0
    0.1152   -0.8575   -0.1294 H   0  0  0  0  0  0  0  0  0  0  0  0
  1  2  1  0
  1  3  1  0
  1  4  1  0
  1  5  1  0
  2  6  1  0
  2  7  1  0
  2 14  1  0
  8  9  1  0
  8 11  1  0
  8 12  1  0
  8 13  1  0
  9 10  2  0
M  RAD  1   9   2
M  END
>  <reaction>  (15) 
rxn_463

>  <mol_properties>  (15) 
{"0": {"label": "*4", "atom_type": "Cs"}, "1": {"label": "*3", "atom_type": "Cs"}, "8": {"label": "*1", "atom_type": "CS"}, "9": {"label": "*0", "atom_type": "S2d"}, "13": {"label": "*2", "atom_type": "H0"}}

>  <type>  (15) 
unop_11

>  <geom_source>  (15) 
Heuristics

$$$$

     RDKit          3D

 14 12  0  0  0  0  0  0  0  0999 V2000
   -0.0000   -2.9527   -0.2358 C   0  0  0  0  0  0  0  0  0  0  0  0
   -0.0000   -1.8597    0.8245 C   0  0  0  0  0  0  0  0  0  0  0  0
   -0.0000   -3.9450    0.2185 H   0  0  0  0  0  0  0  0  0  0  0  0
    0.8808   -2.8827   -0.8765 H   0  0  0  0  0  0  0  0  0  0  0  0
   -0.8809   -2.8827   -0.8765 H   0  0  0  0  0  0  0  0  0  0  0  0
    0.8808   -1.9297    1.4651 H   0  0  0  0  0  0  0  0  0  0  0  0
   -0.8808   -1.9297    1.4651 H   0  0  0  0  0  0  0  0  0  0  0  0
    0.0000    0.5222   -1.7543 C   0  0  0  0  0  0  0  0  0  0  0  0
    0.0000    0.5222   -0.2661 C   0  0  0  0  0  3  0  0  0  0  0  0
    0.0000    1.8161    0.6863 S   0  0  0  0  0  0  0  0  0  0  0  0
    0.8761   -0.0214   -2.1211 H   0  0  0  0  0  0  0  0  0  0  0  0
   -0.8762   -0.0214   -2.1211 H   0  0  0  0  0  0  0  0  0  0  0  0
    0.0000    1.5326   -2.1576 H   0  0  0  0  0  0  0  0  0  0  0  0
   -0.0000   -0.6689    0.2792 H   0  0  0  0  0  0  0  0  0  0  0  0
  1  2  1  0
  1  3  1  0
  1  4  1  0
  1  5  1  0
  2  6  1  0
  2  7  1  0
  2 14  1  0
  8  9  1  0
  8 11  1  0
  8 12  1  0
  8 13  1  0
  9 10  2  0
M  RAD  1   9   2
M  END
>  <reaction>  (16) 
rxn_463

>  <mol_properties>  (16) 
{"0": {"label": "*4", "atom_type": "Cs"}, "1": {"label": "*3", "atom_type": "Cs"}, "8": {"label": "*1", "atom_type": "CS"}, "9": {"label": "*0", "atom_type": "S2d"}, "13": {"label": "*2", "atom_type": "H0"}}

>  <type>  (16) 
unop_12

>  <geom_source>  (16) 
Heuristics

$$$$

     RDKit          3D

 14 12  0  0  0  0  0  0  0  0999 V2000
    1.7682   -1.6587   -1.2748 S   0  0  0  0  0  0  0  0  0  0  0  0
   -1.3398   -0.5667   -0.3978 C   0  0  0  0  0  0  0  0  0  0  0  0
   -1.7993    0.6426    0.3968 C   0  0  0  0  0  0  0  0  0  0  0  0
    2.1652    0.3037    0.3059 C   0  0  0  0  0  0  0  0  0  0  0  0
    1.2565   -0.5509   -0.5181 C   0  0  0  0  0  3  0  0  0  0  0  0
   -0.0870   -0.4016   -0.7680 H   0  0  0  0  0  0  0  0  0  0  0  0
   -1.9742   -0.6876   -1.3011 H   0  0  0  0  0  0  0  0  0  0  0  0
   -1.4180   -1.4808    0.2277 H   0  0  0  0  0  0  0  0  0  0  0  0
   -1.1619    0.7624    1.2977 H   0  0  0  0  0  0  0  0  0  0  0  0
   -2.8556    0.5084    0.7115 H   0  0  0  0  0  0  0  0  0  0  0  0
   -1.7178    1.5551   -0.2301 H   0  0  0  0  0  0  0  0  0  0  0  0
    1.5660    1.0941    0.8028 H   0  0  0  0  0  0  0  0  0  0  0  0
    2.6675   -0.3074    1.0862 H   0  0  0  0  0  0  0  0  0  0  0  0
    2.9301    0.7873   -0.3387 H   0  0  0  0  0  0  0  0  0  0  0  0
  1  5  2  0
  2  3  1  0
  2  6  1  0
  2  7  1  0
  2  8  1  0
  3  9  1  0
  3 10  1  0
  3 11  1  0
  4  5  1  0
  4 12  1  0
  4 13  1  0
  4 14  1  0
M  RAD  1   5   2
M  END
>  <reaction>  (17) 
rxn_463

>  <mol_properties>  (17) 
{"0": {"label": "*4", "atom_type": "Cs"}, "1": {"label": "*3", "atom_type": "Cs"}, "8": {"label": "*1", "atom_type": "CS"}, "9": {"label": "*0", "atom_type": "S2d"}, "13": {"label": "*2", "atom_type": "H0"}}

>  <type>  (17) 
unop_13

>  <geom_source>  (17) 
AutoTST

$$$$

     RDKit          3D

 14 12  0  0  0  0  0  0  0  0999 V2000
    0.5866   -2.8880   -0.0934 C   0  0  0  0  0  0  0  0  0  0  0  0
   -0.1229   -1.8742    0.7941 C   0  0  0  0  0  0  0  0  0  0  0  0
    0.8686   -3.7789    0.4705 H   0  0  0  0  0  0  0  0  0  0  0  0
    1.4971   -2.4680   -0.5244 H   0  0  0  0  0  0  0  0  0  0  0  0
   -0.0525   -3.2077   -0.9183 H   0  0  0  0  0  0  0  0  0  0  0  0
    0.5162   -1.5545    1.6191 H   0  0  0  0  0  0  0  0  0  0  0  0
   -1.0334   -2.2942    1.2252 H   0  0  0  0  0  0  0  0  0  0  0  0
   -0.1229    0.5077   -1.7847 C   0  0  0  0  0  0  0  0  0  0  0  0
   -0.1229    0.5077   -0.2965 C   0  0  0  0  0  3  0  0  0  0  0  0
   -0.1229    1.8016    0.6559 S   0  0  0  0  0  0  0  0  0  0  0  0
    0.7532   -0.0360   -2.1515 H   0  0  0  0  0  0  0  0  0  0  0  0
   -0.9991   -0.0359   -2.1515 H   0  0  0  0  0  0  0  0  0  0  0  0
   -0.1229    1.5181   -2.1880 H   0  0  0  0  0  0  0  0  0  0  0  0
   -0.1229   -0.6834    0.2488 H   0  0  0  0  0  0  0  0  0  0  0  0
  1  2  1  0
  1  3  1  0
  1  4  1  0
  1  5  1  0
  2  6  1  0
  2  7  1  0
  2 14  1  0
  8  9  1  0
  8 11  1  0
  8 12  1  0
  8 13  1  0
  9 10  2  0
M  RAD  1   9   2
M  END
>  <reaction>  (18) 
rxn_463

>  <mol_properties>  (18) 
{"0": {"label": "*4", "atom_type": "Cs"}, "1": {"label": "*3", "atom_type": "Cs"}, "8": {"label": "*1", "atom_type": "CS"}, "9": {"label": "*0", "atom_type": "S2d"}, "13": {"label": "*2", "atom_type": "H0"}}

>  <type>  (18) 
unop_14

>  <geom_source>  (18) 
gaussian_log

$$$$
