
     RDKit          3D

  2  1  0  0  0  0  0  0  0  0999 V2000
    0.0000    0.0000    0.3721 H   0  0  0  0  0  0  0  0  0  0  0  0
    0.0000    0.0000   -0.3721 H   0  0  0  0  0  0  0  0  0  0  0  0
  1  2  1  0
M  END
>  <reaction>  (1) 
rxn_816

>  <mol_properties>  (1) 
{"0": {"label": "donator", "atom_type": "H0"}, "1": {"label": "d_hydrogen", "atom_type": "H0"}}

>  <type>  (1) 
r1h

$$$$

     RDKit          3D

  7  6  0  0  0  0  0  0  0  0999 V2000
    1.8092   -0.3013   -0.2242 S   0  0  0  0  0  0  0  0  0  0  0  0
    0.1552   -0.6967   -0.1137 C   0  0  0  0  0  0  0  0  0  0  0  0
   -0.8921    0.1788    0.1148 C   0  0  0  0  0  0  0  0  0  0  0  0
   -0.7548    1.8245    0.3328 S   0  0  0  0  0  1  0  0  0  0  0  0
    1.6168    1.0210   -0.0187 H   0  0  0  0  0  0  0  0  0  0  0  0
   -0.0550   -1.7522   -0.2412 H   0  0  0  0  0  0  0  0  0  0  0  0
   -1.8791   -0.2740    0.1502 H   0  0  0  0  0  0  0  0  0  0  0  0
  1  2  1  0
  1  5  1  0
  2  3  2  3
  2  6  1  0
  3  4  1  0
  3  7  1  0
M  RAD  1   4   2
M  END
>  <reaction>  (2) 
rxn_816

>  <mol_properties>  (2) 
{"1": {"label": "acceptor", "atom_type": "Cs"}}

>  <type>  (2) 
r2

$$$$

     RDKit          3D

  8  7  0  0  0  0  0  0  0  0999 V2000
    1.7301   -0.0562    0.5281 S   0  0  0  0  0  0  0  0  0  0  0  0
    0.1858    0.6127   -0.1669 C   0  0  0  0  0  0  0  0  0  0  0  0
   -0.9621   -0.2567    0.2171 C   0  0  0  0  0  0  0  0  0  0  0  0
   -1.8663   -1.1002   -0.8086 S   0  0  0  0  0  0  0  0  0  0  0  0
    1.7025   -1.2092   -0.1540 H   0  0  0  0  0  0  0  0  0  0  0  0
    0.2619    0.7246   -1.2458 H   0  0  0  0  0  0  0  0  0  0  0  0
    0.0809    1.5982    0.2929 H   0  0  0  0  0  0  0  0  0  0  0  0
   -1.1456   -0.3126    1.2907 H   0  0  0  0  0  0  0  0  0  0  0  0
  1  2  1  0
  1  5  1  0
  2  3  1  0
  2  6  1  0
  2  7  1  0
  3  4  2  0
  3  8  1  0
M  END
>  <reaction>  (3) 
rxn_816

>  <mol_properties>  (3) 
{"0": {"label": "a_hydrogen", "atom_type": "H0"}, "2": {"label": "acceptor", "atom_type": "Cs"}}

>  <type>  (3) 
r2h

$$$$

     RDKit          3D

  9  7  0  0  0  0  0  0  0  0999 V2000
    0.7062    0.0204   -2.9903 H   0  0  0  0  0 15  0  0  0  0  0  0
    0.5835    0.0393   -1.8957 H   0  0  0  0  0  0  0  0  0  0  0  0
    0.5952    1.9043   -0.4202 S   0  0  0  0  0  0  0  0  0  0  0  0
    0.5706    0.1196   -0.6833 C   0  0  0  0  0  0  0  0  0  0  0  0
   -0.6457   -0.5659   -0.2234 C   0  0  0  0  0  0  0  0  0  0  0  0
   -0.6607   -2.0004    0.5114 S   0  0  0  0  0  0  0  0  0  0  0  0
    0.6860    1.8492    0.9159 H   0  0  0  0  0  0  0  0  0  0  0  0
    1.4890   -0.3767   -0.3781 H   0  0  0  0  0  0  0  0  0  0  0  0
   -1.5753   -0.0326   -0.4234 H   0  0  0  0  0  0  0  0  0  0  0  0
  2  4  1  0
  3  4  1  0
  3  7  1  0
  4  5  1  0
  4  8  1  0
  5  6  2  0
  5  9  1  0
M  END
>  <reaction>  (4) 
rxn_816

>  <mol_properties>  (4) 
{"0": {"label": "*1", "atom_type": "H0"}, "1": {"label": "*2", "atom_type": "H0"}, "3": {"label": "*3", "atom_type": "Cs"}, "4": {"label": "*4", "atom_type": "CS"}}

>  <type>  (4) 
ts

$$$$

     RDKit          3D

  9  7  0  0  0  0  0  0  0  0999 V2000
    0.6096    0.0973   -2.9707 H   0  0  0  0  0 15  0  0  0  0  0  0
    0.6096    0.0973   -2.0777 H   0  0  0  0  0  0  0  0  0  0  0  0
    0.6096    1.8593   -0.3075 S   0  0  0  0  0  0  0  0  0  0  0  0
    0.6096    0.0973   -0.7665 C   0  0  0  0  0  0  0  0  0  0  0  0
   -0.6253   -0.5608   -0.2541 C   0  0  0  0  0  0  0  0  0  0  0  0
   -0.6610   -1.7259    0.8516 S   0  0  0  0  0  0  0  0  0  0  0  0
    0.6408    1.6586    1.0170 H   0  0  0  0  0  0  0  0  0  0  0  0
    1.5081   -0.3979   -0.4062 H   0  0  0  0  0  0  0  0  0  0  0  0
   -1.5524   -0.1679   -0.6731 H   0  0  0  0  0  0  0  0  0  0  0  0
  2  4  1  0
  3  4  1  0
  3  7  1  0
  4  5  1  0
  4  8  1  0
  5  6  2  0
  5  9  1  0
M  END
>  <reaction>  (5) 
rxn_816

>  <mol_properties>  (5) 
{"0": {"label": "*1", "atom_type": "H0"}, "1": {"label": "*2", "atom_type": "H0"}, "3": {"label": "*3", "atom_type": "Cs"}, "4": {"label": "*4", "atom_type": "CS"}}

>  <type>  (5) 
unop_1

>  <geom_source>  (5) 
Heuristics

$$$$

     RDKit          3D

  9  7  0  0  0  0  0  0  0  0999 V2000
    0.4543    1.5987    0.7485 S   0  0  0  0  0  0  0  0  0  0  0  0
   -2.2634   -0.4419    0.6838 S   0  0  0  0  0  0  0  0  0  0  0  0
    0.2593   -0.1662    0.3416 C   0  0  0  0  0  0  0  0  0  0  0  0
   -1.1188   -0.4458   -0.1859 C   0  0  0  0  0  0  0  0  0  0  0  0
    0.4623   -0.7800    1.2456 H   0  0  0  0  0  0  0  0  0  0  0  0
    0.9640   -0.4185   -0.3849 H   0  0  0  0  0  0  0  0  0  0  0  0
   -1.2416   -0.7575   -1.2182 H   0  0  0  0  0  0  0  0  0  0  0  0
    0.2790    2.0061   -0.5883 H   0  0  0  0  0  0  0  0  0  0  0  0
    2.2049   -0.5949   -0.6420 H   0  0  0  0  0 15  0  0  0  0  0  0
  1  3  1  0
  1  8  1  0
  2  4  2  0
  3  4  1  0
  3  5  1  0
  3  6  1  0
  4  7  1  0
M  END
>  <reaction>  (6) 
rxn_816

>  <mol_properties>  (6) 
{"0": {"label": "*1", "atom_type": "H0"}, "1": {"label": "*2", "atom_type": "H0"}, "3": {"label": "*3", "atom_type": "Cs"}, "4": {"label": "*4", "atom_type": "CS"}}

>  <type>  (6) 
unop_2

>  <geom_source>  (6) 
AutoTST

$$$$

     RDKit          3D

  9  7  0  0  0  0  0  0  0  0999 V2000
    0.8733   -1.7284   -0.3595 S   0  0  0  0  0  0  0  0  0  0  0  0
   -1.1272    0.2354    1.6862 S   0  0  0  0  0  0  0  0  0  0  0  0
    0.1604   -0.0589   -0.4869 C   0  0  0  0  0  0  0  0  0  0  0  0
   -1.1291    0.0215    0.2670 C   0  0  0  0  0  0  0  0  0  0  0  0
   -0.0239    0.1652   -1.5584 H   0  0  0  0  0  0  0  0  0  0  0  0
   -2.0636    0.1019   -0.2788 H   0  0  0  0  0  0  0  0  0  0  0  0
    1.2664   -1.5380    0.9786 H   0  0  0  0  0  0  0  0  0  0  0  0
    1.2729    1.7438    0.1574 H   0  0  0  0  0 15  0  0  0  0  0  0
    0.7709    1.0576   -0.4055 H   0  0  0  0  0  0  0  0  0  0  0  0
  1  3  1  0
  1  7  1  0
  2  4  2  0
  3  4  1  0
  3  5  1  0
  3  9  1  0
  4  6  1  0
M  END
>  <reaction>  (7) 
rxn_816

>  <mol_properties>  (7) 
{"0": {"label": "*1", "atom_type": "H0"}, "1": {"label": "*2", "atom_type": "H0"}, "3": {"label": "*3", "atom_type": "Cs"}, "4": {"label": "*4", "atom_type": "CS"}}

>  <type>  (7) 
unop_3

>  <geom_source>  (7) 
gaussian_log

$$$$
