
     RDKit          3D

 11 10  0  0  0  0  0  0  0  0999 V2000
   -1.2710    0.1907   -0.2084 C   0  0  0  0  0  0  0  0  0  0  0  0
    0.0202   -0.6130   -0.2928 C   0  0  0  0  0  0  0  0  0  0  0  0
    0.1086   -1.6953    0.7756 C   0  0  0  0  0  0  0  0  0  0  0  0
   -1.3607    0.6851    0.7620 H   0  0  0  0  0  0  0  0  0  0  0  0
   -2.1429   -0.4567   -0.3299 H   0  0  0  0  0  0  0  0  0  0  0  0
   -1.3158    0.9602   -0.9809 H   0  0  0  0  0  0  0  0  0  0  0  0
    0.8757    0.0616   -0.1992 H   0  0  0  0  0  0  0  0  0  0  0  0
    0.0997   -1.0712   -1.2825 H   0  0  0  0  0  0  0  0  0  0  0  0
   -0.7198   -2.4022    0.6850 H   0  0  0  0  0  0  0  0  0  0  0  0
    1.0395   -2.2596    0.6989 H   0  0  0  0  0  0  0  0  0  0  0  0
    0.0624   -1.2603    1.7770 H   0  0  0  0  0  0  0  0  0  0  0  0
  1  2  1  0
  1  4  1  0
  1  5  1  0
  1  6  1  0
  2  3  1  0
  2  7  1  0
  2  8  1  0
  3  9  1  0
  3 10  1  0
  3 11  1  0
M  END
>  <reaction>  (1) 
rxn_916

>  <mol_properties>  (1) 
{"1": {"label": "donator", "atom_type": "Cs"}, "6": {"label": "d_hydrogen", "atom_type": "H0"}}

>  <type>  (1) 
r1h

$$$$

     RDKit          3D

 12 11  0  0  0  0  0  0  0  0999 V2000
   -2.3791    0.4612   -0.5870 C   0  0  0  0  0  0  0  0  0  0  0  0
   -1.3422   -0.3138   -0.1893 C   0  0  0  0  0  0  0  0  0  0  0  0
   -1.4723   -1.6058    0.3589 C   0  0  0  0  0  3  0  0  0  0  0  0
   -0.3798   -2.3973    0.7671 C   0  0  0  0  0  0  0  0  0  0  0  0
   -0.4849   -3.6397    1.2956 C   0  0  0  0  0  0  0  0  0  0  0  0
   -2.2205    1.4472   -1.0017 H   0  0  0  0  0  0  0  0  0  0  0  0
   -3.4026    0.1153   -0.5011 H   0  0  0  0  0  0  0  0  0  0  0  0
   -0.3330    0.0765   -0.2952 H   0  0  0  0  0  0  0  0  0  0  0  0
   -2.4723   -2.0151    0.4735 H   0  0  0  0  0  0  0  0  0  0  0  0
    0.6117   -1.9687    0.6436 H   0  0  0  0  0  0  0  0  0  0  0  0
    0.3893   -4.2030    1.5920 H   0  0  0  0  0  0  0  0  0  0  0  0
   -1.4516   -4.1084    1.4378 H   0  0  0  0  0  0  0  0  0  0  0  0
  1  2  2  3
  1  6  1  0
  1  7  1  0
  2  3  1  0
  2  8  1  0
  3  4  1  0
  3  9  1  0
  4  5  2  3
  4 10  1  0
  5 11  1  0
  5 12  1  0
M  RAD  1   3   2
M  END
>  <reaction>  (2) 
rxn_916

>  <mol_properties>  (2) 
{"2": {"label": "acceptor", "atom_type": "Cs"}}

>  <type>  (2) 
r2

$$$$

     RDKit          3D

 13 12  0  0  0  0  0  0  0  0999 V2000
    3.0977   -0.3549   -0.5105 C   0  0  0  0  0  0  0  0  0  0  0  0
    2.0556    0.4221   -0.2627 C   0  0  0  0  0  0  0  0  0  0  0  0
    0.6313   -0.0354   -0.2366 C   0  0  0  0  0  0  0  0  0  0  0  0
   -0.2567    0.6038   -1.2694 C   0  0  0  0  0  0  0  0  0  0  0  0
    0.1459    1.3456   -2.2891 C   0  0  0  0  0  0  0  0  0  0  0  0
    4.1081    0.0344   -0.5074 H   0  0  0  0  0  0  0  0  0  0  0  0
    2.9777   -1.4116   -0.7243 H   0  0  0  0  0  0  0  0  0  0  0  0
    2.2171    1.4781   -0.0618 H   0  0  0  0  0  0  0  0  0  0  0  0
    0.5865   -1.1233   -0.3540 H   0  0  0  0  0  0  0  0  0  0  0  0
    0.2065    0.1743    0.7521 H   0  0  0  0  0  0  0  0  0  0  0  0
   -1.3190    0.4126   -1.1445 H   0  0  0  0  0  0  0  0  0  0  0  0
    1.1948    1.5564   -2.4628 H   0  0  0  0  0  0  0  0  0  0  0  0
   -0.5644    1.7621   -2.9918 H   0  0  0  0  0  0  0  0  0  0  0  0
  1  2  2  3
  1  6  1  0
  1  7  1  0
  2  3  1  0
  2  8  1  0
  3  4  1  0
  3  9  1  0
  3 10  1  0
  4  5  2  3
  4 11  1  0
  5 12  1  0
  5 13  1  0
M  END
>  <reaction>  (3) 
rxn_916

>  <mol_properties>  (3) 
{"2": {"label": "acceptor", "atom_type": "Cs"}, "12": {"label": "a_hydrogen", "atom_type": "H0"}}

>  <type>  (3) 
r2h

$$$$

     RDKit          3D

 23 21  0  0  0  0  0  0  0  0999 V2000
    2.4740    0.5062   -0.5431 C   0  0  0  0  0  0  0  0  0  0  0  0
    1.4345   -0.3010   -0.3499 C   0  0  0  0  0  0  0  0  0  0  0  0
    0.5466   -0.2627    0.8210 C   0  0  0  0  0  0  0  0  0  0  0  0
   -0.0426   -1.5186    1.3250 C   0  0  0  0  0  0  0  0  0  0  0  0
    0.0663   -2.7324    0.7923 C   0  0  0  0  0  0  0  0  0  0  0  0
    3.0640    0.4612   -1.4494 H   0  0  0  0  0  0  0  0  0  0  0  0
    2.7716    1.2342    0.2040 H   0  0  0  0  0  0  0  0  0  0  0  0
    1.1765   -1.0105   -1.1312 H   0  0  0  0  0  0  0  0  0  0  0  0
    0.9349    0.3667    1.6240 H   0  0  0  0  0  0  0  0  0  0  0  0
   -0.6558   -1.4041    2.2153 H   0  0  0  0  0  0  0  0  0  0  0  0
   -0.4437   -3.5791    1.2330 H   0  0  0  0  0  0  0  0  0  0  0  0
    0.6731   -2.9304   -0.0828 H   0  0  0  0  0  0  0  0  0  0  0  0
   -1.8603    0.4423   -1.3536 C   0  0  0  0  0  0  0  0  0  0  0  0
   -1.5405    1.2130   -0.1084 C   0  0  0  0  0  3  0  0  0  0  0  0
   -0.9344    2.5739   -0.2758 C   0  0  0  0  0  0  0  0  0  0  0  0
   -0.9952    0.4109   -2.0216 H   0  0  0  0  0  0  0  0  0  0  0  0
   -2.6832    0.9061   -1.9108 H   0  0  0  0  0  0  0  0  0  0  0  0
   -2.1510   -0.5845   -1.1246 H   0  0  0  0  0  0  0  0  0  0  0  0
   -0.4574    0.4240    0.4556 H   0  0  0  0  0  0  0  0  0  0  0  0
   -2.2873    1.1346    0.6805 H   0  0  0  0  0  0  0  0  0  0  0  0
   -1.6304    3.2620   -0.7714 H   0  0  0  0  0  0  0  0  0  0  0  0
   -0.6632    3.0158    0.6844 H   0  0  0  0  0  0  0  0  0  0  0  0
   -0.0338    2.5214   -0.8934 H   0  0  0  0  0  0  0  0  0  0  0  0
  1  2  2  3
  1  6  1  0
  1  7  1  0
  2  3  1  0
  2  8  1  0
  3  4  1  0
  3  9  1  0
  3 19  1  0
  4  5  2  3
  4 10  1  0
  5 11  1  0
  5 12  1  0
 13 14  1  0
 13 16  1  0
 13 17  1  0
 13 18  1  0
 14 15  1  0
 14 20  1  0
 15 21  1  0
 15 22  1  0
 15 23  1  0
M  RAD  1  14   2
M  END
>  <reaction>  (4) 
rxn_916

>  <mol_properties>  (4) 
{"1": {"label": "*0", "atom_type": "Cd"}, "2": {"label": "*1", "atom_type": "Cs"}, "12": {"label": "*4", "atom_type": "Cs"}, "13": {"label": "*3", "atom_type": "Cs"}, "18": {"label": "*2", "atom_type": "H0"}}

>  <type>  (4) 
ts

$$$$

     RDKit          3D

 23 21  0  0  0  0  0  0  0  0999 V2000
    0.9492    0.5846    2.2887 C   0  0  0  0  0  0  0  0  0  0  0  0
    1.1652    0.3024    1.0140 C   0  0  0  0  0  0  0  0  0  0  0  0
    0.3255   -0.6174    0.1847 C   0  0  0  0  0  3  0  0  0  0  0  0
    1.0458   -1.8299   -0.3397 C   0  0  0  0  0  0  0  0  0  0  0  0
    2.2488   -2.2400    0.0302 C   0  0  0  0  0  0  0  0  0  0  0  0
    1.5895    1.2663    2.8344 H   0  0  0  0  0  0  0  0  0  0  0  0
    0.1209    0.1441    2.8334 H   0  0  0  0  0  0  0  0  0  0  0  0
    2.0114    0.7576    0.5059 H   0  0  0  0  0  0  0  0  0  0  0  0
   -0.5483   -0.9439    0.7583 H   0  0  0  0  0  0  0  0  0  0  0  0
    0.4984   -2.4052   -1.0812 H   0  0  0  0  0  0  0  0  0  0  0  0
    2.6904   -3.1321   -0.3955 H   0  0  0  0  0  0  0  0  0  0  0  0
    2.8303   -1.7070    0.7735 H   0  0  0  0  0  0  0  0  0  0  0  0
   -1.7760    0.6955   -2.2133 C   0  0  0  0  0  0  0  0  0  0  0  0
   -1.7760    0.6955   -0.6900 C   0  0  0  0  0  0  0  0  0  0  0  0
   -1.7760    2.1013   -0.1033 C   0  0  0  0  0  0  0  0  0  0  0  0
   -0.8945    1.2097   -2.6040 H   0  0  0  0  0  0  0  0  0  0  0  0
   -2.6574    1.2097   -2.6040 H   0  0  0  0  0  0  0  0  0  0  0  0
   -1.7760   -0.3194   -2.6145 H   0  0  0  0  0  0  0  0  0  0  0  0
   -0.7266    0.0398   -0.2532 H   0  0  0  0  0  0  0  0  0  0  0  0
   -2.6505    0.1491   -0.3260 H   0  0  0  0  0  0  0  0  0  0  0  0
   -2.6574    2.6598   -0.4274 H   0  0  0  0  0  0  0  0  0  0  0  0
   -1.7760    2.0806    0.9878 H   0  0  0  0  0  0  0  0  0  0  0  0
   -0.8945    2.6598   -0.4274 H   0  0  0  0  0  0  0  0  0  0  0  0
  1  2  2  3
  1  6  1  0
  1  7  1  0
  2  3  1  0
  2  8  1  0
  3  4  1  0
  3  9  1  0
  4  5  2  3
  4 10  1  0
  5 11  1  0
  5 12  1  0
 13 14  1  0
 13 16  1  0
 13 17  1  0
 13 18  1  0
 14 15  1  0
 14 19  1  0
 14 20  1  0
 15 21  1  0
 15 22  1  0
 15 23  1  0
M  RAD  1   3   2
M  END
>  <reaction>  (5) 
rxn_916

>  <mol_properties>  (5) 
{"1": {"label": "*0", "atom_type": "Cd"}, "2": {"label": "*1", "atom_type": "Cs"}, "12": {"label": "*4", "atom_type": "Cs"}, "13": {"label": "*3", "atom_type": "Cs"}, "18": {"label": "*2", "atom_type": "H0"}}

>  <type>  (5) 
unop_1

>  <geom_source>  (5) 
Heuristics

$$$$

     RDKit          3D

 23 21  0  0  0  0  0  0  0  0999 V2000
    2.4996    0.5594   -0.2976 C   0  0  0  0  0  0  0  0  0  0  0  0
    1.4578   -0.2452   -0.4330 C   0  0  0  0  0  0  0  0  0  0  0  0
    0.3470   -0.3852    0.5596 C   0  0  0  0  0  3  0  0  0  0  0  0
    0.2083   -1.7563    1.1634 C   0  0  0  0  0  0  0  0  0  0  0  0
    1.0796   -2.7466    1.0523 C   0  0  0  0  0  0  0  0  0  0  0  0
    3.2691    0.6225   -1.0567 H   0  0  0  0  0  0  0  0  0  0  0  0
    2.6197    1.1871    0.5789 H   0  0  0  0  0  0  0  0  0  0  0  0
    1.3784   -0.8652   -1.3224 H   0  0  0  0  0  0  0  0  0  0  0  0
    0.4718    0.3464    1.3649 H   0  0  0  0  0  0  0  0  0  0  0  0
   -0.6958   -1.9134    1.7453 H   0  0  0  0  0  0  0  0  0  0  0  0
    0.9023   -3.7028    1.5279 H   0  0  0  0  0  0  0  0  0  0  0  0
    2.0008   -2.6364    0.4918 H   0  0  0  0  0  0  0  0  0  0  0  0
   -1.7545    0.9277   -1.8384 C   0  0  0  0  0  0  0  0  0  0  0  0
   -1.7545    0.9277   -0.3151 C   0  0  0  0  0  0  0  0  0  0  0  0
   -1.7545    2.3335    0.2716 C   0  0  0  0  0  0  0  0  0  0  0  0
   -0.8730    1.4420   -2.2290 H   0  0  0  0  0  0  0  0  0  0  0  0
   -2.6359    1.4420   -2.2290 H   0  0  0  0  0  0  0  0  0  0  0  0
   -1.7545   -0.0872   -2.2396 H   0  0  0  0  0  0  0  0  0  0  0  0
   -0.7051    0.2721    0.1217 H   0  0  0  0  0  0  0  0  0  0  0  0
   -2.6290    0.3813    0.0489 H   0  0  0  0  0  0  0  0  0  0  0  0
   -2.6359    2.8921   -0.0525 H   0  0  0  0  0  0  0  0  0  0  0  0
   -1.7545    2.3128    1.3628 H   0  0  0  0  0  0  0  0  0  0  0  0
   -0.8730    2.8921   -0.0525 H   0  0  0  0  0  0  0  0  0  0  0  0
  1  2  2  3
  1  6  1  0
  1  7  1  0
  2  3  1  0
  2  8  1  0
  3  4  1  0
  3  9  1  0
  4  5  2  3
  4 10  1  0
  5 11  1  0
  5 12  1  0
 13 14  1  0
 13 16  1  0
 13 17  1  0
 13 18  1  0
 14 15  1  0
 14 19  1  0
 14 20  1  0
 15 21  1  0
 15 22  1  0
 15 23  1  0
M  RAD  1   3   2
M  END
>  <reaction>  (6) 
rxn_916

>  <mol_properties>  (6) 
{"1": {"label": "*0", "atom_type": "Cd"}, "2": {"label": "*1", "atom_type": "Cs"}, "12": {"label": "*4", "atom_type": "Cs"}, "13": {"label": "*3", "atom_type": "Cs"}, "18": {"label": "*2", "atom_type": "H0"}}

>  <type>  (6) 
unop_2

>  <geom_source>  (6) 
Heuristics

$$$$

     RDKit          3D

 23 21  0  0  0  0  0  0  0  0999 V2000
    0.3782   -0.5051    2.6498 C   0  0  0  0  0  0  0  0  0  0  0  0
    0.7645   -0.0515    1.4682 C   0  0  0  0  0  0  0  0  0  0  0  0
    0.3453   -0.6235    0.1507 C   0  0  0  0  0  3  0  0  0  0  0  0
    1.4680   -1.1795   -0.6826 C   0  0  0  0  0  0  0  0  0  0  0  0
    2.7102   -1.3865   -0.2748 C   0  0  0  0  0  0  0  0  0  0  0  0
    0.7105   -0.0422    3.5706 H   0  0  0  0  0  0  0  0  0  0  0  0
   -0.2876   -1.3569    2.7390 H   0  0  0  0  0  0  0  0  0  0  0  0
    1.4397    0.7991    1.4213 H   0  0  0  0  0  0  0  0  0  0  0  0
   -0.4038   -1.4072    0.3054 H   0  0  0  0  0  0  0  0  0  0  0  0
    1.2004   -1.4329   -1.7047 H   0  0  0  0  0  0  0  0  0  0  0  0
    3.4560   -1.7990   -0.9423 H   0  0  0  0  0  0  0  0  0  0  0  0
    3.0240   -1.1601    0.7377 H   0  0  0  0  0  0  0  0  0  0  0  0
   -1.7562    0.6894   -2.2473 C   0  0  0  0  0  0  0  0  0  0  0  0
   -1.7562    0.6894   -0.7240 C   0  0  0  0  0  0  0  0  0  0  0  0
   -1.7562    2.0952   -0.1373 C   0  0  0  0  0  0  0  0  0  0  0  0
   -0.8747    1.2036   -2.6380 H   0  0  0  0  0  0  0  0  0  0  0  0
   -2.6376    1.2036   -2.6380 H   0  0  0  0  0  0  0  0  0  0  0  0
   -1.7562   -0.3255   -2.6485 H   0  0  0  0  0  0  0  0  0  0  0  0
   -0.7067    0.0337   -0.2872 H   0  0  0  0  0  0  0  0  0  0  0  0
   -2.6307    0.1430   -0.3600 H   0  0  0  0  0  0  0  0  0  0  0  0
   -2.6376    2.6537   -0.4614 H   0  0  0  0  0  0  0  0  0  0  0  0
   -1.7562    2.0745    0.9538 H   0  0  0  0  0  0  0  0  0  0  0  0
   -0.8747    2.6537   -0.4614 H   0  0  0  0  0  0  0  0  0  0  0  0
  1  2  2  3
  1  6  1  0
  1  7  1  0
  2  3  1  0
  2  8  1  0
  3  4  1  0
  3  9  1  0
  4  5  2  3
  4 10  1  0
  5 11  1  0
  5 12  1  0
 13 14  1  0
 13 16  1  0
 13 17  1  0
 13 18  1  0
 14 15  1  0
 14 19  1  0
 14 20  1  0
 15 21  1  0
 15 22  1  0
 15 23  1  0
M  RAD  1   3   2
M  END
>  <reaction>  (7) 
rxn_916

>  <mol_properties>  (7) 
{"1": {"label": "*0", "atom_type": "Cd"}, "2": {"label": "*1", "atom_type": "Cs"}, "12": {"label": "*4", "atom_type": "Cs"}, "13": {"label": "*3", "atom_type": "Cs"}, "18": {"label": "*2", "atom_type": "H0"}}

>  <type>  (7) 
unop_3

>  <geom_source>  (7) 
Heuristics

$$$$

     RDKit          3D

 23 21  0  0  0  0  0  0  0  0999 V2000
    1.9216   -2.3838   -0.5253 C   0  0  0  0  0  0  0  0  0  0  0  0
    0.8701   -1.6087   -0.3139 C   0  0  0  0  0  0  0  0  0  0  0  0
    0.9292   -0.2013    0.1905 C   0  0  0  0  0  3  0  0  0  0  0  0
    0.2526    0.0239    1.5154 C   0  0  0  0  0  0  0  0  0  0  0  0
   -0.1864   -0.9187    2.3344 C   0  0  0  0  0  0  0  0  0  0  0  0
    1.8145   -3.3940   -0.9001 H   0  0  0  0  0  0  0  0  0  0  0  0
    2.9303   -2.0343   -0.3324 H   0  0  0  0  0  0  0  0  0  0  0  0
   -0.1250   -1.9991   -0.5111 H   0  0  0  0  0  0  0  0  0  0  0  0
    1.9719    0.1253    0.2642 H   0  0  0  0  0  0  0  0  0  0  0  0
    0.1371    1.0657    1.8018 H   0  0  0  0  0  0  0  0  0  0  0  0
   -0.6570   -0.6661    3.2761 H   0  0  0  0  0  0  0  0  0  0  0  0
   -0.0853   -1.9720    2.0992 H   0  0  0  0  0  0  0  0  0  0  0  0
   -1.1723    1.1116   -2.2075 C   0  0  0  0  0  0  0  0  0  0  0  0
   -1.1723    1.1116   -0.6842 C   0  0  0  0  0  0  0  0  0  0  0  0
   -1.1723    2.5174   -0.0975 C   0  0  0  0  0  0  0  0  0  0  0  0
   -0.2909    1.6259   -2.5981 H   0  0  0  0  0  0  0  0  0  0  0  0
   -2.0538    1.6259   -2.5981 H   0  0  0  0  0  0  0  0  0  0  0  0
   -1.1723    0.0967   -2.6087 H   0  0  0  0  0  0  0  0  0  0  0  0
   -0.1229    0.4560   -0.2474 H   0  0  0  0  0  0  0  0  0  0  0  0
   -2.0468    0.5652   -0.3202 H   0  0  0  0  0  0  0  0  0  0  0  0
   -2.0538    3.0760   -0.4216 H   0  0  0  0  0  0  0  0  0  0  0  0
   -1.1723    2.4967    0.9937 H   0  0  0  0  0  0  0  0  0  0  0  0
   -0.2908    3.0760   -0.4216 H   0  0  0  0  0  0  0  0  0  0  0  0
  1  2  2  3
  1  6  1  0
  1  7  1  0
  2  3  1  0
  2  8  1  0
  3  4  1  0
  3  9  1  0
  4  5  2  3
  4 10  1  0
  5 11  1  0
  5 12  1  0
 13 14  1  0
 13 16  1  0
 13 17  1  0
 13 18  1  0
 14 15  1  0
 14 19  1  0
 14 20  1  0
 15 21  1  0
 15 22  1  0
 15 23  1  0
M  RAD  1   3   2
M  END
>  <reaction>  (8) 
rxn_916

>  <mol_properties>  (8) 
{"1": {"label": "*0", "atom_type": "Cd"}, "2": {"label": "*1", "atom_type": "Cs"}, "12": {"label": "*4", "atom_type": "Cs"}, "13": {"label": "*3", "atom_type": "Cs"}, "18": {"label": "*2", "atom_type": "H0"}}

>  <type>  (8) 
unop_4

>  <geom_source>  (8) 
Heuristics

$$$$

     RDKit          3D

 23 21  0  0  0  0  0  0  0  0999 V2000
    0.3600   -1.8362    2.3424 C   0  0  0  0  0  0  0  0  0  0  0  0
    0.3827   -0.7552    1.5797 C   0  0  0  0  0  0  0  0  0  0  0  0
    0.3918   -0.7608    0.0835 C   0  0  0  0  0  3  0  0  0  0  0  0
    1.6157   -0.1501   -0.5432 C   0  0  0  0  0  0  0  0  0  0  0  0
    2.7288    0.1847    0.0901 C   0  0  0  0  0  0  0  0  0  0  0  0
    0.3464   -1.7670    3.4229 H   0  0  0  0  0  0  0  0  0  0  0  0
    0.3523   -2.8322    1.9125 H   0  0  0  0  0  0  0  0  0  0  0  0
    0.3988    0.2251    2.0491 H   0  0  0  0  0  0  0  0  0  0  0  0
    0.2768   -1.7851   -0.2866 H   0  0  0  0  0  0  0  0  0  0  0  0
    1.5522    0.0095   -1.6161 H   0  0  0  0  0  0  0  0  0  0  0  0
    3.5675    0.6139   -0.4430 H   0  0  0  0  0  0  0  0  0  0  0  0
    2.8452    0.0359    1.1574 H   0  0  0  0  0  0  0  0  0  0  0  0
   -1.7098    0.5521   -2.3146 C   0  0  0  0  0  0  0  0  0  0  0  0
   -1.7098    0.5521   -0.7913 C   0  0  0  0  0  0  0  0  0  0  0  0
   -1.7098    1.9579   -0.2045 C   0  0  0  0  0  0  0  0  0  0  0  0
   -0.8283    1.0663   -2.7052 H   0  0  0  0  0  0  0  0  0  0  0  0
   -2.5912    1.0663   -2.7052 H   0  0  0  0  0  0  0  0  0  0  0  0
   -1.7098   -0.4628   -2.7157 H   0  0  0  0  0  0  0  0  0  0  0  0
   -0.6603   -0.1035   -0.3544 H   0  0  0  0  0  0  0  0  0  0  0  0
   -2.5843    0.0057   -0.4272 H   0  0  0  0  0  0  0  0  0  0  0  0
   -2.5912    2.5165   -0.5287 H   0  0  0  0  0  0  0  0  0  0  0  0
   -1.7098    1.9372    0.8866 H   0  0  0  0  0  0  0  0  0  0  0  0
   -0.8283    2.5165   -0.5287 H   0  0  0  0  0  0  0  0  0  0  0  0
  1  2  2  3
  1  6  1  0
  1  7  1  0
  2  3  1  0
  2  8  1  0
  3  4  1  0
  3  9  1  0
  4  5  2  3
  4 10  1  0
  5 11  1  0
  5 12  1  0
 13 14  1  0
 13 16  1  0
 13 17  1  0
 13 18  1  0
 14 15  1  0
 14 19  1  0
 14 20  1  0
 15 21  1  0
 15 22  1  0
 15 23  1  0
M  RAD  1   3   2
M  END
>  <reaction>  (9) 
rxn_916

>  <mol_properties>  (9) 
{"1": {"label": "*0", "atom_type": "Cd"}, "2": {"label": "*1", "atom_type": "Cs"}, "12": {"label": "*4", "atom_type": "Cs"}, "13": {"label": "*3", "atom_type": "Cs"}, "18": {"label": "*2", "atom_type": "H0"}}

>  <type>  (9) 
unop_5

>  <geom_source>  (9) 
Heuristics

$$$$

     RDKit          3D

 23 21  0  0  0  0  0  0  0  0999 V2000
    1.4648   -2.8342    0.2033 C   0  0  0  0  0  0  0  0  0  0  0  0
    0.5963   -1.8371    0.1530 C   0  0  0  0  0  0  0  0  0  0  0  0
    0.9555   -0.3937   -0.0094 C   0  0  0  0  0  3  0  0  0  0  0  0
    0.5599    0.4893    1.1428 C   0  0  0  0  0  0  0  0  0  0  0  0
    0.1301    0.0784    2.3254 C   0  0  0  0  0  0  0  0  0  0  0  0
    1.1420   -3.8617    0.3145 H   0  0  0  0  0  0  0  0  0  0  0  0
    2.5330   -2.6584    0.1331 H   0  0  0  0  0  0  0  0  0  0  0  0
   -0.4656   -2.0539    0.2359 H   0  0  0  0  0  0  0  0  0  0  0  0
    2.0326   -0.2941   -0.1797 H   0  0  0  0  0  0  0  0  0  0  0  0
    0.6557    1.5559    0.9590 H   0  0  0  0  0  0  0  0  0  0  0  0
   -0.1269    0.7861    3.1033 H   0  0  0  0  0  0  0  0  0  0  0  0
    0.0273   -0.9745    2.5614 H   0  0  0  0  0  0  0  0  0  0  0  0
   -1.1461    0.9191   -2.4074 C   0  0  0  0  0  0  0  0  0  0  0  0
   -1.1461    0.9191   -0.8841 C   0  0  0  0  0  0  0  0  0  0  0  0
   -1.1461    2.3250   -0.2974 C   0  0  0  0  0  0  0  0  0  0  0  0
   -0.2646    1.4334   -2.7981 H   0  0  0  0  0  0  0  0  0  0  0  0
   -2.0275    1.4334   -2.7981 H   0  0  0  0  0  0  0  0  0  0  0  0
   -1.1461   -0.0957   -2.8086 H   0  0  0  0  0  0  0  0  0  0  0  0
   -0.0966    0.2635   -0.4473 H   0  0  0  0  0  0  0  0  0  0  0  0
   -2.0206    0.3728   -0.5201 H   0  0  0  0  0  0  0  0  0  0  0  0
   -2.0275    2.8835   -0.6215 H   0  0  0  0  0  0  0  0  0  0  0  0
   -1.1461    2.3043    0.7937 H   0  0  0  0  0  0  0  0  0  0  0  0
   -0.2646    2.8835   -0.6215 H   0  0  0  0  0  0  0  0  0  0  0  0
  1  2  2  3
  1  6  1  0
  1  7  1  0
  2  3  1  0
  2  8  1  0
  3  4  1  0
  3  9  1  0
  4  5  2  3
  4 10  1  0
  5 11  1  0
  5 12  1  0
 13 14  1  0
 13 16  1  0
 13 17  1  0
 13 18  1  0
 14 15  1  0
 14 19  1  0
 14 20  1  0
 15 21  1  0
 15 22  1  0
 15 23  1  0
M  RAD  1   3   2
M  END
>  <reaction>  (10) 
rxn_916

>  <mol_properties>  (10) 
{"1": {"label": "*0", "atom_type": "Cd"}, "2": {"label": "*1", "atom_type": "Cs"}, "12": {"label": "*4", "atom_type": "Cs"}, "13": {"label": "*3", "atom_type": "Cs"}, "18": {"label": "*2", "atom_type": "H0"}}

>  <type>  (10) 
unop_6

>  <geom_source>  (10) 
Heuristics

$$$$

     RDKit          3D

 23 21  0  0  0  0  0  0  0  0999 V2000
    1.1162   -2.8622    0.9952 C   0  0  0  0  0  0  0  0  0  0  0  0
    0.3884   -1.7925    0.7175 C   0  0  0  0  0  0  0  0  0  0  0  0
    0.8468   -0.6346   -0.1119 C   0  0  0  0  0  3  0  0  0  0  0  0
    0.9010    0.6813    0.6156 C   0  0  0  0  0  0  0  0  0  0  0  0
    0.7850    0.8523    1.9231 C   0  0  0  0  0  0  0  0  0  0  0  0
    0.7246   -3.6734    1.5961 H   0  0  0  0  0  0  0  0  0  0  0  0
    2.1321   -2.9663    0.6291 H   0  0  0  0  0  0  0  0  0  0  0  0
   -0.6225   -1.7220    1.1107 H   0  0  0  0  0  0  0  0  0  0  0  0
    1.8339   -0.8468   -0.5359 H   0  0  0  0  0  0  0  0  0  0  0  0
    1.0602    1.5504   -0.0169 H   0  0  0  0  0  0  0  0  0  0  0  0
    0.8438    1.8388    2.3650 H   0  0  0  0  0  0  0  0  0  0  0  0
    0.6358    0.0167    2.5972 H   0  0  0  0  0  0  0  0  0  0  0  0
   -1.2547    0.6783   -2.5099 C   0  0  0  0  0  0  0  0  0  0  0  0
   -1.2547    0.6783   -0.9866 C   0  0  0  0  0  0  0  0  0  0  0  0
   -1.2547    2.0841   -0.3999 C   0  0  0  0  0  0  0  0  0  0  0  0
   -0.3733    1.1926   -2.9005 H   0  0  0  0  0  0  0  0  0  0  0  0
   -2.1362    1.1926   -2.9005 H   0  0  0  0  0  0  0  0  0  0  0  0
   -1.2547   -0.3366   -2.9111 H   0  0  0  0  0  0  0  0  0  0  0  0
   -0.2053    0.0227   -0.5498 H   0  0  0  0  0  0  0  0  0  0  0  0
   -2.1292    0.1320   -0.6226 H   0  0  0  0  0  0  0  0  0  0  0  0
   -2.1362    2.6427   -0.7240 H   0  0  0  0  0  0  0  0  0  0  0  0
   -1.2547    2.0634    0.6913 H   0  0  0  0  0  0  0  0  0  0  0  0
   -0.3733    2.6427   -0.7240 H   0  0  0  0  0  0  0  0  0  0  0  0
  1  2  2  3
  1  6  1  0
  1  7  1  0
  2  3  1  0
  2  8  1  0
  3  4  1  0
  3  9  1  0
  4  5  2  3
  4 10  1  0
  5 11  1  0
  5 12  1  0
 13 14  1  0
 13 16  1  0
 13 17  1  0
 13 18  1  0
 14 15  1  0
 14 19  1  0
 14 20  1  0
 15 21  1  0
 15 22  1  0
 15 23  1  0
M  RAD  1   3   2
M  END
>  <reaction>  (11) 
rxn_916

>  <mol_properties>  (11) 
{"1": {"label": "*0", "atom_type": "Cd"}, "2": {"label": "*1", "atom_type": "Cs"}, "12": {"label": "*4", "atom_type": "Cs"}, "13": {"label": "*3", "atom_type": "Cs"}, "18": {"label": "*2", "atom_type": "H0"}}

>  <type>  (11) 
unop_7

>  <geom_source>  (11) 
Heuristics

$$$$

     RDKit          3D

 23 21  0  0  0  0  0  0  0  0999 V2000
    1.6073    1.1153    1.4994 C   0  0  0  0  0  0  0  0  0  0  0  0
    1.4180    0.3315    0.4502 C   0  0  0  0  0  0  0  0  0  0  0  0
    0.2783   -0.6243    0.2878 C   0  0  0  0  0  3  0  0  0  0  0  0
    0.6771   -2.0715    0.1856 C   0  0  0  0  0  0  0  0  0  0  0  0
    1.8809   -2.5653    0.4287 C   0  0  0  0  0  0  0  0  0  0  0  0
    2.4494    1.7937    1.5551 H   0  0  0  0  0  0  0  0  0  0  0  0
    0.9239    1.1082    2.3418 H   0  0  0  0  0  0  0  0  0  0  0  0
    2.1306    0.3617   -0.3701 H   0  0  0  0  0  0  0  0  0  0  0  0
   -0.4273   -0.5081    1.1171 H   0  0  0  0  0  0  0  0  0  0  0  0
   -0.1203   -2.7488   -0.1075 H   0  0  0  0  0  0  0  0  0  0  0  0
    2.0788   -3.6257    0.3373 H   0  0  0  0  0  0  0  0  0  0  0  0
    2.7065   -1.9328    0.7341 H   0  0  0  0  0  0  0  0  0  0  0  0
   -1.8232    0.6886   -2.1103 C   0  0  0  0  0  0  0  0  0  0  0  0
   -1.8232    0.6886   -0.5869 C   0  0  0  0  0  0  0  0  0  0  0  0
   -1.8232    2.0944   -0.0002 C   0  0  0  0  0  0  0  0  0  0  0  0
   -0.9417    1.2028   -2.5009 H   0  0  0  0  0  0  0  0  0  0  0  0
   -2.7046    1.2028   -2.5009 H   0  0  0  0  0  0  0  0  0  0  0  0
   -1.8232   -0.3263   -2.5114 H   0  0  0  0  0  0  0  0  0  0  0  0
   -0.7737    0.0329   -0.1501 H   0  0  0  0  0  0  0  0  0  0  0  0
   -2.6977    0.1422   -0.2229 H   0  0  0  0  0  0  0  0  0  0  0  0
   -2.7046    2.6529   -0.3244 H   0  0  0  0  0  0  0  0  0  0  0  0
   -1.8232    2.0737    1.0909 H   0  0  0  0  0  0  0  0  0  0  0  0
   -0.9417    2.6529   -0.3244 H   0  0  0  0  0  0  0  0  0  0  0  0
  1  2  2  3
  1  6  1  0
  1  7  1  0
  2  3  1  0
  2  8  1  0
  3  4  1  0
  3  9  1  0
  4  5  2  3
  4 10  1  0
  5 11  1  0
  5 12  1  0
 13 14  1  0
 13 16  1  0
 13 17  1  0
 13 18  1  0
 14 15  1  0
 14 19  1  0
 14 20  1  0
 15 21  1  0
 15 22  1  0
 15 23  1  0
M  RAD  1   3   2
M  END
>  <reaction>  (12) 
rxn_916

>  <mol_properties>  (12) 
{"1": {"label": "*0", "atom_type": "Cd"}, "2": {"label": "*1", "atom_type": "Cs"}, "12": {"label": "*4", "atom_type": "Cs"}, "13": {"label": "*3", "atom_type": "Cs"}, "18": {"label": "*2", "atom_type": "H0"}}

>  <type>  (12) 
unop_8

>  <geom_source>  (12) 
Heuristics

$$$$

     RDKit          3D

 23 21  0  0  0  0  0  0  0  0999 V2000
    2.3693   -1.4982   -0.9416 C   0  0  0  0  0  0  0  0  0  0  0  0
    1.1351   -1.1857   -0.5807 C   0  0  0  0  0  0  0  0  0  0  0  0
    0.7738   -0.1261    0.4120 C   0  0  0  0  0  3  0  0  0  0  0  0
    0.0610   -0.6264    1.6389 C   0  0  0  0  0  0  0  0  0  0  0  0
   -0.0782   -1.8938    1.9947 C   0  0  0  0  0  0  0  0  0  0  0  0
    2.5669   -2.2716   -1.6732 H   0  0  0  0  0  0  0  0  0  0  0  0
    3.2287   -0.9891   -0.5185 H   0  0  0  0  0  0  0  0  0  0  0  0
    0.3008   -1.7255   -1.0213 H   0  0  0  0  0  0  0  0  0  0  0  0
    1.6725    0.4183    0.7206 H   0  0  0  0  0  0  0  0  0  0  0  0
   -0.3585    0.1481    2.2752 H   0  0  0  0  0  0  0  0  0  0  0  0
   -0.6024   -2.1651    2.9022 H   0  0  0  0  0  0  0  0  0  0  0  0
    0.3311   -2.7021    1.3997 H   0  0  0  0  0  0  0  0  0  0  0  0
   -1.3277    1.1868   -1.9861 C   0  0  0  0  0  0  0  0  0  0  0  0
   -1.3277    1.1868   -0.4627 C   0  0  0  0  0  0  0  0  0  0  0  0
   -1.3277    2.5926    0.1240 C   0  0  0  0  0  0  0  0  0  0  0  0
   -0.4463    1.7011   -2.3767 H   0  0  0  0  0  0  0  0  0  0  0  0
   -2.2092    1.7011   -2.3767 H   0  0  0  0  0  0  0  0  0  0  0  0
   -1.3277    0.1719   -2.3872 H   0  0  0  0  0  0  0  0  0  0  0  0
   -0.2783    0.5312   -0.0259 H   0  0  0  0  0  0  0  0  0  0  0  0
   -2.2023    0.6405   -0.0987 H   0  0  0  0  0  0  0  0  0  0  0  0
   -2.2092    3.1512   -0.2001 H   0  0  0  0  0  0  0  0  0  0  0  0
   -1.3278    2.5720    1.2151 H   0  0  0  0  0  0  0  0  0  0  0  0
   -0.4463    3.1512   -0.2001 H   0  0  0  0  0  0  0  0  0  0  0  0
  1  2  2  3
  1  6  1  0
  1  7  1  0
  2  3  1  0
  2  8  1  0
  3  4  1  0
  3  9  1  0
  4  5  2  3
  4 10  1  0
  5 11  1  0
  5 12  1  0
 13 14  1  0
 13 16  1  0
 13 17  1  0
 13 18  1  0
 14 15  1  0
 14 19  1  0
 14 20  1  0
 15 21  1  0
 15 22  1  0
 15 23  1  0
M  RAD  1   3   2
M  END
>  <reaction>  (13) 
rxn_916

>  <mol_properties>  (13) 
{"1": {"label": "*0", "atom_type": "Cd"}, "2": {"label": "*1", "atom_type": "Cs"}, "12": {"label": "*4", "atom_type": "Cs"}, "13": {"label": "*3", "atom_type": "Cs"}, "18": {"label": "*2", "atom_type": "H0"}}

>  <type>  (13) 
unop_9

>  <geom_source>  (13) 
Heuristics

$$$$

     RDKit          3D

 23 21  0  0  0  0  0  0  0  0999 V2000
    2.1479    1.0920    0.5590 C   0  0  0  0  0  0  0  0  0  0  0  0
    1.5036    0.1192   -0.0653 C   0  0  0  0  0  0  0  0  0  0  0  0
    0.2647   -0.5511    0.4392 C   0  0  0  0  0  3  0  0  0  0  0  0
    0.4103   -2.0231    0.7146 C   0  0  0  0  0  0  0  0  0  0  0  0
    1.5478   -2.6991    0.7476 C   0  0  0  0  0  0  0  0  0  0  0  0
    3.0373    1.5438    0.1379 H   0  0  0  0  0  0  0  0  0  0  0  0
    1.8071    1.4738    1.5155 H   0  0  0  0  0  0  0  0  0  0  0  0
    1.8823   -0.2418   -1.0181 H   0  0  0  0  0  0  0  0  0  0  0  0
   -0.0853   -0.0524    1.3491 H   0  0  0  0  0  0  0  0  0  0  0  0
   -0.5204   -2.5489    0.9095 H   0  0  0  0  0  0  0  0  0  0  0  0
    1.5612   -3.7602    0.9619 H   0  0  0  0  0  0  0  0  0  0  0  0
    2.5031   -2.2185    0.5705 H   0  0  0  0  0  0  0  0  0  0  0  0
   -1.8368    0.7618   -1.9589 C   0  0  0  0  0  0  0  0  0  0  0  0
   -1.8368    0.7618   -0.4356 C   0  0  0  0  0  0  0  0  0  0  0  0
   -1.8368    2.1676    0.1512 C   0  0  0  0  0  0  0  0  0  0  0  0
   -0.9554    1.2761   -2.3495 H   0  0  0  0  0  0  0  0  0  0  0  0
   -2.7183    1.2761   -2.3495 H   0  0  0  0  0  0  0  0  0  0  0  0
   -1.8368   -0.2531   -2.3601 H   0  0  0  0  0  0  0  0  0  0  0  0
   -0.7874    0.1062    0.0012 H   0  0  0  0  0  0  0  0  0  0  0  0
   -2.7113    0.2154   -0.0716 H   0  0  0  0  0  0  0  0  0  0  0  0
   -2.7183    2.7262   -0.1730 H   0  0  0  0  0  0  0  0  0  0  0  0
   -1.8368    2.1469    1.2423 H   0  0  0  0  0  0  0  0  0  0  0  0
   -0.9554    2.7262   -0.1730 H   0  0  0  0  0  0  0  0  0  0  0  0
  1  2  2  3
  1  6  1  0
  1  7  1  0
  2  3  1  0
  2  8  1  0
  3  4  1  0
  3  9  1  0
  4  5  2  3
  4 10  1  0
  5 11  1  0
  5 12  1  0
 13 14  1  0
 13 16  1  0
 13 17  1  0
 13 18  1  0
 14 15  1  0
 14 19  1  0
 14 20  1  0
 15 21  1  0
 15 22  1  0
 15 23  1  0
M  RAD  1   3   2
M  END
>  <reaction>  (14) 
rxn_916

>  <mol_properties>  (14) 
{"1": {"label": "*0", "atom_type": "Cd"}, "2": {"label": "*1", "atom_type": "Cs"}, "12": {"label": "*4", "atom_type": "Cs"}, "13": {"label": "*3", "atom_type": "Cs"}, "18": {"label": "*2", "atom_type": "H0"}}

>  <type>  (14) 
unop_10

>  <geom_source>  (14) 
Heuristics

$$$$

     RDKit          3D

 23 21  0  0  0  0  0  0  0  0999 V2000
    0.7952   -2.5782    1.6953 C   0  0  0  0  0  0  0  0  0  0  0  0
    0.2900   -1.4394    1.2494 C   0  0  0  0  0  0  0  0  0  0  0  0
    0.6203   -0.8118   -0.0681 C   0  0  0  0  0  3  0  0  0  0  0  0
    1.2770    0.5389    0.0223 C   0  0  0  0  0  0  0  0  0  0  0  0
    1.7567    1.0981    1.1220 C   0  0  0  0  0  0  0  0  0  0  0  0
    0.5102   -2.9864    2.6569 H   0  0  0  0  0  0  0  0  0  0  0  0
    1.5128   -3.1458    1.1124 H   0  0  0  0  0  0  0  0  0  0  0  0
   -0.4198   -0.8957    1.8676 H   0  0  0  0  0  0  0  0  0  0  0  0
    1.2632   -1.4810   -0.6496 H   0  0  0  0  0  0  0  0  0  0  0  0
    1.3581    1.0749   -0.9193 H   0  0  0  0  0  0  0  0  0  0  0  0
    2.2221    2.0751    1.0947 H   0  0  0  0  0  0  0  0  0  0  0  0
    1.7094    0.5997    2.0834 H   0  0  0  0  0  0  0  0  0  0  0  0
   -1.4812    0.5011   -2.4662 C   0  0  0  0  0  0  0  0  0  0  0  0
   -1.4812    0.5011   -0.9428 C   0  0  0  0  0  0  0  0  0  0  0  0
   -1.4812    1.9069   -0.3561 C   0  0  0  0  0  0  0  0  0  0  0  0
   -0.5998    1.0153   -2.8568 H   0  0  0  0  0  0  0  0  0  0  0  0
   -2.3627    1.0153   -2.8568 H   0  0  0  0  0  0  0  0  0  0  0  0
   -1.4812   -0.5138   -2.8673 H   0  0  0  0  0  0  0  0  0  0  0  0
   -0.4318   -0.1546   -0.5060 H   0  0  0  0  0  0  0  0  0  0  0  0
   -2.3558   -0.0453   -0.5788 H   0  0  0  0  0  0  0  0  0  0  0  0
   -2.3627    2.4655   -0.6803 H   0  0  0  0  0  0  0  0  0  0  0  0
   -1.4812    1.8862    0.7350 H   0  0  0  0  0  0  0  0  0  0  0  0
   -0.5998    2.4655   -0.6803 H   0  0  0  0  0  0  0  0  0  0  0  0
  1  2  2  3
  1  6  1  0
  1  7  1  0
  2  3  1  0
  2  8  1  0
  3  4  1  0
  3  9  1  0
  4  5  2  3
  4 10  1  0
  5 11  1  0
  5 12  1  0
 13 14  1  0
 13 16  1  0
 13 17  1  0
 13 18  1  0
 14 15  1  0
 14 19  1  0
 14 20  1  0
 15 21  1  0
 15 22  1  0
 15 23  1  0
M  RAD  1   3   2
M  END
>  <reaction>  (15) 
rxn_916

>  <mol_properties>  (15) 
{"1": {"label": "*0", "atom_type": "Cd"}, "2": {"label": "*1", "atom_type": "Cs"}, "12": {"label": "*4", "atom_type": "Cs"}, "13": {"label": "*3", "atom_type": "Cs"}, "18": {"label": "*2", "atom_type": "H0"}}

>  <type>  (15) 
unop_11

>  <geom_source>  (15) 
Heuristics

$$$$

     RDKit          3D

 23 21  0  0  0  0  0  0  0  0999 V2000
    2.5955   -0.3907   -0.8588 C   0  0  0  0  0  0  0  0  0  0  0  0
    1.3319   -0.6964   -0.6125 C   0  0  0  0  0  0  0  0  0  0  0  0
    0.5423   -0.2032    0.5588 C   0  0  0  0  0  3  0  0  0  0  0  0
    0.0622   -1.2786    1.4951 C   0  0  0  0  0  0  0  0  0  0  0  0
    0.4426   -2.5464    1.4834 C   0  0  0  0  0  0  0  0  0  0  0  0
    3.1117   -0.7738   -1.7301 H   0  0  0  0  0  0  0  0  0  0  0  0
    3.1604    0.2572   -0.1969 H   0  0  0  0  0  0  0  0  0  0  0  0
    0.8029   -1.3563   -1.2955 H   0  0  0  0  0  0  0  0  0  0  0  0
    1.1317    0.5246    1.1263 H   0  0  0  0  0  0  0  0  0  0  0  0
   -0.6542   -0.9509    2.2434 H   0  0  0  0  0  0  0  0  0  0  0  0
    0.0499   -3.2543    2.2021 H   0  0  0  0  0  0  0  0  0  0  0  0
    1.1623   -2.9200    0.7641 H   0  0  0  0  0  0  0  0  0  0  0  0
   -1.5592    1.1097   -1.8392 C   0  0  0  0  0  0  0  0  0  0  0  0
   -1.5592    1.1097   -0.3159 C   0  0  0  0  0  0  0  0  0  0  0  0
   -1.5592    2.5155    0.2708 C   0  0  0  0  0  0  0  0  0  0  0  0
   -0.6778    1.6240   -2.2299 H   0  0  0  0  0  0  0  0  0  0  0  0
   -2.4407    1.6240   -2.2299 H   0  0  0  0  0  0  0  0  0  0  0  0
   -1.5592    0.0948   -2.2404 H   0  0  0  0  0  0  0  0  0  0  0  0
   -0.5098    0.4541    0.1209 H   0  0  0  0  0  0  0  0  0  0  0  0
   -2.4338    0.5634    0.0481 H   0  0  0  0  0  0  0  0  0  0  0  0
   -2.4407    3.0741   -0.0533 H   0  0  0  0  0  0  0  0  0  0  0  0
   -1.5592    2.4948    1.3619 H   0  0  0  0  0  0  0  0  0  0  0  0
   -0.6778    3.0741   -0.0533 H   0  0  0  0  0  0  0  0  0  0  0  0
  1  2  2  3
  1  6  1  0
  1  7  1  0
  2  3  1  0
  2  8  1  0
  3  4  1  0
  3  9  1  0
  4  5  2  3
  4 10  1  0
  5 11  1  0
  5 12  1  0
 13 14  1  0
 13 16  1  0
 13 17  1  0
 13 18  1  0
 14 15  1  0
 14 19  1  0
 14 20  1  0
 15 21  1  0
 15 22  1  0
 15 23  1  0
M  RAD  1   3   2
M  END
>  <reaction>  (16) 
rxn_916

>  <mol_properties>  (16) 
{"1": {"label": "*0", "atom_type": "Cd"}, "2": {"label": "*1", "atom_type": "Cs"}, "12": {"label": "*4", "atom_type": "Cs"}, "13": {"label": "*3", "atom_type": "Cs"}, "18": {"label": "*2", "atom_type": "H0"}}

>  <type>  (16) 
unop_12

>  <geom_source>  (16) 
Heuristics

$$$$

     RDKit          3D

 23 21  0  0  0  0  0  0  0  0999 V2000
   -1.1038    0.0094    0.6391 C   0  0  0  0  0  3  0  0  0  0  0  0
    2.3217    0.0849    1.0674 C   0  0  0  0  0  0  0  0  0  0  0  0
    1.4336    0.4292   -1.2670 C   0  0  0  0  0  0  0  0  0  0  0  0
    1.3517    0.8668    0.1902 C   0  0  0  0  0  0  0  0  0  0  0  0
   -2.1967    0.4056   -0.3133 C   0  0  0  0  0  0  0  0  0  0  0  0
   -1.1164   -1.4692    0.8992 C   0  0  0  0  0  0  0  0  0  0  0  0
   -2.3171    1.6700   -0.7221 C   0  0  0  0  0  0  0  0  0  0  0  0
   -0.7105   -2.3415   -0.0271 C   0  0  0  0  0  0  0  0  0  0  0  0
   -1.2505    0.5466    1.6007 H   0  0  0  0  0  0  0  0  0  0  0  0
    0.1788    0.3893    0.0944 H   0  0  0  0  0  0  0  0  0  0  0  0
    2.0917   -1.0003    1.0187 H   0  0  0  0  0  0  0  0  0  0  0  0
    3.3679    0.2574    0.7360 H   0  0  0  0  0  0  0  0  0  0  0  0
    2.2180    0.4222    2.1196 H   0  0  0  0  0  0  0  0  0  0  0  0
    1.1880   -0.6501   -1.3566 H   0  0  0  0  0  0  0  0  0  0  0  0
    2.4529    0.6121   -1.6691 H   0  0  0  0  0  0  0  0  0  0  0  0
    0.7017    1.0100   -1.8660 H   0  0  0  0  0  0  0  0  0  0  0  0
    1.5632    1.9548    0.2702 H   0  0  0  0  0  0  0  0  0  0  0  0
   -2.9006   -0.3362   -0.6822 H   0  0  0  0  0  0  0  0  0  0  0  0
   -1.4452   -1.8351    1.8674 H   0  0  0  0  0  0  0  0  0  0  0  0
   -3.1091    1.9452   -1.4111 H   0  0  0  0  0  0  0  0  0  0  0  0
   -1.6307    2.4367   -0.3750 H   0  0  0  0  0  0  0  0  0  0  0  0
   -0.7204   -3.4052    0.1871 H   0  0  0  0  0  0  0  0  0  0  0  0
   -0.3683   -2.0028   -1.0005 H   0  0  0  0  0  0  0  0  0  0  0  0
  1  5  1  0
  1  6  1  0
  1  9  1  0
  2  4  1  0
  2 11  1  0
  2 12  1  0
  2 13  1  0
  3  4  1  0
  3 14  1  0
  3 15  1  0
  3 16  1  0
  4 10  1  0
  4 17  1  0
  5  7  2  3
  5 18  1  0
  6  8  2  3
  6 19  1  0
  7 20  1  0
  7 21  1  0
  8 22  1  0
  8 23  1  0
M  RAD  1   1   2
M  END
>  <reaction>  (17) 
rxn_916

>  <mol_properties>  (17) 
{"1": {"label": "*0", "atom_type": "Cd"}, "2": {"label": "*1", "atom_type": "Cs"}, "12": {"label": "*4", "atom_type": "Cs"}, "13": {"label": "*3", "atom_type": "Cs"}, "18": {"label": "*2", "atom_type": "H0"}}

>  <type>  (17) 
unop_13

>  <geom_source>  (17) 
AutoTST

$$$$
