
     RDKit          3D

 18 18  0  0  0  0  0  0  0  0999 V2000
   -2.4852    0.3210   -0.3966 C   0  0  0  0  0  0  0  0  0  0  0  0
   -1.5917   -0.2708    0.6941 C   0  0  0  0  0  0  0  0  0  0  0  0
   -0.1292   -0.1692    0.3493 C   0  0  0  0  0  0  0  0  0  0  0  0
    0.6099    0.9558    0.7015 C   0  0  0  0  0  0  0  0  0  0  0  0
    1.9447    1.0728    0.3458 C   0  0  0  0  0  0  0  0  0  0  0  0
    2.5646    0.0613   -0.3720 C   0  0  0  0  0  0  0  0  0  0  0  0
    1.8399   -1.0657   -0.7287 C   0  0  0  0  0  0  0  0  0  0  0  0
    0.5055   -1.1769   -0.3700 C   0  0  0  0  0  0  0  0  0  0  0  0
   -2.3325   -0.1971   -1.3452 H   0  0  0  0  0  0  0  0  0  0  0  0
   -2.2554    1.3763   -0.5546 H   0  0  0  0  0  0  0  0  0  0  0  0
   -3.5397    0.2376   -0.1280 H   0  0  0  0  0  0  0  0  0  0  0  0
   -1.7801    0.2462    1.6380 H   0  0  0  0  0  0  0  0  0  0  0  0
   -1.8568   -1.3190    0.8516 H   0  0  0  0  0  0  0  0  0  0  0  0
    0.1327    1.7497    1.2656 H   0  0  0  0  0  0  0  0  0  0  0  0
    2.5033    1.9550    0.6330 H   0  0  0  0  0  0  0  0  0  0  0  0
    3.6077    0.1491   -0.6484 H   0  0  0  0  0  0  0  0  0  0  0  0
    2.3163   -1.8632   -1.2854 H   0  0  0  0  0  0  0  0  0  0  0  0
   -0.0540   -2.0629   -0.6500 H   0  0  0  0  0  0  0  0  0  0  0  0
  1  2  1  0
  1  9  1  0
  1 10  1  0
  1 11  1  0
  2  3  1  0
  2 12  1  0
  2 13  1  0
  3  4  2  0
  3  8  1  0
  4  5  1  0
  4 14  1  0
  5  6  2  0
  5 15  1  0
  6  7  1  0
  6 16  1  0
  7  8  2  0
  7 17  1  0
  8 18  1  0
M  END
>  <reaction>  (1) 
rxn_1511

>  <mol_properties>  (1) 
{"1": {"label": "donator", "atom_type": "Cs"}, "11": {"label": "d_hydrogen", "atom_type": "H0"}}

>  <type>  (1) 
r1h

$$$$

     RDKit          3D

  7  6  0  0  0  0  0  0  0  0999 V2000
   -2.0652    0.3855   -0.2963 S   0  0  0  0  0  0  0  0  0  0  0  0
   -0.7169   -0.5853    0.1792 C   0  0  0  0  0  3  0  0  0  0  0  0
    0.5987   -0.2168    0.0254 C   0  0  0  0  0  0  0  0  0  0  0  0
    1.7547    0.1211   -0.1163 C   0  0  0  0  0  0  0  0  0  0  0  0
   -1.3643    1.4227   -0.7731 H   0  0  0  0  0  0  0  0  0  0  0  0
   -0.9781   -1.5363    0.6220 H   0  0  0  0  0  0  0  0  0  0  0  0
    2.7711    0.4089   -0.2366 H   0  0  0  0  0  0  0  0  0  0  0  0
  1  2  1  0
  1  5  1  0
  2  3  1  0
  2  6  1  0
  3  4  3  0
  4  7  1  0
M  RAD  1   2   2
M  END
>  <reaction>  (2) 
rxn_1511

>  <mol_properties>  (2) 
{"1": {"label": "acceptor", "atom_type": "Cs"}}

>  <type>  (2) 
r2

$$$$

     RDKit          3D

  8  7  0  0  0  0  0  0  0  0999 V2000
   -0.7014    1.0753    1.5530 S   0  0  0  0  0  0  0  0  0  0  0  0
   -0.3105   -0.4583    0.6462 C   0  0  0  0  0  0  0  0  0  0  0  0
    0.0935   -0.2424   -0.7319 C   0  0  0  0  0  0  0  0  0  0  0  0
    0.4431   -0.0604   -1.8621 C   0  0  0  0  0  0  0  0  0  0  0  0
    0.4994    1.6466    1.3970 H   0  0  0  0  0  0  0  0  0  0  0  0
   -1.2277   -1.0477    0.6819 H   0  0  0  0  0  0  0  0  0  0  0  0
    0.4563   -1.0151    1.1841 H   0  0  0  0  0  0  0  0  0  0  0  0
    0.7474    0.1020   -2.8681 H   0  0  0  0  0  0  0  0  0  0  0  0
  1  2  1  0
  1  5  1  0
  2  3  1  0
  2  6  1  0
  2  7  1  0
  3  4  3  0
  4  8  1  0
M  END
>  <reaction>  (3) 
rxn_1511

>  <mol_properties>  (3) 
{"1": {"label": "acceptor", "atom_type": "Cs"}, "7": {"label": "a_hydrogen", "atom_type": "H0"}}

>  <type>  (3) 
r2h

$$$$

     RDKit          3D

 25 24  0  0  0  0  0  0  0  0999 V2000
   -2.2449   -0.8286    0.0701 S   0  0  0  0  0  0  0  0  0  0  0  0
   -0.8606   -1.8748    0.4796 C   0  0  0  0  0  3  0  0  0  0  0  0
   -0.4718   -1.9655    1.8457 C   0  0  0  0  0  0  0  0  0  0  0  0
   -0.0770   -1.9928    2.9808 C   0  0  0  0  0  0  0  0  0  0  0  0
   -1.7621    0.2839    0.6433 H   0  0  0  0  0  0  0  0  0  0  0  0
   -0.9725   -2.8336   -0.0215 H   0  0  0  0  0  0  0  0  0  0  0  0
    0.2469   -2.0333    3.9927 H   0  0  0  0  0  0  0  0  0  0  0  0
    1.0816   -1.0818   -2.2076 C   0  0  0  0  0  0  0  0  0  0  0  0
    1.1988   -0.6643   -0.7669 C   0  0  0  0  0  0  0  0  0  0  0  0
    0.9352    0.7249   -0.3793 C   0  0  0  0  0  0  0  0  0  0  0  0
    0.3296    1.6451   -1.2408 C   0  0  0  0  0  0  0  0  0  0  0  0
    0.0243    2.9261   -0.8115 C   0  0  0  0  0  0  0  0  0  0  0  0
    0.3062    3.3168    0.4892 C   0  0  0  0  0  0  0  0  0  0  0  0
    0.9063    2.4146    1.3584 C   0  0  0  0  0  0  0  0  0  0  0  0
    1.2181    1.1379    0.9292 C   0  0  0  0  0  0  0  0  0  0  0  0
    1.7776   -0.5281   -2.8454 H   0  0  0  0  0  0  0  0  0  0  0  0
    0.0729   -0.9094   -2.5904 H   0  0  0  0  0  0  0  0  0  0  0  0
    1.3019   -2.1438   -2.3178 H   0  0  0  0  0  0  0  0  0  0  0  0
    0.2027   -1.3243   -0.1520 H   0  0  0  0  0  0  0  0  0  0  0  0
    2.0442   -1.1023   -0.2377 H   0  0  0  0  0  0  0  0  0  0  0  0
    0.0932    1.3568   -2.2566 H   0  0  0  0  0  0  0  0  0  0  0  0
   -0.4405    3.6236   -1.4973 H   0  0  0  0  0  0  0  0  0  0  0  0
    0.0632    4.3173    0.8234 H   0  0  0  0  0  0  0  0  0  0  0  0
    1.1314    2.7095    2.3757 H   0  0  0  0  0  0  0  0  0  0  0  0
    1.6755    0.4338    1.6145 H   0  0  0  0  0  0  0  0  0  0  0  0
  1  2  1  0
  1  5  1  0
  2  3  1  0
  2  6  1  0
  3  4  3  0
  4  7  1  0
  8  9  1  0
  8 16  1  0
  8 17  1  0
  8 18  1  0
  9 10  1  0
  9 19  1  0
  9 20  1  0
 10 11  2  0
 10 15  1  0
 11 12  1  0
 11 21  1  0
 12 13  2  0
 12 22  1  0
 13 14  1  0
 13 23  1  0
 14 15  2  0
 14 24  1  0
 15 25  1  0
M  RAD  1   2   2
M  END
>  <reaction>  (4) 
rxn_1511

>  <mol_properties>  (4) 
{"0": {"label": "*4", "atom_type": "S2s"}, "1": {"label": "*3", "atom_type": "Cs"}, "8": {"label": "*1", "atom_type": "Cs"}, "9": {"label": "*0", "atom_type": "Cd"}, "18": {"label": "*2", "atom_type": "H0"}}

>  <type>  (4) 
ts

$$$$

     RDKit          3D

 25 24  0  0  0  0  0  0  0  0999 V2000
   -0.4263   -3.0443    1.0826 S   0  0  0  0  0  0  0  0  0  0  0  0
   -1.1004   -1.6667    0.0952 C   0  0  0  0  0  0  0  0  0  0  0  0
   -2.4523   -1.8912   -0.3854 C   0  0  0  0  0  0  0  0  0  0  0  0
   -3.5665   -2.0762   -0.7815 C   0  0  0  0  0  0  0  0  0  0  0  0
   -1.3800   -3.0299    2.0222 H   0  0  0  0  0  0  0  0  0  0  0  0
   -1.0579   -0.7459    0.6764 H   0  0  0  0  0  0  0  0  0  0  0  0
   -4.5565   -2.2406   -1.1335 H   0  0  0  0  0  0  0  0  0  0  0  0
    1.0019   -0.3677   -2.3047 C   0  0  0  0  0  0  0  0  0  0  0  0
    1.0019   -0.3677   -0.7756 C   0  0  0  0  0  0  0  0  0  0  0  0
    1.0019    1.0266   -0.2062 C   0  0  0  0  0  0  0  0  0  0  0  0
   -0.1926    1.6955    0.0416 C   0  0  0  0  0  3  0  0  0  0  0  0
   -0.1959    2.9958    0.5225 C   0  0  0  0  0  0  0  0  0  0  0  0
    1.0019    3.6511    0.7643 C   0  0  0  0  0  0  0  0  0  0  0  0
    2.1997    2.9958    0.5225 C   0  0  0  0  0  0  0  0  0  0  0  0
    2.1965    1.6955    0.0416 C   0  0  0  0  0  0  0  0  0  0  0  0
    1.8832    0.1474   -2.6915 H   0  0  0  0  0  0  0  0  0  0  0  0
    0.1207    0.1474   -2.6915 H   0  0  0  0  0  0  0  0  0  0  0  0
    1.0019   -1.3861   -2.6970 H   0  0  0  0  0  0  0  0  0  0  0  0
   -0.0500   -1.0177   -0.3398 H   0  0  0  0  0  0  0  0  0  0  0  0
    1.8786   -0.9094   -0.4125 H   0  0  0  0  0  0  0  0  0  0  0  0
   -1.1335    1.1884   -0.1422 H   0  0  0  0  0  0  0  0  0  0  0  0
   -1.1367    3.4974    0.7124 H   0  0  0  0  0  0  0  0  0  0  0  0
    1.0019    4.6654    1.1426 H   0  0  0  0  0  0  0  0  0  0  0  0
    3.1405    3.4975    0.7124 H   0  0  0  0  0  0  0  0  0  0  0  0
    3.1374    1.1884   -0.1422 H   0  0  0  0  0  0  0  0  0  0  0  0
  1  2  1  0
  1  5  1  0
  2  3  1  0
  2  6  1  0
  2 19  1  0
  3  4  3  0
  4  7  1  0
  8  9  1  0
  8 16  1  0
  8 17  1  0
  8 18  1  0
  9 10  2  3
  9 20  1  0
 10 11  1  0
 10 15  1  0
 11 12  1  0
 11 21  1  0
 12 13  2  0
 12 22  1  0
 13 14  1  0
 13 23  1  0
 14 15  2  0
 14 24  1  0
 15 25  1  0
M  RAD  1  11   2
M  END
>  <reaction>  (5) 
rxn_1511

>  <mol_properties>  (5) 
{"0": {"label": "*4", "atom_type": "S2s"}, "1": {"label": "*3", "atom_type": "Cs"}, "8": {"label": "*1", "atom_type": "Cs"}, "9": {"label": "*0", "atom_type": "Cd"}, "18": {"label": "*2", "atom_type": "H0"}}

>  <type>  (5) 
unop_1

>  <geom_source>  (5) 
Heuristics

$$$$

     RDKit          3D

 25 24  0  0  0  0  0  0  0  0999 V2000
   -1.2938   -3.1047   -0.9757 S   0  0  0  0  0  0  0  0  0  0  0  0
   -0.9481   -1.8553    0.3075 C   0  0  0  0  0  0  0  0  0  0  0  0
   -2.1369   -1.2200    0.8483 C   0  0  0  0  0  0  0  0  0  0  0  0
   -3.1166   -0.6965    1.2940 C   0  0  0  0  0  0  0  0  0  0  0  0
   -2.0666   -3.8872   -0.2121 H   0  0  0  0  0  0  0  0  0  0  0  0
   -0.3675   -2.3079    1.1108 H   0  0  0  0  0  0  0  0  0  0  0  0
   -3.9871   -0.2313    1.6900 H   0  0  0  0  0  0  0  0  0  0  0  0
    1.1542   -0.5563   -2.0924 C   0  0  0  0  0  0  0  0  0  0  0  0
    1.1542   -0.5563   -0.5633 C   0  0  0  0  0  0  0  0  0  0  0  0
    1.1542    0.8380    0.0061 C   0  0  0  0  0  0  0  0  0  0  0  0
   -0.0404    1.5070    0.2538 C   0  0  0  0  0  3  0  0  0  0  0  0
   -0.0436    2.8072    0.7348 C   0  0  0  0  0  0  0  0  0  0  0  0
    1.1542    3.4625    0.9766 C   0  0  0  0  0  0  0  0  0  0  0  0
    2.3520    2.8072    0.7348 C   0  0  0  0  0  0  0  0  0  0  0  0
    2.3487    1.5070    0.2538 C   0  0  0  0  0  0  0  0  0  0  0  0
    2.0354   -0.0412   -2.4793 H   0  0  0  0  0  0  0  0  0  0  0  0
    0.2729   -0.0412   -2.4793 H   0  0  0  0  0  0  0  0  0  0  0  0
    1.1542   -1.5747   -2.4848 H   0  0  0  0  0  0  0  0  0  0  0  0
    0.1022   -1.2063   -0.1276 H   0  0  0  0  0  0  0  0  0  0  0  0
    2.0308   -1.0979   -0.2002 H   0  0  0  0  0  0  0  0  0  0  0  0
   -0.9812    0.9998    0.0701 H   0  0  0  0  0  0  0  0  0  0  0  0
   -0.9844    3.3089    0.9247 H   0  0  0  0  0  0  0  0  0  0  0  0
    1.1542    4.4769    1.3549 H   0  0  0  0  0  0  0  0  0  0  0  0
    3.2928    3.3089    0.9247 H   0  0  0  0  0  0  0  0  0  0  0  0
    3.2896    0.9998    0.0701 H   0  0  0  0  0  0  0  0  0  0  0  0
  1  2  1  0
  1  5  1  0
  2  3  1  0
  2  6  1  0
  2 19  1  0
  3  4  3  0
  4  7  1  0
  8  9  1  0
  8 16  1  0
  8 17  1  0
  8 18  1  0
  9 10  2  3
  9 20  1  0
 10 11  1  0
 10 15  1  0
 11 12  1  0
 11 21  1  0
 12 13  2  0
 12 22  1  0
 13 14  1  0
 13 23  1  0
 14 15  2  0
 14 24  1  0
 15 25  1  0
M  RAD  1  11   2
M  END
>  <reaction>  (6) 
rxn_1511

>  <mol_properties>  (6) 
{"0": {"label": "*4", "atom_type": "S2s"}, "1": {"label": "*3", "atom_type": "Cs"}, "8": {"label": "*1", "atom_type": "Cs"}, "9": {"label": "*0", "atom_type": "Cd"}, "18": {"label": "*2", "atom_type": "H0"}}

>  <type>  (6) 
unop_2

>  <geom_source>  (6) 
Heuristics

$$$$

     RDKit          3D

 25 24  0  0  0  0  0  0  0  0999 V2000
   -0.6351   -2.3820    1.6362 S   0  0  0  0  0  0  0  0  0  0  0  0
   -1.1525   -1.6659    0.0404 C   0  0  0  0  0  0  0  0  0  0  0  0
   -2.0890   -2.4917   -0.7013 C   0  0  0  0  0  0  0  0  0  0  0  0
   -2.8608   -3.1724   -1.3125 C   0  0  0  0  0  0  0  0  0  0  0  0
   -1.8637   -2.4706    2.1609 H   0  0  0  0  0  0  0  0  0  0  0  0
   -1.5760   -0.6754    0.2048 H   0  0  0  0  0  0  0  0  0  0  0  0
   -3.5466   -3.7771   -1.8557 H   0  0  0  0  0  0  0  0  0  0  0  0
    0.9498   -0.3668   -2.3595 C   0  0  0  0  0  0  0  0  0  0  0  0
    0.9498   -0.3668   -0.8304 C   0  0  0  0  0  0  0  0  0  0  0  0
    0.9498    1.0274   -0.2610 C   0  0  0  0  0  0  0  0  0  0  0  0
   -0.2447    1.6964   -0.0133 C   0  0  0  0  0  3  0  0  0  0  0  0
   -0.2480    2.9966    0.4677 C   0  0  0  0  0  0  0  0  0  0  0  0
    0.9498    3.6520    0.7095 C   0  0  0  0  0  0  0  0  0  0  0  0
    2.1476    2.9966    0.4677 C   0  0  0  0  0  0  0  0  0  0  0  0
    2.1443    1.6964   -0.0133 C   0  0  0  0  0  0  0  0  0  0  0  0
    1.8311    0.1482   -2.7464 H   0  0  0  0  0  0  0  0  0  0  0  0
    0.0685    0.1482   -2.7464 H   0  0  0  0  0  0  0  0  0  0  0  0
    0.9498   -1.3853   -2.7518 H   0  0  0  0  0  0  0  0  0  0  0  0
   -0.1022   -1.0169   -0.3947 H   0  0  0  0  0  0  0  0  0  0  0  0
    1.8264   -0.9085   -0.4673 H   0  0  0  0  0  0  0  0  0  0  0  0
   -1.1856    1.1892   -0.1970 H   0  0  0  0  0  0  0  0  0  0  0  0
   -1.1888    3.4983    0.6576 H   0  0  0  0  0  0  0  0  0  0  0  0
    0.9498    4.6663    1.0878 H   0  0  0  0  0  0  0  0  0  0  0  0
    3.0884    3.4983    0.6576 H   0  0  0  0  0  0  0  0  0  0  0  0
    3.0852    1.1892   -0.1970 H   0  0  0  0  0  0  0  0  0  0  0  0
  1  2  1  0
  1  5  1  0
  2  3  1  0
  2  6  1  0
  2 19  1  0
  3  4  3  0
  4  7  1  0
  8  9  1  0
  8 16  1  0
  8 17  1  0
  8 18  1  0
  9 10  2  3
  9 20  1  0
 10 11  1  0
 10 15  1  0
 11 12  1  0
 11 21  1  0
 12 13  2  0
 12 22  1  0
 13 14  1  0
 13 23  1  0
 14 15  2  0
 14 24  1  0
 15 25  1  0
M  RAD  1  11   2
M  END
>  <reaction>  (7) 
rxn_1511

>  <mol_properties>  (7) 
{"0": {"label": "*4", "atom_type": "S2s"}, "1": {"label": "*3", "atom_type": "Cs"}, "8": {"label": "*1", "atom_type": "Cs"}, "9": {"label": "*0", "atom_type": "Cd"}, "18": {"label": "*2", "atom_type": "H0"}}

>  <type>  (7) 
unop_3

>  <geom_source>  (7) 
Heuristics

$$$$

     RDKit          3D

 25 24  0  0  0  0  0  0  0  0999 V2000
   -2.5089   -1.3158   -0.6321 S   0  0  0  0  0  0  0  0  0  0  0  0
   -1.0801   -2.2270    0.0427 C   0  0  0  0  0  0  0  0  0  0  0  0
   -0.6242   -1.7389    1.3322 C   0  0  0  0  0  0  0  0  0  0  0  0
   -0.2485   -1.3365    2.3950 C   0  0  0  0  0  0  0  0  0  0  0  0
   -3.3322   -1.5542    0.3964 H   0  0  0  0  0  0  0  0  0  0  0  0
   -1.3213   -3.2876    0.1081 H   0  0  0  0  0  0  0  0  0  0  0  0
    0.0854   -0.9790    3.3394 H   0  0  0  0  0  0  0  0  0  0  0  0
    1.0222   -0.9280   -2.3573 C   0  0  0  0  0  0  0  0  0  0  0  0
    1.0222   -0.9280   -0.8281 C   0  0  0  0  0  0  0  0  0  0  0  0
    1.0222    0.4663   -0.2587 C   0  0  0  0  0  0  0  0  0  0  0  0
   -0.1724    1.1352   -0.0110 C   0  0  0  0  0  3  0  0  0  0  0  0
   -0.1757    2.4354    0.4699 C   0  0  0  0  0  0  0  0  0  0  0  0
    1.0222    3.0908    0.7117 C   0  0  0  0  0  0  0  0  0  0  0  0
    2.2200    2.4354    0.4699 C   0  0  0  0  0  0  0  0  0  0  0  0
    2.2167    1.1352   -0.0110 C   0  0  0  0  0  0  0  0  0  0  0  0
    1.9034   -0.4130   -2.7441 H   0  0  0  0  0  0  0  0  0  0  0  0
    0.1409   -0.4130   -2.7441 H   0  0  0  0  0  0  0  0  0  0  0  0
    1.0222   -1.9464   -2.7496 H   0  0  0  0  0  0  0  0  0  0  0  0
   -0.0298   -1.5780   -0.3924 H   0  0  0  0  0  0  0  0  0  0  0  0
    1.8988   -1.4697   -0.4650 H   0  0  0  0  0  0  0  0  0  0  0  0
   -1.1133    0.6280   -0.1947 H   0  0  0  0  0  0  0  0  0  0  0  0
   -1.1164    2.9371    0.6598 H   0  0  0  0  0  0  0  0  0  0  0  0
    1.0222    4.1051    1.0901 H   0  0  0  0  0  0  0  0  0  0  0  0
    3.1607    2.9371    0.6598 H   0  0  0  0  0  0  0  0  0  0  0  0
    3.1576    0.6280   -0.1947 H   0  0  0  0  0  0  0  0  0  0  0  0
  1  2  1  0
  1  5  1  0
  2  3  1  0
  2  6  1  0
  2 19  1  0
  3  4  3  0
  4  7  1  0
  8  9  1  0
  8 16  1  0
  8 17  1  0
  8 18  1  0
  9 10  2  3
  9 20  1  0
 10 11  1  0
 10 15  1  0
 11 12  1  0
 11 21  1  0
 12 13  2  0
 12 22  1  0
 13 14  1  0
 13 23  1  0
 14 15  2  0
 14 24  1  0
 15 25  1  0
M  RAD  1  11   2
M  END
>  <reaction>  (8) 
rxn_1511

>  <mol_properties>  (8) 
{"0": {"label": "*4", "atom_type": "S2s"}, "1": {"label": "*3", "atom_type": "Cs"}, "8": {"label": "*1", "atom_type": "Cs"}, "9": {"label": "*0", "atom_type": "Cd"}, "18": {"label": "*2", "atom_type": "H0"}}

>  <type>  (8) 
unop_4

>  <geom_source>  (8) 
Heuristics

$$$$

     RDKit          3D

 25 24  0  0  0  0  0  0  0  0999 V2000
   -1.1460   -1.6244    1.7794 S   0  0  0  0  0  0  0  0  0  0  0  0
   -1.2670   -1.6992   -0.0391 C   0  0  0  0  0  0  0  0  0  0  0  0
   -1.2797   -3.0489   -0.5748 C   0  0  0  0  0  0  0  0  0  0  0  0
   -1.2902   -4.1614   -1.0164 C   0  0  0  0  0  0  0  0  0  0  0  0
   -2.2558   -2.3310    2.0280 H   0  0  0  0  0  0  0  0  0  0  0  0
   -2.1531   -1.1575   -0.3687 H   0  0  0  0  0  0  0  0  0  0  0  0
   -1.2995   -5.1499   -1.4087 H   0  0  0  0  0  0  0  0  0  0  0  0
    0.8353   -0.4002   -2.4390 C   0  0  0  0  0  0  0  0  0  0  0  0
    0.8353   -0.4002   -0.9099 C   0  0  0  0  0  0  0  0  0  0  0  0
    0.8353    0.9941   -0.3405 C   0  0  0  0  0  0  0  0  0  0  0  0
   -0.3592    1.6630   -0.0928 C   0  0  0  0  0  3  0  0  0  0  0  0
   -0.3625    2.9633    0.3882 C   0  0  0  0  0  0  0  0  0  0  0  0
    0.8353    3.6186    0.6300 C   0  0  0  0  0  0  0  0  0  0  0  0
    2.0331    2.9633    0.3882 C   0  0  0  0  0  0  0  0  0  0  0  0
    2.0299    1.6630   -0.0928 C   0  0  0  0  0  0  0  0  0  0  0  0
    1.7166    0.1149   -2.8259 H   0  0  0  0  0  0  0  0  0  0  0  0
   -0.0459    0.1149   -2.8259 H   0  0  0  0  0  0  0  0  0  0  0  0
    0.8353   -1.4186   -2.8314 H   0  0  0  0  0  0  0  0  0  0  0  0
   -0.2166   -1.0502   -0.4742 H   0  0  0  0  0  0  0  0  0  0  0  0
    1.7120   -0.9419   -0.5468 H   0  0  0  0  0  0  0  0  0  0  0  0
   -1.3001    1.1559   -0.2765 H   0  0  0  0  0  0  0  0  0  0  0  0
   -1.3033    3.4650    0.5781 H   0  0  0  0  0  0  0  0  0  0  0  0
    0.8353    4.6330    1.0083 H   0  0  0  0  0  0  0  0  0  0  0  0
    2.9739    3.4650    0.5781 H   0  0  0  0  0  0  0  0  0  0  0  0
    2.9708    1.1559   -0.2765 H   0  0  0  0  0  0  0  0  0  0  0  0
  1  2  1  0
  1  5  1  0
  2  3  1  0
  2  6  1  0
  2 19  1  0
  3  4  3  0
  4  7  1  0
  8  9  1  0
  8 16  1  0
  8 17  1  0
  8 18  1  0
  9 10  2  3
  9 20  1  0
 10 11  1  0
 10 15  1  0
 11 12  1  0
 11 21  1  0
 12 13  2  0
 12 22  1  0
 13 14  1  0
 13 23  1  0
 14 15  2  0
 14 24  1  0
 15 25  1  0
M  RAD  1  11   2
M  END
>  <reaction>  (9) 
rxn_1511

>  <mol_properties>  (9) 
{"0": {"label": "*4", "atom_type": "S2s"}, "1": {"label": "*3", "atom_type": "Cs"}, "8": {"label": "*1", "atom_type": "Cs"}, "9": {"label": "*0", "atom_type": "Cd"}, "18": {"label": "*2", "atom_type": "H0"}}

>  <type>  (9) 
unop_5

>  <geom_source>  (9) 
Heuristics

$$$$

     RDKit          3D

 25 24  0  0  0  0  0  0  0  0999 V2000
   -2.5005   -0.9141    0.0772 S   0  0  0  0  0  0  0  0  0  0  0  0
   -1.1968   -2.1802   -0.0791 C   0  0  0  0  0  0  0  0  0  0  0  0
   -0.2896   -2.2363    1.0536 C   0  0  0  0  0  0  0  0  0  0  0  0
    0.4581   -2.2825    1.9871 C   0  0  0  0  0  0  0  0  0  0  0  0
   -3.0279   -1.3880    1.2129 H   0  0  0  0  0  0  0  0  0  0  0  0
   -1.6533   -3.1562   -0.2416 H   0  0  0  0  0  0  0  0  0  0  0  0
    1.1224   -2.3236    2.8166 H   0  0  0  0  0  0  0  0  0  0  0  0
    0.9055   -0.8812   -2.4791 C   0  0  0  0  0  0  0  0  0  0  0  0
    0.9055   -0.8812   -0.9499 C   0  0  0  0  0  0  0  0  0  0  0  0
    0.9055    0.5131   -0.3805 C   0  0  0  0  0  0  0  0  0  0  0  0
   -0.2891    1.1821   -0.1328 C   0  0  0  0  0  3  0  0  0  0  0  0
   -0.2923    2.4823    0.3481 C   0  0  0  0  0  0  0  0  0  0  0  0
    0.9055    3.1376    0.5899 C   0  0  0  0  0  0  0  0  0  0  0  0
    2.1033    2.4823    0.3481 C   0  0  0  0  0  0  0  0  0  0  0  0
    2.1000    1.1821   -0.1328 C   0  0  0  0  0  0  0  0  0  0  0  0
    1.7868   -0.3661   -2.8659 H   0  0  0  0  0  0  0  0  0  0  0  0
    0.0242   -0.3661   -2.8659 H   0  0  0  0  0  0  0  0  0  0  0  0
    0.9055   -1.8996   -2.8714 H   0  0  0  0  0  0  0  0  0  0  0  0
   -0.1465   -1.5312   -0.5142 H   0  0  0  0  0  0  0  0  0  0  0  0
    1.7821   -1.4228   -0.5868 H   0  0  0  0  0  0  0  0  0  0  0  0
   -1.2299    0.6749   -0.3165 H   0  0  0  0  0  0  0  0  0  0  0  0
   -1.2331    2.9840    0.5380 H   0  0  0  0  0  0  0  0  0  0  0  0
    0.9055    4.1520    0.9683 H   0  0  0  0  0  0  0  0  0  0  0  0
    3.0441    2.9840    0.5380 H   0  0  0  0  0  0  0  0  0  0  0  0
    3.0409    0.6749   -0.3165 H   0  0  0  0  0  0  0  0  0  0  0  0
  1  2  1  0
  1  5  1  0
  2  3  1  0
  2  6  1  0
  2 19  1  0
  3  4  3  0
  4  7  1  0
  8  9  1  0
  8 16  1  0
  8 17  1  0
  8 18  1  0
  9 10  2  3
  9 20  1  0
 10 11  1  0
 10 15  1  0
 11 12  1  0
 11 21  1  0
 12 13  2  0
 12 22  1  0
 13 14  1  0
 13 23  1  0
 14 15  2  0
 14 24  1  0
 15 25  1  0
M  RAD  1  11   2
M  END
>  <reaction>  (10) 
rxn_1511

>  <mol_properties>  (10) 
{"0": {"label": "*4", "atom_type": "S2s"}, "1": {"label": "*3", "atom_type": "Cs"}, "8": {"label": "*1", "atom_type": "Cs"}, "9": {"label": "*0", "atom_type": "Cd"}, "18": {"label": "*2", "atom_type": "H0"}}

>  <type>  (10) 
unop_6

>  <geom_source>  (10) 
Heuristics

$$$$

     RDKit          3D

 25 24  0  0  0  0  0  0  0  0999 V2000
   -2.2313   -0.8293    0.8396 S   0  0  0  0  0  0  0  0  0  0  0  0
   -1.3009   -2.0485   -0.1478 C   0  0  0  0  0  0  0  0  0  0  0  0
   -0.2236   -2.6975    0.5783 C   0  0  0  0  0  0  0  0  0  0  0  0
    0.6643   -3.2325    1.1768 C   0  0  0  0  0  0  0  0  0  0  0  0
   -2.6160   -1.6816    1.7978 H   0  0  0  0  0  0  0  0  0  0  0  0
   -1.9868   -2.7955   -0.5463 H   0  0  0  0  0  0  0  0  0  0  0  0
    1.4532   -3.7078    1.7086 H   0  0  0  0  0  0  0  0  0  0  0  0
    0.8014   -0.7495   -2.5478 C   0  0  0  0  0  0  0  0  0  0  0  0
    0.8014   -0.7495   -1.0187 C   0  0  0  0  0  0  0  0  0  0  0  0
    0.8014    0.6448   -0.4492 C   0  0  0  0  0  0  0  0  0  0  0  0
   -0.3931    1.3138   -0.2015 C   0  0  0  0  0  3  0  0  0  0  0  0
   -0.3964    2.6140    0.2794 C   0  0  0  0  0  0  0  0  0  0  0  0
    0.8014    3.2693    0.5212 C   0  0  0  0  0  0  0  0  0  0  0  0
    1.9992    2.6140    0.2794 C   0  0  0  0  0  0  0  0  0  0  0  0
    1.9959    1.3138   -0.2015 C   0  0  0  0  0  0  0  0  0  0  0  0
    1.6827   -0.2344   -2.9346 H   0  0  0  0  0  0  0  0  0  0  0  0
   -0.0799   -0.2344   -2.9346 H   0  0  0  0  0  0  0  0  0  0  0  0
    0.8014   -1.7679   -2.9401 H   0  0  0  0  0  0  0  0  0  0  0  0
   -0.2505   -1.3995   -0.5829 H   0  0  0  0  0  0  0  0  0  0  0  0
    1.6781   -1.2911   -0.6555 H   0  0  0  0  0  0  0  0  0  0  0  0
   -1.3340    0.8066   -0.3853 H   0  0  0  0  0  0  0  0  0  0  0  0
   -1.3372    3.1157    0.4693 H   0  0  0  0  0  0  0  0  0  0  0  0
    0.8014    4.2837    0.8996 H   0  0  0  0  0  0  0  0  0  0  0  0
    2.9400    3.1157    0.4693 H   0  0  0  0  0  0  0  0  0  0  0  0
    2.9368    0.8066   -0.3853 H   0  0  0  0  0  0  0  0  0  0  0  0
  1  2  1  0
  1  5  1  0
  2  3  1  0
  2  6  1  0
  2 19  1  0
  3  4  3  0
  4  7  1  0
  8  9  1  0
  8 16  1  0
  8 17  1  0
  8 18  1  0
  9 10  2  3
  9 20  1  0
 10 11  1  0
 10 15  1  0
 11 12  1  0
 11 21  1  0
 12 13  2  0
 12 22  1  0
 13 14  1  0
 13 23  1  0
 14 15  2  0
 14 24  1  0
 15 25  1  0
M  RAD  1  11   2
M  END
>  <reaction>  (11) 
rxn_1511

>  <mol_properties>  (11) 
{"0": {"label": "*4", "atom_type": "S2s"}, "1": {"label": "*3", "atom_type": "Cs"}, "8": {"label": "*1", "atom_type": "Cs"}, "9": {"label": "*0", "atom_type": "Cd"}, "18": {"label": "*2", "atom_type": "H0"}}

>  <type>  (11) 
unop_7

>  <geom_source>  (11) 
Heuristics

$$$$

     RDKit          3D

 25 24  0  0  0  0  0  0  0  0999 V2000
   -0.5132   -3.4078    0.3258 S   0  0  0  0  0  0  0  0  0  0  0  0
   -1.0623   -1.6754    0.1695 C   0  0  0  0  0  0  0  0  0  0  0  0
   -2.5026   -1.5196    0.0677 C   0  0  0  0  0  0  0  0  0  0  0  0
   -3.6897   -1.3911   -0.0162 C   0  0  0  0  0  0  0  0  0  0  0  0
   -1.2008   -3.6779    1.4424 H   0  0  0  0  0  0  0  0  0  0  0  0
   -0.6816   -1.0945    1.0091 H   0  0  0  0  0  0  0  0  0  0  0  0
   -4.7444   -1.2770   -0.0907 H   0  0  0  0  0  0  0  0  0  0  0  0
    1.0400   -0.3764   -2.2304 C   0  0  0  0  0  0  0  0  0  0  0  0
    1.0400   -0.3764   -0.7013 C   0  0  0  0  0  0  0  0  0  0  0  0
    1.0400    1.0179   -0.1319 C   0  0  0  0  0  0  0  0  0  0  0  0
   -0.1545    1.6869    0.1158 C   0  0  0  0  0  3  0  0  0  0  0  0
   -0.1578    2.9871    0.5968 C   0  0  0  0  0  0  0  0  0  0  0  0
    1.0400    3.6424    0.8386 C   0  0  0  0  0  0  0  0  0  0  0  0
    2.2378    2.9871    0.5968 C   0  0  0  0  0  0  0  0  0  0  0  0
    2.2345    1.6869    0.1158 C   0  0  0  0  0  0  0  0  0  0  0  0
    1.9213    0.1387   -2.6172 H   0  0  0  0  0  0  0  0  0  0  0  0
    0.1587    0.1387   -2.6173 H   0  0  0  0  0  0  0  0  0  0  0  0
    1.0400   -1.3948   -2.6227 H   0  0  0  0  0  0  0  0  0  0  0  0
   -0.0120   -1.0264   -0.2656 H   0  0  0  0  0  0  0  0  0  0  0  0
    1.9166   -0.9180   -0.3382 H   0  0  0  0  0  0  0  0  0  0  0  0
   -1.0954    1.1797   -0.0679 H   0  0  0  0  0  0  0  0  0  0  0  0
   -1.0986    3.4888    0.7867 H   0  0  0  0  0  0  0  0  0  0  0  0
    1.0400    4.6568    1.2169 H   0  0  0  0  0  0  0  0  0  0  0  0
    3.1786    3.4888    0.7867 H   0  0  0  0  0  0  0  0  0  0  0  0
    3.1754    1.1797   -0.0679 H   0  0  0  0  0  0  0  0  0  0  0  0
  1  2  1  0
  1  5  1  0
  2  3  1  0
  2  6  1  0
  2 19  1  0
  3  4  3  0
  4  7  1  0
  8  9  1  0
  8 16  1  0
  8 17  1  0
  8 18  1  0
  9 10  2  3
  9 20  1  0
 10 11  1  0
 10 15  1  0
 11 12  1  0
 11 21  1  0
 12 13  2  0
 12 22  1  0
 13 14  1  0
 13 23  1  0
 14 15  2  0
 14 24  1  0
 15 25  1  0
M  RAD  1  11   2
M  END
>  <reaction>  (12) 
rxn_1511

>  <mol_properties>  (12) 
{"0": {"label": "*4", "atom_type": "S2s"}, "1": {"label": "*3", "atom_type": "Cs"}, "8": {"label": "*1", "atom_type": "Cs"}, "9": {"label": "*0", "atom_type": "Cd"}, "18": {"label": "*2", "atom_type": "H0"}}

>  <type>  (12) 
unop_8

>  <geom_source>  (12) 
Heuristics

$$$$

     RDKit          3D

 25 24  0  0  0  0  0  0  0  0999 V2000
   -2.2518   -1.9253   -1.1033 S   0  0  0  0  0  0  0  0  0  0  0  0
   -0.9797   -2.1751    0.1798 C   0  0  0  0  0  0  0  0  0  0  0  0
   -1.1542   -1.3393    1.3545 C   0  0  0  0  0  0  0  0  0  0  0  0
   -1.2980   -0.6504    2.3227 C   0  0  0  0  0  0  0  0  0  0  0  0
   -3.3006   -2.2326   -0.3300 H   0  0  0  0  0  0  0  0  0  0  0  0
   -0.9537   -3.2255    0.4685 H   0  0  0  0  0  0  0  0  0  0  0  0
   -1.4257   -0.0382    3.1830 H   0  0  0  0  0  0  0  0  0  0  0  0
    1.1225   -0.8761   -2.2201 C   0  0  0  0  0  0  0  0  0  0  0  0
    1.1225   -0.8761   -0.6910 C   0  0  0  0  0  0  0  0  0  0  0  0
    1.1225    0.5182   -0.1216 C   0  0  0  0  0  0  0  0  0  0  0  0
   -0.0720    1.1871    0.1261 C   0  0  0  0  0  3  0  0  0  0  0  0
   -0.0753    2.4873    0.6071 C   0  0  0  0  0  0  0  0  0  0  0  0
    1.1225    3.1427    0.8489 C   0  0  0  0  0  0  0  0  0  0  0  0
    2.3203    2.4873    0.6071 C   0  0  0  0  0  0  0  0  0  0  0  0
    2.3171    1.1871    0.1261 C   0  0  0  0  0  0  0  0  0  0  0  0
    2.0038   -0.3610   -2.6069 H   0  0  0  0  0  0  0  0  0  0  0  0
    0.2413   -0.3610   -2.6069 H   0  0  0  0  0  0  0  0  0  0  0  0
    1.1225   -1.8945   -2.6124 H   0  0  0  0  0  0  0  0  0  0  0  0
    0.0706   -1.5261   -0.2552 H   0  0  0  0  0  0  0  0  0  0  0  0
    1.9992   -1.4178   -0.3279 H   0  0  0  0  0  0  0  0  0  0  0  0
   -1.0129    0.6800   -0.0576 H   0  0  0  0  0  0  0  0  0  0  0  0
   -1.0160    2.9890    0.7970 H   0  0  0  0  0  0  0  0  0  0  0  0
    1.1225    4.1570    1.2272 H   0  0  0  0  0  0  0  0  0  0  0  0
    3.2611    2.9890    0.7970 H   0  0  0  0  0  0  0  0  0  0  0  0
    3.2580    0.6800   -0.0576 H   0  0  0  0  0  0  0  0  0  0  0  0
  1  2  1  0
  1  5  1  0
  2  3  1  0
  2  6  1  0
  2 19  1  0
  3  4  3  0
  4  7  1  0
  8  9  1  0
  8 16  1  0
  8 17  1  0
  8 18  1  0
  9 10  2  3
  9 20  1  0
 10 11  1  0
 10 15  1  0
 11 12  1  0
 11 21  1  0
 12 13  2  0
 12 22  1  0
 13 14  1  0
 13 23  1  0
 14 15  2  0
 14 24  1  0
 15 25  1  0
M  RAD  1  11   2
M  END
>  <reaction>  (13) 
rxn_1511

>  <mol_properties>  (13) 
{"0": {"label": "*4", "atom_type": "S2s"}, "1": {"label": "*3", "atom_type": "Cs"}, "8": {"label": "*1", "atom_type": "Cs"}, "9": {"label": "*0", "atom_type": "Cd"}, "18": {"label": "*2", "atom_type": "H0"}}

>  <type>  (13) 
unop_9

>  <geom_source>  (13) 
Heuristics

$$$$

     RDKit          3D

 25 24  0  0  0  0  0  0  0  0999 V2000
   -0.8319   -3.4150   -0.4205 S   0  0  0  0  0  0  0  0  0  0  0  0
   -1.0077   -1.7295    0.2543 C   0  0  0  0  0  0  0  0  0  0  0  0
   -2.3832   -1.3299    0.4933 C   0  0  0  0  0  0  0  0  0  0  0  0
   -3.5170   -1.0005    0.6903 C   0  0  0  0  0  0  0  0  0  0  0  0
   -1.4446   -4.0414    0.5917 H   0  0  0  0  0  0  0  0  0  0  0  0
   -0.4276   -1.6414    1.1724 H   0  0  0  0  0  0  0  0  0  0  0  0
   -4.5244   -0.7079    0.8653 H   0  0  0  0  0  0  0  0  0  0  0  0
    1.0946   -0.4305   -2.1457 C   0  0  0  0  0  0  0  0  0  0  0  0
    1.0946   -0.4305   -0.6166 C   0  0  0  0  0  0  0  0  0  0  0  0
    1.0946    0.9638   -0.0472 C   0  0  0  0  0  0  0  0  0  0  0  0
   -0.0999    1.6327    0.2006 C   0  0  0  0  0  3  0  0  0  0  0  0
   -0.1032    2.9330    0.6815 C   0  0  0  0  0  0  0  0  0  0  0  0
    1.0946    3.5883    0.9233 C   0  0  0  0  0  0  0  0  0  0  0  0
    2.2924    2.9330    0.6815 C   0  0  0  0  0  0  0  0  0  0  0  0
    2.2891    1.6327    0.2006 C   0  0  0  0  0  0  0  0  0  0  0  0
    1.9759    0.0846   -2.5325 H   0  0  0  0  0  0  0  0  0  0  0  0
    0.2133    0.0846   -2.5325 H   0  0  0  0  0  0  0  0  0  0  0  0
    1.0946   -1.4489   -2.5380 H   0  0  0  0  0  0  0  0  0  0  0  0
    0.0427   -1.0805   -0.1808 H   0  0  0  0  0  0  0  0  0  0  0  0
    1.9713   -0.9722   -0.2534 H   0  0  0  0  0  0  0  0  0  0  0  0
   -1.0408    1.1256    0.0168 H   0  0  0  0  0  0  0  0  0  0  0  0
   -1.0440    3.4347    0.8714 H   0  0  0  0  0  0  0  0  0  0  0  0
    1.0946    4.6027    1.3017 H   0  0  0  0  0  0  0  0  0  0  0  0
    3.2332    3.4347    0.8714 H   0  0  0  0  0  0  0  0  0  0  0  0
    3.2300    1.1256    0.0168 H   0  0  0  0  0  0  0  0  0  0  0  0
  1  2  1  0
  1  5  1  0
  2  3  1  0
  2  6  1  0
  2 19  1  0
  3  4  3  0
  4  7  1  0
  8  9  1  0
  8 16  1  0
  8 17  1  0
  8 18  1  0
  9 10  2  3
  9 20  1  0
 10 11  1  0
 10 15  1  0
 11 12  1  0
 11 21  1  0
 12 13  2  0
 12 22  1  0
 13 14  1  0
 13 23  1  0
 14 15  2  0
 14 24  1  0
 15 25  1  0
M  RAD  1  11   2
M  END
>  <reaction>  (14) 
rxn_1511

>  <mol_properties>  (14) 
{"0": {"label": "*4", "atom_type": "S2s"}, "1": {"label": "*3", "atom_type": "Cs"}, "8": {"label": "*1", "atom_type": "Cs"}, "9": {"label": "*0", "atom_type": "Cd"}, "18": {"label": "*2", "atom_type": "H0"}}

>  <type>  (14) 
unop_10

>  <geom_source>  (14) 
Heuristics

$$$$

     RDKit          3D

 25 24  0  0  0  0  0  0  0  0999 V2000
   -1.7539   -1.0755    1.4627 S   0  0  0  0  0  0  0  0  0  0  0  0
   -1.3449   -1.8587   -0.1331 C   0  0  0  0  0  0  0  0  0  0  0  0
   -0.5131   -3.0431   -0.0134 C   0  0  0  0  0  0  0  0  0  0  0  0
    0.1724   -4.0193    0.0853 C   0  0  0  0  0  0  0  0  0  0  0  0
   -2.3520   -2.1458    2.0007 H   0  0  0  0  0  0  0  0  0  0  0  0
   -2.2633   -2.0990   -0.6679 H   0  0  0  0  0  0  0  0  0  0  0  0
    0.7816   -4.8866    0.1730 H   0  0  0  0  0  0  0  0  0  0  0  0
    0.7574   -0.5596   -2.5330 C   0  0  0  0  0  0  0  0  0  0  0  0
    0.7574   -0.5596   -1.0039 C   0  0  0  0  0  0  0  0  0  0  0  0
    0.7574    0.8346   -0.4345 C   0  0  0  0  0  0  0  0  0  0  0  0
   -0.4371    1.5036   -0.1868 C   0  0  0  0  0  3  0  0  0  0  0  0
   -0.4404    2.8038    0.2942 C   0  0  0  0  0  0  0  0  0  0  0  0
    0.7574    3.4592    0.5360 C   0  0  0  0  0  0  0  0  0  0  0  0
    1.9552    2.8038    0.2942 C   0  0  0  0  0  0  0  0  0  0  0  0
    1.9519    1.5036   -0.1868 C   0  0  0  0  0  0  0  0  0  0  0  0
    1.6387   -0.0446   -2.9199 H   0  0  0  0  0  0  0  0  0  0  0  0
   -0.1239   -0.0446   -2.9199 H   0  0  0  0  0  0  0  0  0  0  0  0
    0.7574   -1.5781   -2.9253 H   0  0  0  0  0  0  0  0  0  0  0  0
   -0.2946   -1.2096   -0.5682 H   0  0  0  0  0  0  0  0  0  0  0  0
    1.6340   -1.1013   -0.6408 H   0  0  0  0  0  0  0  0  0  0  0  0
   -1.3780    0.9964   -0.3705 H   0  0  0  0  0  0  0  0  0  0  0  0
   -1.3812    3.3055    0.4841 H   0  0  0  0  0  0  0  0  0  0  0  0
    0.7574    4.4735    0.9143 H   0  0  0  0  0  0  0  0  0  0  0  0
    2.8960    3.3055    0.4841 H   0  0  0  0  0  0  0  0  0  0  0  0
    2.8928    0.9964   -0.3705 H   0  0  0  0  0  0  0  0  0  0  0  0
  1  2  1  0
  1  5  1  0
  2  3  1  0
  2  6  1  0
  2 19  1  0
  3  4  3  0
  4  7  1  0
  8  9  1  0
  8 16  1  0
  8 17  1  0
  8 18  1  0
  9 10  2  3
  9 20  1  0
 10 11  1  0
 10 15  1  0
 11 12  1  0
 11 21  1  0
 12 13  2  0
 12 22  1  0
 13 14  1  0
 13 23  1  0
 14 15  2  0
 14 24  1  0
 15 25  1  0
M  RAD  1  11   2
M  END
>  <reaction>  (15) 
rxn_1511

>  <mol_properties>  (15) 
{"0": {"label": "*4", "atom_type": "S2s"}, "1": {"label": "*3", "atom_type": "Cs"}, "8": {"label": "*1", "atom_type": "Cs"}, "9": {"label": "*0", "atom_type": "Cd"}, "18": {"label": "*2", "atom_type": "H0"}}

>  <type>  (15) 
unop_11

>  <geom_source>  (15) 
Heuristics

$$$$

     RDKit          3D

 25 24  0  0  0  0  0  0  0  0999 V2000
   -1.8041   -2.5716   -1.2223 S   0  0  0  0  0  0  0  0  0  0  0  0
   -0.9285   -2.0306    0.2836 C   0  0  0  0  0  0  0  0  0  0  0  0
   -1.7202   -1.1779    1.1526 C   0  0  0  0  0  0  0  0  0  0  0  0
   -2.3728   -0.4751    1.8688 C   0  0  0  0  0  0  0  0  0  0  0  0
   -2.8178   -3.1772   -0.5913 H   0  0  0  0  0  0  0  0  0  0  0  0
   -0.5765   -2.9024    0.8344 H   0  0  0  0  0  0  0  0  0  0  0  0
   -2.9526    0.1493    2.5051 H   0  0  0  0  0  0  0  0  0  0  0  0
    1.1738   -0.7316   -2.1164 C   0  0  0  0  0  0  0  0  0  0  0  0
    1.1738   -0.7316   -0.5873 C   0  0  0  0  0  0  0  0  0  0  0  0
    1.1738    0.6627   -0.0178 C   0  0  0  0  0  0  0  0  0  0  0  0
   -0.0207    1.3316    0.2299 C   0  0  0  0  0  3  0  0  0  0  0  0
   -0.0240    2.6318    0.7108 C   0  0  0  0  0  0  0  0  0  0  0  0
    1.1738    3.2872    0.9526 C   0  0  0  0  0  0  0  0  0  0  0  0
    2.3716    2.6318    0.7108 C   0  0  0  0  0  0  0  0  0  0  0  0
    2.3683    1.3316    0.2299 C   0  0  0  0  0  0  0  0  0  0  0  0
    2.0551   -0.2165   -2.5032 H   0  0  0  0  0  0  0  0  0  0  0  0
    0.2925   -0.2165   -2.5032 H   0  0  0  0  0  0  0  0  0  0  0  0
    1.1738   -1.7500   -2.5087 H   0  0  0  0  0  0  0  0  0  0  0  0
    0.1218   -1.3816   -0.1515 H   0  0  0  0  0  0  0  0  0  0  0  0
    2.0504   -1.2733   -0.2241 H   0  0  0  0  0  0  0  0  0  0  0  0
   -0.9616    0.8245    0.0462 H   0  0  0  0  0  0  0  0  0  0  0  0
   -0.9648    3.1335    0.9007 H   0  0  0  0  0  0  0  0  0  0  0  0
    1.1738    4.3015    1.3310 H   0  0  0  0  0  0  0  0  0  0  0  0
    3.3124    3.1335    0.9007 H   0  0  0  0  0  0  0  0  0  0  0  0
    3.3092    0.8245    0.0462 H   0  0  0  0  0  0  0  0  0  0  0  0
  1  2  1  0
  1  5  1  0
  2  3  1  0
  2  6  1  0
  2 19  1  0
  3  4  3  0
  4  7  1  0
  8  9  1  0
  8 16  1  0
  8 17  1  0
  8 18  1  0
  9 10  2  3
  9 20  1  0
 10 11  1  0
 10 15  1  0
 11 12  1  0
 11 21  1  0
 12 13  2  0
 12 22  1  0
 13 14  1  0
 13 23  1  0
 14 15  2  0
 14 24  1  0
 15 25  1  0
M  RAD  1  11   2
M  END
>  <reaction>  (16) 
rxn_1511

>  <mol_properties>  (16) 
{"0": {"label": "*4", "atom_type": "S2s"}, "1": {"label": "*3", "atom_type": "Cs"}, "8": {"label": "*1", "atom_type": "Cs"}, "9": {"label": "*0", "atom_type": "Cd"}, "18": {"label": "*2", "atom_type": "H0"}}

>  <type>  (16) 
unop_12

>  <geom_source>  (16) 
Heuristics

$$$$

     RDKit          3D

 25 24  0  0  0  0  0  0  0  0999 V2000
    2.8507   -1.6252   -1.5943 S   0  0  0  0  0  0  0  0  0  0  0  0
   -0.0268    2.2954   -1.0907 C   0  0  0  0  0  0  0  0  0  0  0  0
    2.2749   -0.7613   -0.1036 C   0  0  0  0  0  0  0  0  0  0  0  0
   -0.9626    0.1990   -0.1115 C   0  0  0  0  0  0  0  0  0  0  0  0
    0.2849    0.9083   -0.5443 C   0  0  0  0  0  0  0  0  0  0  0  0
   -1.5437    0.4683    1.1382 C   0  0  0  0  0  3  0  0  0  0  0  0
   -1.5735   -0.7201   -0.9761 C   0  0  0  0  0  0  0  0  0  0  0  0
   -2.7188   -0.1864    1.5210 C   0  0  0  0  0  0  0  0  0  0  0  0
   -3.3204   -1.1072    0.6578 C   0  0  0  0  0  0  0  0  0  0  0  0
   -2.7487   -1.3731   -0.5901 C   0  0  0  0  0  0  0  0  0  0  0  0
    3.4238   -0.2867    0.6701 C   0  0  0  0  0  0  0  0  0  0  0  0
    4.3690    0.1045    1.3079 C   0  0  0  0  0  0  0  0  0  0  0  0
    1.6680   -1.4522    0.5176 H   0  0  0  0  0  0  0  0  0  0  0  0
    1.5182    0.2913   -0.4648 H   0  0  0  0  0  0  0  0  0  0  0  0
    0.9134    2.7730   -1.4362 H   0  0  0  0  0  0  0  0  0  0  0  0
   -0.4828    2.9294   -0.3006 H   0  0  0  0  0  0  0  0  0  0  0  0
   -0.7238    2.2187   -1.9520 H   0  0  0  0  0  0  0  0  0  0  0  0
    1.0113    0.9752    0.2943 H   0  0  0  0  0  0  0  0  0  0  0  0
   -1.0877    1.1834    1.8118 H   0  0  0  0  0  0  0  0  0  0  0  0
   -3.1639    0.0213    2.4854 H   0  0  0  0  0  0  0  0  0  0  0  0
   -1.1405   -0.9294   -1.9466 H   0  0  0  0  0  0  0  0  0  0  0  0
   -4.2302   -1.6127    0.9549 H   0  0  0  0  0  0  0  0  0  0  0  0
   -3.2170   -2.0837   -1.2588 H   0  0  0  0  0  0  0  0  0  0  0  0
    3.4275   -2.6778   -0.8571 H   0  0  0  0  0  0  0  0  0  0  0  0
    5.1989    0.4479    1.8676 H   0  0  0  0  0  0  0  0  0  0  0  0
  1  3  1  0
  1 24  1  0
  2  5  1  0
  2 15  1  0
  2 16  1  0
  2 17  1  0
  3 11  1  0
  3 13  1  0
  3 14  1  0
  4  5  2  3
  4  6  1  0
  4  7  1  0
  5 18  1  0
  6  8  1  0
  6 19  1  0
  7 10  2  0
  7 21  1  0
  8  9  2  0
  8 20  1  0
  9 10  1  0
  9 22  1  0
 10 23  1  0
 11 12  3  0
 12 25  1  0
M  RAD  1   6   2
M  END
>  <reaction>  (17) 
rxn_1511

>  <mol_properties>  (17) 
{"0": {"label": "*4", "atom_type": "S2s"}, "1": {"label": "*3", "atom_type": "Cs"}, "8": {"label": "*1", "atom_type": "Cs"}, "9": {"label": "*0", "atom_type": "Cd"}, "18": {"label": "*2", "atom_type": "H0"}}

>  <type>  (17) 
unop_13

>  <geom_source>  (17) 
AutoTST

$$$$
