
     RDKit          3D

  6  5  0  0  0  0  0  0  0  0999 V2000
   -0.5072   -0.0291   -0.0097 C   0  0  0  0  0  0  0  0  0  0  0  0
    1.1321   -0.1527   -0.7687 S   0  0  0  0  0  0  0  0  0  0  0  0
   -0.6174   -0.7330    0.8127 H   0  0  0  0  0  0  0  0  0  0  0  0
   -0.5863    0.9827    0.3845 H   0  0  0  0  0  0  0  0  0  0  0  0
   -1.2962   -0.1800   -0.7434 H   0  0  0  0  0  0  0  0  0  0  0  0
    1.0312   -1.4237   -1.1764 H   0  0  0  0  0  0  0  0  0  0  0  0
  1  2  1  0
  1  3  1  0
  1  4  1  0
  1  5  1  0
  2  6  1  0
M  END
>  <reaction>  (1) 
rxn_1821

>  <mol_properties>  (1) 
{"0": {"label": "donator", "atom_type": "Cs"}, "2": {"label": "d_hydrogen", "atom_type": "H0"}}

>  <type>  (1) 
r1h

$$$$

     RDKit          3D

 12 11  0  0  0  0  0  0  0  0999 V2000
    2.5164   -0.5559   -0.0242 C   0  0  0  0  0  0  0  0  0  0  0  0
    1.3287   -0.2938   -0.0132 C   0  0  0  0  0  0  0  0  0  0  0  0
   -0.0146    0.0027   -0.0006 C   0  0  0  0  0  3  0  0  0  0  0  0
   -1.0396   -1.0729   -0.1642 C   0  0  0  0  0  0  0  0  0  0  0  0
   -0.4887    1.4091    0.1769 C   0  0  0  0  0  0  0  0  0  0  0  0
    3.5543   -0.7850   -0.0339 H   0  0  0  0  0  0  0  0  0  0  0  0
   -1.7064   -1.1056    0.7044 H   0  0  0  0  0  0  0  0  0  0  0  0
   -0.5831   -2.0533   -0.2854 H   0  0  0  0  0  0  0  0  0  0  0  0
   -1.6716   -0.8741   -1.0367 H   0  0  0  0  0  0  0  0  0  0  0  0
   -1.0951    1.7228   -0.6798 H   0  0  0  0  0  0  0  0  0  0  0  0
    0.3401    2.1059    0.2861 H   0  0  0  0  0  0  0  0  0  0  0  0
   -1.1300    1.4913    1.0613 H   0  0  0  0  0  0  0  0  0  0  0  0
  1  2  3  0
  1  6  1  0
  2  3  1  0
  3  4  1  0
  3  5  1  0
  4  7  1  0
  4  8  1  0
  4  9  1  0
  5 10  1  0
  5 11  1  0
  5 12  1  0
M  RAD  1   3   2
M  END
>  <reaction>  (2) 
rxn_1821

>  <mol_properties>  (2) 
{"2": {"label": "acceptor", "atom_type": "Cs"}}

>  <type>  (2) 
r2

$$$$

     RDKit          3D

 13 12  0  0  0  0  0  0  0  0999 V2000
    2.2975   -0.6134    0.7685 C   0  0  0  0  0  0  0  0  0  0  0  0
    1.1676   -0.5248    0.3802 C   0  0  0  0  0  0  0  0  0  0  0  0
   -0.2109   -0.3926   -0.0948 C   0  0  0  0  0  0  0  0  0  0  0  0
   -0.2501    0.2584   -1.4808 C   0  0  0  0  0  0  0  0  0  0  0  0
   -1.0633    0.3831    0.9141 C   0  0  0  0  0  0  0  0  0  0  0  0
    3.2999   -0.6974    1.1133 H   0  0  0  0  0  0  0  0  0  0  0  0
   -0.6209   -1.4038   -0.1814 H   0  0  0  0  0  0  0  0  0  0  0  0
    0.3402   -0.3102   -2.1992 H   0  0  0  0  0  0  0  0  0  0  0  0
    0.1511    1.2724   -1.4369 H   0  0  0  0  0  0  0  0  0  0  0  0
   -1.2791    0.3109   -1.8407 H   0  0  0  0  0  0  0  0  0  0  0  0
   -0.6861    1.4008    1.0287 H   0  0  0  0  0  0  0  0  0  0  0  0
   -1.0492   -0.0971    1.8924 H   0  0  0  0  0  0  0  0  0  0  0  0
   -2.0971    0.4363    0.5680 H   0  0  0  0  0  0  0  0  0  0  0  0
  1  2  3  0
  1  6  1  0
  2  3  1  0
  3  4  1  0
  3  5  1  0
  3  7  1  0
  4  8  1  0
  4  9  1  0
  4 10  1  0
  5 11  1  0
  5 12  1  0
  5 13  1  0
M  END
>  <reaction>  (3) 
rxn_1821

>  <mol_properties>  (3) 
{"2": {"label": "acceptor", "atom_type": "Cs"}, "12": {"label": "a_hydrogen", "atom_type": "H0"}}

>  <type>  (3) 
r2h

$$$$

     RDKit          3D

 18 16  0  0  0  0  0  0  0  0999 V2000
   -0.5660    2.1698   -1.0224 C   0  0  0  0  0  0  0  0  0  0  0  0
   -0.2632    1.5417   -0.0424 C   0  0  0  0  0  0  0  0  0  0  0  0
    0.1129    0.7379    1.0852 C   0  0  0  0  0  0  0  0  0  0  0  0
   -1.0367    0.3748    2.0053 C   0  0  0  0  0  0  0  0  0  0  0  0
    1.3758    1.1946    1.7907 C   0  0  0  0  0  0  0  0  0  0  0  0
   -0.8393    2.7467   -1.8728 H   0  0  0  0  0  0  0  0  0  0  0  0
   -0.7037   -0.3466    2.7542 H   0  0  0  0  0  0  0  0  0  0  0  0
   -1.8602   -0.0660    1.4429 H   0  0  0  0  0  0  0  0  0  0  0  0
   -1.4131    1.2583    2.5285 H   0  0  0  0  0  0  0  0  0  0  0  0
    1.2047    2.1306    2.3298 H   0  0  0  0  0  0  0  0  0  0  0  0
    2.1870    1.3589    1.0810 H   0  0  0  0  0  0  0  0  0  0  0  0
    1.6942    0.4422    2.5151 H   0  0  0  0  0  0  0  0  0  0  0  0
    0.6922   -1.6094   -0.1116 C   0  0  0  0  0  3  0  0  0  0  0  0
   -0.7594   -2.0572   -0.9996 S   0  0  0  0  0  0  0  0  0  0  0  0
    0.4290   -0.3960    0.5390 H   0  0  0  0  0  0  0  0  0  0  0  0
    0.9000   -2.3276    0.6764 H   0  0  0  0  0  0  0  0  0  0  0  0
    1.5599   -1.3709   -0.7204 H   0  0  0  0  0  0  0  0  0  0  0  0
   -0.7743   -1.0025   -1.8267 H   0  0  0  0  0  0  0  0  0  0  0  0
  1  2  3  0
  1  6  1  0
  2  3  1  0
  3  4  1  0
  3  5  1  0
  3 15  1  0
  4  7  1  0
  4  8  1  0
  4  9  1  0
  5 10  1  0
  5 11  1  0
  5 12  1  0
 13 14  1  0
 13 16  1  0
 13 17  1  0
 14 18  1  0
M  RAD  1  13   2
M  END
>  <reaction>  (4) 
rxn_1821

>  <mol_properties>  (4) 
{"1": {"label": "*0", "atom_type": "Ct"}, "2": {"label": "*1", "atom_type": "Cs"}, "12": {"label": "*3", "atom_type": "Cs"}, "13": {"label": "*4", "atom_type": "S2s"}, "14": {"label": "*2", "atom_type": "H0"}}

>  <type>  (4) 
ts

$$$$

     RDKit          3D

 18 16  0  0  0  0  0  0  0  0999 V2000
   -2.0377    1.1557    2.0957 C   0  0  0  0  0  0  0  0  0  0  0  0
   -1.0564    1.0245    1.4210 C   0  0  0  0  0  0  0  0  0  0  0  0
    0.1551    0.8773    0.6123 C   0  0  0  0  0  3  0  0  0  0  0  0
    1.2459    0.1384    1.3935 C   0  0  0  0  0  0  0  0  0  0  0  0
    0.6468    2.2396    0.1136 C   0  0  0  0  0  0  0  0  0  0  0  0
   -2.9086    1.2721    2.6945 H   0  0  0  0  0  0  0  0  0  0  0  0
    2.1266   -0.0025    0.7645 H   0  0  0  0  0  0  0  0  0  0  0  0
    0.8974   -0.8392    1.7266 H   0  0  0  0  0  0  0  0  0  0  0  0
    1.5400    0.7132    2.2734 H   0  0  0  0  0  0  0  0  0  0  0  0
    0.9232    2.8764    0.9557 H   0  0  0  0  0  0  0  0  0  0  0  0
   -0.1262    2.7507   -0.4602 H   0  0  0  0  0  0  0  0  0  0  0  0
    1.5240    2.1108   -0.5228 H   0  0  0  0  0  0  0  0  0  0  0  0
    0.1551   -1.5618   -0.3422 C   0  0  0  0  0  0  0  0  0  0  0  0
    0.1551   -1.5618   -2.1528 S   0  0  0  0  0  0  0  0  0  0  0  0
    0.1551   -0.3460    0.1336 H   0  0  0  0  0  0  0  0  0  0  0  0
   -0.7656   -2.0559   -0.0363 H   0  0  0  0  0  0  0  0  0  0  0  0
    0.9995   -2.1218    0.0543 H   0  0  0  0  0  0  0  0  0  0  0  0
    1.3254   -0.9337   -2.3192 H   0  0  0  0  0  0  0  0  0  0  0  0
  1  2  3  0
  1  6  1  0
  2  3  1  0
  3  4  1  0
  3  5  1  0
  4  7  1  0
  4  8  1  0
  4  9  1  0
  5 10  1  0
  5 11  1  0
  5 12  1  0
 13 14  1  0
 13 15  1  0
 13 16  1  0
 13 17  1  0
 14 18  1  0
M  RAD  1   3   2
M  END
>  <reaction>  (5) 
rxn_1821

>  <mol_properties>  (5) 
{"1": {"label": "*0", "atom_type": "Ct"}, "2": {"label": "*1", "atom_type": "Cs"}, "12": {"label": "*3", "atom_type": "Cs"}, "13": {"label": "*4", "atom_type": "S2s"}, "14": {"label": "*2", "atom_type": "H0"}}

>  <type>  (5) 
unop_1

>  <geom_source>  (5) 
Heuristics

$$$$

     RDKit          3D

 18 16  0  0  0  0  0  0  0  0999 V2000
   -1.1098    2.2479   -0.7658 C   0  0  0  0  0  0  0  0  0  0  0  0
   -0.5348    1.5440    0.0148 C   0  0  0  0  0  0  0  0  0  0  0  0
    0.1646    0.7004    0.9856 C   0  0  0  0  0  3  0  0  0  0  0  0
   -0.7627    0.3169    2.1429 C   0  0  0  0  0  0  0  0  0  0  0  0
    1.4365    1.3889    1.4899 C   0  0  0  0  0  0  0  0  0  0  0  0
   -1.6200    2.8727   -1.4586 H   0  0  0  0  0  0  0  0  0  0  0  0
   -0.2420   -0.3465    2.8357 H   0  0  0  0  0  0  0  0  0  0  0  0
   -1.6553   -0.1921    1.7796 H   0  0  0  0  0  0  0  0  0  0  0  0
   -1.0772    1.2073    2.6901 H   0  0  0  0  0  0  0  0  0  0  0  0
    1.1869    2.3109    2.0178 H   0  0  0  0  0  0  0  0  0  0  0  0
    2.1021    1.6394    0.6639 H   0  0  0  0  0  0  0  0  0  0  0  0
    1.9699    0.7317    2.1789 H   0  0  0  0  0  0  0  0  0  0  0  0
    0.1646   -1.7387    0.0312 C   0  0  0  0  0  0  0  0  0  0  0  0
    0.1646   -1.7387   -1.7795 S   0  0  0  0  0  0  0  0  0  0  0  0
    0.1646   -0.5228    0.5069 H   0  0  0  0  0  0  0  0  0  0  0  0
   -0.7561   -2.2328    0.3371 H   0  0  0  0  0  0  0  0  0  0  0  0
    1.0090   -2.2987    0.4276 H   0  0  0  0  0  0  0  0  0  0  0  0
    1.3349   -1.1105   -1.9459 H   0  0  0  0  0  0  0  0  0  0  0  0
  1  2  3  0
  1  6  1  0
  2  3  1  0
  3  4  1  0
  3  5  1  0
  4  7  1  0
  4  8  1  0
  4  9  1  0
  5 10  1  0
  5 11  1  0
  5 12  1  0
 13 14  1  0
 13 15  1  0
 13 16  1  0
 13 17  1  0
 14 18  1  0
M  RAD  1   3   2
M  END
>  <reaction>  (6) 
rxn_1821

>  <mol_properties>  (6) 
{"1": {"label": "*0", "atom_type": "Ct"}, "2": {"label": "*1", "atom_type": "Cs"}, "12": {"label": "*3", "atom_type": "Cs"}, "13": {"label": "*4", "atom_type": "S2s"}, "14": {"label": "*2", "atom_type": "H0"}}

>  <type>  (6) 
unop_2

>  <geom_source>  (6) 
Heuristics

$$$$

     RDKit          3D

 18 16  0  0  0  0  0  0  0  0999 V2000
   -1.2179    0.8151    2.9197 C   0  0  0  0  0  0  0  0  0  0  0  0
   -0.6558    0.8317    1.8618 C   0  0  0  0  0  0  0  0  0  0  0  0
    0.0437    0.8711    0.5763 C   0  0  0  0  0  3  0  0  0  0  0  0
    1.5481    0.6552    0.7672 C   0  0  0  0  0  0  0  0  0  0  0  0
   -0.2463    2.1812   -0.1624 C   0  0  0  0  0  0  0  0  0  0  0  0
   -1.7168    0.8003    3.8586 H   0  0  0  0  0  0  0  0  0  0  0  0
    2.0504    0.6436   -0.2017 H   0  0  0  0  0  0  0  0  0  0  0  0
    1.7489   -0.2888    1.2735 H   0  0  0  0  0  0  0  0  0  0  0  0
    1.9755    1.4610    1.3665 H   0  0  0  0  0  0  0  0  0  0  0  0
    0.1282    3.0319    0.4096 H   0  0  0  0  0  0  0  0  0  0  0  0
   -1.3168    2.3183   -0.3146 H   0  0  0  0  0  0  0  0  0  0  0  0
    0.2457    2.1784   -1.1366 H   0  0  0  0  0  0  0  0  0  0  0  0
    0.0437   -1.5680   -0.3782 C   0  0  0  0  0  0  0  0  0  0  0  0
    0.0437   -1.5680   -2.1888 S   0  0  0  0  0  0  0  0  0  0  0  0
    0.0437   -0.3522    0.0976 H   0  0  0  0  0  0  0  0  0  0  0  0
   -0.8770   -2.0622   -0.0722 H   0  0  0  0  0  0  0  0  0  0  0  0
    0.8880   -2.1280    0.0183 H   0  0  0  0  0  0  0  0  0  0  0  0
    1.2140   -0.9399   -2.3552 H   0  0  0  0  0  0  0  0  0  0  0  0
  1  2  3  0
  1  6  1  0
  2  3  1  0
  3  4  1  0
  3  5  1  0
  4  7  1  0
  4  8  1  0
  4  9  1  0
  5 10  1  0
  5 11  1  0
  5 12  1  0
 13 14  1  0
 13 15  1  0
 13 16  1  0
 13 17  1  0
 14 18  1  0
M  RAD  1   3   2
M  END
>  <reaction>  (7) 
rxn_1821

>  <mol_properties>  (7) 
{"1": {"label": "*0", "atom_type": "Ct"}, "2": {"label": "*1", "atom_type": "Cs"}, "12": {"label": "*3", "atom_type": "Cs"}, "13": {"label": "*4", "atom_type": "S2s"}, "14": {"label": "*2", "atom_type": "H0"}}

>  <type>  (7) 
unop_3

>  <geom_source>  (7) 
Heuristics

$$$$

     RDKit          3D

 18 16  0  0  0  0  0  0  0  0999 V2000
    1.9264    1.9741   -0.0231 C   0  0  0  0  0  0  0  0  0  0  0  0
    0.9343    1.4258    0.3647 C   0  0  0  0  0  0  0  0  0  0  0  0
   -0.2772    0.7688    0.8587 C   0  0  0  0  0  3  0  0  0  0  0  0
   -1.4068    1.7845    1.0555 C   0  0  0  0  0  0  0  0  0  0  0  0
    0.0103   -0.0078    2.1473 C   0  0  0  0  0  0  0  0  0  0  0  0
    2.8070    2.4607   -0.3673 H   0  0  0  0  0  0  0  0  0  0  0  0
   -2.3153    1.2753    1.3820 H   0  0  0  0  0  0  0  0  0  0  0  0
   -1.6216    2.3181    0.1298 H   0  0  0  0  0  0  0  0  0  0  0  0
   -1.1315    2.5179    1.8155 H   0  0  0  0  0  0  0  0  0  0  0  0
    0.3274    0.6727    2.9394 H   0  0  0  0  0  0  0  0  0  0  0  0
    0.7995   -0.7439    1.9950 H   0  0  0  0  0  0  0  0  0  0  0  0
   -0.8900   -0.5273    2.4800 H   0  0  0  0  0  0  0  0  0  0  0  0
   -0.2772   -1.6702   -0.0958 C   0  0  0  0  0  0  0  0  0  0  0  0
   -0.2772   -1.6702   -1.9064 S   0  0  0  0  0  0  0  0  0  0  0  0
   -0.2772   -0.4544    0.3800 H   0  0  0  0  0  0  0  0  0  0  0  0
   -1.1979   -2.1644    0.2102 H   0  0  0  0  0  0  0  0  0  0  0  0
    0.5672   -2.2302    0.3007 H   0  0  0  0  0  0  0  0  0  0  0  0
    0.8931   -1.0421   -2.0728 H   0  0  0  0  0  0  0  0  0  0  0  0
  1  2  3  0
  1  6  1  0
  2  3  1  0
  3  4  1  0
  3  5  1  0
  4  7  1  0
  4  8  1  0
  4  9  1  0
  5 10  1  0
  5 11  1  0
  5 12  1  0
 13 14  1  0
 13 15  1  0
 13 16  1  0
 13 17  1  0
 14 18  1  0
M  RAD  1   3   2
M  END
>  <reaction>  (8) 
rxn_1821

>  <mol_properties>  (8) 
{"1": {"label": "*0", "atom_type": "Ct"}, "2": {"label": "*1", "atom_type": "Cs"}, "12": {"label": "*3", "atom_type": "Cs"}, "13": {"label": "*4", "atom_type": "S2s"}, "14": {"label": "*2", "atom_type": "H0"}}

>  <type>  (8) 
unop_4

>  <geom_source>  (8) 
Heuristics

$$$$

     RDKit          3D

 18 16  0  0  0  0  0  0  0  0999 V2000
   -0.0096    0.6723    3.2385 C   0  0  0  0  0  0  0  0  0  0  0  0
   -0.0096    0.7409    2.0423 C   0  0  0  0  0  0  0  0  0  0  0  0
   -0.0096    0.8486    0.5823 C   0  0  0  0  0  3  0  0  0  0  0  0
    1.2565    1.5545    0.0875 C   0  0  0  0  0  0  0  0  0  0  0  0
   -1.2757    1.5545    0.0875 C   0  0  0  0  0  0  0  0  0  0  0  0
   -0.0096    0.6115    4.3000 H   0  0  0  0  0  0  0  0  0  0  0  0
    1.2639    1.5890   -1.0033 H   0  0  0  0  0  0  0  0  0  0  0  0
    2.1536    1.0351    0.4243 H   0  0  0  0  0  0  0  0  0  0  0  0
    1.2939    2.5781    0.4643 H   0  0  0  0  0  0  0  0  0  0  0  0
   -1.3131    2.5781    0.4643 H   0  0  0  0  0  0  0  0  0  0  0  0
   -2.1728    1.0351    0.4243 H   0  0  0  0  0  0  0  0  0  0  0  0
   -1.2830    1.5890   -1.0033 H   0  0  0  0  0  0  0  0  0  0  0  0
   -0.0096   -1.5905   -0.3722 C   0  0  0  0  0  0  0  0  0  0  0  0
   -0.0096   -1.5905   -2.1828 S   0  0  0  0  0  0  0  0  0  0  0  0
   -0.0096   -0.3747    0.1036 H   0  0  0  0  0  0  0  0  0  0  0  0
   -0.9303   -2.0846   -0.0662 H   0  0  0  0  0  0  0  0  0  0  0  0
    0.8348   -2.1505    0.0243 H   0  0  0  0  0  0  0  0  0  0  0  0
    1.1607   -0.9624   -2.3492 H   0  0  0  0  0  0  0  0  0  0  0  0
  1  2  3  0
  1  6  1  0
  2  3  1  0
  3  4  1  0
  3  5  1  0
  4  7  1  0
  4  8  1  0
  4  9  1  0
  5 10  1  0
  5 11  1  0
  5 12  1  0
 13 14  1  0
 13 15  1  0
 13 16  1  0
 13 17  1  0
 14 18  1  0
M  RAD  1   3   2
M  END
>  <reaction>  (9) 
rxn_1821

>  <mol_properties>  (9) 
{"1": {"label": "*0", "atom_type": "Ct"}, "2": {"label": "*1", "atom_type": "Cs"}, "12": {"label": "*3", "atom_type": "Cs"}, "13": {"label": "*4", "atom_type": "S2s"}, "14": {"label": "*2", "atom_type": "H0"}}

>  <type>  (9) 
unop_5

>  <geom_source>  (9) 
Heuristics

$$$$

     RDKit          3D

 18 16  0  0  0  0  0  0  0  0999 V2000
    2.2729    1.5779    1.0192 C   0  0  0  0  0  0  0  0  0  0  0  0
    1.1328    1.2397    0.8737 C   0  0  0  0  0  0  0  0  0  0  0  0
   -0.2661    0.8376    0.7164 C   0  0  0  0  0  3  0  0  0  0  0  0
   -1.1738    2.0638    0.5796 C   0  0  0  0  0  0  0  0  0  0  0  0
   -0.7085   -0.0620    1.8745 C   0  0  0  0  0  0  0  0  0  0  0  0
    3.2848    1.8780    1.1483 H   0  0  0  0  0  0  0  0  0  0  0  0
   -2.2066    1.7489    0.4195 H   0  0  0  0  0  0  0  0  0  0  0  0
   -0.8675    2.6883   -0.2595 H   0  0  0  0  0  0  0  0  0  0  0  0
   -1.1355    2.6693    1.4868 H   0  0  0  0  0  0  0  0  0  0  0  0
   -0.6564    0.4808    2.8199 H   0  0  0  0  0  0  0  0  0  0  0  0
   -0.0724   -0.9436    1.9528 H   0  0  0  0  0  0  0  0  0  0  0  0
   -1.7385   -0.3891    1.7219 H   0  0  0  0  0  0  0  0  0  0  0  0
   -0.2661   -1.6015   -0.2381 C   0  0  0  0  0  0  0  0  0  0  0  0
   -0.2661   -1.6015   -2.0487 S   0  0  0  0  0  0  0  0  0  0  0  0
   -0.2661   -0.3856    0.2377 H   0  0  0  0  0  0  0  0  0  0  0  0
   -1.1867   -2.0956    0.0679 H   0  0  0  0  0  0  0  0  0  0  0  0
    0.5783   -2.1615    0.1584 H   0  0  0  0  0  0  0  0  0  0  0  0
    0.9042   -0.9733   -2.2151 H   0  0  0  0  0  0  0  0  0  0  0  0
  1  2  3  0
  1  6  1  0
  2  3  1  0
  3  4  1  0
  3  5  1  0
  4  7  1  0
  4  8  1  0
  4  9  1  0
  5 10  1  0
  5 11  1  0
  5 12  1  0
 13 14  1  0
 13 15  1  0
 13 16  1  0
 13 17  1  0
 14 18  1  0
M  RAD  1   3   2
M  END
>  <reaction>  (10) 
rxn_1821

>  <mol_properties>  (10) 
{"1": {"label": "*0", "atom_type": "Ct"}, "2": {"label": "*1", "atom_type": "Cs"}, "12": {"label": "*3", "atom_type": "Cs"}, "13": {"label": "*4", "atom_type": "S2s"}, "14": {"label": "*2", "atom_type": "H0"}}

>  <type>  (10) 
unop_6

>  <geom_source>  (10) 
Heuristics

$$$$

     RDKit          3D

 18 16  0  0  0  0  0  0  0  0999 V2000
    2.0185    1.1557    2.0957 C   0  0  0  0  0  0  0  0  0  0  0  0
    1.0372    1.0245    1.4210 C   0  0  0  0  0  0  0  0  0  0  0  0
   -0.1743    0.8773    0.6123 C   0  0  0  0  0  3  0  0  0  0  0  0
   -0.6659    2.2396    0.1136 C   0  0  0  0  0  0  0  0  0  0  0  0
   -1.2650    0.1384    1.3935 C   0  0  0  0  0  0  0  0  0  0  0  0
    2.8894    1.2721    2.6945 H   0  0  0  0  0  0  0  0  0  0  0  0
   -1.5432    2.1108   -0.5228 H   0  0  0  0  0  0  0  0  0  0  0  0
    0.1070    2.7507   -0.4602 H   0  0  0  0  0  0  0  0  0  0  0  0
   -0.9424    2.8764    0.9557 H   0  0  0  0  0  0  0  0  0  0  0  0
   -1.5592    0.7132    2.2734 H   0  0  0  0  0  0  0  0  0  0  0  0
   -0.9166   -0.8392    1.7266 H   0  0  0  0  0  0  0  0  0  0  0  0
   -2.1458   -0.0025    0.7645 H   0  0  0  0  0  0  0  0  0  0  0  0
   -0.1743   -1.5618   -0.3422 C   0  0  0  0  0  0  0  0  0  0  0  0
   -0.1743   -1.5618   -2.1528 S   0  0  0  0  0  0  0  0  0  0  0  0
   -0.1743   -0.3460    0.1336 H   0  0  0  0  0  0  0  0  0  0  0  0
   -1.0949   -2.0559   -0.0363 H   0  0  0  0  0  0  0  0  0  0  0  0
    0.6701   -2.1218    0.0543 H   0  0  0  0  0  0  0  0  0  0  0  0
    0.9960   -0.9337   -2.3192 H   0  0  0  0  0  0  0  0  0  0  0  0
  1  2  3  0
  1  6  1  0
  2  3  1  0
  3  4  1  0
  3  5  1  0
  4  7  1  0
  4  8  1  0
  4  9  1  0
  5 10  1  0
  5 11  1  0
  5 12  1  0
 13 14  1  0
 13 15  1  0
 13 16  1  0
 13 17  1  0
 14 18  1  0
M  RAD  1   3   2
M  END
>  <reaction>  (11) 
rxn_1821

>  <mol_properties>  (11) 
{"1": {"label": "*0", "atom_type": "Ct"}, "2": {"label": "*1", "atom_type": "Cs"}, "12": {"label": "*3", "atom_type": "Cs"}, "13": {"label": "*4", "atom_type": "S2s"}, "14": {"label": "*2", "atom_type": "H0"}}

>  <type>  (11) 
unop_7

>  <geom_source>  (11) 
Heuristics

$$$$

     RDKit          3D

 18 16  0  0  0  0  0  0  0  0999 V2000
   -2.2921    1.5779    1.0192 C   0  0  0  0  0  0  0  0  0  0  0  0
   -1.1520    1.2397    0.8737 C   0  0  0  0  0  0  0  0  0  0  0  0
    0.2469    0.8376    0.7164 C   0  0  0  0  0  3  0  0  0  0  0  0
    0.6893   -0.0620    1.8745 C   0  0  0  0  0  0  0  0  0  0  0  0
    1.1547    2.0638    0.5796 C   0  0  0  0  0  0  0  0  0  0  0  0
   -3.3040    1.8780    1.1483 H   0  0  0  0  0  0  0  0  0  0  0  0
    1.7193   -0.3891    1.7219 H   0  0  0  0  0  0  0  0  0  0  0  0
    0.0533   -0.9436    1.9528 H   0  0  0  0  0  0  0  0  0  0  0  0
    0.6373    0.4808    2.8199 H   0  0  0  0  0  0  0  0  0  0  0  0
    1.1163    2.6693    1.4868 H   0  0  0  0  0  0  0  0  0  0  0  0
    0.8483    2.6883   -0.2595 H   0  0  0  0  0  0  0  0  0  0  0  0
    2.1874    1.7489    0.4195 H   0  0  0  0  0  0  0  0  0  0  0  0
    0.2469   -1.6015   -0.2381 C   0  0  0  0  0  0  0  0  0  0  0  0
    0.2469   -1.6015   -2.0487 S   0  0  0  0  0  0  0  0  0  0  0  0
    0.2469   -0.3856    0.2377 H   0  0  0  0  0  0  0  0  0  0  0  0
   -0.6738   -2.0956    0.0679 H   0  0  0  0  0  0  0  0  0  0  0  0
    1.0913   -2.1615    0.1584 H   0  0  0  0  0  0  0  0  0  0  0  0
    1.4172   -0.9733   -2.2151 H   0  0  0  0  0  0  0  0  0  0  0  0
  1  2  3  0
  1  6  1  0
  2  3  1  0
  3  4  1  0
  3  5  1  0
  4  7  1  0
  4  8  1  0
  4  9  1  0
  5 10  1  0
  5 11  1  0
  5 12  1  0
 13 14  1  0
 13 15  1  0
 13 16  1  0
 13 17  1  0
 14 18  1  0
M  RAD  1   3   2
M  END
>  <reaction>  (12) 
rxn_1821

>  <mol_properties>  (12) 
{"1": {"label": "*0", "atom_type": "Ct"}, "2": {"label": "*1", "atom_type": "Cs"}, "12": {"label": "*3", "atom_type": "Cs"}, "13": {"label": "*4", "atom_type": "S2s"}, "14": {"label": "*2", "atom_type": "H0"}}

>  <type>  (12) 
unop_8

>  <geom_source>  (12) 
Heuristics

$$$$

     RDKit          3D

 18 16  0  0  0  0  0  0  0  0999 V2000
    1.0906    2.2479   -0.7658 C   0  0  0  0  0  0  0  0  0  0  0  0
    0.5157    1.5440    0.0148 C   0  0  0  0  0  0  0  0  0  0  0  0
   -0.1838    0.7004    0.9856 C   0  0  0  0  0  3  0  0  0  0  0  0
   -1.4557    1.3889    1.4899 C   0  0  0  0  0  0  0  0  0  0  0  0
    0.7435    0.3169    2.1429 C   0  0  0  0  0  0  0  0  0  0  0  0
    1.6008    2.8727   -1.4586 H   0  0  0  0  0  0  0  0  0  0  0  0
   -1.9891    0.7317    2.1789 H   0  0  0  0  0  0  0  0  0  0  0  0
   -2.1213    1.6394    0.6639 H   0  0  0  0  0  0  0  0  0  0  0  0
   -1.2061    2.3109    2.0178 H   0  0  0  0  0  0  0  0  0  0  0  0
    1.0581    1.2073    2.6901 H   0  0  0  0  0  0  0  0  0  0  0  0
    1.6361   -0.1921    1.7796 H   0  0  0  0  0  0  0  0  0  0  0  0
    0.2229   -0.3465    2.8357 H   0  0  0  0  0  0  0  0  0  0  0  0
   -0.1838   -1.7387    0.0312 C   0  0  0  0  0  0  0  0  0  0  0  0
   -0.1838   -1.7387   -1.7795 S   0  0  0  0  0  0  0  0  0  0  0  0
   -0.1838   -0.5228    0.5069 H   0  0  0  0  0  0  0  0  0  0  0  0
   -1.1044   -2.2328    0.3371 H   0  0  0  0  0  0  0  0  0  0  0  0
    0.6606   -2.2987    0.4276 H   0  0  0  0  0  0  0  0  0  0  0  0
    0.9865   -1.1105   -1.9459 H   0  0  0  0  0  0  0  0  0  0  0  0
  1  2  3  0
  1  6  1  0
  2  3  1  0
  3  4  1  0
  3  5  1  0
  4  7  1  0
  4  8  1  0
  4  9  1  0
  5 10  1  0
  5 11  1  0
  5 12  1  0
 13 14  1  0
 13 15  1  0
 13 16  1  0
 13 17  1  0
 14 18  1  0
M  RAD  1   3   2
M  END
>  <reaction>  (13) 
rxn_1821

>  <mol_properties>  (13) 
{"1": {"label": "*0", "atom_type": "Ct"}, "2": {"label": "*1", "atom_type": "Cs"}, "12": {"label": "*3", "atom_type": "Cs"}, "13": {"label": "*4", "atom_type": "S2s"}, "14": {"label": "*2", "atom_type": "H0"}}

>  <type>  (13) 
unop_9

>  <geom_source>  (13) 
Heuristics

$$$$

     RDKit          3D

 18 16  0  0  0  0  0  0  0  0999 V2000
   -1.9456    1.9741   -0.0231 C   0  0  0  0  0  0  0  0  0  0  0  0
   -0.9534    1.4258    0.3647 C   0  0  0  0  0  0  0  0  0  0  0  0
    0.2580    0.7688    0.8587 C   0  0  0  0  0  3  0  0  0  0  0  0
   -0.0295   -0.0077    2.1473 C   0  0  0  0  0  0  0  0  0  0  0  0
    1.3876    1.7845    1.0555 C   0  0  0  0  0  0  0  0  0  0  0  0
   -2.8262    2.4607   -0.3673 H   0  0  0  0  0  0  0  0  0  0  0  0
    0.8708   -0.5273    2.4800 H   0  0  0  0  0  0  0  0  0  0  0  0
   -0.8187   -0.7439    1.9950 H   0  0  0  0  0  0  0  0  0  0  0  0
   -0.3466    0.6727    2.9394 H   0  0  0  0  0  0  0  0  0  0  0  0
    1.1123    2.5179    1.8155 H   0  0  0  0  0  0  0  0  0  0  0  0
    1.6024    2.3181    0.1298 H   0  0  0  0  0  0  0  0  0  0  0  0
    2.2961    1.2753    1.3819 H   0  0  0  0  0  0  0  0  0  0  0  0
    0.2580   -1.6702   -0.0958 C   0  0  0  0  0  0  0  0  0  0  0  0
    0.2580   -1.6702   -1.9064 S   0  0  0  0  0  0  0  0  0  0  0  0
    0.2580   -0.4544    0.3800 H   0  0  0  0  0  0  0  0  0  0  0  0
   -0.6626   -2.1644    0.2102 H   0  0  0  0  0  0  0  0  0  0  0  0
    1.1024   -2.2302    0.3007 H   0  0  0  0  0  0  0  0  0  0  0  0
    1.4284   -1.0421   -2.0728 H   0  0  0  0  0  0  0  0  0  0  0  0
  1  2  3  0
  1  6  1  0
  2  3  1  0
  3  4  1  0
  3  5  1  0
  4  7  1  0
  4  8  1  0
  4  9  1  0
  5 10  1  0
  5 11  1  0
  5 12  1  0
 13 14  1  0
 13 15  1  0
 13 16  1  0
 13 17  1  0
 14 18  1  0
M  RAD  1   3   2
M  END
>  <reaction>  (14) 
rxn_1821

>  <mol_properties>  (14) 
{"1": {"label": "*0", "atom_type": "Ct"}, "2": {"label": "*1", "atom_type": "Cs"}, "12": {"label": "*3", "atom_type": "Cs"}, "13": {"label": "*4", "atom_type": "S2s"}, "14": {"label": "*2", "atom_type": "H0"}}

>  <type>  (14) 
unop_10

>  <geom_source>  (14) 
Heuristics

$$$$

     RDKit          3D

 18 16  0  0  0  0  0  0  0  0999 V2000
    1.1987    0.8151    2.9197 C   0  0  0  0  0  0  0  0  0  0  0  0
    0.6366    0.8317    1.8618 C   0  0  0  0  0  0  0  0  0  0  0  0
   -0.0628    0.8711    0.5763 C   0  0  0  0  0  3  0  0  0  0  0  0
    0.2271    2.1812   -0.1624 C   0  0  0  0  0  0  0  0  0  0  0  0
   -1.5672    0.6552    0.7672 C   0  0  0  0  0  0  0  0  0  0  0  0
    1.6977    0.8003    3.8586 H   0  0  0  0  0  0  0  0  0  0  0  0
   -0.2649    2.1784   -1.1366 H   0  0  0  0  0  0  0  0  0  0  0  0
    1.2976    2.3183   -0.3146 H   0  0  0  0  0  0  0  0  0  0  0  0
   -0.1474    3.0319    0.4096 H   0  0  0  0  0  0  0  0  0  0  0  0
   -1.9946    1.4610    1.3665 H   0  0  0  0  0  0  0  0  0  0  0  0
   -1.7680   -0.2888    1.2735 H   0  0  0  0  0  0  0  0  0  0  0  0
   -2.0696    0.6436   -0.2017 H   0  0  0  0  0  0  0  0  0  0  0  0
   -0.0628   -1.5680   -0.3782 C   0  0  0  0  0  0  0  0  0  0  0  0
   -0.0628   -1.5680   -2.1888 S   0  0  0  0  0  0  0  0  0  0  0  0
   -0.0628   -0.3522    0.0976 H   0  0  0  0  0  0  0  0  0  0  0  0
   -0.9835   -2.0622   -0.0722 H   0  0  0  0  0  0  0  0  0  0  0  0
    0.7815   -2.1280    0.0183 H   0  0  0  0  0  0  0  0  0  0  0  0
    1.1075   -0.9399   -2.3552 H   0  0  0  0  0  0  0  0  0  0  0  0
  1  2  3  0
  1  6  1  0
  2  3  1  0
  3  4  1  0
  3  5  1  0
  4  7  1  0
  4  8  1  0
  4  9  1  0
  5 10  1  0
  5 11  1  0
  5 12  1  0
 13 14  1  0
 13 15  1  0
 13 16  1  0
 13 17  1  0
 14 18  1  0
M  RAD  1   3   2
M  END
>  <reaction>  (15) 
rxn_1821

>  <mol_properties>  (15) 
{"1": {"label": "*0", "atom_type": "Ct"}, "2": {"label": "*1", "atom_type": "Cs"}, "12": {"label": "*3", "atom_type": "Cs"}, "13": {"label": "*4", "atom_type": "S2s"}, "14": {"label": "*2", "atom_type": "H0"}}

>  <type>  (15) 
unop_11

>  <geom_source>  (15) 
Heuristics

$$$$

     RDKit          3D

 18 16  0  0  0  0  0  0  0  0999 V2000
   -0.0096    2.3437   -1.0325 C   0  0  0  0  0  0  0  0  0  0  0  0
   -0.0096    1.5822   -0.1076 C   0  0  0  0  0  0  0  0  0  0  0  0
   -0.0096    0.6704    1.0378 C   0  0  0  0  0  3  0  0  0  0  0  0
   -1.2757    0.8530    1.8803 C   0  0  0  0  0  0  0  0  0  0  0  0
    1.2565    0.8530    1.8803 C   0  0  0  0  0  0  0  0  0  0  0  0
   -0.0096    3.0195   -1.8535 H   0  0  0  0  0  0  0  0  0  0  0  0
   -1.2830    0.1379    2.7048 H   0  0  0  0  0  0  0  0  0  0  0  0
   -2.1727    0.7001    1.2804 H   0  0  0  0  0  0  0  0  0  0  0  0
   -1.3131    1.8604    2.2983 H   0  0  0  0  0  0  0  0  0  0  0  0
    1.2939    1.8604    2.2983 H   0  0  0  0  0  0  0  0  0  0  0  0
    2.1536    0.7001    1.2804 H   0  0  0  0  0  0  0  0  0  0  0  0
    1.2639    0.1379    2.7048 H   0  0  0  0  0  0  0  0  0  0  0  0
   -0.0096   -1.7687    0.0833 C   0  0  0  0  0  0  0  0  0  0  0  0
   -0.0096   -1.7687   -1.7273 S   0  0  0  0  0  0  0  0  0  0  0  0
   -0.0096   -0.5529    0.5591 H   0  0  0  0  0  0  0  0  0  0  0  0
   -0.9303   -2.2629    0.3893 H   0  0  0  0  0  0  0  0  0  0  0  0
    0.8348   -2.3287    0.4798 H   0  0  0  0  0  0  0  0  0  0  0  0
    1.1607   -1.1406   -1.8937 H   0  0  0  0  0  0  0  0  0  0  0  0
  1  2  3  0
  1  6  1  0
  2  3  1  0
  3  4  1  0
  3  5  1  0
  4  7  1  0
  4  8  1  0
  4  9  1  0
  5 10  1  0
  5 11  1  0
  5 12  1  0
 13 14  1  0
 13 15  1  0
 13 16  1  0
 13 17  1  0
 14 18  1  0
M  RAD  1   3   2
M  END
>  <reaction>  (16) 
rxn_1821

>  <mol_properties>  (16) 
{"1": {"label": "*0", "atom_type": "Ct"}, "2": {"label": "*1", "atom_type": "Cs"}, "12": {"label": "*3", "atom_type": "Cs"}, "13": {"label": "*4", "atom_type": "S2s"}, "14": {"label": "*2", "atom_type": "H0"}}

>  <type>  (16) 
unop_12

>  <geom_source>  (16) 
Heuristics

$$$$

     RDKit          3D

 18 16  0  0  0  0  0  0  0  0999 V2000
    3.4065    0.4624    0.6782 S   0  0  0  0  0  0  0  0  0  0  0  0
   -0.5304    0.0666   -0.0980 C   0  0  0  0  0  3  0  0  0  0  0  0
   -1.0156   -1.1400   -0.9023 C   0  0  0  0  0  0  0  0  0  0  0  0
   -1.1681    0.0923    1.2915 C   0  0  0  0  0  0  0  0  0  0  0  0
    1.9035   -0.5481    0.5718 C   0  0  0  0  0  0  0  0  0  0  0  0
   -0.8395    1.3110   -0.8185 C   0  0  0  0  0  0  0  0  0  0  0  0
   -1.0917    2.3315   -1.4092 C   0  0  0  0  0  0  0  0  0  0  0  0
    0.8191   -0.0226    0.0459 H   0  0  0  0  0  0  0  0  0  0  0  0
   -0.5231   -1.1564   -1.8981 H   0  0  0  0  0  0  0  0  0  0  0  0
   -2.1176   -1.1032   -1.0447 H   0  0  0  0  0  0  0  0  0  0  0  0
   -0.7523   -2.0796   -0.3719 H   0  0  0  0  0  0  0  0  0  0  0  0
   -0.9064   -0.8340    1.8457 H   0  0  0  0  0  0  0  0  0  0  0  0
   -0.7850    0.9601    1.8700 H   0  0  0  0  0  0  0  0  0  0  0  0
   -2.2749    0.1674    1.2175 H   0  0  0  0  0  0  0  0  0  0  0  0
    1.5148   -0.7402    1.5929 H   0  0  0  0  0  0  0  0  0  0  0  0
    2.1387   -1.5142    0.0793 H   0  0  0  0  0  0  0  0  0  0  0  0
    3.5354    0.5201   -0.7222 H   0  0  0  0  0  0  0  0  0  0  0  0
   -1.3133    3.2270   -1.9277 H   0  0  0  0  0  0  0  0  0  0  0  0
  1  5  1  0
  1 17  1  0
  2  3  1  0
  2  4  1  0
  2  6  1  0
  3  9  1  0
  3 10  1  0
  3 11  1  0
  4 12  1  0
  4 13  1  0
  4 14  1  0
  5  8  1  0
  5 15  1  0
  5 16  1  0
  6  7  3  0
  7 18  1  0
M  RAD  1   2   2
M  END
>  <reaction>  (17) 
rxn_1821

>  <mol_properties>  (17) 
{"1": {"label": "*0", "atom_type": "Ct"}, "2": {"label": "*1", "atom_type": "Cs"}, "12": {"label": "*3", "atom_type": "Cs"}, "13": {"label": "*4", "atom_type": "S2s"}, "14": {"label": "*2", "atom_type": "H0"}}

>  <type>  (17) 
unop_13

>  <geom_source>  (17) 
AutoTST

$$$$
