
     RDKit          3D

  7  6  0  0  0  0  0  0  0  0999 V2000
    1.6219    0.7652   -0.5471 O   0  0  0  0  0  0  0  0  0  0  0  0
    0.9106   -0.0935   -0.1371 C   0  0  0  0  0  0  0  0  0  0  0  0
   -0.6028    0.1107    0.0882 C   0  0  0  0  0  0  0  0  0  0  0  0
   -1.2787   -0.7730   -0.6547 F   0  0  0  0  0  0  0  0  0  0  0  0
   -0.8896   -0.1272    1.3730 F   0  0  0  0  0  0  0  0  0  0  0  0
   -1.0037    1.3281   -0.2226 F   0  0  0  0  0  0  0  0  0  0  0  0
    1.2559   -1.1113    0.1207 H   0  0  0  0  0  0  0  0  0  0  0  0
  1  2  2  0
  2  3  1  0
  2  7  1  0
  3  4  1  0
  3  5  1  0
  3  6  1  0
M  END
>  <reaction>  (1) 
rxn_3247

>  <mol_properties>  (1) 
{"1": {"label": "donator", "atom_type": "CO"}, "6": {"label": "d_hydrogen", "atom_type": "H0"}}

>  <type>  (1) 
r1h

$$$$

     RDKit          3D

  7  6  0  0  0  0  0  0  0  0999 V2000
   -1.3059    0.5497   -0.1304 N   0  0  0  0  0  2  0  0  0  0  0  0
   -0.2700   -0.4288    0.0448 C   0  0  0  0  0  0  0  0  0  0  0  0
    1.1109    0.0669    0.0401 C   0  0  0  0  0  0  0  0  0  0  0  0
    2.1758    0.4925    0.0308 N   0  0  0  0  0  0  0  0  0  0  0  0
   -0.8815    1.4733   -0.2339 H   0  0  0  0  0  0  0  0  0  0  0  0
   -0.3767   -1.1909   -0.7373 H   0  0  0  0  0  0  0  0  0  0  0  0
   -0.4527   -0.9628    0.9858 H   0  0  0  0  0  0  0  0  0  0  0  0
  1  2  1  0
  1  5  1  0
  2  3  1  0
  2  6  1  0
  2  7  1  0
  3  4  3  0
M  RAD  1   1   2
M  END
>  <reaction>  (2) 
rxn_3247

>  <mol_properties>  (2) 
{"0": {"label": "acceptor", "atom_type": "N3s"}}

>  <type>  (2) 
r2

$$$$

     RDKit          3D

  8  7  0  0  0  0  0  0  0  0999 V2000
   -1.0805    0.5317    0.0204 N   0  0  0  0  0  0  0  0  0  0  0  0
   -0.1080   -0.5393    0.0956 C   0  0  0  0  0  0  0  0  0  0  0  0
    1.2945   -0.1247   -0.1005 C   0  0  0  0  0  0  0  0  0  0  0  0
    2.3714    0.2386   -0.2580 N   0  0  0  0  0  0  0  0  0  0  0  0
   -1.0516    0.9857   -0.8822 H   0  0  0  0  0  0  0  0  0  0  0  0
   -0.9009    1.2352    0.7235 H   0  0  0  0  0  0  0  0  0  0  0  0
   -0.3427   -1.2965   -0.6542 H   0  0  0  0  0  0  0  0  0  0  0  0
   -0.1810   -1.0288    1.0680 H   0  0  0  0  0  0  0  0  0  0  0  0
  1  2  1  0
  1  5  1  0
  1  6  1  0
  2  3  1  0
  2  7  1  0
  2  8  1  0
  3  4  3  0
M  END
>  <reaction>  (3) 
rxn_3247

>  <mol_properties>  (3) 
{"0": {"label": "acceptor", "atom_type": "N3s"}, "7": {"label": "a_hydrogen", "atom_type": "H0"}}

>  <type>  (3) 
r2h

$$$$

     RDKit          3D

 14 12  0  0  0  0  0  0  0  0999 V2000
   -0.8331   -1.9505    0.7794 N   0  0  0  0  0  2  0  0  0  0  0  0
    0.4189   -1.9306    1.5128 C   0  0  0  0  0  0  0  0  0  0  0  0
    1.6271   -2.0588    0.6873 C   0  0  0  0  0  0  0  0  0  0  0  0
    2.5408   -2.1594    0.0012 N   0  0  0  0  0  0  0  0  0  0  0  0
   -0.7808   -2.6827    0.0691 H   0  0  0  0  0  0  0  0  0  0  0  0
    0.4085   -2.7585    2.2310 H   0  0  0  0  0  0  0  0  0  0  0  0
    0.4873   -1.0106    2.0954 H   0  0  0  0  0  0  0  0  0  0  0  0
   -0.9187   -0.1188   -2.0575 O   0  0  0  0  0  0  0  0  0  0  0  0
   -0.7162    0.0496   -0.9104 C   0  0  0  0  0  0  0  0  0  0  0  0
   -0.2750    1.4076   -0.2962 C   0  0  0  0  0  0  0  0  0  0  0  0
   -1.2261    1.8249    0.5393 F   0  0  0  0  0  0  0  0  0  0  0  0
    0.8454    1.2193    0.4041 F   0  0  0  0  0  0  0  0  0  0  0  0
   -0.0620    2.3360   -1.2086 F   0  0  0  0  0  0  0  0  0  0  0  0
   -0.8517   -0.8613   -0.0286 H   0  0  0  0  0  0  0  0  0  0  0  0
  1  2  1  0
  1  5  1  0
  2  3  1  0
  2  6  1  0
  2  7  1  0
  3  4  3  0
  8  9  2  0
  9 10  1  0
  9 14  1  0
 10 11  1  0
 10 12  1  0
 10 13  1  0
M  RAD  1   1   2
M  END
>  <reaction>  (4) 
rxn_3247

>  <mol_properties>  (4) 
{"0": {"label": "*3", "atom_type": "N3s"}, "1": {"label": "*4", "atom_type": "Cs"}, "8": {"label": "*1", "atom_type": "CO"}, "9": {"label": "*0", "atom_type": "Cs"}, "13": {"label": "*2", "atom_type": "H0"}}

>  <type>  (4) 
ts

$$$$

     RDKit          3D

 14 12  0  0  0  0  0  0  0  0999 V2000
   -0.5601   -1.8302    0.4348 N   0  0  0  0  0  0  0  0  0  0  0  0
    0.6107   -1.8837    1.2862 C   0  0  0  0  0  0  0  0  0  0  0  0
    1.6813   -2.7860    0.8202 C   0  0  0  0  0  0  0  0  0  0  0  0
    2.4892   -3.4977    0.4235 N   0  0  0  0  0  0  0  0  0  0  0  0
   -0.9875   -2.7419    0.3475 H   0  0  0  0  0  0  0  0  0  0  0  0
    0.3171   -2.2000    2.2883 H   0  0  0  0  0  0  0  0  0  0  0  0
    1.0340   -0.8830    1.3853 H   0  0  0  0  0  0  0  0  0  0  0  0
   -0.5601    0.2751   -2.1728 O   0  0  0  0  0  0  0  0  0  0  0  0
   -0.5601    0.2751   -0.9847 C   0  0  0  0  0  3  0  0  0  0  0  0
   -0.5601    1.5726   -0.1485 C   0  0  0  0  0  0  0  0  0  0  0  0
   -1.6417    1.5856    0.6386 F   0  0  0  0  0  0  0  0  0  0  0  0
    0.5216    1.5856    0.6386 F   0  0  0  0  0  0  0  0  0  0  0  0
   -0.5601    2.6595   -0.8957 F   0  0  0  0  0  0  0  0  0  0  0  0
   -0.5601   -0.8246   -0.2432 H   0  0  0  0  0  0  0  0  0  0  0  0
  1  2  1  0
  1  5  1  0
  1 14  1  0
  2  3  1  0
  2  6  1  0
  2  7  1  0
  3  4  3  0
  8  9  2  0
  9 10  1  0
 10 11  1  0
 10 12  1  0
 10 13  1  0
M  RAD  1   9   2
M  END
>  <reaction>  (5) 
rxn_3247

>  <mol_properties>  (5) 
{"0": {"label": "*3", "atom_type": "N3s"}, "1": {"label": "*4", "atom_type": "Cs"}, "8": {"label": "*1", "atom_type": "CO"}, "9": {"label": "*0", "atom_type": "Cs"}, "13": {"label": "*2", "atom_type": "H0"}}

>  <type>  (5) 
unop_1

>  <geom_source>  (5) 
Heuristics

$$$$

     RDKit          3D

 14 12  0  0  0  0  0  0  0  0999 V2000
    0.0163   -1.6135    0.9706 N   0  0  0  0  0  0  0  0  0  0  0  0
    0.6923   -2.6995    0.2908 C   0  0  0  0  0  0  0  0  0  0  0  0
   -0.1068   -3.3818   -0.7452 C   0  0  0  0  0  0  0  0  0  0  0  0
   -0.7611   -3.8853   -1.5420 N   0  0  0  0  0  0  0  0  0  0  0  0
   -0.8178   -1.9410    1.4381 H   0  0  0  0  0  0  0  0  0  0  0  0
    1.0042   -3.4474    1.0214 H   0  0  0  0  0  0  0  0  0  0  0  0
    1.6020   -2.3234   -0.1798 H   0  0  0  0  0  0  0  0  0  0  0  0
    0.0163    0.4918   -1.6370 O   0  0  0  0  0  0  0  0  0  0  0  0
    0.0163    0.4918   -0.4489 C   0  0  0  0  0  3  0  0  0  0  0  0
    0.0163    1.7893    0.3873 C   0  0  0  0  0  0  0  0  0  0  0  0
   -1.0653    1.8023    1.1744 F   0  0  0  0  0  0  0  0  0  0  0  0
    1.0980    1.8023    1.1744 F   0  0  0  0  0  0  0  0  0  0  0  0
    0.0163    2.8761   -0.3599 F   0  0  0  0  0  0  0  0  0  0  0  0
    0.0163   -0.6079    0.2925 H   0  0  0  0  0  0  0  0  0  0  0  0
  1  2  1  0
  1  5  1  0
  1 14  1  0
  2  3  1  0
  2  6  1  0
  2  7  1  0
  3  4  3  0
  8  9  2  0
  9 10  1  0
 10 11  1  0
 10 12  1  0
 10 13  1  0
M  RAD  1   9   2
M  END
>  <reaction>  (6) 
rxn_3247

>  <mol_properties>  (6) 
{"0": {"label": "*3", "atom_type": "N3s"}, "1": {"label": "*4", "atom_type": "Cs"}, "8": {"label": "*1", "atom_type": "CO"}, "9": {"label": "*0", "atom_type": "Cs"}, "13": {"label": "*2", "atom_type": "H0"}}

>  <type>  (6) 
unop_2

>  <geom_source>  (6) 
Heuristics

$$$$

     RDKit          3D

 14 12  0  0  0  0  0  0  0  0999 V2000
   -0.5211   -2.0445    0.2179 N   0  0  0  0  0  0  0  0  0  0  0  0
    0.1548   -1.8214    1.4796 C   0  0  0  0  0  0  0  0  0  0  0  0
    1.5986   -2.1262    1.4773 C   0  0  0  0  0  0  0  0  0  0  0  0
    2.7180   -2.3746    1.4337 N   0  0  0  0  0  0  0  0  0  0  0  0
   -0.4445   -3.0105   -0.0692 H   0  0  0  0  0  0  0  0  0  0  0  0
   -0.3153   -2.4271    2.2558 H   0  0  0  0  0  0  0  0  0  0  0  0
    0.0318   -0.7792    1.7784 H   0  0  0  0  0  0  0  0  0  0  0  0
   -0.5211    0.0608   -2.3897 O   0  0  0  0  0  0  0  0  0  0  0  0
   -0.5211    0.0608   -1.2016 C   0  0  0  0  0  3  0  0  0  0  0  0
   -0.5211    1.3583   -0.3654 C   0  0  0  0  0  0  0  0  0  0  0  0
   -1.6028    1.3713    0.4217 F   0  0  0  0  0  0  0  0  0  0  0  0
    0.5605    1.3713    0.4217 F   0  0  0  0  0  0  0  0  0  0  0  0
   -0.5211    2.4452   -1.1126 F   0  0  0  0  0  0  0  0  0  0  0  0
   -0.5211   -1.0389   -0.4602 H   0  0  0  0  0  0  0  0  0  0  0  0
  1  2  1  0
  1  5  1  0
  1 14  1  0
  2  3  1  0
  2  6  1  0
  2  7  1  0
  3  4  3  0
  8  9  2  0
  9 10  1  0
 10 11  1  0
 10 12  1  0
 10 13  1  0
M  RAD  1   9   2
M  END
>  <reaction>  (7) 
rxn_3247

>  <mol_properties>  (7) 
{"0": {"label": "*3", "atom_type": "N3s"}, "1": {"label": "*4", "atom_type": "Cs"}, "8": {"label": "*1", "atom_type": "CO"}, "9": {"label": "*0", "atom_type": "Cs"}, "13": {"label": "*2", "atom_type": "H0"}}

>  <type>  (7) 
unop_3

>  <geom_source>  (7) 
Heuristics

$$$$

     RDKit          3D

 14 12  0  0  0  0  0  0  0  0999 V2000
    0.5889   -2.0316    0.7316 N   0  0  0  0  0  0  0  0  0  0  0  0
   -0.5819   -2.8409    0.4621 C   0  0  0  0  0  0  0  0  0  0  0  0
   -1.7569   -2.0958   -0.0292 C   0  0  0  0  0  0  0  0  0  0  0  0
   -2.6474   -1.4797   -0.4088 N   0  0  0  0  0  0  0  0  0  0  0  0
    0.3930   -1.3325    1.4348 H   0  0  0  0  0  0  0  0  0  0  0  0
   -0.8749   -3.3698    1.3703 H   0  0  0  0  0  0  0  0  0  0  0  0
   -0.3340   -3.6035   -0.2779 H   0  0  0  0  0  0  0  0  0  0  0  0
    0.5889    0.0737   -1.8760 O   0  0  0  0  0  0  0  0  0  0  0  0
    0.5889    0.0737   -0.6879 C   0  0  0  0  0  3  0  0  0  0  0  0
    0.5889    1.3712    0.1484 C   0  0  0  0  0  0  0  0  0  0  0  0
   -0.4927    1.3842    0.9354 F   0  0  0  0  0  0  0  0  0  0  0  0
    1.6706    1.3842    0.9354 F   0  0  0  0  0  0  0  0  0  0  0  0
    0.5889    2.4581   -0.5989 F   0  0  0  0  0  0  0  0  0  0  0  0
    0.5889   -1.0260    0.0536 H   0  0  0  0  0  0  0  0  0  0  0  0
  1  2  1  0
  1  5  1  0
  1 14  1  0
  2  3  1  0
  2  6  1  0
  2  7  1  0
  3  4  3  0
  8  9  2  0
  9 10  1  0
 10 11  1  0
 10 12  1  0
 10 13  1  0
M  RAD  1   9   2
M  END
>  <reaction>  (8) 
rxn_3247

>  <mol_properties>  (8) 
{"0": {"label": "*3", "atom_type": "N3s"}, "1": {"label": "*4", "atom_type": "Cs"}, "8": {"label": "*1", "atom_type": "CO"}, "9": {"label": "*0", "atom_type": "Cs"}, "13": {"label": "*2", "atom_type": "H0"}}

>  <type>  (8) 
unop_4

>  <geom_source>  (8) 
Heuristics

$$$$

     RDKit          3D

 14 12  0  0  0  0  0  0  0  0999 V2000
   -0.2794   -2.3343    0.0687 N   0  0  0  0  0  0  0  0  0  0  0  0
   -0.2794   -2.0099    1.4806 C   0  0  0  0  0  0  0  0  0  0  0  0
    0.8770   -1.2165    1.9393 C   0  0  0  0  0  0  0  0  0  0  0  0
    1.7916   -0.5997    2.2554 N   0  0  0  0  0  0  0  0  0  0  0  0
    0.5392   -2.8722   -0.1802 H   0  0  0  0  0  0  0  0  0  0  0  0
   -0.3083   -2.9308    2.0650 H   0  0  0  0  0  0  0  0  0  0  0  0
   -1.1863   -1.4551    1.7260 H   0  0  0  0  0  0  0  0  0  0  0  0
   -0.2794   -0.2290   -2.5388 O   0  0  0  0  0  0  0  0  0  0  0  0
   -0.2794   -0.2290   -1.3508 C   0  0  0  0  0  3  0  0  0  0  0  0
   -0.2794    1.0685   -0.5145 C   0  0  0  0  0  0  0  0  0  0  0  0
   -1.3611    1.0815    0.2725 F   0  0  0  0  0  0  0  0  0  0  0  0
    0.8022    1.0815    0.2725 F   0  0  0  0  0  0  0  0  0  0  0  0
   -0.2794    2.1554   -1.2618 F   0  0  0  0  0  0  0  0  0  0  0  0
   -0.2794   -1.3286   -0.6093 H   0  0  0  0  0  0  0  0  0  0  0  0
  1  2  1  0
  1  5  1  0
  1 14  1  0
  2  3  1  0
  2  6  1  0
  2  7  1  0
  3  4  3  0
  8  9  2  0
  9 10  1  0
 10 11  1  0
 10 12  1  0
 10 13  1  0
M  RAD  1   9   2
M  END
>  <reaction>  (9) 
rxn_3247

>  <mol_properties>  (9) 
{"0": {"label": "*3", "atom_type": "N3s"}, "1": {"label": "*4", "atom_type": "Cs"}, "8": {"label": "*1", "atom_type": "CO"}, "9": {"label": "*0", "atom_type": "Cs"}, "13": {"label": "*2", "atom_type": "H0"}}

>  <type>  (9) 
unop_5

>  <geom_source>  (9) 
Heuristics

$$$$

     RDKit          3D

 14 12  0  0  0  0  0  0  0  0999 V2000
    0.6014   -2.1997    0.5119 N   0  0  0  0  0  0  0  0  0  0  0  0
   -0.7506   -2.6312    0.8029 C   0  0  0  0  0  0  0  0  0  0  0  0
   -1.7892   -1.5996    0.6171 C   0  0  0  0  0  0  0  0  0  0  0  0
   -2.5658   -0.7696    0.4606 N   0  0  0  0  0  0  0  0  0  0  0  0
    0.8716   -1.4275    1.1053 H   0  0  0  0  0  0  0  0  0  0  0  0
   -0.8060   -2.9820    1.8345 H   0  0  0  0  0  0  0  0  0  0  0  0
   -1.0048   -3.4821    0.1690 H   0  0  0  0  0  0  0  0  0  0  0  0
    0.6014   -0.0944   -2.0957 O   0  0  0  0  0  0  0  0  0  0  0  0
    0.6014   -0.0944   -0.9076 C   0  0  0  0  0  3  0  0  0  0  0  0
    0.6014    1.2031   -0.0713 C   0  0  0  0  0  0  0  0  0  0  0  0
   -0.4803    1.2161    0.7157 F   0  0  0  0  0  0  0  0  0  0  0  0
    1.6830    1.2161    0.7157 F   0  0  0  0  0  0  0  0  0  0  0  0
    0.6014    2.2899   -0.8186 F   0  0  0  0  0  0  0  0  0  0  0  0
    0.6014   -1.1941   -0.1661 H   0  0  0  0  0  0  0  0  0  0  0  0
  1  2  1  0
  1  5  1  0
  1 14  1  0
  2  3  1  0
  2  6  1  0
  2  7  1  0
  3  4  3  0
  8  9  2  0
  9 10  1  0
 10 11  1  0
 10 12  1  0
 10 13  1  0
M  RAD  1   9   2
M  END
>  <reaction>  (10) 
rxn_3247

>  <mol_properties>  (10) 
{"0": {"label": "*3", "atom_type": "N3s"}, "1": {"label": "*4", "atom_type": "Cs"}, "8": {"label": "*1", "atom_type": "CO"}, "9": {"label": "*0", "atom_type": "Cs"}, "13": {"label": "*2", "atom_type": "H0"}}

>  <type>  (10) 
unop_6

>  <geom_source>  (10) 
Heuristics

$$$$

     RDKit          3D

 14 12  0  0  0  0  0  0  0  0999 V2000
    0.4703   -2.3591    0.2781 N   0  0  0  0  0  0  0  0  0  0  0  0
   -0.7005   -2.4126    1.1295 C   0  0  0  0  0  0  0  0  0  0  0  0
   -1.3996   -1.1260    1.3120 C   0  0  0  0  0  0  0  0  0  0  0  0
   -1.9137   -0.1068    1.4282 N   0  0  0  0  0  0  0  0  0  0  0  0
    1.1607   -1.7213    0.6499 H   0  0  0  0  0  0  0  0  0  0  0  0
   -0.4162   -2.7835    2.1155 H   0  0  0  0  0  0  0  0  0  0  0  0
   -1.4151   -3.1283    0.7201 H   0  0  0  0  0  0  0  0  0  0  0  0
    0.4703   -0.2538   -2.3295 O   0  0  0  0  0  0  0  0  0  0  0  0
    0.4703   -0.2538   -1.1414 C   0  0  0  0  0  3  0  0  0  0  0  0
    0.4703    1.0437   -0.3052 C   0  0  0  0  0  0  0  0  0  0  0  0
   -0.6113    1.0567    0.4819 F   0  0  0  0  0  0  0  0  0  0  0  0
    1.5520    1.0567    0.4819 F   0  0  0  0  0  0  0  0  0  0  0  0
    0.4703    2.1306   -1.0524 F   0  0  0  0  0  0  0  0  0  0  0  0
    0.4703   -1.3534   -0.3999 H   0  0  0  0  0  0  0  0  0  0  0  0
  1  2  1  0
  1  5  1  0
  1 14  1  0
  2  3  1  0
  2  6  1  0
  2  7  1  0
  3  4  3  0
  8  9  2  0
  9 10  1  0
 10 11  1  0
 10 12  1  0
 10 13  1  0
M  RAD  1   9   2
M  END
>  <reaction>  (11) 
rxn_3247

>  <mol_properties>  (11) 
{"0": {"label": "*3", "atom_type": "N3s"}, "1": {"label": "*4", "atom_type": "Cs"}, "8": {"label": "*1", "atom_type": "CO"}, "9": {"label": "*0", "atom_type": "Cs"}, "13": {"label": "*2", "atom_type": "H0"}}

>  <type>  (11) 
unop_7

>  <geom_source>  (11) 
Heuristics

$$$$

     RDKit          3D

 14 12  0  0  0  0  0  0  0  0999 V2000
   -0.4684   -1.6793    0.6661 N   0  0  0  0  0  0  0  0  0  0  0  0
    0.8835   -2.1107    0.9571 C   0  0  0  0  0  0  0  0  0  0  0  0
    1.3720   -3.2332    0.1331 C   0  0  0  0  0  0  0  0  0  0  0  0
    1.7136   -4.1065   -0.5281 N   0  0  0  0  0  0  0  0  0  0  0  0
   -1.1281   -2.4318    0.8078 H   0  0  0  0  0  0  0  0  0  0  0  0
    0.9526   -2.4078    2.0047 H   0  0  0  0  0  0  0  0  0  0  0  0
    1.5691   -1.2725    0.8236 H   0  0  0  0  0  0  0  0  0  0  0  0
   -0.4684    0.4260   -1.9414 O   0  0  0  0  0  0  0  0  0  0  0  0
   -0.4684    0.4260   -0.7534 C   0  0  0  0  0  3  0  0  0  0  0  0
   -0.4684    1.7235    0.0829 C   0  0  0  0  0  0  0  0  0  0  0  0
   -1.5501    1.7365    0.8699 F   0  0  0  0  0  0  0  0  0  0  0  0
    0.6132    1.7365    0.8699 F   0  0  0  0  0  0  0  0  0  0  0  0
   -0.4685    2.8104   -0.6644 F   0  0  0  0  0  0  0  0  0  0  0  0
   -0.4684   -0.6737   -0.0119 H   0  0  0  0  0  0  0  0  0  0  0  0
  1  2  1  0
  1  5  1  0
  1 14  1  0
  2  3  1  0
  2  6  1  0
  2  7  1  0
  3  4  3  0
  8  9  2  0
  9 10  1  0
 10 11  1  0
 10 12  1  0
 10 13  1  0
M  RAD  1   9   2
M  END
>  <reaction>  (12) 
rxn_3247

>  <mol_properties>  (12) 
{"0": {"label": "*3", "atom_type": "N3s"}, "1": {"label": "*4", "atom_type": "Cs"}, "8": {"label": "*1", "atom_type": "CO"}, "9": {"label": "*0", "atom_type": "Cs"}, "13": {"label": "*2", "atom_type": "H0"}}

>  <type>  (12) 
unop_8

>  <geom_source>  (12) 
Heuristics

$$$$

     RDKit          3D

 14 12  0  0  0  0  0  0  0  0999 V2000
    0.4738   -1.8709    0.8944 N   0  0  0  0  0  0  0  0  0  0  0  0
   -0.2021   -2.9569    0.2145 C   0  0  0  0  0  0  0  0  0  0  0  0
   -1.4317   -2.5740   -0.5059 C   0  0  0  0  0  0  0  0  0  0  0  0
   -2.3816   -2.2352   -1.0531 N   0  0  0  0  0  0  0  0  0  0  0  0
   -0.1281   -1.4444    1.5852 H   0  0  0  0  0  0  0  0  0  0  0  0
   -0.4635   -3.7314    0.9373 H   0  0  0  0  0  0  0  0  0  0  0  0
    0.4790   -3.4160   -0.5036 H   0  0  0  0  0  0  0  0  0  0  0  0
    0.4738    0.2344   -1.7132 O   0  0  0  0  0  0  0  0  0  0  0  0
    0.4738    0.2344   -0.5252 C   0  0  0  0  0  3  0  0  0  0  0  0
    0.4738    1.5319    0.3111 C   0  0  0  0  0  0  0  0  0  0  0  0
   -0.6078    1.5449    1.0981 F   0  0  0  0  0  0  0  0  0  0  0  0
    1.5555    1.5449    1.0981 F   0  0  0  0  0  0  0  0  0  0  0  0
    0.4738    2.6188   -0.4362 F   0  0  0  0  0  0  0  0  0  0  0  0
    0.4738   -0.8653    0.2163 H   0  0  0  0  0  0  0  0  0  0  0  0
  1  2  1  0
  1  5  1  0
  1 14  1  0
  2  3  1  0
  2  6  1  0
  2  7  1  0
  3  4  3  0
  8  9  2  0
  9 10  1  0
 10 11  1  0
 10 12  1  0
 10 13  1  0
M  RAD  1   9   2
M  END
>  <reaction>  (13) 
rxn_3247

>  <mol_properties>  (13) 
{"0": {"label": "*3", "atom_type": "N3s"}, "1": {"label": "*4", "atom_type": "Cs"}, "8": {"label": "*1", "atom_type": "CO"}, "9": {"label": "*0", "atom_type": "Cs"}, "13": {"label": "*2", "atom_type": "H0"}}

>  <type>  (13) 
unop_9

>  <geom_source>  (13) 
Heuristics

$$$$

     RDKit          3D

 14 12  0  0  0  0  0  0  0  0999 V2000
   -0.2599   -1.5984    0.8600 N   0  0  0  0  0  0  0  0  0  0  0  0
    0.9109   -2.4078    0.5904 C   0  0  0  0  0  0  0  0  0  0  0  0
    0.7244   -3.4553   -0.4320 C   0  0  0  0  0  0  0  0  0  0  0  0
    0.5381   -4.2569   -1.2316 N   0  0  0  0  0  0  0  0  0  0  0  0
   -1.0278   -2.1684    1.1872 H   0  0  0  0  0  0  0  0  0  0  0  0
    1.2379   -2.8920    1.5119 H   0  0  0  0  0  0  0  0  0  0  0  0
    1.7307   -1.7645    0.2670 H   0  0  0  0  0  0  0  0  0  0  0  0
   -0.2599    0.5068   -1.7476 O   0  0  0  0  0  0  0  0  0  0  0  0
   -0.2599    0.5068   -0.5596 C   0  0  0  0  0  3  0  0  0  0  0  0
   -0.2599    1.8044    0.2767 C   0  0  0  0  0  0  0  0  0  0  0  0
   -1.3416    1.8174    1.0637 F   0  0  0  0  0  0  0  0  0  0  0  0
    0.8217    1.8174    1.0637 F   0  0  0  0  0  0  0  0  0  0  0  0
   -0.2600    2.8912   -0.4706 F   0  0  0  0  0  0  0  0  0  0  0  0
   -0.2599   -0.5928    0.1819 H   0  0  0  0  0  0  0  0  0  0  0  0
  1  2  1  0
  1  5  1  0
  1 14  1  0
  2  3  1  0
  2  6  1  0
  2  7  1  0
  3  4  3  0
  8  9  2  0
  9 10  1  0
 10 11  1  0
 10 12  1  0
 10 13  1  0
M  RAD  1   9   2
M  END
>  <reaction>  (14) 
rxn_3247

>  <mol_properties>  (14) 
{"0": {"label": "*3", "atom_type": "N3s"}, "1": {"label": "*4", "atom_type": "Cs"}, "8": {"label": "*1", "atom_type": "CO"}, "9": {"label": "*0", "atom_type": "Cs"}, "13": {"label": "*2", "atom_type": "H0"}}

>  <type>  (14) 
unop_10

>  <geom_source>  (14) 
Heuristics

$$$$

     RDKit          3D

 14 12  0  0  0  0  0  0  0  0999 V2000
    0.1600   -2.4534    0.0967 N   0  0  0  0  0  0  0  0  0  0  0  0
   -0.5159   -2.2303    1.3584 C   0  0  0  0  0  0  0  0  0  0  0  0
   -0.4652   -0.8426    1.8576 C   0  0  0  0  0  0  0  0  0  0  0  0
   -0.4027    0.2474    2.2105 N   0  0  0  0  0  0  0  0  0  0  0  0
    1.1414   -2.2214    0.1646 H   0  0  0  0  0  0  0  0  0  0  0  0
   -0.0831   -2.8783    2.1221 H   0  0  0  0  0  0  0  0  0  0  0  0
   -1.5649   -2.5154    1.2640 H   0  0  0  0  0  0  0  0  0  0  0  0
    0.1600   -0.3481   -2.5108 O   0  0  0  0  0  0  0  0  0  0  0  0
    0.1600   -0.3481   -1.3228 C   0  0  0  0  0  3  0  0  0  0  0  0
    0.1600    0.9494   -0.4865 C   0  0  0  0  0  0  0  0  0  0  0  0
   -0.9216    0.9624    0.3005 F   0  0  0  0  0  0  0  0  0  0  0  0
    1.2417    0.9624    0.3005 F   0  0  0  0  0  0  0  0  0  0  0  0
    0.1600    2.0362   -1.2338 F   0  0  0  0  0  0  0  0  0  0  0  0
    0.1600   -1.4478   -0.5813 H   0  0  0  0  0  0  0  0  0  0  0  0
  1  2  1  0
  1  5  1  0
  1 14  1  0
  2  3  1  0
  2  6  1  0
  2  7  1  0
  3  4  3  0
  8  9  2  0
  9 10  1  0
 10 11  1  0
 10 12  1  0
 10 13  1  0
M  RAD  1   9   2
M  END
>  <reaction>  (15) 
rxn_3247

>  <mol_properties>  (15) 
{"0": {"label": "*3", "atom_type": "N3s"}, "1": {"label": "*4", "atom_type": "Cs"}, "8": {"label": "*1", "atom_type": "CO"}, "9": {"label": "*0", "atom_type": "Cs"}, "13": {"label": "*2", "atom_type": "H0"}}

>  <type>  (15) 
unop_11

>  <geom_source>  (15) 
Heuristics

$$$$

     RDKit          3D

 14 12  0  0  0  0  0  0  0  0999 V2000
    0.2794   -1.7205    0.9790 N   0  0  0  0  0  0  0  0  0  0  0  0
    0.2794   -2.9078    0.1490 C   0  0  0  0  0  0  0  0  0  0  0  0
   -0.8770   -3.0356   -0.7586 C   0  0  0  0  0  0  0  0  0  0  0  0
   -1.7916   -3.0974   -1.4488 N   0  0  0  0  0  0  0  0  0  0  0  0
   -0.5392   -1.6914    1.5711 H   0  0  0  0  0  0  0  0  0  0  0  0
    0.3083   -3.7948    0.7837 H   0  0  0  0  0  0  0  0  0  0  0  0
    1.1863   -2.9272   -0.4574 H   0  0  0  0  0  0  0  0  0  0  0  0
    0.2794    0.3848   -1.6286 O   0  0  0  0  0  0  0  0  0  0  0  0
    0.2794    0.3848   -0.4405 C   0  0  0  0  0  3  0  0  0  0  0  0
    0.2794    1.6823    0.3957 C   0  0  0  0  0  0  0  0  0  0  0  0
   -0.8022    1.6953    1.1828 F   0  0  0  0  0  0  0  0  0  0  0  0
    1.3611    1.6953    1.1828 F   0  0  0  0  0  0  0  0  0  0  0  0
    0.2794    2.7692   -0.3515 F   0  0  0  0  0  0  0  0  0  0  0  0
    0.2794   -0.7149    0.3009 H   0  0  0  0  0  0  0  0  0  0  0  0
  1  2  1  0
  1  5  1  0
  1 14  1  0
  2  3  1  0
  2  6  1  0
  2  7  1  0
  3  4  3  0
  8  9  2  0
  9 10  1  0
 10 11  1  0
 10 12  1  0
 10 13  1  0
M  RAD  1   9   2
M  END
>  <reaction>  (16) 
rxn_3247

>  <mol_properties>  (16) 
{"0": {"label": "*3", "atom_type": "N3s"}, "1": {"label": "*4", "atom_type": "Cs"}, "8": {"label": "*1", "atom_type": "CO"}, "9": {"label": "*0", "atom_type": "Cs"}, "13": {"label": "*2", "atom_type": "H0"}}

>  <type>  (16) 
unop_12

>  <geom_source>  (16) 
Heuristics

$$$$

     RDKit          3D

 14 12  0  0  0  0  0  0  0  0999 V2000
    0.0163   -1.6135    0.9706 N   0  0  0  0  0  0  0  0  0  0  0  0
    0.6923   -2.6995    0.2908 C   0  0  0  0  0  0  0  0  0  0  0  0
   -0.1068   -3.3818   -0.7452 C   0  0  0  0  0  0  0  0  0  0  0  0
   -0.7611   -3.8853   -1.5420 N   0  0  0  0  0  0  0  0  0  0  0  0
   -0.8178   -1.9410    1.4381 H   0  0  0  0  0  0  0  0  0  0  0  0
    1.0042   -3.4474    1.0214 H   0  0  0  0  0  0  0  0  0  0  0  0
    1.6020   -2.3234   -0.1799 H   0  0  0  0  0  0  0  0  0  0  0  0
    0.0163    0.4918   -1.6370 O   0  0  0  0  0  0  0  0  0  0  0  0
    0.0163    0.4918   -0.4489 C   0  0  0  0  0  3  0  0  0  0  0  0
    0.0163    1.7893    0.3873 C   0  0  0  0  0  0  0  0  0  0  0  0
   -1.0653    1.8023    1.1744 F   0  0  0  0  0  0  0  0  0  0  0  0
    1.0980    1.8023    1.1744 F   0  0  0  0  0  0  0  0  0  0  0  0
    0.0163    2.8761   -0.3599 F   0  0  0  0  0  0  0  0  0  0  0  0
    0.0163   -0.6079    0.2925 H   0  0  0  0  0  0  0  0  0  0  0  0
  1  2  1  0
  1  5  1  0
  1 14  1  0
  2  3  1  0
  2  6  1  0
  2  7  1  0
  3  4  3  0
  8  9  2  0
  9 10  1  0
 10 11  1  0
 10 12  1  0
 10 13  1  0
M  RAD  1   9   2
M  END
>  <reaction>  (17) 
rxn_3247

>  <mol_properties>  (17) 
{"0": {"label": "*3", "atom_type": "N3s"}, "1": {"label": "*4", "atom_type": "Cs"}, "8": {"label": "*1", "atom_type": "CO"}, "9": {"label": "*0", "atom_type": "Cs"}, "13": {"label": "*2", "atom_type": "H0"}}

>  <type>  (17) 
unop_13

>  <geom_source>  (17) 
gaussian_log

$$$$
