
     RDKit          3D

  4  3  0  0  0  0  0  0  0  0999 V2000
   -0.0057    0.0001   -0.0008 C   0  0  0  0  0  0  0  0  0  0  0  0
    1.1789   -0.0174    0.1563 O   0  0  0  0  0  0  0  0  0  0  0  0
   -0.5891    0.9399    0.0445 H   0  0  0  0  0  0  0  0  0  0  0  0
   -0.5841   -0.9226   -0.2001 H   0  0  0  0  0  0  0  0  0  0  0  0
  1  2  2  0
  1  3  1  0
  1  4  1  0
M  END
>  <reaction>  (1) 
rxn_369

>  <mol_properties>  (1) 
{"0": {"label": "donator", "atom_type": "CO"}, "2": {"label": "d_hydrogen", "atom_type": "H0"}}

>  <type>  (1) 
r1h

$$$$

     RDKit          3D

  3  2  0  0  0  0  0  0  0  0999 V2000
    0.9943   -0.1797    0.0000 O   0  0  0  0  0  1  0  0  0  0  0  0
   -0.1595    0.4394    0.0000 O   0  0  0  0  0  0  0  0  0  0  0  0
   -0.8348   -0.2597    0.0000 H   0  0  0  0  0  0  0  0  0  0  0  0
  1  2  1  0
  2  3  1  0
M  RAD  1   1   2
M  END
>  <reaction>  (2) 
rxn_369

>  <mol_properties>  (2) 
{"0": {"label": "acceptor", "atom_type": "O2s"}}

>  <type>  (2) 
r2

$$$$

     RDKit          3D

  4  3  0  0  0  0  0  0  0  0999 V2000
    0.5949   -0.3853    0.2659 O   0  0  0  0  0  0  0  0  0  0  0  0
   -0.5918    0.4028    0.2462 O   0  0  0  0  0  0  0  0  0  0  0  0
    1.1865    0.1539   -0.2689 H   0  0  0  0  0  0  0  0  0  0  0  0
   -1.1896   -0.1714   -0.2432 H   0  0  0  0  0  0  0  0  0  0  0  0
  1  2  1  0
  1  3  1  0
  2  4  1  0
M  END
>  <reaction>  (3) 
rxn_369

>  <mol_properties>  (3) 
{"0": {"label": "acceptor", "atom_type": "O2s"}, "3": {"label": "a_hydrogen", "atom_type": "H0"}}

>  <type>  (3) 
r2h

$$$$

     RDKit          3D

  7  5  0  0  0  0  0  0  0  0999 V2000
   -0.0345    0.7821    1.2591 O   0  0  0  0  0  0  0  0  0  0  0  0
    0.1510    1.6810    0.2330 O   0  0  0  0  0  0  0  0  0  0  0  0
   -0.7475    1.9221   -0.0243 H   0  0  0  0  0  0  0  0  0  0  0  0
   -0.0344   -1.3388   -0.0980 C   0  0  0  0  0  3  0  0  0  0  0  0
   -0.3075   -1.1858   -1.2332 O   0  0  0  0  0  0  0  0  0  0  0  0
   -0.0046   -0.2990    0.7052 H   0  0  0  0  0  0  0  0  0  0  0  0
    0.2131   -2.3245    0.3555 H   0  0  0  0  0  0  0  0  0  0  0  0
  1  2  1  0
  1  6  1  0
  2  3  1  0
  4  5  2  0
  4  7  1  0
M  RAD  1   4   2
M  END
>  <reaction>  (4) 
rxn_369

>  <mol_properties>  (4) 
{"0": {"label": "*1", "atom_type": "O2s"}, "1": {"label": "*0", "atom_type": "O2s"}, "3": {"label": "*3", "atom_type": "CO"}, "4": {"label": "*4", "atom_type": "O2d"}, "5": {"label": "*2", "atom_type": "H0"}}

>  <type>  (4) 
ts

$$$$

     RDKit          3D

  7  5  0  0  0  0  0  0  0  0999 V2000
    0.3225    1.0476    0.6990 O   0  0  0  0  0  0  0  0  0  0  0  0
   -0.8877    0.9125    1.4384 O   0  0  0  0  0  0  0  0  0  0  0  0
   -0.6347    0.2533    2.0926 H   0  0  0  0  0  0  0  0  0  0  0  0
    0.3225   -1.0595   -0.6158 C   0  0  0  0  0  3  0  0  0  0  0  0
    0.3225   -1.0595   -1.8109 O   0  0  0  0  0  0  0  0  0  0  0  0
    0.3225    0.0676    0.0875 H   0  0  0  0  0  0  0  0  0  0  0  0
    0.3225   -1.9987   -0.0297 H   0  0  0  0  0  0  0  0  0  0  0  0
  1  2  1  0
  1  6  1  0
  2  3  1  0
  4  5  2  0
  4  7  1  0
M  RAD  1   4   2
M  END
>  <reaction>  (5) 
rxn_369

>  <mol_properties>  (5) 
{"0": {"label": "*1", "atom_type": "O2s"}, "1": {"label": "*0", "atom_type": "O2s"}, "3": {"label": "*3", "atom_type": "CO"}, "4": {"label": "*4", "atom_type": "O2d"}, "5": {"label": "*2", "atom_type": "H0"}}

>  <type>  (5) 
unop_1

>  <geom_source>  (5) 
Heuristics

$$$$

     RDKit          3D

  7  5  0  0  0  0  0  0  0  0999 V2000
    0.2030    0.7658    1.1414 O   0  0  0  0  0  0  0  0  0  0  0  0
   -0.4957    1.6414    0.2612 O   0  0  0  0  0  0  0  0  0  0  0  0
   -1.3987    1.5468    0.5811 H   0  0  0  0  0  0  0  0  0  0  0  0
    0.2030   -1.3412   -0.1734 C   0  0  0  0  0  3  0  0  0  0  0  0
    0.2030   -1.3412   -1.3685 O   0  0  0  0  0  0  0  0  0  0  0  0
    0.2030   -0.2142    0.5299 H   0  0  0  0  0  0  0  0  0  0  0  0
    0.2030   -2.2805    0.4127 H   0  0  0  0  0  0  0  0  0  0  0  0
  1  2  1  0
  1  6  1  0
  2  3  1  0
  4  5  2  0
  4  7  1  0
M  RAD  1   4   2
M  END
>  <reaction>  (6) 
rxn_369

>  <mol_properties>  (6) 
{"0": {"label": "*1", "atom_type": "O2s"}, "1": {"label": "*0", "atom_type": "O2s"}, "3": {"label": "*3", "atom_type": "CO"}, "4": {"label": "*4", "atom_type": "O2d"}, "5": {"label": "*2", "atom_type": "H0"}}

>  <type>  (6) 
unop_2

>  <geom_source>  (6) 
Heuristics

$$$$

     RDKit          3D

  7  5  0  0  0  0  0  0  0  0999 V2000
    0.1770    1.1157    0.5838 O   0  0  0  0  0  0  0  0  0  0  0  0
   -0.5217    0.7098    1.7571 O   0  0  0  0  0  0  0  0  0  0  0  0
    0.1981    0.3597    2.2918 H   0  0  0  0  0  0  0  0  0  0  0  0
    0.1770   -0.9914   -0.7310 C   0  0  0  0  0  3  0  0  0  0  0  0
    0.1770   -0.9914   -1.9261 O   0  0  0  0  0  0  0  0  0  0  0  0
    0.1770    0.1357   -0.0277 H   0  0  0  0  0  0  0  0  0  0  0  0
    0.1770   -1.9306   -0.1449 H   0  0  0  0  0  0  0  0  0  0  0  0
  1  2  1  0
  1  6  1  0
  2  3  1  0
  4  5  2  0
  4  7  1  0
M  RAD  1   4   2
M  END
>  <reaction>  (7) 
rxn_369

>  <mol_properties>  (7) 
{"0": {"label": "*1", "atom_type": "O2s"}, "1": {"label": "*0", "atom_type": "O2s"}, "3": {"label": "*3", "atom_type": "CO"}, "4": {"label": "*4", "atom_type": "O2d"}, "5": {"label": "*2", "atom_type": "H0"}}

>  <type>  (7) 
unop_3

>  <geom_source>  (7) 
Heuristics

$$$$

     RDKit          3D

  7  5  0  0  0  0  0  0  0  0999 V2000
   -0.3231    0.8224    1.0282 O   0  0  0  0  0  0  0  0  0  0  0  0
    0.8872    1.4272    0.5819 O   0  0  0  0  0  0  0  0  0  0  0  0
    0.6691    2.3616    0.6596 H   0  0  0  0  0  0  0  0  0  0  0  0
   -0.3231   -1.2846   -0.2867 C   0  0  0  0  0  3  0  0  0  0  0  0
   -0.3231   -1.2846   -1.4817 O   0  0  0  0  0  0  0  0  0  0  0  0
   -0.3231   -0.1576    0.4166 H   0  0  0  0  0  0  0  0  0  0  0  0
   -0.3231   -2.2238    0.2994 H   0  0  0  0  0  0  0  0  0  0  0  0
  1  2  1  0
  1  6  1  0
  2  3  1  0
  4  5  2  0
  4  7  1  0
M  RAD  1   4   2
M  END
>  <reaction>  (8) 
rxn_369

>  <mol_properties>  (8) 
{"0": {"label": "*1", "atom_type": "O2s"}, "1": {"label": "*0", "atom_type": "O2s"}, "3": {"label": "*3", "atom_type": "CO"}, "4": {"label": "*4", "atom_type": "O2d"}, "5": {"label": "*2", "atom_type": "H0"}}

>  <type>  (8) 
unop_4

>  <geom_source>  (8) 
Heuristics

$$$$

     RDKit          3D

  7  5  0  0  0  0  0  0  0  0999 V2000
   -0.0138    1.1321    0.5445 O   0  0  0  0  0  0  0  0  0  0  0  0
   -0.0138    0.6271    1.8767 O   0  0  0  0  0  0  0  0  0  0  0  0
    0.8470    0.9239    2.1892 H   0  0  0  0  0  0  0  0  0  0  0  0
   -0.0138   -0.9750   -0.7703 C   0  0  0  0  0  3  0  0  0  0  0  0
   -0.0138   -0.9750   -1.9654 O   0  0  0  0  0  0  0  0  0  0  0  0
   -0.0138    0.1521   -0.0670 H   0  0  0  0  0  0  0  0  0  0  0  0
   -0.0138   -1.9142   -0.1842 H   0  0  0  0  0  0  0  0  0  0  0  0
  1  2  1  0
  1  6  1  0
  2  3  1  0
  4  5  2  0
  4  7  1  0
M  RAD  1   4   2
M  END
>  <reaction>  (9) 
rxn_369

>  <mol_properties>  (9) 
{"0": {"label": "*1", "atom_type": "O2s"}, "1": {"label": "*0", "atom_type": "O2s"}, "3": {"label": "*3", "atom_type": "CO"}, "4": {"label": "*4", "atom_type": "O2d"}, "5": {"label": "*2", "atom_type": "H0"}}

>  <type>  (9) 
unop_5

>  <geom_source>  (9) 
Heuristics

$$$$

     RDKit          3D

  7  5  0  0  0  0  0  0  0  0999 V2000
   -0.3774    0.9220    0.8673 O   0  0  0  0  0  0  0  0  0  0  0  0
    1.0201    1.1568    1.0138 O   0  0  0  0  0  0  0  0  0  0  0  0
    1.0364    2.1096    1.1505 H   0  0  0  0  0  0  0  0  0  0  0  0
   -0.3774   -1.1851   -0.4476 C   0  0  0  0  0  3  0  0  0  0  0  0
   -0.3774   -1.1851   -1.6426 O   0  0  0  0  0  0  0  0  0  0  0  0
   -0.3774   -0.0580    0.2557 H   0  0  0  0  0  0  0  0  0  0  0  0
   -0.3774   -2.1243    0.1385 H   0  0  0  0  0  0  0  0  0  0  0  0
  1  2  1  0
  1  6  1  0
  2  3  1  0
  4  5  2  0
  4  7  1  0
M  RAD  1   4   2
M  END
>  <reaction>  (10) 
rxn_369

>  <mol_properties>  (10) 
{"0": {"label": "*1", "atom_type": "O2s"}, "1": {"label": "*0", "atom_type": "O2s"}, "3": {"label": "*3", "atom_type": "CO"}, "4": {"label": "*4", "atom_type": "O2d"}, "5": {"label": "*2", "atom_type": "H0"}}

>  <type>  (10) 
unop_6

>  <geom_source>  (10) 
Heuristics

$$$$

     RDKit          3D

  7  5  0  0  0  0  0  0  0  0999 V2000
   -0.3301    1.0223    0.7068 O   0  0  0  0  0  0  0  0  0  0  0  0
    0.8801    0.8872    1.4462 O   0  0  0  0  0  0  0  0  0  0  0  0
    1.1017    1.8091    1.6124 H   0  0  0  0  0  0  0  0  0  0  0  0
   -0.3301   -1.0848   -0.6080 C   0  0  0  0  0  3  0  0  0  0  0  0
   -0.3301   -1.0848   -1.8031 O   0  0  0  0  0  0  0  0  0  0  0  0
   -0.3301    0.0423    0.0953 H   0  0  0  0  0  0  0  0  0  0  0  0
   -0.3301   -2.0240   -0.0219 H   0  0  0  0  0  0  0  0  0  0  0  0
  1  2  1  0
  1  6  1  0
  2  3  1  0
  4  5  2  0
  4  7  1  0
M  RAD  1   4   2
M  END
>  <reaction>  (11) 
rxn_369

>  <mol_properties>  (11) 
{"0": {"label": "*1", "atom_type": "O2s"}, "1": {"label": "*0", "atom_type": "O2s"}, "3": {"label": "*3", "atom_type": "CO"}, "4": {"label": "*4", "atom_type": "O2d"}, "5": {"label": "*2", "atom_type": "H0"}}

>  <type>  (11) 
unop_7

>  <geom_source>  (11) 
Heuristics

$$$$

     RDKit          3D

  7  5  0  0  0  0  0  0  0  0999 V2000
    0.3809    0.9481    0.8592 O   0  0  0  0  0  0  0  0  0  0  0  0
   -1.0166    1.1829    1.0058 O   0  0  0  0  0  0  0  0  0  0  0  0
   -1.2542    0.5044    1.6459 H   0  0  0  0  0  0  0  0  0  0  0  0
    0.3809   -1.1590   -0.4556 C   0  0  0  0  0  3  0  0  0  0  0  0
    0.3809   -1.1590   -1.6507 O   0  0  0  0  0  0  0  0  0  0  0  0
    0.3809   -0.0319    0.2477 H   0  0  0  0  0  0  0  0  0  0  0  0
    0.3809   -2.0982    0.1305 H   0  0  0  0  0  0  0  0  0  0  0  0
  1  2  1  0
  1  6  1  0
  2  3  1  0
  4  5  2  0
  4  7  1  0
M  RAD  1   4   2
M  END
>  <reaction>  (12) 
rxn_369

>  <mol_properties>  (12) 
{"0": {"label": "*1", "atom_type": "O2s"}, "1": {"label": "*0", "atom_type": "O2s"}, "3": {"label": "*3", "atom_type": "CO"}, "4": {"label": "*4", "atom_type": "O2d"}, "5": {"label": "*2", "atom_type": "H0"}}

>  <type>  (12) 
unop_8

>  <geom_source>  (12) 
Heuristics

$$$$

     RDKit          3D

  7  5  0  0  0  0  0  0  0  0999 V2000
   -0.1798    0.7517    1.1458 O   0  0  0  0  0  0  0  0  0  0  0  0
    0.5190    1.6273    0.2656 O   0  0  0  0  0  0  0  0  0  0  0  0
   -0.0297    2.4168    0.3126 H   0  0  0  0  0  0  0  0  0  0  0  0
   -0.1798   -1.3554   -0.1691 C   0  0  0  0  0  3  0  0  0  0  0  0
   -0.1798   -1.3554   -1.3641 O   0  0  0  0  0  0  0  0  0  0  0  0
   -0.1798   -0.2283    0.5342 H   0  0  0  0  0  0  0  0  0  0  0  0
   -0.1798   -2.2946    0.4170 H   0  0  0  0  0  0  0  0  0  0  0  0
  1  2  1  0
  1  6  1  0
  2  3  1  0
  4  5  2  0
  4  7  1  0
M  RAD  1   4   2
M  END
>  <reaction>  (13) 
rxn_369

>  <mol_properties>  (13) 
{"0": {"label": "*1", "atom_type": "O2s"}, "1": {"label": "*0", "atom_type": "O2s"}, "3": {"label": "*3", "atom_type": "CO"}, "4": {"label": "*4", "atom_type": "O2d"}, "5": {"label": "*2", "atom_type": "H0"}}

>  <type>  (13) 
unop_9

>  <geom_source>  (13) 
Heuristics

$$$$

     RDKit          3D

  7  5  0  0  0  0  0  0  0  0999 V2000
    0.3370    0.8451    1.0212 O   0  0  0  0  0  0  0  0  0  0  0  0
   -0.8732    1.4499    0.5749 O   0  0  0  0  0  0  0  0  0  0  0  0
   -1.5258    0.9652    1.0906 H   0  0  0  0  0  0  0  0  0  0  0  0
    0.3370   -1.2619   -0.2937 C   0  0  0  0  0  3  0  0  0  0  0  0
    0.3370   -1.2619   -1.4887 O   0  0  0  0  0  0  0  0  0  0  0  0
    0.3370   -0.1349    0.4096 H   0  0  0  0  0  0  0  0  0  0  0  0
    0.3370   -2.2011    0.2924 H   0  0  0  0  0  0  0  0  0  0  0  0
  1  2  1  0
  1  6  1  0
  2  3  1  0
  4  5  2  0
  4  7  1  0
M  RAD  1   4   2
M  END
>  <reaction>  (14) 
rxn_369

>  <mol_properties>  (14) 
{"0": {"label": "*1", "atom_type": "O2s"}, "1": {"label": "*0", "atom_type": "O2s"}, "3": {"label": "*3", "atom_type": "CO"}, "4": {"label": "*4", "atom_type": "O2d"}, "5": {"label": "*2", "atom_type": "H0"}}

>  <type>  (14) 
unop_10

>  <geom_source>  (14) 
Heuristics

$$$$

     RDKit          3D

  7  5  0  0  0  0  0  0  0  0999 V2000
   -0.1970    1.0975    0.5894 O   0  0  0  0  0  0  0  0  0  0  0  0
    0.5018    0.6917    1.7627 O   0  0  0  0  0  0  0  0  0  0  0  0
    1.0286    1.4759    1.9473 H   0  0  0  0  0  0  0  0  0  0  0  0
   -0.1970   -1.0095   -0.7254 C   0  0  0  0  0  3  0  0  0  0  0  0
   -0.1970   -1.0095   -1.9205 O   0  0  0  0  0  0  0  0  0  0  0  0
   -0.1970    0.1176   -0.0221 H   0  0  0  0  0  0  0  0  0  0  0  0
   -0.1970   -1.9487   -0.1393 H   0  0  0  0  0  0  0  0  0  0  0  0
  1  2  1  0
  1  6  1  0
  2  3  1  0
  4  5  2  0
  4  7  1  0
M  RAD  1   4   2
M  END
>  <reaction>  (15) 
rxn_369

>  <mol_properties>  (15) 
{"0": {"label": "*1", "atom_type": "O2s"}, "1": {"label": "*0", "atom_type": "O2s"}, "3": {"label": "*3", "atom_type": "CO"}, "4": {"label": "*4", "atom_type": "O2d"}, "5": {"label": "*2", "atom_type": "H0"}}

>  <type>  (15) 
unop_11

>  <geom_source>  (15) 
Heuristics

$$$$

     RDKit          3D

  7  5  0  0  0  0  0  0  0  0999 V2000
    0.0138    0.7310    1.1873 O   0  0  0  0  0  0  0  0  0  0  0  0
    0.0138    1.7057    0.1483 O   0  0  0  0  0  0  0  0  0  0  0  0
   -0.8470    2.1168    0.2775 H   0  0  0  0  0  0  0  0  0  0  0  0
    0.0138   -1.3761   -0.1275 C   0  0  0  0  0  3  0  0  0  0  0  0
    0.0138   -1.3761   -1.3226 O   0  0  0  0  0  0  0  0  0  0  0  0
    0.0138   -0.2490    0.5758 H   0  0  0  0  0  0  0  0  0  0  0  0
    0.0138   -2.3153    0.4586 H   0  0  0  0  0  0  0  0  0  0  0  0
  1  2  1  0
  1  6  1  0
  2  3  1  0
  4  5  2  0
  4  7  1  0
M  RAD  1   4   2
M  END
>  <reaction>  (16) 
rxn_369

>  <mol_properties>  (16) 
{"0": {"label": "*1", "atom_type": "O2s"}, "1": {"label": "*0", "atom_type": "O2s"}, "3": {"label": "*3", "atom_type": "CO"}, "4": {"label": "*4", "atom_type": "O2d"}, "5": {"label": "*2", "atom_type": "H0"}}

>  <type>  (16) 
unop_12

>  <geom_source>  (16) 
Heuristics

$$$$

     RDKit          3D

  7  5  0  0  0  0  0  0  0  0999 V2000
    1.9125   -0.3604    0.2543 O   0  0  0  0  0  0  0  0  0  0  0  0
    0.9784   -0.5249   -0.6585 O   0  0  0  0  0  1  0  0  0  0  0  0
   -2.1422   -0.2879    0.7840 O   0  0  0  0  0  0  0  0  0  0  0  0
   -1.2501    0.0928    0.0449 C   0  0  0  0  0  0  0  0  0  0  0  0
    2.1273    0.6059    0.2202 H   0  0  0  0  0  0  0  0  0  0  0  0
   -0.1874   -0.4144    0.0219 H   0  0  0  0  0  0  0  0  0  0  0  0
   -1.4385    0.8889   -0.6669 H   0  0  0  0  0  0  0  0  0  0  0  0
  1  2  1  0
  1  5  1  0
  3  4  2  0
  4  6  1  0
  4  7  1  0
M  RAD  1   2   2
M  END
>  <reaction>  (17) 
rxn_369

>  <mol_properties>  (17) 
{"0": {"label": "*1", "atom_type": "O2s"}, "1": {"label": "*0", "atom_type": "O2s"}, "3": {"label": "*3", "atom_type": "CO"}, "4": {"label": "*4", "atom_type": "O2d"}, "5": {"label": "*2", "atom_type": "H0"}}

>  <type>  (17) 
unop_13

>  <geom_source>  (17) 
AutoTST

$$$$
