
     RDKit          3D

  6  5  0  0  0  0  0  0  0  0999 V2000
    0.6594    0.0438   -0.0050 C   0  0  0  0  0  0  0  0  0  0  0  0
   -0.6594   -0.0438    0.0050 C   0  0  0  0  0  0  0  0  0  0  0  0
    1.1706    0.8681   -0.4881 H   0  0  0  0  0  0  0  0  0  0  0  0
    1.2824   -0.7051    0.4696 H   0  0  0  0  0  0  0  0  0  0  0  0
   -1.2824    0.7051   -0.4696 H   0  0  0  0  0  0  0  0  0  0  0  0
   -1.1706   -0.8681    0.4881 H   0  0  0  0  0  0  0  0  0  0  0  0
  1  2  2  3
  1  3  1  0
  1  4  1  0
  2  5  1  0
  2  6  1  0
M  END
>  <reaction>  (1) 
rxn_1607

>  <mol_properties>  (1) 
{"1": {"label": "donator", "atom_type": "Cd"}, "4": {"label": "d_hydrogen", "atom_type": "H0"}}

>  <type>  (1) 
r1h

$$$$

     RDKit          3D

  5  4  0  0  0  0  0  0  0  0999 V2000
    2.6288   -0.7067   -0.0494 S   0  0  0  0  0  0  0  0  0  0  0  0
    1.1409   -0.3066    0.0744 C   0  0  0  0  0  3  0  0  0  0  0  0
   -0.1298    0.0349    0.1801 C   0  0  0  0  0  0  0  0  0  0  0  0
   -1.3080    0.3516    0.2781 C   0  0  0  0  0  0  0  0  0  0  0  0
   -2.3320    0.6268    0.3633 H   0  0  0  0  0  0  0  0  0  0  0  0
  1  2  2  0
  2  3  1  0
  3  4  3  0
  4  5  1  0
M  RAD  1   2   2
M  END
>  <reaction>  (2) 
rxn_1607

>  <mol_properties>  (2) 
{"1": {"label": "acceptor", "atom_type": "CS"}}

>  <type>  (2) 
r2

$$$$

     RDKit          3D

  6  5  0  0  0  0  0  0  0  0999 V2000
   -1.9761    1.0978   -0.6585 S   0  0  0  0  0  0  0  0  0  0  0  0
   -1.0502    0.0275    0.1158 C   0  0  0  0  0  0  0  0  0  0  0  0
    0.3587   -0.0566   -0.0000 C   0  0  0  0  0  0  0  0  0  0  0  0
    1.5530   -0.1477   -0.0815 C   0  0  0  0  0  0  0  0  0  0  0  0
   -1.4972   -0.7045    0.7881 H   0  0  0  0  0  0  0  0  0  0  0  0
    2.6118   -0.2165   -0.1639 H   0  0  0  0  0  0  0  0  0  0  0  0
  1  2  2  0
  2  3  1  0
  2  5  1  0
  3  4  3  0
  4  6  1  0
M  END
>  <reaction>  (3) 
rxn_1607

>  <mol_properties>  (3) 
{"1": {"label": "acceptor", "atom_type": "CS"}, "5": {"label": "a_hydrogen", "atom_type": "H0"}}

>  <type>  (3) 
r2h

$$$$

     RDKit          3D

 11  9  0  0  0  0  0  0  0  0999 V2000
   -0.0021    1.4852   -0.6435 S   0  0  0  0  0  0  0  0  0  0  0  0
   -0.0008    0.1844    0.2876 C   0  0  0  0  0  0  0  0  0  0  0  0
   -0.0005    0.1087    1.6889 C   0  0  0  0  0  0  0  0  0  0  0  0
   -0.0002   -0.0389    2.8822 C   0  0  0  0  0  0  0  0  0  0  0  0
    0.0001   -0.1443    3.9412 H   0  0  0  0  0  0  0  0  0  0  0  0
    0.0004   -1.9082   -2.3514 C   0  0  0  0  0  0  0  0  0  0  0  0
    0.0009   -2.1695   -1.0706 C   0  0  0  0  0  3  0  0  0  0  0  0
   -0.0005   -0.8841   -2.7172 H   0  0  0  0  0  0  0  0  0  0  0  0
    0.0010   -2.6975   -3.1013 H   0  0  0  0  0  0  0  0  0  0  0  0
   -0.0000   -0.9263   -0.2445 H   0  0  0  0  0  0  0  0  0  0  0  0
    0.0018   -3.1032   -0.5228 H   0  0  0  0  0  0  0  0  0  0  0  0
  1  2  2  0
  2  3  1  0
  2 10  1  0
  3  4  3  0
  4  5  1  0
  6  7  2  3
  6  8  1  0
  6  9  1  0
  7 11  1  0
M  RAD  1   7   2
M  END
>  <reaction>  (4) 
rxn_1607

>  <mol_properties>  (4) 
{"0": {"label": "*0", "atom_type": "S2d"}, "1": {"label": "*1", "atom_type": "CS"}, "5": {"label": "*4", "atom_type": "Cd"}, "6": {"label": "*3", "atom_type": "Cd"}, "9": {"label": "*2", "atom_type": "H0"}}

>  <type>  (4) 
ts

$$$$

     RDKit          3D

 11  9  0  0  0  0  0  0  0  0999 V2000
   -1.3301    0.7949    1.1639 S   0  0  0  0  0  0  0  0  0  0  0  0
   -0.1254    0.4642    0.1433 C   0  0  0  0  0  3  0  0  0  0  0  0
    1.2499    0.6429    0.4302 C   0  0  0  0  0  0  0  0  0  0  0  0
    2.4215    0.7857    0.6497 C   0  0  0  0  0  0  0  0  0  0  0  0
    3.4601    0.9122    0.8443 H   0  0  0  0  0  0  0  0  0  0  0  0
   -0.1254   -1.7564   -2.5465 C   0  0  0  0  0  0  0  0  0  0  0  0
   -0.1254   -1.7564   -1.2248 C   0  0  0  0  0  0  0  0  0  0  0  0
   -0.1254   -0.8338   -3.1149 H   0  0  0  0  0  0  0  0  0  0  0  0
   -0.1254   -2.6789   -3.1149 H   0  0  0  0  0  0  0  0  0  0  0  0
   -0.1254   -0.6493   -0.5427 H   0  0  0  0  0  0  0  0  0  0  0  0
   -0.1254   -2.6789   -0.6564 H   0  0  0  0  0  0  0  0  0  0  0  0
  1  2  2  0
  2  3  1  0
  3  4  3  0
  4  5  1  0
  6  7  2  3
  6  8  1  0
  6  9  1  0
  7 10  1  0
  7 11  1  0
M  RAD  1   2   2
M  END
>  <reaction>  (5) 
rxn_1607

>  <mol_properties>  (5) 
{"0": {"label": "*0", "atom_type": "S2d"}, "1": {"label": "*1", "atom_type": "CS"}, "5": {"label": "*4", "atom_type": "Cd"}, "6": {"label": "*3", "atom_type": "Cd"}, "9": {"label": "*2", "atom_type": "H0"}}

>  <type>  (5) 
unop_1

>  <geom_source>  (5) 
Heuristics

$$$$

     RDKit          3D

 11  9  0  0  0  0  0  0  0  0999 V2000
   -0.5901    1.6088   -0.3319 S   0  0  0  0  0  0  0  0  0  0  0  0
    0.1054    0.2814    0.2653 C   0  0  0  0  0  3  0  0  0  0  0  0
    0.4284    0.0814    1.6296 C   0  0  0  0  0  0  0  0  0  0  0  0
    0.7116   -0.1115    2.7802 C   0  0  0  0  0  0  0  0  0  0  0  0
    0.9627   -0.2825    3.8002 H   0  0  0  0  0  0  0  0  0  0  0  0
    0.1054   -1.9391   -2.4245 C   0  0  0  0  0  0  0  0  0  0  0  0
    0.1054   -1.9391   -1.1027 C   0  0  0  0  0  0  0  0  0  0  0  0
    0.1054   -1.0165   -2.9928 H   0  0  0  0  0  0  0  0  0  0  0  0
    0.1054   -2.8617   -2.9928 H   0  0  0  0  0  0  0  0  0  0  0  0
    0.1054   -0.8320   -0.4207 H   0  0  0  0  0  0  0  0  0  0  0  0
    0.1054   -2.8617   -0.5343 H   0  0  0  0  0  0  0  0  0  0  0  0
  1  2  2  0
  2  3  1  0
  3  4  3  0
  4  5  1  0
  6  7  2  3
  6  8  1  0
  6  9  1  0
  7 10  1  0
  7 11  1  0
M  RAD  1   2   2
M  END
>  <reaction>  (6) 
rxn_1607

>  <mol_properties>  (6) 
{"0": {"label": "*0", "atom_type": "S2d"}, "1": {"label": "*1", "atom_type": "CS"}, "5": {"label": "*4", "atom_type": "Cd"}, "6": {"label": "*3", "atom_type": "Cd"}, "9": {"label": "*2", "atom_type": "H0"}}

>  <type>  (6) 
unop_2

>  <geom_source>  (6) 
Heuristics

$$$$

     RDKit          3D

 11  9  0  0  0  0  0  0  0  0999 V2000
   -0.9129    0.4197    1.7015 S   0  0  0  0  0  0  0  0  0  0  0  0
   -0.2174    0.3561    0.2474 C   0  0  0  0  0  3  0  0  0  0  0  0
    0.9608    1.0525   -0.1169 C   0  0  0  0  0  0  0  0  0  0  0  0
    1.9579    1.6325   -0.4494 C   0  0  0  0  0  0  0  0  0  0  0  0
    2.8419    2.1466   -0.7442 H   0  0  0  0  0  0  0  0  0  0  0  0
   -0.2174   -1.8644   -2.4424 C   0  0  0  0  0  0  0  0  0  0  0  0
   -0.2174   -1.8644   -1.1207 C   0  0  0  0  0  0  0  0  0  0  0  0
   -0.2174   -0.9418   -3.0108 H   0  0  0  0  0  0  0  0  0  0  0  0
   -0.2174   -2.7870   -3.0108 H   0  0  0  0  0  0  0  0  0  0  0  0
   -0.2174   -0.7573   -0.4386 H   0  0  0  0  0  0  0  0  0  0  0  0
   -0.2174   -2.7870   -0.5523 H   0  0  0  0  0  0  0  0  0  0  0  0
  1  2  2  0
  2  3  1  0
  3  4  3  0
  4  5  1  0
  6  7  2  3
  6  8  1  0
  6  9  1  0
  7 10  1  0
  7 11  1  0
M  RAD  1   2   2
M  END
>  <reaction>  (7) 
rxn_1607

>  <mol_properties>  (7) 
{"0": {"label": "*0", "atom_type": "S2d"}, "1": {"label": "*1", "atom_type": "CS"}, "5": {"label": "*4", "atom_type": "Cd"}, "6": {"label": "*3", "atom_type": "Cd"}, "9": {"label": "*2", "atom_type": "H0"}}

>  <type>  (7) 
unop_3

>  <geom_source>  (7) 
Heuristics

$$$$

     RDKit          3D

 11  9  0  0  0  0  0  0  0  0999 V2000
    1.0854    1.4366    0.0238 S   0  0  0  0  0  0  0  0  0  0  0  0
   -0.1192    0.3763    0.1875 C   0  0  0  0  0  3  0  0  0  0  0  0
   -0.8464    0.1563    1.3827 C   0  0  0  0  0  0  0  0  0  0  0  0
   -1.4769   -0.0481    2.3836 C   0  0  0  0  0  0  0  0  0  0  0  0
   -2.0359   -0.2293    3.2710 H   0  0  0  0  0  0  0  0  0  0  0  0
   -0.1192   -1.8443   -2.5023 C   0  0  0  0  0  0  0  0  0  0  0  0
   -0.1192   -1.8443   -1.1806 C   0  0  0  0  0  0  0  0  0  0  0  0
   -0.1192   -0.9217   -3.0707 H   0  0  0  0  0  0  0  0  0  0  0  0
   -0.1192   -2.7669   -3.0707 H   0  0  0  0  0  0  0  0  0  0  0  0
   -0.1192   -0.7372   -0.4985 H   0  0  0  0  0  0  0  0  0  0  0  0
   -0.1192   -2.7669   -0.6122 H   0  0  0  0  0  0  0  0  0  0  0  0
  1  2  2  0
  2  3  1  0
  3  4  3  0
  4  5  1  0
  6  7  2  3
  6  8  1  0
  6  9  1  0
  7 10  1  0
  7 11  1  0
M  RAD  1   2   2
M  END
>  <reaction>  (8) 
rxn_1607

>  <mol_properties>  (8) 
{"0": {"label": "*0", "atom_type": "S2d"}, "1": {"label": "*1", "atom_type": "CS"}, "5": {"label": "*4", "atom_type": "Cd"}, "6": {"label": "*3", "atom_type": "Cd"}, "9": {"label": "*2", "atom_type": "H0"}}

>  <type>  (8) 
unop_4

>  <geom_source>  (8) 
Heuristics

$$$$

     RDKit          3D

 11  9  0  0  0  0  0  0  0  0999 V2000
    0.0000    0.1716    1.9668 S   0  0  0  0  0  0  0  0  0  0  0  0
    0.0000    0.2058    0.3540 C   0  0  0  0  0  3  0  0  0  0  0  0
   -0.0000    1.3851   -0.4301 C   0  0  0  0  0  0  0  0  0  0  0  0
   -0.0000    2.3703   -1.1162 C   0  0  0  0  0  0  0  0  0  0  0  0
   -0.0000    3.2436   -1.7244 H   0  0  0  0  0  0  0  0  0  0  0  0
    0.0000   -2.0148   -2.3358 C   0  0  0  0  0  0  0  0  0  0  0  0
    0.0000   -2.0148   -1.0141 C   0  0  0  0  0  0  0  0  0  0  0  0
    0.0000   -1.0922   -2.9042 H   0  0  0  0  0  0  0  0  0  0  0  0
    0.0000   -2.9374   -2.9042 H   0  0  0  0  0  0  0  0  0  0  0  0
    0.0000   -0.9077   -0.3320 H   0  0  0  0  0  0  0  0  0  0  0  0
   -0.0000   -2.9374   -0.4457 H   0  0  0  0  0  0  0  0  0  0  0  0
  1  2  2  0
  2  3  1  0
  3  4  3  0
  4  5  1  0
  6  7  2  3
  6  8  1  0
  6  9  1  0
  7 10  1  0
  7 11  1  0
M  RAD  1   2   2
M  END
>  <reaction>  (9) 
rxn_1607

>  <mol_properties>  (9) 
{"0": {"label": "*0", "atom_type": "S2d"}, "1": {"label": "*1", "atom_type": "CS"}, "5": {"label": "*4", "atom_type": "Cd"}, "6": {"label": "*3", "atom_type": "Cd"}, "9": {"label": "*2", "atom_type": "H0"}}

>  <type>  (9) 
unop_5

>  <geom_source>  (9) 
Heuristics

$$$$

     RDKit          3D

 11  9  0  0  0  0  0  0  0  0999 V2000
    1.3660    1.1512    0.5583 S   0  0  0  0  0  0  0  0  0  0  0  0
   -0.0251    0.4557    0.1298 C   0  0  0  0  0  3  0  0  0  0  0  0
   -1.1630    0.3410    0.9651 C   0  0  0  0  0  0  0  0  0  0  0  0
   -2.1402    0.2316    1.6539 C   0  0  0  0  0  0  0  0  0  0  0  0
   -3.0064    0.1347    2.2645 H   0  0  0  0  0  0  0  0  0  0  0  0
   -0.0251   -1.7648   -2.5599 C   0  0  0  0  0  0  0  0  0  0  0  0
   -0.0251   -1.7648   -1.2382 C   0  0  0  0  0  0  0  0  0  0  0  0
   -0.0251   -0.8422   -3.1283 H   0  0  0  0  0  0  0  0  0  0  0  0
   -0.0251   -2.6874   -3.1283 H   0  0  0  0  0  0  0  0  0  0  0  0
   -0.0251   -0.6577   -0.5561 H   0  0  0  0  0  0  0  0  0  0  0  0
   -0.0251   -2.6874   -0.6698 H   0  0  0  0  0  0  0  0  0  0  0  0
  1  2  2  0
  2  3  1  0
  3  4  3  0
  4  5  1  0
  6  7  2  3
  6  8  1  0
  6  9  1  0
  7 10  1  0
  7 11  1  0
M  RAD  1   2   2
M  END
>  <reaction>  (10) 
rxn_1607

>  <mol_properties>  (10) 
{"0": {"label": "*0", "atom_type": "S2d"}, "1": {"label": "*1", "atom_type": "CS"}, "5": {"label": "*4", "atom_type": "Cd"}, "6": {"label": "*3", "atom_type": "Cd"}, "9": {"label": "*2", "atom_type": "H0"}}

>  <type>  (10) 
unop_6

>  <geom_source>  (10) 
Heuristics

$$$$

     RDKit          3D

 11  9  0  0  0  0  0  0  0  0999 V2000
    1.3301    0.7949    1.1639 S   0  0  0  0  0  0  0  0  0  0  0  0
    0.1254    0.4642    0.1433 C   0  0  0  0  0  3  0  0  0  0  0  0
   -1.2499    0.6429    0.4302 C   0  0  0  0  0  0  0  0  0  0  0  0
   -2.4215    0.7857    0.6497 C   0  0  0  0  0  0  0  0  0  0  0  0
   -3.4601    0.9122    0.8443 H   0  0  0  0  0  0  0  0  0  0  0  0
    0.1254   -1.7564   -2.5465 C   0  0  0  0  0  0  0  0  0  0  0  0
    0.1254   -1.7564   -1.2248 C   0  0  0  0  0  0  0  0  0  0  0  0
    0.1254   -0.8338   -3.1149 H   0  0  0  0  0  0  0  0  0  0  0  0
    0.1254   -2.6789   -3.1149 H   0  0  0  0  0  0  0  0  0  0  0  0
    0.1254   -0.6493   -0.5427 H   0  0  0  0  0  0  0  0  0  0  0  0
    0.1254   -2.6789   -0.6564 H   0  0  0  0  0  0  0  0  0  0  0  0
  1  2  2  0
  2  3  1  0
  3  4  3  0
  4  5  1  0
  6  7  2  3
  6  8  1  0
  6  9  1  0
  7 10  1  0
  7 11  1  0
M  RAD  1   2   2
M  END
>  <reaction>  (11) 
rxn_1607

>  <mol_properties>  (11) 
{"0": {"label": "*0", "atom_type": "S2d"}, "1": {"label": "*1", "atom_type": "CS"}, "5": {"label": "*4", "atom_type": "Cd"}, "6": {"label": "*3", "atom_type": "Cd"}, "9": {"label": "*2", "atom_type": "H0"}}

>  <type>  (11) 
unop_7

>  <geom_source>  (11) 
Heuristics

$$$$

     RDKit          3D

 11  9  0  0  0  0  0  0  0  0999 V2000
   -1.3660    1.1512    0.5583 S   0  0  0  0  0  0  0  0  0  0  0  0
    0.0251    0.4557    0.1298 C   0  0  0  0  0  3  0  0  0  0  0  0
    1.1630    0.3410    0.9651 C   0  0  0  0  0  0  0  0  0  0  0  0
    2.1402    0.2316    1.6539 C   0  0  0  0  0  0  0  0  0  0  0  0
    3.0064    0.1347    2.2645 H   0  0  0  0  0  0  0  0  0  0  0  0
    0.0251   -1.7648   -2.5599 C   0  0  0  0  0  0  0  0  0  0  0  0
    0.0251   -1.7648   -1.2382 C   0  0  0  0  0  0  0  0  0  0  0  0
    0.0251   -0.8422   -3.1283 H   0  0  0  0  0  0  0  0  0  0  0  0
    0.0251   -2.6874   -3.1283 H   0  0  0  0  0  0  0  0  0  0  0  0
    0.0251   -0.6577   -0.5561 H   0  0  0  0  0  0  0  0  0  0  0  0
    0.0251   -2.6874   -0.6698 H   0  0  0  0  0  0  0  0  0  0  0  0
  1  2  2  0
  2  3  1  0
  3  4  3  0
  4  5  1  0
  6  7  2  3
  6  8  1  0
  6  9  1  0
  7 10  1  0
  7 11  1  0
M  RAD  1   2   2
M  END
>  <reaction>  (12) 
rxn_1607

>  <mol_properties>  (12) 
{"0": {"label": "*0", "atom_type": "S2d"}, "1": {"label": "*1", "atom_type": "CS"}, "5": {"label": "*4", "atom_type": "Cd"}, "6": {"label": "*3", "atom_type": "Cd"}, "9": {"label": "*2", "atom_type": "H0"}}

>  <type>  (12) 
unop_8

>  <geom_source>  (12) 
Heuristics

$$$$

     RDKit          3D

 11  9  0  0  0  0  0  0  0  0999 V2000
    0.5901    1.6088   -0.3319 S   0  0  0  0  0  0  0  0  0  0  0  0
   -0.1054    0.2814    0.2653 C   0  0  0  0  0  3  0  0  0  0  0  0
   -0.4284    0.0814    1.6296 C   0  0  0  0  0  0  0  0  0  0  0  0
   -0.7116   -0.1115    2.7802 C   0  0  0  0  0  0  0  0  0  0  0  0
   -0.9627   -0.2825    3.8002 H   0  0  0  0  0  0  0  0  0  0  0  0
   -0.1054   -1.9391   -2.4245 C   0  0  0  0  0  0  0  0  0  0  0  0
   -0.1054   -1.9391   -1.1027 C   0  0  0  0  0  0  0  0  0  0  0  0
   -0.1054   -1.0165   -2.9928 H   0  0  0  0  0  0  0  0  0  0  0  0
   -0.1054   -2.8617   -2.9928 H   0  0  0  0  0  0  0  0  0  0  0  0
   -0.1054   -0.8320   -0.4207 H   0  0  0  0  0  0  0  0  0  0  0  0
   -0.1054   -2.8617   -0.5343 H   0  0  0  0  0  0  0  0  0  0  0  0
  1  2  2  0
  2  3  1  0
  3  4  3  0
  4  5  1  0
  6  7  2  3
  6  8  1  0
  6  9  1  0
  7 10  1  0
  7 11  1  0
M  RAD  1   2   2
M  END
>  <reaction>  (13) 
rxn_1607

>  <mol_properties>  (13) 
{"0": {"label": "*0", "atom_type": "S2d"}, "1": {"label": "*1", "atom_type": "CS"}, "5": {"label": "*4", "atom_type": "Cd"}, "6": {"label": "*3", "atom_type": "Cd"}, "9": {"label": "*2", "atom_type": "H0"}}

>  <type>  (13) 
unop_9

>  <geom_source>  (13) 
Heuristics

$$$$

     RDKit          3D

 11  9  0  0  0  0  0  0  0  0999 V2000
   -1.0854    1.4366    0.0238 S   0  0  0  0  0  0  0  0  0  0  0  0
    0.1192    0.3763    0.1875 C   0  0  0  0  0  3  0  0  0  0  0  0
    0.8464    0.1563    1.3827 C   0  0  0  0  0  0  0  0  0  0  0  0
    1.4769   -0.0481    2.3836 C   0  0  0  0  0  0  0  0  0  0  0  0
    2.0359   -0.2293    3.2710 H   0  0  0  0  0  0  0  0  0  0  0  0
    0.1192   -1.8443   -2.5023 C   0  0  0  0  0  0  0  0  0  0  0  0
    0.1192   -1.8443   -1.1806 C   0  0  0  0  0  0  0  0  0  0  0  0
    0.1192   -0.9217   -3.0707 H   0  0  0  0  0  0  0  0  0  0  0  0
    0.1192   -2.7669   -3.0707 H   0  0  0  0  0  0  0  0  0  0  0  0
    0.1192   -0.7372   -0.4985 H   0  0  0  0  0  0  0  0  0  0  0  0
    0.1192   -2.7669   -0.6122 H   0  0  0  0  0  0  0  0  0  0  0  0
  1  2  2  0
  2  3  1  0
  3  4  3  0
  4  5  1  0
  6  7  2  3
  6  8  1  0
  6  9  1  0
  7 10  1  0
  7 11  1  0
M  RAD  1   2   2
M  END
>  <reaction>  (14) 
rxn_1607

>  <mol_properties>  (14) 
{"0": {"label": "*0", "atom_type": "S2d"}, "1": {"label": "*1", "atom_type": "CS"}, "5": {"label": "*4", "atom_type": "Cd"}, "6": {"label": "*3", "atom_type": "Cd"}, "9": {"label": "*2", "atom_type": "H0"}}

>  <type>  (14) 
unop_10

>  <geom_source>  (14) 
Heuristics

$$$$

     RDKit          3D

 11  9  0  0  0  0  0  0  0  0999 V2000
    0.9129    0.4197    1.7015 S   0  0  0  0  0  0  0  0  0  0  0  0
    0.2174    0.3561    0.2474 C   0  0  0  0  0  3  0  0  0  0  0  0
   -0.9608    1.0524   -0.1169 C   0  0  0  0  0  0  0  0  0  0  0  0
   -1.9579    1.6325   -0.4494 C   0  0  0  0  0  0  0  0  0  0  0  0
   -2.8419    2.1466   -0.7442 H   0  0  0  0  0  0  0  0  0  0  0  0
    0.2174   -1.8644   -2.4424 C   0  0  0  0  0  0  0  0  0  0  0  0
    0.2174   -1.8644   -1.1207 C   0  0  0  0  0  0  0  0  0  0  0  0
    0.2174   -0.9418   -3.0108 H   0  0  0  0  0  0  0  0  0  0  0  0
    0.2174   -2.7870   -3.0108 H   0  0  0  0  0  0  0  0  0  0  0  0
    0.2174   -0.7573   -0.4386 H   0  0  0  0  0  0  0  0  0  0  0  0
    0.2174   -2.7870   -0.5523 H   0  0  0  0  0  0  0  0  0  0  0  0
  1  2  2  0
  2  3  1  0
  3  4  3  0
  4  5  1  0
  6  7  2  3
  6  8  1  0
  6  9  1  0
  7 10  1  0
  7 11  1  0
M  RAD  1   2   2
M  END
>  <reaction>  (15) 
rxn_1607

>  <mol_properties>  (15) 
{"0": {"label": "*0", "atom_type": "S2d"}, "1": {"label": "*1", "atom_type": "CS"}, "5": {"label": "*4", "atom_type": "Cd"}, "6": {"label": "*3", "atom_type": "Cd"}, "9": {"label": "*2", "atom_type": "H0"}}

>  <type>  (15) 
unop_11

>  <geom_source>  (15) 
Heuristics

$$$$

     RDKit          3D

 11  9  0  0  0  0  0  0  0  0999 V2000
   -0.0000    1.6633   -0.4544 S   0  0  0  0  0  0  0  0  0  0  0  0
   -0.0000    0.2381    0.3014 C   0  0  0  0  0  3  0  0  0  0  0  0
    0.0000    0.0682    1.7074 C   0  0  0  0  0  0  0  0  0  0  0  0
    0.0000   -0.1015    2.8959 C   0  0  0  0  0  0  0  0  0  0  0  0
    0.0000   -0.2519    3.9494 H   0  0  0  0  0  0  0  0  0  0  0  0
   -0.0000   -1.9824   -2.3883 C   0  0  0  0  0  0  0  0  0  0  0  0
   -0.0000   -1.9824   -1.0666 C   0  0  0  0  0  0  0  0  0  0  0  0
    0.0000   -1.0598   -2.9567 H   0  0  0  0  0  0  0  0  0  0  0  0
   -0.0000   -2.9050   -2.9567 H   0  0  0  0  0  0  0  0  0  0  0  0
   -0.0000   -0.8753   -0.3845 H   0  0  0  0  0  0  0  0  0  0  0  0
   -0.0000   -2.9050   -0.4982 H   0  0  0  0  0  0  0  0  0  0  0  0
  1  2  2  0
  2  3  1  0
  3  4  3  0
  4  5  1  0
  6  7  2  3
  6  8  1  0
  6  9  1  0
  7 10  1  0
  7 11  1  0
M  RAD  1   2   2
M  END
>  <reaction>  (16) 
rxn_1607

>  <mol_properties>  (16) 
{"0": {"label": "*0", "atom_type": "S2d"}, "1": {"label": "*1", "atom_type": "CS"}, "5": {"label": "*4", "atom_type": "Cd"}, "6": {"label": "*3", "atom_type": "Cd"}, "9": {"label": "*2", "atom_type": "H0"}}

>  <type>  (16) 
unop_12

>  <geom_source>  (16) 
Heuristics

$$$$

     RDKit          3D

 11  9  0  0  0  0  0  0  0  0999 V2000
    0.5788    2.3261   -0.8362 S   0  0  0  0  0  0  0  0  0  0  0  0
    0.8813    0.8481   -0.2128 C   0  0  0  0  0  3  0  0  0  0  0  0
   -2.4840   -0.4856    0.1800 C   0  0  0  0  0  0  0  0  0  0  0  0
    2.1321    0.1972   -0.4806 C   0  0  0  0  0  0  0  0  0  0  0  0
   -1.3063   -0.1841    0.7190 C   0  0  0  0  0  0  0  0  0  0  0  0
    3.1823   -0.3504   -0.7048 C   0  0  0  0  0  0  0  0  0  0  0  0
   -0.0952    0.2045    0.5964 H   0  0  0  0  0  0  0  0  0  0  0  0
   -3.2136   -1.0599    0.7418 H   0  0  0  0  0  0  0  0  0  0  0  0
   -2.7176   -0.1561   -0.8263 H   0  0  0  0  0  0  0  0  0  0  0  0
   -1.0622   -0.5088    1.7253 H   0  0  0  0  0  0  0  0  0  0  0  0
    4.1043   -0.8311   -0.9018 H   0  0  0  0  0  0  0  0  0  0  0  0
  1  2  2  0
  2  4  1  0
  3  5  2  3
  3  8  1  0
  3  9  1  0
  4  6  3  0
  5  7  1  0
  5 10  1  0
  6 11  1  0
M  RAD  1   2   2
M  END
>  <reaction>  (17) 
rxn_1607

>  <mol_properties>  (17) 
{"0": {"label": "*0", "atom_type": "S2d"}, "1": {"label": "*1", "atom_type": "CS"}, "5": {"label": "*4", "atom_type": "Cd"}, "6": {"label": "*3", "atom_type": "Cd"}, "9": {"label": "*2", "atom_type": "H0"}}

>  <type>  (17) 
unop_13

>  <geom_source>  (17) 
AutoTST

$$$$
