
     RDKit          3D

 15 15  0  0  0  0  0  0  0  0999 V2000
    2.2031   -0.2111   -0.1693 C   0  0  0  0  0  0  0  0  0  0  0  0
    0.7140   -0.0314   -0.0623 C   0  0  0  0  0  0  0  0  0  0  0  0
   -0.0114    0.5491   -1.0982 C   0  0  0  0  0  0  0  0  0  0  0  0
   -1.3882    0.6886   -1.0150 C   0  0  0  0  0  0  0  0  0  0  0  0
   -2.0661    0.2493    0.1118 C   0  0  0  0  0  0  0  0  0  0  0  0
   -1.3551   -0.3278    1.1528 C   0  0  0  0  0  0  0  0  0  0  0  0
    0.0216   -0.4648    1.0642 C   0  0  0  0  0  0  0  0  0  0  0  0
    2.6776   -0.1836    0.8122 H   0  0  0  0  0  0  0  0  0  0  0  0
    2.4446   -1.1749   -0.6249 H   0  0  0  0  0  0  0  0  0  0  0  0
    2.6532    0.5664   -0.7875 H   0  0  0  0  0  0  0  0  0  0  0  0
    0.5104    0.8989   -1.9819 H   0  0  0  0  0  0  0  0  0  0  0  0
   -1.9328    1.1452   -1.8322 H   0  0  0  0  0  0  0  0  0  0  0  0
   -3.1409    0.3597    0.1800 H   0  0  0  0  0  0  0  0  0  0  0  0
   -1.8736   -0.6702    2.0398 H   0  0  0  0  0  0  0  0  0  0  0  0
    0.5695   -0.9141    1.8849 H   0  0  0  0  0  0  0  0  0  0  0  0
  1  2  1  0
  1  8  1  0
  1  9  1  0
  1 10  1  0
  2  3  2  0
  2  7  1  0
  3  4  1  0
  3 11  1  0
  4  5  2  0
  4 12  1  0
  5  6  1  0
  5 13  1  0
  6  7  2  0
  6 14  1  0
  7 15  1  0
M  END
>  <reaction>  (1) 
rxn_1433

>  <mol_properties>  (1) 
{"6": {"label": "donator", "atom_type": "Cs"}, "14": {"label": "d_hydrogen", "atom_type": "H0"}}

>  <type>  (1) 
r1h

$$$$

     RDKit          3D

  1  0  0  0  0  0  0  0  0  0999 V2000
    0.0000    0.0000    0.0000 H   0  0  0  0  0 15  0  0  0  0  0  0
M  END
>  <reaction>  (2) 
rxn_1433

>  <mol_properties>  (2) 
{"0": {"label": "acceptor", "atom_type": "H0"}}

>  <type>  (2) 
r2

$$$$

     RDKit          3D

  2  1  0  0  0  0  0  0  0  0999 V2000
    0.0000    0.0000    0.3721 H   0  0  0  0  0  0  0  0  0  0  0  0
    0.0000    0.0000   -0.3721 H   0  0  0  0  0  0  0  0  0  0  0  0
  1  2  1  0
M  END
>  <reaction>  (3) 
rxn_1433

>  <mol_properties>  (3) 
{"0": {"label": "acceptor", "atom_type": "H0"}, "1": {"label": "a_hydrogen", "atom_type": "H0"}}

>  <type>  (3) 
r2h

$$$$

     RDKit          3D

 16 15  0  0  0  0  0  0  0  0999 V2000
    0.4806   -0.1148   -0.2683 C   0  0  0  0  0  0  0  0  0  0  0  0
   -0.3143   -1.1679    0.1853 C   0  0  0  0  0  0  0  0  0  0  0  0
   -0.1127    1.1363   -0.4396 C   0  0  0  0  0  0  0  0  0  0  0  0
   -1.6596   -0.9788    0.4524 C   0  0  0  0  0  0  0  0  0  0  0  0
   -2.2370    0.2701    0.2745 C   0  0  0  0  0  0  0  0  0  0  0  0
   -1.4579    1.3273   -0.1730 C   0  0  0  0  0  0  0  0  0  0  0  0
    1.9224   -0.3080   -0.5157 C   0  0  0  0  0  0  0  0  0  0  0  0
    0.1305   -2.1463    0.3261 H   0  0  0  0  0  0  0  0  0  0  0  0
   -2.2611   -1.8096    0.7997 H   0  0  0  0  0  0  0  0  0  0  0  0
   -3.2890    0.4184    0.4819 H   0  0  0  0  0  0  0  0  0  0  0  0
   -1.9012    2.3048   -0.3161 H   0  0  0  0  0  0  0  0  0  0  0  0
    0.4902    1.9664   -0.7893 H   0  0  0  0  0  0  0  0  0  0  0  0
    2.2106   -1.3315   -0.7462 H   0  0  0  0  0  0  0  0  0  0  0  0
    2.3620    0.3995   -1.2156 H   0  0  0  0  0  0  0  0  0  0  0  0
    3.0943    0.1104    1.4050 H   0  0  0  0  0 15  0  0  0  0  0  0
    2.5423   -0.0762    0.5388 H   0  0  0  0  0  0  0  0  0  0  0  0
  1  7  1  0
  1  2  2  0
  1  3  1  0
  2  4  1  0
  2  8  1  0
  3  6  2  0
  3 12  1  0
  4  5  2  0
  4  9  1  0
  5  6  1  0
  5 10  1  0
  6 11  1  0
  7 13  1  0
  7 14  1  0
  7 16  1  0
M  END
>  <reaction>  (4) 
rxn_1433

>  <mol_properties>  (4) 
{"0": {"label": "*4", "atom_type": "Cd"}, "6": {"label": "*3", "atom_type": "Cs"}, "14": {"label": "*1", "atom_type": "H0"}, "15": {"label": "*2", "atom_type": "H0"}}

>  <type>  (4) 
ts

$$$$

     RDKit          3D

 16 15  0  0  0  0  0  0  0  0999 V2000
   -1.0051   -1.7735    3.2128 H   0  0  0  0  0 15  0  0  0  0  0  0
   -0.0127    0.0211    2.4119 C   0  0  0  0  0  0  0  0  0  0  0  0
   -0.0127    0.0211    0.9082 C   0  0  0  0  0  0  0  0  0  0  0  0
   -0.0127    1.2154    0.1941 C   0  0  0  0  0  0  0  0  0  0  0  0
    0.0177    1.2188   -1.1919 C   0  0  0  0  0  0  0  0  0  0  0  0
    0.0473    0.0218   -1.8909 C   0  0  0  0  0  0  0  0  0  0  0  0
    0.0441   -1.1756   -1.1919 C   0  0  0  0  0  0  0  0  0  0  0  0
    0.0136   -1.1729    0.1941 C   0  0  0  0  0  0  0  0  0  0  0  0
   -0.6026   -1.0456    2.8880 H   0  0  0  0  0  0  0  0  0  0  0  0
    1.0095    0.0323    2.7987 H   0  0  0  0  0  0  0  0  0  0  0  0
   -0.5237    0.8990    2.8086 H   0  0  0  0  0  0  0  0  0  0  0  0
   -0.0393    2.1565    0.7319 H   0  0  0  0  0  0  0  0  0  0  0  0
    0.0151    2.1600   -1.7276 H   0  0  0  0  0  0  0  0  0  0  0  0
    0.0684    0.0220   -2.9733 H   0  0  0  0  0  0  0  0  0  0  0  0
    0.0623   -2.1167   -1.7276 H   0  0  0  0  0  0  0  0  0  0  0  0
    0.0078   -2.1144    0.7319 H   0  0  0  0  0  0  0  0  0  0  0  0
  2  3  1  0
  2  9  1  0
  2 10  1  0
  2 11  1  0
  3  4  2  0
  3  8  1  0
  4  5  1  0
  4 12  1  0
  5  6  2  0
  5 13  1  0
  6  7  1  0
  6 14  1  0
  7  8  2  0
  7 15  1  0
  8 16  1  0
M  END
>  <reaction>  (5) 
rxn_1433

>  <mol_properties>  (5) 
{"0": {"label": "*4", "atom_type": "Cd"}, "6": {"label": "*3", "atom_type": "Cs"}, "14": {"label": "*1", "atom_type": "H0"}, "15": {"label": "*2", "atom_type": "H0"}}

>  <type>  (5) 
unop_1

>  <geom_source>  (5) 
Heuristics

$$$$

     RDKit          3D

 16 15  0  0  0  0  0  0  0  0999 V2000
    0.4724   -0.1593   -0.1519 C   0  0  0  0  0  0  0  0  0  0  0  0
   -0.1422    1.0596   -0.4690 C   0  0  0  0  0  0  0  0  0  0  0  0
   -0.2969   -1.2131    0.3640 C   0  0  0  0  0  0  0  0  0  0  0  0
   -1.5173    1.2236   -0.2714 C   0  0  0  0  0  0  0  0  0  0  0  0
   -2.2816    0.1716    0.2429 C   0  0  0  0  0  0  0  0  0  0  0  0
   -1.6717   -1.0460    0.5604 C   0  0  0  0  0  0  0  0  0  0  0  0
    1.9404   -0.3279   -0.3651 C   0  0  0  0  0  0  0  0  0  0  0  0
    0.4418    1.8800   -0.8678 H   0  0  0  0  0  0  0  0  0  0  0  0
   -1.9903    2.1657   -0.5169 H   0  0  0  0  0  0  0  0  0  0  0  0
    0.1674   -2.1595    0.6126 H   0  0  0  0  0  0  0  0  0  0  0  0
   -3.3455    0.2998    0.3953 H   0  0  0  0  0  0  0  0  0  0  0  0
   -2.2640   -1.8598    0.9585 H   0  0  0  0  0  0  0  0  0  0  0  0
    2.1305   -1.1472   -1.0899 H   0  0  0  0  0  0  0  0  0  0  0  0
    2.4443   -0.5499    0.5990 H   0  0  0  0  0  0  0  0  0  0  0  0
    3.4315    1.1843    0.2640 H   0  0  0  0  0 15  0  0  0  0  0  0
    2.4813    0.4780   -0.2649 H   0  0  0  0  0  0  0  0  0  0  0  0
  1  7  1  0
  1  2  2  0
  1  3  1  0
  2  4  1  0
  2  8  1  0
  3  6  2  0
  3 10  1  0
  4  5  2  0
  4  9  1  0
  5  6  1  0
  5 11  1  0
  6 12  1  0
  7 13  1  0
  7 14  1  0
  7 16  1  0
M  END
>  <reaction>  (6) 
rxn_1433

>  <mol_properties>  (6) 
{"0": {"label": "*4", "atom_type": "Cd"}, "6": {"label": "*3", "atom_type": "Cs"}, "14": {"label": "*1", "atom_type": "H0"}, "15": {"label": "*2", "atom_type": "H0"}}

>  <type>  (6) 
unop_2

>  <geom_source>  (6) 
AutoTST

$$$$
