
     RDKit          3D

 12 11  0  0  0  0  0  0  0  0999 V2000
    1.9877    0.1011    0.4814 C   0  0  0  0  0  0  0  0  0  0  0  0
    0.8179    0.5502    0.0525 C   0  0  0  0  0  0  0  0  0  0  0  0
   -0.2939   -0.2692   -0.5320 C   0  0  0  0  0  0  0  0  0  0  0  0
   -0.0292   -1.7631   -0.6328 C   0  0  0  0  0  0  0  0  0  0  0  0
    2.2522   -0.9490    0.4436 H   0  0  0  0  0  0  0  0  0  0  0  0
    2.7295    0.7757    0.8896 H   0  0  0  0  0  0  0  0  0  0  0  0
    0.6162    1.6164    0.1190 H   0  0  0  0  0  0  0  0  0  0  0  0
   -0.5268    0.1319   -1.5245 H   0  0  0  0  0  0  0  0  0  0  0  0
   -1.1959   -0.0938    0.0644 H   0  0  0  0  0  0  0  0  0  0  0  0
    0.1590   -2.1992    0.3502 H   0  0  0  0  0  0  0  0  0  0  0  0
    0.8382   -1.9701   -1.2626 H   0  0  0  0  0  0  0  0  0  0  0  0
   -0.8879   -2.2759   -1.0672 H   0  0  0  0  0  0  0  0  0  0  0  0
  1  2  2  3
  1  5  1  0
  1  6  1  0
  2  3  1  0
  2  7  1  0
  3  4  1  0
  3  8  1  0
  3  9  1  0
  4 10  1  0
  4 11  1  0
  4 12  1  0
M  END
>  <reaction>  (1) 
rxn_1053

>  <mol_properties>  (1) 
{"2": {"label": "donator", "atom_type": "Cs"}, "7": {"label": "d_hydrogen", "atom_type": "H0"}}

>  <type>  (1) 
r1h

$$$$

     RDKit          3D

 20 20  0  0  0  0  0  0  0  0999 V2000
   -2.4774    0.8083    0.1488 C   0  0  0  0  0  0  0  0  0  0  0  0
   -1.4172   -0.1696   -0.2476 C   0  0  0  0  0  3  0  0  0  0  0  0
   -0.2904    0.2932   -1.1156 C   0  0  0  0  0  0  0  0  0  0  0  0
   -1.4797   -1.5204    0.1947 C   0  0  0  0  0  0  0  0  0  0  0  0
   -0.4907   -2.4664   -0.1650 C   0  0  0  0  0  0  0  0  0  0  0  0
   -0.5559   -3.7750    0.2665 C   0  0  0  0  0  0  0  0  0  0  0  0
   -1.6038   -4.2041    1.0733 C   0  0  0  0  0  0  0  0  0  0  0  0
   -2.5899   -3.2959    1.4424 C   0  0  0  0  0  0  0  0  0  0  0  0
   -2.5339   -1.9852    1.0162 C   0  0  0  0  0  0  0  0  0  0  0  0
   -3.4697    0.4933   -0.1924 H   0  0  0  0  0  0  0  0  0  0  0  0
   -2.5434    0.9184    1.2368 H   0  0  0  0  0  0  0  0  0  0  0  0
   -2.2829    1.7944   -0.2706 H   0  0  0  0  0  0  0  0  0  0  0  0
   -0.2452   -0.2661   -2.0565 H   0  0  0  0  0  0  0  0  0  0  0  0
   -0.3905    1.3487   -1.3647 H   0  0  0  0  0  0  0  0  0  0  0  0
    0.6811    0.1589   -0.6274 H   0  0  0  0  0  0  0  0  0  0  0  0
    0.3373   -2.1635   -0.7918 H   0  0  0  0  0  0  0  0  0  0  0  0
    0.2187   -4.4725   -0.0281 H   0  0  0  0  0  0  0  0  0  0  0  0
   -1.6513   -5.2316    1.4097 H   0  0  0  0  0  0  0  0  0  0  0  0
   -3.4116   -3.6175    2.0706 H   0  0  0  0  0  0  0  0  0  0  0  0
   -3.3164   -1.3029    1.3205 H   0  0  0  0  0  0  0  0  0  0  0  0
  1  2  1  0
  1 10  1  0
  1 11  1  0
  1 12  1  0
  2  3  1  0
  2  4  1  0
  3 13  1  0
  3 14  1  0
  3 15  1  0
  4  5  2  0
  4  9  1  0
  5  6  1  0
  5 16  1  0
  6  7  2  0
  6 17  1  0
  7  8  1  0
  7 18  1  0
  8  9  2  0
  8 19  1  0
  9 20  1  0
M  RAD  1   2   2
M  END
>  <reaction>  (2) 
rxn_1053

>  <mol_properties>  (2) 
{"1": {"label": "acceptor", "atom_type": "Cs"}}

>  <type>  (2) 
r2

$$$$

     RDKit          3D

 21 21  0  0  0  0  0  0  0  0999 V2000
   -1.3695    1.3367   -1.0719 C   0  0  0  0  0  0  0  0  0  0  0  0
   -1.4091   -0.0981   -0.5428 C   0  0  0  0  0  0  0  0  0  0  0  0
   -0.1819   -0.3999    0.3191 C   0  0  0  0  0  0  0  0  0  0  0  0
   -1.5636   -1.1028   -1.6652 C   0  0  0  0  0  0  0  0  0  0  0  0
   -0.5920   -1.2314   -2.6553 C   0  0  0  0  0  0  0  0  0  0  0  0
   -0.7353   -2.1509   -3.6809 C   0  0  0  0  0  0  0  0  0  0  0  0
   -1.8582   -2.9642   -3.7377 C   0  0  0  0  0  0  0  0  0  0  0  0
   -2.8325   -2.8475   -2.7602 C   0  0  0  0  0  0  0  0  0  0  0  0
   -2.6828   -1.9241   -1.7351 C   0  0  0  0  0  0  0  0  0  0  0  0
   -0.4920    1.4974   -1.7025 H   0  0  0  0  0  0  0  0  0  0  0  0
   -2.2553    1.5607   -1.6679 H   0  0  0  0  0  0  0  0  0  0  0  0
   -1.3211    2.0496   -0.2461 H   0  0  0  0  0  0  0  0  0  0  0  0
   -2.2930   -0.1918    0.0948 H   0  0  0  0  0  0  0  0  0  0  0  0
   -0.1215    0.2955    1.1588 H   0  0  0  0  0  0  0  0  0  0  0  0
   -0.2200   -1.4155    0.7159 H   0  0  0  0  0  0  0  0  0  0  0  0
    0.7383   -0.3016   -0.2615 H   0  0  0  0  0  0  0  0  0  0  0  0
    0.2915   -0.6040   -2.6263 H   0  0  0  0  0  0  0  0  0  0  0  0
    0.0326   -2.2338   -4.4401 H   0  0  0  0  0  0  0  0  0  0  0  0
   -1.9712   -3.6833   -4.5391 H   0  0  0  0  0  0  0  0  0  0  0  0
   -3.7135   -3.4765   -2.7932 H   0  0  0  0  0  0  0  0  0  0  0  0
   -3.4509   -1.8400   -0.9743 H   0  0  0  0  0  0  0  0  0  0  0  0
  1  2  1  0
  1 10  1  0
  1 11  1  0
  1 12  1  0
  2  3  1  0
  2  4  1  0
  2 13  1  0
  3 14  1  0
  3 15  1  0
  3 16  1  0
  4  5  2  0
  4  9  1  0
  5  6  1  0
  5 17  1  0
  6  7  2  0
  6 18  1  0
  7  8  1  0
  7 19  1  0
  8  9  2  0
  8 20  1  0
  9 21  1  0
M  END
>  <reaction>  (3) 
rxn_1053

>  <mol_properties>  (3) 
{"0": {"label": "a_hydrogen", "atom_type": "H0"}, "2": {"label": "acceptor", "atom_type": "Cs"}}

>  <type>  (3) 
r2h

$$$$

     RDKit          3D

 32 31  0  0  0  0  0  0  0  0999 V2000
   -2.0633   -1.0397   -2.6676 C   0  0  0  0  0  0  0  0  0  0  0  0
   -1.9957   -0.1998   -1.6274 C   0  0  0  0  0  0  0  0  0  0  0  0
   -1.3469    1.1017   -1.6148 C   0  0  0  0  0  3  0  0  0  0  0  0
   -0.9489    1.7429   -2.9188 C   0  0  0  0  0  0  0  0  0  0  0  0
   -1.6633   -0.7843   -3.6416 H   0  0  0  0  0  0  0  0  0  0  0  0
   -2.5392   -2.0069   -2.5729 H   0  0  0  0  0  0  0  0  0  0  0  0
   -2.4211   -0.5196   -0.6806 H   0  0  0  0  0  0  0  0  0  0  0  0
   -0.1758    0.8740   -0.9876 H   0  0  0  0  0  0  0  0  0  0  0  0
   -1.7799    1.7926   -0.8923 H   0  0  0  0  0  0  0  0  0  0  0  0
   -1.8237    1.9573   -3.5400 H   0  0  0  0  0  0  0  0  0  0  0  0
   -0.2885    1.0936   -3.4974 H   0  0  0  0  0  0  0  0  0  0  0  0
   -0.4224    2.6819   -2.7443 H   0  0  0  0  0  0  0  0  0  0  0  0
    1.6680   -0.2251   -1.5340 C   0  0  0  0  0  0  0  0  0  0  0  0
    1.0336    0.6218   -0.4515 C   0  0  0  0  0  0  0  0  0  0  0  0
    1.6428    1.9975   -0.3132 C   0  0  0  0  0  0  0  0  0  0  0  0
    0.6572   -0.0789    0.7974 C   0  0  0  0  0  0  0  0  0  0  0  0
    0.6517    0.5700    2.0371 C   0  0  0  0  0  0  0  0  0  0  0  0
    0.2414   -0.0802    3.1893 C   0  0  0  0  0  0  0  0  0  0  0  0
   -0.1835   -1.3985    3.1392 C   0  0  0  0  0  0  0  0  0  0  0  0
   -0.1886   -2.0592    1.9196 C   0  0  0  0  0  0  0  0  0  0  0  0
    0.2254   -1.4114    0.7691 C   0  0  0  0  0  0  0  0  0  0  0  0
    1.0012   -1.0170   -1.8783 H   0  0  0  0  0  0  0  0  0  0  0  0
    1.9170    0.3893   -2.4001 H   0  0  0  0  0  0  0  0  0  0  0  0
    2.5902   -0.6958   -1.1781 H   0  0  0  0  0  0  0  0  0  0  0  0
    2.6075    1.9599    0.2045 H   0  0  0  0  0  0  0  0  0  0  0  0
    1.8132    2.4340   -1.2981 H   0  0  0  0  0  0  0  0  0  0  0  0
    0.9954    2.6795    0.2406 H   0  0  0  0  0  0  0  0  0  0  0  0
    0.9837    1.5965    2.1118 H   0  0  0  0  0  0  0  0  0  0  0  0
    0.2565    0.4490    4.1342 H   0  0  0  0  0  0  0  0  0  0  0  0
   -0.5047   -1.9061    4.0397 H   0  0  0  0  0  0  0  0  0  0  0  0
   -0.5176   -3.0895    1.8625 H   0  0  0  0  0  0  0  0  0  0  0  0
    0.2020   -1.9491   -0.1688 H   0  0  0  0  0  0  0  0  0  0  0  0
  1  2  2  3
  1  5  1  0
  1  6  1  0
  2  3  1  0
  2  7  1  0
  3  4  1  0
  3  9  1  0
  4 10  1  0
  4 11  1  0
  4 12  1  0
  8 14  1  0
 13 14  1  0
 13 22  1  0
 13 23  1  0
 13 24  1  0
 14 15  1  0
 14 16  1  0
 15 25  1  0
 15 26  1  0
 15 27  1  0
 16 17  2  0
 16 21  1  0
 17 18  1  0
 17 28  1  0
 18 19  2  0
 18 29  1  0
 19 20  1  0
 19 30  1  0
 20 21  2  0
 20 31  1  0
 21 32  1  0
M  RAD  1   3   2
M  END
>  <reaction>  (4) 
rxn_1053

>  <mol_properties>  (4) 
{"1": {"label": "*4", "atom_type": "Cd"}, "2": {"label": "*3", "atom_type": "Cs"}, "7": {"label": "*2", "atom_type": "H0"}, "13": {"label": "*1", "atom_type": "Cs"}, "15": {"label": "*0", "atom_type": "Cd"}}

>  <type>  (4) 
ts

$$$$

     RDKit          3D

 32 31  0  0  0  0  0  0  0  0999 V2000
   -2.0828   -0.1752   -3.5321 C   0  0  0  0  0  0  0  0  0  0  0  0
   -2.0828   -0.1752   -2.2077 C   0  0  0  0  0  0  0  0  0  0  0  0
   -2.0828    1.0293   -1.3143 C   0  0  0  0  0  3  0  0  0  0  0  0
   -2.0828    2.3750   -2.0220 C   0  0  0  0  0  0  0  0  0  0  0  0
   -2.0828    0.7417   -4.1095 H   0  0  0  0  0  0  0  0  0  0  0  0
   -2.0828   -1.1026   -4.0907 H   0  0  0  0  0  0  0  0  0  0  0  0
   -2.0828   -1.1310   -1.6895 H   0  0  0  0  0  0  0  0  0  0  0  0
   -1.0396    0.9477   -0.5185 H   0  0  0  0  0  0  0  0  0  0  0  0
   -2.9522    0.9613   -0.6511 H   0  0  0  0  0  0  0  0  0  0  0  0
   -2.9653    2.4900   -2.6544 H   0  0  0  0  0  0  0  0  0  0  0  0
   -1.2004    2.4900   -2.6544 H   0  0  0  0  0  0  0  0  0  0  0  0
   -2.0828    3.1894   -1.2967 H   0  0  0  0  0  0  0  0  0  0  0  0
    0.8756    2.0962    0.0226 C   0  0  0  0  0  0  0  0  0  0  0  0
    0.0021    0.8662    0.2761 C   0  0  0  0  0  0  0  0  0  0  0  0
   -1.1847    1.2115    1.1772 C   0  0  0  0  0  0  0  0  0  0  0  0
    0.8100   -0.2865    0.8343 C   0  0  0  0  0  0  0  0  0  0  0  0
    1.4556   -0.1842    2.0646 C   0  0  0  0  0  0  0  0  0  0  0  0
    2.1939   -1.2397    2.5733 C   0  0  0  0  0  0  0  0  0  0  0  0
    2.3022   -2.4244    1.8589 C   0  0  0  0  0  0  0  0  0  0  0  0
    1.6658   -2.5406    0.6343 C   0  0  0  0  0  0  0  0  0  0  0  0
    0.9275   -1.4792    0.1302 C   0  0  0  0  0  0  0  0  0  0  0  0
    1.7098    1.8568   -0.6385 H   0  0  0  0  0  0  0  0  0  0  0  0
    0.2903    2.8950   -0.4376 H   0  0  0  0  0  0  0  0  0  0  0  0
    1.2891    2.4823    0.9571 H   0  0  0  0  0  0  0  0  0  0  0  0
   -0.8454    1.5657    2.1533 H   0  0  0  0  0  0  0  0  0  0  0  0
   -1.7908    2.0013    0.7287 H   0  0  0  0  0  0  0  0  0  0  0  0
   -1.8212    0.3405    1.3403 H   0  0  0  0  0  0  0  0  0  0  0  0
    1.3815    0.7340    2.6360 H   0  0  0  0  0  0  0  0  0  0  0  0
    2.6875   -1.1380    3.5320 H   0  0  0  0  0  0  0  0  0  0  0  0
    2.8792   -3.2500    2.2558 H   0  0  0  0  0  0  0  0  0  0  0  0
    1.7427   -3.4599    0.0670 H   0  0  0  0  0  0  0  0  0  0  0  0
    0.4328   -1.5795   -0.8295 H   0  0  0  0  0  0  0  0  0  0  0  0
  1  2  2  3
  1  5  1  0
  1  6  1  0
  2  3  1  0
  2  7  1  0
  3  4  1  0
  3  9  1  0
  4 10  1  0
  4 11  1  0
  4 12  1  0
  8 14  1  0
 13 14  1  0
 13 22  1  0
 13 23  1  0
 13 24  1  0
 14 15  1  0
 14 16  1  0
 15 25  1  0
 15 26  1  0
 15 27  1  0
 16 17  2  0
 16 21  1  0
 17 18  1  0
 17 28  1  0
 18 19  2  0
 18 29  1  0
 19 20  1  0
 19 30  1  0
 20 21  2  0
 20 31  1  0
 21 32  1  0
M  RAD  1   3   2
M  END
>  <reaction>  (5) 
rxn_1053

>  <mol_properties>  (5) 
{"1": {"label": "*4", "atom_type": "Cd"}, "2": {"label": "*3", "atom_type": "Cs"}, "7": {"label": "*2", "atom_type": "H0"}, "13": {"label": "*1", "atom_type": "Cs"}, "15": {"label": "*0", "atom_type": "Cd"}}

>  <type>  (5) 
unop_1

>  <geom_source>  (5) 
Heuristics

$$$$

     RDKit          3D

 32 31  0  0  0  0  0  0  0  0999 V2000
   -1.4203   -0.6756   -4.1479 C   0  0  0  0  0  0  0  0  0  0  0  0
   -1.4203   -0.6756   -2.8235 C   0  0  0  0  0  0  0  0  0  0  0  0
   -1.4203    0.5289   -1.9301 C   0  0  0  0  0  3  0  0  0  0  0  0
   -1.4203    1.8746   -2.6378 C   0  0  0  0  0  0  0  0  0  0  0  0
   -1.4203    0.2413   -4.7253 H   0  0  0  0  0  0  0  0  0  0  0  0
   -1.4203   -1.6029   -4.7065 H   0  0  0  0  0  0  0  0  0  0  0  0
   -1.4203   -1.6313   -2.3053 H   0  0  0  0  0  0  0  0  0  0  0  0
   -0.3770    0.4473   -1.1343 H   0  0  0  0  0  0  0  0  0  0  0  0
   -2.2897    0.4609   -1.2669 H   0  0  0  0  0  0  0  0  0  0  0  0
   -2.3027    1.9897   -3.2702 H   0  0  0  0  0  0  0  0  0  0  0  0
   -0.5378    1.9897   -3.2702 H   0  0  0  0  0  0  0  0  0  0  0  0
   -1.4203    2.6890   -1.9125 H   0  0  0  0  0  0  0  0  0  0  0  0
    1.7612   -0.3928   -1.0895 C   0  0  0  0  0  0  0  0  0  0  0  0
    0.6647    0.3659   -0.3397 C   0  0  0  0  0  0  0  0  0  0  0  0
    0.8990    1.8761   -0.4041 C   0  0  0  0  0  0  0  0  0  0  0  0
    0.5286   -0.1174    1.0889 C   0  0  0  0  0  0  0  0  0  0  0  0
    1.5796    0.0083    1.9948 C   0  0  0  0  0  0  0  0  0  0  0  0
    1.4531   -0.4343    3.3009 C   0  0  0  0  0  0  0  0  0  0  0  0
    0.2677   -1.0143    3.7298 C   0  0  0  0  0  0  0  0  0  0  0  0
   -0.7858   -1.1460    2.8404 C   0  0  0  0  0  0  0  0  0  0  0  0
   -0.6525   -0.7004    1.5329 C   0  0  0  0  0  0  0  0  0  0  0  0
    1.5831   -1.4688   -1.0639 H   0  0  0  0  0  0  0  0  0  0  0  0
    1.8028   -0.0757   -2.1336 H   0  0  0  0  0  0  0  0  0  0  0  0
    2.7414   -0.2050   -0.6451 H   0  0  0  0  0  0  0  0  0  0  0  0
    1.8482    2.1456    0.0649 H   0  0  0  0  0  0  0  0  0  0  0  0
    0.9319    2.2161   -1.4413 H   0  0  0  0  0  0  0  0  0  0  0  0
    0.1055    2.4196    0.1107 H   0  0  0  0  0  0  0  0  0  0  0  0
    2.5127    0.4590    1.6766 H   0  0  0  0  0  0  0  0  0  0  0  0
    2.2832   -0.3265    3.9881 H   0  0  0  0  0  0  0  0  0  0  0  0
    0.1678   -1.3607    4.7507 H   0  0  0  0  0  0  0  0  0  0  0  0
   -1.7162   -1.5969    3.1628 H   0  0  0  0  0  0  0  0  0  0  0  0
   -1.4828   -0.8077    0.8437 H   0  0  0  0  0  0  0  0  0  0  0  0
  1  2  2  3
  1  5  1  0
  1  6  1  0
  2  3  1  0
  2  7  1  0
  3  4  1  0
  3  9  1  0
  4 10  1  0
  4 11  1  0
  4 12  1  0
  8 14  1  0
 13 14  1  0
 13 22  1  0
 13 23  1  0
 13 24  1  0
 14 15  1  0
 14 16  1  0
 15 25  1  0
 15 26  1  0
 15 27  1  0
 16 17  2  0
 16 21  1  0
 17 18  1  0
 17 28  1  0
 18 19  2  0
 18 29  1  0
 19 20  1  0
 19 30  1  0
 20 21  2  0
 20 31  1  0
 21 32  1  0
M  RAD  1   3   2
M  END
>  <reaction>  (6) 
rxn_1053

>  <mol_properties>  (6) 
{"1": {"label": "*4", "atom_type": "Cd"}, "2": {"label": "*3", "atom_type": "Cs"}, "7": {"label": "*2", "atom_type": "H0"}, "13": {"label": "*1", "atom_type": "Cs"}, "15": {"label": "*0", "atom_type": "Cd"}}

>  <type>  (6) 
unop_2

>  <geom_source>  (6) 
Heuristics

$$$$

     RDKit          3D

 32 31  0  0  0  0  0  0  0  0999 V2000
   -2.3829   -0.3040   -3.0010 C   0  0  0  0  0  0  0  0  0  0  0  0
   -2.3829   -0.3040   -1.6766 C   0  0  0  0  0  0  0  0  0  0  0  0
   -2.3829    0.9005   -0.7832 C   0  0  0  0  0  3  0  0  0  0  0  0
   -2.3829    2.2463   -1.4909 C   0  0  0  0  0  0  0  0  0  0  0  0
   -2.3829    0.6129   -3.5784 H   0  0  0  0  0  0  0  0  0  0  0  0
   -2.3829   -1.2313   -3.5597 H   0  0  0  0  0  0  0  0  0  0  0  0
   -2.3829   -1.2597   -1.1585 H   0  0  0  0  0  0  0  0  0  0  0  0
   -1.3396    0.8190    0.0126 H   0  0  0  0  0  0  0  0  0  0  0  0
   -3.2523    0.8326   -0.1201 H   0  0  0  0  0  0  0  0  0  0  0  0
   -3.2654    2.3613   -2.1233 H   0  0  0  0  0  0  0  0  0  0  0  0
   -1.5005    2.3613   -2.1233 H   0  0  0  0  0  0  0  0  0  0  0  0
   -2.3829    3.0606   -0.7656 H   0  0  0  0  0  0  0  0  0  0  0  0
    0.1434    2.1638    1.1403 C   0  0  0  0  0  0  0  0  0  0  0  0
   -0.2979    0.7375    0.8071 C   0  0  0  0  0  0  0  0  0  0  0  0
   -1.3082    0.2211    1.8331 C   0  0  0  0  0  0  0  0  0  0  0  0
    0.8867   -0.1960    0.6717 C   0  0  0  0  0  0  0  0  0  0  0  0
    1.7341   -0.4450    1.7491 C   0  0  0  0  0  0  0  0  0  0  0  0
    2.8170   -1.2990    1.6230 C   0  0  0  0  0  0  0  0  0  0  0  0
    3.0757   -1.9244    0.4116 C   0  0  0  0  0  0  0  0  0  0  0  0
    2.2418   -1.6864   -0.6683 C   0  0  0  0  0  0  0  0  0  0  0  0
    1.1584   -0.8295   -0.5354 C   0  0  0  0  0  0  0  0  0  0  0  0
    0.8466    2.5418    0.3968 H   0  0  0  0  0  0  0  0  0  0  0  0
   -0.7174    2.8349    1.1722 H   0  0  0  0  0  0  0  0  0  0  0  0
    0.6336    2.2043    2.1158 H   0  0  0  0  0  0  0  0  0  0  0  0
   -0.8702    0.1917    2.8335 H   0  0  0  0  0  0  0  0  0  0  0  0
   -2.1837    0.8726    1.8720 H   0  0  0  0  0  0  0  0  0  0  0  0
   -1.6411   -0.7875    1.5841 H   0  0  0  0  0  0  0  0  0  0  0  0
    1.5467    0.0352    2.7027 H   0  0  0  0  0  0  0  0  0  0  0  0
    3.4627   -1.4780    2.4739 H   0  0  0  0  0  0  0  0  0  0  0  0
    3.9220   -2.5923    0.3121 H   0  0  0  0  0  0  0  0  0  0  0  0
    2.4330   -2.1684   -1.6191 H   0  0  0  0  0  0  0  0  0  0  0  0
    0.5111   -0.6493   -1.3864 H   0  0  0  0  0  0  0  0  0  0  0  0
  1  2  2  3
  1  5  1  0
  1  6  1  0
  2  3  1  0
  2  7  1  0
  3  4  1  0
  3  9  1  0
  4 10  1  0
  4 11  1  0
  4 12  1  0
  8 14  1  0
 13 14  1  0
 13 22  1  0
 13 23  1  0
 13 24  1  0
 14 15  1  0
 14 16  1  0
 15 25  1  0
 15 26  1  0
 15 27  1  0
 16 17  2  0
 16 21  1  0
 17 18  1  0
 17 28  1  0
 18 19  2  0
 18 29  1  0
 19 20  1  0
 19 30  1  0
 20 21  2  0
 20 31  1  0
 21 32  1  0
M  RAD  1   3   2
M  END
>  <reaction>  (7) 
rxn_1053

>  <mol_properties>  (7) 
{"1": {"label": "*4", "atom_type": "Cd"}, "2": {"label": "*3", "atom_type": "Cs"}, "7": {"label": "*2", "atom_type": "H0"}, "13": {"label": "*1", "atom_type": "Cs"}, "15": {"label": "*0", "atom_type": "Cd"}}

>  <type>  (7) 
unop_3

>  <geom_source>  (7) 
Heuristics

$$$$

     RDKit          3D

 32 30  0  0  0  0  0  0  0  0999 V2000
   -0.8970   -1.9241   -3.5982 C   0  0  0  0  0  3  0  0  0  0  0  0
   -0.8970   -1.9241   -2.2738 C   0  0  0  0  0  0  0  0  0  0  0  0
   -0.8970   -0.7196   -1.3804 C   0  0  0  0  0  3  0  0  0  0  0  0
   -0.8970    0.6261   -2.0881 C   0  0  0  0  0  3  0  0  0  0  0  0
   -0.8970   -1.0072   -4.1756 H   0  0  0  0  0  0  0  0  0  0  0  0
   -0.8970   -2.8515   -4.1569 H   0  0  0  0  0  0  0  0  0  0  0  0
   -0.8970   -2.8799   -1.7557 H   0  0  0  0  0  0  0  0  0  0  0  0
    0.1463   -0.8012   -0.5846 H   0  0  0  0  0  0  0  0  0  0  0  0
   -1.7664   -0.7876   -0.7172 H   0  0  0  0  0  0  0  0  0  0  0  0
   -1.7794    0.7411   -2.7205 H   0  0  0  0  0  0  0  0  0  0  0  0
   -0.0145    0.7411   -2.7205 H   0  0  0  0  0  0  0  0  0  0  0  0
   -0.8970    1.4405   -1.3628 H   0  0  0  0  0  0  0  0  0  0  0  0
    1.0500   -2.1701    1.0244 C   0  0  0  0  0  0  0  0  0  0  0  0
    1.1880   -0.8826    0.2100 C   0  0  0  0  0  0  0  0  0  0  0  0
    2.6593   -0.5370   -0.0264 C   0  0  0  0  0  0  0  0  0  0  0  0
    0.4408    0.2671    0.8526 C   0  0  0  0  0  0  0  0  0  0  0  0
    0.7906    0.7360    2.1170 C   0  0  0  0  0  0  0  0  0  0  0  0
    0.1059    1.7877    2.7029 C   0  0  0  0  0  0  0  0  0  0  0  0
   -0.9472    2.3946    2.0334 C   0  0  0  0  0  0  0  0  0  0  0  0
   -1.3061    1.9390    0.7756 C   0  0  0  0  0  0  0  0  0  0  0  0
   -0.6160    0.8848    0.1941 C   0  0  0  0  0  0  0  0  0  0  0  0
    0.0012   -2.4303    1.1743 H   0  0  0  0  0  0  0  0  0  0  0  0
    1.5413   -3.0017    0.5150 H   0  0  0  0  0  0  0  0  0  0  0  0
    1.5122   -2.0625    2.0084 H   0  0  0  0  0  0  0  0  0  0  0  0
    3.1794   -0.3706    0.9198 H   0  0  0  0  0  0  0  0  0  0  0  0
    3.1668   -1.3521   -0.5464 H   0  0  0  0  0  0  0  0  0  0  0  0
    2.7591    0.3686   -0.6266 H   0  0  0  0  0  0  0  0  0  0  0  0
    1.6107    0.2735    2.6541 H   0  0  0  0  0  0  0  0  0  0  0  0
    0.3950    2.1359    3.6868 H   0  0  0  0  0  0  0  0  0  0  0  0
   -1.4830    3.2167    2.4906 H   0  0  0  0  0  0  0  0  0  0  0  0
   -2.1262    2.4042    0.2428 H   0  0  0  0  0  0  0  0  0  0  0  0
   -0.9043    0.5351   -0.7910 H   0  0  0  0  0  0  0  0  0  0  0  0
  1  2  1  0
  1  5  1  0
  1  6  1  0
  2  3  2  3
  2  7  1  0
  3  9  1  0
  4 10  1  0
  4 11  1  0
  4 12  1  0
  8 14  1  0
 13 14  1  0
 13 22  1  0
 13 23  1  0
 13 24  1  0
 14 15  1  0
 14 16  1  0
 15 25  1  0
 15 26  1  0
 15 27  1  0
 16 17  2  0
 16 21  1  0
 17 18  1  0
 17 28  1  0
 18 19  2  0
 18 29  1  0
 19 20  1  0
 19 30  1  0
 20 21  2  0
 20 31  1  0
 21 32  1  0
M  CHG  2   1   1   3  -1
M  RAD  1   4   2
M  END
>  <reaction>  (8) 
rxn_1053

>  <mol_properties>  (8) 
{"1": {"label": "*4", "atom_type": "Cd"}, "2": {"label": "*3", "atom_type": "Cs"}, "7": {"label": "*2", "atom_type": "H0"}, "13": {"label": "*1", "atom_type": "Cs"}, "15": {"label": "*0", "atom_type": "Cd"}}

>  <type>  (8) 
unop_4

>  <geom_source>  (8) 
Heuristics

$$$$

     RDKit          3D

 32 31  0  0  0  0  0  0  0  0999 V2000
   -2.4585   -0.9899   -2.3928 C   0  0  0  0  0  0  0  0  0  0  0  0
   -2.4585   -0.9899   -1.0685 C   0  0  0  0  0  0  0  0  0  0  0  0
   -2.4585    0.2146   -0.1750 C   0  0  0  0  0  3  0  0  0  0  0  0
   -2.4585    1.5604   -0.8827 C   0  0  0  0  0  0  0  0  0  0  0  0
   -2.4585   -0.0730   -2.9703 H   0  0  0  0  0  0  0  0  0  0  0  0
   -2.4585   -1.9172   -2.9515 H   0  0  0  0  0  0  0  0  0  0  0  0
   -2.4585   -1.9456   -0.5503 H   0  0  0  0  0  0  0  0  0  0  0  0
   -1.4153    0.1331    0.6207 H   0  0  0  0  0  0  0  0  0  0  0  0
   -3.3279    0.1466    0.4881 H   0  0  0  0  0  0  0  0  0  0  0  0
   -3.3410    1.6754   -1.5151 H   0  0  0  0  0  0  0  0  0  0  0  0
   -1.5761    1.6754   -1.5151 H   0  0  0  0  0  0  0  0  0  0  0  0
   -2.4585    2.3747   -0.1574 H   0  0  0  0  0  0  0  0  0  0  0  0
   -0.3841    1.2843    2.3210 C   0  0  0  0  0  0  0  0  0  0  0  0
   -0.3735    0.0516    1.4153 C   0  0  0  0  0  0  0  0  0  0  0  0
   -0.5144   -1.2329    2.2339 C   0  0  0  0  0  0  0  0  0  0  0  0
    0.8560    0.0185    0.5320 C   0  0  0  0  0  0  0  0  0  0  0  0
    2.1341   -0.0667    1.0800 C   0  0  0  0  0  0  0  0  0  0  0  0
    3.2573   -0.0968    0.2704 C   0  0  0  0  0  0  0  0  0  0  0  0
    3.1249   -0.0422   -1.1099 C   0  0  0  0  0  0  0  0  0  0  0  0
    1.8605    0.0427   -1.6688 C   0  0  0  0  0  0  0  0  0  0  0  0
    0.7390    0.0725   -0.8519 C   0  0  0  0  0  0  0  0  0  0  0  0
   -0.3066    2.2024    1.7368 H   0  0  0  0  0  0  0  0  0  0  0  0
   -1.3062    1.3246    2.9045 H   0  0  0  0  0  0  0  0  0  0  0  0
    0.4532    1.2621    3.0224 H   0  0  0  0  0  0  0  0  0  0  0  0
    0.3181   -1.3457    2.9322 H   0  0  0  0  0  0  0  0  0  0  0  0
   -1.4379   -1.2180    2.8165 H   0  0  0  0  0  0  0  0  0  0  0  0
   -0.5300   -2.1116    1.5875 H   0  0  0  0  0  0  0  0  0  0  0  0
    2.2559   -0.1102    2.1562 H   0  0  0  0  0  0  0  0  0  0  0  0
    4.2413   -0.1632    0.7180 H   0  0  0  0  0  0  0  0  0  0  0  0
    4.0023   -0.0657   -1.7436 H   0  0  0  0  0  0  0  0  0  0  0  0
    1.7437    0.0859   -2.7446 H   0  0  0  0  0  0  0  0  0  0  0  0
   -0.2468    0.1390   -1.2987 H   0  0  0  0  0  0  0  0  0  0  0  0
  1  2  2  3
  1  5  1  0
  1  6  1  0
  2  3  1  0
  2  7  1  0
  3  4  1  0
  3  9  1  0
  4 10  1  0
  4 11  1  0
  4 12  1  0
  8 14  1  0
 13 14  1  0
 13 22  1  0
 13 23  1  0
 13 24  1  0
 14 15  1  0
 14 16  1  0
 15 25  1  0
 15 26  1  0
 15 27  1  0
 16 17  2  0
 16 21  1  0
 17 18  1  0
 17 28  1  0
 18 19  2  0
 18 29  1  0
 19 20  1  0
 19 30  1  0
 20 21  2  0
 20 31  1  0
 21 32  1  0
M  RAD  1   3   2
M  END
>  <reaction>  (9) 
rxn_1053

>  <mol_properties>  (9) 
{"1": {"label": "*4", "atom_type": "Cd"}, "2": {"label": "*3", "atom_type": "Cs"}, "7": {"label": "*2", "atom_type": "H0"}, "13": {"label": "*1", "atom_type": "Cs"}, "15": {"label": "*0", "atom_type": "Cd"}}

>  <type>  (9) 
unop_5

>  <geom_source>  (9) 
Heuristics

$$$$

     RDKit          3D

 32 30  0  0  0  0  0  0  0  0999 V2000
   -1.1219   -2.1826   -3.1133 C   0  0  0  0  0  3  0  0  0  0  0  0
   -1.1219   -2.1826   -1.7889 C   0  0  0  0  0  0  0  0  0  0  0  0
   -1.1219   -0.9781   -0.8955 C   0  0  0  0  0  3  0  0  0  0  0  0
   -1.1219    0.3677   -1.6032 C   0  0  0  0  0  3  0  0  0  0  0  0
   -1.1219   -1.2657   -3.6907 H   0  0  0  0  0  0  0  0  0  0  0  0
   -1.1219   -3.1099   -3.6719 H   0  0  0  0  0  0  0  0  0  0  0  0
   -1.1219   -3.1383   -1.2707 H   0  0  0  0  0  0  0  0  0  0  0  0
   -0.0786   -1.0596   -0.0997 H   0  0  0  0  0  0  0  0  0  0  0  0
   -1.9912   -1.0460   -0.2323 H   0  0  0  0  0  0  0  0  0  0  0  0
   -2.0043    0.4827   -2.2356 H   0  0  0  0  0  0  0  0  0  0  0  0
   -0.2394    0.4827   -2.2356 H   0  0  0  0  0  0  0  0  0  0  0  0
   -1.1219    1.1821   -0.8779 H   0  0  0  0  0  0  0  0  0  0  0  0
    0.5285   -1.8950    1.9529 C   0  0  0  0  0  0  0  0  0  0  0  0
    0.9631   -1.1411    0.6949 C   0  0  0  0  0  0  0  0  0  0  0  0
    2.4744   -1.2489    0.4842 C   0  0  0  0  0  0  0  0  0  0  0  0
    0.5051    0.3020    0.7228 C   0  0  0  0  0  0  0  0  0  0  0  0
    0.9548    1.1813    1.7054 C   0  0  0  0  0  0  0  0  0  0  0  0
    0.5346    2.5007    1.7291 C   0  0  0  0  0  0  0  0  0  0  0  0
   -0.3478    2.9699    0.7664 C   0  0  0  0  0  0  0  0  0  0  0  0
   -0.8034    2.1072   -0.2167 C   0  0  0  0  0  0  0  0  0  0  0  0
   -0.3785    0.7862   -0.2348 C   0  0  0  0  0  0  0  0  0  0  0  0
   -0.5521   -1.8381    2.0920 H   0  0  0  0  0  0  0  0  0  0  0  0
    0.8121   -2.9474    1.8875 H   0  0  0  0  0  0  0  0  0  0  0  0
    1.0032   -1.4769    2.8436 H   0  0  0  0  0  0  0  0  0  0  0  0
    3.0191   -0.8076    1.3221 H   0  0  0  0  0  0  0  0  0  0  0  0
    2.7776   -2.2949    0.4040 H   0  0  0  0  0  0  0  0  0  0  0  0
    2.7828   -0.7309   -0.4250 H   0  0  0  0  0  0  0  0  0  0  0  0
    1.6443    0.8316    2.4651 H   0  0  0  0  0  0  0  0  0  0  0  0
    0.8971    3.1668    2.5024 H   0  0  0  0  0  0  0  0  0  0  0  0
   -0.6768    4.0012    0.7841 H   0  0  0  0  0  0  0  0  0  0  0  0
   -1.4922    2.4611   -0.9737 H   0  0  0  0  0  0  0  0  0  0  0  0
   -0.7406    0.1182   -1.0084 H   0  0  0  0  0  0  0  0  0  0  0  0
  1  2  1  0
  1  5  1  0
  1  6  1  0
  2  3  2  3
  2  7  1  0
  3  9  1  0
  4 10  1  0
  4 11  1  0
  4 32  1  0
  8 14  1  0
 12 21  1  0
 13 14  1  0
 13 22  1  0
 13 23  1  0
 13 24  1  0
 14 15  1  0
 14 16  1  0
 15 25  1  0
 15 26  1  0
 15 27  1  0
 16 17  2  0
 16 21  1  0
 17 18  1  0
 17 28  1  0
 18 19  2  0
 18 29  1  0
 19 20  1  0
 19 30  1  0
 20 21  2  0
 20 31  1  0
M  CHG  2   1   1   3  -1
M  RAD  1   4   2
M  END
>  <reaction>  (10) 
rxn_1053

>  <mol_properties>  (10) 
{"1": {"label": "*4", "atom_type": "Cd"}, "2": {"label": "*3", "atom_type": "Cs"}, "7": {"label": "*2", "atom_type": "H0"}, "13": {"label": "*1", "atom_type": "Cs"}, "15": {"label": "*0", "atom_type": "Cd"}}

>  <type>  (10) 
unop_6

>  <geom_source>  (10) 
Heuristics

$$$$

     RDKit          3D

 32 30  0  0  0  0  0  0  0  0999 V2000
   -1.4988   -2.1658   -2.6302 C   0  0  0  0  0  3  0  0  0  0  0  0
   -1.4988   -2.1658   -1.3059 C   0  0  0  0  0  0  0  0  0  0  0  0
   -1.4988   -0.9613   -0.4124 C   0  0  0  0  0  3  0  0  0  0  0  0
   -1.4988    0.3845   -1.1201 C   0  0  0  0  0  0  0  0  0  0  0  0
   -1.4988   -1.2488   -3.2076 H   0  0  0  0  0  0  0  0  0  0  0  0
   -1.4988   -3.0931   -3.1889 H   0  0  0  0  0  0  0  0  0  0  0  0
   -1.4988   -3.1215   -0.7877 H   0  0  0  0  0  0  0  0  0  0  0  0
   -0.4555   -1.0428    0.3833 H   0  0  0  0  0  0  0  0  0  0  0  0
   -2.3682   -1.0292    0.2507 H   0  0  0  0  0  0  0  0  0  0  0  0
   -2.3812    0.4995   -1.7525 H   0  0  0  0  0  0  0  0  0  0  0  0
   -0.6163    0.4995   -1.7525 H   0  0  0  0  0  0  0  0  0  0  0  0
   -1.4988    1.1989   -0.3948 H   0  0  0  0  0  0  0  0  0  0  0  0
    0.0700   -1.1503    2.6176 C   0  0  0  0  0  0  0  0  0  0  0  0
    0.5862   -1.1243    1.1779 C   0  0  0  0  0  0  0  0  0  0  0  0
    1.9661   -1.7767    1.0771 C   0  0  0  0  0  0  0  0  0  0  0  0
    0.5902    0.2802    0.6117 C   0  0  0  0  0  0  0  0  0  0  0  0
    1.3785    1.2813    1.1749 C   0  0  0  0  0  0  0  0  0  0  0  0
    1.3807    2.5652    0.6556 C   0  0  0  0  0  0  0  0  0  0  0  0
    0.5911    2.8755   -0.4425 C   0  0  0  0  0  0  0  0  0  0  0  0
   -0.1978    1.8904   -1.0130 C   0  0  0  0  0  0  0  0  0  0  0  0
   -0.1954    0.6059   -0.4877 C   0  0  0  0  0  3  0  0  0  0  0  0
   -0.9239   -0.7058    2.6872 H   0  0  0  0  0  0  0  0  0  0  0  0
    0.0147   -2.1762    2.9876 H   0  0  0  0  0  0  0  0  0  0  0  0
    0.7337   -0.5920    3.2818 H   0  0  0  0  0  0  0  0  0  0  0  0
    2.6981   -1.2409    1.6859 H   0  0  0  0  0  0  0  0  0  0  0  0
    1.9300   -2.8089    1.4316 H   0  0  0  0  0  0  0  0  0  0  0  0
    2.3257   -1.7794    0.0471 H   0  0  0  0  0  0  0  0  0  0  0  0
    2.0014    1.0563    2.0331 H   0  0  0  0  0  0  0  0  0  0  0  0
    2.0014    3.3279    1.1094 H   0  0  0  0  0  0  0  0  0  0  0  0
    0.5921    3.8788   -0.8492 H   0  0  0  0  0  0  0  0  0  0  0  0
   -0.8185    2.1198   -1.8703 H   0  0  0  0  0  0  0  0  0  0  0  0
   -0.8164   -0.1588   -0.9411 H   0  0  0  0  0  0  0  0  0  0  0  0
  1  2  1  0
  1  5  1  0
  1  6  1  0
  2  3  2  3
  2  7  1  0
  3  9  1  0
  4 10  1  0
  4 11  1  0
  4 12  1  0
  4 32  1  0
  8 14  1  0
 13 14  1  0
 13 22  1  0
 13 23  1  0
 13 24  1  0
 14 15  1  0
 14 16  1  0
 15 25  1  0
 15 26  1  0
 15 27  1  0
 16 17  2  0
 16 21  1  0
 17 18  1  0
 17 28  1  0
 18 19  2  0
 18 29  1  0
 19 20  1  0
 19 30  1  0
 20 21  2  0
 20 31  1  0
M  CHG  2   1   1   3  -1
M  RAD  1  21   2
M  END
>  <reaction>  (11) 
rxn_1053

>  <mol_properties>  (11) 
{"1": {"label": "*4", "atom_type": "Cd"}, "2": {"label": "*3", "atom_type": "Cs"}, "7": {"label": "*2", "atom_type": "H0"}, "13": {"label": "*1", "atom_type": "Cs"}, "15": {"label": "*0", "atom_type": "Cd"}}

>  <type>  (11) 
unop_7

>  <geom_source>  (11) 
Heuristics

$$$$

     RDKit          3D

 32 31  0  0  0  0  0  0  0  0999 V2000
   -1.8496   -0.2990   -3.8547 C   0  0  0  0  0  0  0  0  0  0  0  0
   -1.8496   -0.2990   -2.5304 C   0  0  0  0  0  0  0  0  0  0  0  0
   -1.8496    0.9055   -1.6369 C   0  0  0  0  0  3  0  0  0  0  0  0
   -1.8496    2.2513   -2.3446 C   0  0  0  0  0  0  0  0  0  0  0  0
   -1.8496    0.6179   -4.4322 H   0  0  0  0  0  0  0  0  0  0  0  0
   -1.8496   -1.2263   -4.4134 H   0  0  0  0  0  0  0  0  0  0  0  0
   -1.8496   -1.2547   -2.0122 H   0  0  0  0  0  0  0  0  0  0  0  0
   -0.8064    0.8240   -0.8412 H   0  0  0  0  0  0  0  0  0  0  0  0
   -2.7190    0.8376   -0.9738 H   0  0  0  0  0  0  0  0  0  0  0  0
   -2.7321    2.3663   -2.9770 H   0  0  0  0  0  0  0  0  0  0  0  0
   -0.9672    2.3663   -2.9770 H   0  0  0  0  0  0  0  0  0  0  0  0
   -1.8496    3.0657   -1.6193 H   0  0  0  0  0  0  0  0  0  0  0  0
    1.4054    1.4389   -0.7437 C   0  0  0  0  0  0  0  0  0  0  0  0
    0.2354    0.7425   -0.0466 C   0  0  0  0  0  0  0  0  0  0  0  0
   -0.7100    1.7622    0.5911 C   0  0  0  0  0  0  0  0  0  0  0  0
    0.7152   -0.2804    0.9616 C   0  0  0  0  0  0  0  0  0  0  0  0
    1.4715    0.0992    2.0683 C   0  0  0  0  0  0  0  0  0  0  0  0
    1.9093   -0.8380    2.9892 C   0  0  0  0  0  0  0  0  0  0  0  0
    1.5984   -2.1799    2.8214 C   0  0  0  0  0  0  0  0  0  0  0  0
    0.8472   -2.5721    1.7259 C   0  0  0  0  0  0  0  0  0  0  0  0
    0.4116   -1.6280    0.8068 C   0  0  0  0  0  0  0  0  0  0  0  0
    2.0683    0.7140   -1.2185 H   0  0  0  0  0  0  0  0  0  0  0  0
    1.0420    2.1264   -1.5103 H   0  0  0  0  0  0  0  0  0  0  0  0
    1.9976    2.0176   -0.0310 H   0  0  0  0  0  0  0  0  0  0  0  0
   -0.1939    2.3525    1.3518 H   0  0  0  0  0  0  0  0  0  0  0  0
   -1.0947    2.4530   -0.1620 H   0  0  0  0  0  0  0  0  0  0  0  0
   -1.5571    1.2681    1.0690 H   0  0  0  0  0  0  0  0  0  0  0  0
    1.7235    1.1432    2.2148 H   0  0  0  0  0  0  0  0  0  0  0  0
    2.4961   -0.5203    3.8422 H   0  0  0  0  0  0  0  0  0  0  0  0
    1.9402   -2.9133    3.5407 H   0  0  0  0  0  0  0  0  0  0  0  0
    0.5979   -3.6163    1.5837 H   0  0  0  0  0  0  0  0  0  0  0  0
   -0.1761   -1.9445   -0.0478 H   0  0  0  0  0  0  0  0  0  0  0  0
  1  2  2  3
  1  5  1  0
  1  6  1  0
  2  3  1  0
  2  7  1  0
  3  4  1  0
  3  9  1  0
  4 10  1  0
  4 11  1  0
  4 12  1  0
  8 14  1  0
 13 14  1  0
 13 22  1  0
 13 23  1  0
 13 24  1  0
 14 15  1  0
 14 16  1  0
 15 25  1  0
 15 26  1  0
 15 27  1  0
 16 17  2  0
 16 21  1  0
 17 18  1  0
 17 28  1  0
 18 19  2  0
 18 29  1  0
 19 20  1  0
 19 30  1  0
 20 21  2  0
 20 31  1  0
 21 32  1  0
M  RAD  1   3   2
M  END
>  <reaction>  (12) 
rxn_1053

>  <mol_properties>  (12) 
{"1": {"label": "*4", "atom_type": "Cd"}, "2": {"label": "*3", "atom_type": "Cs"}, "7": {"label": "*2", "atom_type": "H0"}, "13": {"label": "*1", "atom_type": "Cs"}, "15": {"label": "*0", "atom_type": "Cd"}}

>  <type>  (12) 
unop_8

>  <geom_source>  (12) 
Heuristics

$$$$

     RDKit          3D

 32 31  0  0  0  0  0  0  0  0999 V2000
   -0.8882   -1.4716   -3.9781 C   0  0  0  0  0  0  0  0  0  0  0  0
   -0.8882   -1.4716   -2.6538 C   0  0  0  0  0  0  0  0  0  0  0  0
   -0.8882   -0.2671   -1.7603 C   0  0  0  0  0  3  0  0  0  0  0  0
   -0.8882    1.0787   -2.4680 C   0  0  0  0  0  0  0  0  0  0  0  0
   -0.8882   -0.5547   -4.5556 H   0  0  0  0  0  0  0  0  0  0  0  0
   -0.8882   -2.3989   -4.5368 H   0  0  0  0  0  0  0  0  0  0  0  0
   -0.8882   -2.4273   -2.1356 H   0  0  0  0  0  0  0  0  0  0  0  0
    0.1551   -0.3486   -0.9646 H   0  0  0  0  0  0  0  0  0  0  0  0
   -1.7576   -0.3351   -1.0972 H   0  0  0  0  0  0  0  0  0  0  0  0
   -1.7706    1.1937   -3.1004 H   0  0  0  0  0  0  0  0  0  0  0  0
   -0.0057    1.1937   -3.1004 H   0  0  0  0  0  0  0  0  0  0  0  0
   -0.8882    1.8930   -1.7427 H   0  0  0  0  0  0  0  0  0  0  0  0
    1.4910   -1.9139    0.0578 C   0  0  0  0  0  0  0  0  0  0  0  0
    1.1968   -0.4301   -0.1700 C   0  0  0  0  0  0  0  0  0  0  0  0
    2.4845    0.3502   -0.4402 C   0  0  0  0  0  0  0  0  0  0  0  0
    0.4136    0.1667    0.9805 C   0  0  0  0  0  0  0  0  0  0  0  0
    0.9474    0.2153    2.2664 C   0  0  0  0  0  0  0  0  0  0  0  0
    0.2294    0.7615    3.3172 C   0  0  0  0  0  0  0  0  0  0  0  0
   -1.0428    1.2725    3.1025 C   0  0  0  0  0  0  0  0  0  0  0  0
   -1.5864    1.2310    1.8293 C   0  0  0  0  0  0  0  0  0  0  0  0
   -0.8616    0.6823    0.7807 C   0  0  0  0  0  0  0  0  0  0  0  0
    0.5713   -2.4756    0.2280 H   0  0  0  0  0  0  0  0  0  0  0  0
    2.0004   -2.3420   -0.8080 H   0  0  0  0  0  0  0  0  0  0  0  0
    2.1361   -2.0561    0.9279 H   0  0  0  0  0  0  0  0  0  0  0  0
    3.1654    0.2894    0.4119 H   0  0  0  0  0  0  0  0  0  0  0  0
    3.0039   -0.0551   -1.3110 H   0  0  0  0  0  0  0  0  0  0  0  0
    2.2740    1.4045   -0.6254 H   0  0  0  0  0  0  0  0  0  0  0  0
    1.9398   -0.1794    2.4519 H   0  0  0  0  0  0  0  0  0  0  0  0
    0.6641    0.7888    4.3088 H   0  0  0  0  0  0  0  0  0  0  0  0
   -1.6048    1.6997    3.9233 H   0  0  0  0  0  0  0  0  0  0  0  0
   -2.5782    1.6266    1.6488 H   0  0  0  0  0  0  0  0  0  0  0  0
   -1.2956    0.6543   -0.2126 H   0  0  0  0  0  0  0  0  0  0  0  0
  1  2  2  3
  1  5  1  0
  1  6  1  0
  2  3  1  0
  2  7  1  0
  3  4  1  0
  3  9  1  0
  4 10  1  0
  4 11  1  0
  4 12  1  0
  8 14  1  0
 13 14  1  0
 13 22  1  0
 13 23  1  0
 13 24  1  0
 14 15  1  0
 14 16  1  0
 15 25  1  0
 15 26  1  0
 15 27  1  0
 16 17  2  0
 16 21  1  0
 17 18  1  0
 17 28  1  0
 18 19  2  0
 18 29  1  0
 19 20  1  0
 19 30  1  0
 20 21  2  0
 20 31  1  0
 21 32  1  0
M  RAD  1   3   2
M  END
>  <reaction>  (13) 
rxn_1053

>  <mol_properties>  (13) 
{"1": {"label": "*4", "atom_type": "Cd"}, "2": {"label": "*3", "atom_type": "Cs"}, "7": {"label": "*2", "atom_type": "H0"}, "13": {"label": "*1", "atom_type": "Cs"}, "15": {"label": "*0", "atom_type": "Cd"}}

>  <type>  (13) 
unop_9

>  <geom_source>  (13) 
Heuristics

$$$$

     RDKit          3D

 32 31  0  0  0  0  0  0  0  0999 V2000
   -1.6593   -0.4746   -4.0395 C   0  0  0  0  0  0  0  0  0  0  0  0
   -1.6593   -0.4746   -2.7151 C   0  0  0  0  0  0  0  0  0  0  0  0
   -1.6593    0.7299   -1.8217 C   0  0  0  0  0  3  0  0  0  0  0  0
   -1.6593    2.0756   -2.5294 C   0  0  0  0  0  0  0  0  0  0  0  0
   -1.6593    0.4423   -4.6169 H   0  0  0  0  0  0  0  0  0  0  0  0
   -1.6593   -1.4019   -4.5982 H   0  0  0  0  0  0  0  0  0  0  0  0
   -1.6593   -1.4303   -2.1969 H   0  0  0  0  0  0  0  0  0  0  0  0
   -0.6160    0.6483   -1.0259 H   0  0  0  0  0  0  0  0  0  0  0  0
   -2.5287    0.6619   -1.1585 H   0  0  0  0  0  0  0  0  0  0  0  0
   -2.5417    2.1907   -3.1618 H   0  0  0  0  0  0  0  0  0  0  0  0
   -0.7768    2.1907   -3.1618 H   0  0  0  0  0  0  0  0  0  0  0  0
   -1.6593    2.8900   -1.8041 H   0  0  0  0  0  0  0  0  0  0  0  0
    1.6774    0.5354   -1.1101 C   0  0  0  0  0  0  0  0  0  0  0  0
    0.4257    0.5669   -0.2313 C   0  0  0  0  0  0  0  0  0  0  0  0
   -0.0107    2.0054    0.0519 C   0  0  0  0  0  0  0  0  0  0  0  0
    0.6221   -0.2190    1.0481 C   0  0  0  0  0  0  0  0  0  0  0  0
    1.5879    0.1531    1.9806 C   0  0  0  0  0  0  0  0  0  0  0  0
    1.7659   -0.5670    3.1501 C   0  0  0  0  0  0  0  0  0  0  0  0
    0.9781   -1.6789    3.4122 C   0  0  0  0  0  0  0  0  0  0  0  0
    0.0138   -2.0607    2.4943 C   0  0  0  0  0  0  0  0  0  0  0  0
   -0.1594   -1.3348    1.3243 C   0  0  0  0  0  0  0  0  0  0  0  0
    1.9767   -0.4900   -1.3318 H   0  0  0  0  0  0  0  0  0  0  0  0
    1.4971    1.0530   -2.0545 H   0  0  0  0  0  0  0  0  0  0  0  0
    2.5164    1.0293   -0.6145 H   0  0  0  0  0  0  0  0  0  0  0  0
    0.7675    2.5521    0.5893 H   0  0  0  0  0  0  0  0  0  0  0  0
   -0.2081    2.5378   -0.8808 H   0  0  0  0  0  0  0  0  0  0  0  0
   -0.9165    2.0292    0.6596 H   0  0  0  0  0  0  0  0  0  0  0  0
    2.2121    1.0191    1.7919 H   0  0  0  0  0  0  0  0  0  0  0  0
    2.5229   -0.2596    3.8611 H   0  0  0  0  0  0  0  0  0  0  0  0
    1.1165   -2.2425    4.3261 H   0  0  0  0  0  0  0  0  0  0  0  0
   -0.6074   -2.9266    2.6871 H   0  0  0  0  0  0  0  0  0  0  0  0
   -0.9170   -1.6414    0.6115 H   0  0  0  0  0  0  0  0  0  0  0  0
  1  2  2  3
  1  5  1  0
  1  6  1  0
  2  3  1  0
  2  7  1  0
  3  4  1  0
  3  9  1  0
  4 10  1  0
  4 11  1  0
  4 12  1  0
  8 14  1  0
 13 14  1  0
 13 22  1  0
 13 23  1  0
 13 24  1  0
 14 15  1  0
 14 16  1  0
 15 25  1  0
 15 26  1  0
 15 27  1  0
 16 17  2  0
 16 21  1  0
 17 18  1  0
 17 28  1  0
 18 19  2  0
 18 29  1  0
 19 20  1  0
 19 30  1  0
 20 21  2  0
 20 31  1  0
 21 32  1  0
M  RAD  1   3   2
M  END
>  <reaction>  (14) 
rxn_1053

>  <mol_properties>  (14) 
{"1": {"label": "*4", "atom_type": "Cd"}, "2": {"label": "*3", "atom_type": "Cs"}, "7": {"label": "*2", "atom_type": "H0"}, "13": {"label": "*1", "atom_type": "Cs"}, "15": {"label": "*0", "atom_type": "Cd"}}

>  <type>  (14) 
unop_10

>  <geom_source>  (14) 
Heuristics

$$$$

     RDKit          3D

 32 30  0  0  0  0  0  0  0  0999 V2000
   -2.0035   -1.7979   -2.2864 C   0  0  0  0  0  3  0  0  0  0  0  0
   -2.0035   -1.7979   -0.9621 C   0  0  0  0  0  0  0  0  0  0  0  0
   -2.0035   -0.5934   -0.0686 C   0  0  0  0  0  3  0  0  0  0  0  0
   -2.0035    0.7523   -0.7763 C   0  0  0  0  0  3  0  0  0  0  0  0
   -2.0035   -0.8810   -2.8639 H   0  0  0  0  0  0  0  0  0  0  0  0
   -2.0035   -2.7252   -2.8451 H   0  0  0  0  0  0  0  0  0  0  0  0
   -2.0035   -2.7536   -0.4439 H   0  0  0  0  0  0  0  0  0  0  0  0
   -0.9602   -0.6750    0.7271 H   0  0  0  0  0  0  0  0  0  0  0  0
   -2.8729   -0.6614    0.5945 H   0  0  0  0  0  0  0  0  0  0  0  0
   -2.8859    0.8674   -1.4088 H   0  0  0  0  0  0  0  0  0  0  0  0
   -1.1210    0.8674   -1.4088 H   0  0  0  0  0  0  0  0  0  0  0  0
   -2.0035    1.5667   -0.0510 H   0  0  0  0  0  0  0  0  0  0  0  0
   -0.2795   -0.0553    2.8324 C   0  0  0  0  0  0  0  0  0  0  0  0
    0.0815   -0.7564    1.5217 C   0  0  0  0  0  0  0  0  0  0  0  0
    0.9766   -1.9704    1.7764 C   0  0  0  0  0  0  0  0  0  0  0  0
    0.7088    0.2015    0.5307 C   0  0  0  0  0  0  0  0  0  0  0  0
    1.9157    0.8388    0.8105 C   0  0  0  0  0  0  0  0  0  0  0  0
    2.4877    1.7145   -0.0972 C   0  0  0  0  0  0  0  0  0  0  0  0
    1.8617    1.9720   -1.3086 C   0  0  0  0  0  0  0  0  0  0  0  0
    0.6614    1.3456   -1.6005 C   0  0  0  0  0  0  0  0  0  0  0  0
    0.0936    0.4692   -0.6866 C   0  0  0  0  0  0  0  0  0  0  0  0
   -0.9365    0.7973    2.6545 H   0  0  0  0  0  0  0  0  0  0  0  0
   -0.7869   -0.7450    3.5101 H   0  0  0  0  0  0  0  0  0  0  0  0
    0.6156    0.3119    3.3396 H   0  0  0  0  0  0  0  0  0  0  0  0
    1.9170   -1.6721    2.2456 H   0  0  0  0  0  0  0  0  0  0  0  0
    0.4820   -2.6795    2.4434 H   0  0  0  0  0  0  0  0  0  0  0  0
    1.2163   -2.4849    0.8446 H   0  0  0  0  0  0  0  0  0  0  0  0
    2.4182    0.6492    1.7521 H   0  0  0  0  0  0  0  0  0  0  0  0
    3.4266    2.1989    0.1413 H   0  0  0  0  0  0  0  0  0  0  0  0
    2.3081    2.6564   -2.0188 H   0  0  0  0  0  0  0  0  0  0  0  0
    0.1630    1.5381   -2.5424 H   0  0  0  0  0  0  0  0  0  0  0  0
   -0.8464   -0.0165   -0.9239 H   0  0  0  0  0  0  0  0  0  0  0  0
  1  2  1  0
  1  5  1  0
  1  6  1  0
  2  3  2  3
  2  7  1  0
  3  9  1  0
  4 10  1  0
  4 11  1  0
  4 12  1  0
  8 14  1  0
 13 14  1  0
 13 22  1  0
 13 23  1  0
 13 24  1  0
 14 15  1  0
 14 16  1  0
 15 25  1  0
 15 26  1  0
 15 27  1  0
 16 17  2  0
 16 21  1  0
 17 18  1  0
 17 28  1  0
 18 19  2  0
 18 29  1  0
 19 20  1  0
 19 30  1  0
 20 21  2  0
 20 31  1  0
 21 32  1  0
M  CHG  2   1   1   3  -1
M  RAD  1   4   2
M  END
>  <reaction>  (15) 
rxn_1053

>  <mol_properties>  (15) 
{"1": {"label": "*4", "atom_type": "Cd"}, "2": {"label": "*3", "atom_type": "Cs"}, "7": {"label": "*2", "atom_type": "H0"}, "13": {"label": "*1", "atom_type": "Cs"}, "15": {"label": "*0", "atom_type": "Cd"}}

>  <type>  (15) 
unop_11

>  <geom_source>  (15) 
Heuristics

$$$$

     RDKit          3D

 32 31  0  0  0  0  0  0  0  0999 V2000
   -1.1120   -0.9985   -4.1591 C   0  0  0  0  0  0  0  0  0  0  0  0
   -1.1120   -0.9985   -2.8347 C   0  0  0  0  0  0  0  0  0  0  0  0
   -1.1120    0.2060   -1.9413 C   0  0  0  0  0  3  0  0  0  0  0  0
   -1.1120    1.5518   -2.6490 C   0  0  0  0  0  0  0  0  0  0  0  0
   -1.1120   -0.0816   -4.7365 H   0  0  0  0  0  0  0  0  0  0  0  0
   -1.1120   -1.9258   -4.7178 H   0  0  0  0  0  0  0  0  0  0  0  0
   -1.1120   -1.9542   -2.3166 H   0  0  0  0  0  0  0  0  0  0  0  0
   -0.0687    0.1245   -1.1455 H   0  0  0  0  0  0  0  0  0  0  0  0
   -1.9814    0.1380   -1.2781 H   0  0  0  0  0  0  0  0  0  0  0  0
   -1.9944    1.6668   -3.2814 H   0  0  0  0  0  0  0  0  0  0  0  0
   -0.2295    1.6668   -3.2814 H   0  0  0  0  0  0  0  0  0  0  0  0
   -1.1120    2.3661   -1.9237 H   0  0  0  0  0  0  0  0  0  0  0  0
    1.7190   -1.2472   -0.6957 C   0  0  0  0  0  0  0  0  0  0  0  0
    0.9730    0.0430   -0.3510 C   0  0  0  0  0  0  0  0  0  0  0  0
    1.8494    1.2700   -0.6086 C   0  0  0  0  0  0  0  0  0  0  0  0
    0.4468    0.0211    1.0688 C   0  0  0  0  0  0  0  0  0  0  0  0
    1.3133   -0.0614    2.1567 C   0  0  0  0  0  0  0  0  0  0  0  0
    0.8300   -0.0813    3.4543 C   0  0  0  0  0  0  0  0  0  0  0  0
   -0.5358   -0.0188    3.6918 C   0  0  0  0  0  0  0  0  0  0  0  0
   -1.4093    0.0635    2.6201 C   0  0  0  0  0  0  0  0  0  0  0  0
   -0.9185    0.0830    1.3222 C   0  0  0  0  0  0  0  0  0  0  0  0
    1.0874   -2.1219   -0.5341 H   0  0  0  0  0  0  0  0  0  0  0  0
    2.0363   -1.2402   -1.7405 H   0  0  0  0  0  0  0  0  0  0  0  0
    2.6123   -1.3603   -0.0771 H   0  0  0  0  0  0  0  0  0  0  0  0
    2.7473    1.2475    0.0132 H   0  0  0  0  0  0  0  0  0  0  0  0
    2.1680    1.3024   -1.6525 H   0  0  0  0  0  0  0  0  0  0  0  0
    1.3108    2.1920   -0.3848 H   0  0  0  0  0  0  0  0  0  0  0  0
    2.3831   -0.1110    1.9893 H   0  0  0  0  0  0  0  0  0  0  0  0
    1.5219   -0.1459    4.2850 H   0  0  0  0  0  0  0  0  0  0  0  0
   -0.9146   -0.0343    4.7059 H   0  0  0  0  0  0  0  0  0  0  0  0
   -2.4774    0.1129    2.7921 H   0  0  0  0  0  0  0  0  0  0  0  0
   -1.6101    0.1477    0.4895 H   0  0  0  0  0  0  0  0  0  0  0  0
  1  2  2  3
  1  5  1  0
  1  6  1  0
  2  3  1  0
  2  7  1  0
  3  4  1  0
  3  9  1  0
  4 10  1  0
  4 11  1  0
  4 12  1  0
  8 14  1  0
 13 14  1  0
 13 22  1  0
 13 23  1  0
 13 24  1  0
 14 15  1  0
 14 16  1  0
 15 25  1  0
 15 26  1  0
 15 27  1  0
 16 17  2  0
 16 21  1  0
 17 18  1  0
 17 28  1  0
 18 19  2  0
 18 29  1  0
 19 20  1  0
 19 30  1  0
 20 21  2  0
 20 31  1  0
 21 32  1  0
M  RAD  1   3   2
M  END
>  <reaction>  (16) 
rxn_1053

>  <mol_properties>  (16) 
{"1": {"label": "*4", "atom_type": "Cd"}, "2": {"label": "*3", "atom_type": "Cs"}, "7": {"label": "*2", "atom_type": "H0"}, "13": {"label": "*1", "atom_type": "Cs"}, "15": {"label": "*0", "atom_type": "Cd"}}

>  <type>  (16) 
unop_12

>  <geom_source>  (16) 
Heuristics

$$$$

     RDKit          3D

 32 31  0  0  0  0  0  0  0  0999 V2000
   -0.0842    0.7761   -0.3515 C   0  0  0  0  0  0  0  0  0  0  0  0
    0.3868    1.6231    0.8354 C   0  0  0  0  0  0  0  0  0  0  0  0
   -0.1160    1.6016   -1.6420 C   0  0  0  0  0  0  0  0  0  0  0  0
    2.4889   -2.0286   -0.8384 C   0  0  0  0  0  0  0  0  0  0  0  0
   -1.4336    0.1446   -0.0721 C   0  0  0  0  0  0  0  0  0  0  0  0
    1.8729   -0.9184    0.0009 C   0  0  0  0  0  3  0  0  0  0  0  0
   -1.5586   -1.2557   -0.0346 C   0  0  0  0  0  0  0  0  0  0  0  0
   -2.5765    0.9373    0.1529 C   0  0  0  0  0  0  0  0  0  0  0  0
   -2.7985   -1.8492    0.2222 C   0  0  0  0  0  0  0  0  0  0  0  0
   -3.9246   -1.0533    0.4438 C   0  0  0  0  0  0  0  0  0  0  0  0
   -3.8136    0.3385    0.4092 C   0  0  0  0  0  0  0  0  0  0  0  0
    2.8785   -0.3427    0.9485 C   0  0  0  0  0  0  0  0  0  0  0  0
    3.2712    0.9261    0.8328 C   0  0  0  0  0  0  0  0  0  0  0  0
    0.8050   -0.1574   -0.5239 H   0  0  0  0  0  0  0  0  0  0  0  0
    0.4033    1.0055    1.7585 H   0  0  0  0  0  0  0  0  0  0  0  0
   -0.2809    2.4959    0.9965 H   0  0  0  0  0  0  0  0  0  0  0  0
    1.4167    1.9945    0.6487 H   0  0  0  0  0  0  0  0  0  0  0  0
    0.9039    1.9725   -1.8778 H   0  0  0  0  0  0  0  0  0  0  0  0
   -0.7967    2.4739   -1.5446 H   0  0  0  0  0  0  0  0  0  0  0  0
   -0.4586    0.9687   -2.4881 H   0  0  0  0  0  0  0  0  0  0  0  0
    1.7267   -2.4217   -1.5428 H   0  0  0  0  0  0  0  0  0  0  0  0
    3.3446   -1.6328   -1.4255 H   0  0  0  0  0  0  0  0  0  0  0  0
    2.8383   -2.8581   -0.1870 H   0  0  0  0  0  0  0  0  0  0  0  0
    1.0035   -1.3088    0.5711 H   0  0  0  0  0  0  0  0  0  0  0  0
   -0.6992   -1.8920   -0.2035 H   0  0  0  0  0  0  0  0  0  0  0  0
   -2.8860   -2.9277    0.2493 H   0  0  0  0  0  0  0  0  0  0  0  0
   -2.5124    2.0174    0.1306 H   0  0  0  0  0  0  0  0  0  0  0  0
   -4.8832   -1.5150    0.6424 H   0  0  0  0  0  0  0  0  0  0  0  0
   -4.6869    0.9544    0.5811 H   0  0  0  0  0  0  0  0  0  0  0  0
    3.2972   -0.9674    1.7323 H   0  0  0  0  0  0  0  0  0  0  0  0
    2.8681    1.5658    0.0533 H   0  0  0  0  0  0  0  0  0  0  0  0
    4.0038    1.3328    1.5222 H   0  0  0  0  0  0  0  0  0  0  0  0
  1  2  1  0
  1  3  1  0
  1  5  1  0
  1 14  1  0
  2 15  1  0
  2 16  1  0
  2 17  1  0
  3 18  1  0
  3 19  1  0
  3 20  1  0
  4  6  1  0
  4 21  1  0
  4 22  1  0
  4 23  1  0
  5  7  2  0
  5  8  1  0
  6 12  1  0
  6 24  1  0
  7  9  1  0
  7 25  1  0
  8 11  2  0
  8 27  1  0
  9 10  2  0
  9 26  1  0
 10 11  1  0
 10 28  1  0
 11 29  1  0
 12 13  2  3
 12 30  1  0
 13 31  1  0
 13 32  1  0
M  RAD  1   6   2
M  END
>  <reaction>  (17) 
rxn_1053

>  <mol_properties>  (17) 
{"1": {"label": "*4", "atom_type": "Cd"}, "2": {"label": "*3", "atom_type": "Cs"}, "7": {"label": "*2", "atom_type": "H0"}, "13": {"label": "*1", "atom_type": "Cs"}, "15": {"label": "*0", "atom_type": "Cd"}}

>  <type>  (17) 
unop_13

>  <geom_source>  (17) 
AutoTST

$$$$
