
     RDKit          3D

  7  6  0  0  0  0  0  0  0  0999 V2000
   -0.6468   -0.0443   -0.0231 C   0  0  0  0  0  0  0  0  0  0  0  0
    0.8470    0.0371    0.0688 C   0  0  0  0  0  0  0  0  0  0  0  0
    1.4866   -0.2280    1.0479 O   0  0  0  0  0  0  0  0  0  0  0  0
   -1.0466    0.9363   -0.2943 H   0  0  0  0  0  0  0  0  0  0  0  0
   -0.9229   -0.7318   -0.8269 H   0  0  0  0  0  0  0  0  0  0  0  0
   -1.0759   -0.3772    0.9198 H   0  0  0  0  0  0  0  0  0  0  0  0
    1.3584    0.3712   -0.8589 H   0  0  0  0  0  0  0  0  0  0  0  0
  1  2  1  0
  1  4  1  0
  1  5  1  0
  1  6  1  0
  2  3  2  0
  2  7  1  0
M  END
>  <reaction>  (1) 
rxn_240

>  <mol_properties>  (1) 
{"0": {"label": "donator", "atom_type": "Cs"}, "3": {"label": "d_hydrogen", "atom_type": "H0"}}

>  <type>  (1) 
r1h

$$$$

     RDKit          3D

  3  2  0  0  0  0  0  0  0  0999 V2000
    0.9943   -0.1797    0.0000 O   0  0  0  0  0  1  0  0  0  0  0  0
   -0.1595    0.4394    0.0000 O   0  0  0  0  0  0  0  0  0  0  0  0
   -0.8348   -0.2597    0.0000 H   0  0  0  0  0  0  0  0  0  0  0  0
  1  2  1  0
  2  3  1  0
M  RAD  1   1   2
M  END
>  <reaction>  (2) 
rxn_240

>  <mol_properties>  (2) 
{"0": {"label": "acceptor", "atom_type": "O2s"}}

>  <type>  (2) 
r2

$$$$

     RDKit          3D

  4  3  0  0  0  0  0  0  0  0999 V2000
    0.5949   -0.3853    0.2659 O   0  0  0  0  0  0  0  0  0  0  0  0
   -0.5918    0.4028    0.2462 O   0  0  0  0  0  0  0  0  0  0  0  0
    1.1865    0.1539   -0.2689 H   0  0  0  0  0  0  0  0  0  0  0  0
   -1.1896   -0.1714   -0.2432 H   0  0  0  0  0  0  0  0  0  0  0  0
  1  2  1  0
  1  3  1  0
  2  4  1  0
M  END
>  <reaction>  (3) 
rxn_240

>  <mol_properties>  (3) 
{"0": {"label": "a_hydrogen", "atom_type": "H0"}, "1": {"label": "acceptor", "atom_type": "O2s"}}

>  <type>  (3) 
r2h

$$$$

     RDKit          3D

 10  8  0  0  0  0  0  0  0  0999 V2000
    1.2801    0.2278   -0.1614 C   0  0  0  0  0  0  0  0  0  0  0  0
    0.3169   -0.4557   -1.0203 C   0  0  0  0  0  0  0  0  0  0  0  0
   -0.7036    0.0612   -1.4213 O   0  0  0  0  0  1  0  0  0  0  0  0
    0.5729    0.1381    1.0190 H   0  0  0  0  0  0  0  0  0  0  0  0
    2.2299   -0.2623    0.0251 H   0  0  0  0  0  0  0  0  0  0  0  0
    1.2885    1.3128   -0.2190 H   0  0  0  0  0  0  0  0  0  0  0  0
    0.5318   -1.5160   -1.2511 H   0  0  0  0  0  0  0  0  0  0  0  0
   -0.2631    0.1561    1.8124 O   0  0  0  0  0  0  0  0  0  0  0  0
   -1.0707    1.2033    1.4582 O   0  0  0  0  0  0  0  0  0  0  0  0
   -1.6642    0.8261    0.7910 H   0  0  0  0  0  0  0  0  0  0  0  0
  1  2  2  3
  1  5  1  0
  1  6  1  0
  2  3  1  0
  2  7  1  0
  4  8  1  0
  8  9  1  0
  9 10  1  0
M  RAD  1   3   2
M  END
>  <reaction>  (4) 
rxn_240

>  <mol_properties>  (4) 
{"0": {"label": "*3", "atom_type": "Cd"}, "1": {"label": "*4", "atom_type": "Cd"}, "3": {"label": "*2", "atom_type": "H0"}, "7": {"label": "*1", "atom_type": "O2s"}, "8": {"label": "*0", "atom_type": "O2s"}}

>  <type>  (4) 
ts

$$$$

     RDKit          3D

 10  8  0  0  0  0  0  0  0  0999 V2000
    0.7123    0.4591   -0.3623 C   0  0  0  0  0  0  0  0  0  0  0  0
    0.7123   -0.7728   -1.2160 C   0  0  0  0  0  0  0  0  0  0  0  0
    0.7123   -0.7728   -2.4151 O   0  0  0  0  0  1  0  0  0  0  0  0
   -0.3410    0.4456    0.4196 H   0  0  0  0  0  0  0  0  0  0  0  0
    1.5900    0.4478    0.2893 H   0  0  0  0  0  0  0  0  0  0  0  0
    0.7123    1.3570   -0.9768 H   0  0  0  0  0  0  0  0  0  0  0  0
    0.7123   -1.7328   -0.6574 H   0  0  0  0  0  0  0  0  0  0  0  0
   -1.2684    0.4337    1.1081 O   0  0  0  0  0  0  0  0  0  0  0  0
   -0.6581    0.4554    2.3952 O   0  0  0  0  0  0  0  0  0  0  0  0
   -0.3654    1.3710    2.4480 H   0  0  0  0  0  0  0  0  0  0  0  0
  1  2  2  3
  1  5  1  0
  1  6  1  0
  2  3  1  0
  2  7  1  0
  4  8  1  0
  8  9  1  0
  9 10  1  0
M  RAD  1   3   2
M  END
>  <reaction>  (5) 
rxn_240

>  <mol_properties>  (5) 
{"0": {"label": "*3", "atom_type": "Cd"}, "1": {"label": "*4", "atom_type": "Cd"}, "3": {"label": "*2", "atom_type": "H0"}, "7": {"label": "*1", "atom_type": "O2s"}, "8": {"label": "*0", "atom_type": "O2s"}}

>  <type>  (5) 
unop_1

>  <geom_source>  (5) 
Heuristics

$$$$

     RDKit          3D

 10  8  0  0  0  0  0  0  0  0999 V2000
    0.8877    0.7870   -0.1269 C   0  0  0  0  0  0  0  0  0  0  0  0
    0.8877   -0.4449   -0.9807 C   0  0  0  0  0  0  0  0  0  0  0  0
    0.8877   -0.4449   -2.1798 O   0  0  0  0  0  1  0  0  0  0  0  0
   -0.1656    0.7735    0.6549 H   0  0  0  0  0  0  0  0  0  0  0  0
    1.7654    0.7757    0.5246 H   0  0  0  0  0  0  0  0  0  0  0  0
    0.8877    1.6849   -0.7415 H   0  0  0  0  0  0  0  0  0  0  0  0
    0.8877   -1.4049   -0.4221 H   0  0  0  0  0  0  0  0  0  0  0  0
   -1.0931    0.7616    1.3434 O   0  0  0  0  0  0  0  0  0  0  0  0
   -1.2891   -0.6385    1.5195 O   0  0  0  0  0  0  0  0  0  0  0  0
   -0.7957   -0.7958    2.3310 H   0  0  0  0  0  0  0  0  0  0  0  0
  1  2  2  3
  1  5  1  0
  1  6  1  0
  2  3  1  0
  2  7  1  0
  4  8  1  0
  8  9  1  0
  9 10  1  0
M  RAD  1   3   2
M  END
>  <reaction>  (6) 
rxn_240

>  <mol_properties>  (6) 
{"0": {"label": "*3", "atom_type": "Cd"}, "1": {"label": "*4", "atom_type": "Cd"}, "3": {"label": "*2", "atom_type": "H0"}, "7": {"label": "*1", "atom_type": "O2s"}, "8": {"label": "*0", "atom_type": "O2s"}}

>  <type>  (6) 
unop_2

>  <geom_source>  (6) 
Heuristics

$$$$

     RDKit          3D

 10  8  0  0  0  0  0  0  0  0999 V2000
    0.7461    0.3057   -0.3238 C   0  0  0  0  0  0  0  0  0  0  0  0
    0.7461   -0.9262   -1.1775 C   0  0  0  0  0  0  0  0  0  0  0  0
    0.7461   -0.9262   -2.3766 O   0  0  0  0  0  1  0  0  0  0  0  0
   -0.3072    0.2922    0.4581 H   0  0  0  0  0  0  0  0  0  0  0  0
    1.6238    0.2944    0.3278 H   0  0  0  0  0  0  0  0  0  0  0  0
    0.7461    1.2036   -0.9383 H   0  0  0  0  0  0  0  0  0  0  0  0
    0.7461   -1.8862   -0.6189 H   0  0  0  0  0  0  0  0  0  0  0  0
   -1.2346    0.2803    1.1466 O   0  0  0  0  0  0  0  0  0  0  0  0
   -0.7489    0.9974    2.2778 O   0  0  0  0  0  0  0  0  0  0  0  0
   -0.9359    1.9052    2.0181 H   0  0  0  0  0  0  0  0  0  0  0  0
  1  2  2  3
  1  5  1  0
  1  6  1  0
  2  3  1  0
  2  7  1  0
  4  8  1  0
  8  9  1  0
  9 10  1  0
M  RAD  1   3   2
M  END
>  <reaction>  (7) 
rxn_240

>  <mol_properties>  (7) 
{"0": {"label": "*3", "atom_type": "Cd"}, "1": {"label": "*4", "atom_type": "Cd"}, "3": {"label": "*2", "atom_type": "H0"}, "7": {"label": "*1", "atom_type": "O2s"}, "8": {"label": "*0", "atom_type": "O2s"}}

>  <type>  (7) 
unop_3

>  <geom_source>  (7) 
Heuristics

$$$$

     RDKit          3D

 10  8  0  0  0  0  0  0  0  0999 V2000
    1.0926    0.4884    0.1275 C   0  0  0  0  0  0  0  0  0  0  0  0
    1.0926   -0.7436   -0.7262 C   0  0  0  0  0  0  0  0  0  0  0  0
    1.0926   -0.7436   -1.9253 O   0  0  0  0  0  1  0  0  0  0  0  0
    0.0393    0.4748    0.9094 H   0  0  0  0  0  0  0  0  0  0  0  0
    1.9703    0.4771    0.7791 H   0  0  0  0  0  0  0  0  0  0  0  0
    1.0926    1.3862   -0.4870 H   0  0  0  0  0  0  0  0  0  0  0  0
    1.0926   -1.7036   -0.1676 H   0  0  0  0  0  0  0  0  0  0  0  0
   -0.8882    0.4629    1.5979 O   0  0  0  0  0  0  0  0  0  0  0  0
   -1.9431    0.4355    0.6408 O   0  0  0  0  0  0  0  0  0  0  0  0
   -2.6188   -0.0538    1.1211 H   0  0  0  0  0  0  0  0  0  0  0  0
  1  2  2  3
  1  5  1  0
  1  6  1  0
  2  3  1  0
  2  7  1  0
  4  8  1  0
  8  9  1  0
  9 10  1  0
M  RAD  1   3   2
M  END
>  <reaction>  (8) 
rxn_240

>  <mol_properties>  (8) 
{"0": {"label": "*3", "atom_type": "Cd"}, "1": {"label": "*4", "atom_type": "Cd"}, "3": {"label": "*2", "atom_type": "H0"}, "7": {"label": "*1", "atom_type": "O2s"}, "8": {"label": "*0", "atom_type": "O2s"}}

>  <type>  (8) 
unop_4

>  <geom_source>  (8) 
Heuristics

$$$$

     RDKit          3D

 10  8  0  0  0  0  0  0  0  0999 V2000
    0.8229    0.2001   -0.2315 C   0  0  0  0  0  0  0  0  0  0  0  0
    0.8229   -1.0318   -1.0852 C   0  0  0  0  0  0  0  0  0  0  0  0
    0.8229   -1.0318   -2.2844 O   0  0  0  0  0  1  0  0  0  0  0  0
   -0.2303    0.1865    0.5503 H   0  0  0  0  0  0  0  0  0  0  0  0
    1.7006    0.1888    0.4201 H   0  0  0  0  0  0  0  0  0  0  0  0
    0.8230    1.0979   -0.8461 H   0  0  0  0  0  0  0  0  0  0  0  0
    0.8229   -1.9919   -0.5266 H   0  0  0  0  0  0  0  0  0  0  0  0
   -1.1578    0.1746    1.2388 O   0  0  0  0  0  0  0  0  0  0  0  0
   -0.9865    1.3941    1.9552 O   0  0  0  0  0  0  0  0  0  0  0  0
   -1.7432    1.9015    1.6445 H   0  0  0  0  0  0  0  0  0  0  0  0
  1  2  2  3
  1  5  1  0
  1  6  1  0
  2  3  1  0
  2  7  1  0
  4  8  1  0
  8  9  1  0
  9 10  1  0
M  RAD  1   3   2
M  END
>  <reaction>  (9) 
rxn_240

>  <mol_properties>  (9) 
{"0": {"label": "*3", "atom_type": "Cd"}, "1": {"label": "*4", "atom_type": "Cd"}, "3": {"label": "*2", "atom_type": "H0"}, "7": {"label": "*1", "atom_type": "O2s"}, "8": {"label": "*0", "atom_type": "O2s"}}

>  <type>  (9) 
unop_5

>  <geom_source>  (9) 
Heuristics

$$$$

     RDKit          3D

 10  8  0  0  0  0  0  0  0  0999 V2000
    1.0728    0.3315    0.0972 C   0  0  0  0  0  0  0  0  0  0  0  0
    1.0728   -0.9004   -0.7566 C   0  0  0  0  0  0  0  0  0  0  0  0
    1.0728   -0.9004   -1.9557 O   0  0  0  0  0  1  0  0  0  0  0  0
    0.0195    0.3180    0.8790 H   0  0  0  0  0  0  0  0  0  0  0  0
    1.9505    0.3202    0.7487 H   0  0  0  0  0  0  0  0  0  0  0  0
    1.0728    1.2294   -0.5174 H   0  0  0  0  0  0  0  0  0  0  0  0
    1.0728   -1.8605   -0.1979 H   0  0  0  0  0  0  0  0  0  0  0  0
   -0.9079    0.3060    1.5675 O   0  0  0  0  0  0  0  0  0  0  0  0
   -1.8644    0.9805    0.7552 O   0  0  0  0  0  0  0  0  0  0  0  0
   -2.6894    0.6396    1.1154 H   0  0  0  0  0  0  0  0  0  0  0  0
  1  2  2  3
  1  5  1  0
  1  6  1  0
  2  3  1  0
  2  7  1  0
  4  8  1  0
  8  9  1  0
  9 10  1  0
M  RAD  1   3   2
M  END
>  <reaction>  (10) 
rxn_240

>  <mol_properties>  (10) 
{"0": {"label": "*3", "atom_type": "Cd"}, "1": {"label": "*4", "atom_type": "Cd"}, "3": {"label": "*2", "atom_type": "H0"}, "7": {"label": "*1", "atom_type": "O2s"}, "8": {"label": "*0", "atom_type": "O2s"}}

>  <type>  (10) 
unop_6

>  <geom_source>  (10) 
Heuristics

$$$$

     RDKit          3D

 10  8  0  0  0  0  0  0  0  0999 V2000
    1.0088    0.2148    0.0091 C   0  0  0  0  0  0  0  0  0  0  0  0
    1.0088   -1.0171   -0.8446 C   0  0  0  0  0  0  0  0  0  0  0  0
    1.0088   -1.0171   -2.0437 O   0  0  0  0  0  1  0  0  0  0  0  0
   -0.0445    0.2013    0.7910 H   0  0  0  0  0  0  0  0  0  0  0  0
    1.8865    0.2035    0.6607 H   0  0  0  0  0  0  0  0  0  0  0  0
    1.0088    1.1127   -0.6054 H   0  0  0  0  0  0  0  0  0  0  0  0
    1.0088   -1.9771   -0.2860 H   0  0  0  0  0  0  0  0  0  0  0  0
   -0.9720    0.1894    1.4795 O   0  0  0  0  0  0  0  0  0  0  0  0
   -1.6333    1.3843    1.0738 O   0  0  0  0  0  0  0  0  0  0  0  0
   -2.5460    1.1791    1.3005 H   0  0  0  0  0  0  0  0  0  0  0  0
  1  2  2  3
  1  5  1  0
  1  6  1  0
  2  3  1  0
  2  7  1  0
  4  8  1  0
  8  9  1  0
  9 10  1  0
M  RAD  1   3   2
M  END
>  <reaction>  (11) 
rxn_240

>  <mol_properties>  (11) 
{"0": {"label": "*3", "atom_type": "Cd"}, "1": {"label": "*4", "atom_type": "Cd"}, "3": {"label": "*2", "atom_type": "H0"}, "7": {"label": "*1", "atom_type": "O2s"}, "8": {"label": "*0", "atom_type": "O2s"}}

>  <type>  (11) 
unop_7

>  <geom_source>  (11) 
Heuristics

$$$$

     RDKit          3D

 10  8  0  0  0  0  0  0  0  0999 V2000
    0.7304    0.6172   -0.3346 C   0  0  0  0  0  0  0  0  0  0  0  0
    0.7304   -0.6147   -1.1883 C   0  0  0  0  0  0  0  0  0  0  0  0
    0.7304   -0.6147   -2.3875 O   0  0  0  0  0  1  0  0  0  0  0  0
   -0.3229    0.6037    0.4473 H   0  0  0  0  0  0  0  0  0  0  0  0
    1.6081    0.6059    0.3170 H   0  0  0  0  0  0  0  0  0  0  0  0
    0.7304    1.5151   -0.9492 H   0  0  0  0  0  0  0  0  0  0  0  0
    0.7304   -1.5747   -0.6297 H   0  0  0  0  0  0  0  0  0  0  0  0
   -1.2503    0.5918    1.1357 O   0  0  0  0  0  0  0  0  0  0  0  0
   -0.7384   -0.0884    2.2781 O   0  0  0  0  0  0  0  0  0  0  0  0
   -0.1694    0.5881    2.6591 H   0  0  0  0  0  0  0  0  0  0  0  0
  1  2  2  3
  1  5  1  0
  1  6  1  0
  2  3  1  0
  2  7  1  0
  4  8  1  0
  8  9  1  0
  9 10  1  0
M  RAD  1   3   2
M  END
>  <reaction>  (12) 
rxn_240

>  <mol_properties>  (12) 
{"0": {"label": "*3", "atom_type": "Cd"}, "1": {"label": "*4", "atom_type": "Cd"}, "3": {"label": "*2", "atom_type": "H0"}, "7": {"label": "*1", "atom_type": "O2s"}, "8": {"label": "*0", "atom_type": "O2s"}}

>  <type>  (12) 
unop_8

>  <geom_source>  (12) 
Heuristics

$$$$

     RDKit          3D

 10  8  0  0  0  0  0  0  0  0999 V2000
    1.0611    0.6433    0.0909 C   0  0  0  0  0  0  0  0  0  0  0  0
    1.0611   -0.5886   -0.7628 C   0  0  0  0  0  0  0  0  0  0  0  0
    1.0611   -0.5886   -1.9620 O   0  0  0  0  0  1  0  0  0  0  0  0
    0.0079    0.6298    0.8728 H   0  0  0  0  0  0  0  0  0  0  0  0
    1.9388    0.6321    0.7425 H   0  0  0  0  0  0  0  0  0  0  0  0
    1.0612    1.5412   -0.5236 H   0  0  0  0  0  0  0  0  0  0  0  0
    1.0611   -1.5486   -0.2042 H   0  0  0  0  0  0  0  0  0  0  0  0
   -0.9196    0.6179    1.5613 O   0  0  0  0  0  0  0  0  0  0  0  0
   -1.8499   -0.1048    0.7601 O   0  0  0  0  0  0  0  0  0  0  0  0
   -2.2259   -0.7086    1.4087 H   0  0  0  0  0  0  0  0  0  0  0  0
  1  2  2  3
  1  5  1  0
  1  6  1  0
  2  3  1  0
  2  7  1  0
  4  8  1  0
  8  9  1  0
  9 10  1  0
M  RAD  1   3   2
M  END
>  <reaction>  (13) 
rxn_240

>  <mol_properties>  (13) 
{"0": {"label": "*3", "atom_type": "Cd"}, "1": {"label": "*4", "atom_type": "Cd"}, "3": {"label": "*2", "atom_type": "H0"}, "7": {"label": "*1", "atom_type": "O2s"}, "8": {"label": "*0", "atom_type": "O2s"}}

>  <type>  (13) 
unop_9

>  <geom_source>  (13) 
Heuristics

$$$$

     RDKit          3D

 10  8  0  0  0  0  0  0  0  0999 V2000
    0.7945    0.7371   -0.2483 C   0  0  0  0  0  0  0  0  0  0  0  0
    0.7945   -0.4948   -1.1020 C   0  0  0  0  0  0  0  0  0  0  0  0
    0.7945   -0.4948   -2.3012 O   0  0  0  0  0  1  0  0  0  0  0  0
   -0.2587    0.7236    0.5335 H   0  0  0  0  0  0  0  0  0  0  0  0
    1.6722    0.7258    0.4033 H   0  0  0  0  0  0  0  0  0  0  0  0
    0.7945    1.6350   -0.8629 H   0  0  0  0  0  0  0  0  0  0  0  0
    0.7945   -1.4548   -0.5434 H   0  0  0  0  0  0  0  0  0  0  0  0
   -1.1862    0.7117    1.2220 O   0  0  0  0  0  0  0  0  0  0  0  0
   -0.9695   -0.4889    1.9577 O   0  0  0  0  0  0  0  0  0  0  0  0
   -0.3202   -0.1967    2.6056 H   0  0  0  0  0  0  0  0  0  0  0  0
  1  2  2  3
  1  5  1  0
  1  6  1  0
  2  3  1  0
  2  7  1  0
  4  8  1  0
  8  9  1  0
  9 10  1  0
M  RAD  1   3   2
M  END
>  <reaction>  (14) 
rxn_240

>  <mol_properties>  (14) 
{"0": {"label": "*3", "atom_type": "Cd"}, "1": {"label": "*4", "atom_type": "Cd"}, "3": {"label": "*2", "atom_type": "H0"}, "7": {"label": "*1", "atom_type": "O2s"}, "8": {"label": "*0", "atom_type": "O2s"}}

>  <type>  (14) 
unop_10

>  <geom_source>  (14) 
Heuristics

$$$$

     RDKit          3D

 10  8  0  0  0  0  0  0  0  0999 V2000
    0.9183    0.1678   -0.1112 C   0  0  0  0  0  0  0  0  0  0  0  0
    0.9183   -1.0641   -0.9649 C   0  0  0  0  0  0  0  0  0  0  0  0
    0.9183   -1.0641   -2.1641 O   0  0  0  0  0  1  0  0  0  0  0  0
   -0.1350    0.1543    0.6707 H   0  0  0  0  0  0  0  0  0  0  0  0
    1.7960    0.1565    0.5404 H   0  0  0  0  0  0  0  0  0  0  0  0
    0.9183    1.0657   -0.7258 H   0  0  0  0  0  0  0  0  0  0  0  0
    0.9183   -2.0241   -0.4063 H   0  0  0  0  0  0  0  0  0  0  0  0
   -1.0624    0.1424    1.3591 O   0  0  0  0  0  0  0  0  0  0  0  0
   -1.3109    1.5367    1.5130 O   0  0  0  0  0  0  0  0  0  0  0  0
   -2.2732    1.5581    1.4973 H   0  0  0  0  0  0  0  0  0  0  0  0
  1  2  2  3
  1  5  1  0
  1  6  1  0
  2  3  1  0
  2  7  1  0
  4  8  1  0
  8  9  1  0
  9 10  1  0
M  RAD  1   3   2
M  END
>  <reaction>  (15) 
rxn_240

>  <mol_properties>  (15) 
{"0": {"label": "*3", "atom_type": "Cd"}, "1": {"label": "*4", "atom_type": "Cd"}, "3": {"label": "*2", "atom_type": "H0"}, "7": {"label": "*1", "atom_type": "O2s"}, "8": {"label": "*0", "atom_type": "O2s"}}

>  <type>  (15) 
unop_11

>  <geom_source>  (15) 
Heuristics

$$$$

     RDKit          3D

 10  8  0  0  0  0  0  0  0  0999 V2000
    0.9857    0.7531   -0.0027 C   0  0  0  0  0  0  0  0  0  0  0  0
    0.9857   -0.4788   -0.8564 C   0  0  0  0  0  0  0  0  0  0  0  0
    0.9857   -0.4788   -2.0556 O   0  0  0  0  0  1  0  0  0  0  0  0
   -0.0676    0.7396    0.7791 H   0  0  0  0  0  0  0  0  0  0  0  0
    1.8634    0.7418    0.6489 H   0  0  0  0  0  0  0  0  0  0  0  0
    0.9857    1.6510   -0.6173 H   0  0  0  0  0  0  0  0  0  0  0  0
    0.9857   -1.4388   -0.2978 H   0  0  0  0  0  0  0  0  0  0  0  0
   -0.9951    0.7277    1.4676 O   0  0  0  0  0  0  0  0  0  0  0  0
   -1.6109   -0.4975    1.0812 O   0  0  0  0  0  0  0  0  0  0  0  0
   -1.5242   -1.0135    1.8892 H   0  0  0  0  0  0  0  0  0  0  0  0
  1  2  2  3
  1  5  1  0
  1  6  1  0
  2  3  1  0
  2  7  1  0
  4  8  1  0
  8  9  1  0
  9 10  1  0
M  RAD  1   3   2
M  END
>  <reaction>  (16) 
rxn_240

>  <mol_properties>  (16) 
{"0": {"label": "*3", "atom_type": "Cd"}, "1": {"label": "*4", "atom_type": "Cd"}, "3": {"label": "*2", "atom_type": "H0"}, "7": {"label": "*1", "atom_type": "O2s"}, "8": {"label": "*0", "atom_type": "O2s"}}

>  <type>  (16) 
unop_12

>  <geom_source>  (16) 
Heuristics

$$$$

     RDKit          3D

 10  8  0  0  0  0  0  0  0  0999 V2000
    2.2868    0.4585   -0.1435 O   0  0  0  0  0  0  0  0  0  0  0  0
    1.5791   -0.6158    0.1351 O   0  0  0  0  0  1  0  0  0  0  0  0
   -0.6198    0.4956    1.4520 O   0  0  0  0  0  0  0  0  0  0  0  0
   -0.7267   -0.6169   -0.6181 C   0  0  0  0  0  0  0  0  0  0  0  0
   -1.1135    0.4618    0.3370 C   0  0  0  0  0  0  0  0  0  0  0  0
   -1.0060   -1.6070   -0.2009 H   0  0  0  0  0  0  0  0  0  0  0  0
   -1.2452   -0.4683   -1.5883 H   0  0  0  0  0  0  0  0  0  0  0  0
   -1.8300    1.2216    0.0421 H   0  0  0  0  0  0  0  0  0  0  0  0
    2.3667    0.9357    0.7208 H   0  0  0  0  0  0  0  0  0  0  0  0
    0.3084   -0.2651   -0.1360 H   0  0  0  0  0  0  0  0  0  0  0  0
  1  2  1  0
  1  9  1  0
  3  5  2  0
  4  5  1  0
  4  6  1  0
  4  7  1  0
  4 10  1  0
  5  8  1  0
M  RAD  1   2   2
M  END
>  <reaction>  (17) 
rxn_240

>  <mol_properties>  (17) 
{"0": {"label": "*3", "atom_type": "Cd"}, "1": {"label": "*4", "atom_type": "Cd"}, "3": {"label": "*2", "atom_type": "H0"}, "7": {"label": "*1", "atom_type": "O2s"}, "8": {"label": "*0", "atom_type": "O2s"}}

>  <type>  (17) 
unop_13

>  <geom_source>  (17) 
AutoTST

$$$$

     RDKit          3D

 10  8  0  0  0  0  0  0  0  0999 V2000
    0.8877    0.7870   -0.1270 C   0  0  0  0  0  0  0  0  0  0  0  0
    0.8877   -0.4449   -0.9807 C   0  0  0  0  0  0  0  0  0  0  0  0
    0.8877   -0.4449   -2.1798 O   0  0  0  0  0  1  0  0  0  0  0  0
   -0.1656    0.7735    0.6549 H   0  0  0  0  0  0  0  0  0  0  0  0
    1.7654    0.7757    0.5246 H   0  0  0  0  0  0  0  0  0  0  0  0
    0.8877    1.6849   -0.7415 H   0  0  0  0  0  0  0  0  0  0  0  0
    0.8877   -1.4049   -0.4220 H   0  0  0  0  0  0  0  0  0  0  0  0
   -1.0931    0.7616    1.3434 O   0  0  0  0  0  0  0  0  0  0  0  0
   -1.2891   -0.6385    1.5195 O   0  0  0  0  0  0  0  0  0  0  0  0
   -0.7957   -0.7958    2.3310 H   0  0  0  0  0  0  0  0  0  0  0  0
  1  2  2  3
  1  5  1  0
  1  6  1  0
  2  3  1  0
  2  7  1  0
  4  8  1  0
  8  9  1  0
  9 10  1  0
M  RAD  1   3   2
M  END
>  <reaction>  (18) 
rxn_240

>  <mol_properties>  (18) 
{"0": {"label": "*3", "atom_type": "Cd"}, "1": {"label": "*4", "atom_type": "Cd"}, "3": {"label": "*2", "atom_type": "H0"}, "7": {"label": "*1", "atom_type": "O2s"}, "8": {"label": "*0", "atom_type": "O2s"}}

>  <type>  (18) 
unop_14

>  <geom_source>  (18) 
gaussian_log

$$$$
