
     RDKit          3D

 12 11  0  0  0  0  0  0  0  0999 V2000
    2.1696    0.6854    1.1310 C   0  0  0  0  0  0  0  0  0  0  0  0
    1.2518    0.4145    0.4134 C   0  0  0  0  0  0  0  0  0  0  0  0
    0.1391    0.0443   -0.4683 C   0  0  0  0  0  0  0  0  0  0  0  0
   -0.2054   -1.4492   -0.3339 C   0  0  0  0  0  0  0  0  0  0  0  0
   -1.0375    0.8853   -0.2222 C   0  0  0  0  0  0  0  0  0  0  0  0
   -2.0160    1.5463   -0.0311 C   0  0  0  0  0  0  0  0  0  0  0  0
    2.9819    0.9356    1.7702 H   0  0  0  0  0  0  0  0  0  0  0  0
    0.4629    0.2285   -1.4981 H   0  0  0  0  0  0  0  0  0  0  0  0
   -0.5327   -1.6703    0.6812 H   0  0  0  0  0  0  0  0  0  0  0  0
    0.6727   -2.0535   -0.5593 H   0  0  0  0  0  0  0  0  0  0  0  0
   -1.0064   -1.7081   -1.0256 H   0  0  0  0  0  0  0  0  0  0  0  0
   -2.8802    2.1413    0.1426 H   0  0  0  0  0  0  0  0  0  0  0  0
  1  2  3  0
  1  7  1  0
  2  3  1  0
  3  4  1  0
  3  5  1  0
  3  8  1  0
  4  9  1  0
  4 10  1  0
  4 11  1  0
  5  6  3  0
  6 12  1  0
M  END
>  <reaction>  (1) 
rxn_1410

>  <mol_properties>  (1) 
{"2": {"label": "donator", "atom_type": "Cs"}, "7": {"label": "d_hydrogen", "atom_type": "H0"}}

>  <type>  (1) 
r1h

$$$$

     RDKit          3D

  7  6  0  0  0  0  0  0  0  0999 V2000
    1.3002    0.7433    2.1279 C   0  0  0  0  0  0  0  0  0  0  0  0
    0.5758    0.3292    1.2319 C   0  0  0  0  0  0  0  0  0  0  0  0
   -0.2057   -0.1176    0.2652 C   0  0  0  0  0  3  0  0  0  0  0  0
   -0.9747   -0.5572   -0.6858 C   0  0  0  0  0  0  0  0  0  0  0  0
    1.9293    1.1030    2.9060 H   0  0  0  0  0  0  0  0  0  0  0  0
   -1.9977   -0.8727   -0.4932 H   0  0  0  0  0  0  0  0  0  0  0  0
   -0.6274   -0.6280   -1.7143 H   0  0  0  0  0  0  0  0  0  0  0  0
  1  2  3  0
  1  5  1  0
  2  3  1  0
  3  4  2  3
  4  6  1  0
  4  7  1  0
M  RAD  1   3   2
M  END
>  <reaction>  (2) 
rxn_1410

>  <mol_properties>  (2) 
{"2": {"label": "acceptor", "atom_type": "Cd"}}

>  <type>  (2) 
r2

$$$$

     RDKit          3D

  8  7  0  0  0  0  0  0  0  0999 V2000
    1.9029    0.9046   -0.2050 C   0  0  0  0  0  0  0  0  0  0  0  0
    0.8517    0.4283    0.1217 C   0  0  0  0  0  0  0  0  0  0  0  0
   -0.3908   -0.1311    0.5404 C   0  0  0  0  0  0  0  0  0  0  0  0
   -1.2847   -0.6576   -0.2899 C   0  0  0  0  0  0  0  0  0  0  0  0
    2.8335    1.3255   -0.5014 H   0  0  0  0  0  0  0  0  0  0  0  0
   -0.5867   -0.1096    1.6074 H   0  0  0  0  0  0  0  0  0  0  0  0
   -2.2126   -1.0686    0.0850 H   0  0  0  0  0  0  0  0  0  0  0  0
   -1.1134   -0.6914   -1.3582 H   0  0  0  0  0  0  0  0  0  0  0  0
  1  2  3  0
  1  5  1  0
  2  3  1  0
  3  4  2  3
  3  6  1  0
  4  7  1  0
  4  8  1  0
M  END
>  <reaction>  (3) 
rxn_1410

>  <mol_properties>  (3) 
{"0": {"label": "a_hydrogen", "atom_type": "H0"}, "3": {"label": "acceptor", "atom_type": "Cd"}}

>  <type>  (3) 
r2h

$$$$

     RDKit          3D

 19 17  0  0  0  0  0  0  0  0999 V2000
   -0.7635   -0.2635   -2.7677 C   0  0  0  0  0  0  0  0  0  0  0  0
   -0.9104   -0.1661   -1.5822 C   0  0  0  0  0  0  0  0  0  0  0  0
   -1.0340   -0.0081   -0.1516 C   0  0  0  0  0  0  0  0  0  0  0  0
   -1.5585    1.3569    0.2863 C   0  0  0  0  0  0  0  0  0  0  0  0
   -1.6548   -1.1288    0.5167 C   0  0  0  0  0  0  0  0  0  0  0  0
   -2.1454   -2.0466    1.1127 C   0  0  0  0  0  0  0  0  0  0  0  0
   -0.6420   -0.3589   -3.8197 H   0  0  0  0  0  0  0  0  0  0  0  0
    0.1446   -0.0042    0.2652 H   0  0  0  0  0  0  0  0  0  0  0  0
   -2.5899    1.4947   -0.0406 H   0  0  0  0  0  0  0  0  0  0  0  0
   -0.9429    2.1431   -0.1503 H   0  0  0  0  0  0  0  0  0  0  0  0
   -1.5191    1.4364    1.3723 H   0  0  0  0  0  0  0  0  0  0  0  0
   -2.5928   -2.8629    1.6269 H   0  0  0  0  0  0  0  0  0  0  0  0
    2.7116    2.1229   -0.0810 C   0  0  0  0  0  0  0  0  0  0  0  0
    2.1922    1.1415    0.3920 C   0  0  0  0  0  0  0  0  0  0  0  0
    1.4775    0.0524    0.8546 C   0  0  0  0  0  3  0  0  0  0  0  0
    1.6649   -0.9508    1.6840 C   0  0  0  0  0  0  0  0  0  0  0  0
    3.1947    2.9797   -0.4854 H   0  0  0  0  0  0  0  0  0  0  0  0
    2.6012   -1.0791    2.2201 H   0  0  0  0  0  0  0  0  0  0  0  0
    0.8829   -1.6830    1.8535 H   0  0  0  0  0  0  0  0  0  0  0  0
  1  2  3  0
  1  7  1  0
  2  3  1  0
  3  4  1  0
  3  5  1  0
  3  8  1  0
  4  9  1  0
  4 10  1  0
  4 11  1  0
  5  6  3  0
  6 12  1  0
 13 14  3  0
 13 17  1  0
 14 15  1  0
 15 16  2  3
 16 18  1  0
 16 19  1  0
M  RAD  1  15   2
M  END
>  <reaction>  (4) 
rxn_1410

>  <mol_properties>  (4) 
{"1": {"label": "*0", "atom_type": "Ct"}, "2": {"label": "*1", "atom_type": "Cs"}, "7": {"label": "*2", "atom_type": "H0"}, "13": {"label": "*4", "atom_type": "Ct"}, "14": {"label": "*3", "atom_type": "Cd"}}

>  <type>  (4) 
ts

$$$$

     RDKit          3D

 19 17  0  0  0  0  0  0  0  0999 V2000
   -0.8904   -0.0130   -3.0366 C   0  0  0  0  0  0  0  0  0  0  0  0
   -0.8904   -0.0130   -1.8404 C   0  0  0  0  0  0  0  0  0  0  0  0
   -0.8904    0.0270   -0.3738 C   0  0  0  0  0  3  0  0  0  0  0  0
   -1.5284    1.3262    0.1482 C   0  0  0  0  0  0  0  0  0  0  0  0
   -1.5522   -1.1542    0.1909 C   0  0  0  0  0  0  0  0  0  0  0  0
   -2.1005   -2.0995    0.6774 C   0  0  0  0  0  0  0  0  0  0  0  0
   -0.8904   -0.0130   -4.1000 H   0  0  0  0  0  0  0  0  0  0  0  0
    0.3632   -0.0002    0.0193 H   0  0  0  0  0  0  0  0  0  0  0  0
   -2.5717    1.3835   -0.1596 H   0  0  0  0  0  0  0  0  0  0  0  0
   -0.9958    2.1877   -0.2535 H   0  0  0  0  0  0  0  0  0  0  0  0
   -1.4812    1.3507    1.2364 H   0  0  0  0  0  0  0  0  0  0  0  0
   -2.5879   -2.9399    1.1099 H   0  0  0  0  0  0  0  0  0  0  0  0
    2.3999    2.0480    1.8058 C   0  0  0  0  0  0  0  0  0  0  0  0
    2.0440    1.0909    1.1765 C   0  0  0  0  0  0  0  0  0  0  0  0
    1.6053   -0.0272    0.4088 C   0  0  0  0  0  0  0  0  0  0  0  0
    1.9168   -1.2881    0.6897 C   0  0  0  0  0  0  0  0  0  0  0  0
    2.7155    2.8966    2.3637 H   0  0  0  0  0  0  0  0  0  0  0  0
    2.5373   -1.5417    1.5397 H   0  0  0  0  0  0  0  0  0  0  0  0
    1.5547   -2.0981    0.0706 H   0  0  0  0  0  0  0  0  0  0  0  0
  1  2  3  0
  1  7  1  0
  2  3  1  0
  3  4  1  0
  3  5  1  0
  4  9  1  0
  4 10  1  0
  4 11  1  0
  5  6  3  0
  6 12  1  0
  8 15  1  0
 13 14  3  0
 13 17  1  0
 14 15  1  0
 15 16  2  3
 16 18  1  0
 16 19  1  0
M  RAD  1   3   2
M  END
>  <reaction>  (5) 
rxn_1410

>  <mol_properties>  (5) 
{"1": {"label": "*0", "atom_type": "Ct"}, "2": {"label": "*1", "atom_type": "Cs"}, "7": {"label": "*2", "atom_type": "H0"}, "13": {"label": "*4", "atom_type": "Ct"}, "14": {"label": "*3", "atom_type": "Cd"}}

>  <type>  (5) 
unop_1

>  <geom_source>  (5) 
Heuristics

$$$$

     RDKit          3D

 19 17  0  0  0  0  0  0  0  0999 V2000
   -1.0260    0.0223   -2.6808 C   0  0  0  0  0  0  0  0  0  0  0  0
   -1.0260    0.0223   -1.4846 C   0  0  0  0  0  0  0  0  0  0  0  0
   -1.0260    0.0624   -0.0181 C   0  0  0  0  0  3  0  0  0  0  0  0
   -1.6640    1.3616    0.5039 C   0  0  0  0  0  0  0  0  0  0  0  0
   -1.6878   -1.1188    0.5467 C   0  0  0  0  0  0  0  0  0  0  0  0
   -2.2361   -2.0641    1.0332 C   0  0  0  0  0  0  0  0  0  0  0  0
   -1.0260    0.0223   -3.7442 H   0  0  0  0  0  0  0  0  0  0  0  0
    0.2276    0.0352    0.3751 H   0  0  0  0  0  0  0  0  0  0  0  0
   -2.7073    1.4189    0.1962 H   0  0  0  0  0  0  0  0  0  0  0  0
   -1.1314    2.2231    0.1023 H   0  0  0  0  0  0  0  0  0  0  0  0
   -1.6168    1.3861    1.5922 H   0  0  0  0  0  0  0  0  0  0  0  0
   -2.7235   -2.9045    1.4657 H   0  0  0  0  0  0  0  0  0  0  0  0
    3.1949    1.0895   -0.8918 C   0  0  0  0  0  0  0  0  0  0  0  0
    2.4164    0.5963   -0.1242 C   0  0  0  0  0  0  0  0  0  0  0  0
    1.4697    0.0082    0.7646 C   0  0  0  0  0  0  0  0  0  0  0  0
    1.7092   -0.2345    2.0489 C   0  0  0  0  0  0  0  0  0  0  0  0
    3.8852    1.5269   -1.5724 H   0  0  0  0  0  0  0  0  0  0  0  0
    2.6617    0.0078    2.5024 H   0  0  0  0  0  0  0  0  0  0  0  0
    0.9515   -0.6837    2.6773 H   0  0  0  0  0  0  0  0  0  0  0  0
  1  2  3  0
  1  7  1  0
  2  3  1  0
  3  4  1  0
  3  5  1  0
  4  9  1  0
  4 10  1  0
  4 11  1  0
  5  6  3  0
  6 12  1  0
  8 15  1  0
 13 14  3  0
 13 17  1  0
 14 15  1  0
 15 16  2  3
 16 18  1  0
 16 19  1  0
M  RAD  1   3   2
M  END
>  <reaction>  (6) 
rxn_1410

>  <mol_properties>  (6) 
{"1": {"label": "*0", "atom_type": "Ct"}, "2": {"label": "*1", "atom_type": "Cs"}, "7": {"label": "*2", "atom_type": "H0"}, "13": {"label": "*4", "atom_type": "Ct"}, "14": {"label": "*3", "atom_type": "Cd"}}

>  <type>  (6) 
unop_2

>  <geom_source>  (6) 
Heuristics

$$$$

     RDKit          3D

 19 17  0  0  0  0  0  0  0  0999 V2000
   -0.8845    0.0945   -3.0873 C   0  0  0  0  0  0  0  0  0  0  0  0
   -0.8845    0.0945   -1.8911 C   0  0  0  0  0  0  0  0  0  0  0  0
   -0.8845    0.1346   -0.4246 C   0  0  0  0  0  3  0  0  0  0  0  0
   -1.5225    1.4338    0.0974 C   0  0  0  0  0  0  0  0  0  0  0  0
   -1.5463   -1.0466    0.1402 C   0  0  0  0  0  0  0  0  0  0  0  0
   -2.0946   -1.9919    0.6267 C   0  0  0  0  0  0  0  0  0  0  0  0
   -0.8845    0.0945   -4.1507 H   0  0  0  0  0  0  0  0  0  0  0  0
    0.3691    0.1074   -0.0314 H   0  0  0  0  0  0  0  0  0  0  0  0
   -2.5658    1.4911   -0.2103 H   0  0  0  0  0  0  0  0  0  0  0  0
   -0.9899    2.2952   -0.3042 H   0  0  0  0  0  0  0  0  0  0  0  0
   -1.4753    1.4582    1.1857 H   0  0  0  0  0  0  0  0  0  0  0  0
   -2.5820   -2.8323    1.0592 H   0  0  0  0  0  0  0  0  0  0  0  0
    2.1159    1.3245    2.6135 C   0  0  0  0  0  0  0  0  0  0  0  0
    1.8958    0.7464    1.5859 C   0  0  0  0  0  0  0  0  0  0  0  0
    1.6112    0.0804    0.3581 C   0  0  0  0  0  0  0  0  0  0  0  0
    2.2580   -0.9997   -0.0672 C   0  0  0  0  0  0  0  0  0  0  0  0
    2.3110    1.8370    3.5247 H   0  0  0  0  0  0  0  0  0  0  0  0
    3.0576   -1.4446    0.5110 H   0  0  0  0  0  0  0  0  0  0  0  0
    1.9986   -1.4641   -1.0094 H   0  0  0  0  0  0  0  0  0  0  0  0
  1  2  3  0
  1  7  1  0
  2  3  1  0
  3  4  1  0
  3  5  1  0
  4  9  1  0
  4 10  1  0
  4 11  1  0
  5  6  3  0
  6 12  1  0
  8 15  1  0
 13 14  3  0
 13 17  1  0
 14 15  1  0
 15 16  2  3
 16 18  1  0
 16 19  1  0
M  RAD  1   3   2
M  END
>  <reaction>  (7) 
rxn_1410

>  <mol_properties>  (7) 
{"1": {"label": "*0", "atom_type": "Ct"}, "2": {"label": "*1", "atom_type": "Cs"}, "7": {"label": "*2", "atom_type": "H0"}, "13": {"label": "*4", "atom_type": "Ct"}, "14": {"label": "*3", "atom_type": "Cd"}}

>  <type>  (7) 
unop_3

>  <geom_source>  (7) 
Heuristics

$$$$

     RDKit          3D

 19 17  0  0  0  0  0  0  0  0999 V2000
   -0.9670    0.4102   -2.8037 C   0  0  0  0  0  0  0  0  0  0  0  0
   -0.9670    0.4102   -1.6075 C   0  0  0  0  0  0  0  0  0  0  0  0
   -0.9670    0.4502   -0.1410 C   0  0  0  0  0  3  0  0  0  0  0  0
   -1.6050    1.7495    0.3810 C   0  0  0  0  0  0  0  0  0  0  0  0
   -1.6288   -0.7310    0.4238 C   0  0  0  0  0  0  0  0  0  0  0  0
   -2.1771   -1.6763    0.9103 C   0  0  0  0  0  0  0  0  0  0  0  0
   -0.9670    0.4102   -3.8672 H   0  0  0  0  0  0  0  0  0  0  0  0
    0.2866    0.4230    0.2521 H   0  0  0  0  0  0  0  0  0  0  0  0
   -2.6483    1.8067    0.0732 H   0  0  0  0  0  0  0  0  0  0  0  0
   -1.0724    2.6109   -0.0206 H   0  0  0  0  0  0  0  0  0  0  0  0
   -1.5578    1.7739    1.4692 H   0  0  0  0  0  0  0  0  0  0  0  0
   -2.6645   -2.5167    1.3428 H   0  0  0  0  0  0  0  0  0  0  0  0
    2.9022   -1.7122   -0.1057 C   0  0  0  0  0  0  0  0  0  0  0  0
    2.2825   -0.7481    0.2479 C   0  0  0  0  0  0  0  0  0  0  0  0
    1.5287    0.3960    0.6417 C   0  0  0  0  0  0  0  0  0  0  0  0
    1.7287    1.0625    1.7737 C   0  0  0  0  0  0  0  0  0  0  0  0
    3.4516   -2.5670   -0.4194 H   0  0  0  0  0  0  0  0  0  0  0  0
    2.4954    0.7650    2.4775 H   0  0  0  0  0  0  0  0  0  0  0  0
    1.1249    1.9256    2.0211 H   0  0  0  0  0  0  0  0  0  0  0  0
  1  2  3  0
  1  7  1  0
  2  3  1  0
  3  4  1  0
  3  5  1  0
  4  9  1  0
  4 10  1  0
  4 11  1  0
  5  6  3  0
  6 12  1  0
  8 15  1  0
 13 14  3  0
 13 17  1  0
 14 15  1  0
 15 16  2  3
 16 18  1  0
 16 19  1  0
M  RAD  1   3   2
M  END
>  <reaction>  (8) 
rxn_1410

>  <mol_properties>  (8) 
{"1": {"label": "*0", "atom_type": "Ct"}, "2": {"label": "*1", "atom_type": "Cs"}, "7": {"label": "*2", "atom_type": "H0"}, "13": {"label": "*4", "atom_type": "Ct"}, "14": {"label": "*3", "atom_type": "Cd"}}

>  <type>  (8) 
unop_4

>  <geom_source>  (8) 
Heuristics

$$$$

     RDKit          3D

 19 17  0  0  0  0  0  0  0  0999 V2000
   -0.9018    0.1585   -3.0854 C   0  0  0  0  0  0  0  0  0  0  0  0
   -0.9018    0.1585   -1.8892 C   0  0  0  0  0  0  0  0  0  0  0  0
   -0.9018    0.1986   -0.4227 C   0  0  0  0  0  3  0  0  0  0  0  0
   -1.5398    1.4978    0.0993 C   0  0  0  0  0  0  0  0  0  0  0  0
   -1.5636   -0.9827    0.1421 C   0  0  0  0  0  0  0  0  0  0  0  0
   -2.1119   -1.9280    0.6286 C   0  0  0  0  0  0  0  0  0  0  0  0
   -0.9018    0.1585   -4.1488 H   0  0  0  0  0  0  0  0  0  0  0  0
    0.3518    0.1713   -0.0295 H   0  0  0  0  0  0  0  0  0  0  0  0
   -2.5831    1.5550   -0.2084 H   0  0  0  0  0  0  0  0  0  0  0  0
   -1.0072    2.3592   -0.3023 H   0  0  0  0  0  0  0  0  0  0  0  0
   -1.4926    1.5222    1.1876 H   0  0  0  0  0  0  0  0  0  0  0  0
   -2.5993   -2.7684    1.0611 H   0  0  0  0  0  0  0  0  0  0  0  0
    1.9614    0.2042    2.9582 C   0  0  0  0  0  0  0  0  0  0  0  0
    1.8079    0.1763    1.7690 C   0  0  0  0  0  0  0  0  0  0  0  0
    1.5939    0.1443    0.3600 C   0  0  0  0  0  0  0  0  0  0  0  0
    2.5720    0.0902   -0.5379 C   0  0  0  0  0  0  0  0  0  0  0  0
    2.0976    0.2289    4.0127 H   0  0  0  0  0  0  0  0  0  0  0  0
    3.6125    0.0668   -0.2403 H   0  0  0  0  0  0  0  0  0  0  0  0
    2.3499    0.0680   -1.5965 H   0  0  0  0  0  0  0  0  0  0  0  0
  1  2  3  0
  1  7  1  0
  2  3  1  0
  3  4  1  0
  3  5  1  0
  4  9  1  0
  4 10  1  0
  4 11  1  0
  5  6  3  0
  6 12  1  0
  8 15  1  0
 13 14  3  0
 13 17  1  0
 14 15  1  0
 15 16  2  3
 16 18  1  0
 16 19  1  0
M  RAD  1   3   2
M  END
>  <reaction>  (9) 
rxn_1410

>  <mol_properties>  (9) 
{"1": {"label": "*0", "atom_type": "Ct"}, "2": {"label": "*1", "atom_type": "Cs"}, "7": {"label": "*2", "atom_type": "H0"}, "13": {"label": "*4", "atom_type": "Ct"}, "14": {"label": "*3", "atom_type": "Cd"}}

>  <type>  (9) 
unop_5

>  <geom_source>  (9) 
Heuristics

$$$$

     RDKit          3D

 19 17  0  0  0  0  0  0  0  0999 V2000
   -0.9143    0.4092   -2.9386 C   0  0  0  0  0  0  0  0  0  0  0  0
   -0.9143    0.4092   -1.7425 C   0  0  0  0  0  0  0  0  0  0  0  0
   -0.9143    0.4493   -0.2759 C   0  0  0  0  0  3  0  0  0  0  0  0
   -1.5524    1.7485    0.2461 C   0  0  0  0  0  0  0  0  0  0  0  0
   -1.5762   -0.7319    0.2889 C   0  0  0  0  0  0  0  0  0  0  0  0
   -2.1244   -1.6772    0.7754 C   0  0  0  0  0  0  0  0  0  0  0  0
   -0.9143    0.4092   -4.0021 H   0  0  0  0  0  0  0  0  0  0  0  0
    0.3393    0.4221    0.1172 H   0  0  0  0  0  0  0  0  0  0  0  0
   -2.5956    1.8058   -0.0617 H   0  0  0  0  0  0  0  0  0  0  0  0
   -1.0198    2.6099   -0.1556 H   0  0  0  0  0  0  0  0  0  0  0  0
   -1.5052    1.7729    1.3343 H   0  0  0  0  0  0  0  0  0  0  0  0
   -2.6118   -2.5176    1.2079 H   0  0  0  0  0  0  0  0  0  0  0  0
    2.5952   -1.9949    0.8936 C   0  0  0  0  0  0  0  0  0  0  0  0
    2.1388   -0.8980    0.7287 C   0  0  0  0  0  0  0  0  0  0  0  0
    1.5814    0.3951    0.5068 C   0  0  0  0  0  0  0  0  0  0  0  0
    1.8073    1.4447    1.2897 C   0  0  0  0  0  0  0  0  0  0  0  0
    2.9998   -2.9674    1.0399 H   0  0  0  0  0  0  0  0  0  0  0  0
    2.4440    1.3731    2.1621 H   0  0  0  0  0  0  0  0  0  0  0  0
    1.3565    2.4039    1.0721 H   0  0  0  0  0  0  0  0  0  0  0  0
  1  2  3  0
  1  7  1  0
  2  3  1  0
  3  4  1  0
  3  5  1  0
  4  9  1  0
  4 10  1  0
  4 11  1  0
  5  6  3  0
  6 12  1  0
  8 15  1  0
 13 14  3  0
 13 17  1  0
 14 15  1  0
 15 16  2  3
 16 18  1  0
 16 19  1  0
M  RAD  1   3   2
M  END
>  <reaction>  (10) 
rxn_1410

>  <mol_properties>  (10) 
{"1": {"label": "*0", "atom_type": "Ct"}, "2": {"label": "*1", "atom_type": "Cs"}, "7": {"label": "*2", "atom_type": "H0"}, "13": {"label": "*4", "atom_type": "Ct"}, "14": {"label": "*3", "atom_type": "Cd"}}

>  <type>  (10) 
unop_6

>  <geom_source>  (10) 
Heuristics

$$$$

     RDKit          3D

 19 17  0  0  0  0  0  0  0  0999 V2000
   -0.8799    0.3314   -3.0460 C   0  0  0  0  0  0  0  0  0  0  0  0
   -0.8799    0.3314   -1.8498 C   0  0  0  0  0  0  0  0  0  0  0  0
   -0.8799    0.3715   -0.3833 C   0  0  0  0  0  3  0  0  0  0  0  0
   -1.5180    1.6707    0.1387 C   0  0  0  0  0  0  0  0  0  0  0  0
   -1.5418   -0.8097    0.1815 C   0  0  0  0  0  0  0  0  0  0  0  0
   -2.0900   -1.7550    0.6680 C   0  0  0  0  0  0  0  0  0  0  0  0
   -0.8799    0.3314   -4.1094 H   0  0  0  0  0  0  0  0  0  0  0  0
    0.3737    0.3443    0.0099 H   0  0  0  0  0  0  0  0  0  0  0  0
   -2.5612    1.7280   -0.1690 H   0  0  0  0  0  0  0  0  0  0  0  0
   -0.9853    2.5322   -0.2629 H   0  0  0  0  0  0  0  0  0  0  0  0
   -1.4708    1.6952    1.2270 H   0  0  0  0  0  0  0  0  0  0  0  0
   -2.5774   -2.5954    1.1005 H   0  0  0  0  0  0  0  0  0  0  0  0
    2.2857   -1.7229    1.9088 C   0  0  0  0  0  0  0  0  0  0  0  0
    1.9873   -0.7818    1.2277 C   0  0  0  0  0  0  0  0  0  0  0  0
    1.6158    0.3173    0.3994 C   0  0  0  0  0  0  0  0  0  0  0  0
    2.0034    1.5704    0.6116 C   0  0  0  0  0  0  0  0  0  0  0  0
    2.5502   -2.5573    2.5128 H   0  0  0  0  0  0  0  0  0  0  0  0
    2.6395    1.8320    1.4475 H   0  0  0  0  0  0  0  0  0  0  0  0
    1.6900    2.3659   -0.0514 H   0  0  0  0  0  0  0  0  0  0  0  0
  1  2  3  0
  1  7  1  0
  2  3  1  0
  3  4  1  0
  3  5  1  0
  4  9  1  0
  4 10  1  0
  4 11  1  0
  5  6  3  0
  6 12  1  0
  8 15  1  0
 13 14  3  0
 13 17  1  0
 14 15  1  0
 15 16  2  3
 16 18  1  0
 16 19  1  0
M  RAD  1   3   2
M  END
>  <reaction>  (11) 
rxn_1410

>  <mol_properties>  (11) 
{"1": {"label": "*0", "atom_type": "Ct"}, "2": {"label": "*1", "atom_type": "Cs"}, "7": {"label": "*2", "atom_type": "H0"}, "13": {"label": "*4", "atom_type": "Ct"}, "14": {"label": "*3", "atom_type": "Cd"}}

>  <type>  (11) 
unop_7

>  <geom_source>  (11) 
Heuristics

$$$$

     RDKit          3D

 19 17  0  0  0  0  0  0  0  0999 V2000
   -0.9292   -0.0826   -2.9252 C   0  0  0  0  0  0  0  0  0  0  0  0
   -0.9292   -0.0826   -1.7290 C   0  0  0  0  0  0  0  0  0  0  0  0
   -0.9292   -0.0426   -0.2625 C   0  0  0  0  0  3  0  0  0  0  0  0
   -1.5673    1.2567    0.2595 C   0  0  0  0  0  0  0  0  0  0  0  0
   -1.5911   -1.2238    0.3023 C   0  0  0  0  0  0  0  0  0  0  0  0
   -2.1393   -2.1691    0.7888 C   0  0  0  0  0  0  0  0  0  0  0  0
   -0.9292   -0.0826   -3.9886 H   0  0  0  0  0  0  0  0  0  0  0  0
    0.3243   -0.0698    0.1307 H   0  0  0  0  0  0  0  0  0  0  0  0
   -2.6105    1.3139   -0.0482 H   0  0  0  0  0  0  0  0  0  0  0  0
   -1.0347    2.1181   -0.1421 H   0  0  0  0  0  0  0  0  0  0  0  0
   -1.5201    1.2811    1.3477 H   0  0  0  0  0  0  0  0  0  0  0  0
   -2.6267   -3.0095    1.2213 H   0  0  0  0  0  0  0  0  0  0  0  0
    2.7236    2.2450    0.7778 C   0  0  0  0  0  0  0  0  0  0  0  0
    2.2015    1.1704    0.6722 C   0  0  0  0  0  0  0  0  0  0  0  0
    1.5665   -0.0968    0.5202 C   0  0  0  0  0  0  0  0  0  0  0  0
    1.7298   -1.1139    1.3596 C   0  0  0  0  0  0  0  0  0  0  0  0
    3.1866    3.1978    0.8714 H   0  0  0  0  0  0  0  0  0  0  0  0
    2.3711   -1.0335    2.2278 H   0  0  0  0  0  0  0  0  0  0  0  0
    1.2214   -2.0545    1.1939 H   0  0  0  0  0  0  0  0  0  0  0  0
  1  2  3  0
  1  7  1  0
  2  3  1  0
  3  4  1  0
  3  5  1  0
  4  9  1  0
  4 10  1  0
  4 11  1  0
  5  6  3  0
  6 12  1  0
  8 15  1  0
 13 14  3  0
 13 17  1  0
 14 15  1  0
 15 16  2  3
 16 18  1  0
 16 19  1  0
M  RAD  1   3   2
M  END
>  <reaction>  (12) 
rxn_1410

>  <mol_properties>  (12) 
{"1": {"label": "*0", "atom_type": "Ct"}, "2": {"label": "*1", "atom_type": "Cs"}, "7": {"label": "*2", "atom_type": "H0"}, "13": {"label": "*4", "atom_type": "Ct"}, "14": {"label": "*3", "atom_type": "Cd"}}

>  <type>  (12) 
unop_8

>  <geom_source>  (12) 
Heuristics

$$$$

     RDKit          3D

 19 17  0  0  0  0  0  0  0  0999 V2000
   -1.0169    0.3238   -2.6890 C   0  0  0  0  0  0  0  0  0  0  0  0
   -1.0169    0.3238   -1.4928 C   0  0  0  0  0  0  0  0  0  0  0  0
   -1.0169    0.3639   -0.0263 C   0  0  0  0  0  3  0  0  0  0  0  0
   -1.6549    1.6631    0.4957 C   0  0  0  0  0  0  0  0  0  0  0  0
   -1.6787   -0.8174    0.5385 C   0  0  0  0  0  0  0  0  0  0  0  0
   -2.2269   -1.7627    1.0250 C   0  0  0  0  0  0  0  0  0  0  0  0
   -1.0169    0.3238   -3.7525 H   0  0  0  0  0  0  0  0  0  0  0  0
    0.2367    0.3366    0.3669 H   0  0  0  0  0  0  0  0  0  0  0  0
   -2.6982    1.7203    0.1880 H   0  0  0  0  0  0  0  0  0  0  0  0
   -1.1223    2.5245    0.0941 H   0  0  0  0  0  0  0  0  0  0  0  0
   -1.6077    1.6875    1.5839 H   0  0  0  0  0  0  0  0  0  0  0  0
   -2.7144   -2.6031    1.4575 H   0  0  0  0  0  0  0  0  0  0  0  0
    3.1327   -0.9629   -0.8357 C   0  0  0  0  0  0  0  0  0  0  0  0
    2.3867   -0.3824   -0.0974 C   0  0  0  0  0  0  0  0  0  0  0  0
    1.4788    0.3096    0.7564 C   0  0  0  0  0  0  0  0  0  0  0  0
    1.7347    0.6070    2.0260 C   0  0  0  0  0  0  0  0  0  0  0  0
    3.7942   -1.4777   -1.4903 H   0  0  0  0  0  0  0  0  0  0  0  0
    2.6716    0.3327    2.4936 H   0  0  0  0  0  0  0  0  0  0  0  0
    1.0066    1.1349    2.6276 H   0  0  0  0  0  0  0  0  0  0  0  0
  1  2  3  0
  1  7  1  0
  2  3  1  0
  3  4  1  0
  3  5  1  0
  4  9  1  0
  4 10  1  0
  4 11  1  0
  5  6  3  0
  6 12  1  0
  8 15  1  0
 13 14  3  0
 13 17  1  0
 14 15  1  0
 15 16  2  3
 16 18  1  0
 16 19  1  0
M  RAD  1   3   2
M  END
>  <reaction>  (13) 
rxn_1410

>  <mol_properties>  (13) 
{"1": {"label": "*0", "atom_type": "Ct"}, "2": {"label": "*1", "atom_type": "Cs"}, "7": {"label": "*2", "atom_type": "H0"}, "13": {"label": "*4", "atom_type": "Ct"}, "14": {"label": "*3", "atom_type": "Cd"}}

>  <type>  (13) 
unop_9

>  <geom_source>  (13) 
Heuristics

$$$$

     RDKit          3D

 19 17  0  0  0  0  0  0  0  0999 V2000
   -0.9816   -0.0730   -2.7905 C   0  0  0  0  0  0  0  0  0  0  0  0
   -0.9816   -0.0730   -1.5943 C   0  0  0  0  0  0  0  0  0  0  0  0
   -0.9816   -0.0330   -0.1278 C   0  0  0  0  0  3  0  0  0  0  0  0
   -1.6196    1.2663    0.3942 C   0  0  0  0  0  0  0  0  0  0  0  0
   -1.6435   -1.2142    0.4370 C   0  0  0  0  0  0  0  0  0  0  0  0
   -2.1917   -2.1595    0.9235 C   0  0  0  0  0  0  0  0  0  0  0  0
   -0.9816   -0.0730   -3.8540 H   0  0  0  0  0  0  0  0  0  0  0  0
    0.2720   -0.0602    0.2653 H   0  0  0  0  0  0  0  0  0  0  0  0
   -2.6629    1.3235    0.0865 H   0  0  0  0  0  0  0  0  0  0  0  0
   -1.0870    2.1277   -0.0074 H   0  0  0  0  0  0  0  0  0  0  0  0
   -1.5725    1.2907    1.4824 H   0  0  0  0  0  0  0  0  0  0  0  0
   -2.6791   -2.9999    1.3560 H   0  0  0  0  0  0  0  0  0  0  0  0
    3.0113    1.8901   -0.2042 C   0  0  0  0  0  0  0  0  0  0  0  0
    2.3350    0.9860    0.2006 C   0  0  0  0  0  0  0  0  0  0  0  0
    1.5141   -0.0872    0.6549 C   0  0  0  0  0  0  0  0  0  0  0  0
    1.6752   -0.7018    1.8219 C   0  0  0  0  0  0  0  0  0  0  0  0
    3.6109    2.6917   -0.5630 H   0  0  0  0  0  0  0  0  0  0  0  0
    2.4597   -0.4133    2.5097 H   0  0  0  0  0  0  0  0  0  0  0  0
    1.0208   -1.5120    2.1150 H   0  0  0  0  0  0  0  0  0  0  0  0
  1  2  3  0
  1  7  1  0
  2  3  1  0
  3  4  1  0
  3  5  1  0
  4  9  1  0
  4 10  1  0
  4 11  1  0
  5  6  3  0
  6 12  1  0
  8 15  1  0
 13 14  3  0
 13 17  1  0
 14 15  1  0
 15 16  2  3
 16 18  1  0
 16 19  1  0
M  RAD  1   3   2
M  END
>  <reaction>  (14) 
rxn_1410

>  <mol_properties>  (14) 
{"1": {"label": "*0", "atom_type": "Ct"}, "2": {"label": "*1", "atom_type": "Cs"}, "7": {"label": "*2", "atom_type": "H0"}, "13": {"label": "*4", "atom_type": "Ct"}, "14": {"label": "*3", "atom_type": "Cd"}}

>  <type>  (14) 
unop_10

>  <geom_source>  (14) 
Heuristics

$$$$

     RDKit          3D

 19 17  0  0  0  0  0  0  0  0999 V2000
   -0.8807    0.2211   -3.0907 C   0  0  0  0  0  0  0  0  0  0  0  0
   -0.8807    0.2211   -1.8946 C   0  0  0  0  0  0  0  0  0  0  0  0
   -0.8807    0.2612   -0.4280 C   0  0  0  0  0  3  0  0  0  0  0  0
   -1.5187    1.5604    0.0940 C   0  0  0  0  0  0  0  0  0  0  0  0
   -1.5425   -0.9201    0.1368 C   0  0  0  0  0  0  0  0  0  0  0  0
   -2.0907   -1.8654    0.6233 C   0  0  0  0  0  0  0  0  0  0  0  0
   -0.8807    0.2211   -4.1542 H   0  0  0  0  0  0  0  0  0  0  0  0
    0.3729    0.2339   -0.0349 H   0  0  0  0  0  0  0  0  0  0  0  0
   -2.5619    1.6176   -0.2138 H   0  0  0  0  0  0  0  0  0  0  0  0
   -0.9861    2.4218   -0.3077 H   0  0  0  0  0  0  0  0  0  0  0  0
   -1.4715    1.5848    1.1822 H   0  0  0  0  0  0  0  0  0  0  0  0
   -2.5782   -2.7058    1.0558 H   0  0  0  0  0  0  0  0  0  0  0  0
    2.0472   -0.9405    2.6754 C   0  0  0  0  0  0  0  0  0  0  0  0
    1.8608   -0.4072    1.6174 C   0  0  0  0  0  0  0  0  0  0  0  0
    1.6151    0.2069    0.3547 C   0  0  0  0  0  0  0  0  0  0  0  0
    2.3253    1.2210   -0.1279 C   0  0  0  0  0  0  0  0  0  0  0  0
    2.2125   -1.4135    3.6135 H   0  0  0  0  0  0  0  0  0  0  0  0
    3.1513    1.6476    0.4265 H   0  0  0  0  0  0  0  0  0  0  0  0
    2.0929    1.6482   -1.0944 H   0  0  0  0  0  0  0  0  0  0  0  0
  1  2  3  0
  1  7  1  0
  2  3  1  0
  3  4  1  0
  3  5  1  0
  4  9  1  0
  4 10  1  0
  4 11  1  0
  5  6  3  0
  6 12  1  0
  8 15  1  0
 13 14  3  0
 13 17  1  0
 14 15  1  0
 15 16  2  3
 16 18  1  0
 16 19  1  0
M  RAD  1   3   2
M  END
>  <reaction>  (15) 
rxn_1410

>  <mol_properties>  (15) 
{"1": {"label": "*0", "atom_type": "Ct"}, "2": {"label": "*1", "atom_type": "Cs"}, "7": {"label": "*2", "atom_type": "H0"}, "13": {"label": "*4", "atom_type": "Ct"}, "14": {"label": "*3", "atom_type": "Cd"}}

>  <type>  (15) 
unop_11

>  <geom_source>  (15) 
Heuristics

$$$$

     RDKit          3D

 19 17  0  0  0  0  0  0  0  0999 V2000
   -1.0409    0.1749   -2.6407 C   0  0  0  0  0  0  0  0  0  0  0  0
   -1.0409    0.1749   -1.4445 C   0  0  0  0  0  0  0  0  0  0  0  0
   -1.0409    0.2149    0.0220 C   0  0  0  0  0  3  0  0  0  0  0  0
   -1.6789    1.5142    0.5440 C   0  0  0  0  0  0  0  0  0  0  0  0
   -1.7027   -0.9663    0.5868 C   0  0  0  0  0  0  0  0  0  0  0  0
   -2.2510   -1.9116    1.0733 C   0  0  0  0  0  0  0  0  0  0  0  0
   -1.0409    0.1749   -3.7042 H   0  0  0  0  0  0  0  0  0  0  0  0
    0.2127    0.1877    0.4151 H   0  0  0  0  0  0  0  0  0  0  0  0
   -2.7222    1.5714    0.2362 H   0  0  0  0  0  0  0  0  0  0  0  0
   -1.1463    2.3756    0.1423 H   0  0  0  0  0  0  0  0  0  0  0  0
   -1.6317    1.5386    1.6322 H   0  0  0  0  0  0  0  0  0  0  0  0
   -2.7384   -2.7520    1.5058 H   0  0  0  0  0  0  0  0  0  0  0  0
    3.2369    0.0541   -1.1194 C   0  0  0  0  0  0  0  0  0  0  0  0
    2.4333    0.1028   -0.2304 C   0  0  0  0  0  0  0  0  0  0  0  0
    1.4548    0.1607    0.8047 C   0  0  0  0  0  0  0  0  0  0  0  0
    1.7466    0.1873    2.1008 C   0  0  0  0  0  0  0  0  0  0  0  0
    3.9495    0.0110   -1.9077 H   0  0  0  0  0  0  0  0  0  0  0  0
    2.7707    0.1658    2.4507 H   0  0  0  0  0  0  0  0  0  0  0  0
    0.9611    0.2314    2.8435 H   0  0  0  0  0  0  0  0  0  0  0  0
  1  2  3  0
  1  7  1  0
  2  3  1  0
  3  4  1  0
  3  5  1  0
  4  9  1  0
  4 10  1  0
  4 11  1  0
  5  6  3  0
  6 12  1  0
  8 15  1  0
 13 14  3  0
 13 17  1  0
 14 15  1  0
 15 16  2  3
 16 18  1  0
 16 19  1  0
M  RAD  1   3   2
M  END
>  <reaction>  (16) 
rxn_1410

>  <mol_properties>  (16) 
{"1": {"label": "*0", "atom_type": "Ct"}, "2": {"label": "*1", "atom_type": "Cs"}, "7": {"label": "*2", "atom_type": "H0"}, "13": {"label": "*4", "atom_type": "Ct"}, "14": {"label": "*3", "atom_type": "Cd"}}

>  <type>  (16) 
unop_12

>  <geom_source>  (16) 
Heuristics

$$$$

     RDKit          3D

 19 17  0  0  0  0  0  0  0  0999 V2000
   -1.4940    0.2847    1.9398 C   0  0  0  0  0  0  0  0  0  0  0  0
   -0.8588    0.1567    0.5583 C   0  0  0  0  0  3  0  0  0  0  0  0
    1.5252   -0.6116   -0.1045 C   0  0  0  0  0  0  0  0  0  0  0  0
    2.1622   -1.7436    0.1711 C   0  0  0  0  0  0  0  0  0  0  0  0
   -0.8240    1.4581   -0.1200 C   0  0  0  0  0  0  0  0  0  0  0  0
   -1.5958   -0.8099   -0.2647 C   0  0  0  0  0  0  0  0  0  0  0  0
    2.0079    0.2761   -1.1277 C   0  0  0  0  0  0  0  0  0  0  0  0
    2.4117    1.0210   -1.9853 C   0  0  0  0  0  0  0  0  0  0  0  0
   -0.7938    2.5276   -0.6763 C   0  0  0  0  0  0  0  0  0  0  0  0
   -2.2003   -1.6053   -0.9401 C   0  0  0  0  0  0  0  0  0  0  0  0
   -2.5428    0.6466    1.8626 H   0  0  0  0  0  0  0  0  0  0  0  0
   -1.4880   -0.7014    2.4511 H   0  0  0  0  0  0  0  0  0  0  0  0
   -0.9097    0.9979    2.5596 H   0  0  0  0  0  0  0  0  0  0  0  0
    0.4891   -0.3086    0.5332 H   0  0  0  0  0  0  0  0  0  0  0  0
    3.0594   -2.0274   -0.3660 H   0  0  0  0  0  0  0  0  0  0  0  0
    1.7840   -2.3989    0.9443 H   0  0  0  0  0  0  0  0  0  0  0  0
    2.7662    1.6749   -2.7381 H   0  0  0  0  0  0  0  0  0  0  0  0
   -0.7676    3.4661   -1.1646 H   0  0  0  0  0  0  0  0  0  0  0  0
   -2.7309   -2.3032   -1.5327 H   0  0  0  0  0  0  0  0  0  0  0  0
  1  2  1  0
  1 11  1  0
  1 12  1  0
  1 13  1  0
  2  5  1  0
  2  6  1  0
  3  4  2  3
  3  7  1  0
  3 14  1  0
  4 15  1  0
  4 16  1  0
  5  9  3  0
  6 10  3  0
  7  8  3  0
  8 17  1  0
  9 18  1  0
 10 19  1  0
M  RAD  1   2   2
M  END
>  <reaction>  (17) 
rxn_1410

>  <mol_properties>  (17) 
{"1": {"label": "*0", "atom_type": "Ct"}, "2": {"label": "*1", "atom_type": "Cs"}, "7": {"label": "*2", "atom_type": "H0"}, "13": {"label": "*4", "atom_type": "Ct"}, "14": {"label": "*3", "atom_type": "Cd"}}

>  <type>  (17) 
unop_13

>  <geom_source>  (17) 
AutoTST

$$$$
