
     RDKit          3D

 12 11  0  0  0  0  0  0  0  0999 V2000
    2.1696    0.6854    1.1310 C   0  0  0  0  0  0  0  0  0  0  0  0
    1.2518    0.4145    0.4134 C   0  0  0  0  0  0  0  0  0  0  0  0
    0.1391    0.0443   -0.4683 C   0  0  0  0  0  0  0  0  0  0  0  0
   -0.2054   -1.4492   -0.3339 C   0  0  0  0  0  0  0  0  0  0  0  0
   -1.0375    0.8853   -0.2222 C   0  0  0  0  0  0  0  0  0  0  0  0
   -2.0160    1.5463   -0.0311 C   0  0  0  0  0  0  0  0  0  0  0  0
    2.9819    0.9356    1.7702 H   0  0  0  0  0  0  0  0  0  0  0  0
    0.4629    0.2285   -1.4981 H   0  0  0  0  0  0  0  0  0  0  0  0
   -0.5327   -1.6703    0.6812 H   0  0  0  0  0  0  0  0  0  0  0  0
    0.6727   -2.0535   -0.5593 H   0  0  0  0  0  0  0  0  0  0  0  0
   -1.0064   -1.7081   -1.0256 H   0  0  0  0  0  0  0  0  0  0  0  0
   -2.8802    2.1413    0.1426 H   0  0  0  0  0  0  0  0  0  0  0  0
  1  2  3  0
  1  7  1  0
  2  3  1  0
  3  4  1  0
  3  5  1  0
  3  8  1  0
  4  9  1  0
  4 10  1  0
  4 11  1  0
  5  6  3  0
  6 12  1  0
M  END
>  <reaction>  (1) 
rxn_1397

>  <mol_properties>  (1) 
{"2": {"label": "donator", "atom_type": "Cs"}, "7": {"label": "d_hydrogen", "atom_type": "H0"}}

>  <type>  (1) 
r1h

$$$$

     RDKit          3D

 12 11  0  0  0  0  0  0  0  0999 V2000
   -2.3791    0.4612   -0.5870 C   0  0  0  0  0  0  0  0  0  0  0  0
   -1.3422   -0.3138   -0.1893 C   0  0  0  0  0  0  0  0  0  0  0  0
   -1.4723   -1.6058    0.3589 C   0  0  0  0  0  3  0  0  0  0  0  0
   -0.3798   -2.3973    0.7671 C   0  0  0  0  0  0  0  0  0  0  0  0
   -0.4849   -3.6397    1.2956 C   0  0  0  0  0  0  0  0  0  0  0  0
   -2.2205    1.4472   -1.0017 H   0  0  0  0  0  0  0  0  0  0  0  0
   -3.4026    0.1153   -0.5011 H   0  0  0  0  0  0  0  0  0  0  0  0
   -0.3330    0.0765   -0.2952 H   0  0  0  0  0  0  0  0  0  0  0  0
   -2.4723   -2.0151    0.4735 H   0  0  0  0  0  0  0  0  0  0  0  0
    0.6117   -1.9687    0.6436 H   0  0  0  0  0  0  0  0  0  0  0  0
    0.3893   -4.2030    1.5920 H   0  0  0  0  0  0  0  0  0  0  0  0
   -1.4516   -4.1084    1.4378 H   0  0  0  0  0  0  0  0  0  0  0  0
  1  2  2  3
  1  6  1  0
  1  7  1  0
  2  3  1  0
  2  8  1  0
  3  4  1  0
  3  9  1  0
  4  5  2  3
  4 10  1  0
  5 11  1  0
  5 12  1  0
M  RAD  1   3   2
M  END
>  <reaction>  (2) 
rxn_1397

>  <mol_properties>  (2) 
{"2": {"label": "acceptor", "atom_type": "Cs"}}

>  <type>  (2) 
r2

$$$$

     RDKit          3D

 13 12  0  0  0  0  0  0  0  0999 V2000
    3.0977   -0.3549   -0.5105 C   0  0  0  0  0  0  0  0  0  0  0  0
    2.0556    0.4221   -0.2627 C   0  0  0  0  0  0  0  0  0  0  0  0
    0.6313   -0.0354   -0.2366 C   0  0  0  0  0  0  0  0  0  0  0  0
   -0.2567    0.6038   -1.2694 C   0  0  0  0  0  0  0  0  0  0  0  0
    0.1459    1.3456   -2.2891 C   0  0  0  0  0  0  0  0  0  0  0  0
    4.1081    0.0344   -0.5074 H   0  0  0  0  0  0  0  0  0  0  0  0
    2.9777   -1.4116   -0.7243 H   0  0  0  0  0  0  0  0  0  0  0  0
    2.2171    1.4781   -0.0618 H   0  0  0  0  0  0  0  0  0  0  0  0
    0.5865   -1.1233   -0.3540 H   0  0  0  0  0  0  0  0  0  0  0  0
    0.2065    0.1743    0.7521 H   0  0  0  0  0  0  0  0  0  0  0  0
   -1.3190    0.4126   -1.1445 H   0  0  0  0  0  0  0  0  0  0  0  0
    1.1948    1.5564   -2.4628 H   0  0  0  0  0  0  0  0  0  0  0  0
   -0.5644    1.7621   -2.9918 H   0  0  0  0  0  0  0  0  0  0  0  0
  1  2  2  3
  1  6  1  0
  1  7  1  0
  2  3  1  0
  2  8  1  0
  3  4  1  0
  3  9  1  0
  3 10  1  0
  4  5  2  3
  4 11  1  0
  5 12  1  0
  5 13  1  0
M  END
>  <reaction>  (3) 
rxn_1397

>  <mol_properties>  (3) 
{"0": {"label": "a_hydrogen", "atom_type": "H0"}, "3": {"label": "acceptor", "atom_type": "Cs"}}

>  <type>  (3) 
r2h

$$$$

     RDKit          3D

 24 22  0  0  0  0  0  0  0  0999 V2000
   -0.9677   -1.8914   -2.2881 C   0  0  0  0  0  0  0  0  0  0  0  0
   -1.0984   -1.0683   -1.4233 C   0  0  0  0  0  0  0  0  0  0  0  0
   -1.1697   -0.0756   -0.3946 C   0  0  0  0  0  3  0  0  0  0  0  0
   -1.1023    1.3699   -0.8542 C   0  0  0  0  0  0  0  0  0  0  0  0
   -2.0609   -0.3555    0.6890 C   0  0  0  0  0  0  0  0  0  0  0  0
   -2.7634   -0.5698    1.6395 C   0  0  0  0  0  0  0  0  0  0  0  0
   -0.8773   -2.6207   -3.0566 H   0  0  0  0  0  0  0  0  0  0  0  0
    0.0685   -0.1921    0.2043 H   0  0  0  0  0  0  0  0  0  0  0  0
   -2.0113    1.6500   -1.3900 H   0  0  0  0  0  0  0  0  0  0  0  0
   -0.2494    1.5055   -1.5200 H   0  0  0  0  0  0  0  0  0  0  0  0
   -0.9909    2.0261    0.0091 H   0  0  0  0  0  0  0  0  0  0  0  0
   -3.4020   -0.7631    2.4674 H   0  0  0  0  0  0  0  0  0  0  0  0
    0.7781    1.0455    2.8477 C   0  0  0  0  0  0  0  0  0  0  0  0
    1.2767    0.9819    1.6133 C   0  0  0  0  0  0  0  0  0  0  0  0
    1.2593   -0.2236    0.7888 C   0  0  0  0  0  0  0  0  0  0  0  0
    2.1663   -0.3895   -0.3485 C   0  0  0  0  0  0  0  0  0  0  0  0
    2.9462    0.5418   -0.8998 C   0  0  0  0  0  0  0  0  0  0  0  0
    0.7780    1.9705    3.4091 H   0  0  0  0  0  0  0  0  0  0  0  0
    0.3550    0.1719    3.3305 H   0  0  0  0  0  0  0  0  0  0  0  0
    1.6740    1.8874    1.1660 H   0  0  0  0  0  0  0  0  0  0  0  0
    1.0867   -1.1401    1.3529 H   0  0  0  0  0  0  0  0  0  0  0  0
    2.1478   -1.3753   -0.8023 H   0  0  0  0  0  0  0  0  0  0  0  0
    3.5498    0.3122   -1.7678 H   0  0  0  0  0  0  0  0  0  0  0  0
    3.0242    1.5480   -0.5070 H   0  0  0  0  0  0  0  0  0  0  0  0
  1  2  3  0
  1  7  1  0
  2  3  1  0
  3  4  1  0
  3  5  1  0
  4  9  1  0
  4 10  1  0
  4 11  1  0
  5  6  3  0
  6 12  1  0
  8 15  1  0
 13 14  2  3
 13 18  1  0
 13 19  1  0
 14 15  1  0
 14 20  1  0
 15 16  1  0
 15 21  1  0
 16 17  2  3
 16 22  1  0
 17 23  1  0
 17 24  1  0
M  RAD  1   3   2
M  END
>  <reaction>  (4) 
rxn_1397

>  <mol_properties>  (4) 
{"1": {"label": "*4", "atom_type": "Ct"}, "2": {"label": "*3", "atom_type": "Cs"}, "7": {"label": "*2", "atom_type": "H0"}, "13": {"label": "*0", "atom_type": "Cd"}, "14": {"label": "*1", "atom_type": "Cs"}}

>  <type>  (4) 
ts

$$$$

     RDKit          3D

 24 22  0  0  0  0  0  0  0  0999 V2000
   -1.3104    0.0057   -3.0658 C   0  0  0  0  0  0  0  0  0  0  0  0
   -1.3104    0.0057   -1.8697 C   0  0  0  0  0  0  0  0  0  0  0  0
   -1.3104    0.0458   -0.4031 C   0  0  0  0  0  0  0  0  0  0  0  0
   -1.9484    1.3450    0.1189 C   0  0  0  0  0  0  0  0  0  0  0  0
   -1.9722   -1.1354    0.1617 C   0  0  0  0  0  0  0  0  0  0  0  0
   -2.5204   -2.0807    0.6481 C   0  0  0  0  0  0  0  0  0  0  0  0
   -1.3104    0.0057   -4.1293 H   0  0  0  0  0  0  0  0  0  0  0  0
   -0.0568    0.0186   -0.0100 H   0  0  0  0  0  0  0  0  0  0  0  0
   -2.9917    1.4023   -0.1889 H   0  0  0  0  0  0  0  0  0  0  0  0
   -1.4158    2.2064   -0.2828 H   0  0  0  0  0  0  0  0  0  0  0  0
   -1.9012    1.3694    1.2071 H   0  0  0  0  0  0  0  0  0  0  0  0
   -3.0079   -2.9211    1.0807 H   0  0  0  0  0  0  0  0  0  0  0  0
    1.2075    1.3985    2.4524 C   0  0  0  0  0  0  0  0  0  0  0  0
    1.4898    1.2299    1.1707 C   0  0  0  0  0  0  0  0  0  0  0  0
    1.1982   -0.0087    0.3836 C   0  0  0  0  0  3  0  0  0  0  0  0
    2.4115   -0.7077   -0.1669 C   0  0  0  0  0  0  0  0  0  0  0  0
    3.6699   -0.4474    0.1508 C   0  0  0  0  0  0  0  0  0  0  0  0
    1.4366    2.3238    2.9661 H   0  0  0  0  0  0  0  0  0  0  0  0
    0.7340    0.6157    3.0354 H   0  0  0  0  0  0  0  0  0  0  0  0
    1.9727    2.0354    0.6234 H   0  0  0  0  0  0  0  0  0  0  0  0
    0.6291   -0.7153    0.9969 H   0  0  0  0  0  0  0  0  0  0  0  0
    2.2019   -1.4995   -0.8809 H   0  0  0  0  0  0  0  0  0  0  0  0
    4.4848   -1.0072   -0.2902 H   0  0  0  0  0  0  0  0  0  0  0  0
    3.9303    0.3250    0.8652 H   0  0  0  0  0  0  0  0  0  0  0  0
  1  2  3  0
  1  7  1  0
  2  3  1  0
  3  4  1  0
  3  5  1  0
  3  8  1  0
  4  9  1  0
  4 10  1  0
  4 11  1  0
  5  6  3  0
  6 12  1  0
 13 14  2  3
 13 18  1  0
 13 19  1  0
 14 15  1  0
 14 20  1  0
 15 16  1  0
 15 21  1  0
 16 17  2  3
 16 22  1  0
 17 23  1  0
 17 24  1  0
M  RAD  1  15   2
M  END
>  <reaction>  (5) 
rxn_1397

>  <mol_properties>  (5) 
{"1": {"label": "*4", "atom_type": "Ct"}, "2": {"label": "*3", "atom_type": "Cs"}, "7": {"label": "*2", "atom_type": "H0"}, "13": {"label": "*0", "atom_type": "Cd"}, "14": {"label": "*1", "atom_type": "Cs"}}

>  <type>  (5) 
unop_1

>  <geom_source>  (5) 
Heuristics

$$$$

     RDKit          3D

 24 22  0  0  0  0  0  0  0  0999 V2000
   -1.3753    0.1752   -2.7805 C   0  0  0  0  0  0  0  0  0  0  0  0
   -1.3753    0.1752   -1.5844 C   0  0  0  0  0  0  0  0  0  0  0  0
   -1.3753    0.2152   -0.1178 C   0  0  0  0  0  0  0  0  0  0  0  0
   -2.0133    1.5145    0.4042 C   0  0  0  0  0  0  0  0  0  0  0  0
   -2.0372   -0.9660    0.4470 C   0  0  0  0  0  0  0  0  0  0  0  0
   -2.5854   -1.9113    0.9335 C   0  0  0  0  0  0  0  0  0  0  0  0
   -1.3753    0.1752   -3.8440 H   0  0  0  0  0  0  0  0  0  0  0  0
   -0.1217    0.1880    0.2753 H   0  0  0  0  0  0  0  0  0  0  0  0
   -3.0566    1.5717    0.0964 H   0  0  0  0  0  0  0  0  0  0  0  0
   -1.4807    2.3759    0.0025 H   0  0  0  0  0  0  0  0  0  0  0  0
   -1.9662    1.5389    1.4924 H   0  0  0  0  0  0  0  0  0  0  0  0
   -3.0728   -2.7517    1.3660 H   0  0  0  0  0  0  0  0  0  0  0  0
    2.4846    2.0368   -0.2874 C   0  0  0  0  0  0  0  0  0  0  0  0
    1.9857    0.8142   -0.3728 C   0  0  0  0  0  0  0  0  0  0  0  0
    1.1333    0.1607    0.6689 C   0  0  0  0  0  3  0  0  0  0  0  0
    1.7258   -1.0778    1.2842 C   0  0  0  0  0  0  0  0  0  0  0  0
    2.9726   -1.4981    1.1389 C   0  0  0  0  0  0  0  0  0  0  0  0
    3.0897    2.4585   -1.0802 H   0  0  0  0  0  0  0  0  0  0  0  0
    2.3039    2.6626    0.5802 H   0  0  0  0  0  0  0  0  0  0  0  0
    2.1971    0.2154   -1.2550 H   0  0  0  0  0  0  0  0  0  0  0  0
    0.9017    0.8766    1.4646 H   0  0  0  0  0  0  0  0  0  0  0  0
    1.0456   -1.6530    1.9065 H   0  0  0  0  0  0  0  0  0  0  0  0
    3.3183   -2.4009    1.6261 H   0  0  0  0  0  0  0  0  0  0  0  0
    3.6920   -0.9543    0.5376 H   0  0  0  0  0  0  0  0  0  0  0  0
  1  2  3  0
  1  7  1  0
  2  3  1  0
  3  4  1  0
  3  5  1  0
  3  8  1  0
  4  9  1  0
  4 10  1  0
  4 11  1  0
  5  6  3  0
  6 12  1  0
 13 14  2  3
 13 18  1  0
 13 19  1  0
 14 15  1  0
 14 20  1  0
 15 16  1  0
 15 21  1  0
 16 17  2  3
 16 22  1  0
 17 23  1  0
 17 24  1  0
M  RAD  1  15   2
M  END
>  <reaction>  (6) 
rxn_1397

>  <mol_properties>  (6) 
{"1": {"label": "*4", "atom_type": "Ct"}, "2": {"label": "*3", "atom_type": "Cs"}, "7": {"label": "*2", "atom_type": "H0"}, "13": {"label": "*0", "atom_type": "Cd"}, "14": {"label": "*1", "atom_type": "Cs"}}

>  <type>  (6) 
unop_2

>  <geom_source>  (6) 
Heuristics

$$$$

     RDKit          3D

 24 22  0  0  0  0  0  0  0  0999 V2000
   -1.2959    0.0086   -3.0925 C   0  0  0  0  0  0  0  0  0  0  0  0
   -1.2959    0.0086   -1.8963 C   0  0  0  0  0  0  0  0  0  0  0  0
   -1.2959    0.0487   -0.4298 C   0  0  0  0  0  0  0  0  0  0  0  0
   -1.9339    1.3479    0.0922 C   0  0  0  0  0  0  0  0  0  0  0  0
   -1.9577   -1.1325    0.1350 C   0  0  0  0  0  0  0  0  0  0  0  0
   -2.5059   -2.0778    0.6215 C   0  0  0  0  0  0  0  0  0  0  0  0
   -1.2959    0.0086   -4.1560 H   0  0  0  0  0  0  0  0  0  0  0  0
   -0.0423    0.0215   -0.0367 H   0  0  0  0  0  0  0  0  0  0  0  0
   -2.9771    1.4052   -0.2155 H   0  0  0  0  0  0  0  0  0  0  0  0
   -1.4013    2.2093   -0.3094 H   0  0  0  0  0  0  0  0  0  0  0  0
   -1.8867    1.3724    1.1804 H   0  0  0  0  0  0  0  0  0  0  0  0
   -2.9934   -2.9182    1.0540 H   0  0  0  0  0  0  0  0  0  0  0  0
    1.2719    0.1785    2.8515 C   0  0  0  0  0  0  0  0  0  0  0  0
    1.3342    0.7337    1.6520 C   0  0  0  0  0  0  0  0  0  0  0  0
    1.2127   -0.0058    0.3569 C   0  0  0  0  0  3  0  0  0  0  0  0
    2.4316    0.0566   -0.5230 C   0  0  0  0  0  0  0  0  0  0  0  0
    3.6229    0.5131   -0.1700 C   0  0  0  0  0  0  0  0  0  0  0  0
    1.3590    0.7696    3.7546 H   0  0  0  0  0  0  0  0  0  0  0  0
    1.1294   -0.8899    2.9740 H   0  0  0  0  0  0  0  0  0  0  0  0
    1.4869    1.8069    1.5714 H   0  0  0  0  0  0  0  0  0  0  0  0
    0.9663   -1.0555    0.5483 H   0  0  0  0  0  0  0  0  0  0  0  0
    2.2912   -0.3236   -1.5311 H   0  0  0  0  0  0  0  0  0  0  0  0
    4.4502    0.5143   -0.8681 H   0  0  0  0  0  0  0  0  0  0  0  0
    3.8164    0.8931    0.8266 H   0  0  0  0  0  0  0  0  0  0  0  0
  1  2  3  0
  1  7  1  0
  2  3  1  0
  3  4  1  0
  3  5  1  0
  3  8  1  0
  4  9  1  0
  4 10  1  0
  4 11  1  0
  5  6  3  0
  6 12  1  0
 13 14  2  3
 13 18  1  0
 13 19  1  0
 14 15  1  0
 14 20  1  0
 15 16  1  0
 15 21  1  0
 16 17  2  3
 16 22  1  0
 17 23  1  0
 17 24  1  0
M  RAD  1  15   2
M  END
>  <reaction>  (7) 
rxn_1397

>  <mol_properties>  (7) 
{"1": {"label": "*4", "atom_type": "Ct"}, "2": {"label": "*3", "atom_type": "Cs"}, "7": {"label": "*2", "atom_type": "H0"}, "13": {"label": "*0", "atom_type": "Cd"}, "14": {"label": "*1", "atom_type": "Cs"}}

>  <type>  (7) 
unop_3

>  <geom_source>  (7) 
Heuristics

$$$$

     RDKit          3D

 24 22  0  0  0  0  0  0  0  0999 V2000
   -1.0716    0.5136   -3.0833 C   0  0  0  0  0  0  0  0  0  0  0  0
   -1.0716    0.5136   -1.8872 C   0  0  0  0  0  0  0  0  0  0  0  0
   -1.0716    0.5537   -0.4206 C   0  0  0  0  0  0  0  0  0  0  0  0
   -1.7096    1.8529    0.1014 C   0  0  0  0  0  0  0  0  0  0  0  0
   -1.7335   -0.6275    0.1442 C   0  0  0  0  0  0  0  0  0  0  0  0
   -2.2817   -1.5728    0.6306 C   0  0  0  0  0  0  0  0  0  0  0  0
   -1.0716    0.5136   -4.1468 H   0  0  0  0  0  0  0  0  0  0  0  0
    0.1820    0.5265   -0.0275 H   0  0  0  0  0  0  0  0  0  0  0  0
   -2.7529    1.9102   -0.2064 H   0  0  0  0  0  0  0  0  0  0  0  0
   -1.1770    2.7144   -0.3003 H   0  0  0  0  0  0  0  0  0  0  0  0
   -1.6625    1.8774    1.1896 H   0  0  0  0  0  0  0  0  0  0  0  0
   -2.7691   -2.4132    1.0632 H   0  0  0  0  0  0  0  0  0  0  0  0
    3.3667   -0.9061   -0.3836 C   0  0  0  0  0  0  0  0  0  0  0  0
    2.0764   -0.7597   -0.1290 C   0  0  0  0  0  0  0  0  0  0  0  0
    1.4370    0.4992    0.3661 C   0  0  0  0  0  3  0  0  0  0  0  0
    0.7875    0.3882    1.7187 C   0  0  0  0  0  0  0  0  0  0  0  0
    0.9128   -0.6255    2.5606 C   0  0  0  0  0  0  0  0  0  0  0  0
    3.7694   -1.8425   -0.7487 H   0  0  0  0  0  0  0  0  0  0  0  0
    4.0684   -0.0918   -0.2372 H   0  0  0  0  0  0  0  0  0  0  0  0
    1.4069   -1.6026   -0.2800 H   0  0  0  0  0  0  0  0  0  0  0  0
    2.1752    1.3076    0.3919 H   0  0  0  0  0  0  0  0  0  0  0  0
    0.1736    1.2377    2.0053 H   0  0  0  0  0  0  0  0  0  0  0  0
    0.4135   -0.6192    3.5211 H   0  0  0  0  0  0  0  0  0  0  0  0
    1.5220   -1.4908    2.3258 H   0  0  0  0  0  0  0  0  0  0  0  0
  1  2  3  0
  1  7  1  0
  2  3  1  0
  3  4  1  0
  3  5  1  0
  3  8  1  0
  4  9  1  0
  4 10  1  0
  4 11  1  0
  5  6  3  0
  6 12  1  0
 13 14  2  3
 13 18  1  0
 13 19  1  0
 14 15  1  0
 14 20  1  0
 15 16  1  0
 15 21  1  0
 16 17  2  3
 16 22  1  0
 17 23  1  0
 17 24  1  0
M  RAD  1  15   2
M  END
>  <reaction>  (8) 
rxn_1397

>  <mol_properties>  (8) 
{"1": {"label": "*4", "atom_type": "Ct"}, "2": {"label": "*3", "atom_type": "Cs"}, "7": {"label": "*2", "atom_type": "H0"}, "13": {"label": "*0", "atom_type": "Cd"}, "14": {"label": "*1", "atom_type": "Cs"}}

>  <type>  (8) 
unop_4

>  <geom_source>  (8) 
Heuristics

$$$$

     RDKit          3D

 24 22  0  0  0  0  0  0  0  0999 V2000
   -1.2141   -0.0657   -3.1451 C   0  0  0  0  0  0  0  0  0  0  0  0
   -1.2141   -0.0657   -1.9489 C   0  0  0  0  0  0  0  0  0  0  0  0
   -1.2141   -0.0256   -0.4824 C   0  0  0  0  0  0  0  0  0  0  0  0
   -1.8521    1.2736    0.0396 C   0  0  0  0  0  0  0  0  0  0  0  0
   -1.8759   -1.2068    0.0824 C   0  0  0  0  0  0  0  0  0  0  0  0
   -2.4242   -2.1521    0.5689 C   0  0  0  0  0  0  0  0  0  0  0  0
   -1.2141   -0.0657   -4.2085 H   0  0  0  0  0  0  0  0  0  0  0  0
    0.0395   -0.0528   -0.0892 H   0  0  0  0  0  0  0  0  0  0  0  0
   -2.8954    1.3309   -0.2681 H   0  0  0  0  0  0  0  0  0  0  0  0
   -1.3195    2.1351   -0.3620 H   0  0  0  0  0  0  0  0  0  0  0  0
   -1.8049    1.2981    1.1279 H   0  0  0  0  0  0  0  0  0  0  0  0
   -2.9116   -2.9925    1.0014 H   0  0  0  0  0  0  0  0  0  0  0  0
    1.8904   -0.9660    2.5672 C   0  0  0  0  0  0  0  0  0  0  0  0
    1.3380   -0.0406    1.7995 C   0  0  0  0  0  0  0  0  0  0  0  0
    1.2945   -0.0801    0.3044 C   0  0  0  0  0  3  0  0  0  0  0  0
    2.0208    1.0466   -0.3788 C   0  0  0  0  0  0  0  0  0  0  0  0
    2.8359    1.9122    0.2029 C   0  0  0  0  0  0  0  0  0  0  0  0
    1.8829   -0.8847    3.6470 H   0  0  0  0  0  0  0  0  0  0  0  0
    2.3697   -1.8416    2.1425 H   0  0  0  0  0  0  0  0  0  0  0  0
    0.8752    0.8267    2.2634 H   0  0  0  0  0  0  0  0  0  0  0  0
    1.6977   -1.0325   -0.0557 H   0  0  0  0  0  0  0  0  0  0  0  0
    1.8468    1.1244   -1.4485 H   0  0  0  0  0  0  0  0  0  0  0  0
    3.3245    2.6909   -0.3688 H   0  0  0  0  0  0  0  0  0  0  0  0
    3.0500    1.8702    1.2647 H   0  0  0  0  0  0  0  0  0  0  0  0
  1  2  3  0
  1  7  1  0
  2  3  1  0
  3  4  1  0
  3  5  1  0
  3  8  1  0
  4  9  1  0
  4 10  1  0
  4 11  1  0
  5  6  3  0
  6 12  1  0
 13 14  2  3
 13 18  1  0
 13 19  1  0
 14 15  1  0
 14 20  1  0
 15 16  1  0
 15 21  1  0
 16 17  2  3
 16 22  1  0
 17 23  1  0
 17 24  1  0
M  RAD  1  15   2
M  END
>  <reaction>  (9) 
rxn_1397

>  <mol_properties>  (9) 
{"1": {"label": "*4", "atom_type": "Ct"}, "2": {"label": "*3", "atom_type": "Cs"}, "7": {"label": "*2", "atom_type": "H0"}, "13": {"label": "*0", "atom_type": "Cd"}, "14": {"label": "*1", "atom_type": "Cs"}}

>  <type>  (9) 
unop_5

>  <geom_source>  (9) 
Heuristics

$$$$

     RDKit          3D

 24 22  0  0  0  0  0  0  0  0999 V2000
   -0.9856    0.3924   -3.2365 C   0  0  0  0  0  0  0  0  0  0  0  0
   -0.9856    0.3924   -2.0404 C   0  0  0  0  0  0  0  0  0  0  0  0
   -0.9856    0.4325   -0.5738 C   0  0  0  0  0  0  0  0  0  0  0  0
   -1.6236    1.7317   -0.0518 C   0  0  0  0  0  0  0  0  0  0  0  0
   -1.6475   -0.7488   -0.0090 C   0  0  0  0  0  0  0  0  0  0  0  0
   -2.1957   -1.6940    0.4774 C   0  0  0  0  0  0  0  0  0  0  0  0
   -0.9856    0.3924   -4.3000 H   0  0  0  0  0  0  0  0  0  0  0  0
    0.2680    0.4052   -0.1807 H   0  0  0  0  0  0  0  0  0  0  0  0
   -2.6669    1.7890   -0.3596 H   0  0  0  0  0  0  0  0  0  0  0  0
   -1.0910    2.5931   -0.4535 H   0  0  0  0  0  0  0  0  0  0  0  0
   -1.5764    1.7561    1.0364 H   0  0  0  0  0  0  0  0  0  0  0  0
   -2.6831   -2.5345    0.9100 H   0  0  0  0  0  0  0  0  0  0  0  0
    3.1993   -1.4687    0.4135 C   0  0  0  0  0  0  0  0  0  0  0  0
    1.9457   -1.0454    0.3975 C   0  0  0  0  0  0  0  0  0  0  0  0
    1.5230    0.3780    0.2129 C   0  0  0  0  0  3  0  0  0  0  0  0
    0.7786    0.9721    1.3776 C   0  0  0  0  0  0  0  0  0  0  0  0
    0.6573    0.4320    2.5800 C   0  0  0  0  0  0  0  0  0  0  0  0
    3.4421   -2.5159    0.5434 H   0  0  0  0  0  0  0  0  0  0  0  0
    4.0303   -0.7815    0.2951 H   0  0  0  0  0  0  0  0  0  0  0  0
    1.1412   -1.7646    0.5285 H   0  0  0  0  0  0  0  0  0  0  0  0
    2.3964    1.0013   -0.0056 H   0  0  0  0  0  0  0  0  0  0  0  0
    0.3176    1.9370    1.1851 H   0  0  0  0  0  0  0  0  0  0  0  0
    0.1073    0.9345    3.3654 H   0  0  0  0  0  0  0  0  0  0  0  0
    1.1073   -0.5232    2.8249 H   0  0  0  0  0  0  0  0  0  0  0  0
  1  2  3  0
  1  7  1  0
  2  3  1  0
  3  4  1  0
  3  5  1  0
  3  8  1  0
  4  9  1  0
  4 10  1  0
  4 11  1  0
  5  6  3  0
  6 12  1  0
 13 14  2  3
 13 18  1  0
 13 19  1  0
 14 15  1  0
 14 20  1  0
 15 16  1  0
 15 21  1  0
 16 17  2  3
 16 22  1  0
 17 23  1  0
 17 24  1  0
M  RAD  1  15   2
M  END
>  <reaction>  (10) 
rxn_1397

>  <mol_properties>  (10) 
{"1": {"label": "*4", "atom_type": "Ct"}, "2": {"label": "*3", "atom_type": "Cs"}, "7": {"label": "*2", "atom_type": "H0"}, "13": {"label": "*0", "atom_type": "Cd"}, "14": {"label": "*1", "atom_type": "Cs"}}

>  <type>  (10) 
unop_6

>  <geom_source>  (10) 
Heuristics

$$$$

     RDKit          3D

 24 22  0  0  0  0  0  0  0  0999 V2000
   -0.9674    0.1892   -3.3104 C   0  0  0  0  0  0  0  0  0  0  0  0
   -0.9674    0.1892   -2.1142 C   0  0  0  0  0  0  0  0  0  0  0  0
   -0.9674    0.2293   -0.6477 C   0  0  0  0  0  0  0  0  0  0  0  0
   -1.6054    1.5285   -0.1257 C   0  0  0  0  0  0  0  0  0  0  0  0
   -1.6292   -0.9520   -0.0829 C   0  0  0  0  0  0  0  0  0  0  0  0
   -2.1775   -1.8973    0.4036 C   0  0  0  0  0  0  0  0  0  0  0  0
   -0.9674    0.1892   -4.3739 H   0  0  0  0  0  0  0  0  0  0  0  0
    0.2862    0.2020   -0.2546 H   0  0  0  0  0  0  0  0  0  0  0  0
   -2.6487    1.5857   -0.4335 H   0  0  0  0  0  0  0  0  0  0  0  0
   -1.0728    2.3899   -0.5274 H   0  0  0  0  0  0  0  0  0  0  0  0
   -1.5582    1.5529    0.9625 H   0  0  0  0  0  0  0  0  0  0  0  0
   -2.6649   -2.7377    0.8361 H   0  0  0  0  0  0  0  0  0  0  0  0
    2.9355   -1.5853    1.2429 C   0  0  0  0  0  0  0  0  0  0  0  0
    1.7586   -1.0345    0.9930 C   0  0  0  0  0  0  0  0  0  0  0  0
    1.5412    0.1747    0.1390 C   0  0  0  0  0  3  0  0  0  0  0  0
    0.9517    1.3579    0.8575 C   0  0  0  0  0  0  0  0  0  0  0  0
    0.8128    1.4816    2.1681 C   0  0  0  0  0  0  0  0  0  0  0  0
    3.0278   -2.4673    1.8641 H   0  0  0  0  0  0  0  0  0  0  0  0
    3.8516   -1.1739    0.8324 H   0  0  0  0  0  0  0  0  0  0  0  0
    0.8647   -1.4716    1.4305 H   0  0  0  0  0  0  0  0  0  0  0  0
    2.4848    0.4766   -0.3276 H   0  0  0  0  0  0  0  0  0  0  0  0
    0.6286    2.1722    0.2148 H   0  0  0  0  0  0  0  0  0  0  0  0
    0.3828    2.3750    2.6026 H   0  0  0  0  0  0  0  0  0  0  0  0
    1.1291    0.7023    2.8519 H   0  0  0  0  0  0  0  0  0  0  0  0
  1  2  3  0
  1  7  1  0
  2  3  1  0
  3  4  1  0
  3  5  1  0
  3  8  1  0
  4  9  1  0
  4 10  1  0
  4 11  1  0
  5  6  3  0
  6 12  1  0
 13 14  2  3
 13 18  1  0
 13 19  1  0
 14 15  1  0
 14 20  1  0
 15 16  1  0
 15 21  1  0
 16 17  2  3
 16 22  1  0
 17 23  1  0
 17 24  1  0
M  RAD  1  15   2
M  END
>  <reaction>  (11) 
rxn_1397

>  <mol_properties>  (11) 
{"1": {"label": "*4", "atom_type": "Ct"}, "2": {"label": "*3", "atom_type": "Cs"}, "7": {"label": "*2", "atom_type": "H0"}, "13": {"label": "*0", "atom_type": "Cd"}, "14": {"label": "*1", "atom_type": "Cs"}}

>  <type>  (11) 
unop_7

>  <geom_source>  (11) 
Heuristics

$$$$

     RDKit          3D

 24 22  0  0  0  0  0  0  0  0999 V2000
   -1.3360   -0.0149   -2.9854 C   0  0  0  0  0  0  0  0  0  0  0  0
   -1.3360   -0.0149   -1.7892 C   0  0  0  0  0  0  0  0  0  0  0  0
   -1.3360    0.0251   -0.3227 C   0  0  0  0  0  0  0  0  0  0  0  0
   -1.9741    1.3243    0.1993 C   0  0  0  0  0  0  0  0  0  0  0  0
   -1.9979   -1.1561    0.2421 C   0  0  0  0  0  0  0  0  0  0  0  0
   -2.5461   -2.1014    0.7286 C   0  0  0  0  0  0  0  0  0  0  0  0
   -1.3360   -0.0149   -4.0488 H   0  0  0  0  0  0  0  0  0  0  0  0
   -0.0824   -0.0021    0.0705 H   0  0  0  0  0  0  0  0  0  0  0  0
   -3.0173    1.3816   -0.1084 H   0  0  0  0  0  0  0  0  0  0  0  0
   -1.4415    2.1858   -0.2023 H   0  0  0  0  0  0  0  0  0  0  0  0
   -1.9269    1.3488    1.2876 H   0  0  0  0  0  0  0  0  0  0  0  0
   -3.0335   -2.9418    1.1611 H   0  0  0  0  0  0  0  0  0  0  0  0
    1.4875    2.1736    1.6077 C   0  0  0  0  0  0  0  0  0  0  0  0
    1.6809    1.3738    0.5714 C   0  0  0  0  0  0  0  0  0  0  0  0
    1.1725   -0.0294    0.4641 C   0  0  0  0  0  3  0  0  0  0  0  0
    2.2418   -1.0818    0.3507 C   0  0  0  0  0  0  0  0  0  0  0  0
    3.5384   -0.8967    0.5422 C   0  0  0  0  0  0  0  0  0  0  0  0
    1.8749    3.1847    1.6230 H   0  0  0  0  0  0  0  0  0  0  0  0
    0.9318    1.8459    2.4797 H   0  0  0  0  0  0  0  0  0  0  0  0
    2.2510    1.7368   -0.2799 H   0  0  0  0  0  0  0  0  0  0  0  0
    0.5349   -0.2621    1.3234 H   0  0  0  0  0  0  0  0  0  0  0  0
    1.8839   -2.0757    0.0963 H   0  0  0  0  0  0  0  0  0  0  0  0
    4.2399   -1.7156    0.4467 H   0  0  0  0  0  0  0  0  0  0  0  0
    3.9437    0.0730    0.8077 H   0  0  0  0  0  0  0  0  0  0  0  0
  1  2  3  0
  1  7  1  0
  2  3  1  0
  3  4  1  0
  3  5  1  0
  3  8  1  0
  4  9  1  0
  4 10  1  0
  4 11  1  0
  5  6  3  0
  6 12  1  0
 13 14  2  3
 13 18  1  0
 13 19  1  0
 14 15  1  0
 14 20  1  0
 15 16  1  0
 15 21  1  0
 16 17  2  3
 16 22  1  0
 17 23  1  0
 17 24  1  0
M  RAD  1  15   2
M  END
>  <reaction>  (12) 
rxn_1397

>  <mol_properties>  (12) 
{"1": {"label": "*4", "atom_type": "Ct"}, "2": {"label": "*3", "atom_type": "Cs"}, "7": {"label": "*2", "atom_type": "H0"}, "13": {"label": "*0", "atom_type": "Cd"}, "14": {"label": "*1", "atom_type": "Cs"}}

>  <type>  (12) 
unop_8

>  <geom_source>  (12) 
Heuristics

$$$$

     RDKit          3D

 24 22  0  0  0  0  0  0  0  0999 V2000
   -1.1972    0.5080   -2.9089 C   0  0  0  0  0  0  0  0  0  0  0  0
   -1.1972    0.5080   -1.7127 C   0  0  0  0  0  0  0  0  0  0  0  0
   -1.1972    0.5481   -0.2462 C   0  0  0  0  0  0  0  0  0  0  0  0
   -1.8353    1.8473    0.2758 C   0  0  0  0  0  0  0  0  0  0  0  0
   -1.8591   -0.6332    0.3186 C   0  0  0  0  0  0  0  0  0  0  0  0
   -2.4073   -1.5785    0.8051 C   0  0  0  0  0  0  0  0  0  0  0  0
   -1.1972    0.5080   -3.9723 H   0  0  0  0  0  0  0  0  0  0  0  0
    0.0564    0.5208    0.1470 H   0  0  0  0  0  0  0  0  0  0  0  0
   -2.8785    1.9045   -0.0319 H   0  0  0  0  0  0  0  0  0  0  0  0
   -1.3027    2.7087   -0.1258 H   0  0  0  0  0  0  0  0  0  0  0  0
   -1.7881    1.8717    1.3641 H   0  0  0  0  0  0  0  0  0  0  0  0
   -2.8947   -2.4189    1.2376 H   0  0  0  0  0  0  0  0  0  0  0  0
    3.3305    0.0750   -0.8766 C   0  0  0  0  0  0  0  0  0  0  0  0
    2.1209   -0.2662   -0.4625 C   0  0  0  0  0  0  0  0  0  0  0  0
    1.3113    0.4935    0.5405 C   0  0  0  0  0  3  0  0  0  0  0  0
    0.9925   -0.2650    1.8002 C   0  0  0  0  0  0  0  0  0  0  0  0
    1.5234   -1.4206    2.1674 C   0  0  0  0  0  0  0  0  0  0  0  0
    3.8641   -0.5129   -1.6128 H   0  0  0  0  0  0  0  0  0  0  0  0
    3.8314    0.9581   -0.4944 H   0  0  0  0  0  0  0  0  0  0  0  0
    1.6566   -1.1637   -0.8632 H   0  0  0  0  0  0  0  0  0  0  0  0
    1.8241    1.4239    0.8064 H   0  0  0  0  0  0  0  0  0  0  0  0
    0.2634    0.2098    2.4510 H   0  0  0  0  0  0  0  0  0  0  0  0
    1.2404   -1.8949    3.0985 H   0  0  0  0  0  0  0  0  0  0  0  0
    2.2622   -1.9288    1.5584 H   0  0  0  0  0  0  0  0  0  0  0  0
  1  2  3  0
  1  7  1  0
  2  3  1  0
  3  4  1  0
  3  5  1  0
  3  8  1  0
  4  9  1  0
  4 10  1  0
  4 11  1  0
  5  6  3  0
  6 12  1  0
 13 14  2  3
 13 18  1  0
 13 19  1  0
 14 15  1  0
 14 20  1  0
 15 16  1  0
 15 21  1  0
 16 17  2  3
 16 22  1  0
 17 23  1  0
 17 24  1  0
M  RAD  1  15   2
M  END
>  <reaction>  (13) 
rxn_1397

>  <mol_properties>  (13) 
{"1": {"label": "*4", "atom_type": "Ct"}, "2": {"label": "*3", "atom_type": "Cs"}, "7": {"label": "*2", "atom_type": "H0"}, "13": {"label": "*0", "atom_type": "Cd"}, "14": {"label": "*1", "atom_type": "Cs"}}

>  <type>  (13) 
unop_9

>  <geom_source>  (13) 
Heuristics

$$$$

     RDKit          3D

 24 22  0  0  0  0  0  0  0  0999 V2000
   -1.3691    0.0313   -2.8693 C   0  0  0  0  0  0  0  0  0  0  0  0
   -1.3691    0.0313   -1.6732 C   0  0  0  0  0  0  0  0  0  0  0  0
   -1.3691    0.0714   -0.2066 C   0  0  0  0  0  0  0  0  0  0  0  0
   -2.0071    1.3706    0.3154 C   0  0  0  0  0  0  0  0  0  0  0  0
   -2.0309   -1.1099    0.3582 C   0  0  0  0  0  0  0  0  0  0  0  0
   -2.5792   -2.0552    0.8446 C   0  0  0  0  0  0  0  0  0  0  0  0
   -1.3691    0.0313   -3.9328 H   0  0  0  0  0  0  0  0  0  0  0  0
   -0.1155    0.0441    0.1865 H   0  0  0  0  0  0  0  0  0  0  0  0
   -3.0504    1.4278    0.0076 H   0  0  0  0  0  0  0  0  0  0  0  0
   -1.4745    2.2320   -0.0863 H   0  0  0  0  0  0  0  0  0  0  0  0
   -1.9599    1.3950    1.4036 H   0  0  0  0  0  0  0  0  0  0  0  0
   -3.0666   -2.8956    1.2772 H   0  0  0  0  0  0  0  0  0  0  0  0
    1.9420    2.3866    0.6088 C   0  0  0  0  0  0  0  0  0  0  0  0
    1.8531    1.2058    0.0181 C   0  0  0  0  0  0  0  0  0  0  0  0
    1.1395    0.0168    0.5801 C   0  0  0  0  0  3  0  0  0  0  0  0
    2.0164   -1.1744    0.8553 C   0  0  0  0  0  0  0  0  0  0  0  0
    3.3399   -1.1856    0.8407 C   0  0  0  0  0  0  0  0  0  0  0  0
    2.4670    3.2132    0.1466 H   0  0  0  0  0  0  0  0  0  0  0  0
    1.4902    2.5701    1.5778 H   0  0  0  0  0  0  0  0  0  0  0  0
    2.3273    1.0594   -0.9490 H   0  0  0  0  0  0  0  0  0  0  0  0
    0.6192    0.2955    1.5025 H   0  0  0  0  0  0  0  0  0  0  0  0
    1.4848   -2.0916    1.0937 H   0  0  0  0  0  0  0  0  0  0  0  0
    3.8936   -2.0899    1.0589 H   0  0  0  0  0  0  0  0  0  0  0  0
    3.9160   -0.2946    0.6191 H   0  0  0  0  0  0  0  0  0  0  0  0
  1  2  3  0
  1  7  1  0
  2  3  1  0
  3  4  1  0
  3  5  1  0
  3  8  1  0
  4  9  1  0
  4 10  1  0
  4 11  1  0
  5  6  3  0
  6 12  1  0
 13 14  2  3
 13 18  1  0
 13 19  1  0
 14 15  1  0
 14 20  1  0
 15 16  1  0
 15 21  1  0
 16 17  2  3
 16 22  1  0
 17 23  1  0
 17 24  1  0
M  RAD  1  15   2
M  END
>  <reaction>  (14) 
rxn_1397

>  <mol_properties>  (14) 
{"1": {"label": "*4", "atom_type": "Ct"}, "2": {"label": "*3", "atom_type": "Cs"}, "7": {"label": "*2", "atom_type": "H0"}, "13": {"label": "*0", "atom_type": "Cd"}, "14": {"label": "*1", "atom_type": "Cs"}}

>  <type>  (14) 
unop_10

>  <geom_source>  (14) 
Heuristics

$$$$

     RDKit          3D

 24 22  0  0  0  0  0  0  0  0999 V2000
   -1.0476   -0.0144   -3.2686 C   0  0  0  0  0  0  0  0  0  0  0  0
   -1.0476   -0.0144   -2.0725 C   0  0  0  0  0  0  0  0  0  0  0  0
   -1.0476    0.0256   -0.6059 C   0  0  0  0  0  0  0  0  0  0  0  0
   -1.6856    1.3249   -0.0839 C   0  0  0  0  0  0  0  0  0  0  0  0
   -1.7094   -1.1556   -0.0412 C   0  0  0  0  0  0  0  0  0  0  0  0
   -2.2576   -2.1009    0.4453 C   0  0  0  0  0  0  0  0  0  0  0  0
   -1.0476   -0.0144   -4.3321 H   0  0  0  0  0  0  0  0  0  0  0  0
    0.2060   -0.0016   -0.2128 H   0  0  0  0  0  0  0  0  0  0  0  0
   -2.7289    1.3821   -0.3917 H   0  0  0  0  0  0  0  0  0  0  0  0
   -1.1530    2.1863   -0.4856 H   0  0  0  0  0  0  0  0  0  0  0  0
   -1.6384    1.3493    1.0043 H   0  0  0  0  0  0  0  0  0  0  0  0
   -2.7451   -2.9413    0.8778 H   0  0  0  0  0  0  0  0  0  0  0  0
    2.5654   -1.4208    1.9425 C   0  0  0  0  0  0  0  0  0  0  0  0
    1.5397   -0.7026    1.5144 C   0  0  0  0  0  0  0  0  0  0  0  0
    1.4610   -0.0289    0.1808 C   0  0  0  0  0  3  0  0  0  0  0  0
    1.3510    1.4706    0.2360 C   0  0  0  0  0  0  0  0  0  0  0  0
    1.5233    2.2238    1.3108 C   0  0  0  0  0  0  0  0  0  0  0  0
    2.5597   -1.8916    2.9175 H   0  0  0  0  0  0  0  0  0  0  0  0
    3.4495   -1.5656    1.3307 H   0  0  0  0  0  0  0  0  0  0  0  0
    0.6756   -0.5737    2.1612 H   0  0  0  0  0  0  0  0  0  0  0  0
    2.3319   -0.2990   -0.4257 H   0  0  0  0  0  0  0  0  0  0  0  0
    1.1170    1.9499   -0.7106 H   0  0  0  0  0  0  0  0  0  0  0  0
    1.4320    3.3013    1.2585 H   0  0  0  0  0  0  0  0  0  0  0  0
    1.7682    1.7947    2.2755 H   0  0  0  0  0  0  0  0  0  0  0  0
  1  2  3  0
  1  7  1  0
  2  3  1  0
  3  4  1  0
  3  5  1  0
  3  8  1  0
  4  9  1  0
  4 10  1  0
  4 11  1  0
  5  6  3  0
  6 12  1  0
 13 14  2  3
 13 18  1  0
 13 19  1  0
 14 15  1  0
 14 20  1  0
 15 16  1  0
 15 21  1  0
 16 17  2  3
 16 22  1  0
 17 23  1  0
 17 24  1  0
M  RAD  1  15   2
M  END
>  <reaction>  (15) 
rxn_1397

>  <mol_properties>  (15) 
{"1": {"label": "*4", "atom_type": "Ct"}, "2": {"label": "*3", "atom_type": "Cs"}, "7": {"label": "*2", "atom_type": "H0"}, "13": {"label": "*0", "atom_type": "Cd"}, "14": {"label": "*1", "atom_type": "Cs"}}

>  <type>  (15) 
unop_11

>  <geom_source>  (15) 
Heuristics

$$$$

     RDKit          3D

 24 22  0  0  0  0  0  0  0  0999 V2000
   -1.3164    0.3708   -2.7884 C   0  0  0  0  0  0  0  0  0  0  0  0
   -1.3164    0.3708   -1.5923 C   0  0  0  0  0  0  0  0  0  0  0  0
   -1.3164    0.4108   -0.1257 C   0  0  0  0  0  0  0  0  0  0  0  0
   -1.9545    1.7101    0.3963 C   0  0  0  0  0  0  0  0  0  0  0  0
   -1.9783   -0.7704    0.4391 C   0  0  0  0  0  0  0  0  0  0  0  0
   -2.5265   -1.7157    0.9256 C   0  0  0  0  0  0  0  0  0  0  0  0
   -1.3164    0.3708   -3.8519 H   0  0  0  0  0  0  0  0  0  0  0  0
   -0.0629    0.3836    0.2674 H   0  0  0  0  0  0  0  0  0  0  0  0
   -2.9977    1.7673    0.0885 H   0  0  0  0  0  0  0  0  0  0  0  0
   -1.4219    2.5715   -0.0054 H   0  0  0  0  0  0  0  0  0  0  0  0
   -1.9073    1.7345    1.4845 H   0  0  0  0  0  0  0  0  0  0  0  0
   -3.0140   -2.5561    1.3581 H   0  0  0  0  0  0  0  0  0  0  0  0
    3.0076    1.1898   -0.8457 C   0  0  0  0  0  0  0  0  0  0  0  0
    2.0797    0.2966   -0.5421 C   0  0  0  0  0  0  0  0  0  0  0  0
    1.1921    0.3563    0.6610 C   0  0  0  0  0  3  0  0  0  0  0  0
    1.3532   -0.7897    1.6225 C   0  0  0  0  0  0  0  0  0  0  0  0
    2.3195   -1.6940    1.5994 C   0  0  0  0  0  0  0  0  0  0  0  0
    3.6145    1.0955   -1.7374 H   0  0  0  0  0  0  0  0  0  0  0  0
    3.1929    2.0509   -0.2125 H   0  0  0  0  0  0  0  0  0  0  0  0
    1.9307   -0.5574   -1.1979 H   0  0  0  0  0  0  0  0  0  0  0  0
    1.3550    1.2964    1.1985 H   0  0  0  0  0  0  0  0  0  0  0  0
    0.5969   -0.8473    2.4004 H   0  0  0  0  0  0  0  0  0  0  0  0
    2.3631   -2.4843    2.3380 H   0  0  0  0  0  0  0  0  0  0  0  0
    3.1029   -1.6736    0.8505 H   0  0  0  0  0  0  0  0  0  0  0  0
  1  2  3  0
  1  7  1  0
  2  3  1  0
  3  4  1  0
  3  5  1  0
  3  8  1  0
  4  9  1  0
  4 10  1  0
  4 11  1  0
  5  6  3  0
  6 12  1  0
 13 14  2  3
 13 18  1  0
 13 19  1  0
 14 15  1  0
 14 20  1  0
 15 16  1  0
 15 21  1  0
 16 17  2  3
 16 22  1  0
 17 23  1  0
 17 24  1  0
M  RAD  1  15   2
M  END
>  <reaction>  (16) 
rxn_1397

>  <mol_properties>  (16) 
{"1": {"label": "*4", "atom_type": "Ct"}, "2": {"label": "*3", "atom_type": "Cs"}, "7": {"label": "*2", "atom_type": "H0"}, "13": {"label": "*0", "atom_type": "Cd"}, "14": {"label": "*1", "atom_type": "Cs"}}

>  <type>  (16) 
unop_12

>  <geom_source>  (16) 
Heuristics

$$$$

     RDKit          3D

 24 22  0  0  0  0  0  0  0  0999 V2000
   -1.3581   -0.1969   -0.2433 C   0  0  0  0  0  3  0  0  0  0  0  0
    1.6861    1.4513   -0.7579 C   0  0  0  0  0  0  0  0  0  0  0  0
    1.2618    0.1412   -0.1005 C   0  0  0  0  0  0  0  0  0  0  0  0
   -1.8252   -1.2043    0.7702 C   0  0  0  0  0  0  0  0  0  0  0  0
   -2.2383    1.0217   -0.2692 C   0  0  0  0  0  0  0  0  0  0  0  0
   -1.1365   -2.3286    0.9761 C   0  0  0  0  0  0  0  0  0  0  0  0
   -1.9493    2.0503   -1.0687 C   0  0  0  0  0  0  0  0  0  0  0  0
    1.5864    0.1495    1.3310 C   0  0  0  0  0  0  0  0  0  0  0  0
    1.9165   -1.0013   -0.7492 C   0  0  0  0  0  0  0  0  0  0  0  0
    1.8516    0.1570    2.5074 C   0  0  0  0  0  0  0  0  0  0  0  0
    2.4531   -1.9399   -1.2833 C   0  0  0  0  0  0  0  0  0  0  0  0
   -1.3541   -0.6666   -1.2509 H   0  0  0  0  0  0  0  0  0  0  0  0
   -0.0342    0.2002    0.0808 H   0  0  0  0  0  0  0  0  0  0  0  0
    1.1618    2.3034   -0.2749 H   0  0  0  0  0  0  0  0  0  0  0  0
    1.4091    1.4412   -1.8336 H   0  0  0  0  0  0  0  0  0  0  0  0
    2.7841    1.6033   -0.6678 H   0  0  0  0  0  0  0  0  0  0  0  0
   -2.7277   -1.0308    1.3503 H   0  0  0  0  0  0  0  0  0  0  0  0
   -3.1200    1.0833    0.3632 H   0  0  0  0  0  0  0  0  0  0  0  0
   -0.2292   -2.5380    0.4172 H   0  0  0  0  0  0  0  0  0  0  0  0
   -1.4804   -3.0498    1.7105 H   0  0  0  0  0  0  0  0  0  0  0  0
   -2.5896    2.9264   -1.0803 H   0  0  0  0  0  0  0  0  0  0  0  0
   -1.0766    2.0273   -1.7148 H   0  0  0  0  0  0  0  0  0  0  0  0
    2.0845    0.1636    3.5397 H   0  0  0  0  0  0  0  0  0  0  0  0
    2.9241   -2.7635   -1.7520 H   0  0  0  0  0  0  0  0  0  0  0  0
  1  4  1  0
  1  5  1  0
  1 12  1  0
  2  3  1  0
  2 14  1  0
  2 15  1  0
  2 16  1  0
  3  8  1  0
  3  9  1  0
  3 13  1  0
  4  6  2  3
  4 17  1  0
  5  7  2  3
  5 18  1  0
  6 19  1  0
  6 20  1  0
  7 21  1  0
  7 22  1  0
  8 10  3  0
  9 11  3  0
 10 23  1  0
 11 24  1  0
M  RAD  1   1   2
M  END
>  <reaction>  (17) 
rxn_1397

>  <mol_properties>  (17) 
{"1": {"label": "*4", "atom_type": "Ct"}, "2": {"label": "*3", "atom_type": "Cs"}, "7": {"label": "*2", "atom_type": "H0"}, "13": {"label": "*0", "atom_type": "Cd"}, "14": {"label": "*1", "atom_type": "Cs"}}

>  <type>  (17) 
unop_13

>  <geom_source>  (17) 
AutoTST

$$$$

     RDKit          3D

 24 22  0  0  0  0  0  0  0  0999 V2000
   -1.3753    0.1752   -2.7805 C   0  0  0  0  0  0  0  0  0  0  0  0
   -1.3753    0.1752   -1.5844 C   0  0  0  0  0  0  0  0  0  0  0  0
   -1.3753    0.2152   -0.1178 C   0  0  0  0  0  0  0  0  0  0  0  0
   -2.0133    1.5145    0.4042 C   0  0  0  0  0  0  0  0  0  0  0  0
   -2.0372   -0.9660    0.4470 C   0  0  0  0  0  0  0  0  0  0  0  0
   -2.5854   -1.9113    0.9335 C   0  0  0  0  0  0  0  0  0  0  0  0
   -1.3753    0.1752   -3.8440 H   0  0  0  0  0  0  0  0  0  0  0  0
   -0.1217    0.1880    0.2753 H   0  0  0  0  0  0  0  0  0  0  0  0
   -3.0566    1.5717    0.0964 H   0  0  0  0  0  0  0  0  0  0  0  0
   -1.4807    2.3759    0.0025 H   0  0  0  0  0  0  0  0  0  0  0  0
   -1.9662    1.5389    1.4924 H   0  0  0  0  0  0  0  0  0  0  0  0
   -3.0728   -2.7517    1.3660 H   0  0  0  0  0  0  0  0  0  0  0  0
    2.4846    2.0368   -0.2874 C   0  0  0  0  0  0  0  0  0  0  0  0
    1.9857    0.8142   -0.3728 C   0  0  0  0  0  0  0  0  0  0  0  0
    1.1333    0.1607    0.6689 C   0  0  0  0  0  3  0  0  0  0  0  0
    1.7258   -1.0778    1.2842 C   0  0  0  0  0  0  0  0  0  0  0  0
    2.9726   -1.4981    1.1389 C   0  0  0  0  0  0  0  0  0  0  0  0
    3.0897    2.4585   -1.0802 H   0  0  0  0  0  0  0  0  0  0  0  0
    2.3039    2.6626    0.5802 H   0  0  0  0  0  0  0  0  0  0  0  0
    2.1971    0.2154   -1.2550 H   0  0  0  0  0  0  0  0  0  0  0  0
    0.9017    0.8766    1.4646 H   0  0  0  0  0  0  0  0  0  0  0  0
    1.0456   -1.6530    1.9065 H   0  0  0  0  0  0  0  0  0  0  0  0
    3.3183   -2.4009    1.6261 H   0  0  0  0  0  0  0  0  0  0  0  0
    3.6920   -0.9543    0.5375 H   0  0  0  0  0  0  0  0  0  0  0  0
  1  2  3  0
  1  7  1  0
  2  3  1  0
  3  4  1  0
  3  5  1  0
  3  8  1  0
  4  9  1  0
  4 10  1  0
  4 11  1  0
  5  6  3  0
  6 12  1  0
 13 14  2  3
 13 18  1  0
 13 19  1  0
 14 15  1  0
 14 20  1  0
 15 16  1  0
 15 21  1  0
 16 17  2  3
 16 22  1  0
 17 23  1  0
 17 24  1  0
M  RAD  1  15   2
M  END
>  <reaction>  (18) 
rxn_1397

>  <mol_properties>  (18) 
{"1": {"label": "*4", "atom_type": "Ct"}, "2": {"label": "*3", "atom_type": "Cs"}, "7": {"label": "*2", "atom_type": "H0"}, "13": {"label": "*0", "atom_type": "Cd"}, "14": {"label": "*1", "atom_type": "Cs"}}

>  <type>  (18) 
unop_14

>  <geom_source>  (18) 
gaussian_log

$$$$
