
     RDKit          3D

 13 12  0  0  0  0  0  0  0  0999 V2000
    3.0977   -0.3549   -0.5105 C   0  0  0  0  0  0  0  0  0  0  0  0
    2.0556    0.4221   -0.2627 C   0  0  0  0  0  0  0  0  0  0  0  0
    0.6313   -0.0354   -0.2366 C   0  0  0  0  0  0  0  0  0  0  0  0
   -0.2567    0.6038   -1.2694 C   0  0  0  0  0  0  0  0  0  0  0  0
    0.1459    1.3456   -2.2891 C   0  0  0  0  0  0  0  0  0  0  0  0
    4.1081    0.0344   -0.5074 H   0  0  0  0  0  0  0  0  0  0  0  0
    2.9777   -1.4116   -0.7243 H   0  0  0  0  0  0  0  0  0  0  0  0
    2.2171    1.4781   -0.0618 H   0  0  0  0  0  0  0  0  0  0  0  0
    0.5865   -1.1233   -0.3540 H   0  0  0  0  0  0  0  0  0  0  0  0
    0.2065    0.1743    0.7521 H   0  0  0  0  0  0  0  0  0  0  0  0
   -1.3190    0.4126   -1.1445 H   0  0  0  0  0  0  0  0  0  0  0  0
    1.1948    1.5564   -2.4628 H   0  0  0  0  0  0  0  0  0  0  0  0
   -0.5644    1.7621   -2.9918 H   0  0  0  0  0  0  0  0  0  0  0  0
  1  2  2  3
  1  6  1  0
  1  7  1  0
  2  3  1  0
  2  8  1  0
  3  4  1  0
  3  9  1  0
  3 10  1  0
  4  5  2  3
  4 11  1  0
  5 12  1  0
  5 13  1  0
M  END
>  <reaction>  (1) 
rxn_1140

>  <mol_properties>  (1) 
{"2": {"label": "donator", "atom_type": "Cs"}, "8": {"label": "d_hydrogen", "atom_type": "H0"}}

>  <type>  (1) 
r1h

$$$$

     RDKit          3D

 17 17  0  0  0  0  0  0  0  0999 V2000
    2.7069    0.2860   -0.1817 C   0  0  0  0  0  0  0  0  0  0  0  0
    1.6304   -0.7245    0.0085 C   0  0  0  0  0  0  0  0  0  0  0  0
    1.4786   -1.8800   -0.7837 C   0  0  0  0  0  0  0  0  0  0  0  0
    0.4231   -2.7891   -0.5312 C   0  0  0  0  0  3  0  0  0  0  0  0
    0.2582   -3.9235   -1.2940 C   0  0  0  0  0  0  0  0  0  0  0  0
    1.1348   -4.2030   -2.3401 C   0  0  0  0  0  0  0  0  0  0  0  0
    2.1804   -3.3260   -2.6093 C   0  0  0  0  0  0  0  0  0  0  0  0
    2.3549   -2.1866   -1.8513 C   0  0  0  0  0  0  0  0  0  0  0  0
    2.6698    0.7343   -1.1808 H   0  0  0  0  0  0  0  0  0  0  0  0
    3.7029   -0.1584   -0.0766 H   0  0  0  0  0  0  0  0  0  0  0  0
    2.6250    1.0917    0.5463 H   0  0  0  0  0  0  0  0  0  0  0  0
    0.9136   -0.5677    0.8059 H   0  0  0  0  0  0  0  0  0  0  0  0
   -0.2629   -2.5783    0.2811 H   0  0  0  0  0  0  0  0  0  0  0  0
   -0.5582   -4.6017   -1.0785 H   0  0  0  0  0  0  0  0  0  0  0  0
    1.0033   -5.0952   -2.9384 H   0  0  0  0  0  0  0  0  0  0  0  0
    2.8650   -3.5382   -3.4214 H   0  0  0  0  0  0  0  0  0  0  0  0
    3.1750   -1.5169   -2.0772 H   0  0  0  0  0  0  0  0  0  0  0  0
  1  2  1  0
  1  9  1  0
  1 10  1  0
  1 11  1  0
  2  3  2  3
  2 12  1  0
  3  4  1  0
  3  8  1  0
  4  5  1  0
  4 13  1  0
  5  6  2  0
  5 14  1  0
  6  7  1  0
  6 15  1  0
  7  8  2  0
  7 16  1  0
  8 17  1  0
M  RAD  1   4   2
M  END
>  <reaction>  (2) 
rxn_1140

>  <mol_properties>  (2) 
{"1": {"label": "acceptor", "atom_type": "Cs"}}

>  <type>  (2) 
r2

$$$$

     RDKit          3D

 18 18  0  0  0  0  0  0  0  0999 V2000
   -2.4852    0.3210   -0.3966 C   0  0  0  0  0  0  0  0  0  0  0  0
   -1.5917   -0.2708    0.6941 C   0  0  0  0  0  0  0  0  0  0  0  0
   -0.1292   -0.1692    0.3493 C   0  0  0  0  0  0  0  0  0  0  0  0
    0.6099    0.9558    0.7015 C   0  0  0  0  0  0  0  0  0  0  0  0
    1.9447    1.0728    0.3458 C   0  0  0  0  0  0  0  0  0  0  0  0
    2.5646    0.0613   -0.3720 C   0  0  0  0  0  0  0  0  0  0  0  0
    1.8399   -1.0657   -0.7287 C   0  0  0  0  0  0  0  0  0  0  0  0
    0.5055   -1.1769   -0.3700 C   0  0  0  0  0  0  0  0  0  0  0  0
   -2.3325   -0.1971   -1.3452 H   0  0  0  0  0  0  0  0  0  0  0  0
   -2.2554    1.3763   -0.5546 H   0  0  0  0  0  0  0  0  0  0  0  0
   -3.5397    0.2376   -0.1280 H   0  0  0  0  0  0  0  0  0  0  0  0
   -1.7801    0.2462    1.6380 H   0  0  0  0  0  0  0  0  0  0  0  0
   -1.8568   -1.3190    0.8516 H   0  0  0  0  0  0  0  0  0  0  0  0
    0.1327    1.7497    1.2656 H   0  0  0  0  0  0  0  0  0  0  0  0
    2.5033    1.9550    0.6330 H   0  0  0  0  0  0  0  0  0  0  0  0
    3.6077    0.1491   -0.6484 H   0  0  0  0  0  0  0  0  0  0  0  0
    2.3163   -1.8632   -1.2854 H   0  0  0  0  0  0  0  0  0  0  0  0
   -0.0540   -2.0629   -0.6500 H   0  0  0  0  0  0  0  0  0  0  0  0
  1  2  1  0
  1  9  1  0
  1 10  1  0
  1 11  1  0
  2  3  1  0
  2 12  1  0
  2 13  1  0
  3  4  2  0
  3  8  1  0
  4  5  1  0
  4 14  1  0
  5  6  2  0
  5 15  1  0
  6  7  1  0
  6 16  1  0
  7  8  2  0
  7 17  1  0
  8 18  1  0
M  END
>  <reaction>  (3) 
rxn_1140

>  <mol_properties>  (3) 
{"0": {"label": "a_hydrogen", "atom_type": "H0"}, "2": {"label": "acceptor", "atom_type": "Cs"}}

>  <type>  (3) 
r2h

$$$$

     RDKit          3D

 30 29  0  0  0  0  0  0  0  0999 V2000
    1.0422   -2.5772   -1.0020 C   0  0  0  0  0  0  0  0  0  0  0  0
    1.6892   -1.9865   -0.0002 C   0  0  0  0  0  0  0  0  0  0  0  0
    1.0319   -1.2953    1.1131 C   0  0  0  0  0  0  0  0  0  0  0  0
    1.6934   -1.1800    2.4191 C   0  0  0  0  0  0  0  0  0  0  0  0
    2.9590   -1.4729    2.7166 C   0  0  0  0  0  0  0  0  0  0  0  0
    1.5749   -3.0378   -1.8240 H   0  0  0  0  0  0  0  0  0  0  0  0
   -0.0412   -2.6179   -1.0289 H   0  0  0  0  0  0  0  0  0  0  0  0
    2.7743   -1.9595   -0.0273 H   0  0  0  0  0  0  0  0  0  0  0  0
    0.9153   -0.0659    0.6915 H   0  0  0  0  0  0  0  0  0  0  0  0
   -0.0327   -1.5205    1.1882 H   0  0  0  0  0  0  0  0  0  0  0  0
    1.0674   -0.7737    3.2088 H   0  0  0  0  0  0  0  0  0  0  0  0
    3.6464   -1.8938    1.9934 H   0  0  0  0  0  0  0  0  0  0  0  0
    3.3439   -1.3110    3.7149 H   0  0  0  0  0  0  0  0  0  0  0  0
    0.8014    2.0581    1.4676 C   0  0  0  0  0  0  0  0  0  0  0  0
    0.7102    1.2368    0.2126 C   0  0  0  0  0  0  0  0  0  0  0  0
   -0.5448    1.1249   -0.5245 C   0  0  0  0  0  0  0  0  0  0  0  0
   -0.5379    0.6234   -1.8335 C   0  0  0  0  0  3  0  0  0  0  0  0
   -1.7133    0.4436   -2.5374 C   0  0  0  0  0  0  0  0  0  0  0  0
   -2.9338    0.7590   -1.9535 C   0  0  0  0  0  0  0  0  0  0  0  0
   -2.9602    1.2570   -0.6593 C   0  0  0  0  0  0  0  0  0  0  0  0
   -1.7832    1.4361    0.0483 C   0  0  0  0  0  0  0  0  0  0  0  0
    0.0791    1.7323    2.2195 H   0  0  0  0  0  0  0  0  0  0  0  0
    0.6121    3.1177    1.2684 H   0  0  0  0  0  0  0  0  0  0  0  0
    1.7941    1.9688    1.9092 H   0  0  0  0  0  0  0  0  0  0  0  0
    1.5884    1.2917   -0.4283 H   0  0  0  0  0  0  0  0  0  0  0  0
    0.4103    0.3678   -2.2918 H   0  0  0  0  0  0  0  0  0  0  0  0
   -1.6800    0.0565   -3.5483 H   0  0  0  0  0  0  0  0  0  0  0  0
   -3.8552    0.6206   -2.5045 H   0  0  0  0  0  0  0  0  0  0  0  0
   -3.9062    1.5102   -0.1967 H   0  0  0  0  0  0  0  0  0  0  0  0
   -1.8274    1.8307    1.0554 H   0  0  0  0  0  0  0  0  0  0  0  0
  1  2  2  3
  1  6  1  0
  1  7  1  0
  2  3  1  0
  2  8  1  0
  3  4  1  0
  3  9  1  0
  3 10  1  0
  4  5  2  3
  4 11  1  0
  5 12  1  0
  5 13  1  0
 14 15  1  0
 14 22  1  0
 14 23  1  0
 14 24  1  0
 15 16  2  3
 15 25  1  0
 16 17  1  0
 16 21  1  0
 17 18  1  0
 17 26  1  0
 18 19  2  0
 18 27  1  0
 19 20  1  0
 19 28  1  0
 20 21  2  0
 20 29  1  0
 21 30  1  0
M  RAD  1  17   2
M  END
>  <reaction>  (4) 
rxn_1140

>  <mol_properties>  (4) 
{"1": {"label": "*0", "atom_type": "Cd"}, "2": {"label": "*1", "atom_type": "Cs"}, "8": {"label": "*2", "atom_type": "H0"}, "14": {"label": "*3", "atom_type": "Cd"}, "15": {"label": "*4", "atom_type": "Cd"}}

>  <type>  (4) 
ts

$$$$

     RDKit          3D

 30 29  0  0  0  0  0  0  0  0999 V2000
   -0.4269   -2.7179   -0.0063 C   0  0  0  0  0  0  0  0  0  0  0  0
   -0.4269   -2.7179    1.3169 C   0  0  0  0  0  0  0  0  0  0  0  0
   -0.4269   -1.4921    2.1749 C   0  0  0  0  0  3  0  0  0  0  0  0
    0.7829   -1.3377    3.0561 C   0  0  0  0  0  0  0  0  0  0  0  0
    1.8940   -2.0534    2.9837 C   0  0  0  0  0  0  0  0  0  0  0  0
   -0.4350   -3.6406   -0.5729 H   0  0  0  0  0  0  0  0  0  0  0  0
   -0.4205   -1.7924   -0.5723 H   0  0  0  0  0  0  0  0  0  0  0  0
   -0.4243   -3.6666    1.8474 H   0  0  0  0  0  0  0  0  0  0  0  0
   -0.5469   -0.4201    1.4244 H   0  0  0  0  0  0  0  0  0  0  0  0
   -1.3148   -1.5056    2.8177 H   0  0  0  0  0  0  0  0  0  0  0  0
    0.7102   -0.5527    3.8038 H   0  0  0  0  0  0  0  0  0  0  0  0
    2.0195   -2.8403    2.2488 H   0  0  0  0  0  0  0  0  0  0  0  0
    2.7222   -1.8691    3.6560 H   0  0  0  0  0  0  0  0  0  0  0  0
   -1.9324    1.4095    1.0738 C   0  0  0  0  0  0  0  0  0  0  0  0
   -0.6668    0.6494    0.6755 C   0  0  0  0  0  0  0  0  0  0  0  0
   -0.1819    1.0312   -0.6983 C   0  0  0  0  0  0  0  0  0  0  0  0
    0.7000    2.0930   -0.8736 C   0  0  0  0  0  0  0  0  0  0  0  0
    1.1125    2.4763   -2.1404 C   0  0  0  0  0  0  0  0  0  0  0  0
    0.6470    1.8002   -3.2579 C   0  0  0  0  0  0  0  0  0  0  0  0
   -0.2317    0.7396   -3.0974 C   0  0  0  0  0  0  0  0  0  0  0  0
   -0.6406    0.3611   -1.8280 C   0  0  0  0  0  0  0  0  0  0  0  0
   -2.7420    1.2085    0.3698 H   0  0  0  0  0  0  0  0  0  0  0  0
   -1.7530    2.4863    1.0740 H   0  0  0  0  0  0  0  0  0  0  0  0
   -2.2670    1.1190    2.0712 H   0  0  0  0  0  0  0  0  0  0  0  0
    0.1204    0.8462    1.4073 H   0  0  0  0  0  0  0  0  0  0  0  0
    1.0709    2.6246   -0.0041 H   0  0  0  0  0  0  0  0  0  0  0  0
    1.8025    3.3031   -2.2550 H   0  0  0  0  0  0  0  0  0  0  0  0
    0.9700    2.0958   -4.2480 H   0  0  0  0  0  0  0  0  0  0  0  0
   -0.5975    0.2024   -3.9637 H   0  0  0  0  0  0  0  0  0  0  0  0
   -1.3255   -0.4715   -1.7103 H   0  0  0  0  0  0  0  0  0  0  0  0
  1  2  2  3
  1  6  1  0
  1  7  1  0
  2  3  1  0
  2  8  1  0
  3  4  1  0
  3 10  1  0
  4  5  2  3
  4 11  1  0
  5 12  1  0
  5 13  1  0
  9 15  1  0
 14 15  1  0
 14 22  1  0
 14 23  1  0
 14 24  1  0
 15 16  1  0
 15 25  1  0
 16 17  2  0
 16 21  1  0
 17 18  1  0
 17 26  1  0
 18 19  2  0
 18 27  1  0
 19 20  1  0
 19 28  1  0
 20 21  2  0
 20 29  1  0
 21 30  1  0
M  RAD  1   3   2
M  END
>  <reaction>  (5) 
rxn_1140

>  <mol_properties>  (5) 
{"1": {"label": "*0", "atom_type": "Cd"}, "2": {"label": "*1", "atom_type": "Cs"}, "8": {"label": "*2", "atom_type": "H0"}, "14": {"label": "*3", "atom_type": "Cd"}, "15": {"label": "*4", "atom_type": "Cd"}}

>  <type>  (5) 
unop_1

>  <geom_source>  (5) 
Heuristics

$$$$

     RDKit          3D

 30 29  0  0  0  0  0  0  0  0999 V2000
   -1.0530   -3.0729   -0.7705 C   0  0  0  0  0  0  0  0  0  0  0  0
   -1.0530   -3.0729    0.5528 C   0  0  0  0  0  0  0  0  0  0  0  0
   -1.0530   -1.8471    1.4108 C   0  0  0  0  0  3  0  0  0  0  0  0
    0.1568   -1.6927    2.2920 C   0  0  0  0  0  0  0  0  0  0  0  0
    1.2679   -2.4084    2.2196 C   0  0  0  0  0  0  0  0  0  0  0  0
   -1.0611   -3.9956   -1.3370 H   0  0  0  0  0  0  0  0  0  0  0  0
   -1.0466   -2.1474   -1.3364 H   0  0  0  0  0  0  0  0  0  0  0  0
   -1.0504   -4.0216    1.0833 H   0  0  0  0  0  0  0  0  0  0  0  0
   -1.1730   -0.7751    0.6602 H   0  0  0  0  0  0  0  0  0  0  0  0
   -1.9409   -1.8605    2.0536 H   0  0  0  0  0  0  0  0  0  0  0  0
    0.0841   -0.9077    3.0397 H   0  0  0  0  0  0  0  0  0  0  0  0
    1.3934   -3.1952    1.4847 H   0  0  0  0  0  0  0  0  0  0  0  0
    2.0961   -2.2241    2.8919 H   0  0  0  0  0  0  0  0  0  0  0  0
   -2.0983   -0.0502   -1.3418 C   0  0  0  0  0  0  0  0  0  0  0  0
   -1.2928    0.2945   -0.0886 C   0  0  0  0  0  0  0  0  0  0  0  0
   -0.1386    1.2142   -0.3887 C   0  0  0  0  0  0  0  0  0  0  0  0
   -0.3020    2.5956   -0.3613 C   0  0  0  0  0  0  0  0  0  0  0  0
    0.7460    3.4447   -0.6816 C   0  0  0  0  0  0  0  0  0  0  0  0
    1.9806    2.9227   -1.0365 C   0  0  0  0  0  0  0  0  0  0  0  0
    2.1574    1.5478   -1.0670 C   0  0  0  0  0  0  0  0  0  0  0  0
    1.1055    0.7039   -0.7457 C   0  0  0  0  0  0  0  0  0  0  0  0
   -1.4673   -0.5429   -2.0839 H   0  0  0  0  0  0  0  0  0  0  0  0
   -2.5058    0.8528   -1.8003 H   0  0  0  0  0  0  0  0  0  0  0  0
   -2.9290   -0.7167   -1.1033 H   0  0  0  0  0  0  0  0  0  0  0  0
   -1.9499    0.7630    0.6480 H   0  0  0  0  0  0  0  0  0  0  0  0
   -1.2639    3.0114   -0.0816 H   0  0  0  0  0  0  0  0  0  0  0  0
    0.5991    4.5172   -0.6505 H   0  0  0  0  0  0  0  0  0  0  0  0
    2.8014    3.5838   -1.2842 H   0  0  0  0  0  0  0  0  0  0  0  0
    3.1191    1.1304   -1.3387 H   0  0  0  0  0  0  0  0  0  0  0  0
    1.2523   -0.3704   -0.7688 H   0  0  0  0  0  0  0  0  0  0  0  0
  1  2  2  3
  1  6  1  0
  1  7  1  0
  2  3  1  0
  2  8  1  0
  3  4  1  0
  3 10  1  0
  4  5  2  3
  4 11  1  0
  5 12  1  0
  5 13  1  0
  9 15  1  0
 14 15  1  0
 14 22  1  0
 14 23  1  0
 14 24  1  0
 15 16  1  0
 15 25  1  0
 16 17  2  0
 16 21  1  0
 17 18  1  0
 17 26  1  0
 18 19  2  0
 18 27  1  0
 19 20  1  0
 19 28  1  0
 20 21  2  0
 20 29  1  0
 21 30  1  0
M  RAD  1   3   2
M  END
>  <reaction>  (6) 
rxn_1140

>  <mol_properties>  (6) 
{"1": {"label": "*0", "atom_type": "Cd"}, "2": {"label": "*1", "atom_type": "Cs"}, "8": {"label": "*2", "atom_type": "H0"}, "14": {"label": "*3", "atom_type": "Cd"}, "15": {"label": "*4", "atom_type": "Cd"}}

>  <type>  (6) 
unop_2

>  <geom_source>  (6) 
Heuristics

$$$$

     RDKit          3D

 30 29  0  0  0  0  0  0  0  0999 V2000
    0.1732   -2.4985    0.0476 C   0  0  0  0  0  0  0  0  0  0  0  0
    0.1732   -2.4985    1.3709 C   0  0  0  0  0  0  0  0  0  0  0  0
    0.1732   -1.2726    2.2289 C   0  0  0  0  0  3  0  0  0  0  0  0
    1.3829   -1.1183    3.1101 C   0  0  0  0  0  0  0  0  0  0  0  0
    2.4941   -1.8340    3.0376 C   0  0  0  0  0  0  0  0  0  0  0  0
    0.1650   -3.4212   -0.5189 H   0  0  0  0  0  0  0  0  0  0  0  0
    0.1796   -1.5730   -0.5184 H   0  0  0  0  0  0  0  0  0  0  0  0
    0.1758   -3.4472    1.9014 H   0  0  0  0  0  0  0  0  0  0  0  0
    0.0531   -0.2007    1.4783 H   0  0  0  0  0  0  0  0  0  0  0  0
   -0.7148   -1.2861    2.8716 H   0  0  0  0  0  0  0  0  0  0  0  0
    1.3102   -0.3333    3.8578 H   0  0  0  0  0  0  0  0  0  0  0  0
    2.6196   -2.6208    2.3028 H   0  0  0  0  0  0  0  0  0  0  0  0
    3.3223   -1.6497    3.7100 H   0  0  0  0  0  0  0  0  0  0  0  0
   -0.7894    1.9623    1.5170 C   0  0  0  0  0  0  0  0  0  0  0  0
   -0.0667    0.8689    0.7295 C   0  0  0  0  0  0  0  0  0  0  0  0
   -0.3355    0.9602   -0.7496 C   0  0  0  0  0  0  0  0  0  0  0  0
    0.4700    1.7398   -1.5738 C   0  0  0  0  0  0  0  0  0  0  0  0
    0.1983    1.8627   -2.9276 C   0  0  0  0  0  0  0  0  0  0  0  0
   -0.8893    1.2046   -3.4815 C   0  0  0  0  0  0  0  0  0  0  0  0
   -1.6998    0.4237   -2.6716 C   0  0  0  0  0  0  0  0  0  0  0  0
   -1.4229    0.3047   -1.3184 C   0  0  0  0  0  0  0  0  0  0  0  0
   -1.8692    1.8937    1.3724 H   0  0  0  0  0  0  0  0  0  0  0  0
   -0.4727    2.9525    1.1840 H   0  0  0  0  0  0  0  0  0  0  0  0
   -0.5819    1.8787    2.5852 H   0  0  0  0  0  0  0  0  0  0  0  0
    1.0085    0.9421    0.9094 H   0  0  0  0  0  0  0  0  0  0  0  0
    1.3243    2.2550   -1.1484 H   0  0  0  0  0  0  0  0  0  0  0  0
    0.8399    2.4714   -3.5527 H   0  0  0  0  0  0  0  0  0  0  0  0
   -1.1018    1.2967   -4.5391 H   0  0  0  0  0  0  0  0  0  0  0  0
   -2.5490   -0.0979   -3.0955 H   0  0  0  0  0  0  0  0  0  0  0  0
   -2.0595   -0.3104   -0.6919 H   0  0  0  0  0  0  0  0  0  0  0  0
  1  2  2  3
  1  6  1  0
  1  7  1  0
  2  3  1  0
  2  8  1  0
  3  4  1  0
  3 10  1  0
  4  5  2  3
  4 11  1  0
  5 12  1  0
  5 13  1  0
  9 15  1  0
 14 15  1  0
 14 22  1  0
 14 23  1  0
 14 24  1  0
 15 16  1  0
 15 25  1  0
 16 17  2  0
 16 21  1  0
 17 18  1  0
 17 26  1  0
 18 19  2  0
 18 27  1  0
 19 20  1  0
 19 28  1  0
 20 21  2  0
 20 29  1  0
 21 30  1  0
M  RAD  1   3   2
M  END
>  <reaction>  (7) 
rxn_1140

>  <mol_properties>  (7) 
{"1": {"label": "*0", "atom_type": "Cd"}, "2": {"label": "*1", "atom_type": "Cs"}, "8": {"label": "*2", "atom_type": "H0"}, "14": {"label": "*3", "atom_type": "Cd"}, "15": {"label": "*4", "atom_type": "Cd"}}

>  <type>  (7) 
unop_3

>  <geom_source>  (7) 
Heuristics

$$$$

     RDKit          3D

 30 29  0  0  0  0  0  0  0  0999 V2000
   -0.5116   -2.9320   -2.1884 C   0  0  0  0  0  3  0  0  0  0  0  0
   -0.5116   -2.9320   -0.8652 C   0  0  0  0  0  0  0  0  0  0  0  0
   -0.5116   -1.7062   -0.0072 C   0  0  0  0  0  0  0  0  0  0  0  0
    0.6981   -1.5519    0.8740 C   0  0  0  0  0  0  0  0  0  0  0  0
    1.8092   -2.2676    0.8016 C   0  0  0  0  0  3  0  0  0  0  0  0
   -0.5198   -3.8548   -2.7550 H   0  0  0  0  0  0  0  0  0  0  0  0
   -0.5053   -2.0066   -2.7544 H   0  0  0  0  0  0  0  0  0  0  0  0
   -0.5091   -3.8808   -0.3347 H   0  0  0  0  0  0  0  0  0  0  0  0
   -0.6317   -0.6342   -0.7577 H   0  0  0  0  0  0  0  0  0  0  0  0
   -1.3996   -1.7197    0.6356 H   0  0  0  0  0  0  0  0  0  0  0  0
    0.6254   -0.7668    1.6217 H   0  0  0  0  0  0  0  0  0  0  0  0
    1.9347   -3.0544    0.0667 H   0  0  0  0  0  0  0  0  0  0  0  0
    2.6374   -2.0833    1.4739 H   0  0  0  0  0  0  0  0  0  0  0  0
    0.4212    0.5043   -2.4854 C   0  0  0  0  0  0  0  0  0  0  0  0
   -0.7515    0.4353   -1.5066 C   0  0  0  0  0  0  0  0  0  0  0  0
   -0.4546    1.1441   -0.2113 C   0  0  0  0  0  0  0  0  0  0  0  0
   -0.7314    2.4992   -0.0604 C   0  0  0  0  0  0  0  0  0  0  0  0
   -0.4173    3.1652    1.1142 C   0  0  0  0  0  0  0  0  0  0  0  0
    0.1821    2.4828    2.1619 C   0  0  0  0  0  0  0  0  0  0  0  0
    0.4627    1.1318    2.0251 C   0  0  0  0  0  0  0  0  0  0  0  0
    0.1462    0.4714    0.8481 C   0  0  0  0  0  3  0  0  0  0  0  0
    1.3126    0.0451   -2.0541 H   0  0  0  0  0  0  0  0  0  0  0  0
    0.6651    1.5411   -2.7243 H   0  0  0  0  0  0  0  0  0  0  0  0
    0.1862   -0.0144   -3.4164 H   0  0  0  0  0  0  0  0  0  0  0  0
   -1.6371    0.8776   -1.9691 H   0  0  0  0  0  0  0  0  0  0  0  0
   -1.2030    3.0389   -0.8744 H   0  0  0  0  0  0  0  0  0  0  0  0
   -0.6446    4.2194    1.2129 H   0  0  0  0  0  0  0  0  0  0  0  0
    0.4256    3.0001    3.0813 H   0  0  0  0  0  0  0  0  0  0  0  0
    0.9266    0.5890    2.8394 H   0  0  0  0  0  0  0  0  0  0  0  0
    0.3659   -0.5861    0.7496 H   0  0  0  0  0  0  0  0  0  0  0  0
  1  2  1  0
  1  6  1  0
  1  7  1  0
  2  3  2  3
  2  8  1  0
  3  4  1  0
  3 10  1  0
  4  5  1  0
  4 11  1  0
  4 30  1  0
  5 12  1  0
  5 13  1  0
  9 15  1  0
 14 15  1  0
 14 22  1  0
 14 23  1  0
 14 24  1  0
 15 16  1  0
 15 25  1  0
 16 17  2  0
 16 21  1  0
 17 18  1  0
 17 26  1  0
 18 19  2  0
 18 27  1  0
 19 20  1  0
 19 28  1  0
 20 21  2  0
 20 29  1  0
M  CHG  2   1   1   5  -1
M  RAD  1  21   2
M  END
>  <reaction>  (8) 
rxn_1140

>  <mol_properties>  (8) 
{"1": {"label": "*0", "atom_type": "Cd"}, "2": {"label": "*1", "atom_type": "Cs"}, "8": {"label": "*2", "atom_type": "H0"}, "14": {"label": "*3", "atom_type": "Cd"}, "15": {"label": "*4", "atom_type": "Cd"}}

>  <type>  (8) 
unop_4

>  <geom_source>  (8) 
Heuristics

$$$$

     RDKit          3D

 30 29  0  0  0  0  0  0  0  0999 V2000
    0.9580   -2.3416   -0.5261 C   0  0  0  0  0  0  0  0  0  0  0  0
    0.9580   -2.3416    0.7972 C   0  0  0  0  0  0  0  0  0  0  0  0
    0.9580   -1.1158    1.6552 C   0  0  0  0  0  3  0  0  0  0  0  0
    2.1677   -0.9614    2.5364 C   0  0  0  0  0  0  0  0  0  0  0  0
    3.2788   -1.6771    2.4640 C   0  0  0  0  0  0  0  0  0  0  0  0
    0.9498   -3.2643   -1.0926 H   0  0  0  0  0  0  0  0  0  0  0  0
    0.9643   -1.4161   -1.0920 H   0  0  0  0  0  0  0  0  0  0  0  0
    0.9605   -3.2903    1.3277 H   0  0  0  0  0  0  0  0  0  0  0  0
    0.8379   -0.0438    0.9046 H   0  0  0  0  0  0  0  0  0  0  0  0
    0.0700   -1.1292    2.2980 H   0  0  0  0  0  0  0  0  0  0  0  0
    2.0950   -0.1764    3.2841 H   0  0  0  0  0  0  0  0  0  0  0  0
    3.4043   -2.4639    1.7291 H   0  0  0  0  0  0  0  0  0  0  0  0
    4.1070   -1.4928    3.1363 H   0  0  0  0  0  0  0  0  0  0  0  0
    0.7194    2.2706    1.0438 C   0  0  0  0  0  0  0  0  0  0  0  0
    0.7181    1.0258    0.1558 C   0  0  0  0  0  0  0  0  0  0  0  0
   -0.5342    0.9197   -0.6742 C   0  0  0  0  0  0  0  0  0  0  0  0
   -0.6088    1.5120   -1.9310 C   0  0  0  0  0  0  0  0  0  0  0  0
   -1.7750    1.4556   -2.6783 C   0  0  0  0  0  0  0  0  0  0  0  0
   -2.8912    0.8027   -2.1777 C   0  0  0  0  0  0  0  0  0  0  0  0
   -2.8302    0.2074   -0.9269 C   0  0  0  0  0  0  0  0  0  0  0  0
   -1.6611    0.2672   -0.1843 C   0  0  0  0  0  0  0  0  0  0  0  0
   -0.1308    2.2585    1.7283 H   0  0  0  0  0  0  0  0  0  0  0  0
    0.6455    3.1768    0.4396 H   0  0  0  0  0  0  0  0  0  0  0  0
    1.6340    2.3289    1.6363 H   0  0  0  0  0  0  0  0  0  0  0  0
    1.5902    1.0480   -0.5020 H   0  0  0  0  0  0  0  0  0  0  0  0
    0.2612    2.0217   -2.3305 H   0  0  0  0  0  0  0  0  0  0  0  0
   -1.8112    1.9198   -3.6561 H   0  0  0  0  0  0  0  0  0  0  0  0
   -3.8021    0.7548   -2.7607 H   0  0  0  0  0  0  0  0  0  0  0  0
   -3.6952   -0.3088   -0.5290 H   0  0  0  0  0  0  0  0  0  0  0  0
   -1.6201   -0.2035    0.7919 H   0  0  0  0  0  0  0  0  0  0  0  0
  1  2  2  3
  1  6  1  0
  1  7  1  0
  2  3  1  0
  2  8  1  0
  3  4  1  0
  3 10  1  0
  4  5  2  3
  4 11  1  0
  5 12  1  0
  5 13  1  0
  9 15  1  0
 14 15  1  0
 14 22  1  0
 14 23  1  0
 14 24  1  0
 15 16  1  0
 15 25  1  0
 16 17  2  0
 16 21  1  0
 17 18  1  0
 17 26  1  0
 18 19  2  0
 18 27  1  0
 19 20  1  0
 19 28  1  0
 20 21  2  0
 20 29  1  0
 21 30  1  0
M  RAD  1   3   2
M  END
>  <reaction>  (9) 
rxn_1140

>  <mol_properties>  (9) 
{"1": {"label": "*0", "atom_type": "Cd"}, "2": {"label": "*1", "atom_type": "Cs"}, "8": {"label": "*2", "atom_type": "H0"}, "14": {"label": "*3", "atom_type": "Cd"}, "15": {"label": "*4", "atom_type": "Cd"}}

>  <type>  (9) 
unop_5

>  <geom_source>  (9) 
Heuristics

$$$$

     RDKit          3D

 30 28  0  0  0  0  0  0  0  0999 V2000
    0.0726   -2.7764   -2.3140 C   0  0  0  0  0  3  0  0  0  0  0  0
    0.0726   -2.7764   -0.9908 C   0  0  0  0  0  0  0  0  0  0  0  0
    0.0726   -1.5506   -0.1328 C   0  0  0  0  0  3  0  0  0  0  0  0
    1.2823   -1.3962    0.7484 C   0  0  0  0  0  3  0  0  0  0  0  0
    2.3934   -2.1119    0.6760 C   0  0  0  0  0  0  0  0  0  0  0  0
    0.0644   -3.6991   -2.8806 H   0  0  0  0  0  0  0  0  0  0  0  0
    0.0789   -1.8510   -2.8800 H   0  0  0  0  0  0  0  0  0  0  0  0
    0.0751   -3.7252   -0.4603 H   0  0  0  0  0  0  0  0  0  0  0  0
   -0.0475   -0.4786   -0.8833 H   0  0  0  0  0  0  0  0  0  0  0  0
   -0.8154   -1.5641    0.5100 H   0  0  0  0  0  0  0  0  0  0  0  0
    1.2096   -0.6112    1.4961 H   0  0  0  0  0  0  0  0  0  0  0  0
    2.5189   -2.8988   -0.0589 H   0  0  0  0  0  0  0  0  0  0  0  0
    3.2216   -1.9276    1.3483 H   0  0  0  0  0  0  0  0  0  0  0  0
    1.2216    1.0859   -2.0373 C   0  0  0  0  0  0  0  0  0  0  0  0
   -0.1673    0.5909   -1.6322 C   0  0  0  0  0  0  0  0  0  0  0  0
   -0.5653    1.0708   -0.2612 C   0  0  0  0  0  0  0  0  0  0  0  0
   -1.2223    2.2858   -0.0940 C   0  0  0  0  0  0  0  0  0  0  0  0
   -1.5493    2.7522    1.1699 C   0  0  0  0  0  0  0  0  0  0  0  0
   -1.2225    2.0069    2.2926 C   0  0  0  0  0  0  0  0  0  0  0  0
   -0.5685    0.7938    2.1402 C   0  0  0  0  0  0  0  0  0  0  0  0
   -0.2441    0.3327    0.8736 C   0  0  0  0  0  0  0  0  0  0  0  0
    1.9778    0.7360   -1.3321 H   0  0  0  0  0  0  0  0  0  0  0  0
    1.2561    2.1769   -2.0460 H   0  0  0  0  0  0  0  0  0  0  0  0
    1.4909    0.7277   -3.0324 H   0  0  0  0  0  0  0  0  0  0  0  0
   -0.9024    0.9320   -2.3650 H   0  0  0  0  0  0  0  0  0  0  0  0
   -1.4840    2.8728   -0.9676 H   0  0  0  0  0  0  0  0  0  0  0  0
   -2.0642    3.6988    1.2782 H   0  0  0  0  0  0  0  0  0  0  0  0
   -1.4795    2.3676    3.2804 H   0  0  0  0  0  0  0  0  0  0  0  0
   -0.3129    0.2022    3.0105 H   0  0  0  0  0  0  0  0  0  0  0  0
    0.2647   -0.6186    0.7622 H   0  0  0  0  0  0  0  0  0  0  0  0
  1  2  1  0
  1  6  1  0
  1  7  1  0
  2  3  2  3
  2  8  1  0
  3 10  1  0
  4  5  2  3
  4 11  1  0
  5 12  1  0
  5 13  1  0
  9 15  1  0
 14 15  1  0
 14 22  1  0
 14 23  1  0
 14 24  1  0
 15 16  1  0
 15 25  1  0
 16 17  2  0
 16 21  1  0
 17 18  1  0
 17 26  1  0
 18 19  2  0
 18 27  1  0
 19 20  1  0
 19 28  1  0
 20 21  2  0
 20 29  1  0
 21 30  1  0
M  CHG  2   1   1   3  -1
M  RAD  1   4   2
M  END
>  <reaction>  (10) 
rxn_1140

>  <mol_properties>  (10) 
{"1": {"label": "*0", "atom_type": "Cd"}, "2": {"label": "*1", "atom_type": "Cs"}, "8": {"label": "*2", "atom_type": "H0"}, "14": {"label": "*3", "atom_type": "Cd"}, "15": {"label": "*4", "atom_type": "Cd"}}

>  <type>  (10) 
unop_6

>  <geom_source>  (10) 
Heuristics

$$$$

     RDKit          3D

 30 28  0  0  0  0  0  0  0  0999 V2000
    0.6473   -2.5739   -2.1172 C   0  0  0  0  0  3  0  0  0  0  0  0
    0.6473   -2.5739   -0.7939 C   0  0  0  0  0  0  0  0  0  0  0  0
    0.6473   -1.3481    0.0641 C   0  0  0  0  0  3  0  0  0  0  0  0
    1.8571   -1.1937    0.9453 C   0  0  0  0  0  3  0  0  0  0  0  0
    2.9682   -1.9094    0.8728 C   0  0  0  0  0  0  0  0  0  0  0  0
    0.6392   -3.4966   -2.6837 H   0  0  0  0  0  0  0  0  0  0  0  0
    0.6537   -1.6484   -2.6832 H   0  0  0  0  0  0  0  0  0  0  0  0
    0.6499   -3.5226   -0.2634 H   0  0  0  0  0  0  0  0  0  0  0  0
    0.5273   -0.2761   -0.6865 H   0  0  0  0  0  0  0  0  0  0  0  0
   -0.2406   -1.3616    0.7068 H   0  0  0  0  0  0  0  0  0  0  0  0
    1.7844   -0.4087    1.6930 H   0  0  0  0  0  0  0  0  0  0  0  0
    3.0937   -2.6963    0.1380 H   0  0  0  0  0  0  0  0  0  0  0  0
    3.7964   -1.7251    1.5452 H   0  0  0  0  0  0  0  0  0  0  0  0
    1.6279    1.6928   -1.2359 C   0  0  0  0  0  0  0  0  0  0  0  0
    0.4074    0.7935   -1.4353 C   0  0  0  0  0  0  0  0  0  0  0  0
   -0.6290    0.9937   -0.3611 C   0  0  0  0  0  0  0  0  0  0  0  0
   -1.6248    1.9551   -0.5015 C   0  0  0  0  0  0  0  0  0  0  0  0
   -2.5528    2.1736    0.5049 C   0  0  0  0  0  0  0  0  0  0  0  0
   -2.4990    1.4302    1.6742 C   0  0  0  0  0  0  0  0  0  0  0  0
   -1.5121    0.4682    1.8269 C   0  0  0  0  0  0  0  0  0  0  0  0
   -0.5870    0.2543    0.8168 C   0  0  0  0  0  0  0  0  0  0  0  0
    2.1046    1.4906   -0.2749 H   0  0  0  0  0  0  0  0  0  0  0  0
    1.3389    2.7453   -1.2475 H   0  0  0  0  0  0  0  0  0  0  0  0
    2.3662    1.5326   -2.0236 H   0  0  0  0  0  0  0  0  0  0  0  0
   -0.0371    0.9961   -2.4126 H   0  0  0  0  0  0  0  0  0  0  0  0
   -1.6752    2.5383   -1.4145 H   0  0  0  0  0  0  0  0  0  0  0  0
   -3.3225    2.9242    0.3743 H   0  0  0  0  0  0  0  0  0  0  0  0
   -3.2244    1.5970    2.4604 H   0  0  0  0  0  0  0  0  0  0  0  0
   -1.4644   -0.1207    2.7345 H   0  0  0  0  0  0  0  0  0  0  0  0
    0.1801   -0.5020    0.9422 H   0  0  0  0  0  0  0  0  0  0  0  0
  1  2  1  0
  1  6  1  0
  1  7  1  0
  2  3  2  3
  2  8  1  0
  3 10  1  0
  4  5  2  3
  4 11  1  0
  5 12  1  0
  5 13  1  0
  9 15  1  0
 14 15  1  0
 14 22  1  0
 14 23  1  0
 14 24  1  0
 15 16  1  0
 15 25  1  0
 16 17  2  0
 16 21  1  0
 17 18  1  0
 17 26  1  0
 18 19  2  0
 18 27  1  0
 19 20  1  0
 19 28  1  0
 20 21  2  0
 20 29  1  0
 21 30  1  0
M  CHG  2   1   1   3  -1
M  RAD  1   4   2
M  END
>  <reaction>  (11) 
rxn_1140

>  <mol_properties>  (11) 
{"1": {"label": "*0", "atom_type": "Cd"}, "2": {"label": "*1", "atom_type": "Cs"}, "8": {"label": "*2", "atom_type": "H0"}, "14": {"label": "*3", "atom_type": "Cd"}, "15": {"label": "*4", "atom_type": "Cd"}}

>  <type>  (11) 
unop_7

>  <geom_source>  (11) 
Heuristics

$$$$

     RDKit          3D

 30 29  0  0  0  0  0  0  0  0999 V2000
   -0.7280   -2.9051   -0.2257 C   0  0  0  0  0  0  0  0  0  0  0  0
   -0.7280   -2.9051    1.0976 C   0  0  0  0  0  0  0  0  0  0  0  0
   -0.7280   -1.6793    1.9556 C   0  0  0  0  0  3  0  0  0  0  0  0
    0.4817   -1.5249    2.8368 C   0  0  0  0  0  0  0  0  0  0  0  0
    1.5929   -2.2406    2.7643 C   0  0  0  0  0  0  0  0  0  0  0  0
   -0.7362   -3.8278   -0.7922 H   0  0  0  0  0  0  0  0  0  0  0  0
   -0.7217   -1.9796   -0.7917 H   0  0  0  0  0  0  0  0  0  0  0  0
   -0.7254   -3.8538    1.6281 H   0  0  0  0  0  0  0  0  0  0  0  0
   -0.8481   -0.6073    1.2050 H   0  0  0  0  0  0  0  0  0  0  0  0
   -1.6160   -1.6928    2.5984 H   0  0  0  0  0  0  0  0  0  0  0  0
    0.4090   -0.7399    3.5845 H   0  0  0  0  0  0  0  0  0  0  0  0
    1.7183   -3.0275    2.0295 H   0  0  0  0  0  0  0  0  0  0  0  0
    2.4211   -2.0563    3.4367 H   0  0  0  0  0  0  0  0  0  0  0  0
   -2.4497    0.7964    0.2808 C   0  0  0  0  0  0  0  0  0  0  0  0
   -0.9679    0.4623    0.4562 C   0  0  0  0  0  0  0  0  0  0  0  0
   -0.1096    1.1088   -0.5990 C   0  0  0  0  0  0  0  0  0  0  0  0
    0.4116    2.3850   -0.4107 C   0  0  0  0  0  0  0  0  0  0  0  0
    1.1639    3.0015   -1.3986 C   0  0  0  0  0  0  0  0  0  0  0  0
    1.4079    2.3480   -2.5969 C   0  0  0  0  0  0  0  0  0  0  0  0
    0.8951    1.0754   -2.7974 C   0  0  0  0  0  0  0  0  0  0  0  0
    0.1436    0.4641   -1.8057 C   0  0  0  0  0  0  0  0  0  0  0  0
   -2.8102    0.4572   -0.6921 H   0  0  0  0  0  0  0  0  0  0  0  0
   -2.6124    1.8744    0.3370 H   0  0  0  0  0  0  0  0  0  0  0  0
   -3.0538    0.3190    1.0542 H   0  0  0  0  0  0  0  0  0  0  0  0
   -0.6367    0.7882    1.4451 H   0  0  0  0  0  0  0  0  0  0  0  0
    0.2276    2.9012    0.5252 H   0  0  0  0  0  0  0  0  0  0  0  0
    1.5638    3.9938   -1.2307 H   0  0  0  0  0  0  0  0  0  0  0  0
    1.9976    2.8262   -3.3687 H   0  0  0  0  0  0  0  0  0  0  0  0
    1.0839    0.5549   -3.7281 H   0  0  0  0  0  0  0  0  0  0  0  0
   -0.2516   -0.5327   -1.9686 H   0  0  0  0  0  0  0  0  0  0  0  0
  1  2  2  3
  1  6  1  0
  1  7  1  0
  2  3  1  0
  2  8  1  0
  3  4  1  0
  3 10  1  0
  4  5  2  3
  4 11  1  0
  5 12  1  0
  5 13  1  0
  9 15  1  0
 14 15  1  0
 14 22  1  0
 14 23  1  0
 14 24  1  0
 15 16  1  0
 15 25  1  0
 16 17  2  0
 16 21  1  0
 17 18  1  0
 17 26  1  0
 18 19  2  0
 18 27  1  0
 19 20  1  0
 19 28  1  0
 20 21  2  0
 20 29  1  0
 21 30  1  0
M  RAD  1   3   2
M  END
>  <reaction>  (12) 
rxn_1140

>  <mol_properties>  (12) 
{"1": {"label": "*0", "atom_type": "Cd"}, "2": {"label": "*1", "atom_type": "Cs"}, "8": {"label": "*2", "atom_type": "H0"}, "14": {"label": "*3", "atom_type": "Cd"}, "15": {"label": "*4", "atom_type": "Cd"}}

>  <type>  (12) 
unop_8

>  <geom_source>  (12) 
Heuristics

$$$$

     RDKit          3D

 30 29  0  0  0  0  0  0  0  0999 V2000
   -0.9611   -3.0262   -1.7811 C   0  0  0  0  0  0  0  0  0  0  0  0
   -0.9611   -3.0262   -0.4579 C   0  0  0  0  0  0  0  0  0  0  0  0
   -0.9611   -1.8004    0.4001 C   0  0  0  0  0  3  0  0  0  0  0  0
    0.2486   -1.6460    1.2813 C   0  0  0  0  0  0  0  0  0  0  0  0
    1.3597   -2.3617    1.2089 C   0  0  0  0  0  0  0  0  0  0  0  0
   -0.9693   -3.9489   -2.3477 H   0  0  0  0  0  0  0  0  0  0  0  0
   -0.9548   -2.1007   -2.3471 H   0  0  0  0  0  0  0  0  0  0  0  0
   -0.9586   -3.9749    0.0726 H   0  0  0  0  0  0  0  0  0  0  0  0
   -1.0812   -0.7284   -0.3504 H   0  0  0  0  0  0  0  0  0  0  0  0
   -1.8491   -1.8139    1.0429 H   0  0  0  0  0  0  0  0  0  0  0  0
    0.1759   -0.8610    2.0290 H   0  0  0  0  0  0  0  0  0  0  0  0
    1.4852   -3.1486    0.4740 H   0  0  0  0  0  0  0  0  0  0  0  0
    2.1879   -2.1774    1.8812 H   0  0  0  0  0  0  0  0  0  0  0  0
   -0.5712    0.0769   -2.4673 C   0  0  0  0  0  0  0  0  0  0  0  0
   -1.2010    0.3412   -1.0993 C   0  0  0  0  0  0  0  0  0  0  0  0
   -0.3239    1.1977   -0.2245 C   0  0  0  0  0  0  0  0  0  0  0  0
   -0.4196    2.5852   -0.2597 C   0  0  0  0  0  0  0  0  0  0  0  0
    0.4175    3.3780    0.5101 C   0  0  0  0  0  0  0  0  0  0  0  0
    1.3689    2.7924    1.3315 C   0  0  0  0  0  0  0  0  0  0  0  0
    1.4744    1.4106    1.3768 C   0  0  0  0  0  0  0  0  0  0  0  0
    0.6344    0.6232    0.6046 C   0  0  0  0  0  0  0  0  0  0  0  0
    0.3876   -0.4337   -2.3596 H   0  0  0  0  0  0  0  0  0  0  0  0
   -0.3900    1.0138   -2.9973 H   0  0  0  0  0  0  0  0  0  0  0  0
   -1.2215   -0.5447   -3.0852 H   0  0  0  0  0  0  0  0  0  0  0  0
   -2.1692    0.8293   -1.2335 H   0  0  0  0  0  0  0  0  0  0  0  0
   -1.1634    3.0505   -0.8974 H   0  0  0  0  0  0  0  0  0  0  0  0
    0.3242    4.4563    0.4711 H   0  0  0  0  0  0  0  0  0  0  0  0
    2.0217    3.4094    1.9358 H   0  0  0  0  0  0  0  0  0  0  0  0
    2.2112    0.9436    2.0185 H   0  0  0  0  0  0  0  0  0  0  0  0
    0.7208   -0.4571    0.6477 H   0  0  0  0  0  0  0  0  0  0  0  0
  1  2  2  3
  1  6  1  0
  1  7  1  0
  2  3  1  0
  2  8  1  0
  3  4  1  0
  3 10  1  0
  4  5  2  3
  4 11  1  0
  5 12  1  0
  5 13  1  0
  9 15  1  0
 14 15  1  0
 14 22  1  0
 14 23  1  0
 14 24  1  0
 15 16  1  0
 15 25  1  0
 16 17  2  0
 16 21  1  0
 17 18  1  0
 17 26  1  0
 18 19  2  0
 18 27  1  0
 19 20  1  0
 19 28  1  0
 20 21  2  0
 20 29  1  0
 21 30  1  0
M  RAD  1   3   2
M  END
>  <reaction>  (13) 
rxn_1140

>  <mol_properties>  (13) 
{"1": {"label": "*0", "atom_type": "Cd"}, "2": {"label": "*1", "atom_type": "Cs"}, "8": {"label": "*2", "atom_type": "H0"}, "14": {"label": "*3", "atom_type": "Cd"}, "15": {"label": "*4", "atom_type": "Cd"}}

>  <type>  (13) 
unop_9

>  <geom_source>  (13) 
Heuristics

$$$$

     RDKit          3D

 30 29  0  0  0  0  0  0  0  0999 V2000
   -0.9004   -3.0238   -0.4662 C   0  0  0  0  0  0  0  0  0  0  0  0
   -0.9004   -3.0238    0.8571 C   0  0  0  0  0  0  0  0  0  0  0  0
   -0.9004   -1.7980    1.7151 C   0  0  0  0  0  3  0  0  0  0  0  0
    0.3093   -1.6437    2.5963 C   0  0  0  0  0  0  0  0  0  0  0  0
    1.4205   -2.3594    2.5239 C   0  0  0  0  0  0  0  0  0  0  0  0
   -0.9086   -3.9466   -1.0327 H   0  0  0  0  0  0  0  0  0  0  0  0
   -0.8941   -2.0984   -1.0321 H   0  0  0  0  0  0  0  0  0  0  0  0
   -0.8978   -3.9726    1.3876 H   0  0  0  0  0  0  0  0  0  0  0  0
   -1.0205   -0.7261    0.9645 H   0  0  0  0  0  0  0  0  0  0  0  0
   -1.7884   -1.8115    2.3579 H   0  0  0  0  0  0  0  0  0  0  0  0
    0.2366   -0.8587    3.3440 H   0  0  0  0  0  0  0  0  0  0  0  0
    1.5459   -3.1462    1.7890 H   0  0  0  0  0  0  0  0  0  0  0  0
    2.2487   -2.1751    3.1962 H   0  0  0  0  0  0  0  0  0  0  0  0
   -2.4537    0.2733   -0.5642 C   0  0  0  0  0  0  0  0  0  0  0  0
   -1.1403    0.3435    0.2157 C   0  0  0  0  0  0  0  0  0  0  0  0
   -0.1019    1.1742   -0.4913 C   0  0  0  0  0  0  0  0  0  0  0  0
   -0.0164    2.5457   -0.2730 C   0  0  0  0  0  0  0  0  0  0  0  0
    0.9079    3.3207   -0.9562 C   0  0  0  0  0  0  0  0  0  0  0  0
    1.7656    2.7334   -1.8738 C   0  0  0  0  0  0  0  0  0  0  0  0
    1.6917    1.3674   -2.1004 C   0  0  0  0  0  0  0  0  0  0  0  0
    0.7653    0.5977   -1.4140 C   0  0  0  0  0  0  0  0  0  0  0  0
   -2.2947   -0.1658   -1.5509 H   0  0  0  0  0  0  0  0  0  0  0  0
   -2.8713    1.2714   -0.7091 H   0  0  0  0  0  0  0  0  0  0  0  0
   -3.1919   -0.3324   -0.0358 H   0  0  0  0  0  0  0  0  0  0  0  0
   -1.3286    0.7624    1.2071 H   0  0  0  0  0  0  0  0  0  0  0  0
   -0.6819    3.0117    0.4455 H   0  0  0  0  0  0  0  0  0  0  0  0
    0.9608    4.3861   -0.7690 H   0  0  0  0  0  0  0  0  0  0  0  0
    2.4902    3.3361   -2.4064 H   0  0  0  0  0  0  0  0  0  0  0  0
    2.3602    0.8985   -2.8117 H   0  0  0  0  0  0  0  0  0  0  0  0
    0.7155   -0.4707   -1.5942 H   0  0  0  0  0  0  0  0  0  0  0  0
  1  2  2  3
  1  6  1  0
  1  7  1  0
  2  3  1  0
  2  8  1  0
  3  4  1  0
  3 10  1  0
  4  5  2  3
  4 11  1  0
  5 12  1  0
  5 13  1  0
  9 15  1  0
 14 15  1  0
 14 22  1  0
 14 23  1  0
 14 24  1  0
 15 16  1  0
 15 25  1  0
 16 17  2  0
 16 21  1  0
 17 18  1  0
 17 26  1  0
 18 19  2  0
 18 27  1  0
 19 20  1  0
 19 28  1  0
 20 21  2  0
 20 29  1  0
 21 30  1  0
M  RAD  1   3   2
M  END
>  <reaction>  (14) 
rxn_1140

>  <mol_properties>  (14) 
{"1": {"label": "*0", "atom_type": "Cd"}, "2": {"label": "*1", "atom_type": "Cs"}, "8": {"label": "*2", "atom_type": "H0"}, "14": {"label": "*3", "atom_type": "Cd"}, "15": {"label": "*4", "atom_type": "Cd"}}

>  <type>  (14) 
unop_10

>  <geom_source>  (14) 
Heuristics

$$$$

     RDKit          3D

 30 29  0  0  0  0  0  0  0  0999 V2000
    1.0740   -2.3859   -1.5254 C   0  0  0  0  0  0  0  0  0  0  0  0
    1.0740   -2.3859   -0.2021 C   0  0  0  0  0  0  0  0  0  0  0  0
    1.0740   -1.1600    0.6559 C   0  0  0  0  0  3  0  0  0  0  0  0
    2.2837   -1.0057    1.5371 C   0  0  0  0  0  0  0  0  0  0  0  0
    3.3949   -1.7214    1.4646 C   0  0  0  0  0  0  0  0  0  0  0  0
    1.0658   -3.3086   -2.0919 H   0  0  0  0  0  0  0  0  0  0  0  0
    1.0803   -1.4604   -2.0914 H   0  0  0  0  0  0  0  0  0  0  0  0
    1.0766   -3.3346    0.3284 H   0  0  0  0  0  0  0  0  0  0  0  0
    0.9539   -0.0881   -0.0947 H   0  0  0  0  0  0  0  0  0  0  0  0
    0.1860   -1.1735    1.2986 H   0  0  0  0  0  0  0  0  0  0  0  0
    2.2110   -0.2207    2.2848 H   0  0  0  0  0  0  0  0  0  0  0  0
    3.5203   -2.5082    0.7298 H   0  0  0  0  0  0  0  0  0  0  0  0
    4.2231   -1.5371    2.1370 H   0  0  0  0  0  0  0  0  0  0  0  0
    1.5467    2.1553   -0.1708 C   0  0  0  0  0  0  0  0  0  0  0  0
    0.8341    0.9815   -0.8435 C   0  0  0  0  0  0  0  0  0  0  0  0
   -0.6321    0.9343   -0.5024 C   0  0  0  0  0  0  0  0  0  0  0  0
   -1.5657    1.6200   -1.2730 C   0  0  0  0  0  0  0  0  0  0  0  0
   -2.9103    1.6164   -0.9355 C   0  0  0  0  0  0  0  0  0  0  0  0
   -3.3447    0.9234    0.1842 C   0  0  0  0  0  0  0  0  0  0  0  0
   -2.4248    0.2351    0.9606 C   0  0  0  0  0  0  0  0  0  0  0  0
   -1.0816    0.2425    0.6179 C   0  0  0  0  0  0  0  0  0  0  0  0
    1.4620    2.0881    0.9154 H   0  0  0  0  0  0  0  0  0  0  0  0
    1.1048    3.1045   -0.4796 H   0  0  0  0  0  0  0  0  0  0  0  0
    2.6067    2.1716   -0.4303 H   0  0  0  0  0  0  0  0  0  0  0  0
    0.9537    1.0567   -1.9269 H   0  0  0  0  0  0  0  0  0  0  0  0
   -1.2340    2.1618   -2.1521 H   0  0  0  0  0  0  0  0  0  0  0  0
   -3.6216    2.1534   -1.5508 H   0  0  0  0  0  0  0  0  0  0  0  0
   -4.3946    0.9167    0.4481 H   0  0  0  0  0  0  0  0  0  0  0  0
   -2.7547   -0.3129    1.8345 H   0  0  0  0  0  0  0  0  0  0  0  0
   -0.3684   -0.3009    1.2282 H   0  0  0  0  0  0  0  0  0  0  0  0
  1  2  2  3
  1  6  1  0
  1  7  1  0
  2  3  1  0
  2  8  1  0
  3  4  1  0
  3 10  1  0
  4  5  2  3
  4 11  1  0
  5 12  1  0
  5 13  1  0
  9 15  1  0
 14 15  1  0
 14 22  1  0
 14 23  1  0
 14 24  1  0
 15 16  1  0
 15 25  1  0
 16 17  2  0
 16 21  1  0
 17 18  1  0
 17 26  1  0
 18 19  2  0
 18 27  1  0
 19 20  1  0
 19 28  1  0
 20 21  2  0
 20 29  1  0
 21 30  1  0
M  RAD  1   3   2
M  END
>  <reaction>  (15) 
rxn_1140

>  <mol_properties>  (15) 
{"1": {"label": "*0", "atom_type": "Cd"}, "2": {"label": "*1", "atom_type": "Cs"}, "8": {"label": "*2", "atom_type": "H0"}, "14": {"label": "*3", "atom_type": "Cd"}, "15": {"label": "*4", "atom_type": "Cd"}}

>  <type>  (15) 
unop_11

>  <geom_source>  (15) 
Heuristics

$$$$

     RDKit          3D

 30 29  0  0  0  0  0  0  0  0999 V2000
   -1.1324   -3.0700   -1.2321 C   0  0  0  0  0  0  0  0  0  0  0  0
   -1.1324   -3.0700    0.0912 C   0  0  0  0  0  0  0  0  0  0  0  0
   -1.1324   -1.8442    0.9492 C   0  0  0  0  0  3  0  0  0  0  0  0
    0.0773   -1.6899    1.8304 C   0  0  0  0  0  0  0  0  0  0  0  0
    1.1885   -2.4056    1.7579 C   0  0  0  0  0  0  0  0  0  0  0  0
   -1.1406   -3.9928   -1.7986 H   0  0  0  0  0  0  0  0  0  0  0  0
   -1.1261   -2.1446   -1.7981 H   0  0  0  0  0  0  0  0  0  0  0  0
   -1.1298   -4.0188    0.6217 H   0  0  0  0  0  0  0  0  0  0  0  0
   -1.2525   -0.7723    0.1986 H   0  0  0  0  0  0  0  0  0  0  0  0
   -2.0204   -1.8577    1.5919 H   0  0  0  0  0  0  0  0  0  0  0  0
    0.0046   -0.9049    2.5781 H   0  0  0  0  0  0  0  0  0  0  0  0
    1.3139   -3.1924    1.0231 H   0  0  0  0  0  0  0  0  0  0  0  0
    2.0167   -2.2213    2.4303 H   0  0  0  0  0  0  0  0  0  0  0  0
   -1.4665   -0.1184   -2.0187 C   0  0  0  0  0  0  0  0  0  0  0  0
   -1.3723    0.2973   -0.5502 C   0  0  0  0  0  0  0  0  0  0  0  0
   -0.2118    1.2223   -0.2936 C   0  0  0  0  0  0  0  0  0  0  0  0
   -0.3579    2.6005   -0.4164 C   0  0  0  0  0  0  0  0  0  0  0  0
    0.7193    3.4521   -0.2258 C   0  0  0  0  0  0  0  0  0  0  0  0
    1.9664    2.9360    0.0920 C   0  0  0  0  0  0  0  0  0  0  0  0
    2.1258    1.5644    0.2183 C   0  0  0  0  0  0  0  0  0  0  0  0
    1.0447    0.7179    0.0265 C   0  0  0  0  0  0  0  0  0  0  0  0
   -0.5572   -0.6335   -2.3340 H   0  0  0  0  0  0  0  0  0  0  0  0
   -1.5920    0.7554   -2.6608 H   0  0  0  0  0  0  0  0  0  0  0  0
   -2.3127   -0.7877   -2.1835 H   0  0  0  0  0  0  0  0  0  0  0  0
   -2.3018    0.7876   -0.2513 H   0  0  0  0  0  0  0  0  0  0  0  0
   -1.3310    3.0118   -0.6618 H   0  0  0  0  0  0  0  0  0  0  0  0
    0.5836    4.5222   -0.3223 H   0  0  0  0  0  0  0  0  0  0  0  0
    2.8084    3.5992    0.2442 H   0  0  0  0  0  0  0  0  0  0  0  0
    3.0948    1.1518    0.4707 H   0  0  0  0  0  0  0  0  0  0  0  0
    1.1765   -0.3536    0.1301 H   0  0  0  0  0  0  0  0  0  0  0  0
  1  2  2  3
  1  6  1  0
  1  7  1  0
  2  3  1  0
  2  8  1  0
  3  4  1  0
  3 10  1  0
  4  5  2  3
  4 11  1  0
  5 12  1  0
  5 13  1  0
  9 15  1  0
 14 15  1  0
 14 22  1  0
 14 23  1  0
 14 24  1  0
 15 16  1  0
 15 25  1  0
 16 17  2  0
 16 21  1  0
 17 18  1  0
 17 26  1  0
 18 19  2  0
 18 27  1  0
 19 20  1  0
 19 28  1  0
 20 21  2  0
 20 29  1  0
 21 30  1  0
M  RAD  1   3   2
M  END
>  <reaction>  (16) 
rxn_1140

>  <mol_properties>  (16) 
{"1": {"label": "*0", "atom_type": "Cd"}, "2": {"label": "*1", "atom_type": "Cs"}, "8": {"label": "*2", "atom_type": "H0"}, "14": {"label": "*3", "atom_type": "Cd"}, "15": {"label": "*4", "atom_type": "Cd"}}

>  <type>  (16) 
unop_12

>  <geom_source>  (16) 
Heuristics

$$$$

     RDKit          3D

 30 29  0  0  0  0  0  0  0  0999 V2000
   -0.2742   -0.6474   -0.2029 C   0  0  0  0  0  0  0  0  0  0  0  0
   -0.1959   -1.7070    0.8897 C   0  0  0  0  0  0  0  0  0  0  0  0
   -1.5597    0.1267   -0.1049 C   0  0  0  0  0  0  0  0  0  0  0  0
   -2.7152   -0.3288   -0.7617 C   0  0  0  0  0  0  0  0  0  0  0  0
   -1.6283    1.2843    0.6873 C   0  0  0  0  0  0  0  0  0  0  0  0
    2.1377    0.4726   -0.2891 C   0  0  0  0  0  3  0  0  0  0  0  0
   -3.9162    0.3779   -0.6441 C   0  0  0  0  0  0  0  0  0  0  0  0
   -3.9739    1.5364    0.1357 C   0  0  0  0  0  0  0  0  0  0  0  0
   -2.8314    1.9880    0.8023 C   0  0  0  0  0  0  0  0  0  0  0  0
    1.8650   -0.5455   -1.3566 C   0  0  0  0  0  0  0  0  0  0  0  0
    3.0650   -0.0563    0.7655 C   0  0  0  0  0  0  0  0  0  0  0  0
    2.7771   -0.8487   -2.2844 C   0  0  0  0  0  0  0  0  0  0  0  0
    3.2471    0.6149    1.9034 C   0  0  0  0  0  0  0  0  0  0  0  0
   -0.1974   -1.1378   -1.1978 H   0  0  0  0  0  0  0  0  0  0  0  0
    0.7575    0.1723   -0.0841 H   0  0  0  0  0  0  0  0  0  0  0  0
    0.7619   -2.2606    0.7993 H   0  0  0  0  0  0  0  0  0  0  0  0
   -0.2369   -1.2287    1.8914 H   0  0  0  0  0  0  0  0  0  0  0  0
   -1.0360   -2.4273    0.7906 H   0  0  0  0  0  0  0  0  0  0  0  0
   -2.6854   -1.2296   -1.3621 H   0  0  0  0  0  0  0  0  0  0  0  0
   -4.8030    0.0256   -1.1549 H   0  0  0  0  0  0  0  0  0  0  0  0
   -0.7528    1.6399    1.2162 H   0  0  0  0  0  0  0  0  0  0  0  0
   -4.9045    2.0816    0.2267 H   0  0  0  0  0  0  0  0  0  0  0  0
   -2.8788    2.8818    1.4109 H   0  0  0  0  0  0  0  0  0  0  0  0
    2.5251    1.4184   -0.7259 H   0  0  0  0  0  0  0  0  0  0  0  0
    0.8996   -1.0409   -1.3725 H   0  0  0  0  0  0  0  0  0  0  0  0
    3.6030   -0.9877    0.6086 H   0  0  0  0  0  0  0  0  0  0  0  0
    3.7492   -0.3648   -2.2898 H   0  0  0  0  0  0  0  0  0  0  0  0
    2.5520   -1.5880   -3.0461 H   0  0  0  0  0  0  0  0  0  0  0  0
    2.7272    1.5502    2.0892 H   0  0  0  0  0  0  0  0  0  0  0  0
    3.9223    0.2285    2.6601 H   0  0  0  0  0  0  0  0  0  0  0  0
  1  2  1  0
  1  3  1  0
  1 14  1  0
  1 15  1  0
  2 16  1  0
  2 17  1  0
  2 18  1  0
  3  4  2  0
  3  5  1  0
  4  7  1  0
  4 19  1  0
  5  9  2  0
  5 21  1  0
  6 10  1  0
  6 11  1  0
  6 24  1  0
  7  8  2  0
  7 20  1  0
  8  9  1  0
  8 22  1  0
  9 23  1  0
 10 12  2  3
 10 25  1  0
 11 13  2  3
 11 26  1  0
 12 27  1  0
 12 28  1  0
 13 29  1  0
 13 30  1  0
M  RAD  1   6   2
M  END
>  <reaction>  (17) 
rxn_1140

>  <mol_properties>  (17) 
{"1": {"label": "*0", "atom_type": "Cd"}, "2": {"label": "*1", "atom_type": "Cs"}, "8": {"label": "*2", "atom_type": "H0"}, "14": {"label": "*3", "atom_type": "Cd"}, "15": {"label": "*4", "atom_type": "Cd"}}

>  <type>  (17) 
unop_13

>  <geom_source>  (17) 
AutoTST

$$$$

     RDKit          3D

 30 29  0  0  0  0  0  0  0  0999 V2000
   -1.0530   -3.0729   -0.7704 C   0  0  0  0  0  0  0  0  0  0  0  0
   -1.0530   -3.0729    0.5528 C   0  0  0  0  0  0  0  0  0  0  0  0
   -1.0530   -1.8471    1.4108 C   0  0  0  0  0  3  0  0  0  0  0  0
    0.1568   -1.6927    2.2920 C   0  0  0  0  0  0  0  0  0  0  0  0
    1.2679   -2.4084    2.2196 C   0  0  0  0  0  0  0  0  0  0  0  0
   -1.0611   -3.9956   -1.3370 H   0  0  0  0  0  0  0  0  0  0  0  0
   -1.0466   -2.1474   -1.3364 H   0  0  0  0  0  0  0  0  0  0  0  0
   -1.0504   -4.0216    1.0833 H   0  0  0  0  0  0  0  0  0  0  0  0
   -1.1730   -0.7751    0.6603 H   0  0  0  0  0  0  0  0  0  0  0  0
   -1.9409   -1.8605    2.0536 H   0  0  0  0  0  0  0  0  0  0  0  0
    0.0841   -0.9077    3.0397 H   0  0  0  0  0  0  0  0  0  0  0  0
    1.3934   -3.1953    1.4847 H   0  0  0  0  0  0  0  0  0  0  0  0
    2.0961   -2.2241    2.8919 H   0  0  0  0  0  0  0  0  0  0  0  0
   -2.0983   -0.0502   -1.3418 C   0  0  0  0  0  0  0  0  0  0  0  0
   -1.2928    0.2945   -0.0886 C   0  0  0  0  0  0  0  0  0  0  0  0
   -0.1386    1.2142   -0.3886 C   0  0  0  0  0  0  0  0  0  0  0  0
   -0.3020    2.5957   -0.3613 C   0  0  0  0  0  0  0  0  0  0  0  0
    0.7460    3.4447   -0.6816 C   0  0  0  0  0  0  0  0  0  0  0  0
    1.9806    2.9227   -1.0365 C   0  0  0  0  0  0  0  0  0  0  0  0
    2.1574    1.5478   -1.0670 C   0  0  0  0  0  0  0  0  0  0  0  0
    1.1055    0.7039   -0.7457 C   0  0  0  0  0  0  0  0  0  0  0  0
   -1.4673   -0.5429   -2.0839 H   0  0  0  0  0  0  0  0  0  0  0  0
   -2.5057    0.8528   -1.8003 H   0  0  0  0  0  0  0  0  0  0  0  0
   -2.9290   -0.7167   -1.1033 H   0  0  0  0  0  0  0  0  0  0  0  0
   -1.9499    0.7630    0.6480 H   0  0  0  0  0  0  0  0  0  0  0  0
   -1.2639    3.0114   -0.0816 H   0  0  0  0  0  0  0  0  0  0  0  0
    0.5991    4.5172   -0.6504 H   0  0  0  0  0  0  0  0  0  0  0  0
    2.8014    3.5838   -1.2842 H   0  0  0  0  0  0  0  0  0  0  0  0
    3.1191    1.1304   -1.3387 H   0  0  0  0  0  0  0  0  0  0  0  0
    1.2523   -0.3704   -0.7688 H   0  0  0  0  0  0  0  0  0  0  0  0
  1  2  2  3
  1  6  1  0
  1  7  1  0
  2  3  1  0
  2  8  1  0
  3  4  1  0
  3 10  1  0
  4  5  2  3
  4 11  1  0
  5 12  1  0
  5 13  1  0
  9 15  1  0
 14 15  1  0
 14 22  1  0
 14 23  1  0
 14 24  1  0
 15 16  1  0
 15 25  1  0
 16 17  2  0
 16 21  1  0
 17 18  1  0
 17 26  1  0
 18 19  2  0
 18 27  1  0
 19 20  1  0
 19 28  1  0
 20 21  2  0
 20 29  1  0
 21 30  1  0
M  RAD  1   3   2
M  END
>  <reaction>  (18) 
rxn_1140

>  <mol_properties>  (18) 
{"1": {"label": "*0", "atom_type": "Cd"}, "2": {"label": "*1", "atom_type": "Cs"}, "8": {"label": "*2", "atom_type": "H0"}, "14": {"label": "*3", "atom_type": "Cd"}, "15": {"label": "*4", "atom_type": "Cd"}}

>  <type>  (18) 
unop_14

>  <geom_source>  (18) 
gaussian_log

$$$$
