
     RDKit          3D

  9  8  0  0  0  0  0  0  0  0999 V2000
   -2.1022   -0.6873    0.3932 C   0  0  0  0  0  0  0  0  0  0  0  0
   -1.2072   -0.1086   -0.1482 C   0  0  0  0  0  0  0  0  0  0  0  0
   -0.1242    0.6105   -0.8193 C   0  0  0  0  0  0  0  0  0  0  0  0
    1.2067    0.1106   -0.4741 C   0  0  0  0  0  0  0  0  0  0  0  0
    2.3005   -0.2875   -0.2012 C   0  0  0  0  0  0  0  0  0  0  0  0
   -2.8942   -1.2059    0.8778 H   0  0  0  0  0  0  0  0  0  0  0  0
   -0.1862    1.6723   -0.5649 H   0  0  0  0  0  0  0  0  0  0  0  0
   -0.2641    0.5418   -1.9017 H   0  0  0  0  0  0  0  0  0  0  0  0
    3.2709   -0.6459    0.0455 H   0  0  0  0  0  0  0  0  0  0  0  0
  1  2  3  0
  1  6  1  0
  2  3  1  0
  3  4  1  0
  3  7  1  0
  3  8  1  0
  4  5  3  0
  5  9  1  0
M  END
>  <reaction>  (1) 
rxn_1374

>  <mol_properties>  (1) 
{"2": {"label": "donator", "atom_type": "Cs"}, "6": {"label": "d_hydrogen", "atom_type": "H0"}}

>  <type>  (1) 
r1h

$$$$

     RDKit          3D

  7  6  0  0  0  0  0  0  0  0999 V2000
   -1.3496    0.0255    0.0758 C   0  0  0  0  0  0  0  0  0  0  0  0
   -0.0636   -0.0704   -0.0033 C   0  0  0  0  0  0  0  0  0  0  0  0
    1.2597   -0.1602   -0.0839 C   0  0  0  0  0  0  0  0  0  0  0  0
    2.2616    1.2090   -0.0064 S   0  0  0  0  0  1  0  0  0  0  0  0
   -1.8547   -0.0180    1.0345 H   0  0  0  0  0  0  0  0  0  0  0  0
   -1.9552    0.1601   -0.8138 H   0  0  0  0  0  0  0  0  0  0  0  0
    1.7017   -1.1460   -0.2029 H   0  0  0  0  0  0  0  0  0  0  0  0
  1  2  2  0
  1  5  1  0
  1  6  1  0
  2  3  2  0
  3  4  1  0
  3  7  1  0
M  RAD  1   4   2
M  END
>  <reaction>  (2) 
rxn_1374

>  <mol_properties>  (2) 
{"1": {"label": "acceptor", "atom_type": "Cd"}}

>  <type>  (2) 
r2

$$$$

     RDKit          3D

  8  7  0  0  0  0  0  0  0  0999 V2000
   -1.1617    0.0338    0.5053 C   0  0  0  0  0  0  0  0  0  0  0  0
   -0.1023    0.4503   -0.1863 C   0  0  0  0  0  0  0  0  0  0  0  0
    1.0978   -0.3557   -0.3104 C   0  0  0  0  0  0  0  0  0  0  0  0
    2.4251    0.0667   -1.1256 S   0  0  0  0  0  0  0  0  0  0  0  0
   -1.1653   -0.9292    1.0039 H   0  0  0  0  0  0  0  0  0  0  0  0
   -2.0546    0.6389    0.5948 H   0  0  0  0  0  0  0  0  0  0  0  0
   -0.0991    1.4132   -0.6847 H   0  0  0  0  0  0  0  0  0  0  0  0
    1.0601   -1.3180    0.2032 H   0  0  0  0  0  0  0  0  0  0  0  0
  1  2  2  3
  1  5  1  0
  1  6  1  0
  2  3  1  0
  2  7  1  0
  3  4  2  0
  3  8  1  0
M  END
>  <reaction>  (3) 
rxn_1374

>  <mol_properties>  (3) 
{"0": {"label": "a_hydrogen", "atom_type": "H0"}, "2": {"label": "acceptor", "atom_type": "Cd"}}

>  <type>  (3) 
r2h

$$$$

     RDKit          3D

 16 14  0  0  0  0  0  0  0  0999 V2000
   -0.3880   -0.6864   -3.5174 C   0  0  0  0  0  0  0  0  0  0  0  0
   -0.4608   -0.8143   -2.3266 C   0  0  0  0  0  0  0  0  0  0  0  0
   -0.4955   -0.9391   -0.9018 C   0  0  0  0  0  0  0  0  0  0  0  0
   -1.7265   -0.6627   -0.2281 C   0  0  0  0  0  0  0  0  0  0  0  0
   -2.7159   -0.3850    0.3903 C   0  0  0  0  0  0  0  0  0  0  0  0
   -0.3409   -0.5846   -4.5752 H   0  0  0  0  0  0  0  0  0  0  0  0
    0.3113    0.0004   -0.4426 H   0  0  0  0  0  0  0  0  0  0  0  0
    0.0229   -1.8192   -0.5226 H   0  0  0  0  0  0  0  0  0  0  0  0
   -3.6054   -0.1574    0.9273 H   0  0  0  0  0  0  0  0  0  0  0  0
    2.0127    1.2601   -0.9689 C   0  0  0  0  0  0  0  0  0  0  0  0
    1.2173    0.8934    0.0056 C   0  0  0  0  0  0  0  0  0  0  0  0
    0.9921    1.0795    1.3888 C   0  0  0  0  0  0  0  0  0  0  0  0
    1.3790   -0.0180    2.5351 S   0  0  0  0  0  1  0  0  0  0  0  0
    2.8613    1.9128   -0.7905 H   0  0  0  0  0  0  0  0  0  0  0  0
    1.8525    0.9072   -1.9817 H   0  0  0  0  0  0  0  0  0  0  0  0
    0.4445    1.9815    1.6637 H   0  0  0  0  0  0  0  0  0  0  0  0
  1  2  3  0
  1  6  1  0
  2  3  1  0
  3  4  1  0
  3  7  1  0
  3  8  1  0
  4  5  3  0
  5  9  1  0
 10 11  2  0
 10 14  1  0
 10 15  1  0
 11 12  2  0
 12 13  1  0
 12 16  1  0
M  RAD  1  13   2
M  END
>  <reaction>  (4) 
rxn_1374

>  <mol_properties>  (4) 
{"1": {"label": "*0", "atom_type": "Ct"}, "2": {"label": "*1", "atom_type": "Cs"}, "6": {"label": "*2", "atom_type": "H0"}, "10": {"label": "*3", "atom_type": "Cdd"}, "11": {"label": "*4", "atom_type": "Cd"}}

>  <type>  (4) 
ts

$$$$

     RDKit          3D

 16 14  0  0  0  0  0  0  0  0999 V2000
   -1.0378   -0.5686   -2.8667 C   0  0  0  0  0  0  0  0  0  0  0  0
   -1.0378   -0.5686   -1.6712 C   0  0  0  0  0  0  0  0  0  0  0  0
   -1.0378   -0.5686   -0.2082 C   0  0  0  0  0  3  0  0  0  0  0  0
   -2.3518   -0.2930    0.3730 C   0  0  0  0  0  0  0  0  0  0  0  0
   -3.4256   -0.0678    0.8479 C   0  0  0  0  0  0  0  0  0  0  0  0
   -1.0378   -0.5686   -3.9301 H   0  0  0  0  0  0  0  0  0  0  0  0
   -0.1797    0.3258    0.2229 H   0  0  0  0  0  0  0  0  0  0  0  0
   -0.6824   -1.5385    0.1510 H   0  0  0  0  0  0  0  0  0  0  0  0
   -4.3808    0.1325    1.2704 H   0  0  0  0  0  0  0  0  0  0  0  0
    0.2820    2.2313    1.4149 C   0  0  0  0  0  0  0  0  0  0  0  0
    0.6712    1.2125    0.6502 C   0  0  0  0  0  0  0  0  0  0  0  0
    1.8534    0.4299    0.9586 C   0  0  0  0  0  0  0  0  0  0  0  0
    2.3987   -0.8175    0.0919 S   0  0  0  0  0  0  0  0  0  0  0  0
    0.8385    2.5143    2.3015 H   0  0  0  0  0  0  0  0  0  0  0  0
   -0.6008    2.8119    1.1804 H   0  0  0  0  0  0  0  0  0  0  0  0
    2.3893    0.7416    1.8570 H   0  0  0  0  0  0  0  0  0  0  0  0
  1  2  3  0
  1  6  1  0
  2  3  1  0
  3  4  1  0
  3  8  1  0
  4  5  3  0
  5  9  1  0
  7 11  1  0
 10 11  2  3
 10 14  1  0
 10 15  1  0
 11 12  1  0
 12 13  2  0
 12 16  1  0
M  RAD  1   3   2
M  END
>  <reaction>  (5) 
rxn_1374

>  <mol_properties>  (5) 
{"1": {"label": "*0", "atom_type": "Ct"}, "2": {"label": "*1", "atom_type": "Cs"}, "6": {"label": "*2", "atom_type": "H0"}, "10": {"label": "*3", "atom_type": "Cdd"}, "11": {"label": "*4", "atom_type": "Cd"}}

>  <type>  (5) 
unop_1

>  <geom_source>  (5) 
Heuristics

$$$$

     RDKit          3D

 16 14  0  0  0  0  0  0  0  0999 V2000
   -0.6276   -0.7982   -3.4939 C   0  0  0  0  0  0  0  0  0  0  0  0
   -0.6276   -0.7982   -2.2984 C   0  0  0  0  0  0  0  0  0  0  0  0
   -0.6276   -0.7982   -0.8354 C   0  0  0  0  0  3  0  0  0  0  0  0
   -1.9417   -0.5226   -0.2542 C   0  0  0  0  0  0  0  0  0  0  0  0
   -3.0154   -0.2973    0.2207 C   0  0  0  0  0  0  0  0  0  0  0  0
   -0.6276   -0.7982   -4.5574 H   0  0  0  0  0  0  0  0  0  0  0  0
    0.2305    0.0962   -0.4043 H   0  0  0  0  0  0  0  0  0  0  0  0
   -0.2723   -1.7680   -0.4762 H   0  0  0  0  0  0  0  0  0  0  0  0
   -3.9706   -0.0970    0.6431 H   0  0  0  0  0  0  0  0  0  0  0  0
    1.3466    2.0818   -0.6815 C   0  0  0  0  0  0  0  0  0  0  0  0
    1.0813    0.9830    0.0230 C   0  0  0  0  0  0  0  0  0  0  0  0
    1.4066    0.8789    1.4332 C   0  0  0  0  0  0  0  0  0  0  0  0
    1.1230   -0.4091    2.3635 S   0  0  0  0  0  0  0  0  0  0  0  0
    1.8184    2.9440   -0.2232 H   0  0  0  0  0  0  0  0  0  0  0  0
    1.1018    2.1544   -1.7332 H   0  0  0  0  0  0  0  0  0  0  0  0
    1.8802    1.7639    1.8621 H   0  0  0  0  0  0  0  0  0  0  0  0
  1  2  3  0
  1  6  1  0
  2  3  1  0
  3  4  1  0
  3  8  1  0
  4  5  3  0
  5  9  1  0
  7 11  1  0
 10 11  2  3
 10 14  1  0
 10 15  1  0
 11 12  1  0
 12 13  2  0
 12 16  1  0
M  RAD  1   3   2
M  END
>  <reaction>  (6) 
rxn_1374

>  <mol_properties>  (6) 
{"1": {"label": "*0", "atom_type": "Ct"}, "2": {"label": "*1", "atom_type": "Cs"}, "6": {"label": "*2", "atom_type": "H0"}, "10": {"label": "*3", "atom_type": "Cdd"}, "11": {"label": "*4", "atom_type": "Cd"}}

>  <type>  (6) 
unop_2

>  <geom_source>  (6) 
Heuristics

$$$$

     RDKit          3D

 16 14  0  0  0  0  0  0  0  0999 V2000
   -1.0538   -0.7687   -2.5303 C   0  0  0  0  0  0  0  0  0  0  0  0
   -1.0538   -0.7687   -1.3348 C   0  0  0  0  0  0  0  0  0  0  0  0
   -1.0538   -0.7687    0.1282 C   0  0  0  0  0  3  0  0  0  0  0  0
   -2.3678   -0.4931    0.7093 C   0  0  0  0  0  0  0  0  0  0  0  0
   -3.4416   -0.2679    1.1842 C   0  0  0  0  0  0  0  0  0  0  0  0
   -1.0538   -0.7687   -3.5938 H   0  0  0  0  0  0  0  0  0  0  0  0
   -0.1957    0.1257    0.5592 H   0  0  0  0  0  0  0  0  0  0  0  0
   -0.6985   -1.7385    0.4873 H   0  0  0  0  0  0  0  0  0  0  0  0
   -4.3968   -0.0675    1.6067 H   0  0  0  0  0  0  0  0  0  0  0  0
    0.4719    1.6439    2.1449 C   0  0  0  0  0  0  0  0  0  0  0  0
    0.6551    1.0125    0.9865 C   0  0  0  0  0  0  0  0  0  0  0  0
    1.9740    0.6175    0.5286 C   0  0  0  0  0  0  0  0  0  0  0  0
    2.2901   -0.1486   -0.8563 S   0  0  0  0  0  0  0  0  0  0  0  0
    1.3075    1.8871    2.7918 H   0  0  0  0  0  0  0  0  0  0  0  0
   -0.5141    1.9363    2.4820 H   0  0  0  0  0  0  0  0  0  0  0  0
    2.7917    0.8775    1.2033 H   0  0  0  0  0  0  0  0  0  0  0  0
  1  2  3  0
  1  6  1  0
  2  3  1  0
  3  4  1  0
  3  8  1  0
  4  5  3  0
  5  9  1  0
  7 11  1  0
 10 11  2  3
 10 14  1  0
 10 15  1  0
 11 12  1  0
 12 13  2  0
 12 16  1  0
M  RAD  1   3   2
M  END
>  <reaction>  (7) 
rxn_1374

>  <mol_properties>  (7) 
{"1": {"label": "*0", "atom_type": "Ct"}, "2": {"label": "*1", "atom_type": "Cs"}, "6": {"label": "*2", "atom_type": "H0"}, "10": {"label": "*3", "atom_type": "Cdd"}, "11": {"label": "*4", "atom_type": "Cd"}}

>  <type>  (7) 
unop_3

>  <geom_source>  (7) 
Heuristics

$$$$

     RDKit          3D

 16 14  0  0  0  0  0  0  0  0999 V2000
   -0.1860   -1.2183   -3.3792 C   0  0  0  0  0  0  0  0  0  0  0  0
   -0.1860   -1.2183   -2.1837 C   0  0  0  0  0  0  0  0  0  0  0  0
   -0.1860   -1.2183   -0.7207 C   0  0  0  0  0  3  0  0  0  0  0  0
   -1.5000   -0.9427   -0.1395 C   0  0  0  0  0  0  0  0  0  0  0  0
   -2.5738   -0.7174    0.3354 C   0  0  0  0  0  0  0  0  0  0  0  0
   -0.1860   -1.2183   -4.4427 H   0  0  0  0  0  0  0  0  0  0  0  0
    0.6722   -0.3239   -0.2897 H   0  0  0  0  0  0  0  0  0  0  0  0
    0.1694   -2.1881   -0.3615 H   0  0  0  0  0  0  0  0  0  0  0  0
   -3.5290   -0.5171    0.7578 H   0  0  0  0  0  0  0  0  0  0  0  0
    2.8159    0.4861   -0.1731 C   0  0  0  0  0  0  0  0  0  0  0  0
    1.5230    0.5629    0.1377 C   0  0  0  0  0  0  0  0  0  0  0  0
    1.0694    1.1113    1.4021 C   0  0  0  0  0  0  0  0  0  0  0  0
   -0.4718    1.2435    1.8625 S   0  0  0  0  0  0  0  0  0  0  0  0
    3.5811    0.8330    0.5124 H   0  0  0  0  0  0  0  0  0  0  0  0
    3.1490    0.0761   -1.1177 H   0  0  0  0  0  0  0  0  0  0  0  0
    1.8652    1.4507    2.0676 H   0  0  0  0  0  0  0  0  0  0  0  0
  1  2  3  0
  1  6  1  0
  2  3  1  0
  3  4  1  0
  3  8  1  0
  4  5  3  0
  5  9  1  0
  7 11  1  0
 10 11  2  3
 10 14  1  0
 10 15  1  0
 11 12  1  0
 12 13  2  0
 12 16  1  0
M  RAD  1   3   2
M  END
>  <reaction>  (8) 
rxn_1374

>  <mol_properties>  (8) 
{"1": {"label": "*0", "atom_type": "Ct"}, "2": {"label": "*1", "atom_type": "Cs"}, "6": {"label": "*2", "atom_type": "H0"}, "10": {"label": "*3", "atom_type": "Cdd"}, "11": {"label": "*4", "atom_type": "Cd"}}

>  <type>  (8) 
unop_4

>  <geom_source>  (8) 
Heuristics

$$$$

     RDKit          3D

 16 14  0  0  0  0  0  0  0  0999 V2000
   -0.7811   -1.2472   -2.3111 C   0  0  0  0  0  0  0  0  0  0  0  0
   -0.7811   -1.2472   -1.1156 C   0  0  0  0  0  0  0  0  0  0  0  0
   -0.7811   -1.2472    0.3474 C   0  0  0  0  0  3  0  0  0  0  0  0
   -2.0951   -0.9716    0.9285 C   0  0  0  0  0  0  0  0  0  0  0  0
   -3.1689   -0.7464    1.4034 C   0  0  0  0  0  0  0  0  0  0  0  0
   -0.7811   -1.2472   -3.3746 H   0  0  0  0  0  0  0  0  0  0  0  0
    0.0770   -0.3528    0.7784 H   0  0  0  0  0  0  0  0  0  0  0  0
   -0.4257   -2.2171    0.7066 H   0  0  0  0  0  0  0  0  0  0  0  0
   -4.1241   -0.5461    1.8259 H   0  0  0  0  0  0  0  0  0  0  0  0
    1.1208    0.7350    2.5082 C   0  0  0  0  0  0  0  0  0  0  0  0
    0.9279    0.5339    1.2058 C   0  0  0  0  0  0  0  0  0  0  0  0
    1.6506    1.2873    0.1981 C   0  0  0  0  0  0  0  0  0  0  0  0
    1.4822    1.1117   -1.3974 S   0  0  0  0  0  0  0  0  0  0  0  0
    1.8298    1.4740    2.8648 H   0  0  0  0  0  0  0  0  0  0  0  0
    0.5790    0.1703    3.2559 H   0  0  0  0  0  0  0  0  0  0  0  0
    2.3555    2.0220    0.5914 H   0  0  0  0  0  0  0  0  0  0  0  0
  1  2  3  0
  1  6  1  0
  2  3  1  0
  3  4  1  0
  3  8  1  0
  4  5  3  0
  5  9  1  0
  7 11  1  0
 10 11  2  3
 10 14  1  0
 10 15  1  0
 11 12  1  0
 12 13  2  0
 12 16  1  0
M  RAD  1   3   2
M  END
>  <reaction>  (9) 
rxn_1374

>  <mol_properties>  (9) 
{"1": {"label": "*0", "atom_type": "Ct"}, "2": {"label": "*1", "atom_type": "Cs"}, "6": {"label": "*2", "atom_type": "H0"}, "10": {"label": "*3", "atom_type": "Cdd"}, "11": {"label": "*4", "atom_type": "Cd"}}

>  <type>  (9) 
unop_5

>  <geom_source>  (9) 
Heuristics

$$$$

     RDKit          3D

 16 14  0  0  0  0  0  0  0  0999 V2000
   -0.0827   -1.3643   -3.1650 C   0  0  0  0  0  0  0  0  0  0  0  0
   -0.0827   -1.3643   -1.9695 C   0  0  0  0  0  0  0  0  0  0  0  0
   -0.0827   -1.3643   -0.5065 C   0  0  0  0  0  3  0  0  0  0  0  0
   -1.3967   -1.0887    0.0746 C   0  0  0  0  0  0  0  0  0  0  0  0
   -2.4705   -0.8635    0.5495 C   0  0  0  0  0  0  0  0  0  0  0  0
   -0.0827   -1.3643   -4.2285 H   0  0  0  0  0  0  0  0  0  0  0  0
    0.7754   -0.4699   -0.0755 H   0  0  0  0  0  0  0  0  0  0  0  0
    0.2727   -2.3342   -0.1473 H   0  0  0  0  0  0  0  0  0  0  0  0
   -3.4257   -0.6632    0.9720 H   0  0  0  0  0  0  0  0  0  0  0  0
    2.8997    0.0994    0.5788 C   0  0  0  0  0  0  0  0  0  0  0  0
    1.6262    0.4168    0.3519 C   0  0  0  0  0  0  0  0  0  0  0  0
    0.8748    1.2671    1.2561 C   0  0  0  0  0  0  0  0  0  0  0  0
   -0.6670    1.7030    1.0622 S   0  0  0  0  0  0  0  0  0  0  0  0
    3.4243    0.4676    1.4536 H   0  0  0  0  0  0  0  0  0  0  0  0
    3.4558   -0.5353   -0.0989 H   0  0  0  0  0  0  0  0  0  0  0  0
    1.4328    1.6197    2.1255 H   0  0  0  0  0  0  0  0  0  0  0  0
  1  2  3  0
  1  6  1  0
  2  3  1  0
  3  4  1  0
  3  8  1  0
  4  5  3  0
  5  9  1  0
  7 11  1  0
 10 11  2  3
 10 14  1  0
 10 15  1  0
 11 12  1  0
 12 13  2  0
 12 16  1  0
M  RAD  1   3   2
M  END
>  <reaction>  (10) 
rxn_1374

>  <mol_properties>  (10) 
{"1": {"label": "*0", "atom_type": "Ct"}, "2": {"label": "*1", "atom_type": "Cs"}, "6": {"label": "*2", "atom_type": "H0"}, "10": {"label": "*3", "atom_type": "Cdd"}, "11": {"label": "*4", "atom_type": "Cd"}}

>  <type>  (10) 
unop_6

>  <geom_source>  (10) 
Heuristics

$$$$

     RDKit          3D

 16 14  0  0  0  0  0  0  0  0999 V2000
   -0.0924   -1.4756   -2.8667 C   0  0  0  0  0  0  0  0  0  0  0  0
   -0.0924   -1.4756   -1.6712 C   0  0  0  0  0  0  0  0  0  0  0  0
   -0.0924   -1.4756   -0.2082 C   0  0  0  0  0  3  0  0  0  0  0  0
   -1.4065   -1.2000    0.3730 C   0  0  0  0  0  0  0  0  0  0  0  0
   -2.4802   -0.9748    0.8479 C   0  0  0  0  0  0  0  0  0  0  0  0
   -0.0924   -1.4756   -3.9301 H   0  0  0  0  0  0  0  0  0  0  0  0
    0.7657   -0.5812    0.2229 H   0  0  0  0  0  0  0  0  0  0  0  0
    0.2629   -2.4455    0.1510 H   0  0  0  0  0  0  0  0  0  0  0  0
   -3.4354   -0.7745    1.2703 H   0  0  0  0  0  0  0  0  0  0  0  0
    2.6505   -0.0412    1.4149 C   0  0  0  0  0  0  0  0  0  0  0  0
    1.6165    0.3055    0.6502 C   0  0  0  0  0  0  0  0  0  0  0  0
    0.7856    1.4544    0.9586 C   0  0  0  0  0  0  0  0  0  0  0  0
   -0.4833    1.9476    0.0919 S   0  0  0  0  0  0  0  0  0  0  0  0
    2.9102    0.5266    2.3015 H   0  0  0  0  0  0  0  0  0  0  0  0
    3.2671   -0.8991    1.1804 H   0  0  0  0  0  0  0  0  0  0  0  0
    1.0749    2.0027    1.8570 H   0  0  0  0  0  0  0  0  0  0  0  0
  1  2  3  0
  1  6  1  0
  2  3  1  0
  3  4  1  0
  3  8  1  0
  4  5  3  0
  5  9  1  0
  7 11  1  0
 10 11  2  3
 10 14  1  0
 10 15  1  0
 11 12  1  0
 12 13  2  0
 12 16  1  0
M  RAD  1   3   2
M  END
>  <reaction>  (11) 
rxn_1374

>  <mol_properties>  (11) 
{"1": {"label": "*0", "atom_type": "Ct"}, "2": {"label": "*1", "atom_type": "Cs"}, "6": {"label": "*2", "atom_type": "H0"}, "10": {"label": "*3", "atom_type": "Cdd"}, "11": {"label": "*4", "atom_type": "Cd"}}

>  <type>  (11) 
unop_7

>  <geom_source>  (11) 
Heuristics

$$$$

     RDKit          3D

 16 14  0  0  0  0  0  0  0  0999 V2000
   -0.9270   -0.5543   -3.1650 C   0  0  0  0  0  0  0  0  0  0  0  0
   -0.9270   -0.5543   -1.9695 C   0  0  0  0  0  0  0  0  0  0  0  0
   -0.9270   -0.5543   -0.5065 C   0  0  0  0  0  3  0  0  0  0  0  0
   -2.2410   -0.2787    0.0746 C   0  0  0  0  0  0  0  0  0  0  0  0
   -3.3148   -0.0535    0.5495 C   0  0  0  0  0  0  0  0  0  0  0  0
   -0.9270   -0.5543   -4.2285 H   0  0  0  0  0  0  0  0  0  0  0  0
   -0.0689    0.3401   -0.0755 H   0  0  0  0  0  0  0  0  0  0  0  0
   -0.5716   -1.5241   -0.1473 H   0  0  0  0  0  0  0  0  0  0  0  0
   -4.2700    0.1469    0.9720 H   0  0  0  0  0  0  0  0  0  0  0  0
    0.4121    2.4862    0.5788 C   0  0  0  0  0  0  0  0  0  0  0  0
    0.7820    1.2269    0.3519 C   0  0  0  0  0  0  0  0  0  0  0  0
    1.6626    0.5113    1.2561 C   0  0  0  0  0  0  0  0  0  0  0  0
    2.1619   -1.0111    1.0622 S   0  0  0  0  0  0  0  0  0  0  0  0
    0.7583    3.0255    1.4536 H   0  0  0  0  0  0  0  0  0  0  0  0
   -0.2450    3.0155   -0.0989 H   0  0  0  0  0  0  0  0  0  0  0  0
    1.9918    1.0834    2.1255 H   0  0  0  0  0  0  0  0  0  0  0  0
  1  2  3  0
  1  6  1  0
  2  3  1  0
  3  4  1  0
  3  8  1  0
  4  5  3  0
  5  9  1  0
  7 11  1  0
 10 11  2  3
 10 14  1  0
 10 15  1  0
 11 12  1  0
 12 13  2  0
 12 16  1  0
M  RAD  1   3   2
M  END
>  <reaction>  (12) 
rxn_1374

>  <mol_properties>  (12) 
{"1": {"label": "*0", "atom_type": "Ct"}, "2": {"label": "*1", "atom_type": "Cs"}, "6": {"label": "*2", "atom_type": "H0"}, "10": {"label": "*3", "atom_type": "Cdd"}, "11": {"label": "*4", "atom_type": "Cd"}}

>  <type>  (12) 
unop_8

>  <geom_source>  (12) 
Heuristics

$$$$

     RDKit          3D

 16 14  0  0  0  0  0  0  0  0999 V2000
   -0.3388   -1.0753   -3.4939 C   0  0  0  0  0  0  0  0  0  0  0  0
   -0.3388   -1.0753   -2.2984 C   0  0  0  0  0  0  0  0  0  0  0  0
   -0.3388   -1.0753   -0.8354 C   0  0  0  0  0  3  0  0  0  0  0  0
   -1.6528   -0.7997   -0.2542 C   0  0  0  0  0  0  0  0  0  0  0  0
   -2.7265   -0.5745    0.2207 C   0  0  0  0  0  0  0  0  0  0  0  0
   -0.3388   -1.0753   -4.5574 H   0  0  0  0  0  0  0  0  0  0  0  0
    0.5194   -0.1809   -0.4044 H   0  0  0  0  0  0  0  0  0  0  0  0
    0.0166   -2.0452   -0.4762 H   0  0  0  0  0  0  0  0  0  0  0  0
   -3.6817   -0.3742    0.6431 H   0  0  0  0  0  0  0  0  0  0  0  0
    2.4571    1.0163   -0.6815 C   0  0  0  0  0  0  0  0  0  0  0  0
    1.3702    0.7058    0.0230 C   0  0  0  0  0  0  0  0  0  0  0  0
    1.2527    1.0266    1.4332 C   0  0  0  0  0  0  0  0  0  0  0  0
   -0.0225    0.6899    2.3635 S   0  0  0  0  0  0  0  0  0  0  0  0
    3.2990    1.5234   -0.2232 H   0  0  0  0  0  0  0  0  0  0  0  0
    2.5397    0.7748   -1.7332 H   0  0  0  0  0  0  0  0  0  0  0  0
    2.1173    1.5363    1.8621 H   0  0  0  0  0  0  0  0  0  0  0  0
  1  2  3  0
  1  6  1  0
  2  3  1  0
  3  4  1  0
  3  8  1  0
  4  5  3  0
  5  9  1  0
  7 11  1  0
 10 11  2  3
 10 14  1  0
 10 15  1  0
 11 12  1  0
 12 13  2  0
 12 16  1  0
M  RAD  1   3   2
M  END
>  <reaction>  (13) 
rxn_1374

>  <mol_properties>  (13) 
{"1": {"label": "*0", "atom_type": "Ct"}, "2": {"label": "*1", "atom_type": "Cs"}, "6": {"label": "*2", "atom_type": "H0"}, "10": {"label": "*3", "atom_type": "Cdd"}, "11": {"label": "*4", "atom_type": "Cd"}}

>  <type>  (13) 
unop_9

>  <geom_source>  (13) 
Heuristics

$$$$

     RDKit          3D

 16 14  0  0  0  0  0  0  0  0999 V2000
   -0.7768   -0.6514   -3.3792 C   0  0  0  0  0  0  0  0  0  0  0  0
   -0.7768   -0.6514   -2.1837 C   0  0  0  0  0  0  0  0  0  0  0  0
   -0.7768   -0.6514   -0.7207 C   0  0  0  0  0  3  0  0  0  0  0  0
   -2.0908   -0.3758   -0.1395 C   0  0  0  0  0  0  0  0  0  0  0  0
   -3.1646   -0.1506    0.3354 C   0  0  0  0  0  0  0  0  0  0  0  0
   -0.7768   -0.6514   -4.4427 H   0  0  0  0  0  0  0  0  0  0  0  0
    0.0814    0.2430   -0.2897 H   0  0  0  0  0  0  0  0  0  0  0  0
   -0.4214   -1.6213   -0.3615 H   0  0  0  0  0  0  0  0  0  0  0  0
   -4.1198    0.0497    0.7578 H   0  0  0  0  0  0  0  0  0  0  0  0
    0.8019    2.4184   -0.1731 C   0  0  0  0  0  0  0  0  0  0  0  0
    0.9322    1.1297    0.1377 C   0  0  0  0  0  0  0  0  0  0  0  0
    1.4989    0.6992    1.4021 C   0  0  0  0  0  0  0  0  0  0  0  0
    1.6947   -0.8352    1.8625 S   0  0  0  0  0  0  0  0  0  0  0  0
    1.1169    3.1973    0.5124 H   0  0  0  0  0  0  0  0  0  0  0  0
    0.3785    2.7342   -1.1177 H   0  0  0  0  0  0  0  0  0  0  0  0
    1.8051    1.5084    2.0676 H   0  0  0  0  0  0  0  0  0  0  0  0
  1  2  3  0
  1  6  1  0
  2  3  1  0
  3  4  1  0
  3  8  1  0
  4  5  3  0
  5  9  1  0
  7 11  1  0
 10 11  2  3
 10 14  1  0
 10 15  1  0
 11 12  1  0
 12 13  2  0
 12 16  1  0
M  RAD  1   3   2
M  END
>  <reaction>  (14) 
rxn_1374

>  <mol_properties>  (14) 
{"1": {"label": "*0", "atom_type": "Ct"}, "2": {"label": "*1", "atom_type": "Cs"}, "6": {"label": "*2", "atom_type": "H0"}, "10": {"label": "*3", "atom_type": "Cdd"}, "11": {"label": "*4", "atom_type": "Cd"}}

>  <type>  (14) 
unop_10

>  <geom_source>  (14) 
Heuristics

$$$$

     RDKit          3D

 16 14  0  0  0  0  0  0  0  0999 V2000
   -0.2917   -1.4999   -2.5303 C   0  0  0  0  0  0  0  0  0  0  0  0
   -0.2917   -1.4999   -1.3348 C   0  0  0  0  0  0  0  0  0  0  0  0
   -0.2917   -1.4999    0.1282 C   0  0  0  0  0  3  0  0  0  0  0  0
   -1.6057   -1.2243    0.7093 C   0  0  0  0  0  0  0  0  0  0  0  0
   -2.6794   -0.9991    1.1842 C   0  0  0  0  0  0  0  0  0  0  0  0
   -0.2917   -1.4999   -3.5938 H   0  0  0  0  0  0  0  0  0  0  0  0
    0.5665   -0.6055    0.5592 H   0  0  0  0  0  0  0  0  0  0  0  0
    0.0637   -2.4698    0.4873 H   0  0  0  0  0  0  0  0  0  0  0  0
   -3.6346   -0.7988    1.6067 H   0  0  0  0  0  0  0  0  0  0  0  0
    2.0557    0.1243    2.1449 C   0  0  0  0  0  0  0  0  0  0  0  0
    1.4173    0.2812    0.9865 C   0  0  0  0  0  0  0  0  0  0  0  0
    0.9681    1.5827    0.5286 C   0  0  0  0  0  0  0  0  0  0  0  0
    0.1895    1.8668   -0.8563 S   0  0  0  0  0  0  0  0  0  0  0  0
    2.2641    0.9693    2.7918 H   0  0  0  0  0  0  0  0  0  0  0  0
    2.3887   -0.8488    2.4820 H   0  0  0  0  0  0  0  0  0  0  0  0
    1.1940    2.4104    1.2033 H   0  0  0  0  0  0  0  0  0  0  0  0
  1  2  3  0
  1  6  1  0
  2  3  1  0
  3  4  1  0
  3  8  1  0
  4  5  3  0
  5  9  1  0
  7 11  1  0
 10 11  2  3
 10 14  1  0
 10 15  1  0
 11 12  1  0
 12 13  2  0
 12 16  1  0
M  RAD  1   3   2
M  END
>  <reaction>  (15) 
rxn_1374

>  <mol_properties>  (15) 
{"1": {"label": "*0", "atom_type": "Ct"}, "2": {"label": "*1", "atom_type": "Cs"}, "6": {"label": "*2", "atom_type": "H0"}, "10": {"label": "*3", "atom_type": "Cdd"}, "11": {"label": "*4", "atom_type": "Cd"}}

>  <type>  (15) 
unop_11

>  <geom_source>  (15) 
Heuristics

$$$$

     RDKit          3D

 16 14  0  0  0  0  0  0  0  0999 V2000
   -0.4884   -0.9422   -3.5267 C   0  0  0  0  0  0  0  0  0  0  0  0
   -0.4884   -0.9422   -2.3312 C   0  0  0  0  0  0  0  0  0  0  0  0
   -0.4884   -0.9422   -0.8682 C   0  0  0  0  0  3  0  0  0  0  0  0
   -1.8024   -0.6666   -0.2871 C   0  0  0  0  0  0  0  0  0  0  0  0
   -2.8762   -0.4414    0.1878 C   0  0  0  0  0  0  0  0  0  0  0  0
   -0.4884   -0.9422   -4.5902 H   0  0  0  0  0  0  0  0  0  0  0  0
    0.3697   -0.0478   -0.4372 H   0  0  0  0  0  0  0  0  0  0  0  0
   -0.1331   -1.9120   -0.5090 H   0  0  0  0  0  0  0  0  0  0  0  0
   -3.8314   -0.2410    0.6103 H   0  0  0  0  0  0  0  0  0  0  0  0
    1.9313    1.5798   -0.8584 C   0  0  0  0  0  0  0  0  0  0  0  0
    1.2205    0.8390   -0.0099 C   0  0  0  0  0  0  0  0  0  0  0  0
    1.3545    0.9786    1.4281 C   0  0  0  0  0  0  0  0  0  0  0  0
    0.5370    0.1266    2.5284 S   0  0  0  0  0  0  0  0  0  0  0  0
    2.6405    2.3190   -0.5026 H   0  0  0  0  0  0  0  0  0  0  0  0
    1.8276    1.4717   -1.9303 H   0  0  0  0  0  0  0  0  0  0  0  0
    2.0763    1.7309    1.7515 H   0  0  0  0  0  0  0  0  0  0  0  0
  1  2  3  0
  1  6  1  0
  2  3  1  0
  3  4  1  0
  3  8  1  0
  4  5  3  0
  5  9  1  0
  7 11  1  0
 10 11  2  3
 10 14  1  0
 10 15  1  0
 11 12  1  0
 12 13  2  0
 12 16  1  0
M  RAD  1   3   2
M  END
>  <reaction>  (16) 
rxn_1374

>  <mol_properties>  (16) 
{"1": {"label": "*0", "atom_type": "Ct"}, "2": {"label": "*1", "atom_type": "Cs"}, "6": {"label": "*2", "atom_type": "H0"}, "10": {"label": "*3", "atom_type": "Cdd"}, "11": {"label": "*4", "atom_type": "Cd"}}

>  <type>  (16) 
unop_12

>  <geom_source>  (16) 
Heuristics

$$$$

     RDKit          3D

 16 14  0  0  0  0  0  0  0  0999 V2000
    0.7697    2.8098   -0.2102 S   0  0  0  0  0  0  0  0  0  0  0  0
    1.3667    0.1924   -0.0725 C   0  0  0  0  0  0  0  0  0  0  0  0
   -1.0049   -0.3676   -1.0013 C   0  0  0  0  0  3  0  0  0  0  0  0
    1.6763    1.5662    0.3372 C   0  0  0  0  0  0  0  0  0  0  0  0
    2.0898   -0.8356    0.3597 C   0  0  0  0  0  0  0  0  0  0  0  0
   -2.0377    0.6485   -0.7902 C   0  0  0  0  0  0  0  0  0  0  0  0
   -0.9675   -1.2805    0.1429 C   0  0  0  0  0  0  0  0  0  0  0  0
   -2.8877    1.4862   -0.6181 C   0  0  0  0  0  0  0  0  0  0  0  0
   -0.9351   -2.0331    1.0843 C   0  0  0  0  0  0  0  0  0  0  0  0
    0.4271   -0.0161   -0.8255 H   0  0  0  0  0  0  0  0  0  0  0  0
    2.5047    1.7714    1.0038 H   0  0  0  0  0  0  0  0  0  0  0  0
    2.9299   -0.6899    1.0278 H   0  0  0  0  0  0  0  0  0  0  0  0
    1.8410   -1.8396    0.0427 H   0  0  0  0  0  0  0  0  0  0  0  0
   -1.2316   -0.9399   -1.9244 H   0  0  0  0  0  0  0  0  0  0  0  0
   -3.6338    2.2214   -0.4669 H   0  0  0  0  0  0  0  0  0  0  0  0
   -0.9068   -2.6936    1.9107 H   0  0  0  0  0  0  0  0  0  0  0  0
  1  4  2  0
  2  5  2  3
  2  4  1  0
  2 10  1  0
  3  6  1  0
  3  7  1  0
  3 14  1  0
  4 11  1  0
  5 12  1  0
  5 13  1  0
  6  8  3  0
  7  9  3  0
  8 15  1  0
  9 16  1  0
M  RAD  1   3   2
M  END
>  <reaction>  (17) 
rxn_1374

>  <mol_properties>  (17) 
{"1": {"label": "*0", "atom_type": "Ct"}, "2": {"label": "*1", "atom_type": "Cs"}, "6": {"label": "*2", "atom_type": "H0"}, "10": {"label": "*3", "atom_type": "Cdd"}, "11": {"label": "*4", "atom_type": "Cd"}}

>  <type>  (17) 
unop_13

>  <geom_source>  (17) 
AutoTST

$$$$
