
     RDKit          3D

  7  6  0  0  0  0  0  0  0  0999 V2000
   -0.5808   -0.0343   -0.0072 C   0  0  0  0  0  0  0  0  0  0  0  0
    0.8189    0.0820   -0.3920 N   0  0  0  0  0  0  0  0  0  0  0  0
   -1.1366   -0.8351   -0.5131 H   0  0  0  0  0  0  0  0  0  0  0  0
   -1.0904    0.9086   -0.2116 H   0  0  0  0  0  0  0  0  0  0  0  0
   -0.6459   -0.2082    1.0679 H   0  0  0  0  0  0  0  0  0  0  0  0
    0.9043    0.2571   -1.3836 H   0  0  0  0  0  0  0  0  0  0  0  0
    1.3157   -0.7766   -0.1992 H   0  0  0  0  0  0  0  0  0  0  0  0
  1  2  1  0
  1  3  1  0
  1  4  1  0
  1  5  1  0
  2  6  1  0
  2  7  1  0
M  END
>  <reaction>  (1) 
rxn_681

>  <mol_properties>  (1) 
{"0": {"label": "donator", "atom_type": "Cs"}, "2": {"label": "d_hydrogen", "atom_type": "H0"}}

>  <type>  (1) 
r1h

$$$$

     RDKit          3D

  3  2  0  0  0  0  0  0  0  0999 V2000
    0.0002    0.4233    0.0000 N   0  0  0  0  0  2  0  0  0  0  0  0
   -0.8051   -0.2112    0.0000 H   0  0  0  0  0  0  0  0  0  0  0  0
    0.8049   -0.2121    0.0000 H   0  0  0  0  0  0  0  0  0  0  0  0
  1  2  1  0
  1  3  1  0
M  RAD  1   1   2
M  END
>  <reaction>  (2) 
rxn_681

>  <mol_properties>  (2) 
{"0": {"label": "acceptor", "atom_type": "N3s"}}

>  <type>  (2) 
r2

$$$$

     RDKit          3D

  4  3  0  0  0  0  0  0  0  0999 V2000
    0.0006   -0.0009    0.2762 N   0  0  0  0  0  0  0  0  0  0  0  0
   -0.4188    0.8439   -0.0883 H   0  0  0  0  0  0  0  0  0  0  0  0
   -0.5215   -0.7840   -0.0936 H   0  0  0  0  0  0  0  0  0  0  0  0
    0.9397   -0.0590   -0.0943 H   0  0  0  0  0  0  0  0  0  0  0  0
  1  2  1  0
  1  3  1  0
  1  4  1  0
M  END
>  <reaction>  (3) 
rxn_681

>  <mol_properties>  (3) 
{"0": {"label": "acceptor", "atom_type": "N3s"}, "3": {"label": "a_hydrogen", "atom_type": "H0"}}

>  <type>  (3) 
r2h

$$$$

     RDKit          3D

 10  8  0  0  0  0  0  0  0  0999 V2000
   -0.1323    1.7090    0.8823 N   0  0  0  0  0  2  0  0  0  0  0  0
   -1.0868    1.7583    1.2462 H   0  0  0  0  0  0  0  0  0  0  0  0
    0.4398    1.5780    1.7200 H   0  0  0  0  0  0  0  0  0  0  0  0
   -0.1627   -0.8050    0.0239 C   0  0  0  0  0  0  0  0  0  0  0  0
    0.2502   -0.8833   -1.3351 N   0  0  0  0  0  0  0  0  0  0  0  0
   -0.1502    0.3523    0.4239 H   0  0  0  0  0  0  0  0  0  0  0  0
    0.5107   -1.3571    0.6794 H   0  0  0  0  0  0  0  0  0  0  0  0
   -1.1865   -1.1565    0.1522 H   0  0  0  0  0  0  0  0  0  0  0  0
    1.1950   -0.5549   -1.4704 H   0  0  0  0  0  0  0  0  0  0  0  0
   -0.3611   -0.3709   -1.9537 H   0  0  0  0  0  0  0  0  0  0  0  0
  1  2  1  0
  1  3  1  0
  4  5  1  0
  4  6  1  0
  4  7  1  0
  4  8  1  0
  5  9  1  0
  5 10  1  0
M  RAD  1   1   2
M  END
>  <reaction>  (4) 
rxn_681

>  <mol_properties>  (4) 
{"0": {"label": "*3", "atom_type": "N3s"}, "1": {"label": "*4", "atom_type": "H0"}, "3": {"label": "*1", "atom_type": "Cs"}, "4": {"label": "*0", "atom_type": "N3s"}, "5": {"label": "*2", "atom_type": "H0"}}

>  <type>  (4) 
ts

$$$$

     RDKit          3D

 10  8  0  0  0  0  0  0  0  0999 V2000
    0.0053    1.5003    1.1649 N   0  0  0  0  0  0  0  0  0  0  0  0
   -0.8298    1.5722    1.7306 H   0  0  0  0  0  0  0  0  0  0  0  0
    0.5933    0.9413    1.7685 H   0  0  0  0  0  0  0  0  0  0  0  0
    0.0053   -0.7935    0.0941 C   0  0  0  0  0  3  0  0  0  0  0  0
    0.0053   -0.7935   -1.3622 N   0  0  0  0  0  0  0  0  0  0  0  0
    0.0053    0.4007    0.6516 H   0  0  0  0  0  0  0  0  0  0  0  0
    0.8831   -1.3320    0.4547 H   0  0  0  0  0  0  0  0  0  0  0  0
   -0.8725   -1.3320    0.4547 H   0  0  0  0  0  0  0  0  0  0  0  0
    0.8178   -0.3109   -1.7201 H   0  0  0  0  0  0  0  0  0  0  0  0
   -0.8072   -0.3109   -1.7201 H   0  0  0  0  0  0  0  0  0  0  0  0
  1  2  1  0
  1  3  1  0
  1  6  1  0
  4  5  1  0
  4  7  1  0
  4  8  1  0
  5  9  1  0
  5 10  1  0
M  RAD  1   4   2
M  END
>  <reaction>  (5) 
rxn_681

>  <mol_properties>  (5) 
{"0": {"label": "*3", "atom_type": "N3s"}, "1": {"label": "*4", "atom_type": "H0"}, "3": {"label": "*1", "atom_type": "Cs"}, "4": {"label": "*0", "atom_type": "N3s"}, "5": {"label": "*2", "atom_type": "H0"}}

>  <type>  (5) 
unop_1

>  <geom_source>  (5) 
Heuristics

$$$$

     RDKit          3D

 10  8  0  0  0  0  0  0  0  0999 V2000
    0.0220    1.4889    1.1902 N   0  0  0  0  0  0  0  0  0  0  0  0
   -0.4601    2.1180    0.5622 H   0  0  0  0  0  0  0  0  0  0  0  0
   -0.5252    0.9032    1.8066 H   0  0  0  0  0  0  0  0  0  0  0  0
    0.0220   -0.8049    0.1194 C   0  0  0  0  0  3  0  0  0  0  0  0
    0.0220   -0.8049   -1.3369 N   0  0  0  0  0  0  0  0  0  0  0  0
    0.0220    0.3894    0.6769 H   0  0  0  0  0  0  0  0  0  0  0  0
    0.8998   -1.3433    0.4800 H   0  0  0  0  0  0  0  0  0  0  0  0
   -0.8557   -1.3433    0.4800 H   0  0  0  0  0  0  0  0  0  0  0  0
    0.8345   -0.3223   -1.6948 H   0  0  0  0  0  0  0  0  0  0  0  0
   -0.7905   -0.3223   -1.6948 H   0  0  0  0  0  0  0  0  0  0  0  0
  1  2  1  0
  1  3  1  0
  1  6  1  0
  4  5  1  0
  4  7  1  0
  4  8  1  0
  5  9  1  0
  5 10  1  0
M  RAD  1   4   2
M  END
>  <reaction>  (6) 
rxn_681

>  <mol_properties>  (6) 
{"0": {"label": "*3", "atom_type": "N3s"}, "1": {"label": "*4", "atom_type": "H0"}, "3": {"label": "*1", "atom_type": "Cs"}, "4": {"label": "*0", "atom_type": "N3s"}, "5": {"label": "*2", "atom_type": "H0"}}

>  <type>  (6) 
unop_2

>  <geom_source>  (6) 
Heuristics

$$$$

     RDKit          3D

 10  8  0  0  0  0  0  0  0  0999 V2000
   -0.0089    1.4955    1.1618 N   0  0  0  0  0  0  0  0  0  0  0  0
   -0.4911    1.4181    2.0473 H   0  0  0  0  0  0  0  0  0  0  0  0
    0.8889    1.3087    1.5881 H   0  0  0  0  0  0  0  0  0  0  0  0
   -0.0089   -0.7983    0.0911 C   0  0  0  0  0  3  0  0  0  0  0  0
   -0.0089   -0.7983   -1.3652 N   0  0  0  0  0  0  0  0  0  0  0  0
   -0.0089    0.3959    0.6486 H   0  0  0  0  0  0  0  0  0  0  0  0
    0.8689   -1.3368    0.4517 H   0  0  0  0  0  0  0  0  0  0  0  0
   -0.8867   -1.3368    0.4517 H   0  0  0  0  0  0  0  0  0  0  0  0
    0.8036   -0.3157   -1.7232 H   0  0  0  0  0  0  0  0  0  0  0  0
   -0.8214   -0.3157   -1.7232 H   0  0  0  0  0  0  0  0  0  0  0  0
  1  2  1  0
  1  3  1  0
  1  6  1  0
  4  5  1  0
  4  7  1  0
  4  8  1  0
  5  9  1  0
  5 10  1  0
M  RAD  1   4   2
M  END
>  <reaction>  (7) 
rxn_681

>  <mol_properties>  (7) 
{"0": {"label": "*3", "atom_type": "N3s"}, "1": {"label": "*4", "atom_type": "H0"}, "3": {"label": "*1", "atom_type": "Cs"}, "4": {"label": "*0", "atom_type": "N3s"}, "5": {"label": "*2", "atom_type": "H0"}}

>  <type>  (7) 
unop_3

>  <geom_source>  (7) 
Heuristics

$$$$

     RDKit          3D

 10  8  0  0  0  0  0  0  0  0999 V2000
   -0.0001    1.4673    1.1951 N   0  0  0  0  0  0  0  0  0  0  0  0
    0.8351    1.9471    0.8870 H   0  0  0  0  0  0  0  0  0  0  0  0
   -0.8320    2.0385    1.2601 H   0  0  0  0  0  0  0  0  0  0  0  0
   -0.0001   -0.8265    0.1244 C   0  0  0  0  0  3  0  0  0  0  0  0
   -0.0001   -0.8265   -1.3319 N   0  0  0  0  0  0  0  0  0  0  0  0
   -0.0001    0.3678    0.6819 H   0  0  0  0  0  0  0  0  0  0  0  0
    0.8777   -1.3649    0.4850 H   0  0  0  0  0  0  0  0  0  0  0  0
   -0.8778   -1.3649    0.4850 H   0  0  0  0  0  0  0  0  0  0  0  0
    0.8124   -0.3439   -1.6899 H   0  0  0  0  0  0  0  0  0  0  0  0
   -0.8126   -0.3439   -1.6899 H   0  0  0  0  0  0  0  0  0  0  0  0
  1  2  1  0
  1  3  1  0
  1  6  1  0
  4  5  1  0
  4  7  1  0
  4  8  1  0
  5  9  1  0
  5 10  1  0
M  RAD  1   4   2
M  END
>  <reaction>  (8) 
rxn_681

>  <mol_properties>  (8) 
{"0": {"label": "*3", "atom_type": "N3s"}, "1": {"label": "*4", "atom_type": "H0"}, "3": {"label": "*1", "atom_type": "Cs"}, "4": {"label": "*0", "atom_type": "N3s"}, "5": {"label": "*2", "atom_type": "H0"}}

>  <type>  (8) 
unop_4

>  <geom_source>  (8) 
Heuristics

$$$$

     RDKit          3D

 10  8  0  0  0  0  0  0  0  0999 V2000
   -0.0186    1.4818    1.1664 N   0  0  0  0  0  0  0  0  0  0  0  0
   -0.0186    1.3498    2.1690 H   0  0  0  0  0  0  0  0  0  0  0  0
    0.8517    1.9877    1.2625 H   0  0  0  0  0  0  0  0  0  0  0  0
   -0.0186   -0.8120    0.0956 C   0  0  0  0  0  3  0  0  0  0  0  0
   -0.0186   -0.8120   -1.3606 N   0  0  0  0  0  0  0  0  0  0  0  0
   -0.0186    0.3823    0.6531 H   0  0  0  0  0  0  0  0  0  0  0  0
    0.8591   -1.3504    0.4562 H   0  0  0  0  0  0  0  0  0  0  0  0
   -0.8964   -1.3504    0.4562 H   0  0  0  0  0  0  0  0  0  0  0  0
    0.7939   -0.3294   -1.7186 H   0  0  0  0  0  0  0  0  0  0  0  0
   -0.8311   -0.3294   -1.7186 H   0  0  0  0  0  0  0  0  0  0  0  0
  1  2  1  0
  1  3  1  0
  1  6  1  0
  4  5  1  0
  4  7  1  0
  4  8  1  0
  5  9  1  0
  5 10  1  0
M  RAD  1   4   2
M  END
>  <reaction>  (9) 
rxn_681

>  <mol_properties>  (9) 
{"0": {"label": "*3", "atom_type": "N3s"}, "1": {"label": "*4", "atom_type": "H0"}, "3": {"label": "*1", "atom_type": "Cs"}, "4": {"label": "*0", "atom_type": "N3s"}, "5": {"label": "*2", "atom_type": "H0"}}

>  <type>  (9) 
unop_5

>  <geom_source>  (9) 
Heuristics

$$$$

     RDKit          3D

 10  8  0  0  0  0  0  0  0  0999 V2000
   -0.0083    1.4662    1.1884 N   0  0  0  0  0  0  0  0  0  0  0  0
    0.9561    1.7420    1.3172 H   0  0  0  0  0  0  0  0  0  0  0  0
   -0.5867    2.2937    1.1312 H   0  0  0  0  0  0  0  0  0  0  0  0
   -0.0083   -0.8276    0.1176 C   0  0  0  0  0  3  0  0  0  0  0  0
   -0.0083   -0.8276   -1.3386 N   0  0  0  0  0  0  0  0  0  0  0  0
   -0.0083    0.3667    0.6751 H   0  0  0  0  0  0  0  0  0  0  0  0
    0.8695   -1.3660    0.4782 H   0  0  0  0  0  0  0  0  0  0  0  0
   -0.8860   -1.3660    0.4782 H   0  0  0  0  0  0  0  0  0  0  0  0
    0.8042   -0.3450   -1.6966 H   0  0  0  0  0  0  0  0  0  0  0  0
   -0.8208   -0.3450   -1.6966 H   0  0  0  0  0  0  0  0  0  0  0  0
  1  2  1  0
  1  3  1  0
  1  6  1  0
  4  5  1  0
  4  7  1  0
  4  8  1  0
  5  9  1  0
  5 10  1  0
M  RAD  1   4   2
M  END
>  <reaction>  (10) 
rxn_681

>  <mol_properties>  (10) 
{"0": {"label": "*3", "atom_type": "N3s"}, "1": {"label": "*4", "atom_type": "H0"}, "3": {"label": "*1", "atom_type": "Cs"}, "4": {"label": "*0", "atom_type": "N3s"}, "5": {"label": "*2", "atom_type": "H0"}}

>  <type>  (10) 
unop_6

>  <geom_source>  (10) 
Heuristics

$$$$

     RDKit          3D

 10  8  0  0  0  0  0  0  0  0999 V2000
   -0.0131    1.4674    1.1806 N   0  0  0  0  0  0  0  0  0  0  0  0
    0.8220    1.5392    1.7462 H   0  0  0  0  0  0  0  0  0  0  0  0
   -0.2373    2.4450    1.0518 H   0  0  0  0  0  0  0  0  0  0  0  0
   -0.0131   -0.8264    0.1098 C   0  0  0  0  0  3  0  0  0  0  0  0
   -0.0131   -0.8264   -1.3465 N   0  0  0  0  0  0  0  0  0  0  0  0
   -0.0131    0.3678    0.6673 H   0  0  0  0  0  0  0  0  0  0  0  0
    0.8647   -1.3649    0.4704 H   0  0  0  0  0  0  0  0  0  0  0  0
   -0.8908   -1.3649    0.4704 H   0  0  0  0  0  0  0  0  0  0  0  0
    0.7994   -0.3438   -1.7044 H   0  0  0  0  0  0  0  0  0  0  0  0
   -0.8256   -0.3438   -1.7044 H   0  0  0  0  0  0  0  0  0  0  0  0
  1  2  1  0
  1  3  1  0
  1  6  1  0
  4  5  1  0
  4  7  1  0
  4  8  1  0
  5  9  1  0
  5 10  1  0
M  RAD  1   4   2
M  END
>  <reaction>  (11) 
rxn_681

>  <mol_properties>  (11) 
{"0": {"label": "*3", "atom_type": "N3s"}, "1": {"label": "*4", "atom_type": "H0"}, "3": {"label": "*1", "atom_type": "Cs"}, "4": {"label": "*0", "atom_type": "N3s"}, "5": {"label": "*2", "atom_type": "H0"}}

>  <type>  (11) 
unop_7

>  <geom_source>  (11) 
Heuristics

$$$$

     RDKit          3D

 10  8  0  0  0  0  0  0  0  0999 V2000
    0.0156    1.4992    1.1727 N   0  0  0  0  0  0  0  0  0  0  0  0
   -0.9487    1.7750    1.3014 H   0  0  0  0  0  0  0  0  0  0  0  0
    0.2515    0.7861    1.8498 H   0  0  0  0  0  0  0  0  0  0  0  0
    0.0156   -0.7946    0.1019 C   0  0  0  0  0  3  0  0  0  0  0  0
    0.0156   -0.7946   -1.3544 N   0  0  0  0  0  0  0  0  0  0  0  0
    0.0156    0.3996    0.6594 H   0  0  0  0  0  0  0  0  0  0  0  0
    0.8934   -1.3331    0.4625 H   0  0  0  0  0  0  0  0  0  0  0  0
   -0.8622   -1.3331    0.4625 H   0  0  0  0  0  0  0  0  0  0  0  0
    0.8281   -0.3120   -1.7123 H   0  0  0  0  0  0  0  0  0  0  0  0
   -0.7969   -0.3120   -1.7123 H   0  0  0  0  0  0  0  0  0  0  0  0
  1  2  1  0
  1  3  1  0
  1  6  1  0
  4  5  1  0
  4  7  1  0
  4  8  1  0
  5  9  1  0
  5 10  1  0
M  RAD  1   4   2
M  END
>  <reaction>  (12) 
rxn_681

>  <mol_properties>  (12) 
{"0": {"label": "*3", "atom_type": "N3s"}, "1": {"label": "*4", "atom_type": "H0"}, "3": {"label": "*1", "atom_type": "Cs"}, "4": {"label": "*0", "atom_type": "N3s"}, "5": {"label": "*2", "atom_type": "H0"}}

>  <type>  (12) 
unop_8

>  <geom_source>  (12) 
Heuristics

$$$$

     RDKit          3D

 10  8  0  0  0  0  0  0  0  0999 V2000
    0.0103    1.4721    1.1982 N   0  0  0  0  0  0  0  0  0  0  0  0
    0.4924    2.1012    0.5702 H   0  0  0  0  0  0  0  0  0  0  0  0
   -0.9512    1.6699    1.4411 H   0  0  0  0  0  0  0  0  0  0  0  0
    0.0103   -0.8217    0.1274 C   0  0  0  0  0  3  0  0  0  0  0  0
    0.0103   -0.8217   -1.3289 N   0  0  0  0  0  0  0  0  0  0  0  0
    0.0103    0.3726    0.6849 H   0  0  0  0  0  0  0  0  0  0  0  0
    0.8880   -1.3601    0.4880 H   0  0  0  0  0  0  0  0  0  0  0  0
   -0.8675   -1.3601    0.4880 H   0  0  0  0  0  0  0  0  0  0  0  0
    0.8228   -0.3391   -1.6868 H   0  0  0  0  0  0  0  0  0  0  0  0
   -0.8022   -0.3391   -1.6868 H   0  0  0  0  0  0  0  0  0  0  0  0
  1  2  1  0
  1  3  1  0
  1  6  1  0
  4  5  1  0
  4  7  1  0
  4  8  1  0
  5  9  1  0
  5 10  1  0
M  RAD  1   4   2
M  END
>  <reaction>  (13) 
rxn_681

>  <mol_properties>  (13) 
{"0": {"label": "*3", "atom_type": "N3s"}, "1": {"label": "*4", "atom_type": "H0"}, "3": {"label": "*1", "atom_type": "Cs"}, "4": {"label": "*0", "atom_type": "N3s"}, "5": {"label": "*2", "atom_type": "H0"}}

>  <type>  (13) 
unop_9

>  <geom_source>  (13) 
Heuristics

$$$$

     RDKit          3D

 10  8  0  0  0  0  0  0  0  0999 V2000
    0.0210    1.4952    1.1819 N   0  0  0  0  0  0  0  0  0  0  0  0
   -0.8141    1.9750    0.8737 H   0  0  0  0  0  0  0  0  0  0  0  0
   -0.1233    0.7655    1.8669 H   0  0  0  0  0  0  0  0  0  0  0  0
    0.0210   -0.7986    0.1111 C   0  0  0  0  0  3  0  0  0  0  0  0
    0.0210   -0.7986   -1.3452 N   0  0  0  0  0  0  0  0  0  0  0  0
    0.0210    0.3956    0.6686 H   0  0  0  0  0  0  0  0  0  0  0  0
    0.8987   -1.3371    0.4717 H   0  0  0  0  0  0  0  0  0  0  0  0
   -0.8568   -1.3371    0.4717 H   0  0  0  0  0  0  0  0  0  0  0  0
    0.8335   -0.3160   -1.7032 H   0  0  0  0  0  0  0  0  0  0  0  0
   -0.7915   -0.3160   -1.7032 H   0  0  0  0  0  0  0  0  0  0  0  0
  1  2  1  0
  1  3  1  0
  1  6  1  0
  4  5  1  0
  4  7  1  0
  4  8  1  0
  5  9  1  0
  5 10  1  0
M  RAD  1   4   2
M  END
>  <reaction>  (14) 
rxn_681

>  <mol_properties>  (14) 
{"0": {"label": "*3", "atom_type": "N3s"}, "1": {"label": "*4", "atom_type": "H0"}, "3": {"label": "*1", "atom_type": "Cs"}, "4": {"label": "*0", "atom_type": "N3s"}, "5": {"label": "*2", "atom_type": "H0"}}

>  <type>  (14) 
unop_10

>  <geom_source>  (14) 
Heuristics

$$$$

     RDKit          3D

 10  8  0  0  0  0  0  0  0  0999 V2000
   -0.0166    1.4709    1.1736 N   0  0  0  0  0  0  0  0  0  0  0  0
    0.4656    1.3935    2.0591 H   0  0  0  0  0  0  0  0  0  0  0  0
    0.2745    2.4318    1.0528 H   0  0  0  0  0  0  0  0  0  0  0  0
   -0.0166   -0.8229    0.1028 C   0  0  0  0  0  3  0  0  0  0  0  0
   -0.0166   -0.8229   -1.3535 N   0  0  0  0  0  0  0  0  0  0  0  0
   -0.0166    0.3714    0.6603 H   0  0  0  0  0  0  0  0  0  0  0  0
    0.8612   -1.3613    0.4634 H   0  0  0  0  0  0  0  0  0  0  0  0
   -0.8943   -1.3613    0.4634 H   0  0  0  0  0  0  0  0  0  0  0  0
    0.7959   -0.3403   -1.7115 H   0  0  0  0  0  0  0  0  0  0  0  0
   -0.8291   -0.3403   -1.7115 H   0  0  0  0  0  0  0  0  0  0  0  0
  1  2  1  0
  1  3  1  0
  1  6  1  0
  4  5  1  0
  4  7  1  0
  4  8  1  0
  5  9  1  0
  5 10  1  0
M  RAD  1   4   2
M  END
>  <reaction>  (15) 
rxn_681

>  <mol_properties>  (15) 
{"0": {"label": "*3", "atom_type": "N3s"}, "1": {"label": "*4", "atom_type": "H0"}, "3": {"label": "*1", "atom_type": "Cs"}, "4": {"label": "*0", "atom_type": "N3s"}, "5": {"label": "*2", "atom_type": "H0"}}

>  <type>  (15) 
unop_11

>  <geom_source>  (15) 
Heuristics

$$$$

     RDKit          3D

 10  8  0  0  0  0  0  0  0  0999 V2000
    0.0186    1.4804    1.1962 N   0  0  0  0  0  0  0  0  0  0  0  0
    0.0186    2.1642    0.4511 H   0  0  0  0  0  0  0  0  0  0  0  0
   -0.8517    1.2365    1.6497 H   0  0  0  0  0  0  0  0  0  0  0  0
    0.0186   -0.8134    0.1254 C   0  0  0  0  0  3  0  0  0  0  0  0
    0.0186   -0.8134   -1.3309 N   0  0  0  0  0  0  0  0  0  0  0  0
    0.0186    0.3809    0.6829 H   0  0  0  0  0  0  0  0  0  0  0  0
    0.8964   -1.3518    0.4860 H   0  0  0  0  0  0  0  0  0  0  0  0
   -0.8591   -1.3518    0.4860 H   0  0  0  0  0  0  0  0  0  0  0  0
    0.8311   -0.3308   -1.6888 H   0  0  0  0  0  0  0  0  0  0  0  0
   -0.7939   -0.3308   -1.6888 H   0  0  0  0  0  0  0  0  0  0  0  0
  1  2  1  0
  1  3  1  0
  1  6  1  0
  4  5  1  0
  4  7  1  0
  4  8  1  0
  5  9  1  0
  5 10  1  0
M  RAD  1   4   2
M  END
>  <reaction>  (16) 
rxn_681

>  <mol_properties>  (16) 
{"0": {"label": "*3", "atom_type": "N3s"}, "1": {"label": "*4", "atom_type": "H0"}, "3": {"label": "*1", "atom_type": "Cs"}, "4": {"label": "*0", "atom_type": "N3s"}, "5": {"label": "*2", "atom_type": "H0"}}

>  <type>  (16) 
unop_12

>  <geom_source>  (16) 
Heuristics

$$$$
