
     RDKit          3D

 18 18  0  0  0  0  0  0  0  0999 V2000
   -2.4852    0.3210   -0.3966 C   0  0  0  0  0  0  0  0  0  0  0  0
   -1.5917   -0.2708    0.6941 C   0  0  0  0  0  0  0  0  0  0  0  0
   -0.1292   -0.1692    0.3493 C   0  0  0  0  0  0  0  0  0  0  0  0
    0.6099    0.9558    0.7015 C   0  0  0  0  0  0  0  0  0  0  0  0
    1.9447    1.0728    0.3458 C   0  0  0  0  0  0  0  0  0  0  0  0
    2.5646    0.0613   -0.3720 C   0  0  0  0  0  0  0  0  0  0  0  0
    1.8399   -1.0657   -0.7287 C   0  0  0  0  0  0  0  0  0  0  0  0
    0.5055   -1.1769   -0.3700 C   0  0  0  0  0  0  0  0  0  0  0  0
   -2.3325   -0.1971   -1.3452 H   0  0  0  0  0  0  0  0  0  0  0  0
   -2.2554    1.3763   -0.5546 H   0  0  0  0  0  0  0  0  0  0  0  0
   -3.5397    0.2376   -0.1280 H   0  0  0  0  0  0  0  0  0  0  0  0
   -1.7801    0.2462    1.6380 H   0  0  0  0  0  0  0  0  0  0  0  0
   -1.8568   -1.3190    0.8516 H   0  0  0  0  0  0  0  0  0  0  0  0
    0.1327    1.7497    1.2656 H   0  0  0  0  0  0  0  0  0  0  0  0
    2.5033    1.9550    0.6330 H   0  0  0  0  0  0  0  0  0  0  0  0
    3.6077    0.1491   -0.6484 H   0  0  0  0  0  0  0  0  0  0  0  0
    2.3163   -1.8632   -1.2854 H   0  0  0  0  0  0  0  0  0  0  0  0
   -0.0540   -2.0629   -0.6500 H   0  0  0  0  0  0  0  0  0  0  0  0
  1  2  1  0
  1  9  1  0
  1 10  1  0
  1 11  1  0
  2  3  1  0
  2 12  1  0
  2 13  1  0
  3  4  2  0
  3  8  1  0
  4  5  1  0
  4 14  1  0
  5  6  2  0
  5 15  1  0
  6  7  1  0
  6 16  1  0
  7  8  2  0
  7 17  1  0
  8 18  1  0
M  END
>  <reaction>  (1) 
rxn_1488

>  <mol_properties>  (1) 
{"1": {"label": "donator", "atom_type": "Cs"}, "11": {"label": "d_hydrogen", "atom_type": "H0"}}

>  <type>  (1) 
r1h

$$$$

     RDKit          3D

  9  8  0  0  0  0  0  0  0  0999 V2000
    2.3038   -0.0269    0.1590 C   0  0  0  0  0  0  0  0  0  0  0  0
    1.1426    0.1377   -0.1648 C   0  0  0  0  0  0  0  0  0  0  0  0
   -0.1694    0.3175   -0.5203 C   0  0  0  0  0  3  0  0  0  0  0  0
   -1.3163   -0.1910    0.2856 C   0  0  0  0  0  0  0  0  0  0  0  0
    3.3199   -0.1683    0.4378 H   0  0  0  0  0  0  0  0  0  0  0  0
   -0.3786    0.8584   -1.4360 H   0  0  0  0  0  0  0  0  0  0  0  0
   -1.9694    0.6309    0.5951 H   0  0  0  0  0  0  0  0  0  0  0  0
   -1.9325   -0.8770   -0.3039 H   0  0  0  0  0  0  0  0  0  0  0  0
   -0.9753   -0.7144    1.1774 H   0  0  0  0  0  0  0  0  0  0  0  0
  1  2  3  0
  1  5  1  0
  2  3  1  0
  3  4  1  0
  3  6  1  0
  4  7  1  0
  4  8  1  0
  4  9  1  0
M  RAD  1   3   2
M  END
>  <reaction>  (2) 
rxn_1488

>  <mol_properties>  (2) 
{"2": {"label": "acceptor", "atom_type": "Cs"}}

>  <type>  (2) 
r2

$$$$

     RDKit          3D

 10  9  0  0  0  0  0  0  0  0999 V2000
    2.2738    0.0217   -0.0992 C   0  0  0  0  0  0  0  0  0  0  0  0
    1.1083    0.2960   -0.0695 C   0  0  0  0  0  0  0  0  0  0  0  0
   -0.3173    0.6046   -0.0227 C   0  0  0  0  0  0  0  0  0  0  0  0
   -1.1561   -0.5495    0.5292 C   0  0  0  0  0  0  0  0  0  0  0  0
    3.3097   -0.2166   -0.1277 H   0  0  0  0  0  0  0  0  0  0  0  0
   -0.6542    0.8617   -1.0302 H   0  0  0  0  0  0  0  0  0  0  0  0
   -0.4633    1.4978    0.5900 H   0  0  0  0  0  0  0  0  0  0  0  0
   -0.8485   -0.7997    1.5447 H   0  0  0  0  0  0  0  0  0  0  0  0
   -2.2115   -0.2752    0.5459 H   0  0  0  0  0  0  0  0  0  0  0  0
   -1.0409   -1.4407   -0.0879 H   0  0  0  0  0  0  0  0  0  0  0  0
  1  2  3  0
  1  5  1  0
  2  3  1  0
  3  4  1  0
  3  6  1  0
  3  7  1  0
  4  8  1  0
  4  9  1  0
  4 10  1  0
M  END
>  <reaction>  (3) 
rxn_1488

>  <mol_properties>  (3) 
{"2": {"label": "acceptor", "atom_type": "Cs"}, "9": {"label": "a_hydrogen", "atom_type": "H0"}}

>  <type>  (3) 
r2h

$$$$

     RDKit          3D

 27 26  0  0  0  0  0  0  0  0999 V2000
   -0.0335   -2.8892    2.3560 C   0  0  0  0  0  0  0  0  0  0  0  0
   -0.5733   -2.5782    1.3261 C   0  0  0  0  0  0  0  0  0  0  0  0
   -1.1491   -2.1598    0.0941 C   0  0  0  0  0  3  0  0  0  0  0  0
   -2.2021   -1.0772    0.1520 C   0  0  0  0  0  0  0  0  0  0  0  0
    0.4215   -3.1792    3.2720 H   0  0  0  0  0  0  0  0  0  0  0  0
   -1.3851   -2.9867   -0.5744 H   0  0  0  0  0  0  0  0  0  0  0  0
   -2.4558   -0.7398   -0.8541 H   0  0  0  0  0  0  0  0  0  0  0  0
   -3.1155   -1.4394    0.6307 H   0  0  0  0  0  0  0  0  0  0  0  0
   -1.8399   -0.2176    0.7171 H   0  0  0  0  0  0  0  0  0  0  0  0
    0.5814   -1.1065   -2.6638 C   0  0  0  0  0  0  0  0  0  0  0  0
    0.8241   -0.8658   -1.1975 C   0  0  0  0  0  0  0  0  0  0  0  0
    0.6826    0.4865   -0.6412 C   0  0  0  0  0  0  0  0  0  0  0  0
    0.0751    1.5310   -1.3426 C   0  0  0  0  0  0  0  0  0  0  0  0
   -0.1075    2.7718   -0.7535 C   0  0  0  0  0  0  0  0  0  0  0  0
    0.3057    2.9972    0.5506 C   0  0  0  0  0  0  0  0  0  0  0  0
    0.9112    1.9689    1.2616 C   0  0  0  0  0  0  0  0  0  0  0  0
    1.0981    0.7323    0.6731 C   0  0  0  0  0  0  0  0  0  0  0  0
    1.2793   -0.5379   -3.2859 H   0  0  0  0  0  0  0  0  0  0  0  0
   -0.4303   -0.8186   -2.9585 H   0  0  0  0  0  0  0  0  0  0  0  0
    0.7063   -2.1630   -2.9027 H   0  0  0  0  0  0  0  0  0  0  0  0
   -0.1261   -1.5602   -0.5712 H   0  0  0  0  0  0  0  0  0  0  0  0
    1.6895   -1.3960   -0.8011 H   0  0  0  0  0  0  0  0  0  0  0  0
   -0.2550    1.3766   -2.3620 H   0  0  0  0  0  0  0  0  0  0  0  0
   -0.5762    3.5685   -1.3180 H   0  0  0  0  0  0  0  0  0  0  0  0
    0.1600    3.9666    1.0098 H   0  0  0  0  0  0  0  0  0  0  0  0
    1.2379    2.1337    2.2808 H   0  0  0  0  0  0  0  0  0  0  0  0
    1.5584   -0.0712    1.2367 H   0  0  0  0  0  0  0  0  0  0  0  0
  1  2  3  0
  1  5  1  0
  2  3  1  0
  3  4  1  0
  3  6  1  0
  4  7  1  0
  4  8  1  0
  4  9  1  0
 10 11  1  0
 10 18  1  0
 10 19  1  0
 10 20  1  0
 11 12  1  0
 11 21  1  0
 11 22  1  0
 12 13  2  0
 12 17  1  0
 13 14  1  0
 13 23  1  0
 14 15  2  0
 14 24  1  0
 15 16  1  0
 15 25  1  0
 16 17  2  0
 16 26  1  0
 17 27  1  0
M  RAD  1   3   2
M  END
>  <reaction>  (4) 
rxn_1488

>  <mol_properties>  (4) 
{"1": {"label": "*4", "atom_type": "Ct"}, "2": {"label": "*3", "atom_type": "Cs"}, "10": {"label": "*1", "atom_type": "Cs"}, "11": {"label": "*0", "atom_type": "Cd"}, "20": {"label": "*2", "atom_type": "H0"}}

>  <type>  (4) 
ts

$$$$

     RDKit          3D

 27 26  0  0  0  0  0  0  0  0999 V2000
   -0.6743   -4.1007    1.4370 C   0  0  0  0  0  0  0  0  0  0  0  0
   -1.0443   -3.1875    0.7560 C   0  0  0  0  0  0  0  0  0  0  0  0
   -1.4927   -2.0576   -0.0516 C   0  0  0  0  0  3  0  0  0  0  0  0
   -1.5490   -0.7491    0.7389 C   0  0  0  0  0  0  0  0  0  0  0  0
   -0.3459   -4.9114    2.0416 H   0  0  0  0  0  0  0  0  0  0  0  0
   -2.4793   -2.2884   -0.4612 H   0  0  0  0  0  0  0  0  0  0  0  0
   -1.8881    0.0653    0.0976 H   0  0  0  0  0  0  0  0  0  0  0  0
   -2.2369   -0.8351    1.5802 H   0  0  0  0  0  0  0  0  0  0  0  0
   -0.5652   -0.4922    1.1318 H   0  0  0  0  0  0  0  0  0  0  0  0
    0.6116   -0.7574   -2.4523 C   0  0  0  0  0  0  0  0  0  0  0  0
    0.6116   -0.7574   -0.9232 C   0  0  0  0  0  0  0  0  0  0  0  0
    0.6116    0.6369   -0.3538 C   0  0  0  0  0  0  0  0  0  0  0  0
   -0.5829    1.3058   -0.1061 C   0  0  0  0  0  0  0  0  0  0  0  0
   -0.5862    2.6061    0.3749 C   0  0  0  0  0  0  0  0  0  0  0  0
    0.6116    3.2614    0.6167 C   0  0  0  0  0  0  0  0  0  0  0  0
    1.8094    2.6061    0.3749 C   0  0  0  0  0  0  0  0  0  0  0  0
    1.8061    1.3058   -0.1061 C   0  0  0  0  0  0  0  0  0  0  0  0
    1.4929   -0.2423   -2.8391 H   0  0  0  0  0  0  0  0  0  0  0  0
   -0.2697   -0.2423   -2.8391 H   0  0  0  0  0  0  0  0  0  0  0  0
    0.6116   -1.7758   -2.8446 H   0  0  0  0  0  0  0  0  0  0  0  0
   -0.4404   -1.4074   -0.4875 H   0  0  0  0  0  0  0  0  0  0  0  0
    1.4882   -1.2991   -0.5601 H   0  0  0  0  0  0  0  0  0  0  0  0
   -1.5238    0.7987   -0.2898 H   0  0  0  0  0  0  0  0  0  0  0  0
   -1.5270    3.1078    0.5648 H   0  0  0  0  0  0  0  0  0  0  0  0
    0.6116    4.2758    0.9950 H   0  0  0  0  0  0  0  0  0  0  0  0
    2.7502    3.1078    0.5648 H   0  0  0  0  0  0  0  0  0  0  0  0
    2.7470    0.7987   -0.2898 H   0  0  0  0  0  0  0  0  0  0  0  0
  1  2  3  0
  1  5  1  0
  2  3  1  0
  3  4  1  0
  3  6  1  0
  4  7  1  0
  4  8  1  0
  4  9  1  0
 10 11  1  0
 10 18  1  0
 10 19  1  0
 10 20  1  0
 11 12  1  0
 11 21  1  0
 11 22  1  0
 12 13  2  0
 12 17  1  0
 13 14  1  0
 13 23  1  0
 14 15  2  0
 14 24  1  0
 15 16  1  0
 15 25  1  0
 16 17  2  0
 16 26  1  0
 17 27  1  0
M  RAD  1   3   2
M  END
>  <reaction>  (5) 
rxn_1488

>  <mol_properties>  (5) 
{"1": {"label": "*4", "atom_type": "Ct"}, "2": {"label": "*3", "atom_type": "Cs"}, "10": {"label": "*1", "atom_type": "Cs"}, "11": {"label": "*0", "atom_type": "Cd"}, "20": {"label": "*2", "atom_type": "H0"}}

>  <type>  (5) 
unop_1

>  <geom_source>  (5) 
Heuristics

$$$$

     RDKit          3D

 27 26  0  0  0  0  0  0  0  0999 V2000
   -2.0160   -3.7870   -1.4501 C   0  0  0  0  0  0  0  0  0  0  0  0
   -1.7368   -2.9261   -0.6655 C   0  0  0  0  0  0  0  0  0  0  0  0
   -1.3855   -1.8967    0.3075 C   0  0  0  0  0  3  0  0  0  0  0  0
   -0.6881   -2.4640    1.5453 C   0  0  0  0  0  0  0  0  0  0  0  0
   -2.2639   -4.5512   -2.1466 H   0  0  0  0  0  0  0  0  0  0  0  0
   -2.2949   -1.3670    0.6020 H   0  0  0  0  0  0  0  0  0  0  0  0
   -0.4449   -1.6617    2.2428 H   0  0  0  0  0  0  0  0  0  0  0  0
   -1.3302   -3.1821    2.0556 H   0  0  0  0  0  0  0  0  0  0  0  0
    0.2354   -2.9732    1.2692 H   0  0  0  0  0  0  0  0  0  0  0  0
    0.7187   -0.5965   -2.0933 C   0  0  0  0  0  0  0  0  0  0  0  0
    0.7187   -0.5965   -0.5641 C   0  0  0  0  0  0  0  0  0  0  0  0
    0.7187    0.7978    0.0053 C   0  0  0  0  0  0  0  0  0  0  0  0
   -0.4758    1.4667    0.2530 C   0  0  0  0  0  0  0  0  0  0  0  0
   -0.4791    2.7669    0.7339 C   0  0  0  0  0  0  0  0  0  0  0  0
    0.7187    3.4223    0.9757 C   0  0  0  0  0  0  0  0  0  0  0  0
    1.9165    2.7669    0.7339 C   0  0  0  0  0  0  0  0  0  0  0  0
    1.9132    1.4667    0.2530 C   0  0  0  0  0  0  0  0  0  0  0  0
    1.6000   -0.0815   -2.4801 H   0  0  0  0  0  0  0  0  0  0  0  0
   -0.1626   -0.0815   -2.4801 H   0  0  0  0  0  0  0  0  0  0  0  0
    0.7187   -1.6149   -2.4856 H   0  0  0  0  0  0  0  0  0  0  0  0
   -0.3332   -1.2465   -0.1284 H   0  0  0  0  0  0  0  0  0  0  0  0
    1.5954   -1.1382   -0.2010 H   0  0  0  0  0  0  0  0  0  0  0  0
   -1.4167    0.9595    0.0693 H   0  0  0  0  0  0  0  0  0  0  0  0
   -1.4199    3.2686    0.9238 H   0  0  0  0  0  0  0  0  0  0  0  0
    0.7187    4.4366    1.3541 H   0  0  0  0  0  0  0  0  0  0  0  0
    2.8573    3.2686    0.9238 H   0  0  0  0  0  0  0  0  0  0  0  0
    2.8541    0.9595    0.0693 H   0  0  0  0  0  0  0  0  0  0  0  0
  1  2  3  0
  1  5  1  0
  2  3  1  0
  3  4  1  0
  3  6  1  0
  4  7  1  0
  4  8  1  0
  4  9  1  0
 10 11  1  0
 10 18  1  0
 10 19  1  0
 10 20  1  0
 11 12  1  0
 11 21  1  0
 11 22  1  0
 12 13  2  0
 12 17  1  0
 13 14  1  0
 13 23  1  0
 14 15  2  0
 14 24  1  0
 15 16  1  0
 15 25  1  0
 16 17  2  0
 16 26  1  0
 17 27  1  0
M  RAD  1   3   2
M  END
>  <reaction>  (6) 
rxn_1488

>  <mol_properties>  (6) 
{"1": {"label": "*4", "atom_type": "Ct"}, "2": {"label": "*3", "atom_type": "Cs"}, "10": {"label": "*1", "atom_type": "Cs"}, "11": {"label": "*0", "atom_type": "Cd"}, "20": {"label": "*2", "atom_type": "H0"}}

>  <type>  (6) 
unop_2

>  <geom_source>  (6) 
Heuristics

$$$$

     RDKit          3D

 27 26  0  0  0  0  0  0  0  0999 V2000
   -0.8201   -3.2735    2.2545 C   0  0  0  0  0  0  0  0  0  0  0  0
   -1.0782   -2.7902    1.1894 C   0  0  0  0  0  0  0  0  0  0  0  0
   -1.4036   -2.1790   -0.0953 C   0  0  0  0  0  3  0  0  0  0  0  0
   -2.0860   -0.8178    0.0515 C   0  0  0  0  0  0  0  0  0  0  0  0
   -0.5911   -3.7025    3.2000 H   0  0  0  0  0  0  0  0  0  0  0  0
   -2.0487   -2.8609   -0.6551 H   0  0  0  0  0  0  0  0  0  0  0  0
   -2.3102   -0.3997   -0.9305 H   0  0  0  0  0  0  0  0  0  0  0  0
   -3.0188   -0.9111    0.6079 H   0  0  0  0  0  0  0  0  0  0  0  0
   -1.4426   -0.1185    0.5856 H   0  0  0  0  0  0  0  0  0  0  0  0
    0.7006   -0.8788   -2.4961 C   0  0  0  0  0  0  0  0  0  0  0  0
    0.7006   -0.8788   -0.9670 C   0  0  0  0  0  0  0  0  0  0  0  0
    0.7006    0.5154   -0.3976 C   0  0  0  0  0  0  0  0  0  0  0  0
   -0.4939    1.1844   -0.1498 C   0  0  0  0  0  0  0  0  0  0  0  0
   -0.4972    2.4846    0.3311 C   0  0  0  0  0  0  0  0  0  0  0  0
    0.7006    3.1400    0.5729 C   0  0  0  0  0  0  0  0  0  0  0  0
    1.8984    2.4846    0.3311 C   0  0  0  0  0  0  0  0  0  0  0  0
    1.8951    1.1844   -0.1498 C   0  0  0  0  0  0  0  0  0  0  0  0
    1.5819   -0.3638   -2.8829 H   0  0  0  0  0  0  0  0  0  0  0  0
   -0.1807   -0.3638   -2.8829 H   0  0  0  0  0  0  0  0  0  0  0  0
    0.7006   -1.8973   -2.8884 H   0  0  0  0  0  0  0  0  0  0  0  0
   -0.3514   -1.5288   -0.5312 H   0  0  0  0  0  0  0  0  0  0  0  0
    1.5772   -1.4205   -0.6038 H   0  0  0  0  0  0  0  0  0  0  0  0
   -1.4348    0.6772   -0.3336 H   0  0  0  0  0  0  0  0  0  0  0  0
   -1.4380    2.9863    0.5210 H   0  0  0  0  0  0  0  0  0  0  0  0
    0.7006    4.1543    0.9513 H   0  0  0  0  0  0  0  0  0  0  0  0
    2.8392    2.9863    0.5210 H   0  0  0  0  0  0  0  0  0  0  0  0
    2.8360    0.6772   -0.3336 H   0  0  0  0  0  0  0  0  0  0  0  0
  1  2  3  0
  1  5  1  0
  2  3  1  0
  3  4  1  0
  3  6  1  0
  4  7  1  0
  4  8  1  0
  4  9  1  0
 10 11  1  0
 10 18  1  0
 10 19  1  0
 10 20  1  0
 11 12  1  0
 11 21  1  0
 11 22  1  0
 12 13  2  0
 12 17  1  0
 13 14  1  0
 13 23  1  0
 14 15  2  0
 14 24  1  0
 15 16  1  0
 15 25  1  0
 16 17  2  0
 16 26  1  0
 17 27  1  0
M  RAD  1   3   2
M  END
>  <reaction>  (7) 
rxn_1488

>  <mol_properties>  (7) 
{"1": {"label": "*4", "atom_type": "Ct"}, "2": {"label": "*3", "atom_type": "Cs"}, "10": {"label": "*1", "atom_type": "Cs"}, "11": {"label": "*0", "atom_type": "Cd"}, "20": {"label": "*2", "atom_type": "H0"}}

>  <type>  (7) 
unop_3

>  <geom_source>  (7) 
Heuristics

$$$$

     RDKit          3D

 27 26  0  0  0  0  0  0  0  0999 V2000
   -3.3037   -1.0021   -0.6115 C   0  0  0  0  0  0  0  0  0  0  0  0
   -2.3069   -1.5278   -0.2060 C   0  0  0  0  0  0  0  0  0  0  0  0
   -1.1061   -2.1929    0.2899 C   0  0  0  0  0  3  0  0  0  0  0  0
   -1.3268   -3.6794    0.5757 C   0  0  0  0  0  0  0  0  0  0  0  0
   -4.1887   -0.5354   -0.9715 H   0  0  0  0  0  0  0  0  0  0  0  0
   -0.7727   -1.6843    1.1980 H   0  0  0  0  0  0  0  0  0  0  0  0
   -0.4061   -4.1342    0.9430 H   0  0  0  0  0  0  0  0  0  0  0  0
   -2.1037   -3.8173    1.3278 H   0  0  0  0  0  0  0  0  0  0  0  0
   -1.6345   -4.2052   -0.3283 H   0  0  0  0  0  0  0  0  0  0  0  0
    0.9981   -0.8927   -2.1108 C   0  0  0  0  0  0  0  0  0  0  0  0
    0.9981   -0.8927   -0.5817 C   0  0  0  0  0  0  0  0  0  0  0  0
    0.9981    0.5016   -0.0123 C   0  0  0  0  0  0  0  0  0  0  0  0
   -0.1964    1.1706    0.2354 C   0  0  0  0  0  0  0  0  0  0  0  0
   -0.1997    2.4708    0.7164 C   0  0  0  0  0  0  0  0  0  0  0  0
    0.9981    3.1261    0.9582 C   0  0  0  0  0  0  0  0  0  0  0  0
    2.1959    2.4708    0.7164 C   0  0  0  0  0  0  0  0  0  0  0  0
    2.1926    1.1706    0.2354 C   0  0  0  0  0  0  0  0  0  0  0  0
    1.8794   -0.3776   -2.4976 H   0  0  0  0  0  0  0  0  0  0  0  0
    0.1168   -0.3776   -2.4976 H   0  0  0  0  0  0  0  0  0  0  0  0
    0.9981   -1.9111   -2.5031 H   0  0  0  0  0  0  0  0  0  0  0  0
   -0.0539   -1.5427   -0.1460 H   0  0  0  0  0  0  0  0  0  0  0  0
    1.8747   -1.4343   -0.2186 H   0  0  0  0  0  0  0  0  0  0  0  0
   -1.1373    0.6634    0.0517 H   0  0  0  0  0  0  0  0  0  0  0  0
   -1.1405    2.9725    0.9063 H   0  0  0  0  0  0  0  0  0  0  0  0
    0.9981    4.1405    1.3365 H   0  0  0  0  0  0  0  0  0  0  0  0
    3.1367    2.9725    0.9063 H   0  0  0  0  0  0  0  0  0  0  0  0
    3.1335    0.6634    0.0517 H   0  0  0  0  0  0  0  0  0  0  0  0
  1  2  3  0
  1  5  1  0
  2  3  1  0
  3  4  1  0
  3  6  1  0
  4  7  1  0
  4  8  1  0
  4  9  1  0
 10 11  1  0
 10 18  1  0
 10 19  1  0
 10 20  1  0
 11 12  1  0
 11 21  1  0
 11 22  1  0
 12 13  2  0
 12 17  1  0
 13 14  1  0
 13 23  1  0
 14 15  2  0
 14 24  1  0
 15 16  1  0
 15 25  1  0
 16 17  2  0
 16 26  1  0
 17 27  1  0
M  RAD  1   3   2
M  END
>  <reaction>  (8) 
rxn_1488

>  <mol_properties>  (8) 
{"1": {"label": "*4", "atom_type": "Ct"}, "2": {"label": "*3", "atom_type": "Cs"}, "10": {"label": "*1", "atom_type": "Cs"}, "11": {"label": "*0", "atom_type": "Cd"}, "20": {"label": "*2", "atom_type": "H0"}}

>  <type>  (8) 
unop_4

>  <geom_source>  (8) 
Heuristics

$$$$

     RDKit          3D

 27 26  0  0  0  0  0  0  0  0999 V2000
   -1.2719   -2.2176    2.5937 C   0  0  0  0  0  0  0  0  0  0  0  0
   -1.2631   -2.2351    1.3961 C   0  0  0  0  0  0  0  0  0  0  0  0
   -1.2777   -2.2441   -0.0632 C   0  0  0  0  0  3  0  0  0  0  0  0
   -2.5504   -1.6283   -0.6473 C   0  0  0  0  0  0  0  0  0  0  0  0
   -1.2798   -2.2020    3.6568 H   0  0  0  0  0  0  0  0  0  0  0  0
   -1.1699   -3.2753   -0.4090 H   0  0  0  0  0  0  0  0  0  0  0  0
   -2.5178   -1.6563   -1.7371 H   0  0  0  0  0  0  0  0  0  0  0  0
   -3.4325   -2.1754   -0.3143 H   0  0  0  0  0  0  0  0  0  0  0  0
   -2.6575   -0.5904   -0.3318 H   0  0  0  0  0  0  0  0  0  0  0  0
    0.8265   -0.9439   -2.4640 C   0  0  0  0  0  0  0  0  0  0  0  0
    0.8265   -0.9439   -0.9348 C   0  0  0  0  0  0  0  0  0  0  0  0
    0.8265    0.4504   -0.3654 C   0  0  0  0  0  0  0  0  0  0  0  0
   -0.3680    1.1193   -0.1177 C   0  0  0  0  0  0  0  0  0  0  0  0
   -0.3713    2.4195    0.3632 C   0  0  0  0  0  0  0  0  0  0  0  0
    0.8265    3.0749    0.6050 C   0  0  0  0  0  0  0  0  0  0  0  0
    2.0243    2.4195    0.3632 C   0  0  0  0  0  0  0  0  0  0  0  0
    2.0211    1.1193   -0.1177 C   0  0  0  0  0  0  0  0  0  0  0  0
    1.7078   -0.4289   -2.8508 H   0  0  0  0  0  0  0  0  0  0  0  0
   -0.0547   -0.4289   -2.8508 H   0  0  0  0  0  0  0  0  0  0  0  0
    0.8265   -1.9623   -2.8563 H   0  0  0  0  0  0  0  0  0  0  0  0
   -0.2254   -1.5939   -0.4991 H   0  0  0  0  0  0  0  0  0  0  0  0
    1.7032   -1.4856   -0.5717 H   0  0  0  0  0  0  0  0  0  0  0  0
   -1.3089    0.6121   -0.3014 H   0  0  0  0  0  0  0  0  0  0  0  0
   -1.3121    2.9212    0.5531 H   0  0  0  0  0  0  0  0  0  0  0  0
    0.8265    4.0892    0.9834 H   0  0  0  0  0  0  0  0  0  0  0  0
    2.9651    2.9212    0.5531 H   0  0  0  0  0  0  0  0  0  0  0  0
    2.9620    0.6121   -0.3014 H   0  0  0  0  0  0  0  0  0  0  0  0
  1  2  3  0
  1  5  1  0
  2  3  1  0
  3  4  1  0
  3  6  1  0
  4  7  1  0
  4  8  1  0
  4  9  1  0
 10 11  1  0
 10 18  1  0
 10 19  1  0
 10 20  1  0
 11 12  1  0
 11 21  1  0
 11 22  1  0
 12 13  2  0
 12 17  1  0
 13 14  1  0
 13 23  1  0
 14 15  2  0
 14 24  1  0
 15 16  1  0
 15 25  1  0
 16 17  2  0
 16 26  1  0
 17 27  1  0
M  RAD  1   3   2
M  END
>  <reaction>  (9) 
rxn_1488

>  <mol_properties>  (9) 
{"1": {"label": "*4", "atom_type": "Ct"}, "2": {"label": "*3", "atom_type": "Cs"}, "10": {"label": "*1", "atom_type": "Cs"}, "11": {"label": "*0", "atom_type": "Cd"}, "20": {"label": "*2", "atom_type": "H0"}}

>  <type>  (9) 
unop_5

>  <geom_source>  (9) 
Heuristics

$$$$

     RDKit          3D

 27 26  0  0  0  0  0  0  0  0999 V2000
   -3.1283   -0.5579    0.4606 C   0  0  0  0  0  0  0  0  0  0  0  0
   -2.2085   -1.3143    0.3330 C   0  0  0  0  0  0  0  0  0  0  0  0
   -1.1059   -2.2576    0.1771 C   0  0  0  0  0  3  0  0  0  0  0  0
   -1.5754   -3.7116    0.1022 C   0  0  0  0  0  0  0  0  0  0  0  0
   -3.9449    0.1136    0.5740 H   0  0  0  0  0  0  0  0  0  0  0  0
   -0.4151   -2.1317    1.0147 H   0  0  0  0  0  0  0  0  0  0  0  0
   -0.7208   -4.3790   -0.0137 H   0  0  0  0  0  0  0  0  0  0  0  0
   -2.1116   -3.9918    1.0090 H   0  0  0  0  0  0  0  0  0  0  0  0
   -2.2452   -3.8582   -0.7453 H   0  0  0  0  0  0  0  0  0  0  0  0
    0.9984   -0.9573   -2.2236 C   0  0  0  0  0  0  0  0  0  0  0  0
    0.9984   -0.9573   -0.6945 C   0  0  0  0  0  0  0  0  0  0  0  0
    0.9984    0.4369   -0.1251 C   0  0  0  0  0  0  0  0  0  0  0  0
   -0.1961    1.1059    0.1226 C   0  0  0  0  0  0  0  0  0  0  0  0
   -0.1994    2.4061    0.6036 C   0  0  0  0  0  0  0  0  0  0  0  0
    0.9984    3.0615    0.8454 C   0  0  0  0  0  0  0  0  0  0  0  0
    2.1962    2.4061    0.6036 C   0  0  0  0  0  0  0  0  0  0  0  0
    2.1929    1.1059    0.1226 C   0  0  0  0  0  0  0  0  0  0  0  0
    1.8797   -0.4423   -2.6104 H   0  0  0  0  0  0  0  0  0  0  0  0
    0.1171   -0.4423   -2.6104 H   0  0  0  0  0  0  0  0  0  0  0  0
    0.9984   -1.9758   -2.6159 H   0  0  0  0  0  0  0  0  0  0  0  0
   -0.0536   -1.6074   -0.2587 H   0  0  0  0  0  0  0  0  0  0  0  0
    1.8750   -1.4990   -0.3314 H   0  0  0  0  0  0  0  0  0  0  0  0
   -1.1370    0.5987   -0.0611 H   0  0  0  0  0  0  0  0  0  0  0  0
   -1.1402    2.9078    0.7935 H   0  0  0  0  0  0  0  0  0  0  0  0
    0.9984    4.0758    1.2237 H   0  0  0  0  0  0  0  0  0  0  0  0
    3.1370    2.9078    0.7935 H   0  0  0  0  0  0  0  0  0  0  0  0
    3.1338    0.5987   -0.0611 H   0  0  0  0  0  0  0  0  0  0  0  0
  1  2  3  0
  1  5  1  0
  2  3  1  0
  3  4  1  0
  3  6  1  0
  4  7  1  0
  4  8  1  0
  4  9  1  0
 10 11  1  0
 10 18  1  0
 10 19  1  0
 10 20  1  0
 11 12  1  0
 11 21  1  0
 11 22  1  0
 12 13  2  0
 12 17  1  0
 13 14  1  0
 13 23  1  0
 14 15  2  0
 14 24  1  0
 15 16  1  0
 15 25  1  0
 16 17  2  0
 16 26  1  0
 17 27  1  0
M  RAD  1   3   2
M  END
>  <reaction>  (10) 
rxn_1488

>  <mol_properties>  (10) 
{"1": {"label": "*4", "atom_type": "Ct"}, "2": {"label": "*3", "atom_type": "Cs"}, "10": {"label": "*1", "atom_type": "Cs"}, "11": {"label": "*0", "atom_type": "Cd"}, "20": {"label": "*2", "atom_type": "H0"}}

>  <type>  (10) 
unop_6

>  <geom_source>  (10) 
Heuristics

$$$$

     RDKit          3D

 27 26  0  0  0  0  0  0  0  0999 V2000
   -2.6353   -0.6335    1.5382 C   0  0  0  0  0  0  0  0  0  0  0  0
   -1.9525   -1.3633    0.8782 C   0  0  0  0  0  0  0  0  0  0  0  0
   -1.1425   -2.2698    0.0706 C   0  0  0  0  0  3  0  0  0  0  0  0
   -1.9257   -3.4903   -0.4164 C   0  0  0  0  0  0  0  0  0  0  0  0
   -3.2416    0.0144    2.1242 H   0  0  0  0  0  0  0  0  0  0  0  0
   -0.2809   -2.5912    0.6611 H   0  0  0  0  0  0  0  0  0  0  0  0
   -1.2829   -4.1378   -1.0139 H   0  0  0  0  0  0  0  0  0  0  0  0
   -2.3076   -4.0662    0.4267 H   0  0  0  0  0  0  0  0  0  0  0  0
   -2.7741   -3.1857   -1.0295 H   0  0  0  0  0  0  0  0  0  0  0  0
    0.9617   -0.9696   -2.3301 C   0  0  0  0  0  0  0  0  0  0  0  0
    0.9617   -0.9696   -0.8010 C   0  0  0  0  0  0  0  0  0  0  0  0
    0.9617    0.4247   -0.2316 C   0  0  0  0  0  0  0  0  0  0  0  0
   -0.2328    1.0937    0.0161 C   0  0  0  0  0  0  0  0  0  0  0  0
   -0.2361    2.3939    0.4971 C   0  0  0  0  0  0  0  0  0  0  0  0
    0.9617    3.0492    0.7389 C   0  0  0  0  0  0  0  0  0  0  0  0
    2.1595    2.3939    0.4971 C   0  0  0  0  0  0  0  0  0  0  0  0
    2.1562    1.0937    0.0161 C   0  0  0  0  0  0  0  0  0  0  0  0
    1.8430   -0.4545   -2.7169 H   0  0  0  0  0  0  0  0  0  0  0  0
    0.0804   -0.4545   -2.7169 H   0  0  0  0  0  0  0  0  0  0  0  0
    0.9617   -1.9880   -2.7224 H   0  0  0  0  0  0  0  0  0  0  0  0
   -0.0903   -1.6196   -0.3652 H   0  0  0  0  0  0  0  0  0  0  0  0
    1.8383   -1.5112   -0.4379 H   0  0  0  0  0  0  0  0  0  0  0  0
   -1.1737    0.5865   -0.1676 H   0  0  0  0  0  0  0  0  0  0  0  0
   -1.1769    2.8956    0.6870 H   0  0  0  0  0  0  0  0  0  0  0  0
    0.9617    4.0636    1.1172 H   0  0  0  0  0  0  0  0  0  0  0  0
    3.1003    2.8956    0.6870 H   0  0  0  0  0  0  0  0  0  0  0  0
    3.0971    0.5865   -0.1676 H   0  0  0  0  0  0  0  0  0  0  0  0
  1  2  3  0
  1  5  1  0
  2  3  1  0
  3  4  1  0
  3  6  1  0
  4  7  1  0
  4  8  1  0
  4  9  1  0
 10 11  1  0
 10 18  1  0
 10 19  1  0
 10 20  1  0
 11 12  1  0
 11 21  1  0
 11 22  1  0
 12 13  2  0
 12 17  1  0
 13 14  1  0
 13 23  1  0
 14 15  2  0
 14 24  1  0
 15 16  1  0
 15 25  1  0
 16 17  2  0
 16 26  1  0
 17 27  1  0
M  RAD  1   3   2
M  END
>  <reaction>  (11) 
rxn_1488

>  <mol_properties>  (11) 
{"1": {"label": "*4", "atom_type": "Ct"}, "2": {"label": "*3", "atom_type": "Cs"}, "10": {"label": "*1", "atom_type": "Cs"}, "11": {"label": "*0", "atom_type": "Cd"}, "20": {"label": "*2", "atom_type": "H0"}}

>  <type>  (11) 
unop_7

>  <geom_source>  (11) 
Heuristics

$$$$

     RDKit          3D

 27 26  0  0  0  0  0  0  0  0999 V2000
   -0.8692   -4.5085    0.3591 C   0  0  0  0  0  0  0  0  0  0  0  0
   -1.1656   -3.3576    0.2104 C   0  0  0  0  0  0  0  0  0  0  0  0
   -1.5159   -1.9494    0.0545 C   0  0  0  0  0  3  0  0  0  0  0  0
   -1.1115   -1.1007    1.2613 C   0  0  0  0  0  0  0  0  0  0  0  0
   -0.6061   -5.5302    0.4911 H   0  0  0  0  0  0  0  0  0  0  0  0
   -2.5934   -1.8720   -0.1113 H   0  0  0  0  0  0  0  0  0  0  0  0
   -1.3918   -0.0589    1.1014 H   0  0  0  0  0  0  0  0  0  0  0  0
   -1.6047   -1.4558    2.1663 H   0  0  0  0  0  0  0  0  0  0  0  0
   -0.0344   -1.1474    1.4231 H   0  0  0  0  0  0  0  0  0  0  0  0
    0.5883   -0.6492   -2.3462 C   0  0  0  0  0  0  0  0  0  0  0  0
    0.5883   -0.6492   -0.8171 C   0  0  0  0  0  0  0  0  0  0  0  0
    0.5883    0.7451   -0.2477 C   0  0  0  0  0  0  0  0  0  0  0  0
   -0.6062    1.4140    0.0000 C   0  0  0  0  0  0  0  0  0  0  0  0
   -0.6095    2.7142    0.4810 C   0  0  0  0  0  0  0  0  0  0  0  0
    0.5883    3.3696    0.7228 C   0  0  0  0  0  0  0  0  0  0  0  0
    1.7861    2.7142    0.4810 C   0  0  0  0  0  0  0  0  0  0  0  0
    1.7828    1.4140    0.0000 C   0  0  0  0  0  0  0  0  0  0  0  0
    1.4696   -0.1342   -2.7330 H   0  0  0  0  0  0  0  0  0  0  0  0
   -0.2930   -0.1342   -2.7330 H   0  0  0  0  0  0  0  0  0  0  0  0
    0.5883   -1.6677   -2.7385 H   0  0  0  0  0  0  0  0  0  0  0  0
   -0.4637   -1.2992   -0.3813 H   0  0  0  0  0  0  0  0  0  0  0  0
    1.4649   -1.1909   -0.4540 H   0  0  0  0  0  0  0  0  0  0  0  0
   -1.5471    0.9068   -0.1837 H   0  0  0  0  0  0  0  0  0  0  0  0
   -1.5503    3.2159    0.6709 H   0  0  0  0  0  0  0  0  0  0  0  0
    0.5883    4.3839    1.1011 H   0  0  0  0  0  0  0  0  0  0  0  0
    2.7269    3.2159    0.6709 H   0  0  0  0  0  0  0  0  0  0  0  0
    2.7237    0.9068   -0.1837 H   0  0  0  0  0  0  0  0  0  0  0  0
  1  2  3  0
  1  5  1  0
  2  3  1  0
  3  4  1  0
  3  6  1  0
  4  7  1  0
  4  8  1  0
  4  9  1  0
 10 11  1  0
 10 18  1  0
 10 19  1  0
 10 20  1  0
 11 12  1  0
 11 21  1  0
 11 22  1  0
 12 13  2  0
 12 17  1  0
 13 14  1  0
 13 23  1  0
 14 15  2  0
 14 24  1  0
 15 16  1  0
 15 25  1  0
 16 17  2  0
 16 26  1  0
 17 27  1  0
M  RAD  1   3   2
M  END
>  <reaction>  (12) 
rxn_1488

>  <mol_properties>  (12) 
{"1": {"label": "*4", "atom_type": "Ct"}, "2": {"label": "*3", "atom_type": "Cs"}, "10": {"label": "*1", "atom_type": "Cs"}, "11": {"label": "*0", "atom_type": "Cd"}, "20": {"label": "*2", "atom_type": "H0"}}

>  <type>  (12) 
unop_8

>  <geom_source>  (12) 
Heuristics

$$$$

     RDKit          3D

 27 26  0  0  0  0  0  0  0  0999 V2000
   -3.1289   -1.8392   -1.3995 C   0  0  0  0  0  0  0  0  0  0  0  0
   -2.2385   -1.9371   -0.6045 C   0  0  0  0  0  0  0  0  0  0  0  0
   -1.1607   -2.0834    0.3686 C   0  0  0  0  0  3  0  0  0  0  0  0
   -1.0895   -3.4892    0.9678 C   0  0  0  0  0  0  0  0  0  0  0  0
   -3.9194   -1.7522   -2.1053 H   0  0  0  0  0  0  0  0  0  0  0  0
   -1.3024   -1.3464    1.1630 H   0  0  0  0  0  0  0  0  0  0  0  0
   -0.2723   -3.5522    1.6872 H   0  0  0  0  0  0  0  0  0  0  0  0
   -2.0194   -3.7389    1.4791 H   0  0  0  0  0  0  0  0  0  0  0  0
   -0.9218   -4.2333    0.1890 H   0  0  0  0  0  0  0  0  0  0  0  0
    0.9435   -0.7832   -2.0322 C   0  0  0  0  0  0  0  0  0  0  0  0
    0.9435   -0.7832   -0.5031 C   0  0  0  0  0  0  0  0  0  0  0  0
    0.9435    0.6111    0.0663 C   0  0  0  0  0  0  0  0  0  0  0  0
   -0.2510    1.2800    0.3141 C   0  0  0  0  0  0  0  0  0  0  0  0
   -0.2543    2.5802    0.7950 C   0  0  0  0  0  0  0  0  0  0  0  0
    0.9435    3.2356    1.0368 C   0  0  0  0  0  0  0  0  0  0  0  0
    2.1413    2.5802    0.7950 C   0  0  0  0  0  0  0  0  0  0  0  0
    2.1381    1.2800    0.3141 C   0  0  0  0  0  0  0  0  0  0  0  0
    1.8248   -0.2682   -2.4190 H   0  0  0  0  0  0  0  0  0  0  0  0
    0.0623   -0.2682   -2.4190 H   0  0  0  0  0  0  0  0  0  0  0  0
    0.9435   -1.8016   -2.4245 H   0  0  0  0  0  0  0  0  0  0  0  0
   -0.1084   -1.4332   -0.0673 H   0  0  0  0  0  0  0  0  0  0  0  0
    1.8202   -1.3249   -0.1399 H   0  0  0  0  0  0  0  0  0  0  0  0
   -1.1919    0.7728    0.1303 H   0  0  0  0  0  0  0  0  0  0  0  0
   -1.1950    3.0819    0.9849 H   0  0  0  0  0  0  0  0  0  0  0  0
    0.9435    4.2499    1.4152 H   0  0  0  0  0  0  0  0  0  0  0  0
    3.0821    3.0819    0.9849 H   0  0  0  0  0  0  0  0  0  0  0  0
    3.0790    0.7728    0.1303 H   0  0  0  0  0  0  0  0  0  0  0  0
  1  2  3  0
  1  5  1  0
  2  3  1  0
  3  4  1  0
  3  6  1  0
  4  7  1  0
  4  8  1  0
  4  9  1  0
 10 11  1  0
 10 18  1  0
 10 19  1  0
 10 20  1  0
 11 12  1  0
 11 21  1  0
 11 22  1  0
 12 13  2  0
 12 17  1  0
 13 14  1  0
 13 23  1  0
 14 15  2  0
 14 24  1  0
 15 16  1  0
 15 25  1  0
 16 17  2  0
 16 26  1  0
 17 27  1  0
M  RAD  1   3   2
M  END
>  <reaction>  (13) 
rxn_1488

>  <mol_properties>  (13) 
{"1": {"label": "*4", "atom_type": "Ct"}, "2": {"label": "*3", "atom_type": "Cs"}, "10": {"label": "*1", "atom_type": "Cs"}, "11": {"label": "*0", "atom_type": "Cd"}, "20": {"label": "*2", "atom_type": "H0"}}

>  <type>  (13) 
unop_9

>  <geom_source>  (13) 
Heuristics

$$$$

     RDKit          3D

 27 26  0  0  0  0  0  0  0  0999 V2000
   -1.3604   -4.3938   -0.6966 C   0  0  0  0  0  0  0  0  0  0  0  0
   -1.4192   -3.2622   -0.3087 C   0  0  0  0  0  0  0  0  0  0  0  0
   -1.4768   -1.8908    0.1872 C   0  0  0  0  0  3  0  0  0  0  0  0
   -0.7957   -1.7228    1.5467 C   0  0  0  0  0  0  0  0  0  0  0  0
   -1.3082   -5.3985   -1.0410 H   0  0  0  0  0  0  0  0  0  0  0  0
   -2.5241   -1.5856    0.2548 H   0  0  0  0  0  0  0  0  0  0  0  0
   -0.8629   -0.6856    1.8772 H   0  0  0  0  0  0  0  0  0  0  0  0
   -1.2696   -2.3555    2.2973 H   0  0  0  0  0  0  0  0  0  0  0  0
    0.2573   -1.9988    1.4881 H   0  0  0  0  0  0  0  0  0  0  0  0
    0.6274   -0.5906   -2.2135 C   0  0  0  0  0  0  0  0  0  0  0  0
    0.6274   -0.5906   -0.6844 C   0  0  0  0  0  0  0  0  0  0  0  0
    0.6274    0.8037   -0.1150 C   0  0  0  0  0  0  0  0  0  0  0  0
   -0.5671    1.4726    0.1327 C   0  0  0  0  0  0  0  0  0  0  0  0
   -0.5704    2.7728    0.6137 C   0  0  0  0  0  0  0  0  0  0  0  0
    0.6274    3.4282    0.8555 C   0  0  0  0  0  0  0  0  0  0  0  0
    1.8252    2.7728    0.6137 C   0  0  0  0  0  0  0  0  0  0  0  0
    1.8219    1.4726    0.1327 C   0  0  0  0  0  0  0  0  0  0  0  0
    1.5087   -0.0756   -2.6004 H   0  0  0  0  0  0  0  0  0  0  0  0
   -0.2539   -0.0756   -2.6004 H   0  0  0  0  0  0  0  0  0  0  0  0
    0.6274   -1.6090   -2.6058 H   0  0  0  0  0  0  0  0  0  0  0  0
   -0.4246   -1.2406   -0.2487 H   0  0  0  0  0  0  0  0  0  0  0  0
    1.5040   -1.1323   -0.3213 H   0  0  0  0  0  0  0  0  0  0  0  0
   -1.5080    0.9654   -0.0510 H   0  0  0  0  0  0  0  0  0  0  0  0
   -1.5112    3.2745    0.8036 H   0  0  0  0  0  0  0  0  0  0  0  0
    0.6274    4.4425    1.2338 H   0  0  0  0  0  0  0  0  0  0  0  0
    2.7660    3.2745    0.8036 H   0  0  0  0  0  0  0  0  0  0  0  0
    2.7628    0.9654   -0.0510 H   0  0  0  0  0  0  0  0  0  0  0  0
  1  2  3  0
  1  5  1  0
  2  3  1  0
  3  4  1  0
  3  6  1  0
  4  7  1  0
  4  8  1  0
  4  9  1  0
 10 11  1  0
 10 18  1  0
 10 19  1  0
 10 20  1  0
 11 12  1  0
 11 21  1  0
 11 22  1  0
 12 13  2  0
 12 17  1  0
 13 14  1  0
 13 23  1  0
 14 15  2  0
 14 24  1  0
 15 16  1  0
 15 25  1  0
 16 17  2  0
 16 26  1  0
 17 27  1  0
M  RAD  1   3   2
M  END
>  <reaction>  (14) 
rxn_1488

>  <mol_properties>  (14) 
{"1": {"label": "*4", "atom_type": "Ct"}, "2": {"label": "*3", "atom_type": "Cs"}, "10": {"label": "*1", "atom_type": "Cs"}, "11": {"label": "*0", "atom_type": "Cd"}, "20": {"label": "*2", "atom_type": "H0"}}

>  <type>  (14) 
unop_10

>  <geom_source>  (14) 
Heuristics

$$$$

     RDKit          3D

 27 26  0  0  0  0  0  0  0  0999 V2000
   -1.9478   -1.2323    2.3290 C   0  0  0  0  0  0  0  0  0  0  0  0
   -1.5967   -1.6900    1.2794 C   0  0  0  0  0  0  0  0  0  0  0  0
   -1.1957   -2.2545   -0.0053 C   0  0  0  0  0  3  0  0  0  0  0  0
   -2.3754   -2.8179   -0.7996 C   0  0  0  0  0  0  0  0  0  0  0  0
   -2.2595   -0.8259    3.2609 H   0  0  0  0  0  0  0  0  0  0  0  0
   -0.4565   -3.0398    0.1717 H   0  0  0  0  0  0  0  0  0  0  0  0
   -2.0300   -3.2279   -1.7494 H   0  0  0  0  0  0  0  0  0  0  0  0
   -2.8732   -3.6114   -0.2419 H   0  0  0  0  0  0  0  0  0  0  0  0
   -3.1093   -2.0389   -1.0066 H   0  0  0  0  0  0  0  0  0  0  0  0
    0.9085   -0.9543   -2.4061 C   0  0  0  0  0  0  0  0  0  0  0  0
    0.9085   -0.9543   -0.8769 C   0  0  0  0  0  0  0  0  0  0  0  0
    0.9085    0.4400   -0.3075 C   0  0  0  0  0  0  0  0  0  0  0  0
   -0.2860    1.1089   -0.0598 C   0  0  0  0  0  0  0  0  0  0  0  0
   -0.2893    2.4092    0.4211 C   0  0  0  0  0  0  0  0  0  0  0  0
    0.9085    3.0645    0.6629 C   0  0  0  0  0  0  0  0  0  0  0  0
    2.1063    2.4092    0.4211 C   0  0  0  0  0  0  0  0  0  0  0  0
    2.1031    1.1089   -0.0598 C   0  0  0  0  0  0  0  0  0  0  0  0
    1.7898   -0.4392   -2.7929 H   0  0  0  0  0  0  0  0  0  0  0  0
    0.0273   -0.4392   -2.7929 H   0  0  0  0  0  0  0  0  0  0  0  0
    0.9085   -1.9727   -2.7984 H   0  0  0  0  0  0  0  0  0  0  0  0
   -0.1434   -1.6043   -0.4412 H   0  0  0  0  0  0  0  0  0  0  0  0
    1.7852   -1.4960   -0.5138 H   0  0  0  0  0  0  0  0  0  0  0  0
   -1.2269    0.6018   -0.2435 H   0  0  0  0  0  0  0  0  0  0  0  0
   -1.2301    2.9109    0.6110 H   0  0  0  0  0  0  0  0  0  0  0  0
    0.9085    4.0789    1.0413 H   0  0  0  0  0  0  0  0  0  0  0  0
    3.0471    2.9109    0.6110 H   0  0  0  0  0  0  0  0  0  0  0  0
    3.0440    0.6018   -0.2435 H   0  0  0  0  0  0  0  0  0  0  0  0
  1  2  3  0
  1  5  1  0
  2  3  1  0
  3  4  1  0
  3  6  1  0
  4  7  1  0
  4  8  1  0
  4  9  1  0
 10 11  1  0
 10 18  1  0
 10 19  1  0
 10 20  1  0
 11 12  1  0
 11 21  1  0
 11 22  1  0
 12 13  2  0
 12 17  1  0
 13 14  1  0
 13 23  1  0
 14 15  2  0
 14 24  1  0
 15 16  1  0
 15 25  1  0
 16 17  2  0
 16 26  1  0
 17 27  1  0
M  RAD  1   3   2
M  END
>  <reaction>  (15) 
rxn_1488

>  <mol_properties>  (15) 
{"1": {"label": "*4", "atom_type": "Ct"}, "2": {"label": "*3", "atom_type": "Cs"}, "10": {"label": "*1", "atom_type": "Cs"}, "11": {"label": "*0", "atom_type": "Cd"}, "20": {"label": "*2", "atom_type": "H0"}}

>  <type>  (15) 
unop_11

>  <geom_source>  (15) 
Heuristics

$$$$

     RDKit          3D

 27 26  0  0  0  0  0  0  0  0999 V2000
   -2.6599   -2.8530   -1.7049 C   0  0  0  0  0  0  0  0  0  0  0  0
   -2.0327   -2.4424   -0.7709 C   0  0  0  0  0  0  0  0  0  0  0  0
   -1.2657   -1.9685    0.3768 C   0  0  0  0  0  3  0  0  0  0  0  0
   -0.8302   -3.1016    1.3077 C   0  0  0  0  0  0  0  0  0  0  0  0
   -3.2168   -3.2175   -2.5342 H   0  0  0  0  0  0  0  0  0  0  0  0
   -1.8706   -1.2445    0.9286 H   0  0  0  0  0  0  0  0  0  0  0  0
   -0.2619   -2.7023    2.1486 H   0  0  0  0  0  0  0  0  0  0  0  0
   -1.6967   -3.6350    1.6990 H   0  0  0  0  0  0  0  0  0  0  0  0
   -0.2035   -3.8185    0.7770 H   0  0  0  0  0  0  0  0  0  0  0  0
    0.8385   -0.6683   -2.0239 C   0  0  0  0  0  0  0  0  0  0  0  0
    0.8385   -0.6683   -0.4948 C   0  0  0  0  0  0  0  0  0  0  0  0
    0.8385    0.7260    0.0746 C   0  0  0  0  0  0  0  0  0  0  0  0
   -0.3560    1.3949    0.3223 C   0  0  0  0  0  0  0  0  0  0  0  0
   -0.3593    2.6952    0.8032 C   0  0  0  0  0  0  0  0  0  0  0  0
    0.8385    3.3505    1.0450 C   0  0  0  0  0  0  0  0  0  0  0  0
    2.0363    2.6952    0.8032 C   0  0  0  0  0  0  0  0  0  0  0  0
    2.0330    1.3949    0.3223 C   0  0  0  0  0  0  0  0  0  0  0  0
    1.7198   -0.1532   -2.4108 H   0  0  0  0  0  0  0  0  0  0  0  0
   -0.0428   -0.1532   -2.4108 H   0  0  0  0  0  0  0  0  0  0  0  0
    0.8385   -1.6867   -2.4163 H   0  0  0  0  0  0  0  0  0  0  0  0
   -0.2135   -1.3183   -0.0591 H   0  0  0  0  0  0  0  0  0  0  0  0
    1.7151   -1.2100   -0.1317 H   0  0  0  0  0  0  0  0  0  0  0  0
   -1.2969    0.8878    0.1386 H   0  0  0  0  0  0  0  0  0  0  0  0
   -1.3001    3.1969    0.9932 H   0  0  0  0  0  0  0  0  0  0  0  0
    0.8385    4.3649    1.4234 H   0  0  0  0  0  0  0  0  0  0  0  0
    2.9771    3.1969    0.9932 H   0  0  0  0  0  0  0  0  0  0  0  0
    2.9739    0.8878    0.1386 H   0  0  0  0  0  0  0  0  0  0  0  0
  1  2  3  0
  1  5  1  0
  2  3  1  0
  3  4  1  0
  3  6  1  0
  4  7  1  0
  4  8  1  0
  4  9  1  0
 10 11  1  0
 10 18  1  0
 10 19  1  0
 10 20  1  0
 11 12  1  0
 11 21  1  0
 11 22  1  0
 12 13  2  0
 12 17  1  0
 13 14  1  0
 13 23  1  0
 14 15  2  0
 14 24  1  0
 15 16  1  0
 15 25  1  0
 16 17  2  0
 16 26  1  0
 17 27  1  0
M  RAD  1   3   2
M  END
>  <reaction>  (16) 
rxn_1488

>  <mol_properties>  (16) 
{"1": {"label": "*4", "atom_type": "Ct"}, "2": {"label": "*3", "atom_type": "Cs"}, "10": {"label": "*1", "atom_type": "Cs"}, "11": {"label": "*0", "atom_type": "Cd"}, "20": {"label": "*2", "atom_type": "H0"}}

>  <type>  (16) 
unop_12

>  <geom_source>  (16) 
Heuristics

$$$$

     RDKit          3D

 27 26  0  0  0  0  0  0  0  0999 V2000
    2.0798   -0.3272    0.8249 C   0  0  0  0  0  0  0  0  0  0  0  0
    2.8748   -1.6201    0.7039 C   0  0  0  0  0  0  0  0  0  0  0  0
    0.1580   -0.5561   -2.2486 C   0  0  0  0  0  0  0  0  0  0  0  0
   -1.1770    0.3160   -0.3283 C   0  0  0  0  0  0  0  0  0  0  0  0
    0.1929    0.1968   -0.9250 C   0  0  0  0  0  0  0  0  0  0  0  0
   -1.5842   -0.5906    0.6605 C   0  0  0  0  0  3  0  0  0  0  0  0
   -2.0684    1.3064   -0.7715 C   0  0  0  0  0  0  0  0  0  0  0  0
   -2.8673   -0.5006    1.2101 C   0  0  0  0  0  0  0  0  0  0  0  0
   -3.7495    0.4913    0.7710 C   0  0  0  0  0  0  0  0  0  0  0  0
   -3.3506    1.3935   -0.2198 C   0  0  0  0  0  0  0  0  0  0  0  0
    2.9775    0.8117    1.0466 C   0  0  0  0  0  0  0  0  0  0  0  0
    3.7144    1.7482    1.2286 C   0  0  0  0  0  0  0  0  0  0  0  0
    1.3706   -0.4028    1.6760 H   0  0  0  0  0  0  0  0  0  0  0  0
    1.3795   -0.1237   -0.3126 H   0  0  0  0  0  0  0  0  0  0  0  0
    3.4481   -1.8118    1.6364 H   0  0  0  0  0  0  0  0  0  0  0  0
    2.1771   -2.4666    0.5341 H   0  0  0  0  0  0  0  0  0  0  0  0
    3.5764   -1.5612   -0.1556 H   0  0  0  0  0  0  0  0  0  0  0  0
   -0.2676   -1.5710   -2.0993 H   0  0  0  0  0  0  0  0  0  0  0  0
    1.1916   -0.6584   -2.6394 H   0  0  0  0  0  0  0  0  0  0  0  0
   -0.4545   -0.0033   -2.9924 H   0  0  0  0  0  0  0  0  0  0  0  0
    0.6524    1.1998   -1.0605 H   0  0  0  0  0  0  0  0  0  0  0  0
   -0.9094   -1.3651    1.0039 H   0  0  0  0  0  0  0  0  0  0  0  0
   -3.1782   -1.2005    1.9748 H   0  0  0  0  0  0  0  0  0  0  0  0
   -1.7702    2.0069   -1.5417 H   0  0  0  0  0  0  0  0  0  0  0  0
   -4.7423    0.5593    1.1967 H   0  0  0  0  0  0  0  0  0  0  0  0
   -4.0353    2.1590   -0.5614 H   0  0  0  0  0  0  0  0  0  0  0  0
    4.3614    2.5703    1.3883 H   0  0  0  0  0  0  0  0  0  0  0  0
  1  2  1  0
  1 11  1  0
  1 13  1  0
  1 14  1  0
  2 15  1  0
  2 16  1  0
  2 17  1  0
  3  5  1  0
  3 18  1  0
  3 19  1  0
  3 20  1  0
  4  5  2  3
  4  6  1  0
  4  7  1  0
  5 21  1  0
  6  8  1  0
  6 22  1  0
  7 10  2  0
  7 24  1  0
  8  9  2  0
  8 23  1  0
  9 10  1  0
  9 25  1  0
 10 26  1  0
 11 12  3  0
 12 27  1  0
M  RAD  1   6   2
M  END
>  <reaction>  (17) 
rxn_1488

>  <mol_properties>  (17) 
{"1": {"label": "*4", "atom_type": "Ct"}, "2": {"label": "*3", "atom_type": "Cs"}, "10": {"label": "*1", "atom_type": "Cs"}, "11": {"label": "*0", "atom_type": "Cd"}, "20": {"label": "*2", "atom_type": "H0"}}

>  <type>  (17) 
unop_13

>  <geom_source>  (17) 
AutoTST

$$$$

     RDKit          3D

 27 26  0  0  0  0  0  0  0  0999 V2000
   -2.0160   -3.7870   -1.4501 C   0  0  0  0  0  0  0  0  0  0  0  0
   -1.7368   -2.9261   -0.6655 C   0  0  0  0  0  0  0  0  0  0  0  0
   -1.3855   -1.8967    0.3075 C   0  0  0  0  0  3  0  0  0  0  0  0
   -0.6881   -2.4640    1.5453 C   0  0  0  0  0  0  0  0  0  0  0  0
   -2.2639   -4.5512   -2.1466 H   0  0  0  0  0  0  0  0  0  0  0  0
   -2.2949   -1.3670    0.6020 H   0  0  0  0  0  0  0  0  0  0  0  0
   -0.4449   -1.6617    2.2428 H   0  0  0  0  0  0  0  0  0  0  0  0
   -1.3302   -3.1821    2.0556 H   0  0  0  0  0  0  0  0  0  0  0  0
    0.2354   -2.9732    1.2692 H   0  0  0  0  0  0  0  0  0  0  0  0
    0.7187   -0.5965   -2.0933 C   0  0  0  0  0  0  0  0  0  0  0  0
    0.7187   -0.5965   -0.5642 C   0  0  0  0  0  0  0  0  0  0  0  0
    0.7187    0.7978    0.0053 C   0  0  0  0  0  0  0  0  0  0  0  0
   -0.4758    1.4667    0.2530 C   0  0  0  0  0  0  0  0  0  0  0  0
   -0.4791    2.7669    0.7339 C   0  0  0  0  0  0  0  0  0  0  0  0
    0.7187    3.4223    0.9757 C   0  0  0  0  0  0  0  0  0  0  0  0
    1.9165    2.7669    0.7339 C   0  0  0  0  0  0  0  0  0  0  0  0
    1.9132    1.4667    0.2530 C   0  0  0  0  0  0  0  0  0  0  0  0
    1.6000   -0.0815   -2.4801 H   0  0  0  0  0  0  0  0  0  0  0  0
   -0.1626   -0.0815   -2.4801 H   0  0  0  0  0  0  0  0  0  0  0  0
    0.7187   -1.6149   -2.4856 H   0  0  0  0  0  0  0  0  0  0  0  0
   -0.3332   -1.2465   -0.1284 H   0  0  0  0  0  0  0  0  0  0  0  0
    1.5954   -1.1382   -0.2010 H   0  0  0  0  0  0  0  0  0  0  0  0
   -1.4167    0.9595    0.0693 H   0  0  0  0  0  0  0  0  0  0  0  0
   -1.4199    3.2686    0.9238 H   0  0  0  0  0  0  0  0  0  0  0  0
    0.7187    4.4366    1.3541 H   0  0  0  0  0  0  0  0  0  0  0  0
    2.8573    3.2686    0.9238 H   0  0  0  0  0  0  0  0  0  0  0  0
    2.8541    0.9595    0.0693 H   0  0  0  0  0  0  0  0  0  0  0  0
  1  2  3  0
  1  5  1  0
  2  3  1  0
  3  4  1  0
  3  6  1  0
  4  7  1  0
  4  8  1  0
  4  9  1  0
 10 11  1  0
 10 18  1  0
 10 19  1  0
 10 20  1  0
 11 12  1  0
 11 21  1  0
 11 22  1  0
 12 13  2  0
 12 17  1  0
 13 14  1  0
 13 23  1  0
 14 15  2  0
 14 24  1  0
 15 16  1  0
 15 25  1  0
 16 17  2  0
 16 26  1  0
 17 27  1  0
M  RAD  1   3   2
M  END
>  <reaction>  (18) 
rxn_1488

>  <mol_properties>  (18) 
{"1": {"label": "*4", "atom_type": "Ct"}, "2": {"label": "*3", "atom_type": "Cs"}, "10": {"label": "*1", "atom_type": "Cs"}, "11": {"label": "*0", "atom_type": "Cd"}, "20": {"label": "*2", "atom_type": "H0"}}

>  <type>  (18) 
unop_14

>  <geom_source>  (18) 
gaussian_log

$$$$
