
     RDKit          3D

 15 14  0  0  0  0  0  0  0  0999 V2000
   -0.6986    1.3249   -0.1641 C   0  0  0  0  0  0  0  0  0  0  0  0
   -0.2590   -0.0344    0.3671 C   0  0  0  0  0  0  0  0  0  0  0  0
   -0.4734   -0.1429    1.8733 C   0  0  0  0  0  0  0  0  0  0  0  0
   -0.9841   -1.1722   -0.3462 C   0  0  0  0  0  0  0  0  0  0  0  0
   -0.7805   -1.1911   -1.7444 O   0  0  0  0  0  0  0  0  0  0  0  0
   -0.1246    2.1306    0.2976 H   0  0  0  0  0  0  0  0  0  0  0  0
   -1.7557    1.4964    0.0581 H   0  0  0  0  0  0  0  0  0  0  0  0
   -0.5709    1.3852   -1.2449 H   0  0  0  0  0  0  0  0  0  0  0  0
    0.8141   -0.1541    0.1667 H   0  0  0  0  0  0  0  0  0  0  0  0
   -1.5346   -0.0466    2.1192 H   0  0  0  0  0  0  0  0  0  0  0  0
    0.0611    0.6480    2.4019 H   0  0  0  0  0  0  0  0  0  0  0  0
   -0.1249   -1.1023    2.2618 H   0  0  0  0  0  0  0  0  0  0  0  0
   -0.6918   -2.1316    0.1011 H   0  0  0  0  0  0  0  0  0  0  0  0
   -2.0629   -1.0627   -0.2056 H   0  0  0  0  0  0  0  0  0  0  0  0
    0.1528   -1.3298   -1.9125 H   0  0  0  0  0  0  0  0  0  0  0  0
  1  2  1  0
  1  6  1  0
  1  7  1  0
  1  8  1  0
  2  3  1  0
  2  4  1  0
  2  9  1  0
  3 10  1  0
  3 11  1  0
  3 12  1  0
  4  5  1  0
  4 13  1  0
  4 14  1  0
  5 15  1  0
M  END
>  <reaction>  (1) 
rxn_771

>  <mol_properties>  (1) 
{"1": {"label": "donator", "atom_type": "Cs"}, "8": {"label": "d_hydrogen", "atom_type": "H0"}}

>  <type>  (1) 
r1h

$$$$

     RDKit          3D

  4  3  0  0  0  0  0  0  0  0999 V2000
    0.0000    0.0000    0.0000 C   0  0  0  0  0  3  0  0  0  0  0  0
    1.0638   -0.1747    0.0540 H   0  0  0  0  0  0  0  0  0  0  0  0
   -0.6833   -0.8351   -0.0280 H   0  0  0  0  0  0  0  0  0  0  0  0
   -0.3805    1.0098   -0.0260 H   0  0  0  0  0  0  0  0  0  0  0  0
  1  2  1  0
  1  3  1  0
  1  4  1  0
M  RAD  1   1   2
M  END
>  <reaction>  (2) 
rxn_771

>  <mol_properties>  (2) 
{"0": {"label": "acceptor", "atom_type": "Cs"}}

>  <type>  (2) 
r2

$$$$

     RDKit          3D

  5  4  0  0  0  0  0  0  0  0999 V2000
    0.0000    0.0000    0.0000 C   0  0  0  0  0  0  0  0  0  0  0  0
   -0.6486   -0.7720   -0.4113 H   0  0  0  0  0  0  0  0  0  0  0  0
   -0.3482    0.9787   -0.3267 H   0  0  0  0  0  0  0  0  0  0  0  0
   -0.0223   -0.0487    1.0876 H   0  0  0  0  0  0  0  0  0  0  0  0
    1.0191   -0.1580   -0.3496 H   0  0  0  0  0  0  0  0  0  0  0  0
  1  2  1  0
  1  3  1  0
  1  4  1  0
  1  5  1  0
M  END
>  <reaction>  (3) 
rxn_771

>  <mol_properties>  (3) 
{"0": {"label": "a_hydrogen", "atom_type": "H0"}, "1": {"label": "acceptor", "atom_type": "Cs"}}

>  <type>  (3) 
r2h

$$$$

     RDKit          3D

 19 17  0  0  0  0  0  0  0  0999 V2000
   -0.2045    0.0366   -1.6033 C   0  0  0  0  0  0  0  0  0  0  0  0
   -0.0388    0.5068   -0.1777 C   0  0  0  0  0  0  0  0  0  0  0  0
    0.2304    1.9872   -0.0410 C   0  0  0  0  0  0  0  0  0  0  0  0
   -1.1170    0.0174    0.7666 C   0  0  0  0  0  0  0  0  0  0  0  0
   -1.2667   -1.3869    0.7781 O   0  0  0  0  0  0  0  0  0  0  0  0
    0.6788    0.2752   -2.1994 H   0  0  0  0  0  0  0  0  0  0  0  0
   -1.0647    0.5275   -2.0727 H   0  0  0  0  0  0  0  0  0  0  0  0
   -0.3730   -1.0394   -1.6461 H   0  0  0  0  0  0  0  0  0  0  0  0
    1.0191   -0.0681    0.2544 H   0  0  0  0  0  0  0  0  0  0  0  0
   -0.6357    2.5741   -0.3670 H   0  0  0  0  0  0  0  0  0  0  0  0
    1.0799    2.2883   -0.6569 H   0  0  0  0  0  0  0  0  0  0  0  0
    0.4477    2.2617    0.9936 H   0  0  0  0  0  0  0  0  0  0  0  0
   -0.9141    0.3960    1.7776 H   0  0  0  0  0  0  0  0  0  0  0  0
   -2.0902    0.4177    0.4612 H   0  0  0  0  0  0  0  0  0  0  0  0
   -0.4307   -1.7718    1.0483 H   0  0  0  0  0  0  0  0  0  0  0  0
    2.1900   -0.7110    0.7564 C   0  0  0  0  0  3  0  0  0  0  0  0
    2.2104   -1.6790    0.2645 H   0  0  0  0  0  0  0  0  0  0  0  0
    2.0486   -0.7587    1.8325 H   0  0  0  0  0  0  0  0  0  0  0  0
    2.9928   -0.0476    0.4505 H   0  0  0  0  0  0  0  0  0  0  0  0
  1  2  1  0
  1  6  1  0
  1  7  1  0
  1  8  1  0
  2  3  1  0
  2  4  1  0
  2  9  1  0
  3 10  1  0
  3 11  1  0
  3 12  1  0
  4  5  1  0
  4 13  1  0
  4 14  1  0
  5 15  1  0
 16 17  1  0
 16 18  1  0
 16 19  1  0
M  RAD  1  16   2
M  END
>  <reaction>  (4) 
rxn_771

>  <mol_properties>  (4) 
{"1": {"label": "*1", "atom_type": "Cs"}, "3": {"label": "*0", "atom_type": "Cs"}, "8": {"label": "*2", "atom_type": "H0"}, "15": {"label": "*3", "atom_type": "Cs"}, "16": {"label": "*4", "atom_type": "H0"}}

>  <type>  (4) 
ts

$$$$

     RDKit          3D

 19 17  0  0  0  0  0  0  0  0999 V2000
    0.0367    0.4912   -1.6360 C   0  0  0  0  0  0  0  0  0  0  0  0
    0.0367    0.4912   -0.1119 C   0  0  0  0  0  3  0  0  0  0  0  0
    0.0367    1.9099    0.4480 C   0  0  0  0  0  0  0  0  0  0  0  0
   -1.1508   -0.2892    0.4451 C   0  0  0  0  0  0  0  0  0  0  0  0
   -1.1896   -1.6404    0.0334 O   0  0  0  0  0  0  0  0  0  0  0  0
    0.9264    0.9877   -2.0280 H   0  0  0  0  0  0  0  0  0  0  0  0
   -0.8396    1.0239   -2.0165 H   0  0  0  0  0  0  0  0  0  0  0  0
    0.0063   -0.5247   -2.0297 H   0  0  0  0  0  0  0  0  0  0  0  0
    1.1321   -0.1118    0.3039 H   0  0  0  0  0  0  0  0  0  0  0  0
   -0.8666    2.4450    0.1418 H   0  0  0  0  0  0  0  0  0  0  0  0
    0.8953    2.4746    0.0811 H   0  0  0  0  0  0  0  0  0  0  0  0
    0.0740    1.9124    1.5395 H   0  0  0  0  0  0  0  0  0  0  0  0
   -1.1560   -0.2176    1.5409 H   0  0  0  0  0  0  0  0  0  0  0  0
   -2.0820    0.1568    0.0853 H   0  0  0  0  0  0  0  0  0  0  0  0
   -0.4069   -2.0813    0.3677 H   0  0  0  0  0  0  0  0  0  0  0  0
    2.2184   -0.7097    0.7162 C   0  0  0  0  0  0  0  0  0  0  0  0
    2.8070   -0.0188    1.3178 H   0  0  0  0  0  0  0  0  0  0  0  0
    2.8605   -1.5086    0.3484 H   0  0  0  0  0  0  0  0  0  0  0  0
    1.5066   -1.0475    1.4679 H   0  0  0  0  0  0  0  0  0  0  0  0
  1  2  1  0
  1  6  1  0
  1  7  1  0
  1  8  1  0
  2  3  1  0
  2  4  1  0
  3 10  1  0
  3 11  1  0
  3 12  1  0
  4  5  1  0
  4 13  1  0
  4 14  1  0
  5 15  1  0
  9 16  1  0
 16 17  1  0
 16 18  1  0
 16 19  1  0
M  RAD  1   2   2
M  END
>  <reaction>  (5) 
rxn_771

>  <mol_properties>  (5) 
{"1": {"label": "*1", "atom_type": "Cs"}, "3": {"label": "*0", "atom_type": "Cs"}, "8": {"label": "*2", "atom_type": "H0"}, "15": {"label": "*3", "atom_type": "Cs"}, "16": {"label": "*4", "atom_type": "H0"}}

>  <type>  (5) 
unop_1

>  <geom_source>  (5) 
Heuristics

$$$$

     RDKit          3D

 19 17  0  0  0  0  0  0  0  0999 V2000
    0.0379    0.4900   -1.6303 C   0  0  0  0  0  0  0  0  0  0  0  0
    0.0379    0.4900   -0.1062 C   0  0  0  0  0  3  0  0  0  0  0  0
    0.0379    1.9088    0.4537 C   0  0  0  0  0  0  0  0  0  0  0  0
   -1.1496   -0.2904    0.4508 C   0  0  0  0  0  0  0  0  0  0  0  0
   -1.1884   -1.6416    0.0390 O   0  0  0  0  0  0  0  0  0  0  0  0
    0.9276    0.9866   -2.0223 H   0  0  0  0  0  0  0  0  0  0  0  0
   -0.8384    1.0227   -2.0108 H   0  0  0  0  0  0  0  0  0  0  0  0
    0.0075   -0.5259   -2.0240 H   0  0  0  0  0  0  0  0  0  0  0  0
    1.1333   -0.1130    0.3096 H   0  0  0  0  0  0  0  0  0  0  0  0
   -0.8654    2.4438    0.1475 H   0  0  0  0  0  0  0  0  0  0  0  0
    0.8965    2.4734    0.0868 H   0  0  0  0  0  0  0  0  0  0  0  0
    0.0752    1.9112    1.5452 H   0  0  0  0  0  0  0  0  0  0  0  0
   -1.1548   -0.2188    1.5466 H   0  0  0  0  0  0  0  0  0  0  0  0
   -2.0808    0.1556    0.0910 H   0  0  0  0  0  0  0  0  0  0  0  0
   -0.4057   -2.0825    0.3734 H   0  0  0  0  0  0  0  0  0  0  0  0
    2.2196   -0.7109    0.7219 C   0  0  0  0  0  0  0  0  0  0  0  0
    3.0147   -0.5626   -0.0073 H   0  0  0  0  0  0  0  0  0  0  0  0
    2.2407   -1.7399    1.0776 H   0  0  0  0  0  0  0  0  0  0  0  0
    1.8169   -0.1706    1.5772 H   0  0  0  0  0  0  0  0  0  0  0  0
  1  2  1  0
  1  6  1  0
  1  7  1  0
  1  8  1  0
  2  3  1  0
  2  4  1  0
  3 10  1  0
  3 11  1  0
  3 12  1  0
  4  5  1  0
  4 13  1  0
  4 14  1  0
  5 15  1  0
  9 16  1  0
 16 17  1  0
 16 18  1  0
 16 19  1  0
M  RAD  1   2   2
M  END
>  <reaction>  (6) 
rxn_771

>  <mol_properties>  (6) 
{"1": {"label": "*1", "atom_type": "Cs"}, "3": {"label": "*0", "atom_type": "Cs"}, "8": {"label": "*2", "atom_type": "H0"}, "15": {"label": "*3", "atom_type": "Cs"}, "16": {"label": "*4", "atom_type": "H0"}}

>  <type>  (6) 
unop_2

>  <geom_source>  (6) 
Heuristics

$$$$

     RDKit          3D

 19 17  0  0  0  0  0  0  0  0999 V2000
    0.0354    0.4937   -1.6352 C   0  0  0  0  0  0  0  0  0  0  0  0
    0.0354    0.4937   -0.1111 C   0  0  0  0  0  3  0  0  0  0  0  0
    0.0354    1.9125    0.4488 C   0  0  0  0  0  0  0  0  0  0  0  0
   -1.1521   -0.2866    0.4459 C   0  0  0  0  0  0  0  0  0  0  0  0
   -1.1909   -1.6379    0.0342 O   0  0  0  0  0  0  0  0  0  0  0  0
    0.9251    0.9903   -2.0272 H   0  0  0  0  0  0  0  0  0  0  0  0
   -0.8408    1.0264   -2.0157 H   0  0  0  0  0  0  0  0  0  0  0  0
    0.0050   -0.5222   -2.0289 H   0  0  0  0  0  0  0  0  0  0  0  0
    1.1309   -0.1092    0.3047 H   0  0  0  0  0  0  0  0  0  0  0  0
   -0.8678    2.4475    0.1426 H   0  0  0  0  0  0  0  0  0  0  0  0
    0.8940    2.4772    0.0819 H   0  0  0  0  0  0  0  0  0  0  0  0
    0.0727    1.9149    1.5403 H   0  0  0  0  0  0  0  0  0  0  0  0
   -1.1572   -0.2151    1.5417 H   0  0  0  0  0  0  0  0  0  0  0  0
   -2.0833    0.1593    0.0862 H   0  0  0  0  0  0  0  0  0  0  0  0
   -0.4082   -2.0787    0.3685 H   0  0  0  0  0  0  0  0  0  0  0  0
    2.2172   -0.7072    0.7170 C   0  0  0  0  0  0  0  0  0  0  0  0
    2.5207   -0.2883    1.6752 H   0  0  0  0  0  0  0  0  0  0  0  0
    3.1003   -1.0152    0.1594 H   0  0  0  0  0  0  0  0  0  0  0  0
    1.6603   -1.4891    1.2310 H   0  0  0  0  0  0  0  0  0  0  0  0
  1  2  1  0
  1  6  1  0
  1  7  1  0
  1  8  1  0
  2  3  1  0
  2  4  1  0
  3 10  1  0
  3 11  1  0
  3 12  1  0
  4  5  1  0
  4 13  1  0
  4 14  1  0
  5 15  1  0
  9 16  1  0
 16 17  1  0
 16 18  1  0
 16 19  1  0
M  RAD  1   2   2
M  END
>  <reaction>  (7) 
rxn_771

>  <mol_properties>  (7) 
{"1": {"label": "*1", "atom_type": "Cs"}, "3": {"label": "*0", "atom_type": "Cs"}, "8": {"label": "*2", "atom_type": "H0"}, "15": {"label": "*3", "atom_type": "Cs"}, "16": {"label": "*4", "atom_type": "H0"}}

>  <type>  (7) 
unop_3

>  <geom_source>  (7) 
Heuristics

$$$$

     RDKit          3D

 19 17  0  0  0  0  0  0  0  0999 V2000
    0.0386    0.4900   -1.6330 C   0  0  0  0  0  0  0  0  0  0  0  0
    0.0386    0.4900   -0.1088 C   0  0  0  0  0  3  0  0  0  0  0  0
    0.0386    1.9088    0.4511 C   0  0  0  0  0  0  0  0  0  0  0  0
   -1.1489   -0.2904    0.4481 C   0  0  0  0  0  0  0  0  0  0  0  0
   -1.1877   -1.6416    0.0364 O   0  0  0  0  0  0  0  0  0  0  0  0
    0.9283    0.9866   -2.0250 H   0  0  0  0  0  0  0  0  0  0  0  0
   -0.8377    1.0227   -2.0135 H   0  0  0  0  0  0  0  0  0  0  0  0
    0.0082   -0.5259   -2.0266 H   0  0  0  0  0  0  0  0  0  0  0  0
    1.1340   -0.1130    0.3069 H   0  0  0  0  0  0  0  0  0  0  0  0
   -0.8647    2.4438    0.1448 H   0  0  0  0  0  0  0  0  0  0  0  0
    0.8972    2.4735    0.0841 H   0  0  0  0  0  0  0  0  0  0  0  0
    0.0759    1.9112    1.5426 H   0  0  0  0  0  0  0  0  0  0  0  0
   -1.1541   -0.2188    1.5439 H   0  0  0  0  0  0  0  0  0  0  0  0
   -2.0801    0.1556    0.0884 H   0  0  0  0  0  0  0  0  0  0  0  0
   -0.4051   -2.0825    0.3707 H   0  0  0  0  0  0  0  0  0  0  0  0
    2.2203   -0.7109    0.7192 C   0  0  0  0  0  0  0  0  0  0  0  0
    2.2352   -1.7340    0.3466 H   0  0  0  0  0  0  0  0  0  0  0  0
    1.6946   -0.6793    1.6723 H   0  0  0  0  0  0  0  0  0  0  0  0
    3.0833   -0.0614    0.8572 H   0  0  0  0  0  0  0  0  0  0  0  0
  1  2  1  0
  1  6  1  0
  1  7  1  0
  1  8  1  0
  2  3  1  0
  2  4  1  0
  3 10  1  0
  3 11  1  0
  3 12  1  0
  4  5  1  0
  4 13  1  0
  4 14  1  0
  5 15  1  0
  9 16  1  0
 16 17  1  0
 16 18  1  0
 16 19  1  0
M  RAD  1   2   2
M  END
>  <reaction>  (8) 
rxn_771

>  <mol_properties>  (8) 
{"1": {"label": "*1", "atom_type": "Cs"}, "3": {"label": "*0", "atom_type": "Cs"}, "8": {"label": "*2", "atom_type": "H0"}, "15": {"label": "*3", "atom_type": "Cs"}, "16": {"label": "*4", "atom_type": "H0"}}

>  <type>  (8) 
unop_4

>  <geom_source>  (8) 
Heuristics

$$$$

     RDKit          3D

 19 17  0  0  0  0  0  0  0  0999 V2000
    0.0320    0.4925   -1.6336 C   0  0  0  0  0  0  0  0  0  0  0  0
    0.0320    0.4925   -0.1095 C   0  0  0  0  0  3  0  0  0  0  0  0
    0.0320    1.9113    0.4504 C   0  0  0  0  0  0  0  0  0  0  0  0
   -1.1555   -0.2879    0.4475 C   0  0  0  0  0  0  0  0  0  0  0  0
   -1.1943   -1.6391    0.0357 O   0  0  0  0  0  0  0  0  0  0  0  0
    0.9217    0.9891   -2.0257 H   0  0  0  0  0  0  0  0  0  0  0  0
   -0.8442    1.0252   -2.0141 H   0  0  0  0  0  0  0  0  0  0  0  0
    0.0016   -0.5234   -2.0273 H   0  0  0  0  0  0  0  0  0  0  0  0
    1.1275   -0.1105    0.3063 H   0  0  0  0  0  0  0  0  0  0  0  0
   -0.8712    2.4463    0.1442 H   0  0  0  0  0  0  0  0  0  0  0  0
    0.8906    2.4759    0.0834 H   0  0  0  0  0  0  0  0  0  0  0  0
    0.0693    1.9137    1.5419 H   0  0  0  0  0  0  0  0  0  0  0  0
   -1.1606   -0.2163    1.5433 H   0  0  0  0  0  0  0  0  0  0  0  0
   -2.0867    0.1581    0.0877 H   0  0  0  0  0  0  0  0  0  0  0  0
   -0.4116   -2.0800    0.3700 H   0  0  0  0  0  0  0  0  0  0  0  0
    2.2138   -0.7084    0.7186 C   0  0  0  0  0  0  0  0  0  0  0  0
    2.2317   -0.7183    1.8073 H   0  0  0  0  0  0  0  0  0  0  0  0
    3.0861   -0.1737    0.3460 H   0  0  0  0  0  0  0  0  0  0  0  0
    2.2544   -1.7950    0.7773 H   0  0  0  0  0  0  0  0  0  0  0  0
  1  2  1  0
  1  6  1  0
  1  7  1  0
  1  8  1  0
  2  3  1  0
  2  4  1  0
  3 10  1  0
  3 11  1  0
  3 12  1  0
  4  5  1  0
  4 13  1  0
  4 14  1  0
  5 15  1  0
  9 16  1  0
 16 17  1  0
 16 18  1  0
 16 19  1  0
M  RAD  1   2   2
M  END
>  <reaction>  (9) 
rxn_771

>  <mol_properties>  (9) 
{"1": {"label": "*1", "atom_type": "Cs"}, "3": {"label": "*0", "atom_type": "Cs"}, "8": {"label": "*2", "atom_type": "H0"}, "15": {"label": "*3", "atom_type": "Cs"}, "16": {"label": "*4", "atom_type": "H0"}}

>  <type>  (9) 
unop_5

>  <geom_source>  (9) 
Heuristics

$$$$

     RDKit          3D

 19 17  0  0  0  0  0  0  0  0999 V2000
    0.0369    0.4897   -1.6347 C   0  0  0  0  0  0  0  0  0  0  0  0
    0.0369    0.4897   -0.1106 C   0  0  0  0  0  3  0  0  0  0  0  0
    0.0369    1.9084    0.4493 C   0  0  0  0  0  0  0  0  0  0  0  0
   -1.1506   -0.2907    0.4464 C   0  0  0  0  0  0  0  0  0  0  0  0
   -1.1894   -1.6420    0.0346 O   0  0  0  0  0  0  0  0  0  0  0  0
    0.9266    0.9862   -2.0268 H   0  0  0  0  0  0  0  0  0  0  0  0
   -0.8393    1.0224   -2.0152 H   0  0  0  0  0  0  0  0  0  0  0  0
    0.0065   -0.5263   -2.0284 H   0  0  0  0  0  0  0  0  0  0  0  0
    1.1324   -0.1133    0.3052 H   0  0  0  0  0  0  0  0  0  0  0  0
   -0.8663    2.4434    0.1431 H   0  0  0  0  0  0  0  0  0  0  0  0
    0.8955    2.4731    0.0824 H   0  0  0  0  0  0  0  0  0  0  0  0
    0.0742    1.9108    1.5408 H   0  0  0  0  0  0  0  0  0  0  0  0
   -1.1557   -0.2191    1.5422 H   0  0  0  0  0  0  0  0  0  0  0  0
   -2.0818    0.1553    0.0866 H   0  0  0  0  0  0  0  0  0  0  0  0
   -0.4067   -2.0828    0.3690 H   0  0  0  0  0  0  0  0  0  0  0  0
    2.2187   -0.7113    0.7175 C   0  0  0  0  0  0  0  0  0  0  0  0
    2.0253   -1.7768    0.8320 H   0  0  0  0  0  0  0  0  0  0  0  0
    1.8501   -0.1793    1.5932 H   0  0  0  0  0  0  0  0  0  0  0  0
    3.2779   -0.4881    0.5991 H   0  0  0  0  0  0  0  0  0  0  0  0
  1  2  1  0
  1  6  1  0
  1  7  1  0
  1  8  1  0
  2  3  1  0
  2  4  1  0
  3 10  1  0
  3 11  1  0
  3 12  1  0
  4  5  1  0
  4 13  1  0
  4 14  1  0
  5 15  1  0
  9 16  1  0
 16 17  1  0
 16 18  1  0
 16 19  1  0
M  RAD  1   2   2
M  END
>  <reaction>  (10) 
rxn_771

>  <mol_properties>  (10) 
{"1": {"label": "*1", "atom_type": "Cs"}, "3": {"label": "*0", "atom_type": "Cs"}, "8": {"label": "*2", "atom_type": "H0"}, "15": {"label": "*3", "atom_type": "Cs"}, "16": {"label": "*4", "atom_type": "H0"}}

>  <type>  (10) 
unop_6

>  <geom_source>  (10) 
Heuristics

$$$$

     RDKit          3D

 19 17  0  0  0  0  0  0  0  0999 V2000
    0.0348    0.4888   -1.6356 C   0  0  0  0  0  0  0  0  0  0  0  0
    0.0348    0.4888   -0.1115 C   0  0  0  0  0  3  0  0  0  0  0  0
    0.0348    1.9075    0.4484 C   0  0  0  0  0  0  0  0  0  0  0  0
   -1.1527   -0.2916    0.4454 C   0  0  0  0  0  0  0  0  0  0  0  0
   -1.1915   -1.6428    0.0337 O   0  0  0  0  0  0  0  0  0  0  0  0
    0.9245    0.9853   -2.0277 H   0  0  0  0  0  0  0  0  0  0  0  0
   -0.8415    1.0215   -2.0161 H   0  0  0  0  0  0  0  0  0  0  0  0
    0.0044   -0.5272   -2.0293 H   0  0  0  0  0  0  0  0  0  0  0  0
    1.1302   -0.1142    0.3043 H   0  0  0  0  0  0  0  0  0  0  0  0
   -0.8685    2.4426    0.1422 H   0  0  0  0  0  0  0  0  0  0  0  0
    0.8933    2.4722    0.0814 H   0  0  0  0  0  0  0  0  0  0  0  0
    0.0721    1.9100    1.5399 H   0  0  0  0  0  0  0  0  0  0  0  0
   -1.1579   -0.2200    1.5412 H   0  0  0  0  0  0  0  0  0  0  0  0
   -2.0839    0.1544    0.0857 H   0  0  0  0  0  0  0  0  0  0  0  0
   -0.4089   -2.0837    0.3680 H   0  0  0  0  0  0  0  0  0  0  0  0
    2.2165   -0.7121    0.7166 C   0  0  0  0  0  0  0  0  0  0  0  0
    1.9476   -1.5790    1.3182 H   0  0  0  0  0  0  0  0  0  0  0  0
    2.1504    0.1876    1.3264 H   0  0  0  0  0  0  0  0  0  0  0  0
    3.2407   -0.9777    0.4590 H   0  0  0  0  0  0  0  0  0  0  0  0
  1  2  1  0
  1  6  1  0
  1  7  1  0
  1  8  1  0
  2  3  1  0
  2  4  1  0
  3 10  1  0
  3 11  1  0
  3 12  1  0
  4  5  1  0
  4 13  1  0
  4 14  1  0
  5 15  1  0
  9 16  1  0
 16 17  1  0
 16 18  1  0
 16 19  1  0
M  RAD  1   2   2
M  END
>  <reaction>  (11) 
rxn_771

>  <mol_properties>  (11) 
{"1": {"label": "*1", "atom_type": "Cs"}, "3": {"label": "*0", "atom_type": "Cs"}, "8": {"label": "*2", "atom_type": "H0"}, "15": {"label": "*3", "atom_type": "Cs"}, "16": {"label": "*4", "atom_type": "H0"}}

>  <type>  (11) 
unop_7

>  <geom_source>  (11) 
Heuristics

$$$$

     RDKit          3D

 19 17  0  0  0  0  0  0  0  0999 V2000
    0.0364    0.4892   -1.6345 C   0  0  0  0  0  0  0  0  0  0  0  0
    0.0364    0.4892   -0.1104 C   0  0  0  0  0  3  0  0  0  0  0  0
    0.0364    1.9079    0.4495 C   0  0  0  0  0  0  0  0  0  0  0  0
   -1.1511   -0.2912    0.4465 C   0  0  0  0  0  0  0  0  0  0  0  0
   -1.1899   -1.6424    0.0348 O   0  0  0  0  0  0  0  0  0  0  0  0
    0.9261    0.9857   -2.0266 H   0  0  0  0  0  0  0  0  0  0  0  0
   -0.8398    1.0219   -2.0150 H   0  0  0  0  0  0  0  0  0  0  0  0
    0.0060   -0.5268   -2.0282 H   0  0  0  0  0  0  0  0  0  0  0  0
    1.1319   -0.1138    0.3053 H   0  0  0  0  0  0  0  0  0  0  0  0
   -0.8668    2.4430    0.1432 H   0  0  0  0  0  0  0  0  0  0  0  0
    0.8950    2.4726    0.0825 H   0  0  0  0  0  0  0  0  0  0  0  0
    0.0737    1.9104    1.5410 H   0  0  0  0  0  0  0  0  0  0  0  0
   -1.1562   -0.2196    1.5423 H   0  0  0  0  0  0  0  0  0  0  0  0
   -2.0823    0.1548    0.0868 H   0  0  0  0  0  0  0  0  0  0  0  0
   -0.4072   -2.0833    0.3691 H   0  0  0  0  0  0  0  0  0  0  0  0
    2.2181   -0.7117    0.7176 C   0  0  0  0  0  0  0  0  0  0  0  0
    3.0150    0.0216    0.8322 H   0  0  0  0  0  0  0  0  0  0  0  0
    2.6513   -1.7057    0.6166 H   0  0  0  0  0  0  0  0  0  0  0  0
    1.5313   -0.7194    1.5626 H   0  0  0  0  0  0  0  0  0  0  0  0
  1  2  1  0
  1  6  1  0
  1  7  1  0
  1  8  1  0
  2  3  1  0
  2  4  1  0
  3 10  1  0
  3 11  1  0
  3 12  1  0
  4  5  1  0
  4 13  1  0
  4 14  1  0
  5 15  1  0
  9 16  1  0
 16 17  1  0
 16 18  1  0
 16 19  1  0
M  RAD  1   2   2
M  END
>  <reaction>  (12) 
rxn_771

>  <mol_properties>  (12) 
{"1": {"label": "*1", "atom_type": "Cs"}, "3": {"label": "*0", "atom_type": "Cs"}, "8": {"label": "*2", "atom_type": "H0"}, "15": {"label": "*3", "atom_type": "Cs"}, "16": {"label": "*4", "atom_type": "H0"}}

>  <type>  (12) 
unop_8

>  <geom_source>  (12) 
Heuristics

$$$$

     RDKit          3D

 19 17  0  0  0  0  0  0  0  0999 V2000
    0.0397    0.4902   -1.6313 C   0  0  0  0  0  0  0  0  0  0  0  0
    0.0397    0.4902   -0.1072 C   0  0  0  0  0  3  0  0  0  0  0  0
    0.0397    1.9089    0.4527 C   0  0  0  0  0  0  0  0  0  0  0  0
   -1.1478   -0.2902    0.4498 C   0  0  0  0  0  0  0  0  0  0  0  0
   -1.1866   -1.6414    0.0380 O   0  0  0  0  0  0  0  0  0  0  0  0
    0.9294    0.9867   -2.0234 H   0  0  0  0  0  0  0  0  0  0  0  0
   -0.8365    1.0229   -2.0118 H   0  0  0  0  0  0  0  0  0  0  0  0
    0.0093   -0.5257   -2.0250 H   0  0  0  0  0  0  0  0  0  0  0  0
    1.1352   -0.1128    0.3086 H   0  0  0  0  0  0  0  0  0  0  0  0
   -0.8636    2.4440    0.1465 H   0  0  0  0  0  0  0  0  0  0  0  0
    0.8983    2.4736    0.0857 H   0  0  0  0  0  0  0  0  0  0  0  0
    0.0770    1.9114    1.5442 H   0  0  0  0  0  0  0  0  0  0  0  0
   -1.1529   -0.2186    1.5456 H   0  0  0  0  0  0  0  0  0  0  0  0
   -2.0790    0.1558    0.0900 H   0  0  0  0  0  0  0  0  0  0  0  0
   -0.4039   -2.0823    0.3723 H   0  0  0  0  0  0  0  0  0  0  0  0
    2.2214   -0.7107    0.7209 C   0  0  0  0  0  0  0  0  0  0  0  0
    2.5214   -1.4618   -0.0083 H   0  0  0  0  0  0  0  0  0  0  0  0
    1.7275   -1.1971    1.5607 H   0  0  0  0  0  0  0  0  0  0  0  0
    2.6671    0.1690    1.1826 H   0  0  0  0  0  0  0  0  0  0  0  0
  1  2  1  0
  1  6  1  0
  1  7  1  0
  1  8  1  0
  2  3  1  0
  2  4  1  0
  3 10  1  0
  3 11  1  0
  3 12  1  0
  4  5  1  0
  4 13  1  0
  4 14  1  0
  5 15  1  0
  9 16  1  0
 16 17  1  0
 16 18  1  0
 16 19  1  0
M  RAD  1   2   2
M  END
>  <reaction>  (13) 
rxn_771

>  <mol_properties>  (13) 
{"1": {"label": "*1", "atom_type": "Cs"}, "3": {"label": "*0", "atom_type": "Cs"}, "8": {"label": "*2", "atom_type": "H0"}, "15": {"label": "*3", "atom_type": "Cs"}, "16": {"label": "*4", "atom_type": "H0"}}

>  <type>  (13) 
unop_9

>  <geom_source>  (13) 
Heuristics

$$$$

     RDKit          3D

 19 17  0  0  0  0  0  0  0  0999 V2000
    0.0366    0.4890   -1.6321 C   0  0  0  0  0  0  0  0  0  0  0  0
    0.0366    0.4890   -0.1080 C   0  0  0  0  0  3  0  0  0  0  0  0
    0.0366    1.9078    0.4519 C   0  0  0  0  0  0  0  0  0  0  0  0
   -1.1509   -0.2913    0.4490 C   0  0  0  0  0  0  0  0  0  0  0  0
   -1.1897   -1.6426    0.0373 O   0  0  0  0  0  0  0  0  0  0  0  0
    0.9263    0.9856   -2.0241 H   0  0  0  0  0  0  0  0  0  0  0  0
   -0.8397    1.0217   -2.0126 H   0  0  0  0  0  0  0  0  0  0  0  0
    0.0062   -0.5269   -2.0258 H   0  0  0  0  0  0  0  0  0  0  0  0
    1.1320   -0.1139    0.3078 H   0  0  0  0  0  0  0  0  0  0  0  0
   -0.8667    2.4428    0.1457 H   0  0  0  0  0  0  0  0  0  0  0  0
    0.8951    2.4725    0.0850 H   0  0  0  0  0  0  0  0  0  0  0  0
    0.0739    1.9102    1.5434 H   0  0  0  0  0  0  0  0  0  0  0  0
   -1.1561   -0.2198    1.5448 H   0  0  0  0  0  0  0  0  0  0  0  0
   -2.0821    0.1546    0.0892 H   0  0  0  0  0  0  0  0  0  0  0  0
   -0.4071   -2.0834    0.3716 H   0  0  0  0  0  0  0  0  0  0  0  0
    2.2183   -0.7119    0.7201 C   0  0  0  0  0  0  0  0  0  0  0  0
    3.0907   -0.1772    0.3475 H   0  0  0  0  0  0  0  0  0  0  0  0
    2.4680   -1.7629    0.8573 H   0  0  0  0  0  0  0  0  0  0  0  0
    1.6267   -0.4511    1.5963 H   0  0  0  0  0  0  0  0  0  0  0  0
  1  2  1  0
  1  6  1  0
  1  7  1  0
  1  8  1  0
  2  3  1  0
  2  4  1  0
  3 10  1  0
  3 11  1  0
  3 12  1  0
  4  5  1  0
  4 13  1  0
  4 14  1  0
  5 15  1  0
  9 16  1  0
 16 17  1  0
 16 18  1  0
 16 19  1  0
M  RAD  1   2   2
M  END
>  <reaction>  (14) 
rxn_771

>  <mol_properties>  (14) 
{"1": {"label": "*1", "atom_type": "Cs"}, "3": {"label": "*0", "atom_type": "Cs"}, "8": {"label": "*2", "atom_type": "H0"}, "15": {"label": "*3", "atom_type": "Cs"}, "16": {"label": "*4", "atom_type": "H0"}}

>  <type>  (14) 
unop_10

>  <geom_source>  (14) 
Heuristics

$$$$

     RDKit          3D

 19 17  0  0  0  0  0  0  0  0999 V2000
    0.0322    0.4890   -1.6348 C   0  0  0  0  0  0  0  0  0  0  0  0
    0.0322    0.4890   -0.1107 C   0  0  0  0  0  3  0  0  0  0  0  0
    0.0322    1.9077    0.4492 C   0  0  0  0  0  0  0  0  0  0  0  0
   -1.1553   -0.2914    0.4463 C   0  0  0  0  0  0  0  0  0  0  0  0
   -1.1942   -1.6426    0.0345 O   0  0  0  0  0  0  0  0  0  0  0  0
    0.9219    0.9855   -2.0268 H   0  0  0  0  0  0  0  0  0  0  0  0
   -0.8441    1.0217   -2.0153 H   0  0  0  0  0  0  0  0  0  0  0  0
    0.0017   -0.5270   -2.0285 H   0  0  0  0  0  0  0  0  0  0  0  0
    1.1276   -0.1140    0.3051 H   0  0  0  0  0  0  0  0  0  0  0  0
   -0.8711    2.4427    0.1430 H   0  0  0  0  0  0  0  0  0  0  0  0
    0.8907    2.4724    0.0823 H   0  0  0  0  0  0  0  0  0  0  0  0
    0.0695    1.9102    1.5407 H   0  0  0  0  0  0  0  0  0  0  0  0
   -1.1605   -0.2198    1.5421 H   0  0  0  0  0  0  0  0  0  0  0  0
   -2.0866    0.1546    0.0865 H   0  0  0  0  0  0  0  0  0  0  0  0
   -0.4115   -2.0835    0.3689 H   0  0  0  0  0  0  0  0  0  0  0  0
    2.2139   -0.7120    0.7174 C   0  0  0  0  0  0  0  0  0  0  0  0
    2.0223   -1.1925    1.6756 H   0  0  0  0  0  0  0  0  0  0  0  0
    2.5995    0.2924    0.8856 H   0  0  0  0  0  0  0  0  0  0  0  0
    2.9403   -1.4848    0.4709 H   0  0  0  0  0  0  0  0  0  0  0  0
  1  2  1  0
  1  6  1  0
  1  7  1  0
  1  8  1  0
  2  3  1  0
  2  4  1  0
  3 10  1  0
  3 11  1  0
  3 12  1  0
  4  5  1  0
  4 13  1  0
  4 14  1  0
  5 15  1  0
  9 16  1  0
 16 17  1  0
 16 18  1  0
 16 19  1  0
M  RAD  1   2   2
M  END
>  <reaction>  (15) 
rxn_771

>  <mol_properties>  (15) 
{"1": {"label": "*1", "atom_type": "Cs"}, "3": {"label": "*0", "atom_type": "Cs"}, "8": {"label": "*2", "atom_type": "H0"}, "15": {"label": "*3", "atom_type": "Cs"}, "16": {"label": "*4", "atom_type": "H0"}}

>  <type>  (15) 
unop_11

>  <geom_source>  (15) 
Heuristics

$$$$

     RDKit          3D

 19 17  0  0  0  0  0  0  0  0999 V2000
    0.0395    0.4905   -1.6302 C   0  0  0  0  0  0  0  0  0  0  0  0
    0.0395    0.4905   -0.1060 C   0  0  0  0  0  3  0  0  0  0  0  0
    0.0395    1.9092    0.4538 C   0  0  0  0  0  0  0  0  0  0  0  0
   -1.1480   -0.2899    0.4509 C   0  0  0  0  0  0  0  0  0  0  0  0
   -1.1868   -1.6411    0.0392 O   0  0  0  0  0  0  0  0  0  0  0  0
    0.9292    0.9870   -2.0222 H   0  0  0  0  0  0  0  0  0  0  0  0
   -0.8368    1.0232   -2.0107 H   0  0  0  0  0  0  0  0  0  0  0  0
    0.0091   -0.5255   -2.0238 H   0  0  0  0  0  0  0  0  0  0  0  0
    1.1349   -0.1125    0.3097 H   0  0  0  0  0  0  0  0  0  0  0  0
   -0.8638    2.4443    0.1476 H   0  0  0  0  0  0  0  0  0  0  0  0
    0.8981    2.4739    0.0869 H   0  0  0  0  0  0  0  0  0  0  0  0
    0.0768    1.9117    1.5454 H   0  0  0  0  0  0  0  0  0  0  0  0
   -1.1532   -0.2183    1.5467 H   0  0  0  0  0  0  0  0  0  0  0  0
   -2.0792    0.1561    0.0912 H   0  0  0  0  0  0  0  0  0  0  0  0
   -0.4041   -2.0820    0.3735 H   0  0  0  0  0  0  0  0  0  0  0  0
    2.2212   -0.7105    0.7220 C   0  0  0  0  0  0  0  0  0  0  0  0
    2.8067   -1.0328   -0.1377 H   0  0  0  0  0  0  0  0  0  0  0  0
    1.9523   -1.5774    1.3236 H   0  0  0  0  0  0  0  0  0  0  0  0
    2.1764    0.0966    1.4517 H   0  0  0  0  0  0  0  0  0  0  0  0
  1  2  1  0
  1  6  1  0
  1  7  1  0
  1  8  1  0
  2  3  1  0
  2  4  1  0
  3 10  1  0
  3 11  1  0
  3 12  1  0
  4  5  1  0
  4 13  1  0
  4 14  1  0
  5 15  1  0
  9 16  1  0
 16 17  1  0
 16 18  1  0
 16 19  1  0
M  RAD  1   2   2
M  END
>  <reaction>  (16) 
rxn_771

>  <mol_properties>  (16) 
{"1": {"label": "*1", "atom_type": "Cs"}, "3": {"label": "*0", "atom_type": "Cs"}, "8": {"label": "*2", "atom_type": "H0"}, "15": {"label": "*3", "atom_type": "Cs"}, "16": {"label": "*4", "atom_type": "H0"}}

>  <type>  (16) 
unop_12

>  <geom_source>  (16) 
Heuristics

$$$$

     RDKit          3D

 19 17  0  0  0  0  0  0  0  0999 V2000
   -1.8382    1.1614    0.5909 O   0  0  0  0  0  0  0  0  0  0  0  0
   -0.4648    0.9816    0.3759 C   0  0  0  0  0  0  0  0  0  0  0  0
   -0.5319   -1.4733    1.0385 C   0  0  0  0  0  0  0  0  0  0  0  0
   -0.8255   -0.8133   -1.3899 C   0  0  0  0  0  0  0  0  0  0  0  0
    2.1421    0.7136   -0.2084 C   0  0  0  0  0  0  0  0  0  0  0  0
   -0.1696   -0.4618   -0.0521 C   0  0  0  0  0  3  0  0  0  0  0  0
    0.0967    1.2091    1.3092 H   0  0  0  0  0  0  0  0  0  0  0  0
   -0.1120    1.6782   -0.4168 H   0  0  0  0  0  0  0  0  0  0  0  0
   -0.2168   -2.4917    0.7280 H   0  0  0  0  0  0  0  0  0  0  0  0
   -1.6270   -1.4752    1.2256 H   0  0  0  0  0  0  0  0  0  0  0  0
   -0.0024   -1.2207    1.9812 H   0  0  0  0  0  0  0  0  0  0  0  0
   -1.9330   -0.7877   -1.3042 H   0  0  0  0  0  0  0  0  0  0  0  0
   -0.5045   -0.0923   -2.1709 H   0  0  0  0  0  0  0  0  0  0  0  0
   -0.5115   -1.8296   -1.7084 H   0  0  0  0  0  0  0  0  0  0  0  0
    2.8322    0.5888   -1.0680 H   0  0  0  0  0  0  0  0  0  0  0  0
    2.5954    0.2628    0.6982 H   0  0  0  0  0  0  0  0  0  0  0  0
    1.9613    1.7941   -0.0333 H   0  0  0  0  0  0  0  0  0  0  0  0
    1.0616    0.1471   -0.4578 H   0  0  0  0  0  0  0  0  0  0  0  0
   -1.9521    2.1091    0.8622 H   0  0  0  0  0  0  0  0  0  0  0  0
  1  2  1  0
  1 19  1  0
  2  6  1  0
  2  7  1  0
  2  8  1  0
  3  6  1  0
  3  9  1  0
  3 10  1  0
  3 11  1  0
  4  6  1  0
  4 12  1  0
  4 13  1  0
  4 14  1  0
  5 15  1  0
  5 16  1  0
  5 17  1  0
  5 18  1  0
M  RAD  1   6   2
M  END
>  <reaction>  (17) 
rxn_771

>  <mol_properties>  (17) 
{"1": {"label": "*1", "atom_type": "Cs"}, "3": {"label": "*0", "atom_type": "Cs"}, "8": {"label": "*2", "atom_type": "H0"}, "15": {"label": "*3", "atom_type": "Cs"}, "16": {"label": "*4", "atom_type": "H0"}}

>  <type>  (17) 
unop_13

>  <geom_source>  (17) 
AutoTST

$$$$
