
     RDKit          3D

 12 11  0  0  0  0  0  0  0  0999 V2000
    2.1696    0.6854    1.1310 C   0  0  0  0  0  0  0  0  0  0  0  0
    1.2518    0.4145    0.4134 C   0  0  0  0  0  0  0  0  0  0  0  0
    0.1391    0.0443   -0.4683 C   0  0  0  0  0  0  0  0  0  0  0  0
   -0.2054   -1.4492   -0.3339 C   0  0  0  0  0  0  0  0  0  0  0  0
   -1.0375    0.8853   -0.2222 C   0  0  0  0  0  0  0  0  0  0  0  0
   -2.0160    1.5463   -0.0311 C   0  0  0  0  0  0  0  0  0  0  0  0
    2.9819    0.9356    1.7702 H   0  0  0  0  0  0  0  0  0  0  0  0
    0.4629    0.2285   -1.4981 H   0  0  0  0  0  0  0  0  0  0  0  0
   -0.5327   -1.6703    0.6812 H   0  0  0  0  0  0  0  0  0  0  0  0
    0.6727   -2.0535   -0.5593 H   0  0  0  0  0  0  0  0  0  0  0  0
   -1.0064   -1.7081   -1.0256 H   0  0  0  0  0  0  0  0  0  0  0  0
   -2.8802    2.1413    0.1426 H   0  0  0  0  0  0  0  0  0  0  0  0
  1  2  3  0
  1  7  1  0
  2  3  1  0
  3  4  1  0
  3  5  1  0
  3  8  1  0
  4  9  1  0
  4 10  1  0
  4 11  1  0
  5  6  3  0
  6 12  1  0
M  END
>  <reaction>  (1) 
rxn_1423

>  <mol_properties>  (1) 
{"2": {"label": "donator", "atom_type": "Cs"}, "7": {"label": "d_hydrogen", "atom_type": "H0"}}

>  <type>  (1) 
r1h

$$$$

     RDKit          3D

  7  6  0  0  0  0  0  0  0  0999 V2000
   -2.0652    0.3855   -0.2963 S   0  0  0  0  0  0  0  0  0  0  0  0
   -0.7169   -0.5853    0.1792 C   0  0  0  0  0  3  0  0  0  0  0  0
    0.5987   -0.2168    0.0254 C   0  0  0  0  0  0  0  0  0  0  0  0
    1.7547    0.1211   -0.1163 C   0  0  0  0  0  0  0  0  0  0  0  0
   -1.3643    1.4227   -0.7731 H   0  0  0  0  0  0  0  0  0  0  0  0
   -0.9781   -1.5363    0.6220 H   0  0  0  0  0  0  0  0  0  0  0  0
    2.7711    0.4089   -0.2366 H   0  0  0  0  0  0  0  0  0  0  0  0
  1  2  1  0
  1  5  1  0
  2  3  1  0
  2  6  1  0
  3  4  3  0
  4  7  1  0
M  RAD  1   2   2
M  END
>  <reaction>  (2) 
rxn_1423

>  <mol_properties>  (2) 
{"1": {"label": "acceptor", "atom_type": "Cs"}}

>  <type>  (2) 
r2

$$$$

     RDKit          3D

  8  7  0  0  0  0  0  0  0  0999 V2000
   -0.7014    1.0753    1.5530 S   0  0  0  0  0  0  0  0  0  0  0  0
   -0.3105   -0.4583    0.6462 C   0  0  0  0  0  0  0  0  0  0  0  0
    0.0935   -0.2424   -0.7319 C   0  0  0  0  0  0  0  0  0  0  0  0
    0.4431   -0.0604   -1.8621 C   0  0  0  0  0  0  0  0  0  0  0  0
    0.4994    1.6466    1.3970 H   0  0  0  0  0  0  0  0  0  0  0  0
   -1.2277   -1.0477    0.6819 H   0  0  0  0  0  0  0  0  0  0  0  0
    0.4563   -1.0151    1.1841 H   0  0  0  0  0  0  0  0  0  0  0  0
    0.7474    0.1020   -2.8681 H   0  0  0  0  0  0  0  0  0  0  0  0
  1  2  1  0
  1  5  1  0
  2  3  1  0
  2  6  1  0
  2  7  1  0
  3  4  3  0
  4  8  1  0
M  END
>  <reaction>  (3) 
rxn_1423

>  <mol_properties>  (3) 
{"0": {"label": "a_hydrogen", "atom_type": "H0"}, "2": {"label": "acceptor", "atom_type": "Cs"}}

>  <type>  (3) 
r2h

$$$$

     RDKit          3D

 19 17  0  0  0  0  0  0  0  0999 V2000
   -1.6285   -1.8053   -1.7837 C   0  0  0  0  0  0  0  0  0  0  0  0
   -1.5165   -0.9186   -0.9831 C   0  0  0  0  0  0  0  0  0  0  0  0
   -1.3052    0.1352   -0.0306 C   0  0  0  0  0  0  0  0  0  0  0  0
   -0.9966    1.5051   -0.6156 C   0  0  0  0  0  0  0  0  0  0  0  0
   -2.1911    0.1272    1.1002 C   0  0  0  0  0  0  0  0  0  0  0  0
   -2.8794    0.1323    2.0844 C   0  0  0  0  0  0  0  0  0  0  0  0
   -1.7443   -2.5880   -2.4941 H   0  0  0  0  0  0  0  0  0  0  0  0
   -0.1383   -0.1795    0.5164 H   0  0  0  0  0  0  0  0  0  0  0  0
   -1.8805    1.9270   -1.0972 H   0  0  0  0  0  0  0  0  0  0  0  0
   -0.2008    1.4183   -1.3549 H   0  0  0  0  0  0  0  0  0  0  0  0
   -0.6724    2.1800    0.1768 H   0  0  0  0  0  0  0  0  0  0  0  0
   -3.5157    0.1366    2.9365 H   0  0  0  0  0  0  0  0  0  0  0  0
    1.1951    0.7231    2.4612 S   0  0  0  0  0  0  0  0  0  0  0  0
    1.0733   -0.4286    1.1127 C   0  0  0  0  0  3  0  0  0  0  0  0
    2.0399   -0.2483    0.0912 C   0  0  0  0  0  0  0  0  0  0  0  0
    2.8132   -0.0719   -0.8121 C   0  0  0  0  0  0  0  0  0  0  0  0
    0.0759    0.3185    3.0788 H   0  0  0  0  0  0  0  0  0  0  0  0
    0.9158   -1.4614    1.4155 H   0  0  0  0  0  0  0  0  0  0  0  0
    3.5089    0.0731   -1.6034 H   0  0  0  0  0  0  0  0  0  0  0  0
  1  2  3  0
  1  7  1  0
  2  3  1  0
  3  4  1  0
  3  5  1  0
  3  8  1  0
  4  9  1  0
  4 10  1  0
  4 11  1  0
  5  6  3  0
  6 12  1  0
 13 14  1  0
 13 17  1  0
 14 15  1  0
 14 18  1  0
 15 16  3  0
 16 19  1  0
M  RAD  1  14   2
M  END
>  <reaction>  (4) 
rxn_1423

>  <mol_properties>  (4) 
{"1": {"label": "*0", "atom_type": "Ct"}, "2": {"label": "*1", "atom_type": "Cs"}, "7": {"label": "*2", "atom_type": "H0"}, "12": {"label": "*4", "atom_type": "S2s"}, "13": {"label": "*3", "atom_type": "Cs"}}

>  <type>  (4) 
ts

$$$$

     RDKit          3D

 19 17  0  0  0  0  0  0  0  0999 V2000
   -1.3261   -0.0521   -2.9704 C   0  0  0  0  0  0  0  0  0  0  0  0
   -1.3261   -0.0521   -1.7742 C   0  0  0  0  0  0  0  0  0  0  0  0
   -1.3261   -0.0121   -0.3077 C   0  0  0  0  0  3  0  0  0  0  0  0
   -1.9641    1.2872    0.2143 C   0  0  0  0  0  0  0  0  0  0  0  0
   -1.9879   -1.1933    0.2571 C   0  0  0  0  0  0  0  0  0  0  0  0
   -2.5362   -2.1386    0.7436 C   0  0  0  0  0  0  0  0  0  0  0  0
   -1.3261   -0.0521   -4.0338 H   0  0  0  0  0  0  0  0  0  0  0  0
   -0.0725   -0.0393    0.0855 H   0  0  0  0  0  0  0  0  0  0  0  0
   -3.0074    1.3444   -0.0934 H   0  0  0  0  0  0  0  0  0  0  0  0
   -1.4315    2.1486   -0.1873 H   0  0  0  0  0  0  0  0  0  0  0  0
   -1.9169    1.3116    1.3026 H   0  0  0  0  0  0  0  0  0  0  0  0
   -3.0236   -2.9790    1.1761 H   0  0  0  0  0  0  0  0  0  0  0  0
    1.4083    1.4797    1.4166 S   0  0  0  0  0  0  0  0  0  0  0  0
    1.1764   -0.0664    0.4771 C   0  0  0  0  0  0  0  0  0  0  0  0
    2.4101   -0.6379   -0.0330 C   0  0  0  0  0  0  0  0  0  0  0  0
    3.4270   -1.1089   -0.4535 C   0  0  0  0  0  0  0  0  0  0  0  0
    2.2292    0.9662    2.3413 H   0  0  0  0  0  0  0  0  0  0  0  0
    0.6545   -0.7953    1.0966 H   0  0  0  0  0  0  0  0  0  0  0  0
    4.3305   -1.5273   -0.8271 H   0  0  0  0  0  0  0  0  0  0  0  0
  1  2  3  0
  1  7  1  0
  2  3  1  0
  3  4  1  0
  3  5  1  0
  4  9  1  0
  4 10  1  0
  4 11  1  0
  5  6  3  0
  6 12  1  0
  8 14  1  0
 13 14  1  0
 13 17  1  0
 14 15  1  0
 14 18  1  0
 15 16  3  0
 16 19  1  0
M  RAD  1   3   2
M  END
>  <reaction>  (5) 
rxn_1423

>  <mol_properties>  (5) 
{"1": {"label": "*0", "atom_type": "Ct"}, "2": {"label": "*1", "atom_type": "Cs"}, "7": {"label": "*2", "atom_type": "H0"}, "12": {"label": "*4", "atom_type": "S2s"}, "13": {"label": "*3", "atom_type": "Cs"}}

>  <type>  (5) 
unop_1

>  <geom_source>  (5) 
Heuristics

$$$$

     RDKit          3D

 19 17  0  0  0  0  0  0  0  0999 V2000
   -1.3445    0.2410   -2.7250 C   0  0  0  0  0  0  0  0  0  0  0  0
   -1.3445    0.2410   -1.5288 C   0  0  0  0  0  0  0  0  0  0  0  0
   -1.3445    0.2811   -0.0623 C   0  0  0  0  0  3  0  0  0  0  0  0
   -1.9825    1.5803    0.4597 C   0  0  0  0  0  0  0  0  0  0  0  0
   -2.0063   -0.9001    0.5025 C   0  0  0  0  0  0  0  0  0  0  0  0
   -2.5546   -1.8454    0.9890 C   0  0  0  0  0  0  0  0  0  0  0  0
   -1.3445    0.2410   -3.7884 H   0  0  0  0  0  0  0  0  0  0  0  0
   -0.0909    0.2539    0.3309 H   0  0  0  0  0  0  0  0  0  0  0  0
   -3.0258    1.6376    0.1520 H   0  0  0  0  0  0  0  0  0  0  0  0
   -1.4499    2.4417    0.0581 H   0  0  0  0  0  0  0  0  0  0  0  0
   -1.9353    1.6048    1.5480 H   0  0  0  0  0  0  0  0  0  0  0  0
   -3.0420   -2.6858    1.4215 H   0  0  0  0  0  0  0  0  0  0  0  0
    2.0886    1.0438   -0.6166 S   0  0  0  0  0  0  0  0  0  0  0  0
    1.1579    0.2267    0.7225 C   0  0  0  0  0  0  0  0  0  0  0  0
    1.8185   -0.9445    1.2710 C   0  0  0  0  0  0  0  0  0  0  0  0
    2.3630   -1.9099    1.7230 C   0  0  0  0  0  0  0  0  0  0  0  0
    3.1913    1.2897    0.1019 H   0  0  0  0  0  0  0  0  0  0  0  0
    0.9517    0.9454    1.5151 H   0  0  0  0  0  0  0  0  0  0  0  0
    2.8468   -2.7676    2.1247 H   0  0  0  0  0  0  0  0  0  0  0  0
  1  2  3  0
  1  7  1  0
  2  3  1  0
  3  4  1  0
  3  5  1  0
  4  9  1  0
  4 10  1  0
  4 11  1  0
  5  6  3  0
  6 12  1  0
  8 14  1  0
 13 14  1  0
 13 17  1  0
 14 15  1  0
 14 18  1  0
 15 16  3  0
 16 19  1  0
M  RAD  1   3   2
M  END
>  <reaction>  (6) 
rxn_1423

>  <mol_properties>  (6) 
{"1": {"label": "*0", "atom_type": "Ct"}, "2": {"label": "*1", "atom_type": "Cs"}, "7": {"label": "*2", "atom_type": "H0"}, "12": {"label": "*4", "atom_type": "S2s"}, "13": {"label": "*3", "atom_type": "Cs"}}

>  <type>  (6) 
unop_2

>  <geom_source>  (6) 
Heuristics

$$$$

     RDKit          3D

 19 17  0  0  0  0  0  0  0  0999 V2000
   -1.2773   -0.0889   -3.0363 C   0  0  0  0  0  0  0  0  0  0  0  0
   -1.2773   -0.0889   -1.8402 C   0  0  0  0  0  0  0  0  0  0  0  0
   -1.2773   -0.0488   -0.3736 C   0  0  0  0  0  3  0  0  0  0  0  0
   -1.9153    1.2504    0.1484 C   0  0  0  0  0  0  0  0  0  0  0  0
   -1.9391   -1.2300    0.1911 C   0  0  0  0  0  0  0  0  0  0  0  0
   -2.4874   -2.1753    0.6776 C   0  0  0  0  0  0  0  0  0  0  0  0
   -1.2773   -0.0889   -4.0998 H   0  0  0  0  0  0  0  0  0  0  0  0
   -0.0237   -0.0760    0.0195 H   0  0  0  0  0  0  0  0  0  0  0  0
   -2.9586    1.3077   -0.1594 H   0  0  0  0  0  0  0  0  0  0  0  0
   -1.3827    2.1119   -0.2533 H   0  0  0  0  0  0  0  0  0  0  0  0
   -1.8681    1.2749    1.2366 H   0  0  0  0  0  0  0  0  0  0  0  0
   -2.9748   -3.0157    1.1101 H   0  0  0  0  0  0  0  0  0  0  0  0
    1.2451    0.8211    1.9835 S   0  0  0  0  0  0  0  0  0  0  0  0
    1.2252   -0.1032    0.4111 C   0  0  0  0  0  0  0  0  0  0  0  0
    2.4345    0.0491   -0.3784 C   0  0  0  0  0  0  0  0  0  0  0  0
    3.4312    0.1746   -1.0292 C   0  0  0  0  0  0  0  0  0  0  0  0
    2.3371    0.2308    2.4852 H   0  0  0  0  0  0  0  0  0  0  0  0
    1.0385   -1.1581    0.6101 H   0  0  0  0  0  0  0  0  0  0  0  0
    4.3168    0.2861   -1.6074 H   0  0  0  0  0  0  0  0  0  0  0  0
  1  2  3  0
  1  7  1  0
  2  3  1  0
  3  4  1  0
  3  5  1  0
  4  9  1  0
  4 10  1  0
  4 11  1  0
  5  6  3  0
  6 12  1  0
  8 14  1  0
 13 14  1  0
 13 17  1  0
 14 15  1  0
 14 18  1  0
 15 16  3  0
 16 19  1  0
M  RAD  1   3   2
M  END
>  <reaction>  (7) 
rxn_1423

>  <mol_properties>  (7) 
{"1": {"label": "*0", "atom_type": "Ct"}, "2": {"label": "*1", "atom_type": "Cs"}, "7": {"label": "*2", "atom_type": "H0"}, "12": {"label": "*4", "atom_type": "S2s"}, "13": {"label": "*3", "atom_type": "Cs"}}

>  <type>  (7) 
unop_3

>  <geom_source>  (7) 
Heuristics

$$$$

     RDKit          3D

 19 17  0  0  0  0  0  0  0  0999 V2000
   -0.9816    0.5144   -3.0600 C   0  0  0  0  0  0  0  0  0  0  0  0
   -0.9816    0.5144   -1.8639 C   0  0  0  0  0  0  0  0  0  0  0  0
   -0.9816    0.5545   -0.3973 C   0  0  0  0  0  3  0  0  0  0  0  0
   -1.6196    1.8537    0.1247 C   0  0  0  0  0  0  0  0  0  0  0  0
   -1.6435   -0.6267    0.1675 C   0  0  0  0  0  0  0  0  0  0  0  0
   -2.1917   -1.5720    0.6540 C   0  0  0  0  0  0  0  0  0  0  0  0
   -0.9816    0.5144   -4.1235 H   0  0  0  0  0  0  0  0  0  0  0  0
    0.2720    0.5273   -0.0042 H   0  0  0  0  0  0  0  0  0  0  0  0
   -2.6629    1.9110   -0.1831 H   0  0  0  0  0  0  0  0  0  0  0  0
   -1.0870    2.7151   -0.2770 H   0  0  0  0  0  0  0  0  0  0  0  0
   -1.5725    1.8782    1.2129 H   0  0  0  0  0  0  0  0  0  0  0  0
   -2.6791   -2.4124    1.0865 H   0  0  0  0  0  0  0  0  0  0  0  0
    2.1861   -1.0655   -0.2706 S   0  0  0  0  0  0  0  0  0  0  0  0
    1.5208    0.5001    0.3875 C   0  0  0  0  0  0  0  0  0  0  0  0
    0.9177    0.3786    1.7030 C   0  0  0  0  0  0  0  0  0  0  0  0
    0.4207    0.2784    2.7872 C   0  0  0  0  0  0  0  0  0  0  0  0
    3.0407   -1.2941    0.7344 H   0  0  0  0  0  0  0  0  0  0  0  0
    2.3085    1.2528    0.4051 H   0  0  0  0  0  0  0  0  0  0  0  0
   -0.0210    0.1893    3.7506 H   0  0  0  0  0  0  0  0  0  0  0  0
  1  2  3  0
  1  7  1  0
  2  3  1  0
  3  4  1  0
  3  5  1  0
  4  9  1  0
  4 10  1  0
  4 11  1  0
  5  6  3  0
  6 12  1  0
  8 14  1  0
 13 14  1  0
 13 17  1  0
 14 15  1  0
 14 18  1  0
 15 16  3  0
 16 19  1  0
M  RAD  1   3   2
M  END
>  <reaction>  (8) 
rxn_1423

>  <mol_properties>  (8) 
{"1": {"label": "*0", "atom_type": "Ct"}, "2": {"label": "*1", "atom_type": "Cs"}, "7": {"label": "*2", "atom_type": "H0"}, "12": {"label": "*4", "atom_type": "S2s"}, "13": {"label": "*3", "atom_type": "Cs"}}

>  <type>  (8) 
unop_4

>  <geom_source>  (8) 
Heuristics

$$$$

     RDKit          3D

 19 17  0  0  0  0  0  0  0  0999 V2000
   -1.1455   -0.1333   -3.1344 C   0  0  0  0  0  0  0  0  0  0  0  0
   -1.1455   -0.1333   -1.9383 C   0  0  0  0  0  0  0  0  0  0  0  0
   -1.1455   -0.0933   -0.4717 C   0  0  0  0  0  3  0  0  0  0  0  0
   -1.7835    1.2059    0.0503 C   0  0  0  0  0  0  0  0  0  0  0  0
   -1.8073   -1.2745    0.0931 C   0  0  0  0  0  0  0  0  0  0  0  0
   -2.3555   -2.2198    0.5795 C   0  0  0  0  0  0  0  0  0  0  0  0
   -1.1455   -0.1333   -4.1979 H   0  0  0  0  0  0  0  0  0  0  0  0
    0.1081   -0.1205   -0.0786 H   0  0  0  0  0  0  0  0  0  0  0  0
   -2.8267    1.2632   -0.2575 H   0  0  0  0  0  0  0  0  0  0  0  0
   -1.2509    2.0674   -0.3514 H   0  0  0  0  0  0  0  0  0  0  0  0
   -1.7363    1.2304    1.1385 H   0  0  0  0  0  0  0  0  0  0  0  0
   -2.8430   -3.0602    1.0121 H   0  0  0  0  0  0  0  0  0  0  0  0
    1.2798   -0.0955    2.1347 S   0  0  0  0  0  0  0  0  0  0  0  0
    1.3570   -0.1477    0.3131 C   0  0  0  0  0  0  0  0  0  0  0  0
    2.0920    0.9564   -0.2784 C   0  0  0  0  0  0  0  0  0  0  0  0
    2.6977    1.8664   -0.7659 C   0  0  0  0  0  0  0  0  0  0  0  0
    2.6032   -0.1124    2.3368 H   0  0  0  0  0  0  0  0  0  0  0  0
    1.7857   -1.0968   -0.0072 H   0  0  0  0  0  0  0  0  0  0  0  0
    3.2360    2.6749   -1.1991 H   0  0  0  0  0  0  0  0  0  0  0  0
  1  2  3  0
  1  7  1  0
  2  3  1  0
  3  4  1  0
  3  5  1  0
  4  9  1  0
  4 10  1  0
  4 11  1  0
  5  6  3  0
  6 12  1  0
  8 14  1  0
 13 14  1  0
 13 17  1  0
 14 15  1  0
 14 18  1  0
 15 16  3  0
 16 19  1  0
M  RAD  1   3   2
M  END
>  <reaction>  (9) 
rxn_1423

>  <mol_properties>  (9) 
{"1": {"label": "*0", "atom_type": "Ct"}, "2": {"label": "*1", "atom_type": "Cs"}, "7": {"label": "*2", "atom_type": "H0"}, "12": {"label": "*4", "atom_type": "S2s"}, "13": {"label": "*3", "atom_type": "Cs"}}

>  <type>  (9) 
unop_5

>  <geom_source>  (9) 
Heuristics

$$$$

     RDKit          3D

 19 17  0  0  0  0  0  0  0  0999 V2000
   -0.9019    0.3877   -3.2044 C   0  0  0  0  0  0  0  0  0  0  0  0
   -0.9019    0.3877   -2.0082 C   0  0  0  0  0  0  0  0  0  0  0  0
   -0.9019    0.4278   -0.5417 C   0  0  0  0  0  3  0  0  0  0  0  0
   -1.5399    1.7270   -0.0197 C   0  0  0  0  0  0  0  0  0  0  0  0
   -1.5637   -0.7534    0.0231 C   0  0  0  0  0  0  0  0  0  0  0  0
   -2.1119   -1.6987    0.5096 C   0  0  0  0  0  0  0  0  0  0  0  0
   -0.9019    0.3877   -4.2678 H   0  0  0  0  0  0  0  0  0  0  0  0
    0.3517    0.4006   -0.1485 H   0  0  0  0  0  0  0  0  0  0  0  0
   -2.5831    1.7843   -0.3274 H   0  0  0  0  0  0  0  0  0  0  0  0
   -1.0073    2.5885   -0.4213 H   0  0  0  0  0  0  0  0  0  0  0  0
   -1.4927    1.7515    1.0685 H   0  0  0  0  0  0  0  0  0  0  0  0
   -2.5994   -2.5391    0.9421 H   0  0  0  0  0  0  0  0  0  0  0  0
    1.9958   -1.3972    0.4319 S   0  0  0  0  0  0  0  0  0  0  0  0
    1.6006    0.3734    0.2431 C   0  0  0  0  0  0  0  0  0  0  0  0
    0.9154    0.9504    1.3862 C   0  0  0  0  0  0  0  0  0  0  0  0
    0.3507    1.4260    2.3283 C   0  0  0  0  0  0  0  0  0  0  0  0
    2.7371   -1.2634    1.5388 H   0  0  0  0  0  0  0  0  0  0  0  0
    2.5130    0.9309    0.0333 H   0  0  0  0  0  0  0  0  0  0  0  0
   -0.1511    1.8485    3.1654 H   0  0  0  0  0  0  0  0  0  0  0  0
  1  2  3  0
  1  7  1  0
  2  3  1  0
  3  4  1  0
  3  5  1  0
  4  9  1  0
  4 10  1  0
  4 11  1  0
  5  6  3  0
  6 12  1  0
  8 14  1  0
 13 14  1  0
 13 17  1  0
 14 15  1  0
 14 18  1  0
 15 16  3  0
 16 19  1  0
M  RAD  1   3   2
M  END
>  <reaction>  (10) 
rxn_1423

>  <mol_properties>  (10) 
{"1": {"label": "*0", "atom_type": "Ct"}, "2": {"label": "*1", "atom_type": "Cs"}, "7": {"label": "*2", "atom_type": "H0"}, "12": {"label": "*4", "atom_type": "S2s"}, "13": {"label": "*3", "atom_type": "Cs"}}

>  <type>  (10) 
unop_6

>  <geom_source>  (10) 
Heuristics

$$$$

     RDKit          3D

 19 17  0  0  0  0  0  0  0  0999 V2000
   -0.8879    0.1870   -3.2813 C   0  0  0  0  0  0  0  0  0  0  0  0
   -0.8879    0.1870   -2.0852 C   0  0  0  0  0  0  0  0  0  0  0  0
   -0.8879    0.2270   -0.6186 C   0  0  0  0  0  3  0  0  0  0  0  0
   -1.5259    1.5262   -0.0966 C   0  0  0  0  0  0  0  0  0  0  0  0
   -1.5497   -0.9542   -0.0538 C   0  0  0  0  0  0  0  0  0  0  0  0
   -2.0980   -1.8995    0.4326 C   0  0  0  0  0  0  0  0  0  0  0  0
   -0.8879    0.1870   -4.3448 H   0  0  0  0  0  0  0  0  0  0  0  0
    0.3657    0.1998   -0.2255 H   0  0  0  0  0  0  0  0  0  0  0  0
   -2.5692    1.5835   -0.4044 H   0  0  0  0  0  0  0  0  0  0  0  0
   -0.9933    2.3877   -0.4983 H   0  0  0  0  0  0  0  0  0  0  0  0
   -1.4787    1.5507    0.9916 H   0  0  0  0  0  0  0  0  0  0  0  0
   -2.5854   -2.7399    0.8652 H   0  0  0  0  0  0  0  0  0  0  0  0
    1.7541   -1.3311    1.1890 S   0  0  0  0  0  0  0  0  0  0  0  0
    1.6146    0.1726    0.1662 C   0  0  0  0  0  0  0  0  0  0  0  0
    1.0997    1.3271    0.8811 C   0  0  0  0  0  0  0  0  0  0  0  0
    0.6753    2.2786    1.4703 C   0  0  0  0  0  0  0  0  0  0  0  0
    2.5785   -0.8079    2.1050 H   0  0  0  0  0  0  0  0  0  0  0  0
    2.5838    0.4065   -0.2734 H   0  0  0  0  0  0  0  0  0  0  0  0
    0.2983    3.1241    1.9939 H   0  0  0  0  0  0  0  0  0  0  0  0
  1  2  3  0
  1  7  1  0
  2  3  1  0
  3  4  1  0
  3  5  1  0
  4  9  1  0
  4 10  1  0
  4 11  1  0
  5  6  3  0
  6 12  1  0
  8 14  1  0
 13 14  1  0
 13 17  1  0
 14 15  1  0
 14 18  1  0
 15 16  3  0
 16 19  1  0
M  RAD  1   3   2
M  END
>  <reaction>  (11) 
rxn_1423

>  <mol_properties>  (11) 
{"1": {"label": "*0", "atom_type": "Ct"}, "2": {"label": "*1", "atom_type": "Cs"}, "7": {"label": "*2", "atom_type": "H0"}, "12": {"label": "*4", "atom_type": "S2s"}, "13": {"label": "*3", "atom_type": "Cs"}}

>  <type>  (11) 
unop_7

>  <geom_source>  (11) 
Heuristics

$$$$

     RDKit          3D

 19 17  0  0  0  0  0  0  0  0999 V2000
   -1.3549   -0.0163   -2.8819 C   0  0  0  0  0  0  0  0  0  0  0  0
   -1.3549   -0.0163   -1.6858 C   0  0  0  0  0  0  0  0  0  0  0  0
   -1.3549    0.0238   -0.2192 C   0  0  0  0  0  3  0  0  0  0  0  0
   -1.9930    1.3230    0.3028 C   0  0  0  0  0  0  0  0  0  0  0  0
   -2.0168   -1.1574    0.3456 C   0  0  0  0  0  0  0  0  0  0  0  0
   -2.5650   -2.1027    0.8320 C   0  0  0  0  0  0  0  0  0  0  0  0
   -1.3549   -0.0163   -3.9454 H   0  0  0  0  0  0  0  0  0  0  0  0
   -0.1013   -0.0034    0.1739 H   0  0  0  0  0  0  0  0  0  0  0  0
   -3.0362    1.3803   -0.0050 H   0  0  0  0  0  0  0  0  0  0  0  0
   -1.4603    2.1844   -0.0989 H   0  0  0  0  0  0  0  0  0  0  0  0
   -1.9458    1.3475    1.3910 H   0  0  0  0  0  0  0  0  0  0  0  0
   -3.0524   -2.9431    1.2646 H   0  0  0  0  0  0  0  0  0  0  0  0
    1.6495    1.7205    0.6581 S   0  0  0  0  0  0  0  0  0  0  0  0
    1.1475   -0.0306    0.5656 C   0  0  0  0  0  0  0  0  0  0  0  0
    2.2590   -0.9579    0.4483 C   0  0  0  0  0  0  0  0  0  0  0  0
    3.1751   -1.7221    0.3517 C   0  0  0  0  0  0  0  0  0  0  0  0
    2.4115    1.5956    1.7519 H   0  0  0  0  0  0  0  0  0  0  0  0
    0.5400   -0.2827    1.4343 H   0  0  0  0  0  0  0  0  0  0  0  0
    3.9891   -2.4012    0.2658 H   0  0  0  0  0  0  0  0  0  0  0  0
  1  2  3  0
  1  7  1  0
  2  3  1  0
  3  4  1  0
  3  5  1  0
  4  9  1  0
  4 10  1  0
  4 11  1  0
  5  6  3  0
  6 12  1  0
  8 14  1  0
 13 14  1  0
 13 17  1  0
 14 15  1  0
 14 18  1  0
 15 16  3  0
 16 19  1  0
M  RAD  1   3   2
M  END
>  <reaction>  (12) 
rxn_1423

>  <mol_properties>  (12) 
{"1": {"label": "*0", "atom_type": "Ct"}, "2": {"label": "*1", "atom_type": "Cs"}, "7": {"label": "*2", "atom_type": "H0"}, "12": {"label": "*4", "atom_type": "S2s"}, "13": {"label": "*3", "atom_type": "Cs"}}

>  <type>  (12) 
unop_8

>  <geom_source>  (12) 
Heuristics

$$$$

     RDKit          3D

 19 17  0  0  0  0  0  0  0  0999 V2000
   -1.1092    0.5331   -2.8929 C   0  0  0  0  0  0  0  0  0  0  0  0
   -1.1092    0.5331   -1.6967 C   0  0  0  0  0  0  0  0  0  0  0  0
   -1.1092    0.5732   -0.2302 C   0  0  0  0  0  3  0  0  0  0  0  0
   -1.7473    1.8724    0.2918 C   0  0  0  0  0  0  0  0  0  0  0  0
   -1.7711   -0.6081    0.3346 C   0  0  0  0  0  0  0  0  0  0  0  0
   -2.3193   -1.5534    0.8211 C   0  0  0  0  0  0  0  0  0  0  0  0
   -1.1092    0.5331   -3.9563 H   0  0  0  0  0  0  0  0  0  0  0  0
    0.1443    0.5459    0.1630 H   0  0  0  0  0  0  0  0  0  0  0  0
   -2.7905    1.9296   -0.0159 H   0  0  0  0  0  0  0  0  0  0  0  0
   -1.2147    2.7338   -0.1098 H   0  0  0  0  0  0  0  0  0  0  0  0
   -1.7001    1.8968    1.3801 H   0  0  0  0  0  0  0  0  0  0  0  0
   -2.8067   -2.3938    1.2536 H   0  0  0  0  0  0  0  0  0  0  0  0
    2.2705   -0.4250   -0.7364 S   0  0  0  0  0  0  0  0  0  0  0  0
    1.3932    0.5188    0.5546 C   0  0  0  0  0  0  0  0  0  0  0  0
    1.1201   -0.2434    1.7602 C   0  0  0  0  0  0  0  0  0  0  0  0
    0.8950   -0.8716    2.7539 C   0  0  0  0  0  0  0  0  0  0  0  0
    3.3419   -0.7273    0.0074 H   0  0  0  0  0  0  0  0  0  0  0  0
    1.9603    1.4163    0.7998 H   0  0  0  0  0  0  0  0  0  0  0  0
    0.6951   -1.4298    3.6368 H   0  0  0  0  0  0  0  0  0  0  0  0
  1  2  3  0
  1  7  1  0
  2  3  1  0
  3  4  1  0
  3  5  1  0
  4  9  1  0
  4 10  1  0
  4 11  1  0
  5  6  3  0
  6 12  1  0
  8 14  1  0
 13 14  1  0
 13 17  1  0
 14 15  1  0
 14 18  1  0
 15 16  3  0
 16 19  1  0
M  RAD  1   3   2
M  END
>  <reaction>  (13) 
rxn_1423

>  <mol_properties>  (13) 
{"1": {"label": "*0", "atom_type": "Ct"}, "2": {"label": "*1", "atom_type": "Cs"}, "7": {"label": "*2", "atom_type": "H0"}, "12": {"label": "*4", "atom_type": "S2s"}, "13": {"label": "*3", "atom_type": "Cs"}}

>  <type>  (13) 
unop_9

>  <geom_source>  (13) 
Heuristics

$$$$

     RDKit          3D

 19 17  0  0  0  0  0  0  0  0999 V2000
   -1.3701    0.0758   -2.7830 C   0  0  0  0  0  0  0  0  0  0  0  0
   -1.3701    0.0758   -1.5869 C   0  0  0  0  0  0  0  0  0  0  0  0
   -1.3701    0.1158   -0.1203 C   0  0  0  0  0  3  0  0  0  0  0  0
   -2.0081    1.4151    0.4017 C   0  0  0  0  0  0  0  0  0  0  0  0
   -2.0319   -1.0654    0.4445 C   0  0  0  0  0  0  0  0  0  0  0  0
   -2.5801   -2.0107    0.9310 C   0  0  0  0  0  0  0  0  0  0  0  0
   -1.3701    0.0758   -3.8465 H   0  0  0  0  0  0  0  0  0  0  0  0
   -0.1165    0.0886    0.2728 H   0  0  0  0  0  0  0  0  0  0  0  0
   -3.0513    1.4723    0.0939 H   0  0  0  0  0  0  0  0  0  0  0  0
   -1.4755    2.2765    0.0000 H   0  0  0  0  0  0  0  0  0  0  0  0
   -1.9609    1.4395    1.4899 H   0  0  0  0  0  0  0  0  0  0  0  0
   -3.0676   -2.8511    1.3635 H   0  0  0  0  0  0  0  0  0  0  0  0
    1.8901    1.5457   -0.0770 S   0  0  0  0  0  0  0  0  0  0  0  0
    1.1324    0.0615    0.6645 C   0  0  0  0  0  0  0  0  0  0  0  0
    2.0678   -1.0244    0.8988 C   0  0  0  0  0  0  0  0  0  0  0  0
    2.8388   -1.9194    1.0920 C   0  0  0  0  0  0  0  0  0  0  0  0
    2.7822    1.7564    0.8989 H   0  0  0  0  0  0  0  0  0  0  0  0
    0.6329    0.3322    1.5942 H   0  0  0  0  0  0  0  0  0  0  0  0
    3.5238   -2.7145    1.2636 H   0  0  0  0  0  0  0  0  0  0  0  0
  1  2  3  0
  1  7  1  0
  2  3  1  0
  3  4  1  0
  3  5  1  0
  4  9  1  0
  4 10  1  0
  4 11  1  0
  5  6  3  0
  6 12  1  0
  8 14  1  0
 13 14  1  0
 13 17  1  0
 14 15  1  0
 14 18  1  0
 15 16  3  0
 16 19  1  0
M  RAD  1   3   2
M  END
>  <reaction>  (14) 
rxn_1423

>  <mol_properties>  (14) 
{"1": {"label": "*0", "atom_type": "Ct"}, "2": {"label": "*1", "atom_type": "Cs"}, "7": {"label": "*2", "atom_type": "H0"}, "12": {"label": "*4", "atom_type": "S2s"}, "13": {"label": "*3", "atom_type": "Cs"}}

>  <type>  (14) 
unop_10

>  <geom_source>  (14) 
Heuristics

$$$$

     RDKit          3D

 19 17  0  0  0  0  0  0  0  0999 V2000
   -0.9679   -0.0294   -3.2553 C   0  0  0  0  0  0  0  0  0  0  0  0
   -0.9679   -0.0294   -2.0591 C   0  0  0  0  0  0  0  0  0  0  0  0
   -0.9679    0.0106   -0.5926 C   0  0  0  0  0  3  0  0  0  0  0  0
   -1.6059    1.3098   -0.0706 C   0  0  0  0  0  0  0  0  0  0  0  0
   -1.6297   -1.1706   -0.0278 C   0  0  0  0  0  0  0  0  0  0  0  0
   -2.1779   -2.1159    0.4587 C   0  0  0  0  0  0  0  0  0  0  0  0
   -0.9679   -0.0294   -4.3187 H   0  0  0  0  0  0  0  0  0  0  0  0
    0.2857   -0.0166   -0.1994 H   0  0  0  0  0  0  0  0  0  0  0  0
   -2.6491    1.3671   -0.3783 H   0  0  0  0  0  0  0  0  0  0  0  0
   -1.0733    2.1713   -0.4722 H   0  0  0  0  0  0  0  0  0  0  0  0
   -1.5587    1.3343    1.0177 H   0  0  0  0  0  0  0  0  0  0  0  0
   -2.6654   -2.9563    0.8912 H   0  0  0  0  0  0  0  0  0  0  0  0
    1.5011   -0.8804    1.8127 S   0  0  0  0  0  0  0  0  0  0  0  0
    1.5346   -0.0438    0.1922 C   0  0  0  0  0  0  0  0  0  0  0  0
    1.4977    1.4056    0.2753 C   0  0  0  0  0  0  0  0  0  0  0  0
    1.4673    2.6002    0.3438 C   0  0  0  0  0  0  0  0  0  0  0  0
    2.6086   -0.3042    2.2966 H   0  0  0  0  0  0  0  0  0  0  0  0
    2.4137   -0.3642   -0.3661 H   0  0  0  0  0  0  0  0  0  0  0  0
    1.4402    3.6616    0.4047 H   0  0  0  0  0  0  0  0  0  0  0  0
  1  2  3  0
  1  7  1  0
  2  3  1  0
  3  4  1  0
  3  5  1  0
  4  9  1  0
  4 10  1  0
  4 11  1  0
  5  6  3  0
  6 12  1  0
  8 14  1  0
 13 14  1  0
 13 17  1  0
 14 15  1  0
 14 18  1  0
 15 16  3  0
 16 19  1  0
M  RAD  1   3   2
M  END
>  <reaction>  (15) 
rxn_1423

>  <mol_properties>  (15) 
{"1": {"label": "*0", "atom_type": "Ct"}, "2": {"label": "*1", "atom_type": "Cs"}, "7": {"label": "*2", "atom_type": "H0"}, "12": {"label": "*4", "atom_type": "S2s"}, "13": {"label": "*3", "atom_type": "Cs"}}

>  <type>  (15) 
unop_11

>  <geom_source>  (15) 
Heuristics

$$$$

     RDKit          3D

 19 17  0  0  0  0  0  0  0  0999 V2000
   -1.2502    0.4268   -2.7617 C   0  0  0  0  0  0  0  0  0  0  0  0
   -1.2502    0.4268   -1.5655 C   0  0  0  0  0  0  0  0  0  0  0  0
   -1.2502    0.4669   -0.0989 C   0  0  0  0  0  3  0  0  0  0  0  0
   -1.8882    1.7661    0.4231 C   0  0  0  0  0  0  0  0  0  0  0  0
   -1.9120   -0.7144    0.4658 C   0  0  0  0  0  0  0  0  0  0  0  0
   -2.4603   -1.6597    0.9523 C   0  0  0  0  0  0  0  0  0  0  0  0
   -1.2502    0.4268   -3.8251 H   0  0  0  0  0  0  0  0  0  0  0  0
    0.0034    0.4396    0.2942 H   0  0  0  0  0  0  0  0  0  0  0  0
   -2.9315    1.8233    0.1153 H   0  0  0  0  0  0  0  0  0  0  0  0
   -1.3556    2.6275    0.0214 H   0  0  0  0  0  0  0  0  0  0  0  0
   -1.8410    1.7905    1.5113 H   0  0  0  0  0  0  0  0  0  0  0  0
   -2.9477   -2.5001    1.3848 H   0  0  0  0  0  0  0  0  0  0  0  0
    2.2267    0.3409   -0.8544 S   0  0  0  0  0  0  0  0  0  0  0  0
    1.2522    0.4125    0.6858 C   0  0  0  0  0  0  0  0  0  0  0  0
    1.4737   -0.7124    1.5773 C   0  0  0  0  0  0  0  0  0  0  0  0
    1.6563   -1.6395    2.3120 C   0  0  0  0  0  0  0  0  0  0  0  0
    3.4281    0.3029   -0.2647 H   0  0  0  0  0  0  0  0  0  0  0  0
    1.4586    1.3478    1.2053 H   0  0  0  0  0  0  0  0  0  0  0  0
    1.8185   -2.4632    2.9648 H   0  0  0  0  0  0  0  0  0  0  0  0
  1  2  3  0
  1  7  1  0
  2  3  1  0
  3  4  1  0
  3  5  1  0
  4  9  1  0
  4 10  1  0
  4 11  1  0
  5  6  3  0
  6 12  1  0
  8 14  1  0
 13 14  1  0
 13 17  1  0
 14 15  1  0
 14 18  1  0
 15 16  3  0
 16 19  1  0
M  RAD  1   3   2
M  END
>  <reaction>  (16) 
rxn_1423

>  <mol_properties>  (16) 
{"1": {"label": "*0", "atom_type": "Ct"}, "2": {"label": "*1", "atom_type": "Cs"}, "7": {"label": "*2", "atom_type": "H0"}, "12": {"label": "*4", "atom_type": "S2s"}, "13": {"label": "*3", "atom_type": "Cs"}}

>  <type>  (16) 
unop_12

>  <geom_source>  (16) 
Heuristics

$$$$

     RDKit          3D

 19 17  0  0  0  0  0  0  0  0999 V2000
    1.6961   -1.0324    1.8760 S   0  0  0  0  0  0  0  0  0  0  0  0
   -1.3430   -0.9203   -1.4031 C   0  0  0  0  0  0  0  0  0  0  0  0
    1.5625   -0.4239    0.1695 C   0  0  0  0  0  3  0  0  0  0  0  0
   -0.9970   -0.0799   -0.1773 C   0  0  0  0  0  0  0  0  0  0  0  0
    2.5409    0.6419   -0.0555 C   0  0  0  0  0  0  0  0  0  0  0  0
   -1.3926    1.3193   -0.3783 C   0  0  0  0  0  0  0  0  0  0  0  0
   -1.6569   -0.6128    1.0208 C   0  0  0  0  0  0  0  0  0  0  0  0
    3.3461    1.5195   -0.2419 C   0  0  0  0  0  0  0  0  0  0  0  0
   -1.7160    2.4691   -0.5443 C   0  0  0  0  0  0  0  0  0  0  0  0
   -2.1976   -1.0517    2.0053 C   0  0  0  0  0  0  0  0  0  0  0  0
    1.7499   -1.2566   -0.5397 H   0  0  0  0  0  0  0  0  0  0  0  0
    0.3113    0.0662   -0.0351 H   0  0  0  0  0  0  0  0  0  0  0  0
   -1.0129   -1.9695   -1.2472 H   0  0  0  0  0  0  0  0  0  0  0  0
   -2.4383   -0.9097   -1.5954 H   0  0  0  0  0  0  0  0  0  0  0  0
   -0.8149   -0.5218   -2.2955 H   0  0  0  0  0  0  0  0  0  0  0  0
    2.9819   -1.5686    1.6677 H   0  0  0  0  0  0  0  0  0  0  0  0
    4.0530    2.2899   -0.4053 H   0  0  0  0  0  0  0  0  0  0  0  0
   -2.0000    3.4781   -0.6899 H   0  0  0  0  0  0  0  0  0  0  0  0
   -2.6723   -1.4368    2.8691 H   0  0  0  0  0  0  0  0  0  0  0  0
  1  3  1  0
  1 16  1  0
  2  4  1  0
  2 13  1  0
  2 14  1  0
  2 15  1  0
  3  5  1  0
  3 11  1  0
  4  6  1  0
  4  7  1  0
  4 12  1  0
  5  8  3  0
  6  9  3  0
  7 10  3  0
  8 17  1  0
  9 18  1  0
 10 19  1  0
M  RAD  1   3   2
M  END
>  <reaction>  (17) 
rxn_1423

>  <mol_properties>  (17) 
{"1": {"label": "*0", "atom_type": "Ct"}, "2": {"label": "*1", "atom_type": "Cs"}, "7": {"label": "*2", "atom_type": "H0"}, "12": {"label": "*4", "atom_type": "S2s"}, "13": {"label": "*3", "atom_type": "Cs"}}

>  <type>  (17) 
unop_13

>  <geom_source>  (17) 
AutoTST

$$$$
