
     RDKit          3D

 18 18  0  0  0  0  0  0  0  0999 V2000
   -2.4852    0.3210   -0.3966 C   0  0  0  0  0  0  0  0  0  0  0  0
   -1.5917   -0.2708    0.6941 C   0  0  0  0  0  0  0  0  0  0  0  0
   -0.1292   -0.1692    0.3493 C   0  0  0  0  0  0  0  0  0  0  0  0
    0.6099    0.9558    0.7015 C   0  0  0  0  0  0  0  0  0  0  0  0
    1.9447    1.0728    0.3458 C   0  0  0  0  0  0  0  0  0  0  0  0
    2.5646    0.0613   -0.3720 C   0  0  0  0  0  0  0  0  0  0  0  0
    1.8399   -1.0657   -0.7287 C   0  0  0  0  0  0  0  0  0  0  0  0
    0.5055   -1.1769   -0.3700 C   0  0  0  0  0  0  0  0  0  0  0  0
   -2.3325   -0.1971   -1.3452 H   0  0  0  0  0  0  0  0  0  0  0  0
   -2.2554    1.3763   -0.5546 H   0  0  0  0  0  0  0  0  0  0  0  0
   -3.5397    0.2376   -0.1280 H   0  0  0  0  0  0  0  0  0  0  0  0
   -1.7801    0.2462    1.6380 H   0  0  0  0  0  0  0  0  0  0  0  0
   -1.8568   -1.3190    0.8516 H   0  0  0  0  0  0  0  0  0  0  0  0
    0.1327    1.7497    1.2656 H   0  0  0  0  0  0  0  0  0  0  0  0
    2.5033    1.9550    0.6330 H   0  0  0  0  0  0  0  0  0  0  0  0
    3.6077    0.1491   -0.6484 H   0  0  0  0  0  0  0  0  0  0  0  0
    2.3163   -1.8632   -1.2854 H   0  0  0  0  0  0  0  0  0  0  0  0
   -0.0540   -2.0629   -0.6500 H   0  0  0  0  0  0  0  0  0  0  0  0
  1  2  1  0
  1  9  1  0
  1 10  1  0
  1 11  1  0
  2  3  1  0
  2 12  1  0
  2 13  1  0
  3  4  2  0
  3  8  1  0
  4  5  1  0
  4 14  1  0
  5  6  2  0
  5 15  1  0
  6  7  1  0
  6 16  1  0
  7  8  2  0
  7 17  1  0
  8 18  1  0
M  END
>  <reaction>  (1) 
rxn_1486

>  <mol_properties>  (1) 
{"1": {"label": "donator", "atom_type": "Cs"}, "11": {"label": "d_hydrogen", "atom_type": "H0"}}

>  <type>  (1) 
r1h

$$$$

     RDKit          3D

 15 14  0  0  0  0  0  0  0  0999 V2000
    2.4381    0.5770   -0.2356 C   0  0  0  0  0  0  0  0  0  0  0  0
    1.4430   -0.3367   -0.1409 C   0  0  0  0  0  0  0  0  0  0  0  0
    0.0521   -0.0957   -0.0045 C   0  0  0  0  0  3  0  0  0  0  0  0
   -0.5167    1.2867    0.0548 C   0  0  0  0  0  0  0  0  0  0  0  0
   -0.8226   -1.2147    0.0778 C   0  0  0  0  0  0  0  0  0  0  0  0
   -2.1666   -1.1669    0.2092 C   0  0  0  0  0  0  0  0  0  0  0  0
    3.4666    0.2585   -0.3369 H   0  0  0  0  0  0  0  0  0  0  0  0
    2.2594    1.6438   -0.2152 H   0  0  0  0  0  0  0  0  0  0  0  0
    1.7306   -1.3845   -0.1719 H   0  0  0  0  0  0  0  0  0  0  0  0
   -1.2300    1.4469   -0.7583 H   0  0  0  0  0  0  0  0  0  0  0  0
    0.2481    2.0557   -0.0178 H   0  0  0  0  0  0  0  0  0  0  0  0
   -1.0592    1.4421    0.9914 H   0  0  0  0  0  0  0  0  0  0  0  0
   -0.3519   -2.1929    0.0292 H   0  0  0  0  0  0  0  0  0  0  0  0
   -2.7080   -0.2310    0.2646 H   0  0  0  0  0  0  0  0  0  0  0  0
   -2.7513   -2.0751    0.2638 H   0  0  0  0  0  0  0  0  0  0  0  0
  1  2  2  3
  1  7  1  0
  1  8  1  0
  2  3  1  0
  2  9  1  0
  3  4  1  0
  3  5  1  0
  4 10  1  0
  4 11  1  0
  4 12  1  0
  5  6  2  3
  5 13  1  0
  6 14  1  0
  6 15  1  0
M  RAD  1   3   2
M  END
>  <reaction>  (2) 
rxn_1486

>  <mol_properties>  (2) 
{"2": {"label": "acceptor", "atom_type": "Cs"}}

>  <type>  (2) 
r2

$$$$

     RDKit          3D

 16 15  0  0  0  0  0  0  0  0999 V2000
    1.7961   -0.3807    1.6176 C   0  0  0  0  0  0  0  0  0  0  0  0
    0.8562   -0.8708    0.8256 C   0  0  0  0  0  0  0  0  0  0  0  0
    0.0895   -0.0826   -0.2048 C   0  0  0  0  0  0  0  0  0  0  0  0
   -1.4061   -0.1111    0.0982 C   0  0  0  0  0  0  0  0  0  0  0  0
    0.4476   -0.5902   -1.5797 C   0  0  0  0  0  0  0  0  0  0  0  0
   -0.3793   -1.1113   -2.4728 C   0  0  0  0  0  0  0  0  0  0  0  0
    2.3110   -1.0032    2.3386 H   0  0  0  0  0  0  0  0  0  0  0  0
    2.0846    0.6643    1.5737 H   0  0  0  0  0  0  0  0  0  0  0  0
    0.5921   -1.9241    0.8925 H   0  0  0  0  0  0  0  0  0  0  0  0
    0.4358    0.9557   -0.1462 H   0  0  0  0  0  0  0  0  0  0  0  0
   -1.5968    0.3080    1.0865 H   0  0  0  0  0  0  0  0  0  0  0  0
   -1.9674    0.4693   -0.6359 H   0  0  0  0  0  0  0  0  0  0  0  0
   -1.7902   -1.1338    0.0883 H   0  0  0  0  0  0  0  0  0  0  0  0
    1.5049   -0.5197   -1.8214 H   0  0  0  0  0  0  0  0  0  0  0  0
   -1.4421   -1.2131   -2.2889 H   0  0  0  0  0  0  0  0  0  0  0  0
   -0.0162   -1.4558   -3.4328 H   0  0  0  0  0  0  0  0  0  0  0  0
  1  2  2  3
  1  7  1  0
  1  8  1  0
  2  3  1  0
  2  9  1  0
  3  4  1  0
  3  5  1  0
  3 10  1  0
  4 11  1  0
  4 12  1  0
  4 13  1  0
  5  6  2  3
  5 14  1  0
  6 15  1  0
  6 16  1  0
M  END
>  <reaction>  (3) 
rxn_1486

>  <mol_properties>  (3) 
{"2": {"label": "acceptor", "atom_type": "Cs"}, "15": {"label": "a_hydrogen", "atom_type": "H0"}}

>  <type>  (3) 
r2h

$$$$

     RDKit          3D

 33 32  0  0  0  0  0  0  0  0999 V2000
   -2.9302   -1.0239   -1.0242 C   0  0  0  0  0  0  0  0  0  0  0  0
   -2.0120   -0.7612   -0.0956 C   0  0  0  0  0  0  0  0  0  0  0  0
   -0.9075   -1.6400    0.3313 C   0  0  0  0  0  0  0  0  0  0  0  0
   -0.9005   -3.0521   -0.2039 C   0  0  0  0  0  0  0  0  0  0  0  0
   -0.5179   -1.4538    1.7423 C   0  0  0  0  0  0  0  0  0  0  0  0
   -0.0072   -2.3751    2.5563 C   0  0  0  0  0  0  0  0  0  0  0  0
   -3.6840   -0.2904   -1.2792 H   0  0  0  0  0  0  0  0  0  0  0  0
   -2.9752   -1.9720   -1.5458 H   0  0  0  0  0  0  0  0  0  0  0  0
   -2.0363    0.2105    0.3913 H   0  0  0  0  0  0  0  0  0  0  0  0
    0.0521   -3.5409    0.0039 H   0  0  0  0  0  0  0  0  0  0  0  0
   -1.0433   -3.0601   -1.2848 H   0  0  0  0  0  0  0  0  0  0  0  0
   -1.6956   -3.6507    0.2488 H   0  0  0  0  0  0  0  0  0  0  0  0
   -0.6391   -0.4416    2.1198 H   0  0  0  0  0  0  0  0  0  0  0  0
    0.1350   -3.4050    2.2529 H   0  0  0  0  0  0  0  0  0  0  0  0
    0.2718   -2.1229    3.5711 H   0  0  0  0  0  0  0  0  0  0  0  0
    0.7668   -0.7758   -2.4306 C   0  0  0  0  0  0  0  0  0  0  0  0
    1.1447   -0.4806   -1.0071 C   0  0  0  0  0  0  0  0  0  0  0  0
    1.0676    0.8741   -0.4775 C   0  0  0  0  0  0  0  0  0  0  0  0
    0.3105    1.8759   -1.0966 C   0  0  0  0  0  3  0  0  0  0  0  0
    0.1888    3.1309   -0.5242 C   0  0  0  0  0  0  0  0  0  0  0  0
    0.8119    3.4176    0.6816 C   0  0  0  0  0  0  0  0  0  0  0  0
    1.5640    2.4337    1.3116 C   0  0  0  0  0  0  0  0  0  0  0  0
    1.6884    1.1812    0.7414 C   0  0  0  0  0  0  0  0  0  0  0  0
    1.3716   -0.1961   -3.1357 H   0  0  0  0  0  0  0  0  0  0  0  0
   -0.2825   -0.5377   -2.6222 H   0  0  0  0  0  0  0  0  0  0  0  0
    0.9117   -1.8325   -2.6549 H   0  0  0  0  0  0  0  0  0  0  0  0
    0.0954   -1.0963   -0.2775 H   0  0  0  0  0  0  0  0  0  0  0  0
    1.9764   -1.0629   -0.6160 H   0  0  0  0  0  0  0  0  0  0  0  0
   -0.1879    1.6701   -2.0351 H   0  0  0  0  0  0  0  0  0  0  0  0
   -0.3986    3.8917   -1.0235 H   0  0  0  0  0  0  0  0  0  0  0  0
    0.7149    4.3995    1.1266 H   0  0  0  0  0  0  0  0  0  0  0  0
    2.0559    2.6471    2.2525 H   0  0  0  0  0  0  0  0  0  0  0  0
    2.2697    0.4151    1.2417 H   0  0  0  0  0  0  0  0  0  0  0  0
  1  2  2  3
  1  7  1  0
  1  8  1  0
  2  3  1  0
  2  9  1  0
  3  4  1  0
  3  5  1  0
  3 27  1  0
  4 10  1  0
  4 11  1  0
  4 12  1  0
  5  6  2  3
  5 13  1  0
  6 14  1  0
  6 15  1  0
 16 17  1  0
 16 24  1  0
 16 25  1  0
 16 26  1  0
 17 18  2  3
 17 28  1  0
 18 19  1  0
 18 23  1  0
 19 20  1  0
 19 29  1  0
 20 21  2  0
 20 30  1  0
 21 22  1  0
 21 31  1  0
 22 23  2  0
 22 32  1  0
 23 33  1  0
M  RAD  1  19   2
M  END
>  <reaction>  (4) 
rxn_1486

>  <mol_properties>  (4) 
{"1": {"label": "*0", "atom_type": "Cd"}, "2": {"label": "*1", "atom_type": "Cs"}, "16": {"label": "*3", "atom_type": "Cd"}, "17": {"label": "*4", "atom_type": "Cd"}, "26": {"label": "*2", "atom_type": "H0"}}

>  <type>  (4) 
ts

$$$$

     RDKit          3D

 33 32  0  0  0  0  0  0  0  0999 V2000
    0.4850   -3.6472    0.6140 C   0  0  0  0  0  0  0  0  0  0  0  0
   -0.5641   -2.8953    0.9057 C   0  0  0  0  0  0  0  0  0  0  0  0
   -1.0618   -1.7386    0.0781 C   0  0  0  0  0  3  0  0  0  0  0  0
   -1.0344   -0.4454    0.8882 C   0  0  0  0  0  0  0  0  0  0  0  0
   -2.4190   -2.0829   -0.4837 C   0  0  0  0  0  0  0  0  0  0  0  0
   -3.5526   -1.4319   -0.2737 C   0  0  0  0  0  0  0  0  0  0  0  0
    0.7902   -4.4665    1.2528 H   0  0  0  0  0  0  0  0  0  0  0  0
    1.0786   -3.4690   -0.2764 H   0  0  0  0  0  0  0  0  0  0  0  0
   -1.1404   -3.1021    1.8051 H   0  0  0  0  0  0  0  0  0  0  0  0
   -1.3803    0.4001    0.2913 H   0  0  0  0  0  0  0  0  0  0  0  0
   -0.0191   -0.2355    1.2257 H   0  0  0  0  0  0  0  0  0  0  0  0
   -1.6722   -0.5209    1.7719 H   0  0  0  0  0  0  0  0  0  0  0  0
   -2.4324   -2.9727   -1.1078 H   0  0  0  0  0  0  0  0  0  0  0  0
   -3.6047   -0.5423    0.3424 H   0  0  0  0  0  0  0  0  0  0  0  0
   -4.4793   -1.7701   -0.7198 H   0  0  0  0  0  0  0  0  0  0  0  0
    1.0455   -0.4365   -2.3239 C   0  0  0  0  0  0  0  0  0  0  0  0
    1.0455   -0.4365   -0.7948 C   0  0  0  0  0  0  0  0  0  0  0  0
    1.0455    0.9578   -0.2254 C   0  0  0  0  0  0  0  0  0  0  0  0
   -0.1491    1.6267    0.0224 C   0  0  0  0  0  0  0  0  0  0  0  0
   -0.1523    2.9270    0.5033 C   0  0  0  0  0  0  0  0  0  0  0  0
    1.0455    3.5823    0.7451 C   0  0  0  0  0  0  0  0  0  0  0  0
    2.2433    2.9270    0.5033 C   0  0  0  0  0  0  0  0  0  0  0  0
    2.2400    1.6267    0.0224 C   0  0  0  0  0  0  0  0  0  0  0  0
    1.9267    0.0786   -2.7107 H   0  0  0  0  0  0  0  0  0  0  0  0
    0.1642    0.0786   -2.7107 H   0  0  0  0  0  0  0  0  0  0  0  0
    1.0455   -1.4549   -2.7162 H   0  0  0  0  0  0  0  0  0  0  0  0
   -0.0065   -1.0865   -0.3590 H   0  0  0  0  0  0  0  0  0  0  0  0
    1.9221   -0.9782   -0.4317 H   0  0  0  0  0  0  0  0  0  0  0  0
   -1.0899    1.1196   -0.1614 H   0  0  0  0  0  0  0  0  0  0  0  0
   -1.0931    3.4287    0.6932 H   0  0  0  0  0  0  0  0  0  0  0  0
    1.0455    4.5966    1.1234 H   0  0  0  0  0  0  0  0  0  0  0  0
    3.1841    3.4287    0.6932 H   0  0  0  0  0  0  0  0  0  0  0  0
    3.1809    1.1196   -0.1614 H   0  0  0  0  0  0  0  0  0  0  0  0
  1  2  2  3
  1  7  1  0
  1  8  1  0
  2  3  1  0
  2  9  1  0
  3  4  1  0
  3  5  1  0
  4 10  1  0
  4 11  1  0
  4 12  1  0
  5  6  2  3
  5 13  1  0
  6 14  1  0
  6 15  1  0
 16 17  1  0
 16 24  1  0
 16 25  1  0
 16 26  1  0
 17 18  1  0
 17 27  1  0
 17 28  1  0
 18 19  2  0
 18 23  1  0
 19 20  1  0
 19 29  1  0
 20 21  2  0
 20 30  1  0
 21 22  1  0
 21 31  1  0
 22 23  2  0
 22 32  1  0
 23 33  1  0
M  RAD  1   3   2
M  END
>  <reaction>  (5) 
rxn_1486

>  <mol_properties>  (5) 
{"1": {"label": "*0", "atom_type": "Cd"}, "2": {"label": "*1", "atom_type": "Cs"}, "16": {"label": "*3", "atom_type": "Cd"}, "17": {"label": "*4", "atom_type": "Cd"}, "26": {"label": "*2", "atom_type": "H0"}}

>  <type>  (5) 
unop_1

>  <geom_source>  (5) 
Heuristics

$$$$

     RDKit          3D

 33 32  0  0  0  0  0  0  0  0999 V2000
   -0.9517   -2.8038   -2.1115 C   0  0  0  0  0  0  0  0  0  0  0  0
   -1.3457   -2.8163   -0.8484 C   0  0  0  0  0  0  0  0  0  0  0  0
   -1.0112   -1.7642    0.1772 C   0  0  0  0  0  3  0  0  0  0  0  0
   -0.2420   -2.3756    1.3451 C   0  0  0  0  0  0  0  0  0  0  0  0
   -2.2774   -1.0506    0.5818 C   0  0  0  0  0  0  0  0  0  0  0  0
   -2.7962   -0.9844    1.7981 C   0  0  0  0  0  0  0  0  0  0  0  0
   -1.2285   -3.5929   -2.7993 H   0  0  0  0  0  0  0  0  0  0  0  0
   -0.3355   -2.0017   -2.5039 H   0  0  0  0  0  0  0  0  0  0  0  0
   -1.9658   -3.6339   -0.4867 H   0  0  0  0  0  0  0  0  0  0  0  0
    0.0165   -1.6172    2.0859 H   0  0  0  0  0  0  0  0  0  0  0  0
    0.6798   -2.8352    0.9877 H   0  0  0  0  0  0  0  0  0  0  0  0
   -0.8312   -3.1494    1.8425 H   0  0  0  0  0  0  0  0  0  0  0  0
   -2.7995   -0.5656   -0.2388 H   0  0  0  0  0  0  0  0  0  0  0  0
   -2.3260   -1.4513    2.6552 H   0  0  0  0  0  0  0  0  0  0  0  0
   -3.7204   -0.4508    1.9805 H   0  0  0  0  0  0  0  0  0  0  0  0
    1.0961   -0.4621   -2.2248 C   0  0  0  0  0  0  0  0  0  0  0  0
    1.0961   -0.4621   -0.6957 C   0  0  0  0  0  0  0  0  0  0  0  0
    1.0961    0.9322   -0.1263 C   0  0  0  0  0  0  0  0  0  0  0  0
   -0.0984    1.6011    0.1214 C   0  0  0  0  0  0  0  0  0  0  0  0
   -0.1017    2.9013    0.6024 C   0  0  0  0  0  0  0  0  0  0  0  0
    1.0961    3.5567    0.8442 C   0  0  0  0  0  0  0  0  0  0  0  0
    2.2939    2.9013    0.6024 C   0  0  0  0  0  0  0  0  0  0  0  0
    2.2907    1.6011    0.1214 C   0  0  0  0  0  0  0  0  0  0  0  0
    1.9774    0.0530   -2.6117 H   0  0  0  0  0  0  0  0  0  0  0  0
    0.2148    0.0530   -2.6117 H   0  0  0  0  0  0  0  0  0  0  0  0
    1.0961   -1.4805   -2.6172 H   0  0  0  0  0  0  0  0  0  0  0  0
    0.0442   -1.1121   -0.2600 H   0  0  0  0  0  0  0  0  0  0  0  0
    1.9728   -1.0038   -0.3326 H   0  0  0  0  0  0  0  0  0  0  0  0
   -1.0393    1.0940   -0.0623 H   0  0  0  0  0  0  0  0  0  0  0  0
   -1.0425    3.4030    0.7923 H   0  0  0  0  0  0  0  0  0  0  0  0
    1.0961    4.5710    1.2225 H   0  0  0  0  0  0  0  0  0  0  0  0
    3.2347    3.4030    0.7923 H   0  0  0  0  0  0  0  0  0  0  0  0
    3.2315    1.0940   -0.0623 H   0  0  0  0  0  0  0  0  0  0  0  0
  1  2  2  3
  1  7  1  0
  1  8  1  0
  2  3  1  0
  2  9  1  0
  3  4  1  0
  3  5  1  0
  4 10  1  0
  4 11  1  0
  4 12  1  0
  5  6  2  3
  5 13  1  0
  6 14  1  0
  6 15  1  0
 16 17  1  0
 16 24  1  0
 16 25  1  0
 16 26  1  0
 17 18  1  0
 17 27  1  0
 17 28  1  0
 18 19  2  0
 18 23  1  0
 19 20  1  0
 19 29  1  0
 20 21  2  0
 20 30  1  0
 21 22  1  0
 21 31  1  0
 22 23  2  0
 22 32  1  0
 23 33  1  0
M  RAD  1   3   2
M  END
>  <reaction>  (6) 
rxn_1486

>  <mol_properties>  (6) 
{"1": {"label": "*0", "atom_type": "Cd"}, "2": {"label": "*1", "atom_type": "Cs"}, "16": {"label": "*3", "atom_type": "Cd"}, "17": {"label": "*4", "atom_type": "Cd"}, "26": {"label": "*2", "atom_type": "H0"}}

>  <type>  (6) 
unop_2

>  <geom_source>  (6) 
Heuristics

$$$$

     RDKit          3D

 33 32  0  0  0  0  0  0  0  0999 V2000
    0.5264   -2.7107    1.7666 C   0  0  0  0  0  0  0  0  0  0  0  0
   -0.6947   -2.3486    1.4075 C   0  0  0  0  0  0  0  0  0  0  0  0
   -1.0645   -1.7317    0.0834 C   0  0  0  0  0  3  0  0  0  0  0  0
   -1.6805   -0.3501    0.2860 C   0  0  0  0  0  0  0  0  0  0  0  0
   -1.9450   -2.6913   -0.6782 C   0  0  0  0  0  0  0  0  0  0  0  0
   -3.1827   -2.4723   -1.0941 C   0  0  0  0  0  0  0  0  0  0  0  0
    0.7250   -3.1506    2.7358 H   0  0  0  0  0  0  0  0  0  0  0  0
    1.3739   -2.5789    1.1022 H   0  0  0  0  0  0  0  0  0  0  0  0
   -1.5238   -2.4970    2.0961 H   0  0  0  0  0  0  0  0  0  0  0  0
   -1.9385    0.1096   -0.6695 H   0  0  0  0  0  0  0  0  0  0  0  0
   -0.9764    0.3026    0.8025 H   0  0  0  0  0  0  0  0  0  0  0  0
   -2.5885   -0.4089    0.8907 H   0  0  0  0  0  0  0  0  0  0  0  0
   -1.4887   -3.6582   -0.8740 H   0  0  0  0  0  0  0  0  0  0  0  0
   -3.6932   -1.5319   -0.9250 H   0  0  0  0  0  0  0  0  0  0  0  0
   -3.7338   -3.2363   -1.6278 H   0  0  0  0  0  0  0  0  0  0  0  0
    1.0428   -0.4296   -2.3187 C   0  0  0  0  0  0  0  0  0  0  0  0
    1.0428   -0.4296   -0.7896 C   0  0  0  0  0  0  0  0  0  0  0  0
    1.0428    0.9647   -0.2202 C   0  0  0  0  0  0  0  0  0  0  0  0
   -0.1517    1.6336    0.0276 C   0  0  0  0  0  0  0  0  0  0  0  0
   -0.1550    2.9338    0.5085 C   0  0  0  0  0  0  0  0  0  0  0  0
    1.0428    3.5892    0.7503 C   0  0  0  0  0  0  0  0  0  0  0  0
    2.2406    2.9338    0.5085 C   0  0  0  0  0  0  0  0  0  0  0  0
    2.2374    1.6336    0.0276 C   0  0  0  0  0  0  0  0  0  0  0  0
    1.9241    0.0855   -2.7055 H   0  0  0  0  0  0  0  0  0  0  0  0
    0.1615    0.0855   -2.7055 H   0  0  0  0  0  0  0  0  0  0  0  0
    1.0428   -1.4480   -2.7110 H   0  0  0  0  0  0  0  0  0  0  0  0
   -0.0091   -1.0796   -0.3538 H   0  0  0  0  0  0  0  0  0  0  0  0
    1.9195   -0.9713   -0.4264 H   0  0  0  0  0  0  0  0  0  0  0  0
   -1.0926    1.1265   -0.1562 H   0  0  0  0  0  0  0  0  0  0  0  0
   -1.0958    3.4355    0.6984 H   0  0  0  0  0  0  0  0  0  0  0  0
    1.0428    4.6035    1.1287 H   0  0  0  0  0  0  0  0  0  0  0  0
    3.1814    3.4355    0.6984 H   0  0  0  0  0  0  0  0  0  0  0  0
    3.1782    1.1265   -0.1562 H   0  0  0  0  0  0  0  0  0  0  0  0
  1  2  2  3
  1  7  1  0
  1  8  1  0
  2  3  1  0
  2  9  1  0
  3  4  1  0
  3  5  1  0
  4 10  1  0
  4 11  1  0
  4 12  1  0
  5  6  2  3
  5 13  1  0
  6 14  1  0
  6 15  1  0
 16 17  1  0
 16 24  1  0
 16 25  1  0
 16 26  1  0
 17 18  1  0
 17 27  1  0
 17 28  1  0
 18 19  2  0
 18 23  1  0
 19 20  1  0
 19 29  1  0
 20 21  2  0
 20 30  1  0
 21 22  1  0
 21 31  1  0
 22 23  2  0
 22 32  1  0
 23 33  1  0
M  RAD  1   3   2
M  END
>  <reaction>  (7) 
rxn_1486

>  <mol_properties>  (7) 
{"1": {"label": "*0", "atom_type": "Cd"}, "2": {"label": "*1", "atom_type": "Cs"}, "16": {"label": "*3", "atom_type": "Cd"}, "17": {"label": "*4", "atom_type": "Cd"}, "26": {"label": "*2", "atom_type": "H0"}}

>  <type>  (7) 
unop_3

>  <geom_source>  (7) 
Heuristics

$$$$

     RDKit          3D

 33 32  0  0  0  0  0  0  0  0999 V2000
   -1.9156   -1.3463   -2.1469 C   0  0  0  0  0  0  0  0  0  0  0  0
   -2.0964   -1.7533   -0.9009 C   0  0  0  0  0  0  0  0  0  0  0  0
   -1.0058   -1.9248    0.1247 C   0  0  0  0  0  3  0  0  0  0  0  0
   -0.9434   -3.3711    0.6081 C   0  0  0  0  0  0  0  0  0  0  0  0
   -1.2048   -0.9160    1.2287 C   0  0  0  0  0  0  0  0  0  0  0  0
   -1.4037   -1.1738    2.5120 C   0  0  0  0  0  0  0  0  0  0  0  0
   -2.7448   -1.2432   -2.8354 H   0  0  0  0  0  0  0  0  0  0  0  0
   -0.9283   -1.1018   -2.5245 H   0  0  0  0  0  0  0  0  0  0  0  0
   -3.0999   -1.9879   -0.5522 H   0  0  0  0  0  0  0  0  0  0  0  0
   -0.1465   -3.5069    1.3412 H   0  0  0  0  0  0  0  0  0  0  0  0
   -0.7551   -4.0398   -0.2321 H   0  0  0  0  0  0  0  0  0  0  0  0
   -1.8859   -3.6723    1.0713 H   0  0  0  0  0  0  0  0  0  0  0  0
   -1.1938    0.1189    0.8966 H   0  0  0  0  0  0  0  0  0  0  0  0
   -1.4305   -2.1838    2.9031 H   0  0  0  0  0  0  0  0  0  0  0  0
   -1.5454   -0.3717    3.2253 H   0  0  0  0  0  0  0  0  0  0  0  0
    1.1015   -0.6227   -2.2774 C   0  0  0  0  0  0  0  0  0  0  0  0
    1.1015   -0.6227   -0.7482 C   0  0  0  0  0  0  0  0  0  0  0  0
    1.1015    0.7716   -0.1788 C   0  0  0  0  0  0  0  0  0  0  0  0
   -0.0930    1.4405    0.0689 C   0  0  0  0  0  0  0  0  0  0  0  0
   -0.0963    2.7407    0.5498 C   0  0  0  0  0  0  0  0  0  0  0  0
    1.1015    3.3961    0.7916 C   0  0  0  0  0  0  0  0  0  0  0  0
    2.2994    2.7407    0.5498 C   0  0  0  0  0  0  0  0  0  0  0  0
    2.2961    1.4405    0.0689 C   0  0  0  0  0  0  0  0  0  0  0  0
    1.9828   -0.1076   -2.6642 H   0  0  0  0  0  0  0  0  0  0  0  0
    0.2203   -0.1076   -2.6642 H   0  0  0  0  0  0  0  0  0  0  0  0
    1.1015   -1.6411   -2.6697 H   0  0  0  0  0  0  0  0  0  0  0  0
    0.0496   -1.2727   -0.3125 H   0  0  0  0  0  0  0  0  0  0  0  0
    1.9782   -1.1644   -0.3851 H   0  0  0  0  0  0  0  0  0  0  0  0
   -1.0339    0.9334   -0.1148 H   0  0  0  0  0  0  0  0  0  0  0  0
   -1.0370    3.2424    0.7397 H   0  0  0  0  0  0  0  0  0  0  0  0
    1.1015    4.4104    1.1700 H   0  0  0  0  0  0  0  0  0  0  0  0
    3.2401    3.2424    0.7397 H   0  0  0  0  0  0  0  0  0  0  0  0
    3.2370    0.9334   -0.1148 H   0  0  0  0  0  0  0  0  0  0  0  0
  1  2  2  3
  1  7  1  0
  1  8  1  0
  2  3  1  0
  2  9  1  0
  3  4  1  0
  3  5  1  0
  4 10  1  0
  4 11  1  0
  4 12  1  0
  5  6  2  3
  5 13  1  0
  6 14  1  0
  6 15  1  0
 16 17  1  0
 16 24  1  0
 16 25  1  0
 16 26  1  0
 17 18  1  0
 17 27  1  0
 17 28  1  0
 18 19  2  0
 18 23  1  0
 19 20  1  0
 19 29  1  0
 20 21  2  0
 20 30  1  0
 21 22  1  0
 21 31  1  0
 22 23  2  0
 22 32  1  0
 23 33  1  0
M  RAD  1   3   2
M  END
>  <reaction>  (8) 
rxn_1486

>  <mol_properties>  (8) 
{"1": {"label": "*0", "atom_type": "Cd"}, "2": {"label": "*1", "atom_type": "Cs"}, "16": {"label": "*3", "atom_type": "Cd"}, "17": {"label": "*4", "atom_type": "Cd"}, "26": {"label": "*2", "atom_type": "H0"}}

>  <type>  (8) 
unop_4

>  <geom_source>  (8) 
Heuristics

$$$$

     RDKit          3D

 33 32  0  0  0  0  0  0  0  0999 V2000
   -0.1168   -1.1184    2.2987 C   0  0  0  0  0  0  0  0  0  0  0  0
   -1.0752   -1.6736    1.5747 C   0  0  0  0  0  0  0  0  0  0  0  0
   -1.1215   -1.7022    0.0688 C   0  0  0  0  0  3  0  0  0  0  0  0
   -2.3732   -0.9962   -0.4452 C   0  0  0  0  0  0  0  0  0  0  0  0
   -0.9843   -3.1293   -0.4011 C   0  0  0  0  0  0  0  0  0  0  0  0
   -1.8592   -3.8148   -1.1205 C   0  0  0  0  0  0  0  0  0  0  0  0
   -0.1433   -1.1333    3.3810 H   0  0  0  0  0  0  0  0  0  0  0  0
    0.7309   -0.6267    1.8333 H   0  0  0  0  0  0  0  0  0  0  0  0
   -1.9106   -2.1616    2.0723 H   0  0  0  0  0  0  0  0  0  0  0  0
   -2.4072   -1.0002   -1.5359 H   0  0  0  0  0  0  0  0  0  0  0  0
   -2.3864    0.0395   -0.1047 H   0  0  0  0  0  0  0  0  0  0  0  0
   -3.2791   -1.4820   -0.0753 H   0  0  0  0  0  0  0  0  0  0  0  0
   -0.0671   -3.6186   -0.0840 H   0  0  0  0  0  0  0  0  0  0  0  0
   -2.7930   -3.3844   -1.4619 H   0  0  0  0  0  0  0  0  0  0  0  0
   -1.6667   -4.8432   -1.3986 H   0  0  0  0  0  0  0  0  0  0  0  0
    0.9858   -0.4001   -2.3332 C   0  0  0  0  0  0  0  0  0  0  0  0
    0.9858   -0.4001   -0.8041 C   0  0  0  0  0  0  0  0  0  0  0  0
    0.9858    0.9942   -0.2347 C   0  0  0  0  0  0  0  0  0  0  0  0
   -0.2087    1.6631    0.0131 C   0  0  0  0  0  0  0  0  0  0  0  0
   -0.2120    2.9633    0.4940 C   0  0  0  0  0  0  0  0  0  0  0  0
    0.9858    3.6187    0.7358 C   0  0  0  0  0  0  0  0  0  0  0  0
    2.1836    2.9633    0.4940 C   0  0  0  0  0  0  0  0  0  0  0  0
    2.1803    1.6631    0.0131 C   0  0  0  0  0  0  0  0  0  0  0  0
    1.8671    0.1150   -2.7200 H   0  0  0  0  0  0  0  0  0  0  0  0
    0.1045    0.1150   -2.7200 H   0  0  0  0  0  0  0  0  0  0  0  0
    0.9858   -1.4185   -2.7255 H   0  0  0  0  0  0  0  0  0  0  0  0
   -0.0662   -1.0501   -0.3683 H   0  0  0  0  0  0  0  0  0  0  0  0
    1.8624   -0.9418   -0.4409 H   0  0  0  0  0  0  0  0  0  0  0  0
   -1.1496    1.1560   -0.1707 H   0  0  0  0  0  0  0  0  0  0  0  0
   -1.1528    3.4650    0.6839 H   0  0  0  0  0  0  0  0  0  0  0  0
    0.9858    4.6330    1.1142 H   0  0  0  0  0  0  0  0  0  0  0  0
    3.1244    3.4650    0.6839 H   0  0  0  0  0  0  0  0  0  0  0  0
    3.1212    1.1560   -0.1707 H   0  0  0  0  0  0  0  0  0  0  0  0
  1  2  2  3
  1  7  1  0
  1  8  1  0
  2  3  1  0
  2  9  1  0
  3  4  1  0
  3  5  1  0
  4 10  1  0
  4 11  1  0
  4 12  1  0
  5  6  2  3
  5 13  1  0
  6 14  1  0
  6 15  1  0
 16 17  1  0
 16 24  1  0
 16 25  1  0
 16 26  1  0
 17 18  1  0
 17 27  1  0
 17 28  1  0
 18 19  2  0
 18 23  1  0
 19 20  1  0
 19 29  1  0
 20 21  2  0
 20 30  1  0
 21 22  1  0
 21 31  1  0
 22 23  2  0
 22 32  1  0
 23 33  1  0
M  RAD  1   3   2
M  END
>  <reaction>  (9) 
rxn_1486

>  <mol_properties>  (9) 
{"1": {"label": "*0", "atom_type": "Cd"}, "2": {"label": "*1", "atom_type": "Cs"}, "16": {"label": "*3", "atom_type": "Cd"}, "17": {"label": "*4", "atom_type": "Cd"}, "26": {"label": "*2", "atom_type": "H0"}}

>  <type>  (9) 
unop_5

>  <geom_source>  (9) 
Heuristics

$$$$

     RDKit          3D

 33 32  0  0  0  0  0  0  0  0999 V2000
   -2.3365   -0.5676   -1.6151 C   0  0  0  0  0  0  0  0  0  0  0  0
   -2.2793   -1.2407   -0.4773 C   0  0  0  0  0  0  0  0  0  0  0  0
   -1.0608   -1.9520    0.0517 C   0  0  0  0  0  3  0  0  0  0  0  0
   -1.3383   -3.4433    0.2203 C   0  0  0  0  0  0  0  0  0  0  0  0
   -0.5995   -1.2664    1.3139 C   0  0  0  0  0  0  0  0  0  0  0  0
   -0.4993   -1.8065    2.5186 C   0  0  0  0  0  0  0  0  0  0  0  0
   -3.2461   -0.0770   -1.9382 H   0  0  0  0  0  0  0  0  0  0  0  0
   -1.4732   -0.4837   -2.2668 H   0  0  0  0  0  0  0  0  0  0  0  0
   -3.1623   -1.3034    0.1552 H   0  0  0  0  0  0  0  0  0  0  0  0
   -0.4560   -3.9683    0.5900 H   0  0  0  0  0  0  0  0  0  0  0  0
   -1.6240   -3.8823   -0.7359 H   0  0  0  0  0  0  0  0  0  0  0  0
   -2.1554   -3.6144    0.9250 H   0  0  0  0  0  0  0  0  0  0  0  0
   -0.3467   -0.2170    1.1864 H   0  0  0  0  0  0  0  0  0  0  0  0
   -0.7415   -2.8449    2.7102 H   0  0  0  0  0  0  0  0  0  0  0  0
   -0.1642   -1.2205    3.3650 H   0  0  0  0  0  0  0  0  0  0  0  0
    1.0465   -0.6499   -2.3503 C   0  0  0  0  0  0  0  0  0  0  0  0
    1.0465   -0.6499   -0.8212 C   0  0  0  0  0  0  0  0  0  0  0  0
    1.0465    0.7444   -0.2518 C   0  0  0  0  0  0  0  0  0  0  0  0
   -0.1480    1.4133   -0.0041 C   0  0  0  0  0  0  0  0  0  0  0  0
   -0.1513    2.7135    0.4769 C   0  0  0  0  0  0  0  0  0  0  0  0
    1.0465    3.3689    0.7187 C   0  0  0  0  0  0  0  0  0  0  0  0
    2.2443    2.7135    0.4769 C   0  0  0  0  0  0  0  0  0  0  0  0
    2.2411    1.4133   -0.0041 C   0  0  0  0  0  0  0  0  0  0  0  0
    1.9278   -0.1348   -2.7371 H   0  0  0  0  0  0  0  0  0  0  0  0
    0.1653   -0.1348   -2.7371 H   0  0  0  0  0  0  0  0  0  0  0  0
    1.0465   -1.6683   -2.7426 H   0  0  0  0  0  0  0  0  0  0  0  0
   -0.0054   -1.2999   -0.3855 H   0  0  0  0  0  0  0  0  0  0  0  0
    1.9232   -1.1916   -0.4581 H   0  0  0  0  0  0  0  0  0  0  0  0
   -1.0889    0.9062   -0.1878 H   0  0  0  0  0  0  0  0  0  0  0  0
   -1.0921    3.2152    0.6668 H   0  0  0  0  0  0  0  0  0  0  0  0
    1.0465    4.3832    1.0970 H   0  0  0  0  0  0  0  0  0  0  0  0
    3.1851    3.2152    0.6668 H   0  0  0  0  0  0  0  0  0  0  0  0
    3.1820    0.9062   -0.1878 H   0  0  0  0  0  0  0  0  0  0  0  0
  1  2  2  3
  1  7  1  0
  1  8  1  0
  2  3  1  0
  2  9  1  0
  3  4  1  0
  3  5  1  0
  4 10  1  0
  4 11  1  0
  4 12  1  0
  5  6  2  3
  5 13  1  0
  6 14  1  0
  6 15  1  0
 16 17  1  0
 16 24  1  0
 16 25  1  0
 16 26  1  0
 17 18  1  0
 17 27  1  0
 17 28  1  0
 18 19  2  0
 18 23  1  0
 19 20  1  0
 19 29  1  0
 20 21  2  0
 20 30  1  0
 21 22  1  0
 21 31  1  0
 22 23  2  0
 22 32  1  0
 23 33  1  0
M  RAD  1   3   2
M  END
>  <reaction>  (10) 
rxn_1486

>  <mol_properties>  (10) 
{"1": {"label": "*0", "atom_type": "Cd"}, "2": {"label": "*1", "atom_type": "Cs"}, "16": {"label": "*3", "atom_type": "Cd"}, "17": {"label": "*4", "atom_type": "Cd"}, "26": {"label": "*2", "atom_type": "H0"}}

>  <type>  (10) 
unop_6

>  <geom_source>  (10) 
Heuristics

$$$$

     RDKit          3D

 33 32  0  0  0  0  0  0  0  0999 V2000
   -2.4674    0.1040   -0.6676 C   0  0  0  0  0  0  0  0  0  0  0  0
   -2.2452   -0.9183    0.1426 C   0  0  0  0  0  0  0  0  0  0  0  0
   -1.1287   -1.9192   -0.0067 C   0  0  0  0  0  3  0  0  0  0  0  0
   -1.6881   -3.3291   -0.1759 C   0  0  0  0  0  0  0  0  0  0  0  0
   -0.1763   -1.7714    1.1541 C   0  0  0  0  0  0  0  0  0  0  0  0
    0.1363   -2.6983    2.0463 C   0  0  0  0  0  0  0  0  0  0  0  0
   -3.2897    0.7891   -0.5032 H   0  0  0  0  0  0  0  0  0  0  0  0
   -1.8335    0.2924   -1.5277 H   0  0  0  0  0  0  0  0  0  0  0  0
   -2.8978   -1.0779    0.9983 H   0  0  0  0  0  0  0  0  0  0  0  0
   -0.8858   -4.0585   -0.2988 H   0  0  0  0  0  0  0  0  0  0  0  0
   -2.3315   -3.3744   -1.0550 H   0  0  0  0  0  0  0  0  0  0  0  0
   -2.2843   -3.6227    0.6911 H   0  0  0  0  0  0  0  0  0  0  0  0
    0.2682   -0.7837    1.2453 H   0  0  0  0  0  0  0  0  0  0  0  0
   -0.2773   -3.6990    2.0119 H   0  0  0  0  0  0  0  0  0  0  0  0
    0.8285   -2.4850    2.8510 H   0  0  0  0  0  0  0  0  0  0  0  0
    0.9786   -0.6171   -2.4087 C   0  0  0  0  0  0  0  0  0  0  0  0
    0.9786   -0.6171   -0.8796 C   0  0  0  0  0  0  0  0  0  0  0  0
    0.9786    0.7772   -0.3102 C   0  0  0  0  0  0  0  0  0  0  0  0
   -0.2159    1.4461   -0.0624 C   0  0  0  0  0  0  0  0  0  0  0  0
   -0.2192    2.7464    0.4185 C   0  0  0  0  0  0  0  0  0  0  0  0
    0.9786    3.4017    0.6603 C   0  0  0  0  0  0  0  0  0  0  0  0
    2.1764    2.7464    0.4185 C   0  0  0  0  0  0  0  0  0  0  0  0
    2.1732    1.4461   -0.0624 C   0  0  0  0  0  0  0  0  0  0  0  0
    1.8599   -0.1020   -2.7955 H   0  0  0  0  0  0  0  0  0  0  0  0
    0.0974   -0.1020   -2.7955 H   0  0  0  0  0  0  0  0  0  0  0  0
    0.9786   -1.6355   -2.8010 H   0  0  0  0  0  0  0  0  0  0  0  0
   -0.0733   -1.2671   -0.4438 H   0  0  0  0  0  0  0  0  0  0  0  0
    1.8553   -1.1588   -0.5165 H   0  0  0  0  0  0  0  0  0  0  0  0
   -1.1568    0.9390   -0.2462 H   0  0  0  0  0  0  0  0  0  0  0  0
   -1.1600    3.2480    0.6084 H   0  0  0  0  0  0  0  0  0  0  0  0
    0.9786    4.4160    1.0387 H   0  0  0  0  0  0  0  0  0  0  0  0
    3.1172    3.2481    0.6084 H   0  0  0  0  0  0  0  0  0  0  0  0
    3.1141    0.9390   -0.2462 H   0  0  0  0  0  0  0  0  0  0  0  0
  1  2  2  3
  1  7  1  0
  1  8  1  0
  2  3  1  0
  2  9  1  0
  3  4  1  0
  3  5  1  0
  4 10  1  0
  4 11  1  0
  4 12  1  0
  5  6  2  3
  5 13  1  0
  6 14  1  0
  6 15  1  0
 16 17  1  0
 16 24  1  0
 16 25  1  0
 16 26  1  0
 17 18  1  0
 17 27  1  0
 17 28  1  0
 18 19  2  0
 18 23  1  0
 19 20  1  0
 19 29  1  0
 20 21  2  0
 20 30  1  0
 21 22  1  0
 21 31  1  0
 22 23  2  0
 22 32  1  0
 23 33  1  0
M  RAD  1   3   2
M  END
>  <reaction>  (11) 
rxn_1486

>  <mol_properties>  (11) 
{"1": {"label": "*0", "atom_type": "Cd"}, "2": {"label": "*1", "atom_type": "Cs"}, "16": {"label": "*3", "atom_type": "Cd"}, "17": {"label": "*4", "atom_type": "Cd"}, "26": {"label": "*2", "atom_type": "H0"}}

>  <type>  (11) 
unop_7

>  <geom_source>  (11) 
Heuristics

$$$$

     RDKit          3D

 33 32  0  0  0  0  0  0  0  0999 V2000
    0.0968   -3.8427   -0.5973 C   0  0  0  0  0  0  0  0  0  0  0  0
   -0.6679   -3.1693    0.2469 C   0  0  0  0  0  0  0  0  0  0  0  0
   -1.0636   -1.7230    0.0976 C   0  0  0  0  0  3  0  0  0  0  0  0
   -0.5713   -0.9042    1.2878 C   0  0  0  0  0  0  0  0  0  0  0  0
   -2.5526   -1.6408   -0.1309 C   0  0  0  0  0  0  0  0  0  0  0  0
   -3.4379   -1.0140    0.6282 C   0  0  0  0  0  0  0  0  0  0  0  0
    0.3437   -4.8838   -0.4315 H   0  0  0  0  0  0  0  0  0  0  0  0
    0.5054   -3.3750   -1.4869 H   0  0  0  0  0  0  0  0  0  0  0  0
   -1.0645   -3.6685    1.1285 H   0  0  0  0  0  0  0  0  0  0  0  0
   -0.8418    0.1476    1.1806 H   0  0  0  0  0  0  0  0  0  0  0  0
    0.5138   -0.9736    1.3680 H   0  0  0  0  0  0  0  0  0  0  0  0
   -1.0005   -1.2716    2.2229 H   0  0  0  0  0  0  0  0  0  0  0  0
   -2.9006   -2.1766   -1.0102 H   0  0  0  0  0  0  0  0  0  0  0  0
   -3.1538   -0.4675    1.5194 H   0  0  0  0  0  0  0  0  0  0  0  0
   -4.4914   -1.0243    0.3785 H   0  0  0  0  0  0  0  0  0  0  0  0
    1.0437   -0.4209   -2.3044 C   0  0  0  0  0  0  0  0  0  0  0  0
    1.0437   -0.4209   -0.7753 C   0  0  0  0  0  0  0  0  0  0  0  0
    1.0437    0.9734   -0.2059 C   0  0  0  0  0  0  0  0  0  0  0  0
   -0.1508    1.6423    0.0419 C   0  0  0  0  0  0  0  0  0  0  0  0
   -0.1541    2.9426    0.5228 C   0  0  0  0  0  0  0  0  0  0  0  0
    1.0437    3.5979    0.7646 C   0  0  0  0  0  0  0  0  0  0  0  0
    2.2415    2.9426    0.5228 C   0  0  0  0  0  0  0  0  0  0  0  0
    2.2383    1.6423    0.0419 C   0  0  0  0  0  0  0  0  0  0  0  0
    1.9250    0.0942   -2.6912 H   0  0  0  0  0  0  0  0  0  0  0  0
    0.1625    0.0942   -2.6912 H   0  0  0  0  0  0  0  0  0  0  0  0
    1.0437   -1.4393   -2.6967 H   0  0  0  0  0  0  0  0  0  0  0  0
   -0.0082   -1.0709   -0.3395 H   0  0  0  0  0  0  0  0  0  0  0  0
    1.9204   -0.9626   -0.4122 H   0  0  0  0  0  0  0  0  0  0  0  0
   -1.0917    1.1352   -0.1419 H   0  0  0  0  0  0  0  0  0  0  0  0
   -1.0948    3.4443    0.7127 H   0  0  0  0  0  0  0  0  0  0  0  0
    1.0437    4.6122    1.1430 H   0  0  0  0  0  0  0  0  0  0  0  0
    3.1823    3.4443    0.7127 H   0  0  0  0  0  0  0  0  0  0  0  0
    3.1792    1.1352   -0.1419 H   0  0  0  0  0  0  0  0  0  0  0  0
  1  2  2  3
  1  7  1  0
  1  8  1  0
  2  3  1  0
  2  9  1  0
  3  4  1  0
  3  5  1  0
  4 10  1  0
  4 11  1  0
  4 12  1  0
  5  6  2  3
  5 13  1  0
  6 14  1  0
  6 15  1  0
 16 17  1  0
 16 24  1  0
 16 25  1  0
 16 26  1  0
 17 18  1  0
 17 27  1  0
 17 28  1  0
 18 19  2  0
 18 23  1  0
 19 20  1  0
 19 29  1  0
 20 21  2  0
 20 30  1  0
 21 22  1  0
 21 31  1  0
 22 23  2  0
 22 32  1  0
 23 33  1  0
M  RAD  1   3   2
M  END
>  <reaction>  (12) 
rxn_1486

>  <mol_properties>  (12) 
{"1": {"label": "*0", "atom_type": "Cd"}, "2": {"label": "*1", "atom_type": "Cs"}, "16": {"label": "*3", "atom_type": "Cd"}, "17": {"label": "*4", "atom_type": "Cd"}, "26": {"label": "*2", "atom_type": "H0"}}

>  <type>  (12) 
unop_8

>  <geom_source>  (12) 
Heuristics

$$$$

     RDKit          3D

 33 32  0  0  0  0  0  0  0  0999 V2000
   -0.4339   -3.4756   -1.5559 C   0  0  0  0  0  0  0  0  0  0  0  0
   -0.9546   -3.1304   -0.3894 C   0  0  0  0  0  0  0  0  0  0  0  0
   -1.0457   -1.7224    0.1396 C   0  0  0  0  0  3  0  0  0  0  0  0
   -0.2804   -1.5900    1.4535 C   0  0  0  0  0  0  0  0  0  0  0  0
   -2.4979   -1.3238    0.2315 C   0  0  0  0  0  0  0  0  0  0  0  0
   -3.1539   -0.9645    1.3240 C   0  0  0  0  0  0  0  0  0  0  0  0
   -0.3998   -4.5088   -1.8778 H   0  0  0  0  0  0  0  0  0  0  0  0
   -0.0208   -2.7347   -2.2324 H   0  0  0  0  0  0  0  0  0  0  0  0
   -1.3635   -3.8975    0.2649 H   0  0  0  0  0  0  0  0  0  0  0  0
   -0.3297   -0.5693    1.8363 H   0  0  0  0  0  0  0  0  0  0  0  0
    0.7676   -1.8513    1.3053 H   0  0  0  0  0  0  0  0  0  0  0  0
   -0.6879   -2.2586    2.2154 H   0  0  0  0  0  0  0  0  0  0  0  0
   -3.0333   -1.3626   -0.7136 H   0  0  0  0  0  0  0  0  0  0  0  0
   -2.6772   -0.9116    2.2954 H   0  0  0  0  0  0  0  0  0  0  0  0
   -4.2041   -0.7047    1.2822 H   0  0  0  0  0  0  0  0  0  0  0  0
    1.0616   -0.4203   -2.2625 C   0  0  0  0  0  0  0  0  0  0  0  0
    1.0616   -0.4203   -0.7333 C   0  0  0  0  0  0  0  0  0  0  0  0
    1.0616    0.9740   -0.1639 C   0  0  0  0  0  0  0  0  0  0  0  0
   -0.1329    1.6429    0.0838 C   0  0  0  0  0  0  0  0  0  0  0  0
   -0.1362    2.9432    0.5647 C   0  0  0  0  0  0  0  0  0  0  0  0
    1.0616    3.5985    0.8065 C   0  0  0  0  0  0  0  0  0  0  0  0
    2.2594    2.9432    0.5647 C   0  0  0  0  0  0  0  0  0  0  0  0
    2.2562    1.6429    0.0838 C   0  0  0  0  0  0  0  0  0  0  0  0
    1.9429    0.0948   -2.6493 H   0  0  0  0  0  0  0  0  0  0  0  0
    0.1803    0.0948   -2.6493 H   0  0  0  0  0  0  0  0  0  0  0  0
    1.0616   -1.4387   -2.6548 H   0  0  0  0  0  0  0  0  0  0  0  0
    0.0097   -1.0703   -0.2976 H   0  0  0  0  0  0  0  0  0  0  0  0
    1.9383   -0.9620   -0.3702 H   0  0  0  0  0  0  0  0  0  0  0  0
   -1.0738    1.1358   -0.0999 H   0  0  0  0  0  0  0  0  0  0  0  0
   -1.0770    3.4449    0.7546 H   0  0  0  0  0  0  0  0  0  0  0  0
    1.0616    4.6129    1.1849 H   0  0  0  0  0  0  0  0  0  0  0  0
    3.2002    3.4449    0.7546 H   0  0  0  0  0  0  0  0  0  0  0  0
    3.1970    1.1358   -0.0999 H   0  0  0  0  0  0  0  0  0  0  0  0
  1  2  2  3
  1  7  1  0
  1  8  1  0
  2  3  1  0
  2  9  1  0
  3  4  1  0
  3  5  1  0
  4 10  1  0
  4 11  1  0
  4 12  1  0
  5  6  2  3
  5 13  1  0
  6 14  1  0
  6 15  1  0
 16 17  1  0
 16 24  1  0
 16 25  1  0
 16 26  1  0
 17 18  1  0
 17 27  1  0
 17 28  1  0
 18 19  2  0
 18 23  1  0
 19 20  1  0
 19 29  1  0
 20 21  2  0
 20 30  1  0
 21 22  1  0
 21 31  1  0
 22 23  2  0
 22 32  1  0
 23 33  1  0
M  RAD  1   3   2
M  END
>  <reaction>  (13) 
rxn_1486

>  <mol_properties>  (13) 
{"1": {"label": "*0", "atom_type": "Cd"}, "2": {"label": "*1", "atom_type": "Cs"}, "16": {"label": "*3", "atom_type": "Cd"}, "17": {"label": "*4", "atom_type": "Cd"}, "26": {"label": "*2", "atom_type": "H0"}}

>  <type>  (13) 
unop_9

>  <geom_source>  (13) 
Heuristics

$$$$

     RDKit          3D

 33 32  0  0  0  0  0  0  0  0999 V2000
   -1.2985    0.0964    1.7160 C   0  0  0  0  0  0  0  0  0  0  0  0
   -1.5759   -1.1393    1.3325 C   0  0  0  0  0  0  0  0  0  0  0  0
   -1.1897   -1.7460    0.0083 C   0  0  0  0  0  3  0  0  0  0  0  0
   -2.4301   -2.1816   -0.7670 C   0  0  0  0  0  0  0  0  0  0  0  0
   -0.1933   -2.8537    0.2461 C   0  0  0  0  0  0  0  0  0  0  0  0
   -0.3357   -4.1305   -0.0740 C   0  0  0  0  0  0  0  0  0  0  0  0
   -1.6052    0.4716    2.6843 H   0  0  0  0  0  0  0  0  0  0  0  0
   -0.7537    0.7795    1.0729 H   0  0  0  0  0  0  0  0  0  0  0  0
   -2.1215   -1.8005    2.0024 H   0  0  0  0  0  0  0  0  0  0  0  0
   -2.1596   -2.6095   -1.7337 H   0  0  0  0  0  0  0  0  0  0  0  0
   -3.0837   -1.3264   -0.9404 H   0  0  0  0  0  0  0  0  0  0  0  0
   -2.9987   -2.9307   -0.2111 H   0  0  0  0  0  0  0  0  0  0  0  0
    0.7169   -2.5366    0.7484 H   0  0  0  0  0  0  0  0  0  0  0  0
   -1.2211   -4.5084   -0.5707 H   0  0  0  0  0  0  0  0  0  0  0  0
    0.4411   -4.8504    0.1507 H   0  0  0  0  0  0  0  0  0  0  0  0
    0.9176   -0.4439   -2.3937 C   0  0  0  0  0  0  0  0  0  0  0  0
    0.9176   -0.4439   -0.8646 C   0  0  0  0  0  0  0  0  0  0  0  0
    0.9176    0.9504   -0.2952 C   0  0  0  0  0  0  0  0  0  0  0  0
   -0.2769    1.6193   -0.0474 C   0  0  0  0  0  0  0  0  0  0  0  0
   -0.2802    2.9195    0.4335 C   0  0  0  0  0  0  0  0  0  0  0  0
    0.9176    3.5749    0.6753 C   0  0  0  0  0  0  0  0  0  0  0  0
    2.1154    2.9195    0.4335 C   0  0  0  0  0  0  0  0  0  0  0  0
    2.1121    1.6193   -0.0474 C   0  0  0  0  0  0  0  0  0  0  0  0
    1.7989    0.0712   -2.7805 H   0  0  0  0  0  0  0  0  0  0  0  0
    0.0363    0.0712   -2.7805 H   0  0  0  0  0  0  0  0  0  0  0  0
    0.9176   -1.4623   -2.7860 H   0  0  0  0  0  0  0  0  0  0  0  0
   -0.1343   -1.0939   -0.4288 H   0  0  0  0  0  0  0  0  0  0  0  0
    1.7943   -0.9856   -0.5015 H   0  0  0  0  0  0  0  0  0  0  0  0
   -1.2178    1.1122   -0.2312 H   0  0  0  0  0  0  0  0  0  0  0  0
   -1.2210    3.4212    0.6234 H   0  0  0  0  0  0  0  0  0  0  0  0
    0.9176    4.5892    1.0536 H   0  0  0  0  0  0  0  0  0  0  0  0
    3.0562    3.4212    0.6234 H   0  0  0  0  0  0  0  0  0  0  0  0
    3.0530    1.1122   -0.2312 H   0  0  0  0  0  0  0  0  0  0  0  0
  1  2  2  3
  1  7  1  0
  1  8  1  0
  2  3  1  0
  2  9  1  0
  3  4  1  0
  3  5  1  0
  4 10  1  0
  4 11  1  0
  4 12  1  0
  5  6  2  3
  5 13  1  0
  6 14  1  0
  6 15  1  0
 16 17  1  0
 16 24  1  0
 16 25  1  0
 16 26  1  0
 17 18  1  0
 17 27  1  0
 17 28  1  0
 18 19  2  0
 18 23  1  0
 19 20  1  0
 19 29  1  0
 20 21  2  0
 20 30  1  0
 21 22  1  0
 21 31  1  0
 22 23  2  0
 22 32  1  0
 23 33  1  0
M  RAD  1   3   2
M  END
>  <reaction>  (14) 
rxn_1486

>  <mol_properties>  (14) 
{"1": {"label": "*0", "atom_type": "Cd"}, "2": {"label": "*1", "atom_type": "Cs"}, "16": {"label": "*3", "atom_type": "Cd"}, "17": {"label": "*4", "atom_type": "Cd"}, "26": {"label": "*2", "atom_type": "H0"}}

>  <type>  (14) 
unop_10

>  <geom_source>  (14) 
Heuristics

$$$$

     RDKit          3D

 33 32  0  0  0  0  0  0  0  0999 V2000
   -1.4239   -2.0790   -2.2896 C   0  0  0  0  0  0  0  0  0  0  0  0
   -1.7550   -2.3207   -1.0315 C   0  0  0  0  0  0  0  0  0  0  0  0
   -0.9879   -1.8467    0.1758 C   0  0  0  0  0  3  0  0  0  0  0  0
   -0.5119   -3.0320    1.0112 C   0  0  0  0  0  0  0  0  0  0  0  0
   -1.8332   -0.8571    0.9391 C   0  0  0  0  0  0  0  0  0  0  0  0
   -2.2463   -0.9676    2.1921 C   0  0  0  0  0  0  0  0  0  0  0  0
   -2.0206   -2.4492   -3.1138 H   0  0  0  0  0  0  0  0  0  0  0  0
   -0.5407   -1.5013   -2.5412 H   0  0  0  0  0  0  0  0  0  0  0  0
   -2.6488   -2.9011   -0.8127 H   0  0  0  0  0  0  0  0  0  0  0  0
    0.0568   -2.6976    1.8804 H   0  0  0  0  0  0  0  0  0  0  0  0
    0.1266   -3.6813    0.4117 H   0  0  0  0  0  0  0  0  0  0  0  0
   -1.3561   -3.6276    1.3662 H   0  0  0  0  0  0  0  0  0  0  0  0
   -2.1279    0.0169    0.3641 H   0  0  0  0  0  0  0  0  0  0  0  0
   -1.9903   -1.8167    2.8142 H   0  0  0  0  0  0  0  0  0  0  0  0
   -2.8609   -0.1998    2.6450 H   0  0  0  0  0  0  0  0  0  0  0  0
    1.1194   -0.5446   -2.2262 C   0  0  0  0  0  0  0  0  0  0  0  0
    1.1194   -0.5446   -0.6971 C   0  0  0  0  0  0  0  0  0  0  0  0
    1.1194    0.8497   -0.1277 C   0  0  0  0  0  0  0  0  0  0  0  0
   -0.0751    1.5187    0.1201 C   0  0  0  0  0  0  0  0  0  0  0  0
   -0.0784    2.8189    0.6010 C   0  0  0  0  0  0  0  0  0  0  0  0
    1.1194    3.4742    0.8428 C   0  0  0  0  0  0  0  0  0  0  0  0
    2.3172    2.8189    0.6010 C   0  0  0  0  0  0  0  0  0  0  0  0
    2.3139    1.5187    0.1201 C   0  0  0  0  0  0  0  0  0  0  0  0
    2.0007   -0.0295   -2.6130 H   0  0  0  0  0  0  0  0  0  0  0  0
    0.2381   -0.0295   -2.6130 H   0  0  0  0  0  0  0  0  0  0  0  0
    1.1194   -1.5630   -2.6185 H   0  0  0  0  0  0  0  0  0  0  0  0
    0.0674   -1.1946   -0.2613 H   0  0  0  0  0  0  0  0  0  0  0  0
    1.9960   -1.0862   -0.3340 H   0  0  0  0  0  0  0  0  0  0  0  0
   -1.0160    1.0115   -0.0637 H   0  0  0  0  0  0  0  0  0  0  0  0
   -1.0192    3.3206    0.7909 H   0  0  0  0  0  0  0  0  0  0  0  0
    1.1194    4.4886    1.2211 H   0  0  0  0  0  0  0  0  0  0  0  0
    3.2580    3.3206    0.7909 H   0  0  0  0  0  0  0  0  0  0  0  0
    3.2548    1.0115   -0.0637 H   0  0  0  0  0  0  0  0  0  0  0  0
  1  2  2  3
  1  7  1  0
  1  8  1  0
  2  3  1  0
  2  9  1  0
  3  4  1  0
  3  5  1  0
  4 10  1  0
  4 11  1  0
  4 12  1  0
  5  6  2  3
  5 13  1  0
  6 14  1  0
  6 15  1  0
 16 17  1  0
 16 24  1  0
 16 25  1  0
 16 26  1  0
 17 18  1  0
 17 27  1  0
 17 28  1  0
 18 19  2  0
 18 23  1  0
 19 20  1  0
 19 29  1  0
 20 21  2  0
 20 30  1  0
 21 22  1  0
 21 31  1  0
 22 23  2  0
 22 32  1  0
 23 33  1  0
M  RAD  1   3   2
M  END
>  <reaction>  (15) 
rxn_1486

>  <mol_properties>  (15) 
{"1": {"label": "*0", "atom_type": "Cd"}, "2": {"label": "*1", "atom_type": "Cs"}, "16": {"label": "*3", "atom_type": "Cd"}, "17": {"label": "*4", "atom_type": "Cd"}, "26": {"label": "*2", "atom_type": "H0"}}

>  <type>  (15) 
unop_11

>  <geom_source>  (15) 
Heuristics

$$$$

     RDKit          3D

 33 32  0  0  0  0  0  0  0  0999 V2000
   -1.9692   -0.0009   -0.0208 C   0  0  0  0  0  0  0  0  0  0  0  0
   -2.7223   -1.0454   -0.8488 C   0  0  0  0  0  0  0  0  0  0  0  0
    0.8131   -2.6911   -0.0280 C   0  0  0  0  0  0  0  0  0  0  0  0
    1.4332   -0.2734   -0.0329 C   0  0  0  0  0  0  0  0  0  0  0  0
   -1.9830    1.3328   -0.7264 C   0  0  0  0  0  0  0  0  0  0  0  0
   -2.5793    0.1264    1.3535 C   0  0  0  0  0  0  0  0  0  0  0  0
    0.3158   -1.2604   -0.1880 C   0  0  0  0  0  0  0  0  0  0  0  0
    1.6318    0.3614    1.2013 C   0  0  0  0  0  3  0  0  0  0  0  0
    2.3028   -0.0011   -1.1012 C   0  0  0  0  0  0  0  0  0  0  0  0
    2.6834    1.2694    1.3627 C   0  0  0  0  0  0  0  0  0  0  0  0
    3.5430    1.5430    0.2944 C   0  0  0  0  0  0  0  0  0  0  0  0
    3.3533    0.9074   -0.9364 C   0  0  0  0  0  0  0  0  0  0  0  0
   -1.1599    1.5865   -1.7473 C   0  0  0  0  0  0  0  0  0  0  0  0
   -1.9379    0.7592    2.3399 C   0  0  0  0  0  0  0  0  0  0  0  0
   -0.7263   -0.4089    0.1182 H   0  0  0  0  0  0  0  0  0  0  0  0
   -2.2341   -1.1738   -1.8381 H   0  0  0  0  0  0  0  0  0  0  0  0
   -3.7787   -0.7364   -1.0057 H   0  0  0  0  0  0  0  0  0  0  0  0
   -2.7064   -2.0262   -0.3274 H   0  0  0  0  0  0  0  0  0  0  0  0
    1.5516   -2.9353   -0.8211 H   0  0  0  0  0  0  0  0  0  0  0  0
   -0.0458   -3.3889   -0.1099 H   0  0  0  0  0  0  0  0  0  0  0  0
    1.2838   -2.8223    0.9694 H   0  0  0  0  0  0  0  0  0  0  0  0
   -2.6794    2.1055   -0.4104 H   0  0  0  0  0  0  0  0  0  0  0  0
   -3.5543   -0.3081    1.5587 H   0  0  0  0  0  0  0  0  0  0  0  0
   -0.1898   -1.1321   -1.1695 H   0  0  0  0  0  0  0  0  0  0  0  0
    0.9738    0.1526    2.0359 H   0  0  0  0  0  0  0  0  0  0  0  0
    2.8330    1.7595    2.3160 H   0  0  0  0  0  0  0  0  0  0  0  0
    2.1669   -0.4918   -2.0571 H   0  0  0  0  0  0  0  0  0  0  0  0
    4.3567    2.2453    0.4209 H   0  0  0  0  0  0  0  0  0  0  0  0
    4.0212    1.1174   -1.7619 H   0  0  0  0  0  0  0  0  0  0  0  0
   -1.1906    2.5514   -2.2428 H   0  0  0  0  0  0  0  0  0  0  0  0
   -0.4534    0.8388   -2.0950 H   0  0  0  0  0  0  0  0  0  0  0  0
   -2.3926    0.8363    3.3222 H   0  0  0  0  0  0  0  0  0  0  0  0
   -0.9606    1.2033    2.1756 H   0  0  0  0  0  0  0  0  0  0  0  0
  1  2  1  0
  1  5  1  0
  1  6  1  0
  1 15  1  0
  2 16  1  0
  2 17  1  0
  2 18  1  0
  3  7  1  0
  3 19  1  0
  3 20  1  0
  3 21  1  0
  4  7  2  3
  4  8  1  0
  4  9  1  0
  5 13  2  3
  5 22  1  0
  6 14  2  3
  6 23  1  0
  7 24  1  0
  8 10  1  0
  8 25  1  0
  9 12  2  0
  9 27  1  0
 10 11  2  0
 10 26  1  0
 11 12  1  0
 11 28  1  0
 12 29  1  0
 13 30  1  0
 13 31  1  0
 14 32  1  0
 14 33  1  0
M  RAD  1   8   2
M  END
>  <reaction>  (16) 
rxn_1486

>  <mol_properties>  (16) 
{"1": {"label": "*0", "atom_type": "Cd"}, "2": {"label": "*1", "atom_type": "Cs"}, "16": {"label": "*3", "atom_type": "Cd"}, "17": {"label": "*4", "atom_type": "Cd"}, "26": {"label": "*2", "atom_type": "H0"}}

>  <type>  (16) 
unop_12

>  <geom_source>  (16) 
AutoTST

$$$$

     RDKit          3D

 33 32  0  0  0  0  0  0  0  0999 V2000
   -0.9517   -2.8038   -2.1115 C   0  0  0  0  0  0  0  0  0  0  0  0
   -1.3457   -2.8163   -0.8484 C   0  0  0  0  0  0  0  0  0  0  0  0
   -1.0112   -1.7642    0.1772 C   0  0  0  0  0  3  0  0  0  0  0  0
   -0.2420   -2.3756    1.3451 C   0  0  0  0  0  0  0  0  0  0  0  0
   -2.2774   -1.0506    0.5818 C   0  0  0  0  0  0  0  0  0  0  0  0
   -2.7962   -0.9844    1.7981 C   0  0  0  0  0  0  0  0  0  0  0  0
   -1.2285   -3.5929   -2.7993 H   0  0  0  0  0  0  0  0  0  0  0  0
   -0.3355   -2.0017   -2.5040 H   0  0  0  0  0  0  0  0  0  0  0  0
   -1.9658   -3.6339   -0.4867 H   0  0  0  0  0  0  0  0  0  0  0  0
    0.0165   -1.6172    2.0859 H   0  0  0  0  0  0  0  0  0  0  0  0
    0.6798   -2.8352    0.9877 H   0  0  0  0  0  0  0  0  0  0  0  0
   -0.8313   -3.1494    1.8425 H   0  0  0  0  0  0  0  0  0  0  0  0
   -2.7995   -0.5656   -0.2388 H   0  0  0  0  0  0  0  0  0  0  0  0
   -2.3260   -1.4513    2.6552 H   0  0  0  0  0  0  0  0  0  0  0  0
   -3.7204   -0.4508    1.9805 H   0  0  0  0  0  0  0  0  0  0  0  0
    1.0961   -0.4621   -2.2248 C   0  0  0  0  0  0  0  0  0  0  0  0
    1.0961   -0.4621   -0.6957 C   0  0  0  0  0  0  0  0  0  0  0  0
    1.0961    0.9322   -0.1263 C   0  0  0  0  0  0  0  0  0  0  0  0
   -0.0984    1.6011    0.1214 C   0  0  0  0  0  0  0  0  0  0  0  0
   -0.1017    2.9013    0.6024 C   0  0  0  0  0  0  0  0  0  0  0  0
    1.0961    3.5567    0.8441 C   0  0  0  0  0  0  0  0  0  0  0  0
    2.2939    2.9013    0.6024 C   0  0  0  0  0  0  0  0  0  0  0  0
    2.2906    1.6011    0.1214 C   0  0  0  0  0  0  0  0  0  0  0  0
    1.9774    0.0530   -2.6117 H   0  0  0  0  0  0  0  0  0  0  0  0
    0.2149    0.0530   -2.6117 H   0  0  0  0  0  0  0  0  0  0  0  0
    1.0961   -1.4805   -2.6172 H   0  0  0  0  0  0  0  0  0  0  0  0
    0.0442   -1.1121   -0.2600 H   0  0  0  0  0  0  0  0  0  0  0  0
    1.9728   -1.0038   -0.3326 H   0  0  0  0  0  0  0  0  0  0  0  0
   -1.0393    1.0940   -0.0623 H   0  0  0  0  0  0  0  0  0  0  0  0
   -1.0425    3.4030    0.7923 H   0  0  0  0  0  0  0  0  0  0  0  0
    1.0961    4.5710    1.2225 H   0  0  0  0  0  0  0  0  0  0  0  0
    3.2347    3.4030    0.7923 H   0  0  0  0  0  0  0  0  0  0  0  0
    3.2315    1.0940   -0.0623 H   0  0  0  0  0  0  0  0  0  0  0  0
  1  2  2  3
  1  7  1  0
  1  8  1  0
  2  3  1  0
  2  9  1  0
  3  4  1  0
  3  5  1  0
  4 10  1  0
  4 11  1  0
  4 12  1  0
  5  6  2  3
  5 13  1  0
  6 14  1  0
  6 15  1  0
 16 17  1  0
 16 24  1  0
 16 25  1  0
 16 26  1  0
 17 18  1  0
 17 27  1  0
 17 28  1  0
 18 19  2  0
 18 23  1  0
 19 20  1  0
 19 29  1  0
 20 21  2  0
 20 30  1  0
 21 22  1  0
 21 31  1  0
 22 23  2  0
 22 32  1  0
 23 33  1  0
M  RAD  1   3   2
M  END
>  <reaction>  (17) 
rxn_1486

>  <mol_properties>  (17) 
{"1": {"label": "*0", "atom_type": "Cd"}, "2": {"label": "*1", "atom_type": "Cs"}, "16": {"label": "*3", "atom_type": "Cd"}, "17": {"label": "*4", "atom_type": "Cd"}, "26": {"label": "*2", "atom_type": "H0"}}

>  <type>  (17) 
unop_13

>  <geom_source>  (17) 
gaussian_log

$$$$
