
     RDKit          3D

 10  9  0  0  0  0  0  0  0  0999 V2000
    2.2738    0.0217   -0.0992 C   0  0  0  0  0  0  0  0  0  0  0  0
    1.1083    0.2960   -0.0695 C   0  0  0  0  0  0  0  0  0  0  0  0
   -0.3173    0.6046   -0.0227 C   0  0  0  0  0  0  0  0  0  0  0  0
   -1.1561   -0.5495    0.5292 C   0  0  0  0  0  0  0  0  0  0  0  0
    3.3097   -0.2166   -0.1277 H   0  0  0  0  0  0  0  0  0  0  0  0
   -0.6542    0.8617   -1.0302 H   0  0  0  0  0  0  0  0  0  0  0  0
   -0.4633    1.4978    0.5900 H   0  0  0  0  0  0  0  0  0  0  0  0
   -0.8485   -0.7997    1.5447 H   0  0  0  0  0  0  0  0  0  0  0  0
   -2.2115   -0.2752    0.5459 H   0  0  0  0  0  0  0  0  0  0  0  0
   -1.0409   -1.4407   -0.0879 H   0  0  0  0  0  0  0  0  0  0  0  0
  1  2  3  0
  1  5  1  0
  2  3  1  0
  3  4  1  0
  3  6  1  0
  3  7  1  0
  4  8  1  0
  4  9  1  0
  4 10  1  0
M  END
>  <reaction>  (1) 
rxn_1264

>  <mol_properties>  (1) 
{"2": {"label": "donator", "atom_type": "Cs"}, "5": {"label": "d_hydrogen", "atom_type": "H0"}}

>  <type>  (1) 
r1h

$$$$

     RDKit          3D

 14 13  0  0  0  0  0  0  0  0999 V2000
    1.0767   -1.6838    1.2931 C   0  0  0  0  0  0  0  0  0  0  0  0
    1.0020   -0.3665    0.9163 C   0  0  0  0  0  0  0  0  0  0  0  0
    1.3965    0.7260    1.6806 C   0  0  0  0  0  3  0  0  0  0  0  0
    1.2666    2.1197    1.1619 C   0  0  0  0  0  0  0  0  0  0  0  0
    1.9670    0.5479    3.0536 C   0  0  0  0  0  0  0  0  0  0  0  0
    0.7448   -2.4705    0.6300 H   0  0  0  0  0  0  0  0  0  0  0  0
    1.4663   -1.9826    2.2578 H   0  0  0  0  0  0  0  0  0  0  0  0
    0.5980   -0.1511   -0.0695 H   0  0  0  0  0  0  0  0  0  0  0  0
    0.6296    2.7241    1.8172 H   0  0  0  0  0  0  0  0  0  0  0  0
    2.2410    2.6200    1.1341 H   0  0  0  0  0  0  0  0  0  0  0  0
    0.8426    2.1448    0.1579 H   0  0  0  0  0  0  0  0  0  0  0  0
    2.8745   -0.0634    3.0328 H   0  0  0  0  0  0  0  0  0  0  0  0
    1.2599    0.0408    3.7173 H   0  0  0  0  0  0  0  0  0  0  0  0
    2.2205    1.5071    3.5054 H   0  0  0  0  0  0  0  0  0  0  0  0
  1  2  2  3
  1  6  1  0
  1  7  1  0
  2  3  1  0
  2  8  1  0
  3  4  1  0
  3  5  1  0
  4  9  1  0
  4 10  1  0
  4 11  1  0
  5 12  1  0
  5 13  1  0
  5 14  1  0
M  RAD  1   3   2
M  END
>  <reaction>  (2) 
rxn_1264

>  <mol_properties>  (2) 
{"2": {"label": "acceptor", "atom_type": "Cs"}}

>  <type>  (2) 
r2

$$$$

     RDKit          3D

 15 14  0  0  0  0  0  0  0  0999 V2000
    2.1256    0.4849   -0.6284 C   0  0  0  0  0  0  0  0  0  0  0  0
    1.1128    0.2141    0.1794 C   0  0  0  0  0  0  0  0  0  0  0  0
   -0.3017   -0.0425   -0.2513 C   0  0  0  0  0  0  0  0  0  0  0  0
   -1.2427    1.0075    0.3423 C   0  0  0  0  0  0  0  0  0  0  0  0
   -0.7381   -1.4526    0.1504 C   0  0  0  0  0  0  0  0  0  0  0  0
    3.1243    0.6602   -0.2486 H   0  0  0  0  0  0  0  0  0  0  0  0
    1.9908    0.5411   -1.7036 H   0  0  0  0  0  0  0  0  0  0  0  0
    1.2888    0.1665    1.2533 H   0  0  0  0  0  0  0  0  0  0  0  0
   -0.3426    0.0343   -1.3424 H   0  0  0  0  0  0  0  0  0  0  0  0
   -0.9570    2.0133    0.0315 H   0  0  0  0  0  0  0  0  0  0  0  0
   -1.2189    0.9728    1.4350 H   0  0  0  0  0  0  0  0  0  0  0  0
   -2.2723    0.8287    0.0254 H   0  0  0  0  0  0  0  0  0  0  0  0
   -0.6964   -1.5744    1.2363 H   0  0  0  0  0  0  0  0  0  0  0  0
   -0.0911   -2.2079   -0.2978 H   0  0  0  0  0  0  0  0  0  0  0  0
   -1.7646   -1.6461   -0.1677 H   0  0  0  0  0  0  0  0  0  0  0  0
  1  2  2  3
  1  6  1  0
  1  7  1  0
  2  3  1  0
  2  8  1  0
  3  4  1  0
  3  5  1  0
  3  9  1  0
  4 10  1  0
  4 11  1  0
  4 12  1  0
  5 13  1  0
  5 14  1  0
  5 15  1  0
M  END
>  <reaction>  (3) 
rxn_1264

>  <mol_properties>  (3) 
{"0": {"label": "a_hydrogen", "atom_type": "H0"}, "3": {"label": "acceptor", "atom_type": "Cs"}}

>  <type>  (3) 
r2h

$$$$

     RDKit          3D

 24 22  0  0  0  0  0  0  0  0999 V2000
   -0.3383    1.2092   -3.0417 C   0  0  0  0  0  0  0  0  0  0  0  0
   -0.7881    0.9801   -1.9478 C   0  0  0  0  0  0  0  0  0  0  0  0
   -1.2491    0.7011   -0.6352 C   0  0  0  0  0  3  0  0  0  0  0  0
   -1.5644    1.8687    0.2686 C   0  0  0  0  0  0  0  0  0  0  0  0
    0.0364    1.4149   -4.0152 H   0  0  0  0  0  0  0  0  0  0  0  0
   -0.1817    0.1012    0.0128 H   0  0  0  0  0  0  0  0  0  0  0  0
   -1.9654   -0.1176   -0.5873 H   0  0  0  0  0  0  0  0  0  0  0  0
   -2.4751    2.3833   -0.0485 H   0  0  0  0  0  0  0  0  0  0  0  0
   -1.7111    1.5223    1.2931 H   0  0  0  0  0  0  0  0  0  0  0  0
   -0.7504    2.5947    0.2605 H   0  0  0  0  0  0  0  0  0  0  0  0
    0.0417   -1.7981    2.5040 C   0  0  0  0  0  0  0  0  0  0  0  0
    0.4594   -0.6534    1.9612 C   0  0  0  0  0  0  0  0  0  0  0  0
    0.8706   -0.4376    0.5698 C   0  0  0  0  0  0  0  0  0  0  0  0
    1.0765   -1.6597   -0.2929 C   0  0  0  0  0  0  0  0  0  0  0  0
    1.9098    0.6439    0.3699 C   0  0  0  0  0  0  0  0  0  0  0  0
   -0.2702   -1.8413    3.5394 H   0  0  0  0  0  0  0  0  0  0  0  0
    0.0084   -2.7250    1.9447 H   0  0  0  0  0  0  0  0  0  0  0  0
    0.4771    0.2342    2.5899 H   0  0  0  0  0  0  0  0  0  0  0  0
    1.2492   -1.3646   -1.3291 H   0  0  0  0  0  0  0  0  0  0  0  0
    1.9430   -2.2359    0.0467 H   0  0  0  0  0  0  0  0  0  0  0  0
    0.2074   -2.3193   -0.2753 H   0  0  0  0  0  0  0  0  0  0  0  0
    2.9061    0.2821    0.6441 H   0  0  0  0  0  0  0  0  0  0  0  0
    1.6936    1.5211    0.9829 H   0  0  0  0  0  0  0  0  0  0  0  0
    1.9430    0.9580   -0.6754 H   0  0  0  0  0  0  0  0  0  0  0  0
  1  2  3  0
  1  5  1  0
  2  3  1  0
  3  4  1  0
  3  7  1  0
  4  8  1  0
  4  9  1  0
  4 10  1  0
  6 13  1  0
 11 12  2  3
 11 16  1  0
 11 17  1  0
 12 13  1  0
 12 18  1  0
 13 14  1  0
 13 15  1  0
 14 19  1  0
 14 20  1  0
 14 21  1  0
 15 22  1  0
 15 23  1  0
 15 24  1  0
M  RAD  1   3   2
M  END
>  <reaction>  (4) 
rxn_1264

>  <mol_properties>  (4) 
{"1": {"label": "*4", "atom_type": "Ct"}, "2": {"label": "*3", "atom_type": "Cs"}, "5": {"label": "*2", "atom_type": "H0"}, "11": {"label": "*0", "atom_type": "Cd"}, "12": {"label": "*1", "atom_type": "Cs"}}

>  <type>  (4) 
ts

$$$$

     RDKit          3D

 24 22  0  0  0  0  0  0  0  0999 V2000
   -1.3529    0.3963   -2.9811 C   0  0  0  0  0  0  0  0  0  0  0  0
   -1.3529    0.3963   -1.7834 C   0  0  0  0  0  0  0  0  0  0  0  0
   -1.3529    0.4245   -0.3242 C   0  0  0  0  0  0  0  0  0  0  0  0
   -1.3529    1.8459    0.2414 C   0  0  0  0  0  0  0  0  0  0  0  0
   -1.3529    0.3963   -4.0444 H   0  0  0  0  0  0  0  0  0  0  0  0
   -0.3023   -0.2296    0.1098 H   0  0  0  0  0  0  0  0  0  0  0  0
   -2.2284   -0.1206    0.0375 H   0  0  0  0  0  0  0  0  0  0  0  0
   -2.2351    2.3937   -0.0901 H   0  0  0  0  0  0  0  0  0  0  0  0
   -1.3529    1.8186    1.3316 H   0  0  0  0  0  0  0  0  0  0  0  0
   -0.4707    2.3937   -0.0901 H   0  0  0  0  0  0  0  0  0  0  0  0
    1.7932    1.3404    1.0666 C   0  0  0  0  0  0  0  0  0  0  0  0
    1.5869    0.0644    1.3512 C   0  0  0  0  0  0  0  0  0  0  0  0
    0.7498   -0.8847    0.5445 C   0  0  0  0  0  3  0  0  0  0  0  0
   -0.4209   -1.4096    1.3778 C   0  0  0  0  0  0  0  0  0  0  0  0
    1.6036   -2.0400    0.0185 C   0  0  0  0  0  0  0  0  0  0  0  0
    2.4109    1.9700    1.6947 H   0  0  0  0  0  0  0  0  0  0  0  0
    1.3492    1.8025    0.1911 H   0  0  0  0  0  0  0  0  0  0  0  0
    2.0504   -0.3627    2.2396 H   0  0  0  0  0  0  0  0  0  0  0  0
   -1.0369   -2.0951    0.7921 H   0  0  0  0  0  0  0  0  0  0  0  0
   -0.0573   -1.9532    2.2541 H   0  0  0  0  0  0  0  0  0  0  0  0
   -1.0532   -0.5923    1.7275 H   0  0  0  0  0  0  0  0  0  0  0  0
    2.0389   -2.6059    0.8467 H   0  0  0  0  0  0  0  0  0  0  0  0
    2.4206   -1.6740   -0.6049 H   0  0  0  0  0  0  0  0  0  0  0  0
    0.9997   -2.7293   -0.5753 H   0  0  0  0  0  0  0  0  0  0  0  0
  1  2  3  0
  1  5  1  0
  2  3  1  0
  3  4  1  0
  3  6  1  0
  3  7  1  0
  4  8  1  0
  4  9  1  0
  4 10  1  0
 11 12  2  3
 11 16  1  0
 11 17  1  0
 12 13  1  0
 12 18  1  0
 13 14  1  0
 13 15  1  0
 14 19  1  0
 14 20  1  0
 14 21  1  0
 15 22  1  0
 15 23  1  0
 15 24  1  0
M  RAD  1  13   2
M  END
>  <reaction>  (5) 
rxn_1264

>  <mol_properties>  (5) 
{"1": {"label": "*4", "atom_type": "Ct"}, "2": {"label": "*3", "atom_type": "Cs"}, "5": {"label": "*2", "atom_type": "H0"}, "11": {"label": "*0", "atom_type": "Cd"}, "12": {"label": "*1", "atom_type": "Cs"}}

>  <type>  (5) 
unop_1

>  <geom_source>  (5) 
Heuristics

$$$$

     RDKit          3D

 24 22  0  0  0  0  0  0  0  0999 V2000
   -1.4263    0.5274   -2.6313 C   0  0  0  0  0  0  0  0  0  0  0  0
   -1.4263    0.5274   -1.4336 C   0  0  0  0  0  0  0  0  0  0  0  0
   -1.4263    0.5556    0.0256 C   0  0  0  0  0  0  0  0  0  0  0  0
   -1.4263    1.9770    0.5912 C   0  0  0  0  0  0  0  0  0  0  0  0
   -1.4263    0.5274   -3.6946 H   0  0  0  0  0  0  0  0  0  0  0  0
   -0.3757   -0.0985    0.4596 H   0  0  0  0  0  0  0  0  0  0  0  0
   -2.3018    0.0105    0.3873 H   0  0  0  0  0  0  0  0  0  0  0  0
   -2.3085    2.5249    0.2597 H   0  0  0  0  0  0  0  0  0  0  0  0
   -1.4263    1.9497    1.6814 H   0  0  0  0  0  0  0  0  0  0  0  0
   -0.5440    2.5248    0.2597 H   0  0  0  0  0  0  0  0  0  0  0  0
    1.5921   -0.2573   -1.3921 C   0  0  0  0  0  0  0  0  0  0  0  0
    1.7648   -0.6159   -0.1298 C   0  0  0  0  0  0  0  0  0  0  0  0
    0.6765   -0.7536    0.8943 C   0  0  0  0  0  3  0  0  0  0  0  0
    0.9007    0.2225    2.0507 C   0  0  0  0  0  0  0  0  0  0  0  0
    0.5991   -2.1933    1.4056 C   0  0  0  0  0  0  0  0  0  0  0  0
    2.4251   -0.1778   -2.0793 H   0  0  0  0  0  0  0  0  0  0  0  0
    0.6065   -0.0295   -1.7845 H   0  0  0  0  0  0  0  0  0  0  0  0
    2.7703   -0.8365    0.2262 H   0  0  0  0  0  0  0  0  0  0  0  0
    0.1068    0.1308    2.7949 H   0  0  0  0  0  0  0  0  0  0  0  0
    1.8516    0.0170    2.5499 H   0  0  0  0  0  0  0  0  0  0  0  0
    0.9227    1.2542    1.6968 H   0  0  0  0  0  0  0  0  0  0  0  0
    1.5393   -2.4844    1.8819 H   0  0  0  0  0  0  0  0  0  0  0  0
    0.4052   -2.8912    0.5899 H   0  0  0  0  0  0  0  0  0  0  0  0
   -0.1966   -2.2995    2.1459 H   0  0  0  0  0  0  0  0  0  0  0  0
  1  2  3  0
  1  5  1  0
  2  3  1  0
  3  4  1  0
  3  6  1  0
  3  7  1  0
  4  8  1  0
  4  9  1  0
  4 10  1  0
 11 12  2  3
 11 16  1  0
 11 17  1  0
 12 13  1  0
 12 18  1  0
 13 14  1  0
 13 15  1  0
 14 19  1  0
 14 20  1  0
 14 21  1  0
 15 22  1  0
 15 23  1  0
 15 24  1  0
M  RAD  1  13   2
M  END
>  <reaction>  (6) 
rxn_1264

>  <mol_properties>  (6) 
{"1": {"label": "*4", "atom_type": "Ct"}, "2": {"label": "*3", "atom_type": "Cs"}, "5": {"label": "*2", "atom_type": "H0"}, "11": {"label": "*0", "atom_type": "Cd"}, "12": {"label": "*1", "atom_type": "Cs"}}

>  <type>  (6) 
unop_2

>  <geom_source>  (6) 
Heuristics

$$$$

     RDKit          3D

 24 22  0  0  0  0  0  0  0  0999 V2000
   -1.2823    0.4696   -3.0578 C   0  0  0  0  0  0  0  0  0  0  0  0
   -1.2823    0.4696   -1.8600 C   0  0  0  0  0  0  0  0  0  0  0  0
   -1.2823    0.4978   -0.4009 C   0  0  0  0  0  0  0  0  0  0  0  0
   -1.2823    1.9192    0.1647 C   0  0  0  0  0  0  0  0  0  0  0  0
   -1.2823    0.4696   -4.1211 H   0  0  0  0  0  0  0  0  0  0  0  0
   -0.2317   -0.1563    0.0332 H   0  0  0  0  0  0  0  0  0  0  0  0
   -2.1579   -0.0472   -0.0392 H   0  0  0  0  0  0  0  0  0  0  0  0
   -2.1646    2.4671   -0.1668 H   0  0  0  0  0  0  0  0  0  0  0  0
   -1.2823    1.8919    1.2550 H   0  0  0  0  0  0  0  0  0  0  0  0
   -0.4001    2.4671   -0.1668 H   0  0  0  0  0  0  0  0  0  0  0  0
    1.0210    1.0470    2.1467 C   0  0  0  0  0  0  0  0  0  0  0  0
    1.2370   -0.2050    1.7759 C   0  0  0  0  0  0  0  0  0  0  0  0
    0.8204   -0.8113    0.4678 C   0  0  0  0  0  3  0  0  0  0  0  0
   -0.1573   -1.9653    0.6979 C   0  0  0  0  0  0  0  0  0  0  0  0
    2.0442   -1.2845   -0.3187 C   0  0  0  0  0  0  0  0  0  0  0  0
    1.3500    1.4196    3.1086 H   0  0  0  0  0  0  0  0  0  0  0  0
    0.5049    1.7469    1.4978 H   0  0  0  0  0  0  0  0  0  0  0  0
    1.7588   -0.8772    2.4559 H   0  0  0  0  0  0  0  0  0  0  0  0
   -0.4687   -2.4047   -0.2520 H   0  0  0  0  0  0  0  0  0  0  0  0
    0.3106   -2.7541    1.2933 H   0  0  0  0  0  0  0  0  0  0  0  0
   -1.0482   -1.6269    1.2287 H   0  0  0  0  0  0  0  0  0  0  0  0
    2.5900   -2.0493    0.2407 H   0  0  0  0  0  0  0  0  0  0  0  0
    2.7293   -0.4588   -0.5157 H   0  0  0  0  0  0  0  0  0  0  0  0
    1.7459   -1.7199   -1.2747 H   0  0  0  0  0  0  0  0  0  0  0  0
  1  2  3  0
  1  5  1  0
  2  3  1  0
  3  4  1  0
  3  6  1  0
  3  7  1  0
  4  8  1  0
  4  9  1  0
  4 10  1  0
 11 12  2  3
 11 16  1  0
 11 17  1  0
 12 13  1  0
 12 18  1  0
 13 14  1  0
 13 15  1  0
 14 19  1  0
 14 20  1  0
 14 21  1  0
 15 22  1  0
 15 23  1  0
 15 24  1  0
M  RAD  1  13   2
M  END
>  <reaction>  (7) 
rxn_1264

>  <mol_properties>  (7) 
{"1": {"label": "*4", "atom_type": "Ct"}, "2": {"label": "*3", "atom_type": "Cs"}, "5": {"label": "*2", "atom_type": "H0"}, "11": {"label": "*0", "atom_type": "Cd"}, "12": {"label": "*1", "atom_type": "Cs"}}

>  <type>  (7) 
unop_3

>  <geom_source>  (7) 
Heuristics

$$$$

     RDKit          3D

 24 22  0  0  0  0  0  0  0  0999 V2000
   -1.1882    0.8280   -2.7394 C   0  0  0  0  0  0  0  0  0  0  0  0
   -1.1882    0.8280   -1.5417 C   0  0  0  0  0  0  0  0  0  0  0  0
   -1.1882    0.8563   -0.0825 C   0  0  0  0  0  0  0  0  0  0  0  0
   -1.1882    2.2776    0.4831 C   0  0  0  0  0  0  0  0  0  0  0  0
   -1.1882    0.8280   -3.8027 H   0  0  0  0  0  0  0  0  0  0  0  0
   -0.1376    0.2021    0.3515 H   0  0  0  0  0  0  0  0  0  0  0  0
   -2.0637    0.3112    0.2792 H   0  0  0  0  0  0  0  0  0  0  0  0
   -2.0704    2.8255    0.1516 H   0  0  0  0  0  0  0  0  0  0  0  0
   -1.1882    2.2503    1.5733 H   0  0  0  0  0  0  0  0  0  0  0  0
   -0.3059    2.8255    0.1516 H   0  0  0  0  0  0  0  0  0  0  0  0
    0.2665   -2.2422   -0.8541 C   0  0  0  0  0  0  0  0  0  0  0  0
    0.8212   -1.8650    0.2868 C   0  0  0  0  0  0  0  0  0  0  0  0
    0.9145   -0.4529    0.7862 C   0  0  0  0  0  3  0  0  0  0  0  0
    2.3776   -0.0344    0.9431 C   0  0  0  0  0  0  0  0  0  0  0  0
    0.1608   -0.3000    2.1086 C   0  0  0  0  0  0  0  0  0  0  0  0
    0.2337   -3.2822   -1.1536 H   0  0  0  0  0  0  0  0  0  0  0  0
   -0.1766   -1.5203   -1.5323 H   0  0  0  0  0  0  0  0  0  0  0  0
    1.2554   -2.6202    0.9407 H   0  0  0  0  0  0  0  0  0  0  0  0
    2.4501    0.9953    1.2994 H   0  0  0  0  0  0  0  0  0  0  0  0
    2.8864   -0.6753    1.6683 H   0  0  0  0  0  0  0  0  0  0  0  0
    2.9124   -0.1087   -0.0048 H   0  0  0  0  0  0  0  0  0  0  0  0
    0.5910   -0.9503    2.8751 H   0  0  0  0  0  0  0  0  0  0  0  0
   -0.8915   -0.5644    1.9951 H   0  0  0  0  0  0  0  0  0  0  0  0
    0.2200    0.7281    2.4719 H   0  0  0  0  0  0  0  0  0  0  0  0
  1  2  3  0
  1  5  1  0
  2  3  1  0
  3  4  1  0
  3  6  1  0
  3  7  1  0
  4  8  1  0
  4  9  1  0
  4 10  1  0
 11 12  2  3
 11 16  1  0
 11 17  1  0
 12 13  1  0
 12 18  1  0
 13 14  1  0
 13 15  1  0
 14 19  1  0
 14 20  1  0
 14 21  1  0
 15 22  1  0
 15 23  1  0
 15 24  1  0
M  RAD  1  13   2
M  END
>  <reaction>  (8) 
rxn_1264

>  <mol_properties>  (8) 
{"1": {"label": "*4", "atom_type": "Ct"}, "2": {"label": "*3", "atom_type": "Cs"}, "5": {"label": "*2", "atom_type": "H0"}, "11": {"label": "*0", "atom_type": "Cd"}, "12": {"label": "*1", "atom_type": "Cs"}}

>  <type>  (8) 
unop_4

>  <geom_source>  (8) 
Heuristics

$$$$

     RDKit          3D

 24 22  0  0  0  0  0  0  0  0999 V2000
   -1.2230    0.5605   -3.0811 C   0  0  0  0  0  0  0  0  0  0  0  0
   -1.2230    0.5605   -1.8834 C   0  0  0  0  0  0  0  0  0  0  0  0
   -1.2230    0.5887   -0.4242 C   0  0  0  0  0  0  0  0  0  0  0  0
   -1.2230    2.0101    0.1414 C   0  0  0  0  0  0  0  0  0  0  0  0
   -1.2230    0.5605   -4.1444 H   0  0  0  0  0  0  0  0  0  0  0  0
   -0.1724   -0.0654    0.0098 H   0  0  0  0  0  0  0  0  0  0  0  0
   -2.0986    0.0436   -0.0625 H   0  0  0  0  0  0  0  0  0  0  0  0
   -2.1052    2.5579   -0.1901 H   0  0  0  0  0  0  0  0  0  0  0  0
   -1.2230    1.9828    1.2317 H   0  0  0  0  0  0  0  0  0  0  0  0
   -0.3408    2.5579   -0.1901 H   0  0  0  0  0  0  0  0  0  0  0  0
   -0.0555   -0.0873    2.6888 C   0  0  0  0  0  0  0  0  0  0  0  0
    0.8637   -0.6814    1.9447 C   0  0  0  0  0  0  0  0  0  0  0  0
    0.8797   -0.7205    0.4445 C   0  0  0  0  0  3  0  0  0  0  0  0
    0.7912   -2.1634   -0.0561 C   0  0  0  0  0  0  0  0  0  0  0  0
    2.1344   -0.0332   -0.0973 C   0  0  0  0  0  0  0  0  0  0  0  0
   -0.0052   -0.0982    3.7704 H   0  0  0  0  0  0  0  0  0  0  0  0
   -0.8950    0.4334    2.2401 H   0  0  0  0  0  0  0  0  0  0  0  0
    1.6916   -1.1940    2.4330 H   0  0  0  0  0  0  0  0  0  0  0  0
    0.7951   -2.1959   -1.1476 H   0  0  0  0  0  0  0  0  0  0  0  0
    1.6448   -2.7475    0.2984 H   0  0  0  0  0  0  0  0  0  0  0  0
   -0.1191   -2.6485    0.2991 H   0  0  0  0  0  0  0  0  0  0  0  0
    3.0356   -0.5420    0.2558 H   0  0  0  0  0  0  0  0  0  0  0  0
    2.1858    1.0066    0.2284 H   0  0  0  0  0  0  0  0  0  0  0  0
    2.1464   -0.0530   -1.1891 H   0  0  0  0  0  0  0  0  0  0  0  0
  1  2  3  0
  1  5  1  0
  2  3  1  0
  3  4  1  0
  3  6  1  0
  3  7  1  0
  4  8  1  0
  4  9  1  0
  4 10  1  0
 11 12  2  3
 11 16  1  0
 11 17  1  0
 12 13  1  0
 12 18  1  0
 13 14  1  0
 13 15  1  0
 14 19  1  0
 14 20  1  0
 14 21  1  0
 15 22  1  0
 15 23  1  0
 15 24  1  0
M  RAD  1  13   2
M  END
>  <reaction>  (9) 
rxn_1264

>  <mol_properties>  (9) 
{"1": {"label": "*4", "atom_type": "Ct"}, "2": {"label": "*3", "atom_type": "Cs"}, "5": {"label": "*2", "atom_type": "H0"}, "11": {"label": "*0", "atom_type": "Cd"}, "12": {"label": "*1", "atom_type": "Cs"}}

>  <type>  (9) 
unop_5

>  <geom_source>  (9) 
Heuristics

$$$$

     RDKit          3D

 24 22  0  0  0  0  0  0  0  0999 V2000
   -1.1358    0.8185   -2.8699 C   0  0  0  0  0  0  0  0  0  0  0  0
   -1.1358    0.8185   -1.6722 C   0  0  0  0  0  0  0  0  0  0  0  0
   -1.1358    0.8467   -0.2130 C   0  0  0  0  0  0  0  0  0  0  0  0
   -1.1357    2.2681    0.3526 C   0  0  0  0  0  0  0  0  0  0  0  0
   -1.1358    0.8185   -3.9332 H   0  0  0  0  0  0  0  0  0  0  0  0
   -0.0852    0.1926    0.2210 H   0  0  0  0  0  0  0  0  0  0  0  0
   -2.0113    0.3017    0.1487 H   0  0  0  0  0  0  0  0  0  0  0  0
   -2.0180    2.8160    0.0211 H   0  0  0  0  0  0  0  0  0  0  0  0
   -1.1357    2.2408    1.4429 H   0  0  0  0  0  0  0  0  0  0  0  0
   -0.2535    2.8160    0.0211 H   0  0  0  0  0  0  0  0  0  0  0  0
   -0.2181   -2.5870    0.0278 C   0  0  0  0  0  0  0  0  0  0  0  0
    0.5777   -1.9010    0.8327 C   0  0  0  0  0  0  0  0  0  0  0  0
    0.9670   -0.4624    0.6557 C   0  0  0  0  0  3  0  0  0  0  0  0
    2.4808   -0.3338    0.4762 C   0  0  0  0  0  0  0  0  0  0  0  0
    0.4876    0.3737    1.8437 C   0  0  0  0  0  0  0  0  0  0  0  0
   -0.4578   -3.6260    0.2160 H   0  0  0  0  0  0  0  0  0  0  0  0
   -0.6600   -2.1312   -0.8521 H   0  0  0  0  0  0  0  0  0  0  0  0
    1.0019   -2.3944    1.7062 H   0  0  0  0  0  0  0  0  0  0  0  0
    2.7676    0.7109    0.3397 H   0  0  0  0  0  0  0  0  0  0  0  0
    3.0070   -0.7123    1.3568 H   0  0  0  0  0  0  0  0  0  0  0  0
    2.8243   -0.9007   -0.3902 H   0  0  0  0  0  0  0  0  0  0  0  0
    0.9433    0.0203    2.7728 H   0  0  0  0  0  0  0  0  0  0  0  0
   -0.5958    0.3134    1.9563 H   0  0  0  0  0  0  0  0  0  0  0  0
    0.7625    1.4227    1.7155 H   0  0  0  0  0  0  0  0  0  0  0  0
  1  2  3  0
  1  5  1  0
  2  3  1  0
  3  4  1  0
  3  6  1  0
  3  7  1  0
  4  8  1  0
  4  9  1  0
  4 10  1  0
 11 12  2  3
 11 16  1  0
 11 17  1  0
 12 13  1  0
 12 18  1  0
 13 14  1  0
 13 15  1  0
 14 19  1  0
 14 20  1  0
 14 21  1  0
 15 22  1  0
 15 23  1  0
 15 24  1  0
M  RAD  1  13   2
M  END
>  <reaction>  (10) 
rxn_1264

>  <mol_properties>  (10) 
{"1": {"label": "*4", "atom_type": "Ct"}, "2": {"label": "*3", "atom_type": "Cs"}, "5": {"label": "*2", "atom_type": "H0"}, "11": {"label": "*0", "atom_type": "Cd"}, "12": {"label": "*1", "atom_type": "Cs"}}

>  <type>  (10) 
unop_6

>  <geom_source>  (10) 
Heuristics

$$$$

     RDKit          3D

 24 22  0  0  0  0  0  0  0  0999 V2000
   -1.1292    0.7511   -2.9880 C   0  0  0  0  0  0  0  0  0  0  0  0
   -1.1292    0.7511   -1.7903 C   0  0  0  0  0  0  0  0  0  0  0  0
   -1.1292    0.7793   -0.3311 C   0  0  0  0  0  0  0  0  0  0  0  0
   -1.1292    2.2007    0.2345 C   0  0  0  0  0  0  0  0  0  0  0  0
   -1.1292    0.7511   -4.0513 H   0  0  0  0  0  0  0  0  0  0  0  0
   -0.0786    0.1252    0.1030 H   0  0  0  0  0  0  0  0  0  0  0  0
   -2.0047    0.2342    0.0306 H   0  0  0  0  0  0  0  0  0  0  0  0
   -2.0114    2.7486   -0.0970 H   0  0  0  0  0  0  0  0  0  0  0  0
   -1.1292    2.1734    1.3248 H   0  0  0  0  0  0  0  0  0  0  0  0
   -0.2469    2.7485   -0.0970 H   0  0  0  0  0  0  0  0  0  0  0  0
   -0.5748   -2.4148    1.1393 C   0  0  0  0  0  0  0  0  0  0  0  0
    0.4924   -1.6714    1.3847 C   0  0  0  0  0  0  0  0  0  0  0  0
    0.9735   -0.5299    0.5376 C   0  0  0  0  0  3  0  0  0  0  0  0
    2.3747   -0.8172   -0.0051 C   0  0  0  0  0  0  0  0  0  0  0  0
    0.9569    0.7753    1.3355 C   0  0  0  0  0  0  0  0  0  0  0  0
   -0.8655   -3.2258    1.7952 H   0  0  0  0  0  0  0  0  0  0  0  0
   -1.1983   -2.2375    0.2692 H   0  0  0  0  0  0  0  0  0  0  0  0
    1.0930   -1.8810    2.2689 H   0  0  0  0  0  0  0  0  0  0  0  0
    2.7258    0.0080   -0.6282 H   0  0  0  0  0  0  0  0  0  0  0  0
    3.0873   -0.9433    0.8146 H   0  0  0  0  0  0  0  0  0  0  0  0
    2.3859   -1.7290   -0.6038 H   0  0  0  0  0  0  0  0  0  0  0  0
    1.6193    0.7056    2.2027 H   0  0  0  0  0  0  0  0  0  0  0  0
   -0.0469    1.0035    1.6966 H   0  0  0  0  0  0  0  0  0  0  0  0
    1.2995    1.6100    0.7204 H   0  0  0  0  0  0  0  0  0  0  0  0
  1  2  3  0
  1  5  1  0
  2  3  1  0
  3  4  1  0
  3  6  1  0
  3  7  1  0
  4  8  1  0
  4  9  1  0
  4 10  1  0
 11 12  2  3
 11 16  1  0
 11 17  1  0
 12 13  1  0
 12 18  1  0
 13 14  1  0
 13 15  1  0
 14 19  1  0
 14 20  1  0
 14 21  1  0
 15 22  1  0
 15 23  1  0
 15 24  1  0
M  RAD  1  13   2
M  END
>  <reaction>  (11) 
rxn_1264

>  <mol_properties>  (11) 
{"1": {"label": "*4", "atom_type": "Ct"}, "2": {"label": "*3", "atom_type": "Cs"}, "5": {"label": "*2", "atom_type": "H0"}, "11": {"label": "*0", "atom_type": "Cd"}, "12": {"label": "*1", "atom_type": "Cs"}}

>  <type>  (11) 
unop_7

>  <geom_source>  (11) 
Heuristics

$$$$

     RDKit          3D

 24 22  0  0  0  0  0  0  0  0999 V2000
   -1.4145    0.3764   -2.8613 C   0  0  0  0  0  0  0  0  0  0  0  0
   -1.4145    0.3764   -1.6636 C   0  0  0  0  0  0  0  0  0  0  0  0
   -1.4145    0.4047   -0.2045 C   0  0  0  0  0  0  0  0  0  0  0  0
   -1.4145    1.8260    0.3611 C   0  0  0  0  0  0  0  0  0  0  0  0
   -1.4145    0.3764   -3.9246 H   0  0  0  0  0  0  0  0  0  0  0  0
   -0.3639   -0.2494    0.2296 H   0  0  0  0  0  0  0  0  0  0  0  0
   -2.2900   -0.1404    0.1572 H   0  0  0  0  0  0  0  0  0  0  0  0
   -2.2967    2.3739    0.0297 H   0  0  0  0  0  0  0  0  0  0  0  0
   -1.4145    1.7988    1.4514 H   0  0  0  0  0  0  0  0  0  0  0  0
   -0.5323    2.3739    0.0297 H   0  0  0  0  0  0  0  0  0  0  0  0
    2.0829    1.0619   -0.0427 C   0  0  0  0  0  0  0  0  0  0  0  0
    1.8212    0.0710    0.7946 C   0  0  0  0  0  0  0  0  0  0  0  0
    0.6882   -0.9045    0.6643 C   0  0  0  0  0  3  0  0  0  0  0  0
   -0.2521   -0.7992    1.8664 C   0  0  0  0  0  0  0  0  0  0  0  0
    1.2217   -2.3305    0.5148 C   0  0  0  0  0  0  0  0  0  0  0  0
    2.9202    1.7308    0.1124 H   0  0  0  0  0  0  0  0  0  0  0  0
    1.4659    1.2400   -0.9173 H   0  0  0  0  0  0  0  0  0  0  0  0
    2.4644   -0.0751    1.6614 H   0  0  0  0  0  0  0  0  0  0  0  0
   -1.0821   -1.5025    1.7721 H   0  0  0  0  0  0  0  0  0  0  0  0
    0.2794   -1.0324    2.7932 H   0  0  0  0  0  0  0  0  0  0  0  0
   -0.6628    0.2072    1.9584 H   0  0  0  0  0  0  0  0  0  0  0  0
    1.8053   -2.6179    1.3937 H   0  0  0  0  0  0  0  0  0  0  0  0
    1.8660   -2.4203   -0.3608 H   0  0  0  0  0  0  0  0  0  0  0  0
    0.4004   -3.0428    0.4124 H   0  0  0  0  0  0  0  0  0  0  0  0
  1  2  3  0
  1  5  1  0
  2  3  1  0
  3  4  1  0
  3  6  1  0
  3  7  1  0
  4  8  1  0
  4  9  1  0
  4 10  1  0
 11 12  2  3
 11 16  1  0
 11 17  1  0
 12 13  1  0
 12 18  1  0
 13 14  1  0
 13 15  1  0
 14 19  1  0
 14 20  1  0
 14 21  1  0
 15 22  1  0
 15 23  1  0
 15 24  1  0
M  RAD  1  13   2
M  END
>  <reaction>  (12) 
rxn_1264

>  <mol_properties>  (12) 
{"1": {"label": "*4", "atom_type": "Ct"}, "2": {"label": "*3", "atom_type": "Cs"}, "5": {"label": "*2", "atom_type": "H0"}, "11": {"label": "*0", "atom_type": "Cd"}, "12": {"label": "*1", "atom_type": "Cs"}}

>  <type>  (12) 
unop_8

>  <geom_source>  (12) 
Heuristics

$$$$

     RDKit          3D

 24 22  0  0  0  0  0  0  0  0999 V2000
   -1.2730    0.7705   -2.6360 C   0  0  0  0  0  0  0  0  0  0  0  0
   -1.2730    0.7705   -1.4383 C   0  0  0  0  0  0  0  0  0  0  0  0
   -1.2730    0.7987    0.0209 C   0  0  0  0  0  0  0  0  0  0  0  0
   -1.2730    2.2201    0.5865 C   0  0  0  0  0  0  0  0  0  0  0  0
   -1.2730    0.7705   -3.6993 H   0  0  0  0  0  0  0  0  0  0  0  0
   -0.2224    0.1446    0.4549 H   0  0  0  0  0  0  0  0  0  0  0  0
   -2.1485    0.2536    0.3826 H   0  0  0  0  0  0  0  0  0  0  0  0
   -2.1552    2.7679    0.2550 H   0  0  0  0  0  0  0  0  0  0  0  0
   -1.2730    2.1928    1.6767 H   0  0  0  0  0  0  0  0  0  0  0  0
   -0.3907    2.7679    0.2550 H   0  0  0  0  0  0  0  0  0  0  0  0
    0.7369   -1.6134   -1.3658 C   0  0  0  0  0  0  0  0  0  0  0  0
    1.1569   -1.5799   -0.1112 C   0  0  0  0  0  0  0  0  0  0  0  0
    0.8297   -0.5105    0.8896 C   0  0  0  0  0  3  0  0  0  0  0  0
    2.1041    0.1934    1.3595 C   0  0  0  0  0  0  0  0  0  0  0  0
    0.0660   -1.1010    2.0763 C   0  0  0  0  0  0  0  0  0  0  0  0
    1.0123   -2.4181   -2.0360 H   0  0  0  0  0  0  0  0  0  0  0  0
    0.0997   -0.8333   -1.7689 H   0  0  0  0  0  0  0  0  0  0  0  0
    1.7956   -2.3821    0.2561 H   0  0  0  0  0  0  0  0  0  0  0  0
    1.8698    0.9774    2.0825 H   0  0  0  0  0  0  0  0  0  0  0  0
    2.7804   -0.5163    1.8439 H   0  0  0  0  0  0  0  0  0  0  0  0
    2.6359    0.6463    0.5215 H   0  0  0  0  0  0  0  0  0  0  0  0
    0.6701   -1.8566    2.5861 H   0  0  0  0  0  0  0  0  0  0  0  0
   -0.8613   -1.5749    1.7516 H   0  0  0  0  0  0  0  0  0  0  0  0
   -0.1805   -0.3248    2.8037 H   0  0  0  0  0  0  0  0  0  0  0  0
  1  2  3  0
  1  5  1  0
  2  3  1  0
  3  4  1  0
  3  6  1  0
  3  7  1  0
  4  8  1  0
  4  9  1  0
  4 10  1  0
 11 12  2  3
 11 16  1  0
 11 17  1  0
 12 13  1  0
 12 18  1  0
 13 14  1  0
 13 15  1  0
 14 19  1  0
 14 20  1  0
 14 21  1  0
 15 22  1  0
 15 23  1  0
 15 24  1  0
M  RAD  1  13   2
M  END
>  <reaction>  (13) 
rxn_1264

>  <mol_properties>  (13) 
{"1": {"label": "*4", "atom_type": "Ct"}, "2": {"label": "*3", "atom_type": "Cs"}, "5": {"label": "*2", "atom_type": "H0"}, "11": {"label": "*0", "atom_type": "Cd"}, "12": {"label": "*1", "atom_type": "Cs"}}

>  <type>  (13) 
unop_9

>  <geom_source>  (13) 
Heuristics

$$$$

     RDKit          3D

 24 22  0  0  0  0  0  0  0  0999 V2000
   -1.4434    0.4233   -2.7316 C   0  0  0  0  0  0  0  0  0  0  0  0
   -1.4434    0.4233   -1.5339 C   0  0  0  0  0  0  0  0  0  0  0  0
   -1.4434    0.4515   -0.0747 C   0  0  0  0  0  0  0  0  0  0  0  0
   -1.4434    1.8729    0.4909 C   0  0  0  0  0  0  0  0  0  0  0  0
   -1.4434    0.4233   -3.7949 H   0  0  0  0  0  0  0  0  0  0  0  0
   -0.3928   -0.2026    0.3593 H   0  0  0  0  0  0  0  0  0  0  0  0
   -2.3190   -0.0936    0.2870 H   0  0  0  0  0  0  0  0  0  0  0  0
   -2.3257    2.4207    0.1594 H   0  0  0  0  0  0  0  0  0  0  0  0
   -1.4434    1.8456    1.5812 H   0  0  0  0  0  0  0  0  0  0  0  0
   -0.5612    2.4207    0.1594 H   0  0  0  0  0  0  0  0  0  0  0  0
    1.9654    0.4520   -0.9063 C   0  0  0  0  0  0  0  0  0  0  0  0
    1.8842   -0.1792    0.2542 C   0  0  0  0  0  0  0  0  0  0  0  0
    0.6593   -0.8577    0.7940 C   0  0  0  0  0  3  0  0  0  0  0  0
    0.2194   -0.2070    2.1068 C   0  0  0  0  0  0  0  0  0  0  0  0
    0.9152   -2.3534    0.9879 C   0  0  0  0  0  0  0  0  0  0  0  0
    2.8843    0.9211   -1.2349 H   0  0  0  0  0  0  0  0  0  0  0  0
    1.1113    0.5220   -1.5718 H   0  0  0  0  0  0  0  0  0  0  0  0
    2.7641   -0.2278    0.8944 H   0  0  0  0  0  0  0  0  0  0  0  0
   -0.6761   -0.6931    2.4994 H   0  0  0  0  0  0  0  0  0  0  0  0
    1.0050   -0.2939    2.8624 H   0  0  0  0  0  0  0  0  0  0  0  0
    0.0024    0.8530    1.9677 H   0  0  0  0  0  0  0  0  0  0  0  0
    1.7254   -2.5164    1.7039 H   0  0  0  0  0  0  0  0  0  0  0  0
    1.1962   -2.8301    0.0478 H   0  0  0  0  0  0  0  0  0  0  0  0
    0.0238   -2.8524    1.3738 H   0  0  0  0  0  0  0  0  0  0  0  0
  1  2  3  0
  1  5  1  0
  2  3  1  0
  3  4  1  0
  3  6  1  0
  3  7  1  0
  4  8  1  0
  4  9  1  0
  4 10  1  0
 11 12  2  3
 11 16  1  0
 11 17  1  0
 12 13  1  0
 12 18  1  0
 13 14  1  0
 13 15  1  0
 14 19  1  0
 14 20  1  0
 14 21  1  0
 15 22  1  0
 15 23  1  0
 15 24  1  0
M  RAD  1  13   2
M  END
>  <reaction>  (14) 
rxn_1264

>  <mol_properties>  (14) 
{"1": {"label": "*4", "atom_type": "Ct"}, "2": {"label": "*3", "atom_type": "Cs"}, "5": {"label": "*2", "atom_type": "H0"}, "11": {"label": "*0", "atom_type": "Cd"}, "12": {"label": "*1", "atom_type": "Cs"}}

>  <type>  (14) 
unop_10

>  <geom_source>  (14) 
Heuristics

$$$$

     RDKit          3D

 24 22  0  0  0  0  0  0  0  0999 V2000
   -1.1663    0.6537   -3.0613 C   0  0  0  0  0  0  0  0  0  0  0  0
   -1.1663    0.6537   -1.8636 C   0  0  0  0  0  0  0  0  0  0  0  0
   -1.1663    0.6819   -0.4045 C   0  0  0  0  0  0  0  0  0  0  0  0
   -1.1662    2.1033    0.1612 C   0  0  0  0  0  0  0  0  0  0  0  0
   -1.1663    0.6537   -4.1246 H   0  0  0  0  0  0  0  0  0  0  0  0
   -0.1157    0.0278    0.0296 H   0  0  0  0  0  0  0  0  0  0  0  0
   -2.0418    0.1369   -0.0427 H   0  0  0  0  0  0  0  0  0  0  0  0
   -2.0485    2.6512   -0.1703 H   0  0  0  0  0  0  0  0  0  0  0  0
   -1.1662    2.0760    1.2514 H   0  0  0  0  0  0  0  0  0  0  0  0
   -0.2840    2.6512   -0.1703 H   0  0  0  0  0  0  0  0  0  0  0  0
   -0.6242   -1.5619    2.1971 C   0  0  0  0  0  0  0  0  0  0  0  0
    0.5919   -1.2279    1.7957 C   0  0  0  0  0  0  0  0  0  0  0  0
    0.9365   -0.6272    0.4643 C   0  0  0  0  0  3  0  0  0  0  0  0
    1.8772   -1.5493   -0.3136 C   0  0  0  0  0  0  0  0  0  0  0  0
    1.5600    0.7580    0.6452 C   0  0  0  0  0  0  0  0  0  0  0  0
   -0.8017   -1.9926    3.1746 H   0  0  0  0  0  0  0  0  0  0  0  0
   -1.4894   -1.4157    1.5590 H   0  0  0  0  0  0  0  0  0  0  0  0
    1.4351   -1.3905    2.4658 H   0  0  0  0  0  0  0  0  0  0  0  0
    2.1247   -1.1192   -1.2864 H   0  0  0  0  0  0  0  0  0  0  0  0
    2.8122   -1.6969    0.2338 H   0  0  0  0  0  0  0  0  0  0  0  0
    1.4243   -2.5283   -0.4757 H   0  0  0  0  0  0  0  0  0  0  0  0
    2.4837    0.6920    1.2266 H   0  0  0  0  0  0  0  0  0  0  0  0
    0.8799    1.4307    1.1696 H   0  0  0  0  0  0  0  0  0  0  0  0
    1.8056    1.2018   -0.3218 H   0  0  0  0  0  0  0  0  0  0  0  0
  1  2  3  0
  1  5  1  0
  2  3  1  0
  3  4  1  0
  3  6  1  0
  3  7  1  0
  4  8  1  0
  4  9  1  0
  4 10  1  0
 11 12  2  3
 11 16  1  0
 11 17  1  0
 12 13  1  0
 12 18  1  0
 13 14  1  0
 13 15  1  0
 14 19  1  0
 14 20  1  0
 14 21  1  0
 15 22  1  0
 15 23  1  0
 15 24  1  0
M  RAD  1  13   2
M  END
>  <reaction>  (15) 
rxn_1264

>  <mol_properties>  (15) 
{"1": {"label": "*4", "atom_type": "Ct"}, "2": {"label": "*3", "atom_type": "Cs"}, "5": {"label": "*2", "atom_type": "H0"}, "11": {"label": "*0", "atom_type": "Cd"}, "12": {"label": "*1", "atom_type": "Cs"}}

>  <type>  (15) 
unop_11

>  <geom_source>  (15) 
Heuristics

$$$$

     RDKit          3D

 24 22  0  0  0  0  0  0  0  0999 V2000
   -1.3631    0.6582   -2.5947 C   0  0  0  0  0  0  0  0  0  0  0  0
   -1.3631    0.6582   -1.3970 C   0  0  0  0  0  0  0  0  0  0  0  0
   -1.3631    0.6864    0.0621 C   0  0  0  0  0  0  0  0  0  0  0  0
   -1.3631    2.1078    0.6277 C   0  0  0  0  0  0  0  0  0  0  0  0
   -1.3631    0.6582   -3.6580 H   0  0  0  0  0  0  0  0  0  0  0  0
   -0.3125    0.0323    0.4962 H   0  0  0  0  0  0  0  0  0  0  0  0
   -2.2386    0.1413    0.4238 H   0  0  0  0  0  0  0  0  0  0  0  0
   -2.2453    2.6557    0.2963 H   0  0  0  0  0  0  0  0  0  0  0  0
   -1.3631    2.0805    1.7180 H   0  0  0  0  0  0  0  0  0  0  0  0
   -0.4809    2.6556    0.2963 H   0  0  0  0  0  0  0  0  0  0  0  0
    1.1586   -0.9345   -1.5266 C   0  0  0  0  0  0  0  0  0  0  0  0
    1.4993   -1.1249   -0.2620 C   0  0  0  0  0  0  0  0  0  0  0  0
    0.7396   -0.6228    0.9309 C   0  0  0  0  0  3  0  0  0  0  0  0
    1.6020    0.3383    1.7513 C   0  0  0  0  0  0  0  0  0  0  0  0
    0.2588   -1.7919    1.7925 C   0  0  0  0  0  0  0  0  0  0  0  0
    1.7550   -1.3264   -2.3410 H   0  0  0  0  0  0  0  0  0  0  0  0
    0.2667   -0.3772   -1.7933 H   0  0  0  0  0  0  0  0  0  0  0  0
    2.4024   -1.6900   -0.0352 H   0  0  0  0  0  0  0  0  0  0  0  0
    1.0503    0.7118    2.6165 H   0  0  0  0  0  0  0  0  0  0  0  0
    2.4987   -0.1674    2.1199 H   0  0  0  0  0  0  0  0  0  0  0  0
    1.9200    1.1921    1.1514 H   0  0  0  0  0  0  0  0  0  0  0  0
    1.1079   -2.3729    2.1625 H   0  0  0  0  0  0  0  0  0  0  0  0
   -0.3849   -2.4630    1.2221 H   0  0  0  0  0  0  0  0  0  0  0  0
   -0.3009   -1.4311    2.6579 H   0  0  0  0  0  0  0  0  0  0  0  0
  1  2  3  0
  1  5  1  0
  2  3  1  0
  3  4  1  0
  3  6  1  0
  3  7  1  0
  4  8  1  0
  4  9  1  0
  4 10  1  0
 11 12  2  3
 11 16  1  0
 11 17  1  0
 12 13  1  0
 12 18  1  0
 13 14  1  0
 13 15  1  0
 14 19  1  0
 14 20  1  0
 14 21  1  0
 15 22  1  0
 15 23  1  0
 15 24  1  0
M  RAD  1  13   2
M  END
>  <reaction>  (16) 
rxn_1264

>  <mol_properties>  (16) 
{"1": {"label": "*4", "atom_type": "Ct"}, "2": {"label": "*3", "atom_type": "Cs"}, "5": {"label": "*2", "atom_type": "H0"}, "11": {"label": "*0", "atom_type": "Cd"}, "12": {"label": "*1", "atom_type": "Cs"}}

>  <type>  (16) 
unop_12

>  <geom_source>  (16) 
Heuristics

$$$$

     RDKit          3D

 24 22  0  0  0  0  0  0  0  0999 V2000
    0.9541   -0.1901   -0.4265 C   0  0  0  0  0  0  0  0  0  0  0  0
    1.3571   -1.4670    0.3185 C   0  0  0  0  0  0  0  0  0  0  0  0
    1.0328   -0.4067   -1.9404 C   0  0  0  0  0  0  0  0  0  0  0  0
   -2.3220   -1.1653    0.3318 C   0  0  0  0  0  0  0  0  0  0  0  0
    1.8298    0.9680   -0.0115 C   0  0  0  0  0  0  0  0  0  0  0  0
   -1.3943   -0.0179    0.7043 C   0  0  0  0  0  3  0  0  0  0  0  0
    1.7045    1.5395    1.1896 C   0  0  0  0  0  0  0  0  0  0  0  0
   -1.9964    1.2727    0.3529 C   0  0  0  0  0  0  0  0  0  0  0  0
   -2.4904    2.3339    0.0643 C   0  0  0  0  0  0  0  0  0  0  0  0
   -0.2948    0.0944   -0.1268 H   0  0  0  0  0  0  0  0  0  0  0  0
    1.2415   -1.3262    1.4139 H   0  0  0  0  0  0  0  0  0  0  0  0
    0.7023   -2.3099    0.0114 H   0  0  0  0  0  0  0  0  0  0  0  0
    2.4138   -1.7323    0.0987 H   0  0  0  0  0  0  0  0  0  0  0  0
    0.3499   -1.2286   -2.2434 H   0  0  0  0  0  0  0  0  0  0  0  0
    0.7186    0.5165   -2.4724 H   0  0  0  0  0  0  0  0  0  0  0  0
    2.0687   -0.6666   -2.2488 H   0  0  0  0  0  0  0  0  0  0  0  0
   -2.5199   -1.1586   -0.7613 H   0  0  0  0  0  0  0  0  0  0  0  0
   -1.8385   -2.1282    0.5978 H   0  0  0  0  0  0  0  0  0  0  0  0
   -3.2833   -1.0823    0.8833 H   0  0  0  0  0  0  0  0  0  0  0  0
    2.5612    1.3721   -0.7068 H   0  0  0  0  0  0  0  0  0  0  0  0
   -1.1800   -0.0414    1.7936 H   0  0  0  0  0  0  0  0  0  0  0  0
    0.9733    1.1795    1.9070 H   0  0  0  0  0  0  0  0  0  0  0  0
    2.3364    2.3792    1.4600 H   0  0  0  0  0  0  0  0  0  0  0  0
   -2.9243    3.2653   -0.1891 H   0  0  0  0  0  0  0  0  0  0  0  0
  1  2  1  0
  1  3  1  0
  1  5  1  0
  1 10  1  0
  2 11  1  0
  2 12  1  0
  2 13  1  0
  3 14  1  0
  3 15  1  0
  3 16  1  0
  4  6  1  0
  4 17  1  0
  4 18  1  0
  4 19  1  0
  5  7  2  3
  5 20  1  0
  6  8  1  0
  6 21  1  0
  7 22  1  0
  7 23  1  0
  8  9  3  0
  9 24  1  0
M  RAD  1   6   2
M  END
>  <reaction>  (17) 
rxn_1264

>  <mol_properties>  (17) 
{"1": {"label": "*4", "atom_type": "Ct"}, "2": {"label": "*3", "atom_type": "Cs"}, "5": {"label": "*2", "atom_type": "H0"}, "11": {"label": "*0", "atom_type": "Cd"}, "12": {"label": "*1", "atom_type": "Cs"}}

>  <type>  (17) 
unop_13

>  <geom_source>  (17) 
AutoTST

$$$$
