
     RDKit          3D

 15 15  0  0  0  0  0  0  0  0999 V2000
    2.2031   -0.2111   -0.1693 C   0  0  0  0  0  0  0  0  0  0  0  0
    0.7140   -0.0314   -0.0623 C   0  0  0  0  0  0  0  0  0  0  0  0
   -0.0114    0.5491   -1.0982 C   0  0  0  0  0  0  0  0  0  0  0  0
   -1.3882    0.6886   -1.0150 C   0  0  0  0  0  0  0  0  0  0  0  0
   -2.0661    0.2493    0.1118 C   0  0  0  0  0  0  0  0  0  0  0  0
   -1.3551   -0.3278    1.1528 C   0  0  0  0  0  0  0  0  0  0  0  0
    0.0216   -0.4648    1.0642 C   0  0  0  0  0  0  0  0  0  0  0  0
    2.6776   -0.1836    0.8122 H   0  0  0  0  0  0  0  0  0  0  0  0
    2.4446   -1.1749   -0.6249 H   0  0  0  0  0  0  0  0  0  0  0  0
    2.6532    0.5664   -0.7875 H   0  0  0  0  0  0  0  0  0  0  0  0
    0.5104    0.8989   -1.9819 H   0  0  0  0  0  0  0  0  0  0  0  0
   -1.9328    1.1452   -1.8322 H   0  0  0  0  0  0  0  0  0  0  0  0
   -3.1409    0.3597    0.1800 H   0  0  0  0  0  0  0  0  0  0  0  0
   -1.8736   -0.6702    2.0398 H   0  0  0  0  0  0  0  0  0  0  0  0
    0.5695   -0.9141    1.8849 H   0  0  0  0  0  0  0  0  0  0  0  0
  1  2  1  0
  1  8  1  0
  1  9  1  0
  1 10  1  0
  2  3  2  0
  2  7  1  0
  3  4  1  0
  3 11  1  0
  4  5  2  0
  4 12  1  0
  5  6  1  0
  5 13  1  0
  6  7  2  0
  6 14  1  0
  7 15  1  0
M  END
>  <reaction>  (1) 
rxn_266

>  <mol_properties>  (1) 
{"4": {"label": "donator", "atom_type": "Cd"}, "12": {"label": "d_hydrogen", "atom_type": "H0"}}

>  <type>  (1) 
r1h

$$$$

     RDKit          3D

  1  0  0  0  0  0  0  0  0  0999 V2000
    0.0000    0.0000    0.0000 O   0  0  0  0  0 15  0  0  0  0  0  0
M  END
>  <reaction>  (2) 
rxn_266

>  <mol_properties>  (2) 
{"0": {"label": "acceptor", "atom_type": "O2s"}}

>  <type>  (2) 
r2

$$$$

     RDKit          3D

  2  1  0  0  0  0  0  0  0  0999 V2000
    0.0000    0.0000    0.4855 O   0  0  0  0  0  1  0  0  0  0  0  0
    0.0000    0.0000   -0.4855 H   0  0  0  0  0  0  0  0  0  0  0  0
  1  2  1  0
M  RAD  1   1   2
M  END
>  <reaction>  (3) 
rxn_266

>  <mol_properties>  (3) 
{"0": {"label": "a_hydrogen", "atom_type": "H0"}, "1": {"label": "acceptor", "atom_type": "O2s"}}

>  <type>  (3) 
r2h

$$$$

     RDKit          3D

 16 15  0  0  0  0  0  0  0  0999 V2000
    0.0374   -0.0004   -3.0835 C   0  0  0  0  0  0  0  0  0  0  0  0
    0.0370   -0.0004   -1.5797 C   0  0  0  0  0  0  0  0  0  0  0  0
    0.0370    1.1985   -0.8714 C   0  0  0  0  0  0  0  0  0  0  0  0
    0.0069    1.2135    0.5185 C   0  0  0  0  0  0  0  0  0  0  0  0
   -0.0220    0.0002    1.1602 C   0  0  0  0  0  0  0  0  0  0  0  0
   -0.0199   -1.2134    0.5185 C   0  0  0  0  0  0  0  0  0  0  0  0
    0.0106   -1.1990   -0.8714 C   0  0  0  0  0  3  0  0  0  0  0  0
    0.5288   -0.8891   -3.4799 H   0  0  0  0  0  0  0  0  0  0  0  0
   -0.9852    0.0109   -3.4688 H   0  0  0  0  0  0  0  0  0  0  0  0
    0.5484    0.8772   -3.4799 H   0  0  0  0  0  0  0  0  0  0  0  0
    0.0635    2.1385   -1.4109 H   0  0  0  0  0  0  0  0  0  0  0  0
    0.0093    2.1452    1.0686 H   0  0  0  0  0  0  0  0  0  0  0  0
   -0.0485    0.0005    2.5155 H   0  0  0  0  0  0  0  0  0  0  0  0
   -0.0380   -2.1449    1.0686 H   0  0  0  0  0  0  0  0  0  0  0  0
    0.0164   -2.1393   -1.4109 H   0  0  0  0  0  0  0  0  0  0  0  0
   -0.0705    0.0008    3.6557 O   0  0  0  0  0  1  0  0  0  0  0  0
  1  2  1  0
  1  8  1  0
  1  9  1  0
  1 10  1  0
  2  3  2  0
  2  7  1  0
  3  4  1  0
  3 11  1  0
  4  5  2  0
  4 12  1  0
  5  6  2  0
  6  7  1  0
  6 14  1  0
  7 15  1  0
 13 16  1  0
M  RAD  2   7   2  16   2
M  END
>  <reaction>  (4) 
rxn_266

>  <mol_properties>  (4) 
{"3": {"label": "*4", "atom_type": "Cd"}, "4": {"label": "*3", "atom_type": "Cdd"}, "12": {"label": "*2", "atom_type": "H0"}, "15": {"label": "*1", "atom_type": "O2s"}}

>  <type>  (4) 
ts

$$$$

     RDKit          3D

 16 15  0  0  0  0  0  0  0  0999 V2000
    0.0372   -0.0004   -3.0892 C   0  0  0  0  0  0  0  0  0  0  0  0
    0.0372   -0.0004   -1.5855 C   0  0  0  0  0  0  0  0  0  0  0  0
    0.0372    1.1939   -0.8714 C   0  0  0  0  0  0  0  0  0  0  0  0
    0.0067    1.1973    0.5146 C   0  0  0  0  0  0  0  0  0  0  0  0
   -0.0228    0.0003    1.2136 C   0  0  0  0  0  0  0  0  0  0  0  0
   -0.0197   -1.1971    0.5146 C   0  0  0  0  0  0  0  0  0  0  0  0
    0.0108   -1.1944   -0.8714 C   0  0  0  0  0  3  0  0  0  0  0  0
    0.5287   -0.8893   -3.4859 H   0  0  0  0  0  0  0  0  0  0  0  0
   -0.9851    0.0108   -3.4760 H   0  0  0  0  0  0  0  0  0  0  0  0
    0.5482    0.8775   -3.4859 H   0  0  0  0  0  0  0  0  0  0  0  0
    0.0638    2.1350   -1.4092 H   0  0  0  0  0  0  0  0  0  0  0  0
    0.0094    2.1385    1.0503 H   0  0  0  0  0  0  0  0  0  0  0  0
   -0.0482    0.0005    2.5124 H   0  0  0  0  0  0  0  0  0  0  0  0
   -0.0378   -2.1382    1.0503 H   0  0  0  0  0  0  0  0  0  0  0  0
    0.0167   -2.1359   -1.4092 H   0  0  0  0  0  0  0  0  0  0  0  0
   -0.0710    0.0008    3.6774 O   0  0  0  0  0  1  0  0  0  0  0  0
  1  2  1  0
  1  8  1  0
  1  9  1  0
  1 10  1  0
  2  3  2  0
  2  7  1  0
  3  4  1  0
  3 11  1  0
  4  5  2  0
  4 12  1  0
  5  6  2  0
  6  7  1  0
  6 14  1  0
  7 15  1  0
 13 16  1  0
M  RAD  2   7   2  16   2
M  END
>  <reaction>  (5) 
rxn_266

>  <mol_properties>  (5) 
{"3": {"label": "*4", "atom_type": "Cd"}, "4": {"label": "*3", "atom_type": "Cdd"}, "12": {"label": "*2", "atom_type": "H0"}, "15": {"label": "*1", "atom_type": "O2s"}}

>  <type>  (5) 
unop_1

>  <geom_source>  (5) 
Heuristics

$$$$

     RDKit          3D

 16 15  0  0  0  0  0  0  0  0999 V2000
   -2.8364   -0.4436    1.8749 O   0  0  0  0  0 15  0  0  0  0  0  0
    2.3809    0.0407   -0.0976 C   0  0  0  0  0  0  0  0  0  0  0  0
    0.8839    0.0356   -0.1905 C   0  0  0  0  0  0  0  0  0  0  0  0
    0.1961   -1.1564   -0.4715 C   0  0  0  0  0  0  0  0  0  0  0  0
    0.1545    1.2076    0.0694 C   0  0  0  0  0  0  0  0  0  0  0  0
   -1.2017   -1.1669   -0.5211 C   0  0  0  0  0  0  0  0  0  0  0  0
   -1.2432    1.1918    0.0186 C   0  0  0  0  0  0  0  0  0  0  0  0
   -1.9198    0.0062   -0.2773 C   0  0  0  0  0  0  0  0  0  0  0  0
    2.6868   -0.1922    0.9437 H   0  0  0  0  0  0  0  0  0  0  0  0
    2.7876    1.0348   -0.3812 H   0  0  0  0  0  0  0  0  0  0  0  0
    2.8184   -0.7170   -0.7820 H   0  0  0  0  0  0  0  0  0  0  0  0
    0.7407   -2.0749   -0.6525 H   0  0  0  0  0  0  0  0  0  0  0  0
    0.6667    2.1311    0.3099 H   0  0  0  0  0  0  0  0  0  0  0  0
   -1.7306   -2.0838   -0.7442 H   0  0  0  0  0  0  0  0  0  0  0  0
   -1.8042    2.0963    0.2122 H   0  0  0  0  0  0  0  0  0  0  0  0
   -2.5796    0.0907    0.6891 H   0  0  0  0  0  0  0  0  0  0  0  0
  2  3  1  0
  2  9  1  0
  2 10  1  0
  2 11  1  0
  3  4  2  0
  3  5  1  0
  4  6  1  0
  4 12  1  0
  5  7  2  0
  5 13  1  0
  6  8  2  0
  6 14  1  0
  7  8  1  0
  7 15  1  0
  8 16  1  0
M  END
>  <reaction>  (6) 
rxn_266

>  <mol_properties>  (6) 
{"3": {"label": "*4", "atom_type": "Cd"}, "4": {"label": "*3", "atom_type": "Cdd"}, "12": {"label": "*2", "atom_type": "H0"}, "15": {"label": "*1", "atom_type": "O2s"}}

>  <type>  (6) 
unop_2

>  <geom_source>  (6) 
AutoTST

$$$$

     RDKit          3D

 16 15  0  0  0  0  0  0  0  0999 V2000
   -3.5178    0.5362    2.1063 O   0  0  0  0  0  1  0  0  0  0  0  0
    1.9502   -0.2595   -1.5602 C   0  0  0  0  0  0  0  0  0  0  0  0
    0.8199   -0.1096   -0.5856 C   0  0  0  0  0  0  0  0  0  0  0  0
    0.3567    1.1678   -0.2300 C   0  0  0  0  0  0  0  0  0  0  0  0
    0.1714   -1.2453   -0.0736 C   0  0  0  0  0  3  0  0  0  0  0  0
   -0.7215    1.3052    0.6502 C   0  0  0  0  0  0  0  0  0  0  0  0
   -1.3506    0.1709    1.1695 C   0  0  0  0  0  0  0  0  0  0  0  0
   -0.9065   -1.1030    0.8063 C   0  0  0  0  0  0  0  0  0  0  0  0
    2.5178   -1.1934   -1.3610 H   0  0  0  0  0  0  0  0  0  0  0  0
    2.6551    0.5949   -1.4769 H   0  0  0  0  0  0  0  0  0  0  0  0
    1.5447   -0.2953   -2.5928 H   0  0  0  0  0  0  0  0  0  0  0  0
    0.8295    2.0550   -0.6329 H   0  0  0  0  0  0  0  0  0  0  0  0
   -1.0729    2.2902    0.9275 H   0  0  0  0  0  0  0  0  0  0  0  0
   -2.3750    0.3036    2.0035 H   0  0  0  0  0  0  0  0  0  0  0  0
   -1.4008   -1.9793    1.2043 H   0  0  0  0  0  0  0  0  0  0  0  0
    0.4998   -2.2384   -0.3546 H   0  0  0  0  0  0  0  0  0  0  0  0
  1 14  1  0
  2  3  1  0
  2  9  1  0
  2 10  1  0
  2 11  1  0
  3  4  2  0
  3  5  1  0
  4  6  1  0
  4 12  1  0
  5  8  1  0
  5 16  1  0
  6  7  2  0
  6 13  1  0
  7  8  2  0
  8 15  1  0
M  RAD  2   1   2   5   2
M  END
>  <reaction>  (7) 
rxn_266

>  <mol_properties>  (7) 
{"3": {"label": "*4", "atom_type": "Cd"}, "4": {"label": "*3", "atom_type": "Cdd"}, "12": {"label": "*2", "atom_type": "H0"}, "15": {"label": "*1", "atom_type": "O2s"}}

>  <type>  (7) 
unop_3

>  <geom_source>  (7) 
gaussian_log

$$$$
