
     RDKit          3D

  7  6  0  0  0  0  0  0  0  0999 V2000
    1.6219    0.7652   -0.5471 O   0  0  0  0  0  0  0  0  0  0  0  0
    0.9106   -0.0935   -0.1371 C   0  0  0  0  0  0  0  0  0  0  0  0
   -0.6028    0.1107    0.0882 C   0  0  0  0  0  0  0  0  0  0  0  0
   -1.2787   -0.7730   -0.6547 F   0  0  0  0  0  0  0  0  0  0  0  0
   -0.8896   -0.1272    1.3730 F   0  0  0  0  0  0  0  0  0  0  0  0
   -1.0037    1.3281   -0.2226 F   0  0  0  0  0  0  0  0  0  0  0  0
    1.2559   -1.1113    0.1207 H   0  0  0  0  0  0  0  0  0  0  0  0
  1  2  2  0
  2  3  1  0
  2  7  1  0
  3  4  1  0
  3  5  1  0
  3  6  1  0
M  END
>  <reaction>  (1) 
rxn_3199

>  <mol_properties>  (1) 
{"1": {"label": "donator", "atom_type": "CO"}, "6": {"label": "d_hydrogen", "atom_type": "H0"}}

>  <type>  (1) 
r1h

$$$$

     RDKit          3D

  6  6  0  0  0  0  0  0  0  0999 V2000
    1.9594    0.0134   -0.3734 N   0  0  0  0  0  2  0  0  0  0  0  0
    0.7437    0.0051   -0.0788 C   0  0  0  0  0  0  0  0  0  0  0  0
   -0.0745    1.0868    0.0233 O   0  0  0  0  0  0  0  0  0  0  0  0
   -1.3223    0.5972    0.3682 N   0  0  0  0  0  0  0  0  0  0  0  0
   -1.2899   -0.6150    0.4676 N   0  0  0  0  0  0  0  0  0  0  0  0
   -0.0165   -1.0874    0.2015 O   0  0  0  0  0  0  0  0  0  0  0  0
  1  2  2  0
  2  3  1  0
  2  6  1  0
  3  4  1  0
  4  5  2  0
  5  6  1  0
M  RAD  1   1   2
M  END
>  <reaction>  (2) 
rxn_3199

>  <mol_properties>  (2) 
{"0": {"label": "acceptor", "atom_type": "N3d"}}

>  <type>  (2) 
r2

$$$$

     RDKit          3D

  7  7  0  0  0  0  0  0  0  0999 V2000
    1.6064   -0.4313    0.1905 N   0  0  0  0  0  0  0  0  0  0  0  0
    0.3982   -0.1725    0.0701 C   0  0  0  0  0  0  0  0  0  0  0  0
   -0.6051   -1.0481    0.3497 O   0  0  0  0  0  0  0  0  0  0  0  0
   -1.7906   -0.4044    0.0958 N   0  0  0  0  0  0  0  0  0  0  0  0
   -1.5819    0.7348   -0.2956 N   0  0  0  0  0  0  0  0  0  0  0  0
   -0.2229    0.9708   -0.3436 O   0  0  0  0  0  0  0  0  0  0  0  0
    2.1958    0.3506   -0.0669 H   0  0  0  0  0  0  0  0  0  0  0  0
  1  2  2  3
  1  7  1  0
  2  3  1  0
  2  6  1  0
  3  4  1  0
  4  5  2  0
  5  6  1  0
M  END
>  <reaction>  (3) 
rxn_3199

>  <mol_properties>  (3) 
{"0": {"label": "acceptor", "atom_type": "N3d"}, "6": {"label": "a_hydrogen", "atom_type": "H0"}}

>  <type>  (3) 
r2h

$$$$

     RDKit          3D

 13 12  0  0  0  0  0  0  0  0999 V2000
   -1.0609   -1.2270    0.7131 N   0  0  0  0  0  2  0  0  0  0  0  0
   -0.0702   -1.8783    0.3194 C   0  0  0  0  0  0  0  0  0  0  0  0
    0.2604   -3.1315    0.7389 O   0  0  0  0  0  0  0  0  0  0  0  0
    1.4115   -3.4874    0.0693 N   0  0  0  0  0  0  0  0  0  0  0  0
    1.7672   -2.5892   -0.6742 N   0  0  0  0  0  0  0  0  0  0  0  0
    0.8884   -1.5254   -0.5852 O   0  0  0  0  0  0  0  0  0  0  0  0
   -1.2941    1.1818   -1.7256 O   0  0  0  0  0  0  0  0  0  0  0  0
   -0.9181    1.0435   -0.6204 C   0  0  0  0  0  0  0  0  0  0  0  0
   -0.1773    2.1379    0.1988 C   0  0  0  0  0  0  0  0  0  0  0  0
   -0.9121    2.4497    1.2624 F   0  0  0  0  0  0  0  0  0  0  0  0
    0.9871    1.6416    0.6146 F   0  0  0  0  0  0  0  0  0  0  0  0
    0.0466    3.2294   -0.5101 F   0  0  0  0  0  0  0  0  0  0  0  0
   -1.0577   -0.0066    0.0373 H   0  0  0  0  0  0  0  0  0  0  0  0
  1  2  2  0
  2  3  1  0
  2  6  1  0
  3  4  1  0
  4  5  2  0
  5  6  1  0
  7  8  2  0
  8  9  1  0
  8 13  1  0
  9 10  1  0
  9 11  1  0
  9 12  1  0
M  RAD  1   1   2
M  END
>  <reaction>  (4) 
rxn_3199

>  <mol_properties>  (4) 
{"0": {"label": "*3", "atom_type": "N3d"}, "1": {"label": "*4", "atom_type": "Cd"}, "7": {"label": "*1", "atom_type": "CO"}, "8": {"label": "*0", "atom_type": "Cs"}, "12": {"label": "*2", "atom_type": "H0"}}

>  <type>  (4) 
ts

$$$$

     RDKit          3D

 13 12  0  0  0  0  0  0  0  0999 V2000
   -0.7475   -1.6555   -0.1285 N   0  0  0  0  0  0  0  0  0  0  0  0
    0.2466   -1.7267    0.6118 C   0  0  0  0  0  0  0  0  0  0  0  0
    0.2064   -2.1197    1.9139 O   0  0  0  0  0  0  0  0  0  0  0  0
    1.4912   -2.0702    2.3945 N   0  0  0  0  0  0  0  0  0  0  0  0
    2.2593   -1.6955    1.5204 N   0  0  0  0  0  0  0  0  0  0  0  0
    1.5595   -1.4540    0.3555 O   0  0  0  0  0  0  0  0  0  0  0  0
   -0.7475    0.4514   -2.7372 O   0  0  0  0  0  0  0  0  0  0  0  0
   -0.7475    0.4514   -1.5492 C   0  0  0  0  0  3  0  0  0  0  0  0
   -0.7475    1.7490   -0.7129 C   0  0  0  0  0  0  0  0  0  0  0  0
   -1.8292    1.7620    0.0742 F   0  0  0  0  0  0  0  0  0  0  0  0
    0.3341    1.7620    0.0741 F   0  0  0  0  0  0  0  0  0  0  0  0
   -0.7475    2.8358   -1.4601 F   0  0  0  0  0  0  0  0  0  0  0  0
   -0.7475   -0.6482   -0.8077 H   0  0  0  0  0  0  0  0  0  0  0  0
  1  2  2  3
  1 13  1  0
  2  3  1  0
  2  6  1  0
  3  4  1  0
  4  5  2  0
  5  6  1  0
  7  8  2  0
  8  9  1  0
  9 10  1  0
  9 11  1  0
  9 12  1  0
M  RAD  1   8   2
M  END
>  <reaction>  (5) 
rxn_3199

>  <mol_properties>  (5) 
{"0": {"label": "*3", "atom_type": "N3d"}, "1": {"label": "*4", "atom_type": "Cd"}, "7": {"label": "*1", "atom_type": "CO"}, "8": {"label": "*0", "atom_type": "Cs"}, "12": {"label": "*2", "atom_type": "H0"}}

>  <type>  (5) 
unop_1

>  <geom_source>  (5) 
Heuristics

$$$$

     RDKit          3D

 13 12  0  0  0  0  0  0  0  0999 V2000
   -0.4422   -0.9803    0.8645 N   0  0  0  0  0  0  0  0  0  0  0  0
    0.1317   -1.9281    0.3046 C   0  0  0  0  0  0  0  0  0  0  0  0
    0.6005   -3.0301    0.9506 O   0  0  0  0  0  0  0  0  0  0  0  0
    1.1665   -3.8476    0.0042 N   0  0  0  0  0  0  0  0  0  0  0  0
    1.0759   -3.3420   -1.1051 N   0  0  0  0  0  0  0  0  0  0  0  0
    0.4340   -2.1236   -1.0123 O   0  0  0  0  0  0  0  0  0  0  0  0
   -0.4422    1.1267   -1.7443 O   0  0  0  0  0  0  0  0  0  0  0  0
   -0.4422    1.1267   -0.5562 C   0  0  0  0  0  3  0  0  0  0  0  0
   -0.4422    2.4242    0.2800 C   0  0  0  0  0  0  0  0  0  0  0  0
   -1.5239    2.4372    1.0671 F   0  0  0  0  0  0  0  0  0  0  0  0
    0.6394    2.4373    1.0671 F   0  0  0  0  0  0  0  0  0  0  0  0
   -0.4422    3.5111   -0.4672 F   0  0  0  0  0  0  0  0  0  0  0  0
   -0.4422    0.0271    0.1853 H   0  0  0  0  0  0  0  0  0  0  0  0
  1  2  2  3
  1 13  1  0
  2  3  1  0
  2  6  1  0
  3  4  1  0
  4  5  2  0
  5  6  1  0
  7  8  2  0
  8  9  1  0
  9 10  1  0
  9 11  1  0
  9 12  1  0
M  RAD  1   8   2
M  END
>  <reaction>  (6) 
rxn_3199

>  <mol_properties>  (6) 
{"0": {"label": "*3", "atom_type": "N3d"}, "1": {"label": "*4", "atom_type": "Cd"}, "7": {"label": "*1", "atom_type": "CO"}, "8": {"label": "*0", "atom_type": "Cs"}, "12": {"label": "*2", "atom_type": "H0"}}

>  <type>  (6) 
unop_2

>  <geom_source>  (6) 
Heuristics

$$$$

     RDKit          3D

 13 12  0  0  0  0  0  0  0  0999 V2000
   -0.4246   -1.8271   -0.3875 N   0  0  0  0  0  0  0  0  0  0  0  0
    0.1493   -1.6634    0.7011 C   0  0  0  0  0  0  0  0  0  0  0  0
   -0.1963   -2.2993    1.8534 O   0  0  0  0  0  0  0  0  0  0  0  0
    0.6607   -1.8628    2.8328 N   0  0  0  0  0  0  0  0  0  0  0  0
    1.4542   -1.0532    2.3752 N   0  0  0  0  0  0  0  0  0  0  0  0
    1.2061   -0.8643    1.0307 O   0  0  0  0  0  0  0  0  0  0  0  0
   -0.4246    0.2798   -2.9962 O   0  0  0  0  0  0  0  0  0  0  0  0
   -0.4246    0.2798   -1.8082 C   0  0  0  0  0  3  0  0  0  0  0  0
   -0.4246    1.5774   -0.9719 C   0  0  0  0  0  0  0  0  0  0  0  0
   -1.5063    1.5904   -0.1849 F   0  0  0  0  0  0  0  0  0  0  0  0
    0.6570    1.5904   -0.1849 F   0  0  0  0  0  0  0  0  0  0  0  0
   -0.4246    2.6642   -1.7192 F   0  0  0  0  0  0  0  0  0  0  0  0
   -0.4246   -0.8198   -1.0667 H   0  0  0  0  0  0  0  0  0  0  0  0
  1  2  2  3
  1 13  1  0
  2  3  1  0
  2  6  1  0
  3  4  1  0
  4  5  2  0
  5  6  1  0
  7  8  2  0
  8  9  1  0
  9 10  1  0
  9 11  1  0
  9 12  1  0
M  RAD  1   8   2
M  END
>  <reaction>  (7) 
rxn_3199

>  <mol_properties>  (7) 
{"0": {"label": "*3", "atom_type": "N3d"}, "1": {"label": "*4", "atom_type": "Cd"}, "7": {"label": "*1", "atom_type": "CO"}, "8": {"label": "*0", "atom_type": "Cs"}, "12": {"label": "*2", "atom_type": "H0"}}

>  <type>  (7) 
unop_3

>  <geom_source>  (7) 
Heuristics

$$$$

     RDKit          3D

 13 12  0  0  0  0  0  0  0  0999 V2000
    0.7617   -1.1645    0.5957 N   0  0  0  0  0  0  0  0  0  0  0  0
   -0.2325   -1.8774    0.3842 C   0  0  0  0  0  0  0  0  0  0  0  0
   -0.8462   -2.6378    1.3311 O   0  0  0  0  0  0  0  0  0  0  0  0
   -1.8973   -3.2772    0.7224 N   0  0  0  0  0  0  0  0  0  0  0  0
   -1.9555   -2.9713   -0.4597 N   0  0  0  0  0  0  0  0  0  0  0  0
   -0.9397   -2.0880   -0.7645 O   0  0  0  0  0  0  0  0  0  0  0  0
    0.7617    0.9425   -2.0130 O   0  0  0  0  0  0  0  0  0  0  0  0
    0.7617    0.9425   -0.8250 C   0  0  0  0  0  3  0  0  0  0  0  0
    0.7617    2.2400    0.0113 C   0  0  0  0  0  0  0  0  0  0  0  0
   -0.3200    2.2530    0.7983 F   0  0  0  0  0  0  0  0  0  0  0  0
    1.8433    2.2530    0.7983 F   0  0  0  0  0  0  0  0  0  0  0  0
    0.7616    3.3269   -0.7360 F   0  0  0  0  0  0  0  0  0  0  0  0
    0.7617   -0.1572   -0.0835 H   0  0  0  0  0  0  0  0  0  0  0  0
  1  2  2  3
  1 13  1  0
  2  3  1  0
  2  6  1  0
  3  4  1  0
  4  5  2  0
  5  6  1  0
  7  8  2  0
  8  9  1  0
  9 10  1  0
  9 11  1  0
  9 12  1  0
M  RAD  1   8   2
M  END
>  <reaction>  (8) 
rxn_3199

>  <mol_properties>  (8) 
{"0": {"label": "*3", "atom_type": "N3d"}, "1": {"label": "*4", "atom_type": "Cd"}, "7": {"label": "*1", "atom_type": "CO"}, "8": {"label": "*0", "atom_type": "Cs"}, "12": {"label": "*2", "atom_type": "H0"}}

>  <type>  (8) 
unop_4

>  <geom_source>  (8) 
Heuristics

$$$$

     RDKit          3D

 13 12  0  0  0  0  0  0  0  0999 V2000
    0.0000   -1.8852   -0.4797 N   0  0  0  0  0  0  0  0  0  0  0  0
   -0.0000   -1.6355    0.7364 C   0  0  0  0  0  0  0  0  0  0  0  0
    0.0000   -2.5824    1.7136 O   0  0  0  0  0  0  0  0  0  0  0  0
    0.0000   -1.9249    2.9185 N   0  0  0  0  0  0  0  0  0  0  0  0
    0.0000   -0.7149    2.7440 N   0  0  0  0  0  0  0  0  0  0  0  0
   -0.0000   -0.4378    1.3919 O   0  0  0  0  0  0  0  0  0  0  0  0
   -0.0000    0.2218   -3.0884 O   0  0  0  0  0  0  0  0  0  0  0  0
   -0.0000    0.2218   -1.9004 C   0  0  0  0  0  3  0  0  0  0  0  0
   -0.0000    1.5194   -1.0641 C   0  0  0  0  0  0  0  0  0  0  0  0
   -1.0816    1.5324   -0.2771 F   0  0  0  0  0  0  0  0  0  0  0  0
    1.0816    1.5324   -0.2771 F   0  0  0  0  0  0  0  0  0  0  0  0
   -0.0000    2.6062   -1.8114 F   0  0  0  0  0  0  0  0  0  0  0  0
   -0.0000   -0.8778   -1.1589 H   0  0  0  0  0  0  0  0  0  0  0  0
  1  2  2  3
  1 13  1  0
  2  3  1  0
  2  6  1  0
  3  4  1  0
  4  5  2  0
  5  6  1  0
  7  8  2  0
  8  9  1  0
  9 10  1  0
  9 11  1  0
  9 12  1  0
M  RAD  1   8   2
M  END
>  <reaction>  (9) 
rxn_3199

>  <mol_properties>  (9) 
{"0": {"label": "*3", "atom_type": "N3d"}, "1": {"label": "*4", "atom_type": "Cd"}, "7": {"label": "*1", "atom_type": "CO"}, "8": {"label": "*0", "atom_type": "Cs"}, "12": {"label": "*2", "atom_type": "H0"}}

>  <type>  (9) 
unop_5

>  <geom_source>  (9) 
Heuristics

$$$$

     RDKit          3D

 13 12  0  0  0  0  0  0  0  0999 V2000
    0.8726   -1.4124    0.2316 N   0  0  0  0  0  0  0  0  0  0  0  0
   -0.2753   -1.8044    0.4960 C   0  0  0  0  0  0  0  0  0  0  0  0
   -0.6645   -2.2724    1.7130 O   0  0  0  0  0  0  0  0  0  0  0  0
   -1.9924   -2.6062    1.6159 N   0  0  0  0  0  0  0  0  0  0  0  0
   -2.4065   -2.3839    0.4874 N   0  0  0  0  0  0  0  0  0  0  0  0
   -1.3879   -1.8741   -0.2921 O   0  0  0  0  0  0  0  0  0  0  0  0
    0.8726    0.6946   -2.3771 O   0  0  0  0  0  0  0  0  0  0  0  0
    0.8726    0.6946   -1.1891 C   0  0  0  0  0  3  0  0  0  0  0  0
    0.8726    1.9922   -0.3528 C   0  0  0  0  0  0  0  0  0  0  0  0
   -0.2091    2.0051    0.4343 F   0  0  0  0  0  0  0  0  0  0  0  0
    1.9542    2.0052    0.4342 F   0  0  0  0  0  0  0  0  0  0  0  0
    0.8726    3.0790   -1.1000 F   0  0  0  0  0  0  0  0  0  0  0  0
    0.8726   -0.4050   -0.4476 H   0  0  0  0  0  0  0  0  0  0  0  0
  1  2  2  3
  1 13  1  0
  2  3  1  0
  2  6  1  0
  3  4  1  0
  4  5  2  0
  5  6  1  0
  7  8  2  0
  8  9  1  0
  9 10  1  0
  9 11  1  0
  9 12  1  0
M  RAD  1   8   2
M  END
>  <reaction>  (10) 
rxn_3199

>  <mol_properties>  (10) 
{"0": {"label": "*3", "atom_type": "N3d"}, "1": {"label": "*4", "atom_type": "Cd"}, "7": {"label": "*1", "atom_type": "CO"}, "8": {"label": "*0", "atom_type": "Cs"}, "12": {"label": "*2", "atom_type": "H0"}}

>  <type>  (10) 
unop_6

>  <geom_source>  (10) 
Heuristics

$$$$

     RDKit          3D

 13 12  0  0  0  0  0  0  0  0999 V2000
    0.7475   -1.6555   -0.1285 N   0  0  0  0  0  0  0  0  0  0  0  0
   -0.2466   -1.7267    0.6118 C   0  0  0  0  0  0  0  0  0  0  0  0
   -0.2064   -2.1197    1.9139 O   0  0  0  0  0  0  0  0  0  0  0  0
   -1.4912   -2.0702    2.3945 N   0  0  0  0  0  0  0  0  0  0  0  0
   -2.2593   -1.6955    1.5204 N   0  0  0  0  0  0  0  0  0  0  0  0
   -1.5595   -1.4540    0.3555 O   0  0  0  0  0  0  0  0  0  0  0  0
    0.7475    0.4514   -2.7372 O   0  0  0  0  0  0  0  0  0  0  0  0
    0.7475    0.4514   -1.5492 C   0  0  0  0  0  3  0  0  0  0  0  0
    0.7475    1.7490   -0.7129 C   0  0  0  0  0  0  0  0  0  0  0  0
   -0.3341    1.7620    0.0742 F   0  0  0  0  0  0  0  0  0  0  0  0
    1.8292    1.7620    0.0741 F   0  0  0  0  0  0  0  0  0  0  0  0
    0.7475    2.8358   -1.4601 F   0  0  0  0  0  0  0  0  0  0  0  0
    0.7475   -0.6482   -0.8077 H   0  0  0  0  0  0  0  0  0  0  0  0
  1  2  2  3
  1 13  1  0
  2  3  1  0
  2  6  1  0
  3  4  1  0
  4  5  2  0
  5  6  1  0
  7  8  2  0
  8  9  1  0
  9 10  1  0
  9 11  1  0
  9 12  1  0
M  RAD  1   8   2
M  END
>  <reaction>  (11) 
rxn_3199

>  <mol_properties>  (11) 
{"0": {"label": "*3", "atom_type": "N3d"}, "1": {"label": "*4", "atom_type": "Cd"}, "7": {"label": "*1", "atom_type": "CO"}, "8": {"label": "*0", "atom_type": "Cs"}, "12": {"label": "*2", "atom_type": "H0"}}

>  <type>  (11) 
unop_7

>  <geom_source>  (11) 
Heuristics

$$$$

     RDKit          3D

 13 12  0  0  0  0  0  0  0  0999 V2000
   -0.8726   -1.4124    0.2316 N   0  0  0  0  0  0  0  0  0  0  0  0
    0.2753   -1.8044    0.4960 C   0  0  0  0  0  0  0  0  0  0  0  0
    0.6645   -2.2724    1.7130 O   0  0  0  0  0  0  0  0  0  0  0  0
    1.9924   -2.6062    1.6159 N   0  0  0  0  0  0  0  0  0  0  0  0
    2.4065   -2.3839    0.4874 N   0  0  0  0  0  0  0  0  0  0  0  0
    1.3879   -1.8741   -0.2921 O   0  0  0  0  0  0  0  0  0  0  0  0
   -0.8726    0.6946   -2.3771 O   0  0  0  0  0  0  0  0  0  0  0  0
   -0.8726    0.6946   -1.1891 C   0  0  0  0  0  3  0  0  0  0  0  0
   -0.8726    1.9922   -0.3528 C   0  0  0  0  0  0  0  0  0  0  0  0
   -1.9542    2.0051    0.4343 F   0  0  0  0  0  0  0  0  0  0  0  0
    0.2091    2.0052    0.4342 F   0  0  0  0  0  0  0  0  0  0  0  0
   -0.8726    3.0790   -1.1000 F   0  0  0  0  0  0  0  0  0  0  0  0
   -0.8726   -0.4050   -0.4476 H   0  0  0  0  0  0  0  0  0  0  0  0
  1  2  2  3
  1 13  1  0
  2  3  1  0
  2  6  1  0
  3  4  1  0
  4  5  2  0
  5  6  1  0
  7  8  2  0
  8  9  1  0
  9 10  1  0
  9 11  1  0
  9 12  1  0
M  RAD  1   8   2
M  END
>  <reaction>  (12) 
rxn_3199

>  <mol_properties>  (12) 
{"0": {"label": "*3", "atom_type": "N3d"}, "1": {"label": "*4", "atom_type": "Cd"}, "7": {"label": "*1", "atom_type": "CO"}, "8": {"label": "*0", "atom_type": "Cs"}, "12": {"label": "*2", "atom_type": "H0"}}

>  <type>  (12) 
unop_8

>  <geom_source>  (12) 
Heuristics

$$$$

     RDKit          3D

 13 12  0  0  0  0  0  0  0  0999 V2000
    0.4422   -0.9803    0.8645 N   0  0  0  0  0  0  0  0  0  0  0  0
   -0.1317   -1.9281    0.3046 C   0  0  0  0  0  0  0  0  0  0  0  0
   -0.6005   -3.0301    0.9506 O   0  0  0  0  0  0  0  0  0  0  0  0
   -1.1665   -3.8476    0.0042 N   0  0  0  0  0  0  0  0  0  0  0  0
   -1.0758   -3.3420   -1.1051 N   0  0  0  0  0  0  0  0  0  0  0  0
   -0.4340   -2.1236   -1.0123 O   0  0  0  0  0  0  0  0  0  0  0  0
    0.4422    1.1267   -1.7443 O   0  0  0  0  0  0  0  0  0  0  0  0
    0.4422    1.1267   -0.5562 C   0  0  0  0  0  3  0  0  0  0  0  0
    0.4422    2.4242    0.2800 C   0  0  0  0  0  0  0  0  0  0  0  0
   -0.6394    2.4372    1.0671 F   0  0  0  0  0  0  0  0  0  0  0  0
    1.5239    2.4373    1.0671 F   0  0  0  0  0  0  0  0  0  0  0  0
    0.4422    3.5111   -0.4672 F   0  0  0  0  0  0  0  0  0  0  0  0
    0.4422    0.0271    0.1853 H   0  0  0  0  0  0  0  0  0  0  0  0
  1  2  2  3
  1 13  1  0
  2  3  1  0
  2  6  1  0
  3  4  1  0
  4  5  2  0
  5  6  1  0
  7  8  2  0
  8  9  1  0
  9 10  1  0
  9 11  1  0
  9 12  1  0
M  RAD  1   8   2
M  END
>  <reaction>  (13) 
rxn_3199

>  <mol_properties>  (13) 
{"0": {"label": "*3", "atom_type": "N3d"}, "1": {"label": "*4", "atom_type": "Cd"}, "7": {"label": "*1", "atom_type": "CO"}, "8": {"label": "*0", "atom_type": "Cs"}, "12": {"label": "*2", "atom_type": "H0"}}

>  <type>  (13) 
unop_9

>  <geom_source>  (13) 
Heuristics

$$$$

     RDKit          3D

 13 12  0  0  0  0  0  0  0  0999 V2000
   -0.7617   -1.1645    0.5957 N   0  0  0  0  0  0  0  0  0  0  0  0
    0.2325   -1.8774    0.3842 C   0  0  0  0  0  0  0  0  0  0  0  0
    0.8462   -2.6378    1.3311 O   0  0  0  0  0  0  0  0  0  0  0  0
    1.8973   -3.2772    0.7224 N   0  0  0  0  0  0  0  0  0  0  0  0
    1.9555   -2.9713   -0.4597 N   0  0  0  0  0  0  0  0  0  0  0  0
    0.9397   -2.0880   -0.7645 O   0  0  0  0  0  0  0  0  0  0  0  0
   -0.7617    0.9425   -2.0130 O   0  0  0  0  0  0  0  0  0  0  0  0
   -0.7617    0.9425   -0.8250 C   0  0  0  0  0  3  0  0  0  0  0  0
   -0.7617    2.2400    0.0113 C   0  0  0  0  0  0  0  0  0  0  0  0
   -1.8433    2.2530    0.7983 F   0  0  0  0  0  0  0  0  0  0  0  0
    0.3200    2.2530    0.7983 F   0  0  0  0  0  0  0  0  0  0  0  0
   -0.7617    3.3269   -0.7360 F   0  0  0  0  0  0  0  0  0  0  0  0
   -0.7617   -0.1572   -0.0835 H   0  0  0  0  0  0  0  0  0  0  0  0
  1  2  2  3
  1 13  1  0
  2  3  1  0
  2  6  1  0
  3  4  1  0
  4  5  2  0
  5  6  1  0
  7  8  2  0
  8  9  1  0
  9 10  1  0
  9 11  1  0
  9 12  1  0
M  RAD  1   8   2
M  END
>  <reaction>  (14) 
rxn_3199

>  <mol_properties>  (14) 
{"0": {"label": "*3", "atom_type": "N3d"}, "1": {"label": "*4", "atom_type": "Cd"}, "7": {"label": "*1", "atom_type": "CO"}, "8": {"label": "*0", "atom_type": "Cs"}, "12": {"label": "*2", "atom_type": "H0"}}

>  <type>  (14) 
unop_10

>  <geom_source>  (14) 
Heuristics

$$$$

     RDKit          3D

 13 12  0  0  0  0  0  0  0  0999 V2000
    0.4246   -1.8271   -0.3875 N   0  0  0  0  0  0  0  0  0  0  0  0
   -0.1493   -1.6634    0.7011 C   0  0  0  0  0  0  0  0  0  0  0  0
    0.1963   -2.2993    1.8534 O   0  0  0  0  0  0  0  0  0  0  0  0
   -0.6607   -1.8628    2.8328 N   0  0  0  0  0  0  0  0  0  0  0  0
   -1.4542   -1.0532    2.3752 N   0  0  0  0  0  0  0  0  0  0  0  0
   -1.2061   -0.8643    1.0307 O   0  0  0  0  0  0  0  0  0  0  0  0
    0.4246    0.2798   -2.9962 O   0  0  0  0  0  0  0  0  0  0  0  0
    0.4246    0.2798   -1.8082 C   0  0  0  0  0  3  0  0  0  0  0  0
    0.4246    1.5774   -0.9719 C   0  0  0  0  0  0  0  0  0  0  0  0
   -0.6570    1.5904   -0.1849 F   0  0  0  0  0  0  0  0  0  0  0  0
    1.5063    1.5904   -0.1849 F   0  0  0  0  0  0  0  0  0  0  0  0
    0.4246    2.6642   -1.7192 F   0  0  0  0  0  0  0  0  0  0  0  0
    0.4246   -0.8198   -1.0667 H   0  0  0  0  0  0  0  0  0  0  0  0
  1  2  2  3
  1 13  1  0
  2  3  1  0
  2  6  1  0
  3  4  1  0
  4  5  2  0
  5  6  1  0
  7  8  2  0
  8  9  1  0
  9 10  1  0
  9 11  1  0
  9 12  1  0
M  RAD  1   8   2
M  END
>  <reaction>  (15) 
rxn_3199

>  <mol_properties>  (15) 
{"0": {"label": "*3", "atom_type": "N3d"}, "1": {"label": "*4", "atom_type": "Cd"}, "7": {"label": "*1", "atom_type": "CO"}, "8": {"label": "*0", "atom_type": "Cs"}, "12": {"label": "*2", "atom_type": "H0"}}

>  <type>  (15) 
unop_11

>  <geom_source>  (15) 
Heuristics

$$$$

     RDKit          3D

 13 12  0  0  0  0  0  0  0  0999 V2000
    0.0000   -0.9121    0.9634 N   0  0  0  0  0  0  0  0  0  0  0  0
    0.0000   -1.9459    0.2760 C   0  0  0  0  0  0  0  0  0  0  0  0
   -0.0000   -3.2068    0.7875 O   0  0  0  0  0  0  0  0  0  0  0  0
    0.0000   -4.0774   -0.2738 N   0  0  0  0  0  0  0  0  0  0  0  0
    0.0000   -3.4620   -1.3300 N   0  0  0  0  0  0  0  0  0  0  0  0
    0.0000   -2.1046   -1.0800 O   0  0  0  0  0  0  0  0  0  0  0  0
   -0.0000    1.1949   -1.6454 O   0  0  0  0  0  0  0  0  0  0  0  0
   -0.0000    1.1949   -0.4573 C   0  0  0  0  0  3  0  0  0  0  0  0
   -0.0000    2.4924    0.3789 C   0  0  0  0  0  0  0  0  0  0  0  0
   -1.0816    2.5054    1.1660 F   0  0  0  0  0  0  0  0  0  0  0  0
    1.0816    2.5054    1.1660 F   0  0  0  0  0  0  0  0  0  0  0  0
   -0.0000    3.5793   -0.3683 F   0  0  0  0  0  0  0  0  0  0  0  0
   -0.0000    0.0952    0.2842 H   0  0  0  0  0  0  0  0  0  0  0  0
  1  2  2  3
  1 13  1  0
  2  3  1  0
  2  6  1  0
  3  4  1  0
  4  5  2  0
  5  6  1  0
  7  8  2  0
  8  9  1  0
  9 10  1  0
  9 11  1  0
  9 12  1  0
M  RAD  1   8   2
M  END
>  <reaction>  (16) 
rxn_3199

>  <mol_properties>  (16) 
{"0": {"label": "*3", "atom_type": "N3d"}, "1": {"label": "*4", "atom_type": "Cd"}, "7": {"label": "*1", "atom_type": "CO"}, "8": {"label": "*0", "atom_type": "Cs"}, "12": {"label": "*2", "atom_type": "H0"}}

>  <type>  (16) 
unop_12

>  <geom_source>  (16) 
Heuristics

$$$$

     RDKit          3D

 13 12  0  0  0  0  0  0  0  0999 V2000
   -0.4422   -0.9803    0.8645 N   0  0  0  0  0  0  0  0  0  0  0  0
    0.1317   -1.9281    0.3046 C   0  0  0  0  0  0  0  0  0  0  0  0
    0.6005   -3.0301    0.9506 O   0  0  0  0  0  0  0  0  0  0  0  0
    1.1665   -3.8476    0.0042 N   0  0  0  0  0  0  0  0  0  0  0  0
    1.0758   -3.3420   -1.1051 N   0  0  0  0  0  0  0  0  0  0  0  0
    0.4340   -2.1236   -1.0123 O   0  0  0  0  0  0  0  0  0  0  0  0
   -0.4422    1.1267   -1.7443 O   0  0  0  0  0  0  0  0  0  0  0  0
   -0.4422    1.1267   -0.5562 C   0  0  0  0  0  3  0  0  0  0  0  0
   -0.4422    2.4242    0.2801 C   0  0  0  0  0  0  0  0  0  0  0  0
   -1.5238    2.4372    1.0671 F   0  0  0  0  0  0  0  0  0  0  0  0
    0.6394    2.4373    1.0671 F   0  0  0  0  0  0  0  0  0  0  0  0
   -0.4422    3.5111   -0.4672 F   0  0  0  0  0  0  0  0  0  0  0  0
   -0.4422    0.0271    0.1853 H   0  0  0  0  0  0  0  0  0  0  0  0
  1  2  2  3
  1 13  1  0
  2  3  1  0
  2  6  1  0
  3  4  1  0
  4  5  2  0
  5  6  1  0
  7  8  2  0
  8  9  1  0
  9 10  1  0
  9 11  1  0
  9 12  1  0
M  RAD  1   8   2
M  END
>  <reaction>  (17) 
rxn_3199

>  <mol_properties>  (17) 
{"0": {"label": "*3", "atom_type": "N3d"}, "1": {"label": "*4", "atom_type": "Cd"}, "7": {"label": "*1", "atom_type": "CO"}, "8": {"label": "*0", "atom_type": "Cs"}, "12": {"label": "*2", "atom_type": "H0"}}

>  <type>  (17) 
unop_13

>  <geom_source>  (17) 
gaussian_log

$$$$
