
     RDKit          3D

 16 15  0  0  0  0  0  0  0  0999 V2000
    1.7961   -0.3807    1.6176 C   0  0  0  0  0  0  0  0  0  0  0  0
    0.8562   -0.8708    0.8256 C   0  0  0  0  0  0  0  0  0  0  0  0
    0.0895   -0.0826   -0.2048 C   0  0  0  0  0  0  0  0  0  0  0  0
   -1.4061   -0.1111    0.0982 C   0  0  0  0  0  0  0  0  0  0  0  0
    0.4476   -0.5902   -1.5797 C   0  0  0  0  0  0  0  0  0  0  0  0
   -0.3793   -1.1113   -2.4728 C   0  0  0  0  0  0  0  0  0  0  0  0
    2.3110   -1.0032    2.3386 H   0  0  0  0  0  0  0  0  0  0  0  0
    2.0846    0.6643    1.5737 H   0  0  0  0  0  0  0  0  0  0  0  0
    0.5921   -1.9241    0.8925 H   0  0  0  0  0  0  0  0  0  0  0  0
    0.4358    0.9557   -0.1462 H   0  0  0  0  0  0  0  0  0  0  0  0
   -1.5968    0.3080    1.0865 H   0  0  0  0  0  0  0  0  0  0  0  0
   -1.9674    0.4693   -0.6359 H   0  0  0  0  0  0  0  0  0  0  0  0
   -1.7902   -1.1338    0.0883 H   0  0  0  0  0  0  0  0  0  0  0  0
    1.5049   -0.5197   -1.8214 H   0  0  0  0  0  0  0  0  0  0  0  0
   -1.4421   -1.2131   -2.2889 H   0  0  0  0  0  0  0  0  0  0  0  0
   -0.0162   -1.4558   -3.4328 H   0  0  0  0  0  0  0  0  0  0  0  0
  1  2  2  3
  1  7  1  0
  1  8  1  0
  2  3  1  0
  2  9  1  0
  3  4  1  0
  3  5  1  0
  3 10  1  0
  4 11  1  0
  4 12  1  0
  4 13  1  0
  5  6  2  3
  5 14  1  0
  6 15  1  0
  6 16  1  0
M  END
>  <reaction>  (1) 
rxn_1179

>  <mol_properties>  (1) 
{"2": {"label": "donator", "atom_type": "Cs"}, "9": {"label": "d_hydrogen", "atom_type": "H0"}}

>  <type>  (1) 
r1h

$$$$

     RDKit          3D

  9  8  0  0  0  0  0  0  0  0999 V2000
    2.3038   -0.0269    0.1590 C   0  0  0  0  0  0  0  0  0  0  0  0
    1.1426    0.1377   -0.1648 C   0  0  0  0  0  0  0  0  0  0  0  0
   -0.1694    0.3175   -0.5203 C   0  0  0  0  0  3  0  0  0  0  0  0
   -1.3163   -0.1910    0.2856 C   0  0  0  0  0  0  0  0  0  0  0  0
    3.3199   -0.1683    0.4378 H   0  0  0  0  0  0  0  0  0  0  0  0
   -0.3786    0.8584   -1.4360 H   0  0  0  0  0  0  0  0  0  0  0  0
   -1.9694    0.6309    0.5951 H   0  0  0  0  0  0  0  0  0  0  0  0
   -1.9325   -0.8770   -0.3039 H   0  0  0  0  0  0  0  0  0  0  0  0
   -0.9753   -0.7144    1.1774 H   0  0  0  0  0  0  0  0  0  0  0  0
  1  2  3  0
  1  5  1  0
  2  3  1  0
  3  4  1  0
  3  6  1  0
  4  7  1  0
  4  8  1  0
  4  9  1  0
M  RAD  1   3   2
M  END
>  <reaction>  (2) 
rxn_1179

>  <mol_properties>  (2) 
{"2": {"label": "acceptor", "atom_type": "Cs"}}

>  <type>  (2) 
r2

$$$$

     RDKit          3D

 10  9  0  0  0  0  0  0  0  0999 V2000
    2.2738    0.0217   -0.0992 C   0  0  0  0  0  0  0  0  0  0  0  0
    1.1083    0.2960   -0.0695 C   0  0  0  0  0  0  0  0  0  0  0  0
   -0.3173    0.6046   -0.0227 C   0  0  0  0  0  0  0  0  0  0  0  0
   -1.1561   -0.5495    0.5292 C   0  0  0  0  0  0  0  0  0  0  0  0
    3.3097   -0.2166   -0.1277 H   0  0  0  0  0  0  0  0  0  0  0  0
   -0.6542    0.8617   -1.0302 H   0  0  0  0  0  0  0  0  0  0  0  0
   -0.4633    1.4978    0.5900 H   0  0  0  0  0  0  0  0  0  0  0  0
   -0.8485   -0.7997    1.5447 H   0  0  0  0  0  0  0  0  0  0  0  0
   -2.2115   -0.2752    0.5459 H   0  0  0  0  0  0  0  0  0  0  0  0
   -1.0409   -1.4407   -0.0879 H   0  0  0  0  0  0  0  0  0  0  0  0
  1  2  3  0
  1  5  1  0
  2  3  1  0
  3  4  1  0
  3  6  1  0
  3  7  1  0
  4  8  1  0
  4  9  1  0
  4 10  1  0
M  END
>  <reaction>  (3) 
rxn_1179

>  <mol_properties>  (3) 
{"2": {"label": "acceptor", "atom_type": "Cs"}, "9": {"label": "a_hydrogen", "atom_type": "H0"}}

>  <type>  (3) 
r2h

$$$$

     RDKit          3D

 25 23  0  0  0  0  0  0  0  0999 V2000
    2.2992    1.7745   -1.4862 C   0  0  0  0  0  0  0  0  0  0  0  0
    1.1767    1.7808   -1.0458 C   0  0  0  0  0  0  0  0  0  0  0  0
   -0.1345    1.7199   -0.5255 C   0  0  0  0  0  3  0  0  0  0  0  0
   -1.2900    1.6496   -1.4900 C   0  0  0  0  0  0  0  0  0  0  0  0
    3.2873    1.7878   -1.8782 H   0  0  0  0  0  0  0  0  0  0  0  0
   -0.2985    2.3243    0.3643 H   0  0  0  0  0  0  0  0  0  0  0  0
   -2.2127    1.4105   -0.9586 H   0  0  0  0  0  0  0  0  0  0  0  0
   -1.4348    2.6024   -2.0062 H   0  0  0  0  0  0  0  0  0  0  0  0
   -1.1128    0.8821   -2.2448 H   0  0  0  0  0  0  0  0  0  0  0  0
    0.6425   -2.2182   -1.1998 C   0  0  0  0  0  0  0  0  0  0  0  0
   -0.3578   -1.6141   -0.5634 C   0  0  0  0  0  0  0  0  0  0  0  0
   -0.2503   -0.7379    0.6202 C   0  0  0  0  0  0  0  0  0  0  0  0
    1.0662   -0.7475    1.3620 C   0  0  0  0  0  0  0  0  0  0  0  0
   -1.4819   -0.6894    1.4356 C   0  0  0  0  0  0  0  0  0  0  0  0
   -1.5661   -0.4691    2.7448 C   0  0  0  0  0  0  0  0  0  0  0  0
    0.4558   -2.8157   -2.0825 H   0  0  0  0  0  0  0  0  0  0  0  0
    1.6699   -2.1471   -0.8663 H   0  0  0  0  0  0  0  0  0  0  0  0
   -1.3638   -1.7336   -0.9585 H   0  0  0  0  0  0  0  0  0  0  0  0
   -0.2206    0.4222    0.0842 H   0  0  0  0  0  0  0  0  0  0  0  0
    1.8959   -0.5721    0.6774 H   0  0  0  0  0  0  0  0  0  0  0  0
    1.0958    0.0439    2.1113 H   0  0  0  0  0  0  0  0  0  0  0  0
    1.2258   -1.7046    1.8650 H   0  0  0  0  0  0  0  0  0  0  0  0
   -2.4060   -0.8249    0.8783 H   0  0  0  0  0  0  0  0  0  0  0  0
   -0.6914   -0.3380    3.3694 H   0  0  0  0  0  0  0  0  0  0  0  0
   -2.5283   -0.4283    3.2383 H   0  0  0  0  0  0  0  0  0  0  0  0
  1  2  3  0
  1  5  1  0
  2  3  1  0
  3  4  1  0
  3  6  1  0
  4  7  1  0
  4  8  1  0
  4  9  1  0
 10 11  2  3
 10 16  1  0
 10 17  1  0
 11 12  1  0
 11 18  1  0
 12 13  1  0
 12 14  1  0
 12 19  1  0
 13 20  1  0
 13 21  1  0
 13 22  1  0
 14 15  2  3
 14 23  1  0
 15 24  1  0
 15 25  1  0
M  RAD  1   3   2
M  END
>  <reaction>  (4) 
rxn_1179

>  <mol_properties>  (4) 
{"1": {"label": "*4", "atom_type": "Ct"}, "2": {"label": "*3", "atom_type": "Cs"}, "10": {"label": "*0", "atom_type": "Cd"}, "11": {"label": "*1", "atom_type": "Cs"}, "18": {"label": "*2", "atom_type": "H0"}}

>  <type>  (4) 
ts

$$$$

     RDKit          3D

 25 23  0  0  0  0  0  0  0  0999 V2000
   -1.7854    2.7285   -0.7703 C   0  0  0  0  0  0  0  0  0  0  0  0
   -0.8201    2.0517   -0.9815 C   0  0  0  0  0  0  0  0  0  0  0  0
    0.3693    1.2394   -1.2170 C   0  0  0  0  0  0  0  0  0  0  0  0
    1.4938    1.5320   -0.2219 C   0  0  0  0  0  0  0  0  0  0  0  0
   -2.6424    3.3293   -0.5828 H   0  0  0  0  0  0  0  0  0  0  0  0
    0.7190    1.4164   -2.2372 H   0  0  0  0  0  0  0  0  0  0  0  0
    2.3597    0.9041   -0.4352 H   0  0  0  0  0  0  0  0  0  0  0  0
    1.8013    2.5761   -0.2822 H   0  0  0  0  0  0  0  0  0  0  0  0
    1.1674    1.3343    0.7992 H   0  0  0  0  0  0  0  0  0  0  0  0
    0.2962   -2.0770   -1.8143 C   0  0  0  0  0  0  0  0  0  0  0  0
    0.2962   -2.0770   -0.4911 C   0  0  0  0  0  0  0  0  0  0  0  0
    0.2962   -0.8462    0.3783 C   0  0  0  0  0  3  0  0  0  0  0  0
    1.5346   -0.8164    1.2699 C   0  0  0  0  0  0  0  0  0  0  0  0
   -1.0073   -0.7776    1.1348 C   0  0  0  0  0  0  0  0  0  0  0  0
   -1.1619   -0.7774    2.4498 C   0  0  0  0  0  0  0  0  0  0  0  0
    0.2955   -2.9996   -2.3810 H   0  0  0  0  0  0  0  0  0  0  0  0
    0.2980   -1.1512   -2.3800 H   0  0  0  0  0  0  0  0  0  0  0  0
    0.2915   -3.0228    0.0465 H   0  0  0  0  0  0  0  0  0  0  0  0
    0.3328    0.1981   -0.4205 H   0  0  0  0  0  0  0  0  0  0  0  0
    2.4373   -0.8248    0.6587 H   0  0  0  0  0  0  0  0  0  0  0  0
    1.5493    0.0793    1.8930 H   0  0  0  0  0  0  0  0  0  0  0  0
    1.5672   -1.6882    1.9275 H   0  0  0  0  0  0  0  0  0  0  0  0
   -1.8905   -0.7419    0.5023 H   0  0  0  0  0  0  0  0  0  0  0  0
   -0.3216   -0.8167    3.1323 H   0  0  0  0  0  0  0  0  0  0  0  0
   -2.1483   -0.7343    2.8940 H   0  0  0  0  0  0  0  0  0  0  0  0
  1  2  3  0
  1  5  1  0
  2  3  1  0
  3  4  1  0
  3  6  1  0
  3 19  1  0
  4  7  1  0
  4  8  1  0
  4  9  1  0
 10 11  2  3
 10 16  1  0
 10 17  1  0
 11 12  1  0
 11 18  1  0
 12 13  1  0
 12 14  1  0
 13 20  1  0
 13 21  1  0
 13 22  1  0
 14 15  2  3
 14 23  1  0
 15 24  1  0
 15 25  1  0
M  RAD  1  12   2
M  END
>  <reaction>  (5) 
rxn_1179

>  <mol_properties>  (5) 
{"1": {"label": "*4", "atom_type": "Ct"}, "2": {"label": "*3", "atom_type": "Cs"}, "10": {"label": "*0", "atom_type": "Cd"}, "11": {"label": "*1", "atom_type": "Cs"}, "18": {"label": "*2", "atom_type": "H0"}}

>  <type>  (5) 
unop_1

>  <geom_source>  (5) 
Heuristics

$$$$

     RDKit          3D

 25 23  0  0  0  0  0  0  0  0999 V2000
   -0.7748    0.8656   -3.0824 C   0  0  0  0  0  0  0  0  0  0  0  0
   -0.2088    1.1351   -2.0619 C   0  0  0  0  0  0  0  0  0  0  0  0
    0.4585    1.4786   -0.8103 C   0  0  0  0  0  0  0  0  0  0  0  0
   -0.3976    2.3676    0.0936 C   0  0  0  0  0  0  0  0  0  0  0  0
   -1.2774    0.6263   -3.9884 H   0  0  0  0  0  0  0  0  0  0  0  0
    1.4015    1.9803   -1.0413 H   0  0  0  0  0  0  0  0  0  0  0  0
    0.1392    2.5984    1.0145 H   0  0  0  0  0  0  0  0  0  0  0  0
   -0.6434    3.3045   -0.4066 H   0  0  0  0  0  0  0  0  0  0  0  0
   -1.3312    1.8687    0.3542 H   0  0  0  0  0  0  0  0  0  0  0  0
    0.3854   -1.8378   -1.4076 C   0  0  0  0  0  0  0  0  0  0  0  0
    0.3854   -1.8378   -0.0844 C   0  0  0  0  0  0  0  0  0  0  0  0
    0.3854   -0.6070    0.7850 C   0  0  0  0  0  3  0  0  0  0  0  0
    1.6238   -0.5772    1.6766 C   0  0  0  0  0  0  0  0  0  0  0  0
   -0.9181   -0.5385    1.5416 C   0  0  0  0  0  0  0  0  0  0  0  0
   -1.0727   -0.5382    2.8565 C   0  0  0  0  0  0  0  0  0  0  0  0
    0.3847   -2.7604   -1.9743 H   0  0  0  0  0  0  0  0  0  0  0  0
    0.3872   -0.9120   -1.9733 H   0  0  0  0  0  0  0  0  0  0  0  0
    0.3807   -2.7836    0.4533 H   0  0  0  0  0  0  0  0  0  0  0  0
    0.4220    0.4373   -0.0138 H   0  0  0  0  0  0  0  0  0  0  0  0
    2.5265   -0.5856    1.0654 H   0  0  0  0  0  0  0  0  0  0  0  0
    1.6385    0.3185    2.2998 H   0  0  0  0  0  0  0  0  0  0  0  0
    1.6564   -1.4490    2.3343 H   0  0  0  0  0  0  0  0  0  0  0  0
   -1.8013   -0.5027    0.9090 H   0  0  0  0  0  0  0  0  0  0  0  0
   -0.2324   -0.5775    3.5390 H   0  0  0  0  0  0  0  0  0  0  0  0
   -2.0591   -0.4951    3.3007 H   0  0  0  0  0  0  0  0  0  0  0  0
  1  2  3  0
  1  5  1  0
  2  3  1  0
  3  4  1  0
  3  6  1  0
  3 19  1  0
  4  7  1  0
  4  8  1  0
  4  9  1  0
 10 11  2  3
 10 16  1  0
 10 17  1  0
 11 12  1  0
 11 18  1  0
 12 13  1  0
 12 14  1  0
 13 20  1  0
 13 21  1  0
 13 22  1  0
 14 15  2  3
 14 23  1  0
 15 24  1  0
 15 25  1  0
M  RAD  1  12   2
M  END
>  <reaction>  (6) 
rxn_1179

>  <mol_properties>  (6) 
{"1": {"label": "*4", "atom_type": "Ct"}, "2": {"label": "*3", "atom_type": "Cs"}, "10": {"label": "*0", "atom_type": "Cd"}, "11": {"label": "*1", "atom_type": "Cs"}, "18": {"label": "*2", "atom_type": "H0"}}

>  <type>  (6) 
unop_2

>  <geom_source>  (6) 
Heuristics

$$$$

     RDKit          3D

 25 23  0  0  0  0  0  0  0  0999 V2000
   -1.0403    3.2225   -0.0476 C   0  0  0  0  0  0  0  0  0  0  0  0
   -0.4960    2.3029   -0.5884 C   0  0  0  0  0  0  0  0  0  0  0  0
    0.1921    1.1916   -1.2377 C   0  0  0  0  0  0  0  0  0  0  0  0
    1.7044    1.2152   -1.0083 C   0  0  0  0  0  0  0  0  0  0  0  0
   -1.5236    4.0389    0.4326 H   0  0  0  0  0  0  0  0  0  0  0  0
   -0.0229    1.2232   -2.3088 H   0  0  0  0  0  0  0  0  0  0  0  0
    2.1758    0.3693   -1.5099 H   0  0  0  0  0  0  0  0  0  0  0  0
    2.1403    2.1348   -1.3991 H   0  0  0  0  0  0  0  0  0  0  0  0
    1.9349    1.1576    0.0557 H   0  0  0  0  0  0  0  0  0  0  0  0
    0.1190   -2.1248   -1.8350 C   0  0  0  0  0  0  0  0  0  0  0  0
    0.1190   -2.1248   -0.5118 C   0  0  0  0  0  0  0  0  0  0  0  0
    0.1190   -0.8940    0.3576 C   0  0  0  0  0  3  0  0  0  0  0  0
    1.3574   -0.8642    1.2492 C   0  0  0  0  0  0  0  0  0  0  0  0
   -1.1845   -0.8255    1.1141 C   0  0  0  0  0  0  0  0  0  0  0  0
   -1.3391   -0.8252    2.4291 C   0  0  0  0  0  0  0  0  0  0  0  0
    0.1183   -3.0474   -2.4017 H   0  0  0  0  0  0  0  0  0  0  0  0
    0.1208   -1.1990   -2.4007 H   0  0  0  0  0  0  0  0  0  0  0  0
    0.1143   -3.0706    0.0258 H   0  0  0  0  0  0  0  0  0  0  0  0
    0.1556    0.1503   -0.4412 H   0  0  0  0  0  0  0  0  0  0  0  0
    2.2602   -0.8726    0.6380 H   0  0  0  0  0  0  0  0  0  0  0  0
    1.3721    0.0315    1.8723 H   0  0  0  0  0  0  0  0  0  0  0  0
    1.3900   -1.7360    1.9068 H   0  0  0  0  0  0  0  0  0  0  0  0
   -2.0676   -0.7897    0.4816 H   0  0  0  0  0  0  0  0  0  0  0  0
   -0.4987   -0.8645    3.1116 H   0  0  0  0  0  0  0  0  0  0  0  0
   -2.3255   -0.7821    2.8733 H   0  0  0  0  0  0  0  0  0  0  0  0
  1  2  3  0
  1  5  1  0
  2  3  1  0
  3  4  1  0
  3  6  1  0
  3 19  1  0
  4  7  1  0
  4  8  1  0
  4  9  1  0
 10 11  2  3
 10 16  1  0
 10 17  1  0
 11 12  1  0
 11 18  1  0
 12 13  1  0
 12 14  1  0
 13 20  1  0
 13 21  1  0
 13 22  1  0
 14 15  2  3
 14 23  1  0
 15 24  1  0
 15 25  1  0
M  RAD  1  12   2
M  END
>  <reaction>  (7) 
rxn_1179

>  <mol_properties>  (7) 
{"1": {"label": "*4", "atom_type": "Ct"}, "2": {"label": "*3", "atom_type": "Cs"}, "10": {"label": "*0", "atom_type": "Cd"}, "11": {"label": "*1", "atom_type": "Cs"}, "18": {"label": "*2", "atom_type": "H0"}}

>  <type>  (7) 
unop_3

>  <geom_source>  (7) 
Heuristics

$$$$

     RDKit          3D

 25 23  0  0  0  0  0  0  0  0999 V2000
    2.1887    1.3054   -2.2340 C   0  0  0  0  0  0  0  0  0  0  0  0
    1.2017    1.3486   -1.5570 C   0  0  0  0  0  0  0  0  0  0  0  0
   -0.0137    1.4164   -0.7520 C   0  0  0  0  0  0  0  0  0  0  0  0
   -1.1334    2.2048   -1.4339 C   0  0  0  0  0  0  0  0  0  0  0  0
    3.0650    1.2671   -2.8351 H   0  0  0  0  0  0  0  0  0  0  0  0
    0.2285    1.8709    0.2120 H   0  0  0  0  0  0  0  0  0  0  0  0
   -2.0193    2.2294   -0.7983 H   0  0  0  0  0  0  0  0  0  0  0  0
   -0.8202    3.2306   -1.6291 H   0  0  0  0  0  0  0  0  0  0  0  0
   -1.4040    1.7473   -2.3856 H   0  0  0  0  0  0  0  0  0  0  0  0
   -0.0868   -1.9000   -1.3493 C   0  0  0  0  0  0  0  0  0  0  0  0
   -0.0868   -1.9000   -0.0261 C   0  0  0  0  0  0  0  0  0  0  0  0
   -0.0868   -0.6692    0.8433 C   0  0  0  0  0  3  0  0  0  0  0  0
    1.1515   -0.6395    1.7349 C   0  0  0  0  0  0  0  0  0  0  0  0
   -1.3904   -0.6007    1.5999 C   0  0  0  0  0  0  0  0  0  0  0  0
   -1.5450   -0.6004    2.9148 C   0  0  0  0  0  0  0  0  0  0  0  0
   -0.0876   -2.8226   -1.9160 H   0  0  0  0  0  0  0  0  0  0  0  0
   -0.0851   -0.9742   -1.9150 H   0  0  0  0  0  0  0  0  0  0  0  0
   -0.0916   -2.8458    0.5116 H   0  0  0  0  0  0  0  0  0  0  0  0
   -0.0502    0.3751    0.0445 H   0  0  0  0  0  0  0  0  0  0  0  0
    2.0543   -0.6478    1.1237 H   0  0  0  0  0  0  0  0  0  0  0  0
    1.1662    0.2563    2.3580 H   0  0  0  0  0  0  0  0  0  0  0  0
    1.1841   -1.5112    2.3926 H   0  0  0  0  0  0  0  0  0  0  0  0
   -2.2735   -0.5649    0.9673 H   0  0  0  0  0  0  0  0  0  0  0  0
   -0.7046   -0.6398    3.5973 H   0  0  0  0  0  0  0  0  0  0  0  0
   -2.5314   -0.5573    3.3590 H   0  0  0  0  0  0  0  0  0  0  0  0
  1  2  3  0
  1  5  1  0
  2  3  1  0
  3  4  1  0
  3  6  1  0
  3 19  1  0
  4  7  1  0
  4  8  1  0
  4  9  1  0
 10 11  2  3
 10 16  1  0
 10 17  1  0
 11 12  1  0
 11 18  1  0
 12 13  1  0
 12 14  1  0
 13 20  1  0
 13 21  1  0
 13 22  1  0
 14 15  2  3
 14 23  1  0
 15 24  1  0
 15 25  1  0
M  RAD  1  12   2
M  END
>  <reaction>  (8) 
rxn_1179

>  <mol_properties>  (8) 
{"1": {"label": "*4", "atom_type": "Ct"}, "2": {"label": "*3", "atom_type": "Cs"}, "10": {"label": "*0", "atom_type": "Cd"}, "11": {"label": "*1", "atom_type": "Cs"}, "18": {"label": "*2", "atom_type": "H0"}}

>  <type>  (8) 
unop_4

>  <geom_source>  (8) 
Heuristics

$$$$

     RDKit          3D

 25 23  0  0  0  0  0  0  0  0999 V2000
    0.0684    3.3920    0.3213 C   0  0  0  0  0  0  0  0  0  0  0  0
    0.0476    2.3909   -0.3358 C   0  0  0  0  0  0  0  0  0  0  0  0
    0.0466    1.1787   -1.1485 C   0  0  0  0  0  0  0  0  0  0  0  0
    1.2604    1.0848   -2.0748 C   0  0  0  0  0  0  0  0  0  0  0  0
    0.0868    4.2808    0.9047 H   0  0  0  0  0  0  0  0  0  0  0  0
   -0.8741    1.1512   -1.7368 H   0  0  0  0  0  0  0  0  0  0  0  0
    1.2180    0.1661   -2.6611 H   0  0  0  0  0  0  0  0  0  0  0  0
    1.2893    1.9312   -2.7611 H   0  0  0  0  0  0  0  0  0  0  0  0
    2.1864    1.0845   -1.4995 H   0  0  0  0  0  0  0  0  0  0  0  0
   -0.0265   -2.1377   -1.7459 C   0  0  0  0  0  0  0  0  0  0  0  0
   -0.0265   -2.1377   -0.4226 C   0  0  0  0  0  0  0  0  0  0  0  0
   -0.0265   -0.9069    0.4468 C   0  0  0  0  0  3  0  0  0  0  0  0
    1.2118   -0.8771    1.3384 C   0  0  0  0  0  0  0  0  0  0  0  0
   -1.3301   -0.8384    1.2033 C   0  0  0  0  0  0  0  0  0  0  0  0
   -1.4847   -0.8381    2.5182 C   0  0  0  0  0  0  0  0  0  0  0  0
   -0.0273   -3.0603   -2.3126 H   0  0  0  0  0  0  0  0  0  0  0  0
   -0.0248   -1.2119   -2.3116 H   0  0  0  0  0  0  0  0  0  0  0  0
   -0.0313   -3.0835    0.1150 H   0  0  0  0  0  0  0  0  0  0  0  0
    0.0101    0.1374   -0.3520 H   0  0  0  0  0  0  0  0  0  0  0  0
    2.1146   -0.8855    0.7271 H   0  0  0  0  0  0  0  0  0  0  0  0
    1.2265    0.0186    1.9615 H   0  0  0  0  0  0  0  0  0  0  0  0
    1.2444   -1.7489    1.9960 H   0  0  0  0  0  0  0  0  0  0  0  0
   -2.2132   -0.8026    0.5708 H   0  0  0  0  0  0  0  0  0  0  0  0
   -0.6443   -0.8774    3.2008 H   0  0  0  0  0  0  0  0  0  0  0  0
   -2.4711   -0.7950    2.9625 H   0  0  0  0  0  0  0  0  0  0  0  0
  1  2  3  0
  1  5  1  0
  2  3  1  0
  3  4  1  0
  3  6  1  0
  3 19  1  0
  4  7  1  0
  4  8  1  0
  4  9  1  0
 10 11  2  3
 10 16  1  0
 10 17  1  0
 11 12  1  0
 11 18  1  0
 12 13  1  0
 12 14  1  0
 13 20  1  0
 13 21  1  0
 13 22  1  0
 14 15  2  3
 14 23  1  0
 15 24  1  0
 15 25  1  0
M  RAD  1  12   2
M  END
>  <reaction>  (9) 
rxn_1179

>  <mol_properties>  (9) 
{"1": {"label": "*4", "atom_type": "Ct"}, "2": {"label": "*3", "atom_type": "Cs"}, "10": {"label": "*0", "atom_type": "Cd"}, "11": {"label": "*1", "atom_type": "Cs"}, "18": {"label": "*2", "atom_type": "H0"}}

>  <type>  (9) 
unop_5

>  <geom_source>  (9) 
Heuristics

$$$$

     RDKit          3D

 25 23  0  0  0  0  0  0  0  0999 V2000
    2.4547    1.9754   -1.3367 C   0  0  0  0  0  0  0  0  0  0  0  0
    1.3168    1.6770   -1.1113 C   0  0  0  0  0  0  0  0  0  0  0  0
   -0.0777    1.3280   -0.8595 C   0  0  0  0  0  0  0  0  0  0  0  0
   -1.0335    1.9184   -1.8978 C   0  0  0  0  0  0  0  0  0  0  0  0
    3.4648    2.2403   -1.5367 H   0  0  0  0  0  0  0  0  0  0  0  0
   -0.3517    1.6759    0.1397 H   0  0  0  0  0  0  0  0  0  0  0  0
   -2.0613    1.6327   -1.6706 H   0  0  0  0  0  0  0  0  0  0  0  0
   -0.9716    3.0067   -1.9055 H   0  0  0  0  0  0  0  0  0  0  0  0
   -0.7883    1.5589   -2.8973 H   0  0  0  0  0  0  0  0  0  0  0  0
   -0.1508   -1.9884   -1.4568 C   0  0  0  0  0  0  0  0  0  0  0  0
   -0.1508   -1.9884   -0.1335 C   0  0  0  0  0  0  0  0  0  0  0  0
   -0.1508   -0.7576    0.7359 C   0  0  0  0  0  3  0  0  0  0  0  0
    1.0876   -0.7278    1.6275 C   0  0  0  0  0  0  0  0  0  0  0  0
   -1.4543   -0.6890    1.4924 C   0  0  0  0  0  0  0  0  0  0  0  0
   -1.6089   -0.6888    2.8073 C   0  0  0  0  0  0  0  0  0  0  0  0
   -0.1515   -2.9110   -2.0235 H   0  0  0  0  0  0  0  0  0  0  0  0
   -0.1490   -1.0626   -2.0225 H   0  0  0  0  0  0  0  0  0  0  0  0
   -0.1555   -2.9342    0.4041 H   0  0  0  0  0  0  0  0  0  0  0  0
   -0.1142    0.2867   -0.0630 H   0  0  0  0  0  0  0  0  0  0  0  0
    1.9904   -0.7362    1.0162 H   0  0  0  0  0  0  0  0  0  0  0  0
    1.1023    0.1679    2.2506 H   0  0  0  0  0  0  0  0  0  0  0  0
    1.1202   -1.5996    2.2851 H   0  0  0  0  0  0  0  0  0  0  0  0
   -2.3375   -0.6533    0.8598 H   0  0  0  0  0  0  0  0  0  0  0  0
   -0.7686   -0.7281    3.4898 H   0  0  0  0  0  0  0  0  0  0  0  0
   -2.5953   -0.6457    3.2515 H   0  0  0  0  0  0  0  0  0  0  0  0
  1  2  3  0
  1  5  1  0
  2  3  1  0
  3  4  1  0
  3  6  1  0
  3 19  1  0
  4  7  1  0
  4  8  1  0
  4  9  1  0
 10 11  2  3
 10 16  1  0
 10 17  1  0
 11 12  1  0
 11 18  1  0
 12 13  1  0
 12 14  1  0
 13 20  1  0
 13 21  1  0
 13 22  1  0
 14 15  2  3
 14 23  1  0
 15 24  1  0
 15 25  1  0
M  RAD  1  12   2
M  END
>  <reaction>  (10) 
rxn_1179

>  <mol_properties>  (10) 
{"1": {"label": "*4", "atom_type": "Ct"}, "2": {"label": "*3", "atom_type": "Cs"}, "10": {"label": "*0", "atom_type": "Cd"}, "11": {"label": "*1", "atom_type": "Cs"}, "18": {"label": "*2", "atom_type": "H0"}}

>  <type>  (10) 
unop_6

>  <geom_source>  (10) 
Heuristics

$$$$

     RDKit          3D

 25 23  0  0  0  0  0  0  0  0999 V2000
    2.1232    2.6631   -0.4530 C   0  0  0  0  0  0  0  0  0  0  0  0
    1.1374    2.0192   -0.6724 C   0  0  0  0  0  0  0  0  0  0  0  0
   -0.0661    1.2471   -0.9649 C   0  0  0  0  0  0  0  0  0  0  0  0
   -0.6548    1.5651   -2.3406 C   0  0  0  0  0  0  0  0  0  0  0  0
    2.9984    3.2347   -0.2583 H   0  0  0  0  0  0  0  0  0  0  0  0
   -0.8079    1.4451   -0.1872 H   0  0  0  0  0  0  0  0  0  0  0  0
   -1.5498    0.9670   -2.5158 H   0  0  0  0  0  0  0  0  0  0  0  0
   -0.9247    2.6189   -2.4113 H   0  0  0  0  0  0  0  0  0  0  0  0
    0.0657    1.3472   -3.1291 H   0  0  0  0  0  0  0  0  0  0  0  0
   -0.1391   -2.0693   -1.5622 C   0  0  0  0  0  0  0  0  0  0  0  0
   -0.1391   -2.0693   -0.2390 C   0  0  0  0  0  0  0  0  0  0  0  0
   -0.1391   -0.8385    0.6304 C   0  0  0  0  0  3  0  0  0  0  0  0
    1.0992   -0.8087    1.5220 C   0  0  0  0  0  0  0  0  0  0  0  0
   -1.4427   -0.7699    1.3869 C   0  0  0  0  0  0  0  0  0  0  0  0
   -1.5973   -0.7697    2.7019 C   0  0  0  0  0  0  0  0  0  0  0  0
   -0.1399   -2.9919   -2.1289 H   0  0  0  0  0  0  0  0  0  0  0  0
   -0.1374   -1.1435   -2.1279 H   0  0  0  0  0  0  0  0  0  0  0  0
   -0.1439   -3.0151    0.2986 H   0  0  0  0  0  0  0  0  0  0  0  0
   -0.1026    0.2058   -0.1684 H   0  0  0  0  0  0  0  0  0  0  0  0
    2.0020   -0.8171    0.9108 H   0  0  0  0  0  0  0  0  0  0  0  0
    1.1139    0.0870    2.1451 H   0  0  0  0  0  0  0  0  0  0  0  0
    1.1318   -1.6805    2.1796 H   0  0  0  0  0  0  0  0  0  0  0  0
   -2.3258   -0.7342    0.7544 H   0  0  0  0  0  0  0  0  0  0  0  0
   -0.7569   -0.8090    3.3844 H   0  0  0  0  0  0  0  0  0  0  0  0
   -2.5837   -0.7266    3.1461 H   0  0  0  0  0  0  0  0  0  0  0  0
  1  2  3  0
  1  5  1  0
  2  3  1  0
  3  4  1  0
  3  6  1  0
  3 19  1  0
  4  7  1  0
  4  8  1  0
  4  9  1  0
 10 11  2  3
 10 16  1  0
 10 17  1  0
 11 12  1  0
 11 18  1  0
 12 13  1  0
 12 14  1  0
 13 20  1  0
 13 21  1  0
 13 22  1  0
 14 15  2  3
 14 23  1  0
 15 24  1  0
 15 25  1  0
M  RAD  1  12   2
M  END
>  <reaction>  (11) 
rxn_1179

>  <mol_properties>  (11) 
{"1": {"label": "*4", "atom_type": "Ct"}, "2": {"label": "*3", "atom_type": "Cs"}, "10": {"label": "*0", "atom_type": "Cd"}, "11": {"label": "*1", "atom_type": "Cs"}, "18": {"label": "*2", "atom_type": "H0"}}

>  <type>  (11) 
unop_7

>  <geom_source>  (11) 
Heuristics

$$$$

     RDKit          3D

 25 23  0  0  0  0  0  0  0  0999 V2000
   -2.0015    2.0501   -1.6677 C   0  0  0  0  0  0  0  0  0  0  0  0
   -0.8776    1.7136   -1.4269 C   0  0  0  0  0  0  0  0  0  0  0  0
    0.4909    1.3181   -1.1092 C   0  0  0  0  0  0  0  0  0  0  0  0
    0.9783    1.8875    0.2243 C   0  0  0  0  0  0  0  0  0  0  0  0
   -2.9993    2.3488   -1.8815 H   0  0  0  0  0  0  0  0  0  0  0  0
    1.1482    1.6476   -1.9178 H   0  0  0  0  0  0  0  0  0  0  0  0
    2.0023    1.5672    0.4202 H   0  0  0  0  0  0  0  0  0  0  0  0
    0.9542    2.9773    0.2112 H   0  0  0  0  0  0  0  0  0  0  0  0
    0.3469    1.5455    1.0445 H   0  0  0  0  0  0  0  0  0  0  0  0
    0.4178   -1.9983   -1.7065 C   0  0  0  0  0  0  0  0  0  0  0  0
    0.4178   -1.9983   -0.3833 C   0  0  0  0  0  0  0  0  0  0  0  0
    0.4178   -0.7675    0.4861 C   0  0  0  0  0  3  0  0  0  0  0  0
    1.6561   -0.7378    1.3777 C   0  0  0  0  0  0  0  0  0  0  0  0
   -0.8857   -0.6990    1.2426 C   0  0  0  0  0  0  0  0  0  0  0  0
   -1.0404   -0.6987    2.5575 C   0  0  0  0  0  0  0  0  0  0  0  0
    0.4170   -2.9209   -2.2733 H   0  0  0  0  0  0  0  0  0  0  0  0
    0.4195   -1.0725   -2.2723 H   0  0  0  0  0  0  0  0  0  0  0  0
    0.4130   -2.9441    0.1543 H   0  0  0  0  0  0  0  0  0  0  0  0
    0.4544    0.2768   -0.3127 H   0  0  0  0  0  0  0  0  0  0  0  0
    2.5589   -0.7461    0.7664 H   0  0  0  0  0  0  0  0  0  0  0  0
    1.6708    0.1580    2.0008 H   0  0  0  0  0  0  0  0  0  0  0  0
    1.6887   -1.6095    2.0353 H   0  0  0  0  0  0  0  0  0  0  0  0
   -1.7689   -0.6632    0.6101 H   0  0  0  0  0  0  0  0  0  0  0  0
   -0.2000   -0.7381    3.2401 H   0  0  0  0  0  0  0  0  0  0  0  0
   -2.0268   -0.6556    3.0018 H   0  0  0  0  0  0  0  0  0  0  0  0
  1  2  3  0
  1  5  1  0
  2  3  1  0
  3  4  1  0
  3  6  1  0
  3 19  1  0
  4  7  1  0
  4  8  1  0
  4  9  1  0
 10 11  2  3
 10 16  1  0
 10 17  1  0
 11 12  1  0
 11 18  1  0
 12 13  1  0
 12 14  1  0
 13 20  1  0
 13 21  1  0
 13 22  1  0
 14 15  2  3
 14 23  1  0
 15 24  1  0
 15 25  1  0
M  RAD  1  12   2
M  END
>  <reaction>  (12) 
rxn_1179

>  <mol_properties>  (12) 
{"1": {"label": "*4", "atom_type": "Ct"}, "2": {"label": "*3", "atom_type": "Cs"}, "10": {"label": "*0", "atom_type": "Cd"}, "11": {"label": "*1", "atom_type": "Cs"}, "18": {"label": "*2", "atom_type": "H0"}}

>  <type>  (12) 
unop_8

>  <geom_source>  (12) 
Heuristics

$$$$

     RDKit          3D

 25 23  0  0  0  0  0  0  0  0999 V2000
    1.4143    0.8289   -2.9182 C   0  0  0  0  0  0  0  0  0  0  0  0
    0.8435    1.1176   -1.9057 C   0  0  0  0  0  0  0  0  0  0  0  0
    0.1293    1.4843   -0.6869 C   0  0  0  0  0  0  0  0  0  0  0  0
   -1.0830    2.3776   -0.9561 C   0  0  0  0  0  0  0  0  0  0  0  0
    1.9211    0.5726   -3.8172 H   0  0  0  0  0  0  0  0  0  0  0  0
    0.8236    1.9916   -0.0123 H   0  0  0  0  0  0  0  0  0  0  0  0
   -1.5846    2.6259   -0.0200 H   0  0  0  0  0  0  0  0  0  0  0  0
   -0.7794    3.3053   -1.4415 H   0  0  0  0  0  0  0  0  0  0  0  0
   -1.7975    1.8737   -1.6072 H   0  0  0  0  0  0  0  0  0  0  0  0
    0.0562   -1.8321   -1.2842 C   0  0  0  0  0  0  0  0  0  0  0  0
    0.0562   -1.8321    0.0390 C   0  0  0  0  0  0  0  0  0  0  0  0
    0.0562   -0.6013    0.9084 C   0  0  0  0  0  3  0  0  0  0  0  0
    1.2946   -0.5715    1.8000 C   0  0  0  0  0  0  0  0  0  0  0  0
   -1.2473   -0.5327    1.6649 C   0  0  0  0  0  0  0  0  0  0  0  0
   -1.4019   -0.5325    2.9798 C   0  0  0  0  0  0  0  0  0  0  0  0
    0.0555   -2.7547   -1.8510 H   0  0  0  0  0  0  0  0  0  0  0  0
    0.0580   -0.9063   -1.8500 H   0  0  0  0  0  0  0  0  0  0  0  0
    0.0515   -2.7779    0.5766 H   0  0  0  0  0  0  0  0  0  0  0  0
    0.0928    0.4430    0.1096 H   0  0  0  0  0  0  0  0  0  0  0  0
    2.1974   -0.5799    1.1887 H   0  0  0  0  0  0  0  0  0  0  0  0
    1.3093    0.3242    2.4231 H   0  0  0  0  0  0  0  0  0  0  0  0
    1.3272   -1.4433    2.4576 H   0  0  0  0  0  0  0  0  0  0  0  0
   -2.1305   -0.4970    1.0324 H   0  0  0  0  0  0  0  0  0  0  0  0
   -0.5616   -0.5718    3.6624 H   0  0  0  0  0  0  0  0  0  0  0  0
   -2.3883   -0.4894    3.4241 H   0  0  0  0  0  0  0  0  0  0  0  0
  1  2  3  0
  1  5  1  0
  2  3  1  0
  3  4  1  0
  3  6  1  0
  3 19  1  0
  4  7  1  0
  4  8  1  0
  4  9  1  0
 10 11  2  3
 10 16  1  0
 10 17  1  0
 11 12  1  0
 11 18  1  0
 12 13  1  0
 12 14  1  0
 13 20  1  0
 13 21  1  0
 13 22  1  0
 14 15  2  3
 14 23  1  0
 15 24  1  0
 15 25  1  0
M  RAD  1  12   2
M  END
>  <reaction>  (13) 
rxn_1179

>  <mol_properties>  (13) 
{"1": {"label": "*4", "atom_type": "Ct"}, "2": {"label": "*3", "atom_type": "Cs"}, "10": {"label": "*0", "atom_type": "Cd"}, "11": {"label": "*1", "atom_type": "Cs"}, "18": {"label": "*2", "atom_type": "H0"}}

>  <type>  (13) 
unop_9

>  <geom_source>  (13) 
Heuristics

$$$$

     RDKit          3D

 25 23  0  0  0  0  0  0  0  0999 V2000
   -1.6318    1.3694   -2.5135 C   0  0  0  0  0  0  0  0  0  0  0  0
   -0.6540    1.3795   -1.8217 C   0  0  0  0  0  0  0  0  0  0  0  0
    0.5233    1.4070   -0.9598 C   0  0  0  0  0  0  0  0  0  0  0  0
    0.2903    2.1834    0.3376 C   0  0  0  0  0  0  0  0  0  0  0  0
   -2.4998    1.3605   -3.1276 H   0  0  0  0  0  0  0  0  0  0  0  0
    1.3545    1.8494   -1.5147 H   0  0  0  0  0  0  0  0  0  0  0  0
    1.1937    2.1777    0.9487 H   0  0  0  0  0  0  0  0  0  0  0  0
    0.0235    3.2189    0.1258 H   0  0  0  0  0  0  0  0  0  0  0  0
   -0.5196    1.7372    0.9149 H   0  0  0  0  0  0  0  0  0  0  0  0
    0.4502   -1.9094   -1.5571 C   0  0  0  0  0  0  0  0  0  0  0  0
    0.4502   -1.9094   -0.2339 C   0  0  0  0  0  0  0  0  0  0  0  0
    0.4502   -0.6786    0.6356 C   0  0  0  0  0  3  0  0  0  0  0  0
    1.6886   -0.6488    1.5272 C   0  0  0  0  0  0  0  0  0  0  0  0
   -0.8533   -0.6100    1.3921 C   0  0  0  0  0  0  0  0  0  0  0  0
   -1.0079   -0.6098    2.7070 C   0  0  0  0  0  0  0  0  0  0  0  0
    0.4495   -2.8320   -2.1238 H   0  0  0  0  0  0  0  0  0  0  0  0
    0.4520   -0.9836   -2.1228 H   0  0  0  0  0  0  0  0  0  0  0  0
    0.4455   -2.8552    0.3038 H   0  0  0  0  0  0  0  0  0  0  0  0
    0.4868    0.3657   -0.1633 H   0  0  0  0  0  0  0  0  0  0  0  0
    2.5913   -0.6572    0.9159 H   0  0  0  0  0  0  0  0  0  0  0  0
    1.7033    0.2469    2.1503 H   0  0  0  0  0  0  0  0  0  0  0  0
    1.7212   -1.5206    2.1848 H   0  0  0  0  0  0  0  0  0  0  0  0
   -1.7365   -0.5743    0.7595 H   0  0  0  0  0  0  0  0  0  0  0  0
   -0.1676   -0.6491    3.3895 H   0  0  0  0  0  0  0  0  0  0  0  0
   -1.9943   -0.5667    3.1512 H   0  0  0  0  0  0  0  0  0  0  0  0
  1  2  3  0
  1  5  1  0
  2  3  1  0
  3  4  1  0
  3  6  1  0
  3 19  1  0
  4  7  1  0
  4  8  1  0
  4  9  1  0
 10 11  2  3
 10 16  1  0
 10 17  1  0
 11 12  1  0
 11 18  1  0
 12 13  1  0
 12 14  1  0
 13 20  1  0
 13 21  1  0
 13 22  1  0
 14 15  2  3
 14 23  1  0
 15 24  1  0
 15 25  1  0
M  RAD  1  12   2
M  END
>  <reaction>  (14) 
rxn_1179

>  <mol_properties>  (14) 
{"1": {"label": "*4", "atom_type": "Ct"}, "2": {"label": "*3", "atom_type": "Cs"}, "10": {"label": "*0", "atom_type": "Cd"}, "11": {"label": "*1", "atom_type": "Cs"}, "18": {"label": "*2", "atom_type": "H0"}}

>  <type>  (14) 
unop_10

>  <geom_source>  (14) 
Heuristics

$$$$

     RDKit          3D

 25 23  0  0  0  0  0  0  0  0999 V2000
    1.2532    3.1841    0.1722 C   0  0  0  0  0  0  0  0  0  0  0  0
    0.6767    2.2834   -0.3671 C   0  0  0  0  0  0  0  0  0  0  0  0
   -0.0167    1.1954   -1.0493 C   0  0  0  0  0  0  0  0  0  0  0  0
    0.1611    1.2389   -2.5681 C   0  0  0  0  0  0  0  0  0  0  0  0
    1.7650    3.9837    0.6510 H   0  0  0  0  0  0  0  0  0  0  0  0
   -1.0790    1.2431   -0.7969 H   0  0  0  0  0  0  0  0  0  0  0  0
   -0.3723    0.4100   -3.0348 H   0  0  0  0  0  0  0  0  0  0  0  0
   -0.2270    2.1724   -2.9760 H   0  0  0  0  0  0  0  0  0  0  0  0
    1.2152    1.1655   -2.8361 H   0  0  0  0  0  0  0  0  0  0  0  0
   -0.0898   -2.1210   -1.6466 C   0  0  0  0  0  0  0  0  0  0  0  0
   -0.0898   -2.1210   -0.3234 C   0  0  0  0  0  0  0  0  0  0  0  0
   -0.0898   -0.8902    0.5460 C   0  0  0  0  0  3  0  0  0  0  0  0
    1.1486   -0.8605    1.4376 C   0  0  0  0  0  0  0  0  0  0  0  0
   -1.3933   -0.8217    1.3025 C   0  0  0  0  0  0  0  0  0  0  0  0
   -1.5479   -0.8214    2.6174 C   0  0  0  0  0  0  0  0  0  0  0  0
   -0.0905   -3.0436   -2.2133 H   0  0  0  0  0  0  0  0  0  0  0  0
   -0.0880   -1.1952   -2.2123 H   0  0  0  0  0  0  0  0  0  0  0  0
   -0.0945   -3.0668    0.2142 H   0  0  0  0  0  0  0  0  0  0  0  0
   -0.0532    0.1541   -0.2528 H   0  0  0  0  0  0  0  0  0  0  0  0
    2.0514   -0.8688    0.8264 H   0  0  0  0  0  0  0  0  0  0  0  0
    1.1633    0.0353    2.0607 H   0  0  0  0  0  0  0  0  0  0  0  0
    1.1812   -1.7322    2.0952 H   0  0  0  0  0  0  0  0  0  0  0  0
   -2.2765   -0.7859    0.6700 H   0  0  0  0  0  0  0  0  0  0  0  0
   -0.7076   -0.8608    3.3000 H   0  0  0  0  0  0  0  0  0  0  0  0
   -2.5343   -0.7783    3.0617 H   0  0  0  0  0  0  0  0  0  0  0  0
  1  2  3  0
  1  5  1  0
  2  3  1  0
  3  4  1  0
  3  6  1  0
  3 19  1  0
  4  7  1  0
  4  8  1  0
  4  9  1  0
 10 11  2  3
 10 16  1  0
 10 17  1  0
 11 12  1  0
 11 18  1  0
 12 13  1  0
 12 14  1  0
 13 20  1  0
 13 21  1  0
 13 22  1  0
 14 15  2  3
 14 23  1  0
 15 24  1  0
 15 25  1  0
M  RAD  1  12   2
M  END
>  <reaction>  (15) 
rxn_1179

>  <mol_properties>  (15) 
{"1": {"label": "*4", "atom_type": "Ct"}, "2": {"label": "*3", "atom_type": "Cs"}, "10": {"label": "*0", "atom_type": "Cd"}, "11": {"label": "*1", "atom_type": "Cs"}, "18": {"label": "*2", "atom_type": "H0"}}

>  <type>  (15) 
unop_11

>  <geom_source>  (15) 
Heuristics

$$$$

     RDKit          3D

 25 23  0  0  0  0  0  0  0  0999 V2000
    0.3367    0.6687   -3.2267 C   0  0  0  0  0  0  0  0  0  0  0  0
    0.3355    1.0404   -2.0881 C   0  0  0  0  0  0  0  0  0  0  0  0
    0.3104    1.5081   -0.7059 C   0  0  0  0  0  0  0  0  0  0  0  0
   -0.8744    2.4304   -0.4133 C   0  0  0  0  0  0  0  0  0  0  0  0
    0.3379    0.3387   -4.2375 H   0  0  0  0  0  0  0  0  0  0  0  0
    1.2483    2.0275   -0.4939 H   0  0  0  0  0  0  0  0  0  0  0  0
   -0.8528    2.7545    0.6279 H   0  0  0  0  0  0  0  0  0  0  0  0
   -0.8426    3.3144   -1.0505 H   0  0  0  0  0  0  0  0  0  0  0  0
   -1.8184    1.9165   -0.5953 H   0  0  0  0  0  0  0  0  0  0  0  0
    0.2373   -1.8084   -1.3032 C   0  0  0  0  0  0  0  0  0  0  0  0
    0.2373   -1.8084    0.0201 C   0  0  0  0  0  0  0  0  0  0  0  0
    0.2373   -0.5776    0.8895 C   0  0  0  0  0  3  0  0  0  0  0  0
    1.4757   -0.5478    1.7811 C   0  0  0  0  0  0  0  0  0  0  0  0
   -1.0662   -0.5090    1.6460 C   0  0  0  0  0  0  0  0  0  0  0  0
   -1.2208   -0.5088    2.9609 C   0  0  0  0  0  0  0  0  0  0  0  0
    0.2366   -2.7310   -1.8699 H   0  0  0  0  0  0  0  0  0  0  0  0
    0.2391   -0.8826   -1.8689 H   0  0  0  0  0  0  0  0  0  0  0  0
    0.2326   -2.7542    0.5577 H   0  0  0  0  0  0  0  0  0  0  0  0
    0.2739    0.4668    0.0906 H   0  0  0  0  0  0  0  0  0  0  0  0
    2.3785   -0.5562    1.1698 H   0  0  0  0  0  0  0  0  0  0  0  0
    1.4904    0.3480    2.4042 H   0  0  0  0  0  0  0  0  0  0  0  0
    1.5083   -1.4196    2.4387 H   0  0  0  0  0  0  0  0  0  0  0  0
   -1.9494   -0.4733    1.0134 H   0  0  0  0  0  0  0  0  0  0  0  0
   -0.3805   -0.5481    3.6434 H   0  0  0  0  0  0  0  0  0  0  0  0
   -2.2072   -0.4657    3.4051 H   0  0  0  0  0  0  0  0  0  0  0  0
  1  2  3  0
  1  5  1  0
  2  3  1  0
  3  4  1  0
  3  6  1  0
  3 19  1  0
  4  7  1  0
  4  8  1  0
  4  9  1  0
 10 11  2  3
 10 16  1  0
 10 17  1  0
 11 12  1  0
 11 18  1  0
 12 13  1  0
 12 14  1  0
 13 20  1  0
 13 21  1  0
 13 22  1  0
 14 15  2  3
 14 23  1  0
 15 24  1  0
 15 25  1  0
M  RAD  1  12   2
M  END
>  <reaction>  (16) 
rxn_1179

>  <mol_properties>  (16) 
{"1": {"label": "*4", "atom_type": "Ct"}, "2": {"label": "*3", "atom_type": "Cs"}, "10": {"label": "*0", "atom_type": "Cd"}, "11": {"label": "*1", "atom_type": "Cs"}, "18": {"label": "*2", "atom_type": "H0"}}

>  <type>  (16) 
unop_12

>  <geom_source>  (16) 
Heuristics

$$$$

     RDKit          3D

 25 23  0  0  0  0  0  0  0  0999 V2000
    1.4111   -0.3563   -0.1059 C   0  0  0  0  0  3  0  0  0  0  0  0
    2.1541   -0.1203   -1.4137 C   0  0  0  0  0  0  0  0  0  0  0  0
   -1.3568    0.1919   -1.6968 C   0  0  0  0  0  0  0  0  0  0  0  0
   -1.1540    0.0850   -0.1879 C   0  0  0  0  0  0  0  0  0  0  0  0
   -1.2845   -1.3351    0.2746 C   0  0  0  0  0  0  0  0  0  0  0  0
   -2.1207    0.9621    0.5496 C   0  0  0  0  0  0  0  0  0  0  0  0
   -0.2692   -1.9431    0.8887 C   0  0  0  0  0  0  0  0  0  0  0  0
   -1.6792    1.9308    1.3525 C   0  0  0  0  0  0  0  0  0  0  0  0
    2.1391    0.2448    1.0169 C   0  0  0  0  0  0  0  0  0  0  0  0
    2.7364    0.7386    1.9402 C   0  0  0  0  0  0  0  0  0  0  0  0
    1.3043   -1.4472    0.0716 H   0  0  0  0  0  0  0  0  0  0  0  0
    0.1688    0.2035   -0.1841 H   0  0  0  0  0  0  0  0  0  0  0  0
    3.1647   -0.5809   -1.3745 H   0  0  0  0  0  0  0  0  0  0  0  0
    1.5849   -0.5802   -2.2484 H   0  0  0  0  0  0  0  0  0  0  0  0
    2.2518    0.9690   -1.6093 H   0  0  0  0  0  0  0  0  0  0  0  0
   -2.3768   -0.1452   -1.9827 H   0  0  0  0  0  0  0  0  0  0  0  0
   -0.6065   -0.4356   -2.2227 H   0  0  0  0  0  0  0  0  0  0  0  0
   -1.2182    1.2449   -2.0215 H   0  0  0  0  0  0  0  0  0  0  0  0
   -2.2150   -1.8728    0.1138 H   0  0  0  0  0  0  0  0  0  0  0  0
   -3.1898    0.8051    0.4344 H   0  0  0  0  0  0  0  0  0  0  0  0
    0.6687   -1.4238    1.0625 H   0  0  0  0  0  0  0  0  0  0  0  0
   -0.3729   -2.9703    1.2226 H   0  0  0  0  0  0  0  0  0  0  0  0
   -0.6152    2.1035    1.4847 H   0  0  0  0  0  0  0  0  0  0  0  0
   -2.3857    2.5594    1.8847 H   0  0  0  0  0  0  0  0  0  0  0  0
    3.2610    1.1722    2.7507 H   0  0  0  0  0  0  0  0  0  0  0  0
  1  2  1  0
  1  9  1  0
  1 11  1  0
  2 13  1  0
  2 14  1  0
  2 15  1  0
  3  4  1  0
  3 16  1  0
  3 17  1  0
  3 18  1  0
  4  5  1  0
  4  6  1  0
  4 12  1  0
  5  7  2  3
  5 19  1  0
  6  8  2  3
  6 20  1  0
  7 21  1  0
  7 22  1  0
  8 23  1  0
  8 24  1  0
  9 10  3  0
 10 25  1  0
M  RAD  1   1   2
M  END
>  <reaction>  (17) 
rxn_1179

>  <mol_properties>  (17) 
{"1": {"label": "*4", "atom_type": "Ct"}, "2": {"label": "*3", "atom_type": "Cs"}, "10": {"label": "*0", "atom_type": "Cd"}, "11": {"label": "*1", "atom_type": "Cs"}, "18": {"label": "*2", "atom_type": "H0"}}

>  <type>  (17) 
unop_13

>  <geom_source>  (17) 
AutoTST

$$$$
