
     RDKit          3D

  9  8  0  0  0  0  0  0  0  0999 V2000
    1.1303   -0.2933   -0.7510 C   0  0  0  0  0  0  0  0  0  0  0  0
    0.2866    0.4560   -0.0588 C   0  0  0  0  0  0  0  0  0  0  0  0
   -0.9719   -0.0331    0.5823 C   0  0  0  0  0  0  0  0  0  0  0  0
    2.0274    0.1230   -1.1916 H   0  0  0  0  0  0  0  0  0  0  0  0
    0.9532   -1.3530   -0.9023 H   0  0  0  0  0  0  0  0  0  0  0  0
    0.5065    1.5132    0.0659 H   0  0  0  0  0  0  0  0  0  0  0  0
   -0.9526    0.1426    1.6610 H   0  0  0  0  0  0  0  0  0  0  0  0
   -1.1182   -1.1002    0.4106 H   0  0  0  0  0  0  0  0  0  0  0  0
   -1.8412    0.5010    0.1901 H   0  0  0  0  0  0  0  0  0  0  0  0
  1  2  2  3
  1  4  1  0
  1  5  1  0
  2  3  1  0
  2  6  1  0
  3  7  1  0
  3  8  1  0
  3  9  1  0
M  END
>  <reaction>  (1) 
rxn_1627

>  <mol_properties>  (1) 
{"1": {"label": "donator", "atom_type": "Cd"}, "5": {"label": "d_hydrogen", "atom_type": "H0"}}

>  <type>  (1) 
r1h

$$$$

     RDKit          3D

  6  5  0  0  0  0  0  0  0  0999 V2000
   -0.7309   -0.0987    0.0327 C   0  0  0  0  0  0  0  0  0  0  0  0
    0.6208    0.0065   -0.0096 C   0  0  0  0  0  0  0  0  0  0  0  0
    1.6572   -1.2972    0.2837 S   0  0  0  0  0  1  0  0  0  0  0  0
   -1.3651    0.7588   -0.1608 H   0  0  0  0  0  0  0  0  0  0  0  0
   -1.2044   -1.0453    0.2616 H   0  0  0  0  0  0  0  0  0  0  0  0
    1.0609    0.9725   -0.2426 H   0  0  0  0  0  0  0  0  0  0  0  0
  1  2  2  3
  1  4  1  0
  1  5  1  0
  2  3  1  0
  2  6  1  0
M  RAD  1   3   2
M  END
>  <reaction>  (2) 
rxn_1627

>  <mol_properties>  (2) 
{"0": {"label": "acceptor", "atom_type": "Cs"}}

>  <type>  (2) 
r2

$$$$

     RDKit          3D

  7  6  0  0  0  0  0  0  0  0999 V2000
   -0.6782    0.0507    0.0301 C   0  0  0  0  0  0  0  0  0  0  0  0
    0.8092    0.0996    0.0213 C   0  0  0  0  0  0  0  0  0  0  0  0
    1.7473    0.7521    1.1507 S   0  0  0  0  0  0  0  0  0  0  0  0
   -1.0667    0.5456   -0.8653 H   0  0  0  0  0  0  0  0  0  0  0  0
   -1.0112   -0.9904   -0.0239 H   0  0  0  0  0  0  0  0  0  0  0  0
   -1.0920    0.5225    0.9188 H   0  0  0  0  0  0  0  0  0  0  0  0
    1.2740   -0.3620   -0.8520 H   0  0  0  0  0  0  0  0  0  0  0  0
  1  2  1  0
  1  4  1  0
  1  5  1  0
  1  6  1  0
  2  3  2  0
  2  7  1  0
M  END
>  <reaction>  (3) 
rxn_1627

>  <mol_properties>  (3) 
{"0": {"label": "a_hydrogen", "atom_type": "H0"}, "1": {"label": "acceptor", "atom_type": "Cs"}}

>  <type>  (3) 
r2h

$$$$

     RDKit          3D

 15 13  0  0  0  0  0  0  0  0999 V2000
   -1.0460    1.5067   -2.7758 C   0  0  0  0  0  0  0  0  0  0  0  0
   -0.5391    1.5314   -1.5700 C   0  0  0  0  0  3  0  0  0  0  0  0
    0.0709    2.5394   -0.6867 C   0  0  0  0  0  0  0  0  0  0  0  0
   -1.4428    0.5980   -3.2145 H   0  0  0  0  0  0  0  0  0  0  0  0
   -1.0866    2.4068   -3.3880 H   0  0  0  0  0  0  0  0  0  0  0  0
   -0.5599    0.2069   -0.8491 H   0  0  0  0  0  0  0  0  0  0  0  0
   -0.4863    2.6268    0.2485 H   0  0  0  0  0  0  0  0  0  0  0  0
    0.0888    3.5198   -1.1737 H   0  0  0  0  0  0  0  0  0  0  0  0
    1.0934    2.2580   -0.4272 H   0  0  0  0  0  0  0  0  0  0  0  0
   -0.4645   -0.8728   -0.2729 C   0  0  0  0  0  0  0  0  0  0  0  0
   -0.5435   -0.5819    1.1479 C   0  0  0  0  0  0  0  0  0  0  0  0
    0.7166   -0.3046    2.1325 S   0  0  0  0  0  0  0  0  0  0  0  0
   -1.3058   -1.4416   -0.6671 H   0  0  0  0  0  0  0  0  0  0  0  0
    0.5014   -1.2498   -0.6003 H   0  0  0  0  0  0  0  0  0  0  0  0
   -1.5532   -0.4966    1.5520 H   0  0  0  0  0  0  0  0  0  0  0  0
  1  2  2  3
  1  4  1  0
  1  5  1  0
  2  3  1  0
  3  7  1  0
  3  8  1  0
  3  9  1  0
  6 10  1  0
 10 11  1  0
 10 13  1  0
 10 14  1  0
 11 12  2  0
 11 15  1  0
M  RAD  1   2   2
M  END
>  <reaction>  (4) 
rxn_1627

>  <mol_properties>  (4) 
{"0": {"label": "*4", "atom_type": "Cd"}, "1": {"label": "*3", "atom_type": "Cd"}, "5": {"label": "*2", "atom_type": "H0"}, "9": {"label": "*1", "atom_type": "Cs"}, "10": {"label": "*0", "atom_type": "CS"}}

>  <type>  (4) 
ts

$$$$

     RDKit          3D

 15 13  0  0  0  0  0  0  0  0999 V2000
   -0.7345    1.6244   -2.5813 C   0  0  0  0  0  0  0  0  0  0  0  0
   -0.7345    1.6244   -1.2575 C   0  0  0  0  0  0  0  0  0  0  0  0
   -0.7345    2.8466   -0.3970 C   0  0  0  0  0  0  0  0  0  0  0  0
   -0.7345    0.7017   -3.1478 H   0  0  0  0  0  0  0  0  0  0  0  0
   -0.7345    2.5500   -3.1473 H   0  0  0  0  0  0  0  0  0  0  0  0
   -0.7345    0.4813   -0.6293 H   0  0  0  0  0  0  0  0  0  0  0  0
   -1.6123    2.8637    0.2542 H   0  0  0  0  0  0  0  0  0  0  0  0
   -0.7345    3.7571   -0.9976 H   0  0  0  0  0  0  0  0  0  0  0  0
    0.1432    2.8637    0.2542 H   0  0  0  0  0  0  0  0  0  0  0  0
   -0.7345   -0.6696    0.0032 C   0  0  0  0  0  0  0  0  0  0  0  0
    0.4797   -0.7691    0.8578 C   0  0  0  0  0  0  0  0  0  0  0  0
    1.1148   -2.1178    1.4570 S   0  0  0  0  0  1  0  0  0  0  0  0
   -1.4715   -0.0211    0.4870 H   0  0  0  0  0  0  0  0  0  0  0  0
   -1.1745   -1.6462   -0.1876 H   0  0  0  0  0  0  0  0  0  0  0  0
    0.9595    0.1863    1.0787 H   0  0  0  0  0  0  0  0  0  0  0  0
  1  2  2  3
  1  4  1  0
  1  5  1  0
  2  3  1  0
  2  6  1  0
  3  7  1  0
  3  8  1  0
  3  9  1  0
 10 11  2  3
 10 13  1  0
 10 14  1  0
 11 12  1  0
 11 15  1  0
M  RAD  1  12   2
M  END
>  <reaction>  (5) 
rxn_1627

>  <mol_properties>  (5) 
{"0": {"label": "*4", "atom_type": "Cd"}, "1": {"label": "*3", "atom_type": "Cd"}, "5": {"label": "*2", "atom_type": "H0"}, "9": {"label": "*1", "atom_type": "Cs"}, "10": {"label": "*0", "atom_type": "CS"}}

>  <type>  (5) 
unop_1

>  <geom_source>  (5) 
Heuristics

$$$$

     RDKit          3D

 15 13  0  0  0  0  0  0  0  0999 V2000
   -0.1803    2.0964   -1.5862 C   0  0  0  0  0  0  0  0  0  0  0  0
   -0.1803    2.0964   -0.2625 C   0  0  0  0  0  0  0  0  0  0  0  0
   -0.1803    3.3186    0.5980 C   0  0  0  0  0  0  0  0  0  0  0  0
   -0.1803    1.1737   -2.1527 H   0  0  0  0  0  0  0  0  0  0  0  0
   -0.1803    3.0220   -2.1522 H   0  0  0  0  0  0  0  0  0  0  0  0
   -0.1803    0.9533    0.3657 H   0  0  0  0  0  0  0  0  0  0  0  0
   -1.0580    3.3357    1.2493 H   0  0  0  0  0  0  0  0  0  0  0  0
   -0.1803    4.2291   -0.0026 H   0  0  0  0  0  0  0  0  0  0  0  0
    0.6974    3.3357    1.2493 H   0  0  0  0  0  0  0  0  0  0  0  0
   -0.1803   -0.1976    0.9982 C   0  0  0  0  0  0  0  0  0  0  0  0
    0.5207   -1.2195    0.1743 C   0  0  0  0  0  0  0  0  0  0  0  0
    0.0823   -2.7534   -0.0166 S   0  0  0  0  0  1  0  0  0  0  0  0
    0.5059    0.1986    1.7531 H   0  0  0  0  0  0  0  0  0  0  0  0
   -1.0631   -0.6078    1.4842 H   0  0  0  0  0  0  0  0  0  0  0  0
    1.4153   -0.8567   -0.3354 H   0  0  0  0  0  0  0  0  0  0  0  0
  1  2  2  3
  1  4  1  0
  1  5  1  0
  2  3  1  0
  2  6  1  0
  3  7  1  0
  3  8  1  0
  3  9  1  0
 10 11  2  3
 10 13  1  0
 10 14  1  0
 11 12  1  0
 11 15  1  0
M  RAD  1  12   2
M  END
>  <reaction>  (6) 
rxn_1627

>  <mol_properties>  (6) 
{"0": {"label": "*4", "atom_type": "Cd"}, "1": {"label": "*3", "atom_type": "Cd"}, "5": {"label": "*2", "atom_type": "H0"}, "9": {"label": "*1", "atom_type": "Cs"}, "10": {"label": "*0", "atom_type": "CS"}}

>  <type>  (6) 
unop_2

>  <geom_source>  (6) 
Heuristics

$$$$

     RDKit          3D

 15 13  0  0  0  0  0  0  0  0999 V2000
   -0.5637    1.4527   -2.8324 C   0  0  0  0  0  0  0  0  0  0  0  0
   -0.5637    1.4527   -1.5087 C   0  0  0  0  0  0  0  0  0  0  0  0
   -0.5637    2.6749   -0.6481 C   0  0  0  0  0  0  0  0  0  0  0  0
   -0.5637    0.5300   -3.3989 H   0  0  0  0  0  0  0  0  0  0  0  0
   -0.5637    2.3783   -3.3984 H   0  0  0  0  0  0  0  0  0  0  0  0
   -0.5637    0.3095   -0.8804 H   0  0  0  0  0  0  0  0  0  0  0  0
   -1.4414    2.6920    0.0031 H   0  0  0  0  0  0  0  0  0  0  0  0
   -0.5637    3.5853   -1.2487 H   0  0  0  0  0  0  0  0  0  0  0  0
    0.3140    2.6920    0.0031 H   0  0  0  0  0  0  0  0  0  0  0  0
   -0.5637   -0.8414   -0.2479 C   0  0  0  0  0  0  0  0  0  0  0  0
    0.1373   -0.6937    1.0564 C   0  0  0  0  0  0  0  0  0  0  0  0
    0.9651   -1.8346    1.8274 S   0  0  0  0  0  1  0  0  0  0  0  0
   -1.6247   -0.6041   -0.1230 H   0  0  0  0  0  0  0  0  0  0  0  0
   -0.4577   -1.8462   -0.6513 H   0  0  0  0  0  0  0  0  0  0  0  0
    0.0606    0.2992    1.5037 H   0  0  0  0  0  0  0  0  0  0  0  0
  1  2  2  3
  1  4  1  0
  1  5  1  0
  2  3  1  0
  2  6  1  0
  3  7  1  0
  3  8  1  0
  3  9  1  0
 10 11  2  3
 10 13  1  0
 10 14  1  0
 11 12  1  0
 11 15  1  0
M  RAD  1  12   2
M  END
>  <reaction>  (7) 
rxn_1627

>  <mol_properties>  (7) 
{"0": {"label": "*4", "atom_type": "Cd"}, "1": {"label": "*3", "atom_type": "Cd"}, "5": {"label": "*2", "atom_type": "H0"}, "9": {"label": "*1", "atom_type": "Cs"}, "10": {"label": "*0", "atom_type": "CS"}}

>  <type>  (7) 
unop_3

>  <geom_source>  (7) 
Heuristics

$$$$

     RDKit          3D

 15 13  0  0  0  0  0  0  0  0999 V2000
    0.9831    1.4986   -2.0773 C   0  0  0  0  0  0  0  0  0  0  0  0
    0.9831    1.4986   -0.7535 C   0  0  0  0  0  0  0  0  0  0  0  0
    0.9831    2.7208    0.1070 C   0  0  0  0  0  0  0  0  0  0  0  0
    0.9831    0.5759   -2.6438 H   0  0  0  0  0  0  0  0  0  0  0  0
    0.9831    2.4242   -2.6433 H   0  0  0  0  0  0  0  0  0  0  0  0
    0.9831    0.3555   -0.1253 H   0  0  0  0  0  0  0  0  0  0  0  0
    0.1054    2.7379    0.7582 H   0  0  0  0  0  0  0  0  0  0  0  0
    0.9831    3.6312   -0.4936 H   0  0  0  0  0  0  0  0  0  0  0  0
    1.8608    2.7379    0.7582 H   0  0  0  0  0  0  0  0  0  0  0  0
    0.9831   -0.7955    0.5072 C   0  0  0  0  0  0  0  0  0  0  0  0
   -0.2312   -1.5702    0.1330 C   0  0  0  0  0  0  0  0  0  0  0  0
   -1.6542   -1.5291    0.8778 S   0  0  0  0  0  1  0  0  0  0  0  0
    1.8093   -1.4839    0.7102 H   0  0  0  0  0  0  0  0  0  0  0  0
    0.8078   -0.1663    1.3773 H   0  0  0  0  0  0  0  0  0  0  0  0
   -0.1066   -2.2186   -0.7363 H   0  0  0  0  0  0  0  0  0  0  0  0
  1  2  2  3
  1  4  1  0
  1  5  1  0
  2  3  1  0
  2  6  1  0
  3  7  1  0
  3  8  1  0
  3  9  1  0
 10 11  2  3
 10 13  1  0
 10 14  1  0
 11 12  1  0
 11 15  1  0
M  RAD  1  12   2
M  END
>  <reaction>  (8) 
rxn_1627

>  <mol_properties>  (8) 
{"0": {"label": "*4", "atom_type": "Cd"}, "1": {"label": "*3", "atom_type": "Cd"}, "5": {"label": "*2", "atom_type": "H0"}, "9": {"label": "*1", "atom_type": "Cs"}, "10": {"label": "*0", "atom_type": "CS"}}

>  <type>  (8) 
unop_4

>  <geom_source>  (8) 
Heuristics

$$$$

     RDKit          3D

 15 13  0  0  0  0  0  0  0  0999 V2000
   -0.3388    1.2236   -2.9897 C   0  0  0  0  0  0  0  0  0  0  0  0
   -0.3388    1.2236   -1.6660 C   0  0  0  0  0  0  0  0  0  0  0  0
   -0.3388    2.4458   -0.8055 C   0  0  0  0  0  0  0  0  0  0  0  0
   -0.3388    0.3008   -3.5562 H   0  0  0  0  0  0  0  0  0  0  0  0
   -0.3388    2.1492   -3.5557 H   0  0  0  0  0  0  0  0  0  0  0  0
   -0.3388    0.0804   -1.0378 H   0  0  0  0  0  0  0  0  0  0  0  0
   -1.2165    2.4629   -0.1543 H   0  0  0  0  0  0  0  0  0  0  0  0
   -0.3388    3.3562   -1.4061 H   0  0  0  0  0  0  0  0  0  0  0  0
    0.5389    2.4629   -0.1543 H   0  0  0  0  0  0  0  0  0  0  0  0
   -0.3388   -1.0705   -0.4053 C   0  0  0  0  0  0  0  0  0  0  0  0
   -0.3388   -0.8323    1.0637 C   0  0  0  0  0  0  0  0  0  0  0  0
    0.7606   -1.3532    2.1130 S   0  0  0  0  0  1  0  0  0  0  0  0
   -1.2627   -1.5812   -0.6940 H   0  0  0  0  0  0  0  0  0  0  0  0
    0.5198   -1.6609   -0.7181 H   0  0  0  0  0  0  0  0  0  0  0  0
   -1.1823   -0.2430    1.4286 H   0  0  0  0  0  0  0  0  0  0  0  0
  1  2  2  3
  1  4  1  0
  1  5  1  0
  2  3  1  0
  2  6  1  0
  3  7  1  0
  3  8  1  0
  3  9  1  0
 10 11  2  3
 10 13  1  0
 10 14  1  0
 11 12  1  0
 11 15  1  0
M  RAD  1  12   2
M  END
>  <reaction>  (9) 
rxn_1627

>  <mol_properties>  (9) 
{"0": {"label": "*4", "atom_type": "Cd"}, "1": {"label": "*3", "atom_type": "Cd"}, "5": {"label": "*2", "atom_type": "H0"}, "9": {"label": "*1", "atom_type": "Cs"}, "10": {"label": "*0", "atom_type": "CS"}}

>  <type>  (9) 
unop_5

>  <geom_source>  (9) 
Heuristics

$$$$

     RDKit          3D

 15 13  0  0  0  0  0  0  0  0999 V2000
    0.9190    1.2139   -2.4948 C   0  0  0  0  0  0  0  0  0  0  0  0
    0.9190    1.2139   -1.1711 C   0  0  0  0  0  0  0  0  0  0  0  0
    0.9190    2.4361   -0.3105 C   0  0  0  0  0  0  0  0  0  0  0  0
    0.9190    0.2912   -3.0613 H   0  0  0  0  0  0  0  0  0  0  0  0
    0.9190    2.1395   -3.0608 H   0  0  0  0  0  0  0  0  0  0  0  0
    0.9190    0.0708   -0.5428 H   0  0  0  0  0  0  0  0  0  0  0  0
    0.0413    2.4532    0.3407 H   0  0  0  0  0  0  0  0  0  0  0  0
    0.9190    3.3465   -0.9111 H   0  0  0  0  0  0  0  0  0  0  0  0
    1.7967    2.4532    0.3407 H   0  0  0  0  0  0  0  0  0  0  0  0
    0.9190   -1.0802    0.0897 C   0  0  0  0  0  0  0  0  0  0  0  0
   -0.4831   -1.5173    0.3299 C   0  0  0  0  0  0  0  0  0  0  0  0
   -1.4342   -1.0461    1.5359 S   0  0  0  0  0  1  0  0  0  0  0  0
    1.5786   -1.9534    0.0781 H   0  0  0  0  0  0  0  0  0  0  0  0
    1.2570   -0.3753    0.8464 H   0  0  0  0  0  0  0  0  0  0  0  0
   -0.8700   -2.2268   -0.4040 H   0  0  0  0  0  0  0  0  0  0  0  0
  1  2  2  3
  1  4  1  0
  1  5  1  0
  2  3  1  0
  2  6  1  0
  3  7  1  0
  3  8  1  0
  3  9  1  0
 10 11  2  3
 10 13  1  0
 10 14  1  0
 11 12  1  0
 11 15  1  0
M  RAD  1  12   2
M  END
>  <reaction>  (10) 
rxn_1627

>  <mol_properties>  (10) 
{"0": {"label": "*4", "atom_type": "Cd"}, "1": {"label": "*3", "atom_type": "Cd"}, "5": {"label": "*2", "atom_type": "H0"}, "9": {"label": "*1", "atom_type": "Cs"}, "10": {"label": "*0", "atom_type": "CS"}}

>  <type>  (10) 
unop_6

>  <geom_source>  (10) 
Heuristics

$$$$

     RDKit          3D

 15 13  0  0  0  0  0  0  0  0999 V2000
    0.5950    1.0183   -2.8502 C   0  0  0  0  0  0  0  0  0  0  0  0
    0.5950    1.0183   -1.5264 C   0  0  0  0  0  0  0  0  0  0  0  0
    0.5950    2.2404   -0.6659 C   0  0  0  0  0  0  0  0  0  0  0  0
    0.5950    0.0955   -3.4167 H   0  0  0  0  0  0  0  0  0  0  0  0
    0.5950    1.9439   -3.4162 H   0  0  0  0  0  0  0  0  0  0  0  0
    0.5950   -0.1249   -0.8982 H   0  0  0  0  0  0  0  0  0  0  0  0
   -0.2828    2.2576   -0.0147 H   0  0  0  0  0  0  0  0  0  0  0  0
    0.5950    3.1509   -1.2665 H   0  0  0  0  0  0  0  0  0  0  0  0
    1.4727    2.2576   -0.0147 H   0  0  0  0  0  0  0  0  0  0  0  0
    0.5950   -1.2758   -0.2657 C   0  0  0  0  0  0  0  0  0  0  0  0
   -0.6193   -1.3753    0.5889 C   0  0  0  0  0  0  0  0  0  0  0  0
   -0.8015   -0.7570    2.0606 S   0  0  0  0  0  1  0  0  0  0  0  0
    0.9513   -2.2801   -0.5150 H   0  0  0  0  0  0  0  0  0  0  0  0
    1.3887   -0.7163    0.2249 H   0  0  0  0  0  0  0  0  0  0  0  0
   -1.4465   -1.9288    0.1405 H   0  0  0  0  0  0  0  0  0  0  0  0
  1  2  2  3
  1  4  1  0
  1  5  1  0
  2  3  1  0
  2  6  1  0
  3  7  1  0
  3  8  1  0
  3  9  1  0
 10 11  2  3
 10 13  1  0
 10 14  1  0
 11 12  1  0
 11 15  1  0
M  RAD  1  12   2
M  END
>  <reaction>  (11) 
rxn_1627

>  <mol_properties>  (11) 
{"0": {"label": "*4", "atom_type": "Cd"}, "1": {"label": "*3", "atom_type": "Cd"}, "5": {"label": "*2", "atom_type": "H0"}, "9": {"label": "*1", "atom_type": "Cs"}, "10": {"label": "*0", "atom_type": "CS"}}

>  <type>  (11) 
unop_7

>  <geom_source>  (11) 
Heuristics

$$$$

     RDKit          3D

 15 13  0  0  0  0  0  0  0  0999 V2000
   -0.7763    1.8195   -2.2262 C   0  0  0  0  0  0  0  0  0  0  0  0
   -0.7763    1.8195   -0.9024 C   0  0  0  0  0  0  0  0  0  0  0  0
   -0.7763    3.0416   -0.0419 C   0  0  0  0  0  0  0  0  0  0  0  0
   -0.7763    0.8967   -2.7927 H   0  0  0  0  0  0  0  0  0  0  0  0
   -0.7763    2.7451   -2.7922 H   0  0  0  0  0  0  0  0  0  0  0  0
   -0.7763    0.6763   -0.2742 H   0  0  0  0  0  0  0  0  0  0  0  0
   -1.6540    3.0588    0.6093 H   0  0  0  0  0  0  0  0  0  0  0  0
   -0.7763    3.9521   -0.6425 H   0  0  0  0  0  0  0  0  0  0  0  0
    0.1014    3.0588    0.6093 H   0  0  0  0  0  0  0  0  0  0  0  0
   -0.7763   -0.4746    0.3583 C   0  0  0  0  0  0  0  0  0  0  0  0
    0.6258   -0.9117    0.5985 C   0  0  0  0  0  0  0  0  0  0  0  0
    1.1138   -2.4055    0.9329 S   0  0  0  0  0  1  0  0  0  0  0  0
   -1.0466    0.3032    1.0791 H   0  0  0  0  0  0  0  0  0  0  0  0
   -1.4760   -1.3042    0.4343 H   0  0  0  0  0  0  0  0  0  0  0  0
    1.3681   -0.1139    0.5332 H   0  0  0  0  0  0  0  0  0  0  0  0
  1  2  2  3
  1  4  1  0
  1  5  1  0
  2  3  1  0
  2  6  1  0
  3  7  1  0
  3  8  1  0
  3  9  1  0
 10 11  2  3
 10 13  1  0
 10 14  1  0
 11 12  1  0
 11 15  1  0
M  RAD  1  12   2
M  END
>  <reaction>  (12) 
rxn_1627

>  <mol_properties>  (12) 
{"0": {"label": "*4", "atom_type": "Cd"}, "1": {"label": "*3", "atom_type": "Cd"}, "5": {"label": "*2", "atom_type": "H0"}, "9": {"label": "*1", "atom_type": "Cs"}, "10": {"label": "*0", "atom_type": "CS"}}

>  <type>  (12) 
unop_8

>  <geom_source>  (12) 
Heuristics

$$$$

     RDKit          3D

 15 13  0  0  0  0  0  0  0  0999 V2000
    0.7734    1.7967   -1.7192 C   0  0  0  0  0  0  0  0  0  0  0  0
    0.7734    1.7967   -0.3954 C   0  0  0  0  0  0  0  0  0  0  0  0
    0.7734    3.0189    0.4651 C   0  0  0  0  0  0  0  0  0  0  0  0
    0.7734    0.8740   -2.2856 H   0  0  0  0  0  0  0  0  0  0  0  0
    0.7734    2.7223   -2.2852 H   0  0  0  0  0  0  0  0  0  0  0  0
    0.7734    0.6536    0.2328 H   0  0  0  0  0  0  0  0  0  0  0  0
   -0.1043    3.0360    1.1163 H   0  0  0  0  0  0  0  0  0  0  0  0
    0.7734    3.9294   -0.1355 H   0  0  0  0  0  0  0  0  0  0  0  0
    1.6511    3.0360    1.1163 H   0  0  0  0  0  0  0  0  0  0  0  0
    0.7734   -0.4973    0.8653 C   0  0  0  0  0  0  0  0  0  0  0  0
    0.0724   -1.5192    0.0414 C   0  0  0  0  0  0  0  0  0  0  0  0
   -1.4137   -2.0806    0.2818 S   0  0  0  0  0  1  0  0  0  0  0  0
    1.7043   -0.9182    1.2577 H   0  0  0  0  0  0  0  0  0  0  0  0
    0.1533   -0.1481    1.6882 H   0  0  0  0  0  0  0  0  0  0  0  0
    0.6540   -1.9024   -0.7992 H   0  0  0  0  0  0  0  0  0  0  0  0
  1  2  2  3
  1  4  1  0
  1  5  1  0
  2  3  1  0
  2  6  1  0
  3  7  1  0
  3  8  1  0
  3  9  1  0
 10 11  2  3
 10 13  1  0
 10 14  1  0
 11 12  1  0
 11 15  1  0
M  RAD  1  12   2
M  END
>  <reaction>  (13) 
rxn_1627

>  <mol_properties>  (13) 
{"0": {"label": "*4", "atom_type": "Cd"}, "1": {"label": "*3", "atom_type": "Cd"}, "5": {"label": "*2", "atom_type": "H0"}, "9": {"label": "*1", "atom_type": "Cs"}, "10": {"label": "*0", "atom_type": "CS"}}

>  <type>  (13) 
unop_9

>  <geom_source>  (13) 
Heuristics

$$$$

     RDKit          3D

 15 13  0  0  0  0  0  0  0  0999 V2000
   -0.5914    2.0041   -1.8530 C   0  0  0  0  0  0  0  0  0  0  0  0
   -0.5914    2.0041   -0.5293 C   0  0  0  0  0  0  0  0  0  0  0  0
   -0.5914    3.2263    0.3312 C   0  0  0  0  0  0  0  0  0  0  0  0
   -0.5914    1.0814   -2.4195 H   0  0  0  0  0  0  0  0  0  0  0  0
   -0.5914    2.9297   -2.4190 H   0  0  0  0  0  0  0  0  0  0  0  0
   -0.5914    0.8610    0.0989 H   0  0  0  0  0  0  0  0  0  0  0  0
   -1.4691    3.2434    0.9825 H   0  0  0  0  0  0  0  0  0  0  0  0
   -0.5914    4.1368   -0.2694 H   0  0  0  0  0  0  0  0  0  0  0  0
    0.2863    3.2434    0.9825 H   0  0  0  0  0  0  0  0  0  0  0  0
   -0.5914   -0.2899    0.7314 C   0  0  0  0  0  0  0  0  0  0  0  0
    0.6228   -1.0646    0.3573 C   0  0  0  0  0  0  0  0  0  0  0  0
    0.7750   -2.6640    0.3744 S   0  0  0  0  0  1  0  0  0  0  0  0
   -0.3498    0.4000    1.5458 H   0  0  0  0  0  0  0  0  0  0  0  0
   -1.4085   -0.9417    1.0333 H   0  0  0  0  0  0  0  0  0  0  0  0
    1.4731   -0.4547    0.0461 H   0  0  0  0  0  0  0  0  0  0  0  0
  1  2  2  3
  1  4  1  0
  1  5  1  0
  2  3  1  0
  2  6  1  0
  3  7  1  0
  3  8  1  0
  3  9  1  0
 10 11  2  3
 10 13  1  0
 10 14  1  0
 11 12  1  0
 11 15  1  0
M  RAD  1  12   2
M  END
>  <reaction>  (14) 
rxn_1627

>  <mol_properties>  (14) 
{"0": {"label": "*4", "atom_type": "Cd"}, "1": {"label": "*3", "atom_type": "Cd"}, "5": {"label": "*2", "atom_type": "H0"}, "9": {"label": "*1", "atom_type": "Cs"}, "10": {"label": "*0", "atom_type": "CS"}}

>  <type>  (14) 
unop_10

>  <geom_source>  (14) 
Heuristics

$$$$

     RDKit          3D

 15 13  0  0  0  0  0  0  0  0999 V2000
    0.0977    1.0029   -3.0319 C   0  0  0  0  0  0  0  0  0  0  0  0
    0.0977    1.0029   -1.7082 C   0  0  0  0  0  0  0  0  0  0  0  0
    0.0977    2.2251   -0.8477 C   0  0  0  0  0  0  0  0  0  0  0  0
    0.0977    0.0802   -3.5984 H   0  0  0  0  0  0  0  0  0  0  0  0
    0.0977    1.9285   -3.5979 H   0  0  0  0  0  0  0  0  0  0  0  0
    0.0977   -0.1403   -1.0799 H   0  0  0  0  0  0  0  0  0  0  0  0
   -0.7800    2.2422   -0.1964 H   0  0  0  0  0  0  0  0  0  0  0  0
    0.0977    3.1355   -1.4483 H   0  0  0  0  0  0  0  0  0  0  0  0
    0.9755    2.2422   -0.1964 H   0  0  0  0  0  0  0  0  0  0  0  0
    0.0977   -1.2912   -0.4475 C   0  0  0  0  0  0  0  0  0  0  0  0
   -0.6033   -1.1435    0.8569 C   0  0  0  0  0  0  0  0  0  0  0  0
    0.0809   -0.8249    2.2752 S   0  0  0  0  0  1  0  0  0  0  0  0
   -0.1118   -2.2802   -0.8665 H   0  0  0  0  0  0  0  0  0  0  0  0
    1.1725   -1.1563   -0.3452 H   0  0  0  0  0  0  0  0  0  0  0  0
   -1.6865   -1.2702    0.8076 H   0  0  0  0  0  0  0  0  0  0  0  0
  1  2  2  3
  1  4  1  0
  1  5  1  0
  2  3  1  0
  2  6  1  0
  3  7  1  0
  3  8  1  0
  3  9  1  0
 10 11  2  3
 10 13  1  0
 10 14  1  0
 11 12  1  0
 11 15  1  0
M  RAD  1  12   2
M  END
>  <reaction>  (15) 
rxn_1627

>  <mol_properties>  (15) 
{"0": {"label": "*4", "atom_type": "Cd"}, "1": {"label": "*3", "atom_type": "Cd"}, "5": {"label": "*2", "atom_type": "H0"}, "9": {"label": "*1", "atom_type": "Cs"}, "10": {"label": "*0", "atom_type": "CS"}}

>  <type>  (15) 
unop_11

>  <geom_source>  (15) 
Heuristics

$$$$

     RDKit          3D

 15 13  0  0  0  0  0  0  0  0999 V2000
    0.3388    2.0242   -1.5328 C   0  0  0  0  0  0  0  0  0  0  0  0
    0.3388    2.0242   -0.2090 C   0  0  0  0  0  0  0  0  0  0  0  0
    0.3388    3.2464    0.6515 C   0  0  0  0  0  0  0  0  0  0  0  0
    0.3388    1.1015   -2.0993 H   0  0  0  0  0  0  0  0  0  0  0  0
    0.3388    2.9498   -2.0988 H   0  0  0  0  0  0  0  0  0  0  0  0
    0.3388    0.8811    0.4192 H   0  0  0  0  0  0  0  0  0  0  0  0
   -0.5389    3.2635    1.3027 H   0  0  0  0  0  0  0  0  0  0  0  0
    0.3388    4.1569    0.0509 H   0  0  0  0  0  0  0  0  0  0  0  0
    1.2165    3.2635    1.3027 H   0  0  0  0  0  0  0  0  0  0  0  0
    0.3388   -0.2698    1.0517 C   0  0  0  0  0  0  0  0  0  0  0  0
    0.3388   -1.3822    0.0631 C   0  0  0  0  0  0  0  0  0  0  0  0
   -0.7606   -2.5473   -0.0597 S   0  0  0  0  0  1  0  0  0  0  0  0
    1.2627   -0.2998    1.6376 H   0  0  0  0  0  0  0  0  0  0  0  0
   -0.5198   -0.3223    1.7178 H   0  0  0  0  0  0  0  0  0  0  0  0
    1.1823   -1.3743   -0.6300 H   0  0  0  0  0  0  0  0  0  0  0  0
  1  2  2  3
  1  4  1  0
  1  5  1  0
  2  3  1  0
  2  6  1  0
  3  7  1  0
  3  8  1  0
  3  9  1  0
 10 11  2  3
 10 13  1  0
 10 14  1  0
 11 12  1  0
 11 15  1  0
M  RAD  1  12   2
M  END
>  <reaction>  (16) 
rxn_1627

>  <mol_properties>  (16) 
{"0": {"label": "*4", "atom_type": "Cd"}, "1": {"label": "*3", "atom_type": "Cd"}, "5": {"label": "*2", "atom_type": "H0"}, "9": {"label": "*1", "atom_type": "Cs"}, "10": {"label": "*0", "atom_type": "CS"}}

>  <type>  (16) 
unop_12

>  <geom_source>  (16) 
Heuristics

$$$$

     RDKit          3D

 15 13  0  0  0  0  0  0  0  0999 V2000
    3.0167    1.1832   -0.5004 S   0  0  0  0  0  1  0  0  0  0  0  0
    1.3721   -0.7484   -0.3084 C   0  0  0  0  0  0  0  0  0  0  0  0
   -1.9612   -0.7068    0.1127 C   0  0  0  0  0  0  0  0  0  0  0  0
    2.6081   -0.0353    0.1381 C   0  0  0  0  0  0  0  0  0  0  0  0
   -1.1520    1.6277    0.0663 C   0  0  0  0  0  0  0  0  0  0  0  0
   -0.9795    0.3511   -0.2780 C   0  0  0  0  0  0  0  0  0  0  0  0
    1.2036   -1.6392    0.3322 H   0  0  0  0  0  0  0  0  0  0  0  0
    1.4810   -1.0826   -1.3624 H   0  0  0  0  0  0  0  0  0  0  0  0
    0.2699    0.0978   -0.2007 H   0  0  0  0  0  0  0  0  0  0  0  0
   -2.9593   -0.4764   -0.3161 H   0  0  0  0  0  0  0  0  0  0  0  0
   -1.6168   -1.6860   -0.2789 H   0  0  0  0  0  0  0  0  0  0  0  0
   -2.0365   -0.7658    1.2191 H   0  0  0  0  0  0  0  0  0  0  0  0
    3.1899   -0.4263    0.9664 H   0  0  0  0  0  0  0  0  0  0  0  0
   -2.0167    1.9390    0.6449 H   0  0  0  0  0  0  0  0  0  0  0  0
   -0.4193    2.3682   -0.2345 H   0  0  0  0  0  0  0  0  0  0  0  0
  1  4  1  0
  2  4  2  3
  2  7  1  0
  2  8  1  0
  3  6  1  0
  3 10  1  0
  3 11  1  0
  3 12  1  0
  4 13  1  0
  5  6  2  3
  5 14  1  0
  5 15  1  0
  6  9  1  0
M  RAD  1   1   2
M  END
>  <reaction>  (17) 
rxn_1627

>  <mol_properties>  (17) 
{"0": {"label": "*4", "atom_type": "Cd"}, "1": {"label": "*3", "atom_type": "Cd"}, "5": {"label": "*2", "atom_type": "H0"}, "9": {"label": "*1", "atom_type": "Cs"}, "10": {"label": "*0", "atom_type": "CS"}}

>  <type>  (17) 
unop_13

>  <geom_source>  (17) 
AutoTST

$$$$

     RDKit          3D

 15 13  0  0  0  0  0  0  0  0999 V2000
   -0.1803    2.0964   -1.5862 C   0  0  0  0  0  0  0  0  0  0  0  0
   -0.1803    2.0964   -0.2625 C   0  0  0  0  0  0  0  0  0  0  0  0
   -0.1803    3.3186    0.5980 C   0  0  0  0  0  0  0  0  0  0  0  0
   -0.1803    1.1737   -2.1527 H   0  0  0  0  0  0  0  0  0  0  0  0
   -0.1803    3.0220   -2.1522 H   0  0  0  0  0  0  0  0  0  0  0  0
   -0.1803    0.9533    0.3658 H   0  0  0  0  0  0  0  0  0  0  0  0
   -1.0580    3.3357    1.2492 H   0  0  0  0  0  0  0  0  0  0  0  0
   -0.1803    4.2291   -0.0026 H   0  0  0  0  0  0  0  0  0  0  0  0
    0.6974    3.3357    1.2492 H   0  0  0  0  0  0  0  0  0  0  0  0
   -0.1803   -0.1976    0.9982 C   0  0  0  0  0  0  0  0  0  0  0  0
    0.5207   -1.2195    0.1743 C   0  0  0  0  0  0  0  0  0  0  0  0
    0.0823   -2.7534   -0.0167 S   0  0  0  0  0  1  0  0  0  0  0  0
    0.5059    0.1986    1.7531 H   0  0  0  0  0  0  0  0  0  0  0  0
   -1.0631   -0.6078    1.4842 H   0  0  0  0  0  0  0  0  0  0  0  0
    1.4153   -0.8567   -0.3354 H   0  0  0  0  0  0  0  0  0  0  0  0
  1  2  2  3
  1  4  1  0
  1  5  1  0
  2  3  1  0
  2  6  1  0
  3  7  1  0
  3  8  1  0
  3  9  1  0
 10 11  2  3
 10 13  1  0
 10 14  1  0
 11 12  1  0
 11 15  1  0
M  RAD  1  12   2
M  END
>  <reaction>  (18) 
rxn_1627

>  <mol_properties>  (18) 
{"0": {"label": "*4", "atom_type": "Cd"}, "1": {"label": "*3", "atom_type": "Cd"}, "5": {"label": "*2", "atom_type": "H0"}, "9": {"label": "*1", "atom_type": "Cs"}, "10": {"label": "*0", "atom_type": "CS"}}

>  <type>  (18) 
unop_14

>  <geom_source>  (18) 
gaussian_log

$$$$
