
     RDKit          3D

 19 20  0  0  0  0  0  0  0  0999 V2000
    1.1087   -0.4716   -0.9619 C   0  0  0  0  0  0  0  0  0  0  0  0
    0.9355    1.0407   -0.6470 C   0  0  0  0  0  0  0  0  0  0  0  0
   -0.0085    1.0377    0.5657 C   0  0  0  0  0  0  0  0  0  0  0  0
   -1.4093    0.6181    0.0927 C   0  0  0  0  0  0  0  0  0  0  0  0
   -1.2361   -0.8942   -0.2222 C   0  0  0  0  0  0  0  0  0  0  0  0
    0.2422   -1.1516    0.1099 C   0  0  0  0  0  0  0  0  0  0  0  0
    0.4537   -0.2211    1.3118 C   0  0  0  0  0  0  0  0  0  0  0  0
    2.1524   -0.7752   -0.8653 H   0  0  0  0  0  0  0  0  0  0  0  0
    0.7855   -0.7316   -1.9710 H   0  0  0  0  0  0  0  0  0  0  0  0
    1.8918    1.5001   -0.3916 H   0  0  0  0  0  0  0  0  0  0  0  0
    0.5184    1.6005   -1.4855 H   0  0  0  0  0  0  0  0  0  0  0  0
    0.0038    1.9661    1.1351 H   0  0  0  0  0  0  0  0  0  0  0  0
   -1.7351    1.1944   -0.7746 H   0  0  0  0  0  0  0  0  0  0  0  0
   -2.1465    0.7723    0.8824 H   0  0  0  0  0  0  0  0  0  0  0  0
   -1.4680   -1.1377   -1.2601 H   0  0  0  0  0  0  0  0  0  0  0  0
   -1.8859   -1.5030    0.4087 H   0  0  0  0  0  0  0  0  0  0  0  0
    0.4812   -2.2025    0.2673 H   0  0  0  0  0  0  0  0  0  0  0  0
    1.4942   -0.1701    1.6391 H   0  0  0  0  0  0  0  0  0  0  0  0
   -0.1779   -0.4714    2.1666 H   0  0  0  0  0  0  0  0  0  0  0  0
  1  2  1  0
  1  6  1  0
  1  8  1  0
  1  9  1  0
  2  3  1  0
  2 10  1  0
  2 11  1  0
  3  4  1  0
  3  7  1  0
  3 12  1  0
  4  5  1  0
  4 13  1  0
  4 14  1  0
  5  6  1  0
  5 15  1  0
  5 16  1  0
  6  7  1  0
  6 17  1  0
  7 18  1  0
  7 19  1  0
M  END
>  <reaction>  (1) 
rxn_485

>  <mol_properties>  (1) 
{"0": {"label": "donator", "atom_type": "Cs"}, "7": {"label": "d_hydrogen", "atom_type": "H0"}}

>  <type>  (1) 
r1h

$$$$

     RDKit          3D

  7  6  0  0  0  0  0  0  0  0999 V2000
   -0.6201    0.0189   -0.0017 C   0  0  0  0  0  0  0  0  0  0  0  0
    0.8589   -0.0553    0.0500 C   0  0  0  0  0  3  0  0  0  0  0  0
   -1.0738   -0.9730   -0.0559 H   0  0  0  0  0  0  0  0  0  0  0  0
   -0.9680    0.5706   -0.8872 H   0  0  0  0  0  0  0  0  0  0  0  0
   -1.0303    0.5369    0.8678 H   0  0  0  0  0  0  0  0  0  0  0  0
    1.3939   -0.8386   -0.4695 H   0  0  0  0  0  0  0  0  0  0  0  0
    1.4394    0.7404    0.4965 H   0  0  0  0  0  0  0  0  0  0  0  0
  1  2  1  0
  1  3  1  0
  1  4  1  0
  1  5  1  0
  2  6  1  0
  2  7  1  0
M  RAD  1   2   2
M  END
>  <reaction>  (2) 
rxn_485

>  <mol_properties>  (2) 
{"1": {"label": "acceptor", "atom_type": "Cs"}}

>  <type>  (2) 
r2

$$$$

     RDKit          3D

  8  7  0  0  0  0  0  0  0  0999 V2000
    0.7610    0.0250    0.0051 C   0  0  0  0  0  0  0  0  0  0  0  0
   -0.7610   -0.0250   -0.0051 C   0  0  0  0  0  0  0  0  0  0  0  0
    1.1904   -0.9237   -0.3217 H   0  0  0  0  0  0  0  0  0  0  0  0
    1.1359    0.8041   -0.6609 H   0  0  0  0  0  0  0  0  0  0  0  0
    1.1435    0.2336    1.0058 H   0  0  0  0  0  0  0  0  0  0  0  0
   -1.1435   -0.2336   -1.0058 H   0  0  0  0  0  0  0  0  0  0  0  0
   -1.1904    0.9237    0.3216 H   0  0  0  0  0  0  0  0  0  0  0  0
   -1.1359   -0.8041    0.6609 H   0  0  0  0  0  0  0  0  0  0  0  0
  1  2  1  0
  1  3  1  0
  1  4  1  0
  1  5  1  0
  2  6  1  0
  2  7  1  0
  2  8  1  0
M  END
>  <reaction>  (3) 
rxn_485

>  <mol_properties>  (3) 
{"1": {"label": "acceptor", "atom_type": "Cs"}, "7": {"label": "a_hydrogen", "atom_type": "H0"}}

>  <type>  (3) 
r2h

$$$$

     RDKit          3D

 26 26  0  0  0  0  0  0  0  0999 V2000
    2.3446   -0.9860    2.2157 C   0  0  0  0  0  0  0  0  0  0  0  0
    1.8060   -1.9356    1.1799 C   0  0  0  0  0  3  0  0  0  0  0  0
    3.3051   -1.3240    2.6182 H   0  0  0  0  0  0  0  0  0  0  0  0
    1.6563   -0.8876    3.0580 H   0  0  0  0  0  0  0  0  0  0  0  0
    2.5003    0.0103    1.7964 H   0  0  0  0  0  0  0  0  0  0  0  0
    1.5446   -2.9243    1.5527 H   0  0  0  0  0  0  0  0  0  0  0  0
    2.3904   -1.9954    0.2630 H   0  0  0  0  0  0  0  0  0  0  0  0
   -0.4941   -0.8456    0.3262 C   0  0  0  0  0  0  0  0  0  0  0  0
   -0.5064   -0.9517   -1.2027 C   0  0  0  0  0  0  0  0  0  0  0  0
   -0.3638    0.5169   -1.6389 C   0  0  0  0  0  0  0  0  0  0  0  0
   -1.6802    1.2458   -1.3235 C   0  0  0  0  0  0  0  0  0  0  0  0
   -1.6761    1.3307    0.2280 C   0  0  0  0  0  0  0  0  0  0  0  0
   -0.3506    0.6409    0.6085 C   0  0  0  0  0  0  0  0  0  0  0  0
    0.5618    1.0737   -0.5481 C   0  0  0  0  0  0  0  0  0  0  0  0
    0.6105   -1.4269    0.7583 H   0  0  0  0  0  0  0  0  0  0  0  0
   -1.2922   -1.3589    0.8610 H   0  0  0  0  0  0  0  0  0  0  0  0
    0.3362   -1.5491   -1.5651 H   0  0  0  0  0  0  0  0  0  0  0  0
   -1.4178   -1.4112   -1.5907 H   0  0  0  0  0  0  0  0  0  0  0  0
   -0.0249    0.6420   -2.6664 H   0  0  0  0  0  0  0  0  0  0  0  0
   -2.5459    0.7084   -1.7134 H   0  0  0  0  0  0  0  0  0  0  0  0
   -1.6858    2.2415   -1.7698 H   0  0  0  0  0  0  0  0  0  0  0  0
   -2.5358    0.8345    0.6803 H   0  0  0  0  0  0  0  0  0  0  0  0
   -1.6808    2.3686    0.5671 H   0  0  0  0  0  0  0  0  0  0  0  0
   -0.0041    0.8760    1.6141 H   0  0  0  0  0  0  0  0  0  0  0  0
    1.5402    0.5898   -0.5255 H   0  0  0  0  0  0  0  0  0  0  0  0
    0.6966    2.1553   -0.6094 H   0  0  0  0  0  0  0  0  0  0  0  0
  1  2  1  0
  1  3  1  0
  1  4  1  0
  1  5  1  0
  2  6  1  0
  2  7  1  0
  8  9  1  0
  8 13  1  0
  8 15  1  0
  8 16  1  0
  9 10  1  0
  9 17  1  0
  9 18  1  0
 10 11  1  0
 10 14  1  0
 10 19  1  0
 11 12  1  0
 11 20  1  0
 11 21  1  0
 12 13  1  0
 12 22  1  0
 12 23  1  0
 13 14  1  0
 13 24  1  0
 14 25  1  0
 14 26  1  0
M  RAD  1   2   2
M  END
>  <reaction>  (4) 
rxn_485

>  <mol_properties>  (4) 
{"0": {"label": "*4", "atom_type": "Cs"}, "1": {"label": "*3", "atom_type": "Cs"}, "7": {"label": "*1", "atom_type": "Cs"}, "8": {"label": "*0", "atom_type": "Cs"}, "14": {"label": "*2", "atom_type": "H0"}}

>  <type>  (4) 
ts

$$$$

     RDKit          3D

 26 26  0  0  0  0  0  0  0  0999 V2000
    2.5743   -1.0647    2.0692 C   0  0  0  0  0  0  0  0  0  0  0  0
    1.7565   -2.0184    1.2086 C   0  0  0  0  0  3  0  0  0  0  0  0
    2.9763   -1.5709    2.9486 H   0  0  0  0  0  0  0  0  0  0  0  0
    1.9674   -0.2275    2.4185 H   0  0  0  0  0  0  0  0  0  0  0  0
    3.4168   -0.6519    1.5116 H   0  0  0  0  0  0  0  0  0  0  0  0
    0.9140   -2.4311    1.7661 H   0  0  0  0  0  0  0  0  0  0  0  0
    2.3634   -2.8555    0.8592 H   0  0  0  0  0  0  0  0  0  0  0  0
   -0.3886   -0.8465    0.2674 C   0  0  0  0  0  0  0  0  0  0  0  0
   -0.3886   -0.8465   -1.2870 C   0  0  0  0  0  0  0  0  0  0  0  0
   -0.3886    0.6504   -1.6350 C   0  0  0  0  0  0  0  0  0  0  0  0
   -1.7678    1.2323   -1.2870 C   0  0  0  0  0  0  0  0  0  0  0  0
   -1.7678    1.2323    0.2674 C   0  0  0  0  0  0  0  0  0  0  0  0
   -0.3886    0.6504    0.6153 C   0  0  0  0  0  0  0  0  0  0  0  0
    0.4810    1.2273   -0.5098 C   0  0  0  0  0  0  0  0  0  0  0  0
    0.6839   -1.4324    0.7379 H   0  0  0  0  0  0  0  0  0  0  0  0
   -1.2531   -1.3619    0.6887 H   0  0  0  0  0  0  0  0  0  0  0  0
    0.5052   -1.3348   -1.6791 H   0  0  0  0  0  0  0  0  0  0  0  0
   -1.2531   -1.3619   -1.7083 H   0  0  0  0  0  0  0  0  0  0  0  0
   -0.0641    0.8657   -2.6522 H   0  0  0  0  0  0  0  0  0  0  0  0
   -2.5786    0.6360   -1.7083 H   0  0  0  0  0  0  0  0  0  0  0  0
   -1.8703    2.2455   -1.6791 H   0  0  0  0  0  0  0  0  0  0  0  0
   -2.5786    0.6360    0.6887 H   0  0  0  0  0  0  0  0  0  0  0  0
   -1.8703    2.2455    0.6595 H   0  0  0  0  0  0  0  0  0  0  0  0
   -0.0641    0.8657    1.6325 H   0  0  0  0  0  0  0  0  0  0  0  0
    1.5005    0.8363   -0.5098 H   0  0  0  0  0  0  0  0  0  0  0  0
    0.5169    2.3187   -0.5098 H   0  0  0  0  0  0  0  0  0  0  0  0
  1  2  1  0
  1  3  1  0
  1  4  1  0
  1  5  1  0
  2  6  1  0
  2  7  1  0
  8  9  1  0
  8 13  1  0
  8 15  1  0
  8 16  1  0
  9 10  1  0
  9 17  1  0
  9 18  1  0
 10 11  1  0
 10 14  1  0
 10 19  1  0
 11 12  1  0
 11 20  1  0
 11 21  1  0
 12 13  1  0
 12 22  1  0
 12 23  1  0
 13 14  1  0
 13 24  1  0
 14 25  1  0
 14 26  1  0
M  RAD  1   2   2
M  END
>  <reaction>  (5) 
rxn_485

>  <mol_properties>  (5) 
{"0": {"label": "*4", "atom_type": "Cs"}, "1": {"label": "*3", "atom_type": "Cs"}, "7": {"label": "*1", "atom_type": "Cs"}, "8": {"label": "*0", "atom_type": "Cs"}, "14": {"label": "*2", "atom_type": "H0"}}

>  <type>  (5) 
unop_1

>  <geom_source>  (5) 
Heuristics

$$$$

     RDKit          3D

 26 26  0  0  0  0  0  0  0  0999 V2000
    2.8887   -1.7621    0.4803 C   0  0  0  0  0  0  0  0  0  0  0  0
    1.7086   -1.9260    1.4287 C   0  0  0  0  0  3  0  0  0  0  0  0
    3.8348   -1.9577    0.9881 H   0  0  0  0  0  0  0  0  0  0  0  0
    2.9339   -0.7494    0.0760 H   0  0  0  0  0  0  0  0  0  0  0  0
    2.8176   -2.4515   -0.3628 H   0  0  0  0  0  0  0  0  0  0  0  0
    1.7797   -1.2366    2.2719 H   0  0  0  0  0  0  0  0  0  0  0  0
    1.6634   -2.9388    1.8330 H   0  0  0  0  0  0  0  0  0  0  0  0
   -0.4365   -0.7542    0.4876 C   0  0  0  0  0  0  0  0  0  0  0  0
   -0.4365   -0.7542   -1.0668 C   0  0  0  0  0  0  0  0  0  0  0  0
   -0.4365    0.7427   -1.4148 C   0  0  0  0  0  0  0  0  0  0  0  0
   -1.8157    1.3246   -1.0668 C   0  0  0  0  0  0  0  0  0  0  0  0
   -1.8157    1.3246    0.4876 C   0  0  0  0  0  0  0  0  0  0  0  0
   -0.4365    0.7427    0.8355 C   0  0  0  0  0  0  0  0  0  0  0  0
    0.4331    1.3197   -0.2896 C   0  0  0  0  0  0  0  0  0  0  0  0
    0.6360   -1.3401    0.9581 H   0  0  0  0  0  0  0  0  0  0  0  0
   -1.3009   -1.2695    0.9089 H   0  0  0  0  0  0  0  0  0  0  0  0
    0.4573   -1.2424   -1.4589 H   0  0  0  0  0  0  0  0  0  0  0  0
   -1.3009   -1.2695   -1.4882 H   0  0  0  0  0  0  0  0  0  0  0  0
   -0.1120    0.9580   -2.4320 H   0  0  0  0  0  0  0  0  0  0  0  0
   -2.6265    0.7284   -1.4882 H   0  0  0  0  0  0  0  0  0  0  0  0
   -1.9181    2.3378   -1.4589 H   0  0  0  0  0  0  0  0  0  0  0  0
   -2.6265    0.7284    0.9089 H   0  0  0  0  0  0  0  0  0  0  0  0
   -1.9181    2.3378    0.8797 H   0  0  0  0  0  0  0  0  0  0  0  0
   -0.1120    0.9580    1.8527 H   0  0  0  0  0  0  0  0  0  0  0  0
    1.4526    0.9286   -0.2896 H   0  0  0  0  0  0  0  0  0  0  0  0
    0.4690    2.4110   -0.2896 H   0  0  0  0  0  0  0  0  0  0  0  0
  1  2  1  0
  1  3  1  0
  1  4  1  0
  1  5  1  0
  2  6  1  0
  2  7  1  0
  8  9  1  0
  8 13  1  0
  8 15  1  0
  8 16  1  0
  9 10  1  0
  9 17  1  0
  9 18  1  0
 10 11  1  0
 10 14  1  0
 10 19  1  0
 11 12  1  0
 11 20  1  0
 11 21  1  0
 12 13  1  0
 12 22  1  0
 12 23  1  0
 13 14  1  0
 13 24  1  0
 14 25  1  0
 14 26  1  0
M  RAD  1   2   2
M  END
>  <reaction>  (6) 
rxn_485

>  <mol_properties>  (6) 
{"0": {"label": "*4", "atom_type": "Cs"}, "1": {"label": "*3", "atom_type": "Cs"}, "7": {"label": "*1", "atom_type": "Cs"}, "8": {"label": "*0", "atom_type": "Cs"}, "14": {"label": "*2", "atom_type": "H0"}}

>  <type>  (6) 
unop_2

>  <geom_source>  (6) 
Heuristics

$$$$

     RDKit          3D

 26 26  0  0  0  0  0  0  0  0999 V2000
    2.2101   -1.3852    2.4978 C   0  0  0  0  0  0  0  0  0  0  0  0
    1.8052   -1.9725    1.1525 C   0  0  0  0  0  3  0  0  0  0  0  0
    2.7245   -2.1248    3.1140 H   0  0  0  0  0  0  0  0  0  0  0  0
    1.3391   -1.0380    3.0565 H   0  0  0  0  0  0  0  0  0  0  0  0
    2.8825   -0.5347    2.3722 H   0  0  0  0  0  0  0  0  0  0  0  0
    1.1328   -2.8230    1.2781 H   0  0  0  0  0  0  0  0  0  0  0  0
    2.6762   -2.3197    0.5938 H   0  0  0  0  0  0  0  0  0  0  0  0
   -0.3399   -0.8007    0.2113 C   0  0  0  0  0  0  0  0  0  0  0  0
   -0.3399   -0.8007   -1.3431 C   0  0  0  0  0  0  0  0  0  0  0  0
   -0.3399    0.6963   -1.6910 C   0  0  0  0  0  0  0  0  0  0  0  0
   -1.7192    1.2781   -1.3431 C   0  0  0  0  0  0  0  0  0  0  0  0
   -1.7192    1.2781    0.2113 C   0  0  0  0  0  0  0  0  0  0  0  0
   -0.3399    0.6963    0.5592 C   0  0  0  0  0  0  0  0  0  0  0  0
    0.5296    1.2732   -0.5659 C   0  0  0  0  0  0  0  0  0  0  0  0
    0.7326   -1.3865    0.6819 H   0  0  0  0  0  0  0  0  0  0  0  0
   -1.2044   -1.3160    0.6326 H   0  0  0  0  0  0  0  0  0  0  0  0
    0.5538   -1.2889   -1.7352 H   0  0  0  0  0  0  0  0  0  0  0  0
   -1.2044   -1.3160   -1.7644 H   0  0  0  0  0  0  0  0  0  0  0  0
   -0.0155    0.9115   -2.7082 H   0  0  0  0  0  0  0  0  0  0  0  0
   -2.5300    0.6819   -1.7644 H   0  0  0  0  0  0  0  0  0  0  0  0
   -1.8216    2.2913   -1.7352 H   0  0  0  0  0  0  0  0  0  0  0  0
   -2.5300    0.6819    0.6326 H   0  0  0  0  0  0  0  0  0  0  0  0
   -1.8216    2.2913    0.6034 H   0  0  0  0  0  0  0  0  0  0  0  0
   -0.0155    0.9115    1.5764 H   0  0  0  0  0  0  0  0  0  0  0  0
    1.5491    0.8821   -0.5659 H   0  0  0  0  0  0  0  0  0  0  0  0
    0.5656    2.3646   -0.5659 H   0  0  0  0  0  0  0  0  0  0  0  0
  1  2  1  0
  1  3  1  0
  1  4  1  0
  1  5  1  0
  2  6  1  0
  2  7  1  0
  8  9  1  0
  8 13  1  0
  8 15  1  0
  8 16  1  0
  9 10  1  0
  9 17  1  0
  9 18  1  0
 10 11  1  0
 10 14  1  0
 10 19  1  0
 11 12  1  0
 11 20  1  0
 11 21  1  0
 12 13  1  0
 12 22  1  0
 12 23  1  0
 13 14  1  0
 13 24  1  0
 14 25  1  0
 14 26  1  0
M  RAD  1   2   2
M  END
>  <reaction>  (7) 
rxn_485

>  <mol_properties>  (7) 
{"0": {"label": "*4", "atom_type": "Cs"}, "1": {"label": "*3", "atom_type": "Cs"}, "7": {"label": "*1", "atom_type": "Cs"}, "8": {"label": "*0", "atom_type": "Cs"}, "14": {"label": "*2", "atom_type": "H0"}}

>  <type>  (7) 
unop_3

>  <geom_source>  (7) 
Heuristics

$$$$

     RDKit          3D

 26 26  0  0  0  0  0  0  0  0999 V2000
    1.9305   -3.1769    0.9049 C   0  0  0  0  0  0  0  0  0  0  0  0
    1.8436   -1.7291    1.3686 C   0  0  0  0  0  3  0  0  0  0  0  0
    2.4202   -3.8033    1.6526 H   0  0  0  0  0  0  0  0  0  0  0  0
    2.5003   -3.2622   -0.0220 H   0  0  0  0  0  0  0  0  0  0  0  0
    0.9386   -3.5944    0.7225 H   0  0  0  0  0  0  0  0  0  0  0  0
    2.8354   -1.3116    1.5510 H   0  0  0  0  0  0  0  0  0  0  0  0
    1.2737   -1.6438    2.2955 H   0  0  0  0  0  0  0  0  0  0  0  0
   -0.3015   -0.5572    0.4274 C   0  0  0  0  0  0  0  0  0  0  0  0
   -0.3015   -0.5572   -1.1269 C   0  0  0  0  0  0  0  0  0  0  0  0
   -0.3015    0.9397   -1.4749 C   0  0  0  0  0  0  0  0  0  0  0  0
   -1.6808    1.5215   -1.1269 C   0  0  0  0  0  0  0  0  0  0  0  0
   -1.6808    1.5215    0.4274 C   0  0  0  0  0  0  0  0  0  0  0  0
   -0.3015    0.9397    0.7754 C   0  0  0  0  0  0  0  0  0  0  0  0
    0.5680    1.5166   -0.3498 C   0  0  0  0  0  0  0  0  0  0  0  0
    0.7709   -1.1431    0.8980 H   0  0  0  0  0  0  0  0  0  0  0  0
   -1.1660   -1.0726    0.8488 H   0  0  0  0  0  0  0  0  0  0  0  0
    0.5922   -1.0455   -1.5191 H   0  0  0  0  0  0  0  0  0  0  0  0
   -1.1660   -1.0726   -1.5483 H   0  0  0  0  0  0  0  0  0  0  0  0
    0.0229    1.1550   -2.4921 H   0  0  0  0  0  0  0  0  0  0  0  0
   -2.4916    0.9253   -1.5483 H   0  0  0  0  0  0  0  0  0  0  0  0
   -1.7832    2.5348   -1.5191 H   0  0  0  0  0  0  0  0  0  0  0  0
   -2.4916    0.9253    0.8488 H   0  0  0  0  0  0  0  0  0  0  0  0
   -1.7832    2.5348    0.8196 H   0  0  0  0  0  0  0  0  0  0  0  0
    0.0229    1.1550    1.7926 H   0  0  0  0  0  0  0  0  0  0  0  0
    1.5875    1.1256   -0.3498 H   0  0  0  0  0  0  0  0  0  0  0  0
    0.6040    2.6080   -0.3498 H   0  0  0  0  0  0  0  0  0  0  0  0
  1  2  1  0
  1  3  1  0
  1  4  1  0
  1  5  1  0
  2  6  1  0
  2  7  1  0
  8  9  1  0
  8 13  1  0
  8 15  1  0
  8 16  1  0
  9 10  1  0
  9 17  1  0
  9 18  1  0
 10 11  1  0
 10 14  1  0
 10 19  1  0
 11 12  1  0
 11 20  1  0
 11 21  1  0
 12 13  1  0
 12 22  1  0
 12 23  1  0
 13 14  1  0
 13 24  1  0
 14 25  1  0
 14 26  1  0
M  RAD  1   2   2
M  END
>  <reaction>  (8) 
rxn_485

>  <mol_properties>  (8) 
{"0": {"label": "*4", "atom_type": "Cs"}, "1": {"label": "*3", "atom_type": "Cs"}, "7": {"label": "*1", "atom_type": "Cs"}, "8": {"label": "*0", "atom_type": "Cs"}, "14": {"label": "*2", "atom_type": "H0"}}

>  <type>  (8) 
unop_4

>  <geom_source>  (8) 
Heuristics

$$$$

     RDKit          3D

 26 26  0  0  0  0  0  0  0  0999 V2000
    1.8550   -1.9063    2.6558 C   0  0  0  0  0  0  0  0  0  0  0  0
    1.8502   -1.9037    1.1330 C   0  0  0  0  0  3  0  0  0  0  0  0
    2.7488   -2.3946    3.0479 H   0  0  0  0  0  0  0  0  0  0  0  0
    0.9876   -2.4362    3.0534 H   0  0  0  0  0  0  0  0  0  0  0  0
    1.8322   -0.8902    3.0534 H   0  0  0  0  0  0  0  0  0  0  0  0
    1.8729   -2.9198    0.7353 H   0  0  0  0  0  0  0  0  0  0  0  0
    2.7175   -1.3738    0.7353 H   0  0  0  0  0  0  0  0  0  0  0  0
   -0.2949   -0.7319    0.1918 C   0  0  0  0  0  0  0  0  0  0  0  0
   -0.2949   -0.7319   -1.3626 C   0  0  0  0  0  0  0  0  0  0  0  0
   -0.2949    0.7651   -1.7105 C   0  0  0  0  0  0  0  0  0  0  0  0
   -1.6742    1.3469   -1.3626 C   0  0  0  0  0  0  0  0  0  0  0  0
   -1.6742    1.3469    0.1918 C   0  0  0  0  0  0  0  0  0  0  0  0
   -0.2949    0.7651    0.5397 C   0  0  0  0  0  0  0  0  0  0  0  0
    0.5746    1.3420   -0.5854 C   0  0  0  0  0  0  0  0  0  0  0  0
    0.7775   -1.3177    0.6624 H   0  0  0  0  0  0  0  0  0  0  0  0
   -1.1594   -1.2472    0.6131 H   0  0  0  0  0  0  0  0  0  0  0  0
    0.5988   -1.2201   -1.7547 H   0  0  0  0  0  0  0  0  0  0  0  0
   -1.1594   -1.2472   -1.7839 H   0  0  0  0  0  0  0  0  0  0  0  0
    0.0295    0.9803   -2.7277 H   0  0  0  0  0  0  0  0  0  0  0  0
   -2.4850    0.7507   -1.7839 H   0  0  0  0  0  0  0  0  0  0  0  0
   -1.7766    2.3601   -1.7547 H   0  0  0  0  0  0  0  0  0  0  0  0
   -2.4850    0.7507    0.6131 H   0  0  0  0  0  0  0  0  0  0  0  0
   -1.7766    2.3601    0.5839 H   0  0  0  0  0  0  0  0  0  0  0  0
    0.0295    0.9803    1.5569 H   0  0  0  0  0  0  0  0  0  0  0  0
    1.5941    0.9509   -0.5854 H   0  0  0  0  0  0  0  0  0  0  0  0
    0.6106    2.4334   -0.5854 H   0  0  0  0  0  0  0  0  0  0  0  0
  1  2  1  0
  1  3  1  0
  1  4  1  0
  1  5  1  0
  2  6  1  0
  2  7  1  0
  8  9  1  0
  8 13  1  0
  8 15  1  0
  8 16  1  0
  9 10  1  0
  9 17  1  0
  9 18  1  0
 10 11  1  0
 10 14  1  0
 10 19  1  0
 11 12  1  0
 11 20  1  0
 11 21  1  0
 12 13  1  0
 12 22  1  0
 12 23  1  0
 13 14  1  0
 13 24  1  0
 14 25  1  0
 14 26  1  0
M  RAD  1   2   2
M  END
>  <reaction>  (9) 
rxn_485

>  <mol_properties>  (9) 
{"0": {"label": "*4", "atom_type": "Cs"}, "1": {"label": "*3", "atom_type": "Cs"}, "7": {"label": "*1", "atom_type": "Cs"}, "8": {"label": "*0", "atom_type": "Cs"}, "14": {"label": "*2", "atom_type": "H0"}}

>  <type>  (9) 
unop_5

>  <geom_source>  (9) 
Heuristics

$$$$

     RDKit          3D

 26 26  0  0  0  0  0  0  0  0999 V2000
    1.6535   -3.2184    1.4862 C   0  0  0  0  0  0  0  0  0  0  0  0
    1.8815   -1.7259    1.2878 C   0  0  0  0  0  3  0  0  0  0  0  0
    2.1282   -3.5729    2.4028 H   0  0  0  0  0  0  0  0  0  0  0  0
    2.0652   -3.7955    0.6564 H   0  0  0  0  0  0  0  0  0  0  0  0
    0.5892   -3.4506    1.5542 H   0  0  0  0  0  0  0  0  0  0  0  0
    2.9458   -1.4936    1.2198 H   0  0  0  0  0  0  0  0  0  0  0  0
    1.4698   -1.1488    2.1176 H   0  0  0  0  0  0  0  0  0  0  0  0
   -0.2636   -0.5541    0.3466 C   0  0  0  0  0  0  0  0  0  0  0  0
   -0.2636   -0.5541   -1.2078 C   0  0  0  0  0  0  0  0  0  0  0  0
   -0.2636    0.9429   -1.5558 C   0  0  0  0  0  0  0  0  0  0  0  0
   -1.6429    1.5247   -1.2078 C   0  0  0  0  0  0  0  0  0  0  0  0
   -1.6429    1.5247    0.3466 C   0  0  0  0  0  0  0  0  0  0  0  0
   -0.2636    0.9429    0.6945 C   0  0  0  0  0  0  0  0  0  0  0  0
    0.6060    1.5198   -0.4306 C   0  0  0  0  0  0  0  0  0  0  0  0
    0.8089   -1.1399    0.8171 H   0  0  0  0  0  0  0  0  0  0  0  0
   -1.1281   -1.0694    0.7679 H   0  0  0  0  0  0  0  0  0  0  0  0
    0.6301   -1.0423   -1.5999 H   0  0  0  0  0  0  0  0  0  0  0  0
   -1.1281   -1.0694   -1.6291 H   0  0  0  0  0  0  0  0  0  0  0  0
    0.0608    1.1581   -2.5730 H   0  0  0  0  0  0  0  0  0  0  0  0
   -2.4537    0.9285   -1.6291 H   0  0  0  0  0  0  0  0  0  0  0  0
   -1.7453    2.5379   -1.5999 H   0  0  0  0  0  0  0  0  0  0  0  0
   -2.4537    0.9285    0.7679 H   0  0  0  0  0  0  0  0  0  0  0  0
   -1.7453    2.5379    0.7387 H   0  0  0  0  0  0  0  0  0  0  0  0
    0.0608    1.1581    1.7117 H   0  0  0  0  0  0  0  0  0  0  0  0
    1.6255    1.1287   -0.4306 H   0  0  0  0  0  0  0  0  0  0  0  0
    0.6419    2.6112   -0.4306 H   0  0  0  0  0  0  0  0  0  0  0  0
  1  2  1  0
  1  3  1  0
  1  4  1  0
  1  5  1  0
  2  6  1  0
  2  7  1  0
  8  9  1  0
  8 13  1  0
  8 15  1  0
  8 16  1  0
  9 10  1  0
  9 17  1  0
  9 18  1  0
 10 11  1  0
 10 14  1  0
 10 19  1  0
 11 12  1  0
 11 20  1  0
 11 21  1  0
 12 13  1  0
 12 22  1  0
 12 23  1  0
 13 14  1  0
 13 24  1  0
 14 25  1  0
 14 26  1  0
M  RAD  1   2   2
M  END
>  <reaction>  (10) 
rxn_485

>  <mol_properties>  (10) 
{"0": {"label": "*4", "atom_type": "Cs"}, "1": {"label": "*3", "atom_type": "Cs"}, "7": {"label": "*1", "atom_type": "Cs"}, "8": {"label": "*0", "atom_type": "Cs"}, "14": {"label": "*2", "atom_type": "H0"}}

>  <type>  (10) 
unop_6

>  <geom_source>  (10) 
Heuristics

$$$$

     RDKit          3D

 26 26  0  0  0  0  0  0  0  0999 V2000
    1.5354   -2.9663    2.0692 C   0  0  0  0  0  0  0  0  0  0  0  0
    1.8961   -1.7629    1.2086 C   0  0  0  0  0  3  0  0  0  0  0  0
    2.1786   -3.0311    2.9486 H   0  0  0  0  0  0  0  0  0  0  0  0
    1.6434   -3.8983    1.5116 H   0  0  0  0  0  0  0  0  0  0  0  0
    0.5031   -2.9080    2.4185 H   0  0  0  0  0  0  0  0  0  0  0  0
    2.9284   -1.8212    0.8592 H   0  0  0  0  0  0  0  0  0  0  0  0
    1.7881   -0.8309    1.7661 H   0  0  0  0  0  0  0  0  0  0  0  0
   -0.2490   -0.5911    0.2674 C   0  0  0  0  0  0  0  0  0  0  0  0
   -0.2490   -0.5911   -1.2870 C   0  0  0  0  0  0  0  0  0  0  0  0
   -0.2490    0.9058   -1.6350 C   0  0  0  0  0  0  0  0  0  0  0  0
   -1.6283    1.4877   -1.2870 C   0  0  0  0  0  0  0  0  0  0  0  0
   -1.6283    1.4877    0.2674 C   0  0  0  0  0  0  0  0  0  0  0  0
   -0.2490    0.9058    0.6153 C   0  0  0  0  0  0  0  0  0  0  0  0
    0.6205    1.4828   -0.5098 C   0  0  0  0  0  0  0  0  0  0  0  0
    0.8234   -1.1770    0.7379 H   0  0  0  0  0  0  0  0  0  0  0  0
   -1.1135   -1.1064    0.6887 H   0  0  0  0  0  0  0  0  0  0  0  0
    0.6447   -1.0793   -1.6791 H   0  0  0  0  0  0  0  0  0  0  0  0
   -1.1135   -1.1064   -1.7083 H   0  0  0  0  0  0  0  0  0  0  0  0
    0.0754    1.1211   -2.6522 H   0  0  0  0  0  0  0  0  0  0  0  0
   -2.4391    0.8915   -1.7083 H   0  0  0  0  0  0  0  0  0  0  0  0
   -1.7307    2.5009   -1.6791 H   0  0  0  0  0  0  0  0  0  0  0  0
   -2.4391    0.8915    0.6887 H   0  0  0  0  0  0  0  0  0  0  0  0
   -1.7307    2.5009    0.6595 H   0  0  0  0  0  0  0  0  0  0  0  0
    0.0754    1.1211    1.6325 H   0  0  0  0  0  0  0  0  0  0  0  0
    1.6400    1.0917   -0.5098 H   0  0  0  0  0  0  0  0  0  0  0  0
    0.6565    2.5741   -0.5098 H   0  0  0  0  0  0  0  0  0  0  0  0
  1  2  1  0
  1  3  1  0
  1  4  1  0
  1  5  1  0
  2  6  1  0
  2  7  1  0
  8  9  1  0
  8 13  1  0
  8 15  1  0
  8 16  1  0
  9 10  1  0
  9 17  1  0
  9 18  1  0
 10 11  1  0
 10 14  1  0
 10 19  1  0
 11 12  1  0
 11 20  1  0
 11 21  1  0
 12 13  1  0
 12 22  1  0
 12 23  1  0
 13 14  1  0
 13 24  1  0
 14 25  1  0
 14 26  1  0
M  RAD  1   2   2
M  END
>  <reaction>  (11) 
rxn_485

>  <mol_properties>  (11) 
{"0": {"label": "*4", "atom_type": "Cs"}, "1": {"label": "*3", "atom_type": "Cs"}, "7": {"label": "*1", "atom_type": "Cs"}, "8": {"label": "*0", "atom_type": "Cs"}, "14": {"label": "*2", "atom_type": "H0"}}

>  <type>  (11) 
unop_7

>  <geom_source>  (11) 
Heuristics

$$$$

     RDKit          3D

 26 26  0  0  0  0  0  0  0  0999 V2000
    2.8501   -1.0278    1.4862 C   0  0  0  0  0  0  0  0  0  0  0  0
    1.7175   -2.0261    1.2878 C   0  0  0  0  0  3  0  0  0  0  0  0
    3.4050   -1.2357    2.4028 H   0  0  0  0  0  0  0  0  0  0  0  0
    2.4705   -0.0068    1.5542 H   0  0  0  0  0  0  0  0  0  0  0  0
    3.5582   -1.0624    0.6564 H   0  0  0  0  0  0  0  0  0  0  0  0
    1.0094   -1.9915    2.1176 H   0  0  0  0  0  0  0  0  0  0  0  0
    2.0971   -3.0471    1.2198 H   0  0  0  0  0  0  0  0  0  0  0  0
   -0.4276   -0.8543    0.3466 C   0  0  0  0  0  0  0  0  0  0  0  0
   -0.4276   -0.8543   -1.2078 C   0  0  0  0  0  0  0  0  0  0  0  0
   -0.4276    0.6426   -1.5558 C   0  0  0  0  0  0  0  0  0  0  0  0
   -1.8069    1.2245   -1.2078 C   0  0  0  0  0  0  0  0  0  0  0  0
   -1.8069    1.2245    0.3466 C   0  0  0  0  0  0  0  0  0  0  0  0
   -0.4276    0.6426    0.6945 C   0  0  0  0  0  0  0  0  0  0  0  0
    0.4420    1.2196   -0.4306 C   0  0  0  0  0  0  0  0  0  0  0  0
    0.6449   -1.4402    0.8171 H   0  0  0  0  0  0  0  0  0  0  0  0
   -1.2921   -1.3696    0.7679 H   0  0  0  0  0  0  0  0  0  0  0  0
    0.4661   -1.3425   -1.5999 H   0  0  0  0  0  0  0  0  0  0  0  0
   -1.2921   -1.3696   -1.6291 H   0  0  0  0  0  0  0  0  0  0  0  0
   -0.1032    0.8579   -2.5730 H   0  0  0  0  0  0  0  0  0  0  0  0
   -2.6177    0.6283   -1.6291 H   0  0  0  0  0  0  0  0  0  0  0  0
   -1.9093    2.2377   -1.5999 H   0  0  0  0  0  0  0  0  0  0  0  0
   -2.6177    0.6283    0.7679 H   0  0  0  0  0  0  0  0  0  0  0  0
   -1.9093    2.2377    0.7387 H   0  0  0  0  0  0  0  0  0  0  0  0
   -0.1032    0.8579    1.7117 H   0  0  0  0  0  0  0  0  0  0  0  0
    1.4615    0.8285   -0.4306 H   0  0  0  0  0  0  0  0  0  0  0  0
    0.4779    2.3109   -0.4306 H   0  0  0  0  0  0  0  0  0  0  0  0
  1  2  1  0
  1  3  1  0
  1  4  1  0
  1  5  1  0
  2  6  1  0
  2  7  1  0
  8  9  1  0
  8 13  1  0
  8 15  1  0
  8 16  1  0
  9 10  1  0
  9 17  1  0
  9 18  1  0
 10 11  1  0
 10 14  1  0
 10 19  1  0
 11 12  1  0
 11 20  1  0
 11 21  1  0
 12 13  1  0
 12 22  1  0
 12 23  1  0
 13 14  1  0
 13 24  1  0
 14 25  1  0
 14 26  1  0
M  RAD  1   2   2
M  END
>  <reaction>  (12) 
rxn_485

>  <mol_properties>  (12) 
{"0": {"label": "*4", "atom_type": "Cs"}, "1": {"label": "*3", "atom_type": "Cs"}, "7": {"label": "*1", "atom_type": "Cs"}, "8": {"label": "*0", "atom_type": "Cs"}, "14": {"label": "*2", "atom_type": "H0"}}

>  <type>  (12) 
unop_8

>  <geom_source>  (12) 
Heuristics

$$$$

     RDKit          3D

 26 26  0  0  0  0  0  0  0  0999 V2000
    2.2922   -2.8540    0.4803 C   0  0  0  0  0  0  0  0  0  0  0  0
    1.7925   -1.7725    1.4287 C   0  0  0  0  0  3  0  0  0  0  0  0
    2.9680   -3.5445    0.9881 H   0  0  0  0  0  0  0  0  0  0  0  0
    2.8339   -2.4217   -0.3628 H   0  0  0  0  0  0  0  0  0  0  0  0
    1.4644   -3.4393    0.0760 H   0  0  0  0  0  0  0  0  0  0  0  0
    2.6203   -1.1872    1.8330 H   0  0  0  0  0  0  0  0  0  0  0  0
    1.2508   -2.2049    2.2719 H   0  0  0  0  0  0  0  0  0  0  0  0
   -0.3526   -0.6007    0.4876 C   0  0  0  0  0  0  0  0  0  0  0  0
   -0.3526   -0.6007   -1.0668 C   0  0  0  0  0  0  0  0  0  0  0  0
   -0.3526    0.8962   -1.4148 C   0  0  0  0  0  0  0  0  0  0  0  0
   -1.7318    1.4781   -1.0668 C   0  0  0  0  0  0  0  0  0  0  0  0
   -1.7318    1.4781    0.4876 C   0  0  0  0  0  0  0  0  0  0  0  0
   -0.3526    0.8962    0.8355 C   0  0  0  0  0  0  0  0  0  0  0  0
    0.5170    1.4732   -0.2896 C   0  0  0  0  0  0  0  0  0  0  0  0
    0.7199   -1.1866    0.9581 H   0  0  0  0  0  0  0  0  0  0  0  0
   -1.2171   -1.1160    0.9089 H   0  0  0  0  0  0  0  0  0  0  0  0
    0.5411   -1.0889   -1.4589 H   0  0  0  0  0  0  0  0  0  0  0  0
   -1.2171   -1.1160   -1.4882 H   0  0  0  0  0  0  0  0  0  0  0  0
   -0.0282    1.1115   -2.4320 H   0  0  0  0  0  0  0  0  0  0  0  0
   -2.5427    0.8819   -1.4882 H   0  0  0  0  0  0  0  0  0  0  0  0
   -1.8343    2.4913   -1.4589 H   0  0  0  0  0  0  0  0  0  0  0  0
   -2.5427    0.8819    0.9089 H   0  0  0  0  0  0  0  0  0  0  0  0
   -1.8343    2.4913    0.8797 H   0  0  0  0  0  0  0  0  0  0  0  0
   -0.0282    1.1115    1.8527 H   0  0  0  0  0  0  0  0  0  0  0  0
    1.5365    1.0821   -0.2896 H   0  0  0  0  0  0  0  0  0  0  0  0
    0.5529    2.5645   -0.2896 H   0  0  0  0  0  0  0  0  0  0  0  0
  1  2  1  0
  1  3  1  0
  1  4  1  0
  1  5  1  0
  2  6  1  0
  2  7  1  0
  8  9  1  0
  8 13  1  0
  8 15  1  0
  8 16  1  0
  9 10  1  0
  9 17  1  0
  9 18  1  0
 10 11  1  0
 10 14  1  0
 10 19  1  0
 11 12  1  0
 11 20  1  0
 11 21  1  0
 12 13  1  0
 12 22  1  0
 12 23  1  0
 13 14  1  0
 13 24  1  0
 14 25  1  0
 14 26  1  0
M  RAD  1   2   2
M  END
>  <reaction>  (13) 
rxn_485

>  <mol_properties>  (13) 
{"0": {"label": "*4", "atom_type": "Cs"}, "1": {"label": "*3", "atom_type": "Cs"}, "7": {"label": "*1", "atom_type": "Cs"}, "8": {"label": "*0", "atom_type": "Cs"}, "14": {"label": "*2", "atom_type": "H0"}}

>  <type>  (13) 
unop_9

>  <geom_source>  (13) 
Heuristics

$$$$

     RDKit          3D

 26 26  0  0  0  0  0  0  0  0999 V2000
    2.9649   -1.2833    0.9049 C   0  0  0  0  0  0  0  0  0  0  0  0
    1.6997   -1.9925    1.3686 C   0  0  0  0  0  3  0  0  0  0  0  0
    3.7566   -1.3569    1.6526 H   0  0  0  0  0  0  0  0  0  0  0  0
    2.7803   -0.2231    0.7225 H   0  0  0  0  0  0  0  0  0  0  0  0
    3.3446   -1.7167   -0.0220 H   0  0  0  0  0  0  0  0  0  0  0  0
    1.3200   -1.5590    2.2955 H   0  0  0  0  0  0  0  0  0  0  0  0
    1.8843   -3.0526    1.5510 H   0  0  0  0  0  0  0  0  0  0  0  0
   -0.4454   -0.8207    0.4274 C   0  0  0  0  0  0  0  0  0  0  0  0
   -0.4454   -0.8207   -1.1269 C   0  0  0  0  0  0  0  0  0  0  0  0
   -0.4454    0.6763   -1.4749 C   0  0  0  0  0  0  0  0  0  0  0  0
   -1.8247    1.2581   -1.1269 C   0  0  0  0  0  0  0  0  0  0  0  0
   -1.8247    1.2581    0.4274 C   0  0  0  0  0  0  0  0  0  0  0  0
   -0.4454    0.6763    0.7754 C   0  0  0  0  0  0  0  0  0  0  0  0
    0.4241    1.2532   -0.3498 C   0  0  0  0  0  0  0  0  0  0  0  0
    0.6270   -1.4065    0.8980 H   0  0  0  0  0  0  0  0  0  0  0  0
   -1.3099   -1.3360    0.8488 H   0  0  0  0  0  0  0  0  0  0  0  0
    0.4483   -1.3089   -1.5191 H   0  0  0  0  0  0  0  0  0  0  0  0
   -1.3099   -1.3360   -1.5483 H   0  0  0  0  0  0  0  0  0  0  0  0
   -0.1210    0.8915   -2.4921 H   0  0  0  0  0  0  0  0  0  0  0  0
   -2.6355    0.6619   -1.5483 H   0  0  0  0  0  0  0  0  0  0  0  0
   -1.9271    2.2713   -1.5191 H   0  0  0  0  0  0  0  0  0  0  0  0
   -2.6355    0.6619    0.8488 H   0  0  0  0  0  0  0  0  0  0  0  0
   -1.9271    2.2713    0.8196 H   0  0  0  0  0  0  0  0  0  0  0  0
   -0.1210    0.8915    1.7926 H   0  0  0  0  0  0  0  0  0  0  0  0
    1.4436    0.8621   -0.3498 H   0  0  0  0  0  0  0  0  0  0  0  0
    0.4601    2.3446   -0.3498 H   0  0  0  0  0  0  0  0  0  0  0  0
  1  2  1  0
  1  3  1  0
  1  4  1  0
  1  5  1  0
  2  6  1  0
  2  7  1  0
  8  9  1  0
  8 13  1  0
  8 15  1  0
  8 16  1  0
  9 10  1  0
  9 17  1  0
  9 18  1  0
 10 11  1  0
 10 14  1  0
 10 19  1  0
 11 12  1  0
 11 20  1  0
 11 21  1  0
 12 13  1  0
 12 22  1  0
 12 23  1  0
 13 14  1  0
 13 24  1  0
 14 25  1  0
 14 26  1  0
M  RAD  1   2   2
M  END
>  <reaction>  (14) 
rxn_485

>  <mol_properties>  (14) 
{"0": {"label": "*4", "atom_type": "Cs"}, "1": {"label": "*3", "atom_type": "Cs"}, "7": {"label": "*1", "atom_type": "Cs"}, "8": {"label": "*0", "atom_type": "Cs"}, "14": {"label": "*2", "atom_type": "H0"}}

>  <type>  (14) 
unop_10

>  <geom_source>  (14) 
Heuristics

$$$$

     RDKit          3D

 26 26  0  0  0  0  0  0  0  0999 V2000
    1.6084   -2.4867    2.4978 C   0  0  0  0  0  0  0  0  0  0  0  0
    1.8838   -1.8287    1.1525 C   0  0  0  0  0  3  0  0  0  0  0  0
    2.5086   -2.5199    3.1140 H   0  0  0  0  0  0  0  0  0  0  0  0
    1.2561   -3.5121    2.3722 H   0  0  0  0  0  0  0  0  0  0  0  0
    0.8456   -1.9414    3.0565 H   0  0  0  0  0  0  0  0  0  0  0  0
    2.6465   -2.3739    0.5938 H   0  0  0  0  0  0  0  0  0  0  0  0
    2.2361   -0.8033    1.2781 H   0  0  0  0  0  0  0  0  0  0  0  0
   -0.2614   -0.6568    0.2113 C   0  0  0  0  0  0  0  0  0  0  0  0
   -0.2614   -0.6568   -1.3431 C   0  0  0  0  0  0  0  0  0  0  0  0
   -0.2614    0.8401   -1.6910 C   0  0  0  0  0  0  0  0  0  0  0  0
   -1.6406    1.4219   -1.3431 C   0  0  0  0  0  0  0  0  0  0  0  0
   -1.6406    1.4219    0.2113 C   0  0  0  0  0  0  0  0  0  0  0  0
   -0.2613    0.8401    0.5592 C   0  0  0  0  0  0  0  0  0  0  0  0
    0.6082    1.4170   -0.5659 C   0  0  0  0  0  0  0  0  0  0  0  0
    0.8111   -1.2427    0.6819 H   0  0  0  0  0  0  0  0  0  0  0  0
   -1.1258   -1.1722    0.6326 H   0  0  0  0  0  0  0  0  0  0  0  0
    0.6324   -1.1451   -1.7352 H   0  0  0  0  0  0  0  0  0  0  0  0
   -1.1258   -1.1722   -1.7644 H   0  0  0  0  0  0  0  0  0  0  0  0
    0.0631    1.0554   -2.7082 H   0  0  0  0  0  0  0  0  0  0  0  0
   -2.4514    0.8257   -1.7644 H   0  0  0  0  0  0  0  0  0  0  0  0
   -1.7430    2.4352   -1.7352 H   0  0  0  0  0  0  0  0  0  0  0  0
   -2.4514    0.8257    0.6326 H   0  0  0  0  0  0  0  0  0  0  0  0
   -1.7430    2.4352    0.6034 H   0  0  0  0  0  0  0  0  0  0  0  0
    0.0631    1.0554    1.5764 H   0  0  0  0  0  0  0  0  0  0  0  0
    1.6277    1.0260   -0.5659 H   0  0  0  0  0  0  0  0  0  0  0  0
    0.6442    2.5084   -0.5659 H   0  0  0  0  0  0  0  0  0  0  0  0
  1  2  1  0
  1  3  1  0
  1  4  1  0
  1  5  1  0
  2  6  1  0
  2  7  1  0
  8  9  1  0
  8 13  1  0
  8 15  1  0
  8 16  1  0
  9 10  1  0
  9 17  1  0
  9 18  1  0
 10 11  1  0
 10 14  1  0
 10 19  1  0
 11 12  1  0
 11 20  1  0
 11 21  1  0
 12 13  1  0
 12 22  1  0
 12 23  1  0
 13 14  1  0
 13 24  1  0
 14 25  1  0
 14 26  1  0
M  RAD  1   2   2
M  END
>  <reaction>  (15) 
rxn_485

>  <mol_properties>  (15) 
{"0": {"label": "*4", "atom_type": "Cs"}, "1": {"label": "*3", "atom_type": "Cs"}, "7": {"label": "*1", "atom_type": "Cs"}, "8": {"label": "*0", "atom_type": "Cs"}, "14": {"label": "*2", "atom_type": "H0"}}

>  <type>  (15) 
unop_11

>  <geom_source>  (15) 
Heuristics

$$$$

     RDKit          3D

 26 26  0  0  0  0  0  0  0  0999 V2000
    2.6425   -2.3365    0.3251 C   0  0  0  0  0  0  0  0  0  0  0  0
    1.7427   -1.8450    1.4510 C   0  0  0  0  0  3  0  0  0  0  0  0
    3.5364   -2.8248    0.7173 H   0  0  0  0  0  0  0  0  0  0  0  0
    2.9688   -1.5110   -0.3100 H   0  0  0  0  0  0  0  0  0  0  0  0
    2.1242   -3.0571   -0.3100 H   0  0  0  0  0  0  0  0  0  0  0  0
    2.2611   -1.1244    2.0861 H   0  0  0  0  0  0  0  0  0  0  0  0
    1.4165   -2.6705    2.0861 H   0  0  0  0  0  0  0  0  0  0  0  0
   -0.4024   -0.6732    0.5098 C   0  0  0  0  0  0  0  0  0  0  0  0
   -0.4024   -0.6732   -1.0446 C   0  0  0  0  0  0  0  0  0  0  0  0
   -0.4024    0.8238   -1.3925 C   0  0  0  0  0  0  0  0  0  0  0  0
   -1.7816    1.4056   -1.0446 C   0  0  0  0  0  0  0  0  0  0  0  0
   -1.7816    1.4056    0.5098 C   0  0  0  0  0  0  0  0  0  0  0  0
   -0.4024    0.8238    0.8577 C   0  0  0  0  0  0  0  0  0  0  0  0
    0.4672    1.4007   -0.2674 C   0  0  0  0  0  0  0  0  0  0  0  0
    0.6701   -1.2590    0.9804 H   0  0  0  0  0  0  0  0  0  0  0  0
   -1.2669   -1.1885    0.9311 H   0  0  0  0  0  0  0  0  0  0  0  0
    0.4913   -1.1614   -1.4367 H   0  0  0  0  0  0  0  0  0  0  0  0
   -1.2669   -1.1885   -1.4659 H   0  0  0  0  0  0  0  0  0  0  0  0
   -0.0780    1.0390   -2.4097 H   0  0  0  0  0  0  0  0  0  0  0  0
   -2.5924    0.8094   -1.4659 H   0  0  0  0  0  0  0  0  0  0  0  0
   -1.8841    2.4188   -1.4367 H   0  0  0  0  0  0  0  0  0  0  0  0
   -2.5924    0.8094    0.9311 H   0  0  0  0  0  0  0  0  0  0  0  0
   -1.8841    2.4188    0.9019 H   0  0  0  0  0  0  0  0  0  0  0  0
   -0.0780    1.0390    1.8749 H   0  0  0  0  0  0  0  0  0  0  0  0
    1.4867    1.0096   -0.2674 H   0  0  0  0  0  0  0  0  0  0  0  0
    0.5031    2.4921   -0.2674 H   0  0  0  0  0  0  0  0  0  0  0  0
  1  2  1  0
  1  3  1  0
  1  4  1  0
  1  5  1  0
  2  6  1  0
  2  7  1  0
  8  9  1  0
  8 13  1  0
  8 15  1  0
  8 16  1  0
  9 10  1  0
  9 17  1  0
  9 18  1  0
 10 11  1  0
 10 14  1  0
 10 19  1  0
 11 12  1  0
 11 20  1  0
 11 21  1  0
 12 13  1  0
 12 22  1  0
 12 23  1  0
 13 14  1  0
 13 24  1  0
 14 25  1  0
 14 26  1  0
M  RAD  1   2   2
M  END
>  <reaction>  (16) 
rxn_485

>  <mol_properties>  (16) 
{"0": {"label": "*4", "atom_type": "Cs"}, "1": {"label": "*3", "atom_type": "Cs"}, "7": {"label": "*1", "atom_type": "Cs"}, "8": {"label": "*0", "atom_type": "Cs"}, "14": {"label": "*2", "atom_type": "H0"}}

>  <type>  (16) 
unop_12

>  <geom_source>  (16) 
Heuristics

$$$$

     RDKit          3D

 26 26  0  0  0  0  0  0  0  0999 V2000
   -1.9519   -0.2057   -1.0690 C   0  0  0  0  0  0  0  0  0  0  0  0
   -0.8384    1.0007    0.4192 C   0  0  0  0  0  0  0  0  0  0  0  0
   -1.7930    1.2553   -0.7233 C   0  0  0  0  0  0  0  0  0  0  0  0
   -2.4236   -0.7979    0.2717 C   0  0  0  0  0  0  0  0  0  0  0  0
   -1.6420    0.0343    1.3031 C   0  0  0  0  0  0  0  0  0  0  0  0
   -0.4921   -0.6296   -1.3068 C   0  0  0  0  0  0  0  0  0  0  0  0
    3.6942   -0.1749    0.0435 C   0  0  0  0  0  0  0  0  0  0  0  0
    2.4973   -0.3760    0.9559 C   0  0  0  0  0  0  0  0  0  0  0  0
    0.2762    0.1910   -0.2595 C   0  0  0  0  0  3  0  0  0  0  0  0
   -2.6317   -0.4112   -1.9233 H   0  0  0  0  0  0  0  0  0  0  0  0
   -0.4841    1.9126    0.9453 H   0  0  0  0  0  0  0  0  0  0  0  0
   -1.3363    1.8516   -1.5471 H   0  0  0  0  0  0  0  0  0  0  0  0
   -2.7461    1.7322   -0.3962 H   0  0  0  0  0  0  0  0  0  0  0  0
   -2.1927   -1.8824    0.3549 H   0  0  0  0  0  0  0  0  0  0  0  0
   -3.5185   -0.6456    0.3961 H   0  0  0  0  0  0  0  0  0  0  0  0
   -2.3396    0.5997    1.9596 H   0  0  0  0  0  0  0  0  0  0  0  0
   -0.9780   -0.6022    1.9288 H   0  0  0  0  0  0  0  0  0  0  0  0
   -0.3397   -1.7190   -1.1507 H   0  0  0  0  0  0  0  0  0  0  0  0
   -0.1710   -0.3543   -2.3358 H   0  0  0  0  0  0  0  0  0  0  0  0
    3.6008    0.7953   -0.4879 H   0  0  0  0  0  0  0  0  0  0  0  0
    3.7380   -0.9955   -0.7028 H   0  0  0  0  0  0  0  0  0  0  0  0
    4.6294   -0.1751    0.6422 H   0  0  0  0  0  0  0  0  0  0  0  0
    2.4499    0.4449    1.7021 H   0  0  0  0  0  0  0  0  0  0  0  0
    2.5872   -1.3469    1.4871 H   0  0  0  0  0  0  0  0  0  0  0  0
    1.4058   -0.3749    0.2498 H   0  0  0  0  0  0  0  0  0  0  0  0
    0.9999    0.8737   -0.7569 H   0  0  0  0  0  0  0  0  0  0  0  0
  1  6  1  0
  1  4  1  0
  1  3  1  0
  1 10  1  0
  2  9  1  0
  2  5  1  0
  2  3  1  0
  2 11  1  0
  3 12  1  0
  3 13  1  0
  4  5  1  0
  4 14  1  0
  4 15  1  0
  5 16  1  0
  5 17  1  0
  6  9  1  0
  6 18  1  0
  6 19  1  0
  7  8  1  0
  7 20  1  0
  7 21  1  0
  7 22  1  0
  8 23  1  0
  8 24  1  0
  8 25  1  0
  9 26  1  0
M  RAD  1   9   2
M  END
>  <reaction>  (17) 
rxn_485

>  <mol_properties>  (17) 
{"0": {"label": "*4", "atom_type": "Cs"}, "1": {"label": "*3", "atom_type": "Cs"}, "7": {"label": "*1", "atom_type": "Cs"}, "8": {"label": "*0", "atom_type": "Cs"}, "14": {"label": "*2", "atom_type": "H0"}}

>  <type>  (17) 
unop_13

>  <geom_source>  (17) 
AutoTST

$$$$
