
     RDKit          3D

  7  6  0  0  0  0  0  0  0  0999 V2000
   -0.6782    0.0507    0.0301 C   0  0  0  0  0  0  0  0  0  0  0  0
    0.8092    0.0996    0.0213 C   0  0  0  0  0  0  0  0  0  0  0  0
    1.7473    0.7521    1.1507 S   0  0  0  0  0  0  0  0  0  0  0  0
   -1.0667    0.5456   -0.8653 H   0  0  0  0  0  0  0  0  0  0  0  0
   -1.0112   -0.9904   -0.0239 H   0  0  0  0  0  0  0  0  0  0  0  0
   -1.0920    0.5225    0.9188 H   0  0  0  0  0  0  0  0  0  0  0  0
    1.2740   -0.3620   -0.8520 H   0  0  0  0  0  0  0  0  0  0  0  0
  1  2  1  0
  1  4  1  0
  1  5  1  0
  1  6  1  0
  2  3  2  0
  2  7  1  0
M  END
>  <reaction>  (1) 
rxn_1959

>  <mol_properties>  (1) 
{"0": {"label": "donator", "atom_type": "Cs"}, "3": {"label": "d_hydrogen", "atom_type": "H0"}}

>  <type>  (1) 
r1h

$$$$

     RDKit          3D

 12 11  0  0  0  0  0  0  0  0999 V2000
   -2.3791    0.4612   -0.5870 C   0  0  0  0  0  0  0  0  0  0  0  0
   -1.3422   -0.3138   -0.1893 C   0  0  0  0  0  0  0  0  0  0  0  0
   -1.4723   -1.6058    0.3589 C   0  0  0  0  0  3  0  0  0  0  0  0
   -0.3798   -2.3973    0.7671 C   0  0  0  0  0  0  0  0  0  0  0  0
   -0.4849   -3.6397    1.2956 C   0  0  0  0  0  0  0  0  0  0  0  0
   -2.2205    1.4472   -1.0017 H   0  0  0  0  0  0  0  0  0  0  0  0
   -3.4026    0.1153   -0.5011 H   0  0  0  0  0  0  0  0  0  0  0  0
   -0.3330    0.0765   -0.2952 H   0  0  0  0  0  0  0  0  0  0  0  0
   -2.4723   -2.0151    0.4735 H   0  0  0  0  0  0  0  0  0  0  0  0
    0.6117   -1.9687    0.6436 H   0  0  0  0  0  0  0  0  0  0  0  0
    0.3893   -4.2030    1.5920 H   0  0  0  0  0  0  0  0  0  0  0  0
   -1.4516   -4.1084    1.4378 H   0  0  0  0  0  0  0  0  0  0  0  0
  1  2  2  3
  1  6  1  0
  1  7  1  0
  2  3  1  0
  2  8  1  0
  3  4  1  0
  3  9  1  0
  4  5  2  3
  4 10  1  0
  5 11  1  0
  5 12  1  0
M  RAD  1   3   2
M  END
>  <reaction>  (2) 
rxn_1959

>  <mol_properties>  (2) 
{"2": {"label": "acceptor", "atom_type": "Cs"}}

>  <type>  (2) 
r2

$$$$

     RDKit          3D

 13 12  0  0  0  0  0  0  0  0999 V2000
    3.0977   -0.3549   -0.5105 C   0  0  0  0  0  0  0  0  0  0  0  0
    2.0556    0.4221   -0.2627 C   0  0  0  0  0  0  0  0  0  0  0  0
    0.6313   -0.0354   -0.2366 C   0  0  0  0  0  0  0  0  0  0  0  0
   -0.2567    0.6038   -1.2694 C   0  0  0  0  0  0  0  0  0  0  0  0
    0.1459    1.3456   -2.2891 C   0  0  0  0  0  0  0  0  0  0  0  0
    4.1081    0.0344   -0.5074 H   0  0  0  0  0  0  0  0  0  0  0  0
    2.9777   -1.4116   -0.7243 H   0  0  0  0  0  0  0  0  0  0  0  0
    2.2171    1.4781   -0.0618 H   0  0  0  0  0  0  0  0  0  0  0  0
    0.5865   -1.1233   -0.3540 H   0  0  0  0  0  0  0  0  0  0  0  0
    0.2065    0.1743    0.7521 H   0  0  0  0  0  0  0  0  0  0  0  0
   -1.3190    0.4126   -1.1445 H   0  0  0  0  0  0  0  0  0  0  0  0
    1.1948    1.5564   -2.4628 H   0  0  0  0  0  0  0  0  0  0  0  0
   -0.5644    1.7621   -2.9918 H   0  0  0  0  0  0  0  0  0  0  0  0
  1  2  2  3
  1  6  1  0
  1  7  1  0
  2  3  1  0
  2  8  1  0
  3  4  1  0
  3  9  1  0
  3 10  1  0
  4  5  2  3
  4 11  1  0
  5 12  1  0
  5 13  1  0
M  END
>  <reaction>  (3) 
rxn_1959

>  <mol_properties>  (3) 
{"2": {"label": "acceptor", "atom_type": "Cs"}, "12": {"label": "a_hydrogen", "atom_type": "H0"}}

>  <type>  (3) 
r2h

$$$$

     RDKit          3D

 19 17  0  0  0  0  0  0  0  0999 V2000
   -0.9620   -1.9563    1.8030 C   0  0  0  0  0  0  0  0  0  0  0  0
   -1.3315   -0.7498    1.3690 C   0  0  0  0  0  0  0  0  0  0  0  0
   -0.6698    0.4875    1.7671 C   0  0  0  0  0  0  0  0  0  0  0  0
   -1.3059    1.7878    1.5113 C   0  0  0  0  0  0  0  0  0  0  0  0
   -2.0016    2.0959    0.4182 C   0  0  0  0  0  0  0  0  0  0  0  0
   -1.4573   -2.8540    1.4584 H   0  0  0  0  0  0  0  0  0  0  0  0
   -0.1580   -2.0783    2.5207 H   0  0  0  0  0  0  0  0  0  0  0  0
   -2.1323   -0.6728    0.6421 H   0  0  0  0  0  0  0  0  0  0  0  0
   -0.1525    0.4202    2.7225 H   0  0  0  0  0  0  0  0  0  0  0  0
   -1.1375    2.5571    2.2581 H   0  0  0  0  0  0  0  0  0  0  0  0
   -2.4247    3.0831    0.2876 H   0  0  0  0  0  0  0  0  0  0  0  0
   -2.1565    1.3837   -0.3845 H   0  0  0  0  0  0  0  0  0  0  0  0
    1.3655    0.5430    0.0000 C   0  0  0  0  0  0  0  0  0  0  0  0
    1.1843   -0.6530   -0.7361 C   0  0  0  0  0  0  0  0  0  0  0  0
    0.0786   -0.8516   -1.9382 S   0  0  0  0  0  1  0  0  0  0  0  0
    0.3866    0.4873    0.9539 H   0  0  0  0  0  0  0  0  0  0  0  0
    2.2598    0.6312    0.6112 H   0  0  0  0  0  0  0  0  0  0  0  0
    1.0122    1.4639   -0.4563 H   0  0  0  0  0  0  0  0  0  0  0  0
    1.7816   -1.5100   -0.4290 H   0  0  0  0  0  0  0  0  0  0  0  0
  1  2  2  3
  1  6  1  0
  1  7  1  0
  2  3  1  0
  2  8  1  0
  3  4  1  0
  3  9  1  0
  3 16  1  0
  4  5  2  3
  4 10  1  0
  5 11  1  0
  5 12  1  0
 13 14  2  3
 13 17  1  0
 13 18  1  0
 14 15  1  0
 14 19  1  0
M  RAD  1  15   2
M  END
>  <reaction>  (4) 
rxn_1959

>  <mol_properties>  (4) 
{"1": {"label": "*0", "atom_type": "Cd"}, "2": {"label": "*1", "atom_type": "Cs"}, "12": {"label": "*3", "atom_type": "Cd"}, "13": {"label": "*4", "atom_type": "Cd"}, "15": {"label": "*2", "atom_type": "H0"}}

>  <type>  (4) 
ts

$$$$

     RDKit          3D

 19 17  0  0  0  0  0  0  0  0999 V2000
    0.0826    1.4544    3.1307 C   0  0  0  0  0  0  0  0  0  0  0  0
   -0.2685    0.3865    2.4326 C   0  0  0  0  0  0  0  0  0  0  0  0
   -0.7251    0.4048    1.0078 C   0  0  0  0  0  3  0  0  0  0  0  0
   -2.1320   -0.0814    0.7890 C   0  0  0  0  0  0  0  0  0  0  0  0
   -3.0302   -0.3136    1.7332 C   0  0  0  0  0  0  0  0  0  0  0  0
    0.4130    1.3757    4.1589 H   0  0  0  0  0  0  0  0  0  0  0  0
    0.0540    2.4485    2.6973 H   0  0  0  0  0  0  0  0  0  0  0  0
   -0.2346   -0.5914    2.9059 H   0  0  0  0  0  0  0  0  0  0  0  0
   -0.6313    1.4164    0.5989 H   0  0  0  0  0  0  0  0  0  0  0  0
   -2.4083   -0.2378   -0.2502 H   0  0  0  0  0  0  0  0  0  0  0  0
   -4.0264   -0.6566    1.4846 H   0  0  0  0  0  0  0  0  0  0  0  0
   -2.8069   -0.1627    2.7831 H   0  0  0  0  0  0  0  0  0  0  0  0
    1.3794    0.4694   -0.5661 C   0  0  0  0  0  0  0  0  0  0  0  0
    1.3794   -0.7290   -1.4483 C   0  0  0  0  0  0  0  0  0  0  0  0
    1.3794   -0.7290   -3.0550 S   0  0  0  0  0  0  0  0  0  0  0  0
    0.3281    0.4372    0.2202 H   0  0  0  0  0  0  0  0  0  0  0  0
    2.2556    0.4426    0.0891 H   0  0  0  0  0  0  0  0  0  0  0  0
    1.3794    1.3932   -1.1408 H   0  0  0  0  0  0  0  0  0  0  0  0
    1.3794   -1.6835   -0.9184 H   0  0  0  0  0  0  0  0  0  0  0  0
  1  2  2  3
  1  6  1  0
  1  7  1  0
  2  3  1  0
  2  8  1  0
  3  4  1  0
  3  9  1  0
  4  5  2  3
  4 10  1  0
  5 11  1  0
  5 12  1  0
 13 14  1  0
 13 16  1  0
 13 17  1  0
 13 18  1  0
 14 15  2  0
 14 19  1  0
M  RAD  1   3   2
M  END
>  <reaction>  (5) 
rxn_1959

>  <mol_properties>  (5) 
{"1": {"label": "*0", "atom_type": "Cd"}, "2": {"label": "*1", "atom_type": "Cs"}, "12": {"label": "*3", "atom_type": "Cd"}, "13": {"label": "*4", "atom_type": "Cd"}, "15": {"label": "*2", "atom_type": "H0"}}

>  <type>  (5) 
unop_1

>  <geom_source>  (5) 
Heuristics

$$$$

     RDKit          3D

 19 17  0  0  0  0  0  0  0  0999 V2000
   -0.6545   -1.4748    2.6734 C   0  0  0  0  0  0  0  0  0  0  0  0
   -0.9171   -0.8202    1.5538 C   0  0  0  0  0  0  0  0  0  0  0  0
   -0.5505    0.6058    1.2875 C   0  0  0  0  0  3  0  0  0  0  0  0
   -1.7184    1.5262    1.0581 C   0  0  0  0  0  0  0  0  0  0  0  0
   -2.9918    1.2347    1.2720 C   0  0  0  0  0  0  0  0  0  0  0  0
   -0.9390   -2.5114    2.8036 H   0  0  0  0  0  0  0  0  0  0  0  0
   -0.1424   -0.9968    3.5017 H   0  0  0  0  0  0  0  0  0  0  0  0
   -1.4402   -1.3321    0.7501 H   0  0  0  0  0  0  0  0  0  0  0  0
    0.0527    0.9966    2.1138 H   0  0  0  0  0  0  0  0  0  0  0  0
   -1.4592    2.5159    0.6923 H   0  0  0  0  0  0  0  0  0  0  0  0
   -3.7707    1.9632    1.0859 H   0  0  0  0  0  0  0  0  0  0  0  0
   -3.3006    0.2654    1.6462 H   0  0  0  0  0  0  0  0  0  0  0  0
    1.5541    0.6704   -0.2864 C   0  0  0  0  0  0  0  0  0  0  0  0
    1.5541   -0.5280   -1.1686 C   0  0  0  0  0  0  0  0  0  0  0  0
    1.5541   -0.5280   -2.7753 S   0  0  0  0  0  0  0  0  0  0  0  0
    0.5027    0.6382    0.4999 H   0  0  0  0  0  0  0  0  0  0  0  0
    2.4302    0.6436    0.3688 H   0  0  0  0  0  0  0  0  0  0  0  0
    1.5541    1.5942   -0.8611 H   0  0  0  0  0  0  0  0  0  0  0  0
    1.5541   -1.4825   -0.6387 H   0  0  0  0  0  0  0  0  0  0  0  0
  1  2  2  3
  1  6  1  0
  1  7  1  0
  2  3  1  0
  2  8  1  0
  3  4  1  0
  3  9  1  0
  4  5  2  3
  4 10  1  0
  5 11  1  0
  5 12  1  0
 13 14  1  0
 13 16  1  0
 13 17  1  0
 13 18  1  0
 14 15  2  0
 14 19  1  0
M  RAD  1   3   2
M  END
>  <reaction>  (6) 
rxn_1959

>  <mol_properties>  (6) 
{"1": {"label": "*0", "atom_type": "Cd"}, "2": {"label": "*1", "atom_type": "Cs"}, "12": {"label": "*3", "atom_type": "Cd"}, "13": {"label": "*4", "atom_type": "Cd"}, "15": {"label": "*2", "atom_type": "H0"}}

>  <type>  (6) 
unop_2

>  <geom_source>  (6) 
Heuristics

$$$$

     RDKit          3D

 19 17  0  0  0  0  0  0  0  0999 V2000
   -0.6407    2.3390    2.5456 C   0  0  0  0  0  0  0  0  0  0  0  0
   -0.4066    1.0626    2.2869 C   0  0  0  0  0  0  0  0  0  0  0  0
   -0.7376    0.3731    1.0009 C   0  0  0  0  0  3  0  0  0  0  0  0
   -1.7336   -0.7480    1.1233 C   0  0  0  0  0  0  0  0  0  0  0  0
   -2.4667   -1.0237    2.1904 C   0  0  0  0  0  0  0  0  0  0  0  0
   -0.3701    2.7835    3.4952 H   0  0  0  0  0  0  0  0  0  0  0  0
   -1.1111    2.9877    1.8143 H   0  0  0  0  0  0  0  0  0  0  0  0
    0.0587    0.4434    3.0495 H   0  0  0  0  0  0  0  0  0  0  0  0
   -1.1099    1.1009    0.2723 H   0  0  0  0  0  0  0  0  0  0  0  0
   -1.8450   -1.3634    0.2348 H   0  0  0  0  0  0  0  0  0  0  0  0
   -3.1674   -1.8489    2.1890 H   0  0  0  0  0  0  0  0  0  0  0  0
   -2.4000   -0.4334    3.0970 H   0  0  0  0  0  0  0  0  0  0  0  0
    1.3669    0.4377   -0.5731 C   0  0  0  0  0  0  0  0  0  0  0  0
    1.3669   -0.7608   -1.4553 C   0  0  0  0  0  0  0  0  0  0  0  0
    1.3669   -0.7608   -3.0619 S   0  0  0  0  0  0  0  0  0  0  0  0
    0.3156    0.4054    0.2132 H   0  0  0  0  0  0  0  0  0  0  0  0
    2.2431    0.4108    0.0822 H   0  0  0  0  0  0  0  0  0  0  0  0
    1.3669    1.3615   -1.1477 H   0  0  0  0  0  0  0  0  0  0  0  0
    1.3669   -1.7152   -0.9253 H   0  0  0  0  0  0  0  0  0  0  0  0
  1  2  2  3
  1  6  1  0
  1  7  1  0
  2  3  1  0
  2  8  1  0
  3  4  1  0
  3  9  1  0
  4  5  2  3
  4 10  1  0
  5 11  1  0
  5 12  1  0
 13 14  1  0
 13 16  1  0
 13 17  1  0
 13 18  1  0
 14 15  2  0
 14 19  1  0
M  RAD  1   3   2
M  END
>  <reaction>  (7) 
rxn_1959

>  <mol_properties>  (7) 
{"1": {"label": "*0", "atom_type": "Cd"}, "2": {"label": "*1", "atom_type": "Cs"}, "12": {"label": "*3", "atom_type": "Cd"}, "13": {"label": "*4", "atom_type": "Cd"}, "15": {"label": "*2", "atom_type": "H0"}}

>  <type>  (7) 
unop_3

>  <geom_source>  (7) 
Heuristics

$$$$

     RDKit          3D

 19 17  0  0  0  0  0  0  0  0999 V2000
   -3.0294   -0.4967    1.0428 C   0  0  0  0  0  0  0  0  0  0  0  0
   -1.8694    0.0277    0.6817 C   0  0  0  0  0  0  0  0  0  0  0  0
   -0.6315    0.0334    1.5221 C   0  0  0  0  0  3  0  0  0  0  0  0
   -0.1281    1.4010    1.8962 C   0  0  0  0  0  0  0  0  0  0  0  0
   -0.7786    2.5416    1.7288 C   0  0  0  0  0  0  0  0  0  0  0  0
   -3.8894   -0.4767    0.3853 H   0  0  0  0  0  0  0  0  0  0  0  0
   -3.1605   -0.9680    2.0111 H   0  0  0  0  0  0  0  0  0  0  0  0
   -1.7810    0.4990   -0.2939 H   0  0  0  0  0  0  0  0  0  0  0  0
   -0.7984   -0.5459    2.4363 H   0  0  0  0  0  0  0  0  0  0  0  0
    0.8583    1.4195    2.3515 H   0  0  0  0  0  0  0  0  0  0  0  0
   -0.3423    3.4839    2.0350 H   0  0  0  0  0  0  0  0  0  0  0  0
   -1.7688    2.5750    1.2893 H   0  0  0  0  0  0  0  0  0  0  0  0
    1.4730    0.0980   -0.0519 C   0  0  0  0  0  0  0  0  0  0  0  0
    1.4730   -1.1005   -0.9341 C   0  0  0  0  0  0  0  0  0  0  0  0
    1.4730   -1.1005   -2.5407 S   0  0  0  0  0  0  0  0  0  0  0  0
    0.4217    0.0657    0.7344 H   0  0  0  0  0  0  0  0  0  0  0  0
    2.3492    0.0711    0.6034 H   0  0  0  0  0  0  0  0  0  0  0  0
    1.4730    1.0218   -0.6265 H   0  0  0  0  0  0  0  0  0  0  0  0
    1.4730   -2.0549   -0.4041 H   0  0  0  0  0  0  0  0  0  0  0  0
  1  2  2  3
  1  6  1  0
  1  7  1  0
  2  3  1  0
  2  8  1  0
  3  4  1  0
  3  9  1  0
  4  5  2  3
  4 10  1  0
  5 11  1  0
  5 12  1  0
 13 14  1  0
 13 16  1  0
 13 17  1  0
 13 18  1  0
 14 15  2  0
 14 19  1  0
M  RAD  1   3   2
M  END
>  <reaction>  (8) 
rxn_1959

>  <mol_properties>  (8) 
{"1": {"label": "*0", "atom_type": "Cd"}, "2": {"label": "*1", "atom_type": "Cs"}, "12": {"label": "*3", "atom_type": "Cd"}, "13": {"label": "*4", "atom_type": "Cd"}, "15": {"label": "*2", "atom_type": "H0"}}

>  <type>  (8) 
unop_4

>  <geom_source>  (8) 
Heuristics

$$$$

     RDKit          3D

 19 17  0  0  0  0  0  0  0  0999 V2000
   -1.8097    2.4559    1.8854 C   0  0  0  0  0  0  0  0  0  0  0  0
   -0.8512    1.5451    1.8338 C   0  0  0  0  0  0  0  0  0  0  0  0
   -0.8634    0.3357    0.9529 C   0  0  0  0  0  3  0  0  0  0  0  0
   -0.8567   -0.9790    1.6846 C   0  0  0  0  0  0  0  0  0  0  0  0
   -1.0462   -1.1466    2.9839 C   0  0  0  0  0  0  0  0  0  0  0  0
   -1.7394    3.3159    2.5395 H   0  0  0  0  0  0  0  0  0  0  0  0
   -2.7010    2.3750    1.2722 H   0  0  0  0  0  0  0  0  0  0  0  0
    0.0223    1.6575    2.4709 H   0  0  0  0  0  0  0  0  0  0  0  0
   -1.7325    0.3673    0.2875 H   0  0  0  0  0  0  0  0  0  0  0  0
   -0.6877   -1.8521    1.0603 H   0  0  0  0  0  0  0  0  0  0  0  0
   -1.0322   -2.1339    3.4278 H   0  0  0  0  0  0  0  0  0  0  0  0
   -1.2290   -0.3090    3.6470 H   0  0  0  0  0  0  0  0  0  0  0  0
    1.2412    0.4003   -0.6210 C   0  0  0  0  0  0  0  0  0  0  0  0
    1.2412   -0.7982   -1.5032 C   0  0  0  0  0  0  0  0  0  0  0  0
    1.2412   -0.7982   -3.1099 S   0  0  0  0  0  0  0  0  0  0  0  0
    0.1898    0.3680    0.1652 H   0  0  0  0  0  0  0  0  0  0  0  0
    2.1173    0.3734    0.0342 H   0  0  0  0  0  0  0  0  0  0  0  0
    1.2412    1.3241   -1.1957 H   0  0  0  0  0  0  0  0  0  0  0  0
    1.2412   -1.7526   -0.9733 H   0  0  0  0  0  0  0  0  0  0  0  0
  1  2  2  3
  1  6  1  0
  1  7  1  0
  2  3  1  0
  2  8  1  0
  3  4  1  0
  3  9  1  0
  4  5  2  3
  4 10  1  0
  5 11  1  0
  5 12  1  0
 13 14  1  0
 13 16  1  0
 13 17  1  0
 13 18  1  0
 14 15  2  0
 14 19  1  0
M  RAD  1   3   2
M  END
>  <reaction>  (9) 
rxn_1959

>  <mol_properties>  (9) 
{"1": {"label": "*0", "atom_type": "Cd"}, "2": {"label": "*1", "atom_type": "Cs"}, "12": {"label": "*3", "atom_type": "Cd"}, "13": {"label": "*4", "atom_type": "Cd"}, "15": {"label": "*2", "atom_type": "H0"}}

>  <type>  (9) 
unop_5

>  <geom_source>  (9) 
Heuristics

$$$$

     RDKit          3D

 19 17  0  0  0  0  0  0  0  0999 V2000
   -3.2073    0.4667    1.0047 C   0  0  0  0  0  0  0  0  0  0  0  0
   -1.9294    0.6250    0.6998 C   0  0  0  0  0  0  0  0  0  0  0  0
   -0.7930   -0.0755    1.3755 C   0  0  0  0  0  3  0  0  0  0  0  0
    0.1763    0.8311    2.0842 C   0  0  0  0  0  0  0  0  0  0  0  0
   -0.0003    2.1202    2.3273 C   0  0  0  0  0  0  0  0  0  0  0  0
   -3.9867    0.9974    0.4723 H   0  0  0  0  0  0  0  0  0  0  0  0
   -3.5211   -0.2025    1.7988 H   0  0  0  0  0  0  0  0  0  0  0  0
   -1.6552    1.3119   -0.0968 H   0  0  0  0  0  0  0  0  0  0  0  0
   -1.1793   -0.8102    2.0899 H   0  0  0  0  0  0  0  0  0  0  0  0
    1.0907    0.3520    2.4231 H   0  0  0  0  0  0  0  0  0  0  0  0
    0.7497    2.6977    2.8525 H   0  0  0  0  0  0  0  0  0  0  0  0
   -0.8993    2.6415    2.0191 H   0  0  0  0  0  0  0  0  0  0  0  0
    1.3115   -0.0109   -0.1984 C   0  0  0  0  0  0  0  0  0  0  0  0
    1.3115   -1.2094   -1.0806 C   0  0  0  0  0  0  0  0  0  0  0  0
    1.3115   -1.2094   -2.6873 S   0  0  0  0  0  0  0  0  0  0  0  0
    0.2602   -0.0432    0.5879 H   0  0  0  0  0  0  0  0  0  0  0  0
    2.1877   -0.0378    0.4568 H   0  0  0  0  0  0  0  0  0  0  0  0
    1.3115    0.9129   -0.7731 H   0  0  0  0  0  0  0  0  0  0  0  0
    1.3115   -2.1638   -0.5507 H   0  0  0  0  0  0  0  0  0  0  0  0
  1  2  2  3
  1  6  1  0
  1  7  1  0
  2  3  1  0
  2  8  1  0
  3  4  1  0
  3  9  1  0
  4  5  2  3
  4 10  1  0
  5 11  1  0
  5 12  1  0
 13 14  1  0
 13 16  1  0
 13 17  1  0
 13 18  1  0
 14 15  2  0
 14 19  1  0
M  RAD  1   3   2
M  END
>  <reaction>  (10) 
rxn_1959

>  <mol_properties>  (10) 
{"1": {"label": "*0", "atom_type": "Cd"}, "2": {"label": "*1", "atom_type": "Cs"}, "12": {"label": "*3", "atom_type": "Cd"}, "13": {"label": "*4", "atom_type": "Cd"}, "15": {"label": "*2", "atom_type": "H0"}}

>  <type>  (10) 
unop_6

>  <geom_source>  (10) 
Heuristics

$$$$

     RDKit          3D

 19 17  0  0  0  0  0  0  0  0999 V2000
   -3.0558    1.2926    1.2392 C   0  0  0  0  0  0  0  0  0  0  0  0
   -1.7754    1.1737    0.9273 C   0  0  0  0  0  0  0  0  0  0  0  0
   -0.9403   -0.0421    1.1790 C   0  0  0  0  0  3  0  0  0  0  0  0
    0.2181    0.1700    2.1154 C   0  0  0  0  0  0  0  0  0  0  0  0
    0.4255    1.2405    2.8659 C   0  0  0  0  0  0  0  0  0  0  0  0
   -3.6098    2.1976    1.0237 H   0  0  0  0  0  0  0  0  0  0  0  0
   -3.5983    0.4860    1.7210 H   0  0  0  0  0  0  0  0  0  0  0  0
   -1.2651    2.0082    0.4533 H   0  0  0  0  0  0  0  0  0  0  0  0
   -1.5672   -0.8516    1.5674 H   0  0  0  0  0  0  0  0  0  0  0  0
    0.9265   -0.6525    2.1646 H   0  0  0  0  0  0  0  0  0  0  0  0
    1.2857    1.3065    3.5198 H   0  0  0  0  0  0  0  0  0  0  0  0
   -0.2571    2.0825    2.8604 H   0  0  0  0  0  0  0  0  0  0  0  0
    1.1643    0.0225   -0.3949 C   0  0  0  0  0  0  0  0  0  0  0  0
    1.1643   -1.1759   -1.2771 C   0  0  0  0  0  0  0  0  0  0  0  0
    1.1643   -1.1759   -2.8838 S   0  0  0  0  0  0  0  0  0  0  0  0
    0.1129   -0.0097    0.3914 H   0  0  0  0  0  0  0  0  0  0  0  0
    2.0404   -0.0043    0.2603 H   0  0  0  0  0  0  0  0  0  0  0  0
    1.1643    0.9463   -0.9696 H   0  0  0  0  0  0  0  0  0  0  0  0
    1.1643   -2.1303   -0.7472 H   0  0  0  0  0  0  0  0  0  0  0  0
  1  2  2  3
  1  6  1  0
  1  7  1  0
  2  3  1  0
  2  8  1  0
  3  4  1  0
  3  9  1  0
  4  5  2  3
  4 10  1  0
  5 11  1  0
  5 12  1  0
 13 14  1  0
 13 16  1  0
 13 17  1  0
 13 18  1  0
 14 15  2  0
 14 19  1  0
M  RAD  1   3   2
M  END
>  <reaction>  (11) 
rxn_1959

>  <mol_properties>  (11) 
{"1": {"label": "*0", "atom_type": "Cd"}, "2": {"label": "*1", "atom_type": "Cs"}, "12": {"label": "*3", "atom_type": "Cd"}, "13": {"label": "*4", "atom_type": "Cd"}, "15": {"label": "*2", "atom_type": "H0"}}

>  <type>  (11) 
unop_7

>  <geom_source>  (11) 
Heuristics

$$$$

     RDKit          3D

 19 17  0  0  0  0  0  0  0  0999 V2000
    0.2650    0.3159    3.3251 C   0  0  0  0  0  0  0  0  0  0  0  0
   -0.3570   -0.2235    2.2892 C   0  0  0  0  0  0  0  0  0  0  0  0
   -0.7121    0.5010    1.0292 C   0  0  0  0  0  3  0  0  0  0  0  0
   -2.1869    0.5872    0.7442 C   0  0  0  0  0  0  0  0  0  0  0  0
   -3.1608    0.2745    1.5843 C   0  0  0  0  0  0  0  0  0  0  0  0
    0.5022   -0.2639    4.2083 H   0  0  0  0  0  0  0  0  0  0  0  0
    0.5619    1.3594    3.3265 H   0  0  0  0  0  0  0  0  0  0  0  0
   -0.6460   -1.2706    2.3304 H   0  0  0  0  0  0  0  0  0  0  0  0
   -0.2947    1.5132    1.0504 H   0  0  0  0  0  0  0  0  0  0  0  0
   -2.4434    0.9517   -0.2468 H   0  0  0  0  0  0  0  0  0  0  0  0
   -4.1999    0.3743    1.2974 H   0  0  0  0  0  0  0  0  0  0  0  0
   -2.9570   -0.0833    2.5870 H   0  0  0  0  0  0  0  0  0  0  0  0
    1.3924    0.5656   -0.5448 C   0  0  0  0  0  0  0  0  0  0  0  0
    1.3924   -0.6329   -1.4270 C   0  0  0  0  0  0  0  0  0  0  0  0
    1.3924   -0.6329   -3.0337 S   0  0  0  0  0  0  0  0  0  0  0  0
    0.3411    0.5333    0.2415 H   0  0  0  0  0  0  0  0  0  0  0  0
    2.2686    0.5387    0.1104 H   0  0  0  0  0  0  0  0  0  0  0  0
    1.3924    1.4894   -1.1195 H   0  0  0  0  0  0  0  0  0  0  0  0
    1.3924   -1.5873   -0.8971 H   0  0  0  0  0  0  0  0  0  0  0  0
  1  2  2  3
  1  6  1  0
  1  7  1  0
  2  3  1  0
  2  8  1  0
  3  4  1  0
  3  9  1  0
  4  5  2  3
  4 10  1  0
  5 11  1  0
  5 12  1  0
 13 14  1  0
 13 16  1  0
 13 17  1  0
 13 18  1  0
 14 15  2  0
 14 19  1  0
M  RAD  1   3   2
M  END
>  <reaction>  (12) 
rxn_1959

>  <mol_properties>  (12) 
{"1": {"label": "*0", "atom_type": "Cd"}, "2": {"label": "*1", "atom_type": "Cs"}, "12": {"label": "*3", "atom_type": "Cd"}, "13": {"label": "*4", "atom_type": "Cd"}, "15": {"label": "*2", "atom_type": "H0"}}

>  <type>  (12) 
unop_8

>  <geom_source>  (12) 
Heuristics

$$$$

     RDKit          3D

 19 17  0  0  0  0  0  0  0  0999 V2000
   -2.4502   -1.3325    1.4290 C   0  0  0  0  0  0  0  0  0  0  0  0
   -1.6245   -0.4692    0.8600 C   0  0  0  0  0  0  0  0  0  0  0  0
   -0.5121    0.2443    1.5616 C   0  0  0  0  0  3  0  0  0  0  0  0
   -0.6440    1.7427    1.5943 C   0  0  0  0  0  0  0  0  0  0  0  0
   -1.7192    2.4362    1.2547 C   0  0  0  0  0  0  0  0  0  0  0  0
   -3.2330   -1.8240    0.8648 H   0  0  0  0  0  0  0  0  0  0  0  0
   -2.3718   -1.5810    2.4820 H   0  0  0  0  0  0  0  0  0  0  0  0
   -1.7415   -0.2401   -0.1961 H   0  0  0  0  0  0  0  0  0  0  0  0
   -0.4195   -0.1265    2.5878 H   0  0  0  0  0  0  0  0  0  0  0  0
    0.2374    2.2747    1.9418 H   0  0  0  0  0  0  0  0  0  0  0  0
   -1.7294    3.5170    1.3160 H   0  0  0  0  0  0  0  0  0  0  0  0
   -2.6263    1.9518    0.9122 H   0  0  0  0  0  0  0  0  0  0  0  0
    1.5925    0.3089   -0.0123 C   0  0  0  0  0  0  0  0  0  0  0  0
    1.5925   -0.8895   -0.8945 C   0  0  0  0  0  0  0  0  0  0  0  0
    1.5925   -0.8895   -2.5012 S   0  0  0  0  0  0  0  0  0  0  0  0
    0.5411    0.2766    0.7740 H   0  0  0  0  0  0  0  0  0  0  0  0
    2.4686    0.2820    0.6429 H   0  0  0  0  0  0  0  0  0  0  0  0
    1.5925    1.2327   -0.5870 H   0  0  0  0  0  0  0  0  0  0  0  0
    1.5925   -1.8440   -0.3646 H   0  0  0  0  0  0  0  0  0  0  0  0
  1  2  2  3
  1  6  1  0
  1  7  1  0
  2  3  1  0
  2  8  1  0
  3  4  1  0
  3  9  1  0
  4  5  2  3
  4 10  1  0
  5 11  1  0
  5 12  1  0
 13 14  1  0
 13 16  1  0
 13 17  1  0
 13 18  1  0
 14 15  2  0
 14 19  1  0
M  RAD  1   3   2
M  END
>  <reaction>  (13) 
rxn_1959

>  <mol_properties>  (13) 
{"1": {"label": "*0", "atom_type": "Cd"}, "2": {"label": "*1", "atom_type": "Cs"}, "12": {"label": "*3", "atom_type": "Cd"}, "13": {"label": "*4", "atom_type": "Cd"}, "15": {"label": "*2", "atom_type": "H0"}}

>  <type>  (13) 
unop_9

>  <geom_source>  (13) 
Heuristics

$$$$

     RDKit          3D

 19 17  0  0  0  0  0  0  0  0999 V2000
   -0.0055   -0.7365    3.1384 C   0  0  0  0  0  0  0  0  0  0  0  0
   -0.5953   -0.6425    1.9576 C   0  0  0  0  0  0  0  0  0  0  0  0
   -0.6491    0.5972    1.1216 C   0  0  0  0  0  3  0  0  0  0  0  0
   -2.0337    1.1286    0.8680 C   0  0  0  0  0  0  0  0  0  0  0  0
   -3.1423    0.7295    1.4712 C   0  0  0  0  0  0  0  0  0  0  0  0
    0.0066   -1.6662    3.6933 H   0  0  0  0  0  0  0  0  0  0  0  0
    0.4895    0.1150    3.5931 H   0  0  0  0  0  0  0  0  0  0  0  0
   -1.0884   -1.5166    1.5399 H   0  0  0  0  0  0  0  0  0  0  0  0
   -0.0453    1.3853    1.5836 H   0  0  0  0  0  0  0  0  0  0  0  0
   -2.0944    1.9173    0.1231 H   0  0  0  0  0  0  0  0  0  0  0  0
   -4.0999    1.1738    1.2315 H   0  0  0  0  0  0  0  0  0  0  0  0
   -3.1329   -0.0461    2.2283 H   0  0  0  0  0  0  0  0  0  0  0  0
    1.4554    0.6618   -0.4524 C   0  0  0  0  0  0  0  0  0  0  0  0
    1.4554   -0.5367   -1.3345 C   0  0  0  0  0  0  0  0  0  0  0  0
    1.4554   -0.5367   -2.9412 S   0  0  0  0  0  0  0  0  0  0  0  0
    0.4041    0.6295    0.3339 H   0  0  0  0  0  0  0  0  0  0  0  0
    2.3316    0.6349    0.2029 H   0  0  0  0  0  0  0  0  0  0  0  0
    1.4554    1.5856   -1.0270 H   0  0  0  0  0  0  0  0  0  0  0  0
    1.4554   -1.4911   -0.8046 H   0  0  0  0  0  0  0  0  0  0  0  0
  1  2  2  3
  1  6  1  0
  1  7  1  0
  2  3  1  0
  2  8  1  0
  3  4  1  0
  3  9  1  0
  4  5  2  3
  4 10  1  0
  5 11  1  0
  5 12  1  0
 13 14  1  0
 13 16  1  0
 13 17  1  0
 13 18  1  0
 14 15  2  0
 14 19  1  0
M  RAD  1   3   2
M  END
>  <reaction>  (14) 
rxn_1959

>  <mol_properties>  (14) 
{"1": {"label": "*0", "atom_type": "Cd"}, "2": {"label": "*1", "atom_type": "Cs"}, "12": {"label": "*3", "atom_type": "Cd"}, "13": {"label": "*4", "atom_type": "Cd"}, "15": {"label": "*2", "atom_type": "H0"}}

>  <type>  (14) 
unop_10

>  <geom_source>  (14) 
Heuristics

$$$$

     RDKit          3D

 19 17  0  0  0  0  0  0  0  0999 V2000
   -2.6505    1.9272    1.5471 C   0  0  0  0  0  0  0  0  0  0  0  0
   -1.4066    1.5365    1.3214 C   0  0  0  0  0  0  0  0  0  0  0  0
   -0.9919    0.1345    1.0033 C   0  0  0  0  0  3  0  0  0  0  0  0
   -0.0694   -0.4955    2.0112 C   0  0  0  0  0  0  0  0  0  0  0  0
    0.2230   -0.0104    3.2075 C   0  0  0  0  0  0  0  0  0  0  0  0
   -2.8891    2.9606    1.7650 H   0  0  0  0  0  0  0  0  0  0  0  0
   -3.4777    1.2258    1.5202 H   0  0  0  0  0  0  0  0  0  0  0  0
   -0.6042    2.2685    1.3662 H   0  0  0  0  0  0  0  0  0  0  0  0
   -1.8773   -0.4993    0.8873 H   0  0  0  0  0  0  0  0  0  0  0  0
    0.3739   -1.4384    1.7028 H   0  0  0  0  0  0  0  0  0  0  0  0
    0.8943   -0.5358    3.8748 H   0  0  0  0  0  0  0  0  0  0  0  0
   -0.2014    0.9206    3.5655 H   0  0  0  0  0  0  0  0  0  0  0  0
    1.1127    0.1991   -0.5707 C   0  0  0  0  0  0  0  0  0  0  0  0
    1.1127   -0.9993   -1.4528 C   0  0  0  0  0  0  0  0  0  0  0  0
    1.1127   -0.9993   -3.0595 S   0  0  0  0  0  0  0  0  0  0  0  0
    0.0613    0.1669    0.2156 H   0  0  0  0  0  0  0  0  0  0  0  0
    1.9888    0.1723    0.0846 H   0  0  0  0  0  0  0  0  0  0  0  0
    1.1127    1.1229   -1.1453 H   0  0  0  0  0  0  0  0  0  0  0  0
    1.1127   -1.9538   -0.9229 H   0  0  0  0  0  0  0  0  0  0  0  0
  1  2  2  3
  1  6  1  0
  1  7  1  0
  2  3  1  0
  2  8  1  0
  3  4  1  0
  3  9  1  0
  4  5  2  3
  4 10  1  0
  5 11  1  0
  5 12  1  0
 13 14  1  0
 13 16  1  0
 13 17  1  0
 13 18  1  0
 14 15  2  0
 14 19  1  0
M  RAD  1   3   2
M  END
>  <reaction>  (15) 
rxn_1959

>  <mol_properties>  (15) 
{"1": {"label": "*0", "atom_type": "Cd"}, "2": {"label": "*1", "atom_type": "Cs"}, "12": {"label": "*3", "atom_type": "Cd"}, "13": {"label": "*4", "atom_type": "Cd"}, "15": {"label": "*2", "atom_type": "H0"}}

>  <type>  (15) 
unop_11

>  <geom_source>  (15) 
Heuristics

$$$$

     RDKit          3D

 19 17  0  0  0  0  0  0  0  0999 V2000
   -1.5602   -1.7095    2.0481 C   0  0  0  0  0  0  0  0  0  0  0  0
   -1.2765   -0.7605    1.1706 C   0  0  0  0  0  0  0  0  0  0  0  0
   -0.4830    0.4729    1.4671 C   0  0  0  0  0  3  0  0  0  0  0  0
   -1.2343    1.7647    1.2924 C   0  0  0  0  0  0  0  0  0  0  0  0
   -2.5399    1.8864    1.1111 C   0  0  0  0  0  0  0  0  0  0  0  0
   -2.1336   -2.5850    1.7702 H   0  0  0  0  0  0  0  0  0  0  0  0
   -1.2267   -1.6457    3.0784 H   0  0  0  0  0  0  0  0  0  0  0  0
   -1.6366   -0.8572    0.1495 H   0  0  0  0  0  0  0  0  0  0  0  0
   -0.0888    0.4266    2.4878 H   0  0  0  0  0  0  0  0  0  0  0  0
   -0.6226    2.6617    1.3327 H   0  0  0  0  0  0  0  0  0  0  0  0
   -3.0003    2.8600    1.0012 H   0  0  0  0  0  0  0  0  0  0  0  0
   -3.1942    1.0231    1.0740 H   0  0  0  0  0  0  0  0  0  0  0  0
    1.6216    0.5375   -0.1068 C   0  0  0  0  0  0  0  0  0  0  0  0
    1.6216   -0.6610   -0.9890 C   0  0  0  0  0  0  0  0  0  0  0  0
    1.6216   -0.6610   -2.5957 S   0  0  0  0  0  0  0  0  0  0  0  0
    0.5702    0.5052    0.6795 H   0  0  0  0  0  0  0  0  0  0  0  0
    2.4977    0.5106    0.5484 H   0  0  0  0  0  0  0  0  0  0  0  0
    1.6215    1.4613   -0.6815 H   0  0  0  0  0  0  0  0  0  0  0  0
    1.6216   -1.6154   -0.4591 H   0  0  0  0  0  0  0  0  0  0  0  0
  1  2  2  3
  1  6  1  0
  1  7  1  0
  2  3  1  0
  2  8  1  0
  3  4  1  0
  3  9  1  0
  4  5  2  3
  4 10  1  0
  5 11  1  0
  5 12  1  0
 13 14  1  0
 13 16  1  0
 13 17  1  0
 13 18  1  0
 14 15  2  0
 14 19  1  0
M  RAD  1   3   2
M  END
>  <reaction>  (16) 
rxn_1959

>  <mol_properties>  (16) 
{"1": {"label": "*0", "atom_type": "Cd"}, "2": {"label": "*1", "atom_type": "Cs"}, "12": {"label": "*3", "atom_type": "Cd"}, "13": {"label": "*4", "atom_type": "Cd"}, "15": {"label": "*2", "atom_type": "H0"}}

>  <type>  (16) 
unop_12

>  <geom_source>  (16) 
Heuristics

$$$$

     RDKit          3D

 19 17  0  0  0  0  0  0  0  0999 V2000
    4.2535   -0.6696    0.3665 S   0  0  0  0  0  0  0  0  0  0  0  0
   -0.4853    0.1641   -0.6233 C   0  0  0  0  0  3  0  0  0  0  0  0
   -0.4646    1.3648    0.2795 C   0  0  0  0  0  0  0  0  0  0  0  0
   -1.7572   -0.6175   -0.4592 C   0  0  0  0  0  0  0  0  0  0  0  0
   -1.2779    2.4065    0.0821 C   0  0  0  0  0  0  0  0  0  0  0  0
   -2.0025   -1.3228    0.6480 C   0  0  0  0  0  0  0  0  0  0  0  0
    1.8655   -1.0546   -0.4345 C   0  0  0  0  0  0  0  0  0  0  0  0
    2.8391   -0.5340    0.5732 C   0  0  0  0  0  0  0  0  0  0  0  0
   -0.3818    0.4928   -1.6799 H   0  0  0  0  0  0  0  0  0  0  0  0
    0.6437   -0.6934   -0.3074 H   0  0  0  0  0  0  0  0  0  0  0  0
    0.2413    1.3885    1.1037 H   0  0  0  0  0  0  0  0  0  0  0  0
   -2.4844   -0.6222   -1.2658 H   0  0  0  0  0  0  0  0  0  0  0  0
   -1.9880    2.4120   -0.7394 H   0  0  0  0  0  0  0  0  0  0  0  0
   -1.2351    3.2627    0.7473 H   0  0  0  0  0  0  0  0  0  0  0  0
   -2.9254   -1.8861    0.7399 H   0  0  0  0  0  0  0  0  0  0  0  0
   -1.2889   -1.3429    1.4664 H   0  0  0  0  0  0  0  0  0  0  0  0
    2.4714   -0.0486    1.4703 H   0  0  0  0  0  0  0  0  0  0  0  0
    1.9740   -2.1538   -0.5545 H   0  0  0  0  0  0  0  0  0  0  0  0
    2.0027   -0.5461   -1.4127 H   0  0  0  0  0  0  0  0  0  0  0  0
  1  8  2  0
  2  3  1  0
  2  4  1  0
  2  9  1  0
  3  5  2  3
  3 11  1  0
  4  6  2  3
  4 12  1  0
  5 13  1  0
  5 14  1  0
  6 15  1  0
  6 16  1  0
  7  8  1  0
  7 10  1  0
  7 18  1  0
  7 19  1  0
  8 17  1  0
M  RAD  1   2   2
M  END
>  <reaction>  (17) 
rxn_1959

>  <mol_properties>  (17) 
{"1": {"label": "*0", "atom_type": "Cd"}, "2": {"label": "*1", "atom_type": "Cs"}, "12": {"label": "*3", "atom_type": "Cd"}, "13": {"label": "*4", "atom_type": "Cd"}, "15": {"label": "*2", "atom_type": "H0"}}

>  <type>  (17) 
unop_13

>  <geom_source>  (17) 
AutoTST

$$$$
