
     RDKit          3D

 15 14  0  0  0  0  0  0  0  0999 V2000
    2.1256    0.4849   -0.6284 C   0  0  0  0  0  0  0  0  0  0  0  0
    1.1128    0.2141    0.1794 C   0  0  0  0  0  0  0  0  0  0  0  0
   -0.3017   -0.0425   -0.2513 C   0  0  0  0  0  0  0  0  0  0  0  0
   -1.2427    1.0075    0.3423 C   0  0  0  0  0  0  0  0  0  0  0  0
   -0.7381   -1.4526    0.1504 C   0  0  0  0  0  0  0  0  0  0  0  0
    3.1243    0.6602   -0.2486 H   0  0  0  0  0  0  0  0  0  0  0  0
    1.9908    0.5411   -1.7036 H   0  0  0  0  0  0  0  0  0  0  0  0
    1.2888    0.1665    1.2533 H   0  0  0  0  0  0  0  0  0  0  0  0
   -0.3426    0.0343   -1.3424 H   0  0  0  0  0  0  0  0  0  0  0  0
   -0.9570    2.0133    0.0315 H   0  0  0  0  0  0  0  0  0  0  0  0
   -1.2189    0.9728    1.4350 H   0  0  0  0  0  0  0  0  0  0  0  0
   -2.2723    0.8287    0.0254 H   0  0  0  0  0  0  0  0  0  0  0  0
   -0.6964   -1.5744    1.2363 H   0  0  0  0  0  0  0  0  0  0  0  0
   -0.0911   -2.2079   -0.2978 H   0  0  0  0  0  0  0  0  0  0  0  0
   -1.7646   -1.6461   -0.1677 H   0  0  0  0  0  0  0  0  0  0  0  0
  1  2  2  3
  1  6  1  0
  1  7  1  0
  2  3  1  0
  2  8  1  0
  3  4  1  0
  3  5  1  0
  3  9  1  0
  4 10  1  0
  4 11  1  0
  4 12  1  0
  5 13  1  0
  5 14  1  0
  5 15  1  0
M  END
>  <reaction>  (1) 
rxn_1082

>  <mol_properties>  (1) 
{"2": {"label": "donator", "atom_type": "Cs"}, "8": {"label": "d_hydrogen", "atom_type": "H0"}}

>  <type>  (1) 
r1h

$$$$

     RDKit          3D

  4  3  0  0  0  0  0  0  0  0999 V2000
    0.0000    0.0000    0.0000 C   0  0  0  0  0  3  0  0  0  0  0  0
    1.0638   -0.1747    0.0540 H   0  0  0  0  0  0  0  0  0  0  0  0
   -0.6833   -0.8351   -0.0280 H   0  0  0  0  0  0  0  0  0  0  0  0
   -0.3805    1.0098   -0.0260 H   0  0  0  0  0  0  0  0  0  0  0  0
  1  2  1  0
  1  3  1  0
  1  4  1  0
M  RAD  1   1   2
M  END
>  <reaction>  (2) 
rxn_1082

>  <mol_properties>  (2) 
{"0": {"label": "acceptor", "atom_type": "Cs"}}

>  <type>  (2) 
r2

$$$$

     RDKit          3D

  5  4  0  0  0  0  0  0  0  0999 V2000
    0.0000    0.0000    0.0000 C   0  0  0  0  0  0  0  0  0  0  0  0
   -0.6486   -0.7720   -0.4113 H   0  0  0  0  0  0  0  0  0  0  0  0
   -0.3482    0.9787   -0.3267 H   0  0  0  0  0  0  0  0  0  0  0  0
   -0.0223   -0.0487    1.0876 H   0  0  0  0  0  0  0  0  0  0  0  0
    1.0191   -0.1580   -0.3496 H   0  0  0  0  0  0  0  0  0  0  0  0
  1  2  1  0
  1  3  1  0
  1  4  1  0
  1  5  1  0
M  END
>  <reaction>  (3) 
rxn_1082

>  <mol_properties>  (3) 
{"0": {"label": "acceptor", "atom_type": "Cs"}, "4": {"label": "a_hydrogen", "atom_type": "H0"}}

>  <type>  (3) 
r2h

$$$$

     RDKit          3D

 19 17  0  0  0  0  0  0  0  0999 V2000
   -0.3955    2.3940   -0.8615 C   0  0  0  0  0  3  0  0  0  0  0  0
   -1.4397    2.4108   -1.1542 H   0  0  0  0  0  0  0  0  0  0  0  0
    0.3123    2.3464   -1.6815 H   0  0  0  0  0  0  0  0  0  0  0  0
   -0.1309    3.0762   -0.0609 H   0  0  0  0  0  0  0  0  0  0  0  0
    0.7514   -1.7935   -1.2304 C   0  0  0  0  0  0  0  0  0  0  0  0
   -0.2197   -1.0560   -0.7008 C   0  0  0  0  0  0  0  0  0  0  0  0
   -0.0802   -0.0256    0.3516 C   0  0  0  0  0  0  0  0  0  0  0  0
    1.2902    0.1026    0.9801 C   0  0  0  0  0  0  0  0  0  0  0  0
   -1.2093   -0.0494    1.3665 C   0  0  0  0  0  0  0  0  0  0  0  0
    0.5431   -2.5080   -2.0164 H   0  0  0  0  0  0  0  0  0  0  0  0
    1.7800   -1.7194   -0.8984 H   0  0  0  0  0  0  0  0  0  0  0  0
   -1.2312   -1.1900   -1.0783 H   0  0  0  0  0  0  0  0  0  0  0  0
   -0.2452    1.0532   -0.2459 H   0  0  0  0  0  0  0  0  0  0  0  0
    2.0612    0.2843    0.2294 H   0  0  0  0  0  0  0  0  0  0  0  0
    1.5590   -0.8066    1.5266 H   0  0  0  0  0  0  0  0  0  0  0  0
    1.3080    0.9352    1.6856 H   0  0  0  0  0  0  0  0  0  0  0  0
   -1.1349   -0.9300    2.0117 H   0  0  0  0  0  0  0  0  0  0  0  0
   -2.1836   -0.0772    0.8744 H   0  0  0  0  0  0  0  0  0  0  0  0
   -1.1770    0.8370    2.0034 H   0  0  0  0  0  0  0  0  0  0  0  0
  1  2  1  0
  1  3  1  0
  1  4  1  0
  5  6  2  3
  5 10  1  0
  5 11  1  0
  6  7  1  0
  6 12  1  0
  7  8  1  0
  7  9  1  0
  7 13  1  0
  8 14  1  0
  8 15  1  0
  8 16  1  0
  9 17  1  0
  9 18  1  0
  9 19  1  0
M  RAD  1   1   2
M  END
>  <reaction>  (4) 
rxn_1082

>  <mol_properties>  (4) 
{"0": {"label": "*3", "atom_type": "Cs"}, "1": {"label": "*4", "atom_type": "H0"}, "5": {"label": "*0", "atom_type": "Cd"}, "6": {"label": "*1", "atom_type": "Cs"}, "12": {"label": "*2", "atom_type": "H0"}}

>  <type>  (4) 
ts

$$$$

     RDKit          3D

 19 17  0  0  0  0  0  0  0  0999 V2000
   -0.0017    2.0930   -1.0933 C   0  0  0  0  0  0  0  0  0  0  0  0
   -0.8908    2.6900   -0.8961 H   0  0  0  0  0  0  0  0  0  0  0  0
    0.3885    2.3380   -2.0800 H   0  0  0  0  0  0  0  0  0  0  0  0
    0.6375    2.4423   -0.2838 H   0  0  0  0  0  0  0  0  0  0  0  0
   -0.0017   -1.2358   -1.7319 C   0  0  0  0  0  0  0  0  0  0  0  0
   -0.0017   -1.2358   -0.4084 C   0  0  0  0  0  0  0  0  0  0  0  0
   -0.0017   -0.0144    0.4636 C   0  0  0  0  0  3  0  0  0  0  0  0
    1.2576    0.0260    1.3312 C   0  0  0  0  0  0  0  0  0  0  0  0
   -1.2610    0.0260    1.3312 C   0  0  0  0  0  0  0  0  0  0  0  0
   -0.0017   -2.1575   -2.3002 H   0  0  0  0  0  0  0  0  0  0  0  0
   -0.0017   -0.3093   -2.2965 H   0  0  0  0  0  0  0  0  0  0  0  0
   -0.0017   -2.1871    0.1221 H   0  0  0  0  0  0  0  0  0  0  0  0
   -0.0017    1.0420   -0.3169 H   0  0  0  0  0  0  0  0  0  0  0  0
    2.1592    0.0319    0.7171 H   0  0  0  0  0  0  0  0  0  0  0  0
    1.3022   -0.8478    1.9870 H   0  0  0  0  0  0  0  0  0  0  0  0
    1.2652    0.9172    1.9622 H   0  0  0  0  0  0  0  0  0  0  0  0
   -1.3055   -0.8478    1.9870 H   0  0  0  0  0  0  0  0  0  0  0  0
   -2.1625    0.0319    0.7171 H   0  0  0  0  0  0  0  0  0  0  0  0
   -1.2685    0.9172    1.9622 H   0  0  0  0  0  0  0  0  0  0  0  0
  1  2  1  0
  1  3  1  0
  1  4  1  0
  1 13  1  0
  5  6  2  3
  5 10  1  0
  5 11  1  0
  6  7  1  0
  6 12  1  0
  7  8  1  0
  7  9  1  0
  8 14  1  0
  8 15  1  0
  8 16  1  0
  9 17  1  0
  9 18  1  0
  9 19  1  0
M  RAD  1   7   2
M  END
>  <reaction>  (5) 
rxn_1082

>  <mol_properties>  (5) 
{"0": {"label": "*3", "atom_type": "Cs"}, "1": {"label": "*4", "atom_type": "H0"}, "5": {"label": "*0", "atom_type": "Cd"}, "6": {"label": "*1", "atom_type": "Cs"}, "12": {"label": "*2", "atom_type": "H0"}}

>  <type>  (5) 
unop_1

>  <geom_source>  (5) 
Heuristics

$$$$

     RDKit          3D

 19 17  0  0  0  0  0  0  0  0999 V2000
   -0.0012    2.0988   -1.0913 C   0  0  0  0  0  0  0  0  0  0  0  0
   -0.5145    1.8625   -2.0221 H   0  0  0  0  0  0  0  0  0  0  0  0
    0.8901    2.6860   -1.3072 H   0  0  0  0  0  0  0  0  0  0  0  0
   -0.2803    2.4450   -0.0973 H   0  0  0  0  0  0  0  0  0  0  0  0
   -0.0012   -1.2300   -1.7299 C   0  0  0  0  0  0  0  0  0  0  0  0
   -0.0012   -1.2300   -0.4064 C   0  0  0  0  0  0  0  0  0  0  0  0
   -0.0012   -0.0086    0.4656 C   0  0  0  0  0  3  0  0  0  0  0  0
    1.2581    0.0319    1.3333 C   0  0  0  0  0  0  0  0  0  0  0  0
   -1.2605    0.0319    1.3333 C   0  0  0  0  0  0  0  0  0  0  0  0
   -0.0012   -2.1517   -2.2982 H   0  0  0  0  0  0  0  0  0  0  0  0
   -0.0012   -0.3034   -2.2945 H   0  0  0  0  0  0  0  0  0  0  0  0
   -0.0012   -2.1813    0.1241 H   0  0  0  0  0  0  0  0  0  0  0  0
   -0.0012    1.0478   -0.3148 H   0  0  0  0  0  0  0  0  0  0  0  0
    2.1597    0.0378    0.7191 H   0  0  0  0  0  0  0  0  0  0  0  0
    1.3027   -0.8420    1.9891 H   0  0  0  0  0  0  0  0  0  0  0  0
    1.2657    0.9231    1.9643 H   0  0  0  0  0  0  0  0  0  0  0  0
   -1.3051   -0.8420    1.9891 H   0  0  0  0  0  0  0  0  0  0  0  0
   -2.1620    0.0378    0.7191 H   0  0  0  0  0  0  0  0  0  0  0  0
   -1.2680    0.9231    1.9643 H   0  0  0  0  0  0  0  0  0  0  0  0
  1  2  1  0
  1  3  1  0
  1  4  1  0
  1 13  1  0
  5  6  2  3
  5 10  1  0
  5 11  1  0
  6  7  1  0
  6 12  1  0
  7  8  1  0
  7  9  1  0
  8 14  1  0
  8 15  1  0
  8 16  1  0
  9 17  1  0
  9 18  1  0
  9 19  1  0
M  RAD  1   7   2
M  END
>  <reaction>  (6) 
rxn_1082

>  <mol_properties>  (6) 
{"0": {"label": "*3", "atom_type": "Cs"}, "1": {"label": "*4", "atom_type": "H0"}, "5": {"label": "*0", "atom_type": "Cd"}, "6": {"label": "*1", "atom_type": "Cs"}, "12": {"label": "*2", "atom_type": "H0"}}

>  <type>  (6) 
unop_2

>  <geom_source>  (6) 
Heuristics

$$$$

     RDKit          3D

 19 17  0  0  0  0  0  0  0  0999 V2000
   -0.0034    2.0923   -1.0908 C   0  0  0  0  0  0  0  0  0  0  0  0
   -0.5167    2.9125   -0.5914 H   0  0  0  0  0  0  0  0  0  0  0  0
   -0.1594    2.1673   -2.1659 H   0  0  0  0  0  0  0  0  0  0  0  0
    0.9502    2.4487   -0.7043 H   0  0  0  0  0  0  0  0  0  0  0  0
   -0.0034   -1.2365   -1.7295 C   0  0  0  0  0  0  0  0  0  0  0  0
   -0.0034   -1.2365   -0.4060 C   0  0  0  0  0  0  0  0  0  0  0  0
   -0.0034   -0.0151    0.4661 C   0  0  0  0  0  3  0  0  0  0  0  0
    1.2559    0.0253    1.3337 C   0  0  0  0  0  0  0  0  0  0  0  0
   -1.2627    0.0253    1.3337 C   0  0  0  0  0  0  0  0  0  0  0  0
   -0.0034   -2.1582   -2.2977 H   0  0  0  0  0  0  0  0  0  0  0  0
   -0.0034   -0.3100   -2.2940 H   0  0  0  0  0  0  0  0  0  0  0  0
   -0.0034   -2.1878    0.1246 H   0  0  0  0  0  0  0  0  0  0  0  0
   -0.0034    1.0413   -0.3144 H   0  0  0  0  0  0  0  0  0  0  0  0
    2.1575    0.0312    0.7195 H   0  0  0  0  0  0  0  0  0  0  0  0
    1.3005   -0.8485    1.9895 H   0  0  0  0  0  0  0  0  0  0  0  0
    1.2635    0.9165    1.9647 H   0  0  0  0  0  0  0  0  0  0  0  0
   -1.3073   -0.8485    1.9895 H   0  0  0  0  0  0  0  0  0  0  0  0
   -2.1642    0.0312    0.7195 H   0  0  0  0  0  0  0  0  0  0  0  0
   -1.2702    0.9165    1.9647 H   0  0  0  0  0  0  0  0  0  0  0  0
  1  2  1  0
  1  3  1  0
  1  4  1  0
  1 13  1  0
  5  6  2  3
  5 10  1  0
  5 11  1  0
  6  7  1  0
  6 12  1  0
  7  8  1  0
  7  9  1  0
  8 14  1  0
  8 15  1  0
  8 16  1  0
  9 17  1  0
  9 18  1  0
  9 19  1  0
M  RAD  1   7   2
M  END
>  <reaction>  (7) 
rxn_1082

>  <mol_properties>  (7) 
{"0": {"label": "*3", "atom_type": "Cs"}, "1": {"label": "*4", "atom_type": "H0"}, "5": {"label": "*0", "atom_type": "Cd"}, "6": {"label": "*1", "atom_type": "Cs"}, "12": {"label": "*2", "atom_type": "H0"}}

>  <type>  (7) 
unop_3

>  <geom_source>  (7) 
Heuristics

$$$$

     RDKit          3D

 19 17  0  0  0  0  0  0  0  0999 V2000
   -0.0015    2.0969   -1.0934 C   0  0  0  0  0  0  0  0  0  0  0  0
    0.8876    2.0838   -1.7219 H   0  0  0  0  0  0  0  0  0  0  0  0
    0.2243    2.6022   -0.1556 H   0  0  0  0  0  0  0  0  0  0  0  0
   -0.9867    2.4647   -1.3760 H   0  0  0  0  0  0  0  0  0  0  0  0
   -0.0015   -1.2319   -1.7320 C   0  0  0  0  0  0  0  0  0  0  0  0
   -0.0015   -1.2319   -0.4085 C   0  0  0  0  0  0  0  0  0  0  0  0
   -0.0015   -0.0105    0.4635 C   0  0  0  0  0  3  0  0  0  0  0  0
    1.2578    0.0299    1.3312 C   0  0  0  0  0  0  0  0  0  0  0  0
   -1.2608    0.0299    1.3312 C   0  0  0  0  0  0  0  0  0  0  0  0
   -0.0015   -2.1536   -2.3003 H   0  0  0  0  0  0  0  0  0  0  0  0
   -0.0015   -0.3053   -2.2966 H   0  0  0  0  0  0  0  0  0  0  0  0
   -0.0015   -2.1832    0.1220 H   0  0  0  0  0  0  0  0  0  0  0  0
   -0.0015    1.0459   -0.3169 H   0  0  0  0  0  0  0  0  0  0  0  0
    2.1593    0.0358    0.7170 H   0  0  0  0  0  0  0  0  0  0  0  0
    1.3024   -0.8439    1.9870 H   0  0  0  0  0  0  0  0  0  0  0  0
    1.2653    0.9211    1.9622 H   0  0  0  0  0  0  0  0  0  0  0  0
   -1.3054   -0.8439    1.9870 H   0  0  0  0  0  0  0  0  0  0  0  0
   -2.1624    0.0358    0.7170 H   0  0  0  0  0  0  0  0  0  0  0  0
   -1.2684    0.9211    1.9622 H   0  0  0  0  0  0  0  0  0  0  0  0
  1  2  1  0
  1  3  1  0
  1  4  1  0
  1 13  1  0
  5  6  2  3
  5 10  1  0
  5 11  1  0
  6  7  1  0
  6 12  1  0
  7  8  1  0
  7  9  1  0
  8 14  1  0
  8 15  1  0
  8 16  1  0
  9 17  1  0
  9 18  1  0
  9 19  1  0
M  RAD  1   7   2
M  END
>  <reaction>  (8) 
rxn_1082

>  <mol_properties>  (8) 
{"0": {"label": "*3", "atom_type": "Cs"}, "1": {"label": "*4", "atom_type": "H0"}, "5": {"label": "*0", "atom_type": "Cd"}, "6": {"label": "*1", "atom_type": "Cs"}, "12": {"label": "*2", "atom_type": "H0"}}

>  <type>  (8) 
unop_4

>  <geom_source>  (8) 
Heuristics

$$$$

     RDKit          3D

 19 17  0  0  0  0  0  0  0  0999 V2000
   -0.0005    2.0922   -1.0878 C   0  0  0  0  0  0  0  0  0  0  0  0
   -0.0005    2.9942   -0.4778 H   0  0  0  0  0  0  0  0  0  0  0  0
   -0.8896    2.0791   -1.7164 H   0  0  0  0  0  0  0  0  0  0  0  0
    0.9318    2.4624   -1.5115 H   0  0  0  0  0  0  0  0  0  0  0  0
   -0.0005   -1.2366   -1.7265 C   0  0  0  0  0  0  0  0  0  0  0  0
   -0.0005   -1.2366   -0.4030 C   0  0  0  0  0  0  0  0  0  0  0  0
   -0.0005   -0.0152    0.4690 C   0  0  0  0  0  3  0  0  0  0  0  0
    1.2588    0.0252    1.3367 C   0  0  0  0  0  0  0  0  0  0  0  0
   -1.2598    0.0252    1.3367 C   0  0  0  0  0  0  0  0  0  0  0  0
   -0.0005   -2.1583   -2.2947 H   0  0  0  0  0  0  0  0  0  0  0  0
   -0.0005   -0.3101   -2.2910 H   0  0  0  0  0  0  0  0  0  0  0  0
   -0.0005   -2.1879    0.1276 H   0  0  0  0  0  0  0  0  0  0  0  0
   -0.0005    1.0412   -0.3114 H   0  0  0  0  0  0  0  0  0  0  0  0
    2.1603    0.0311    0.7225 H   0  0  0  0  0  0  0  0  0  0  0  0
    1.3034   -0.8486    1.9925 H   0  0  0  0  0  0  0  0  0  0  0  0
    1.2663    0.9164    1.9677 H   0  0  0  0  0  0  0  0  0  0  0  0
   -1.3044   -0.8486    1.9925 H   0  0  0  0  0  0  0  0  0  0  0  0
   -2.1614    0.0311    0.7225 H   0  0  0  0  0  0  0  0  0  0  0  0
   -1.2674    0.9164    1.9677 H   0  0  0  0  0  0  0  0  0  0  0  0
  1  2  1  0
  1  3  1  0
  1  4  1  0
  1 13  1  0
  5  6  2  3
  5 10  1  0
  5 11  1  0
  6  7  1  0
  6 12  1  0
  7  8  1  0
  7  9  1  0
  8 14  1  0
  8 15  1  0
  8 16  1  0
  9 17  1  0
  9 18  1  0
  9 19  1  0
M  RAD  1   7   2
M  END
>  <reaction>  (9) 
rxn_1082

>  <mol_properties>  (9) 
{"0": {"label": "*3", "atom_type": "Cs"}, "1": {"label": "*4", "atom_type": "H0"}, "5": {"label": "*0", "atom_type": "Cd"}, "6": {"label": "*1", "atom_type": "Cs"}, "12": {"label": "*2", "atom_type": "H0"}}

>  <type>  (9) 
unop_5

>  <geom_source>  (9) 
Heuristics

$$$$

     RDKit          3D

 19 17  0  0  0  0  0  0  0  0999 V2000
   -0.0004    2.0947   -1.0933 C   0  0  0  0  0  0  0  0  0  0  0  0
    1.0263    2.3866   -1.3090 H   0  0  0  0  0  0  0  0  0  0  0  0
   -0.2887    2.4771   -0.1154 H   0  0  0  0  0  0  0  0  0  0  0  0
   -0.7067    2.4702   -1.8322 H   0  0  0  0  0  0  0  0  0  0  0  0
   -0.0004   -1.2341   -1.7320 C   0  0  0  0  0  0  0  0  0  0  0  0
   -0.0004   -1.2341   -0.4085 C   0  0  0  0  0  0  0  0  0  0  0  0
   -0.0004   -0.0127    0.4635 C   0  0  0  0  0  3  0  0  0  0  0  0
    1.2589    0.0277    1.3312 C   0  0  0  0  0  0  0  0  0  0  0  0
   -1.2597    0.0277    1.3312 C   0  0  0  0  0  0  0  0  0  0  0  0
   -0.0004   -2.1559   -2.3003 H   0  0  0  0  0  0  0  0  0  0  0  0
   -0.0004   -0.3076   -2.2966 H   0  0  0  0  0  0  0  0  0  0  0  0
   -0.0004   -2.1854    0.1220 H   0  0  0  0  0  0  0  0  0  0  0  0
   -0.0004    1.0436   -0.3169 H   0  0  0  0  0  0  0  0  0  0  0  0
    2.1605    0.0336    0.7170 H   0  0  0  0  0  0  0  0  0  0  0  0
    1.3035   -0.8462    1.9870 H   0  0  0  0  0  0  0  0  0  0  0  0
    1.2665    0.9189    1.9622 H   0  0  0  0  0  0  0  0  0  0  0  0
   -1.3043   -0.8462    1.9870 H   0  0  0  0  0  0  0  0  0  0  0  0
   -2.1612    0.0336    0.7170 H   0  0  0  0  0  0  0  0  0  0  0  0
   -1.2672    0.9189    1.9622 H   0  0  0  0  0  0  0  0  0  0  0  0
  1  2  1  0
  1  3  1  0
  1  4  1  0
  1 13  1  0
  5  6  2  3
  5 10  1  0
  5 11  1  0
  6  7  1  0
  6 12  1  0
  7  8  1  0
  7  9  1  0
  8 14  1  0
  8 15  1  0
  8 16  1  0
  9 17  1  0
  9 18  1  0
  9 19  1  0
M  RAD  1   7   2
M  END
>  <reaction>  (10) 
rxn_1082

>  <mol_properties>  (10) 
{"0": {"label": "*3", "atom_type": "Cs"}, "1": {"label": "*4", "atom_type": "H0"}, "5": {"label": "*0", "atom_type": "Cd"}, "6": {"label": "*1", "atom_type": "Cs"}, "12": {"label": "*2", "atom_type": "H0"}}

>  <type>  (10) 
unop_6

>  <geom_source>  (10) 
Heuristics

$$$$

     RDKit          3D

 19 17  0  0  0  0  0  0  0  0999 V2000
    0.0015    2.0930   -1.0926 C   0  0  0  0  0  0  0  0  0  0  0  0
    0.8906    2.6899   -0.8954 H   0  0  0  0  0  0  0  0  0  0  0  0
   -0.7548    2.3085   -0.3394 H   0  0  0  0  0  0  0  0  0  0  0  0
   -0.2597    2.4727   -2.0792 H   0  0  0  0  0  0  0  0  0  0  0  0
    0.0015   -1.2358   -1.7313 C   0  0  0  0  0  0  0  0  0  0  0  0
    0.0015   -1.2358   -0.4078 C   0  0  0  0  0  0  0  0  0  0  0  0
    0.0015   -0.0144    0.4642 C   0  0  0  0  0  3  0  0  0  0  0  0
    1.2608    0.0260    1.3319 C   0  0  0  0  0  0  0  0  0  0  0  0
   -1.2578    0.0260    1.3319 C   0  0  0  0  0  0  0  0  0  0  0  0
    0.0015   -2.1575   -2.2996 H   0  0  0  0  0  0  0  0  0  0  0  0
    0.0015   -0.3093   -2.2959 H   0  0  0  0  0  0  0  0  0  0  0  0
    0.0015   -2.1871    0.1227 H   0  0  0  0  0  0  0  0  0  0  0  0
    0.0015    1.0420   -0.3162 H   0  0  0  0  0  0  0  0  0  0  0  0
    2.1624    0.0319    0.7177 H   0  0  0  0  0  0  0  0  0  0  0  0
    1.3054   -0.8478    1.9877 H   0  0  0  0  0  0  0  0  0  0  0  0
    1.2684    0.9172    1.9629 H   0  0  0  0  0  0  0  0  0  0  0  0
   -1.3024   -0.8478    1.9877 H   0  0  0  0  0  0  0  0  0  0  0  0
   -2.1593    0.0319    0.7177 H   0  0  0  0  0  0  0  0  0  0  0  0
   -1.2653    0.9172    1.9629 H   0  0  0  0  0  0  0  0  0  0  0  0
  1  2  1  0
  1  3  1  0
  1  4  1  0
  1 13  1  0
  5  6  2  3
  5 10  1  0
  5 11  1  0
  6  7  1  0
  6 12  1  0
  7  8  1  0
  7  9  1  0
  8 14  1  0
  8 15  1  0
  8 16  1  0
  9 17  1  0
  9 18  1  0
  9 19  1  0
M  RAD  1   7   2
M  END
>  <reaction>  (11) 
rxn_1082

>  <mol_properties>  (11) 
{"0": {"label": "*3", "atom_type": "Cs"}, "1": {"label": "*4", "atom_type": "H0"}, "5": {"label": "*0", "atom_type": "Cd"}, "6": {"label": "*1", "atom_type": "Cs"}, "12": {"label": "*2", "atom_type": "H0"}}

>  <type>  (11) 
unop_7

>  <geom_source>  (11) 
Heuristics

$$$$

     RDKit          3D

 19 17  0  0  0  0  0  0  0  0999 V2000
    0.0003    2.0947   -1.0931 C   0  0  0  0  0  0  0  0  0  0  0  0
   -1.0263    2.3866   -1.3087 H   0  0  0  0  0  0  0  0  0  0  0  0
    0.6622    2.5065   -1.8534 H   0  0  0  0  0  0  0  0  0  0  0  0
    0.3382    2.4412   -0.1176 H   0  0  0  0  0  0  0  0  0  0  0  0
    0.0003   -1.2341   -1.7317 C   0  0  0  0  0  0  0  0  0  0  0  0
    0.0003   -1.2341   -0.4082 C   0  0  0  0  0  0  0  0  0  0  0  0
    0.0003   -0.0128    0.4638 C   0  0  0  0  0  3  0  0  0  0  0  0
    1.2596    0.0277    1.3315 C   0  0  0  0  0  0  0  0  0  0  0  0
   -1.2590    0.0277    1.3315 C   0  0  0  0  0  0  0  0  0  0  0  0
    0.0003   -2.1559   -2.3000 H   0  0  0  0  0  0  0  0  0  0  0  0
    0.0003   -0.3076   -2.2963 H   0  0  0  0  0  0  0  0  0  0  0  0
    0.0003   -2.1855    0.1223 H   0  0  0  0  0  0  0  0  0  0  0  0
    0.0003    1.0436   -0.3166 H   0  0  0  0  0  0  0  0  0  0  0  0
    2.1612    0.0336    0.7173 H   0  0  0  0  0  0  0  0  0  0  0  0
    1.3042   -0.8462    1.9873 H   0  0  0  0  0  0  0  0  0  0  0  0
    1.2672    0.9189    1.9625 H   0  0  0  0  0  0  0  0  0  0  0  0
   -1.3036   -0.8462    1.9873 H   0  0  0  0  0  0  0  0  0  0  0  0
   -2.1605    0.0336    0.7173 H   0  0  0  0  0  0  0  0  0  0  0  0
   -1.2665    0.9189    1.9625 H   0  0  0  0  0  0  0  0  0  0  0  0
  1  2  1  0
  1  3  1  0
  1  4  1  0
  1 13  1  0
  5  6  2  3
  5 10  1  0
  5 11  1  0
  6  7  1  0
  6 12  1  0
  7  8  1  0
  7  9  1  0
  8 14  1  0
  8 15  1  0
  8 16  1  0
  9 17  1  0
  9 18  1  0
  9 19  1  0
M  RAD  1   7   2
M  END
>  <reaction>  (12) 
rxn_1082

>  <mol_properties>  (12) 
{"0": {"label": "*3", "atom_type": "Cs"}, "1": {"label": "*4", "atom_type": "H0"}, "5": {"label": "*0", "atom_type": "Cd"}, "6": {"label": "*1", "atom_type": "Cs"}, "12": {"label": "*2", "atom_type": "H0"}}

>  <type>  (12) 
unop_8

>  <geom_source>  (12) 
Heuristics

$$$$

     RDKit          3D

 19 17  0  0  0  0  0  0  0  0999 V2000
   -0.0023    2.0989   -1.0932 C   0  0  0  0  0  0  0  0  0  0  0  0
    0.5111    1.8625   -2.0240 H   0  0  0  0  0  0  0  0  0  0  0  0
    0.6620    2.6714   -0.4476 H   0  0  0  0  0  0  0  0  0  0  0  0
   -0.9879    2.4569   -0.7997 H   0  0  0  0  0  0  0  0  0  0  0  0
   -0.0023   -1.2299   -1.7318 C   0  0  0  0  0  0  0  0  0  0  0  0
   -0.0023   -1.2299   -0.4083 C   0  0  0  0  0  0  0  0  0  0  0  0
   -0.0023   -0.0085    0.4637 C   0  0  0  0  0  3  0  0  0  0  0  0
    1.2570    0.0319    1.3314 C   0  0  0  0  0  0  0  0  0  0  0  0
   -1.2616    0.0319    1.3314 C   0  0  0  0  0  0  0  0  0  0  0  0
   -0.0023   -2.1516   -2.3001 H   0  0  0  0  0  0  0  0  0  0  0  0
   -0.0023   -0.3034   -2.2964 H   0  0  0  0  0  0  0  0  0  0  0  0
   -0.0023   -2.1812    0.1222 H   0  0  0  0  0  0  0  0  0  0  0  0
   -0.0023    1.0479   -0.3167 H   0  0  0  0  0  0  0  0  0  0  0  0
    2.1586    0.0378    0.7172 H   0  0  0  0  0  0  0  0  0  0  0  0
    1.3016   -0.8419    1.9872 H   0  0  0  0  0  0  0  0  0  0  0  0
    1.2646    0.9231    1.9624 H   0  0  0  0  0  0  0  0  0  0  0  0
   -1.3062   -0.8419    1.9872 H   0  0  0  0  0  0  0  0  0  0  0  0
   -2.1631    0.0378    0.7172 H   0  0  0  0  0  0  0  0  0  0  0  0
   -1.2691    0.9231    1.9624 H   0  0  0  0  0  0  0  0  0  0  0  0
  1  2  1  0
  1  3  1  0
  1  4  1  0
  1 13  1  0
  5  6  2  3
  5 10  1  0
  5 11  1  0
  6  7  1  0
  6 12  1  0
  7  8  1  0
  7  9  1  0
  8 14  1  0
  8 15  1  0
  8 16  1  0
  9 17  1  0
  9 18  1  0
  9 19  1  0
M  RAD  1   7   2
M  END
>  <reaction>  (13) 
rxn_1082

>  <mol_properties>  (13) 
{"0": {"label": "*3", "atom_type": "Cs"}, "1": {"label": "*4", "atom_type": "H0"}, "5": {"label": "*0", "atom_type": "Cd"}, "6": {"label": "*1", "atom_type": "Cs"}, "12": {"label": "*2", "atom_type": "H0"}}

>  <type>  (13) 
unop_9

>  <geom_source>  (13) 
Heuristics

$$$$

     RDKit          3D

 19 17  0  0  0  0  0  0  0  0999 V2000
    0.0004    2.0969   -1.0917 C   0  0  0  0  0  0  0  0  0  0  0  0
   -0.8887    2.0838   -1.7203 H   0  0  0  0  0  0  0  0  0  0  0  0
    0.8007    2.6268   -1.6060 H   0  0  0  0  0  0  0  0  0  0  0  0
    0.0572    2.4424   -0.0607 H   0  0  0  0  0  0  0  0  0  0  0  0
    0.0004   -1.2319   -1.7304 C   0  0  0  0  0  0  0  0  0  0  0  0
    0.0004   -1.2319   -0.4069 C   0  0  0  0  0  0  0  0  0  0  0  0
    0.0004   -0.0105    0.4651 C   0  0  0  0  0  3  0  0  0  0  0  0
    1.2597    0.0299    1.3328 C   0  0  0  0  0  0  0  0  0  0  0  0
   -1.2589    0.0299    1.3328 C   0  0  0  0  0  0  0  0  0  0  0  0
    0.0004   -2.1536   -2.2987 H   0  0  0  0  0  0  0  0  0  0  0  0
    0.0004   -0.3054   -2.2950 H   0  0  0  0  0  0  0  0  0  0  0  0
    0.0004   -2.1832    0.1236 H   0  0  0  0  0  0  0  0  0  0  0  0
    0.0004    1.0459   -0.3153 H   0  0  0  0  0  0  0  0  0  0  0  0
    2.1612    0.0358    0.7186 H   0  0  0  0  0  0  0  0  0  0  0  0
    1.3043   -0.8439    1.9886 H   0  0  0  0  0  0  0  0  0  0  0  0
    1.2672    0.9211    1.9638 H   0  0  0  0  0  0  0  0  0  0  0  0
   -1.3035   -0.8439    1.9886 H   0  0  0  0  0  0  0  0  0  0  0  0
   -2.1605    0.0358    0.7186 H   0  0  0  0  0  0  0  0  0  0  0  0
   -1.2665    0.9211    1.9638 H   0  0  0  0  0  0  0  0  0  0  0  0
  1  2  1  0
  1  3  1  0
  1  4  1  0
  1 13  1  0
  5  6  2  3
  5 10  1  0
  5 11  1  0
  6  7  1  0
  6 12  1  0
  7  8  1  0
  7  9  1  0
  8 14  1  0
  8 15  1  0
  8 16  1  0
  9 17  1  0
  9 18  1  0
  9 19  1  0
M  RAD  1   7   2
M  END
>  <reaction>  (14) 
rxn_1082

>  <mol_properties>  (14) 
{"0": {"label": "*3", "atom_type": "Cs"}, "1": {"label": "*4", "atom_type": "H0"}, "5": {"label": "*0", "atom_type": "Cd"}, "6": {"label": "*1", "atom_type": "Cs"}, "12": {"label": "*2", "atom_type": "H0"}}

>  <type>  (14) 
unop_10

>  <geom_source>  (14) 
Heuristics

$$$$

     RDKit          3D

 19 17  0  0  0  0  0  0  0  0999 V2000
    0.0027    2.0923   -1.0901 C   0  0  0  0  0  0  0  0  0  0  0  0
    0.5160    2.9125   -0.5907 H   0  0  0  0  0  0  0  0  0  0  0  0
   -1.0632    2.1455   -0.8734 H   0  0  0  0  0  0  0  0  0  0  0  0
    0.3294    2.4717   -2.0571 H   0  0  0  0  0  0  0  0  0  0  0  0
    0.0027   -1.2365   -1.7287 C   0  0  0  0  0  0  0  0  0  0  0  0
    0.0027   -1.2365   -0.4052 C   0  0  0  0  0  0  0  0  0  0  0  0
    0.0027   -0.0152    0.4668 C   0  0  0  0  0  3  0  0  0  0  0  0
    1.2620    0.0253    1.3345 C   0  0  0  0  0  0  0  0  0  0  0  0
   -1.2566    0.0253    1.3345 C   0  0  0  0  0  0  0  0  0  0  0  0
    0.0027   -2.1583   -2.2970 H   0  0  0  0  0  0  0  0  0  0  0  0
    0.0027   -0.3100   -2.2933 H   0  0  0  0  0  0  0  0  0  0  0  0
    0.0027   -2.1879    0.1253 H   0  0  0  0  0  0  0  0  0  0  0  0
    0.0027    1.0412   -0.3136 H   0  0  0  0  0  0  0  0  0  0  0  0
    2.1635    0.0312    0.7203 H   0  0  0  0  0  0  0  0  0  0  0  0
    1.3066   -0.8486    1.9903 H   0  0  0  0  0  0  0  0  0  0  0  0
    1.2695    0.9165    1.9654 H   0  0  0  0  0  0  0  0  0  0  0  0
   -1.3012   -0.8486    1.9903 H   0  0  0  0  0  0  0  0  0  0  0  0
   -2.1582    0.0312    0.7203 H   0  0  0  0  0  0  0  0  0  0  0  0
   -1.2642    0.9165    1.9654 H   0  0  0  0  0  0  0  0  0  0  0  0
  1  2  1  0
  1  3  1  0
  1  4  1  0
  1 13  1  0
  5  6  2  3
  5 10  1  0
  5 11  1  0
  6  7  1  0
  6 12  1  0
  7  8  1  0
  7  9  1  0
  8 14  1  0
  8 15  1  0
  8 16  1  0
  9 17  1  0
  9 18  1  0
  9 19  1  0
M  RAD  1   7   2
M  END
>  <reaction>  (15) 
rxn_1082

>  <mol_properties>  (15) 
{"0": {"label": "*3", "atom_type": "Cs"}, "1": {"label": "*4", "atom_type": "H0"}, "5": {"label": "*0", "atom_type": "Cd"}, "6": {"label": "*1", "atom_type": "Cs"}, "12": {"label": "*2", "atom_type": "H0"}}

>  <type>  (15) 
unop_11

>  <geom_source>  (15) 
Heuristics

$$$$

     RDKit          3D

 19 17  0  0  0  0  0  0  0  0999 V2000
   -0.0024    2.0996   -1.0922 C   0  0  0  0  0  0  0  0  0  0  0  0
   -0.0024    1.7816   -2.1336 H   0  0  0  0  0  0  0  0  0  0  0  0
    0.8867    2.6966   -0.8950 H   0  0  0  0  0  0  0  0  0  0  0  0
   -0.6878    2.4496   -0.3218 H   0  0  0  0  0  0  0  0  0  0  0  0
   -0.0024   -1.2292   -1.7308 C   0  0  0  0  0  0  0  0  0  0  0  0
   -0.0024   -1.2292   -0.4073 C   0  0  0  0  0  0  0  0  0  0  0  0
   -0.0024   -0.0078    0.4647 C   0  0  0  0  0  3  0  0  0  0  0  0
    1.2569    0.0327    1.3324 C   0  0  0  0  0  0  0  0  0  0  0  0
   -1.2617    0.0327    1.3324 C   0  0  0  0  0  0  0  0  0  0  0  0
   -0.0024   -2.1509   -2.2991 H   0  0  0  0  0  0  0  0  0  0  0  0
   -0.0024   -0.3026   -2.2954 H   0  0  0  0  0  0  0  0  0  0  0  0
   -0.0024   -2.1805    0.1232 H   0  0  0  0  0  0  0  0  0  0  0  0
   -0.0024    1.0486   -0.3157 H   0  0  0  0  0  0  0  0  0  0  0  0
    2.1584    0.0386    0.7182 H   0  0  0  0  0  0  0  0  0  0  0  0
    1.3015   -0.8412    1.9882 H   0  0  0  0  0  0  0  0  0  0  0  0
    1.2644    0.9239    1.9633 H   0  0  0  0  0  0  0  0  0  0  0  0
   -1.3063   -0.8412    1.9882 H   0  0  0  0  0  0  0  0  0  0  0  0
   -2.1633    0.0386    0.7182 H   0  0  0  0  0  0  0  0  0  0  0  0
   -1.2693    0.9239    1.9633 H   0  0  0  0  0  0  0  0  0  0  0  0
  1  2  1  0
  1  3  1  0
  1  4  1  0
  1 13  1  0
  5  6  2  3
  5 10  1  0
  5 11  1  0
  6  7  1  0
  6 12  1  0
  7  8  1  0
  7  9  1  0
  8 14  1  0
  8 15  1  0
  8 16  1  0
  9 17  1  0
  9 18  1  0
  9 19  1  0
M  RAD  1   7   2
M  END
>  <reaction>  (16) 
rxn_1082

>  <mol_properties>  (16) 
{"0": {"label": "*3", "atom_type": "Cs"}, "1": {"label": "*4", "atom_type": "H0"}, "5": {"label": "*0", "atom_type": "Cd"}, "6": {"label": "*1", "atom_type": "Cs"}, "12": {"label": "*2", "atom_type": "H0"}}

>  <type>  (16) 
unop_12

>  <geom_source>  (16) 
Heuristics

$$$$

     RDKit          3D

 19 17  0  0  0  0  0  0  0  0999 V2000
   -0.5529   -1.2468    1.3250 C   0  0  0  0  0  0  0  0  0  0  0  0
    0.2266   -1.0302   -1.0828 C   0  0  0  0  0  0  0  0  0  0  0  0
    2.1313    1.1103   -0.0017 C   0  0  0  0  0  0  0  0  0  0  0  0
   -0.0376   -0.3029    0.2369 C   0  0  0  0  0  3  0  0  0  0  0  0
   -0.9240    0.9040    0.0585 C   0  0  0  0  0  0  0  0  0  0  0  0
   -2.1915    0.8150   -0.3599 C   0  0  0  0  0  0  0  0  0  0  0  0
    0.1915   -2.0497    1.5087 H   0  0  0  0  0  0  0  0  0  0  0  0
   -0.7002   -0.6866    2.2724 H   0  0  0  0  0  0  0  0  0  0  0  0
   -1.5158   -1.7111    1.0229 H   0  0  0  0  0  0  0  0  0  0  0  0
    0.9798   -1.8307   -0.9259 H   0  0  0  0  0  0  0  0  0  0  0  0
   -0.7063   -1.4862   -1.4774 H   0  0  0  0  0  0  0  0  0  0  0  0
    0.6290   -0.3172   -1.8332 H   0  0  0  0  0  0  0  0  0  0  0  0
    2.8000    1.3426    0.8526 H   0  0  0  0  0  0  0  0  0  0  0  0
    1.8763    2.0479   -0.5372 H   0  0  0  0  0  0  0  0  0  0  0  0
    2.6468    0.4160   -0.6966 H   0  0  0  0  0  0  0  0  0  0  0  0
    1.0861    0.5755    0.4216 H   0  0  0  0  0  0  0  0  0  0  0  0
   -0.5090    1.8818    0.2808 H   0  0  0  0  0  0  0  0  0  0  0  0
   -2.6410   -0.1453   -0.5918 H   0  0  0  0  0  0  0  0  0  0  0  0
   -2.7892    1.7136   -0.4726 H   0  0  0  0  0  0  0  0  0  0  0  0
  1  4  1  0
  1  7  1  0
  1  8  1  0
  1  9  1  0
  2  4  1  0
  2 10  1  0
  2 11  1  0
  2 12  1  0
  3 13  1  0
  3 14  1  0
  3 15  1  0
  3 16  1  0
  4  5  1  0
  5  6  2  3
  5 17  1  0
  6 18  1  0
  6 19  1  0
M  RAD  1   4   2
M  END
>  <reaction>  (17) 
rxn_1082

>  <mol_properties>  (17) 
{"0": {"label": "*3", "atom_type": "Cs"}, "1": {"label": "*4", "atom_type": "H0"}, "5": {"label": "*0", "atom_type": "Cd"}, "6": {"label": "*1", "atom_type": "Cs"}, "12": {"label": "*2", "atom_type": "H0"}}

>  <type>  (17) 
unop_13

>  <geom_source>  (17) 
AutoTST

$$$$
