
     RDKit          3D

 13 12  0  0  0  0  0  0  0  0999 V2000
    3.0977   -0.3549   -0.5105 C   0  0  0  0  0  0  0  0  0  0  0  0
    2.0556    0.4221   -0.2627 C   0  0  0  0  0  0  0  0  0  0  0  0
    0.6313   -0.0354   -0.2366 C   0  0  0  0  0  0  0  0  0  0  0  0
   -0.2567    0.6038   -1.2694 C   0  0  0  0  0  0  0  0  0  0  0  0
    0.1459    1.3456   -2.2891 C   0  0  0  0  0  0  0  0  0  0  0  0
    4.1081    0.0344   -0.5074 H   0  0  0  0  0  0  0  0  0  0  0  0
    2.9777   -1.4116   -0.7243 H   0  0  0  0  0  0  0  0  0  0  0  0
    2.2171    1.4781   -0.0618 H   0  0  0  0  0  0  0  0  0  0  0  0
    0.5865   -1.1233   -0.3540 H   0  0  0  0  0  0  0  0  0  0  0  0
    0.2065    0.1743    0.7521 H   0  0  0  0  0  0  0  0  0  0  0  0
   -1.3190    0.4126   -1.1445 H   0  0  0  0  0  0  0  0  0  0  0  0
    1.1948    1.5564   -2.4628 H   0  0  0  0  0  0  0  0  0  0  0  0
   -0.5644    1.7621   -2.9918 H   0  0  0  0  0  0  0  0  0  0  0  0
  1  2  2  3
  1  6  1  0
  1  7  1  0
  2  3  1  0
  2  8  1  0
  3  4  1  0
  3  9  1  0
  3 10  1  0
  4  5  2  3
  4 11  1  0
  5 12  1  0
  5 13  1  0
M  END
>  <reaction>  (1) 
rxn_1128

>  <mol_properties>  (1) 
{"2": {"label": "donator", "atom_type": "Cs"}, "8": {"label": "d_hydrogen", "atom_type": "H0"}}

>  <type>  (1) 
r1h

$$$$

     RDKit          3D

 10  9  0  0  0  0  0  0  0  0999 V2000
    1.2930    0.1441    0.3288 C   0  0  0  0  0  0  0  0  0  0  0  0
   -0.0374   -0.1647    0.9100 C   0  0  0  0  0  3  0  0  0  0  0  0
   -1.2664    0.4569    0.3567 C   0  0  0  0  0  0  0  0  0  0  0  0
    1.4384    1.2242    0.2174 H   0  0  0  0  0  0  0  0  0  0  0  0
    2.1077   -0.2477    0.9385 H   0  0  0  0  0  0  0  0  0  0  0  0
    1.4057   -0.2836   -0.6789 H   0  0  0  0  0  0  0  0  0  0  0  0
   -0.1309   -0.9912    1.6030 H   0  0  0  0  0  0  0  0  0  0  0  0
   -1.5005    0.0716   -0.6471 H   0  0  0  0  0  0  0  0  0  0  0  0
   -2.1382    0.2713    0.9849 H   0  0  0  0  0  0  0  0  0  0  0  0
   -1.1497    1.5406    0.2456 H   0  0  0  0  0  0  0  0  0  0  0  0
  1  2  1  0
  1  4  1  0
  1  5  1  0
  1  6  1  0
  2  3  1  0
  2  7  1  0
  3  8  1  0
  3  9  1  0
  3 10  1  0
M  RAD  1   2   2
M  END
>  <reaction>  (2) 
rxn_1128

>  <mol_properties>  (2) 
{"1": {"label": "acceptor", "atom_type": "Cs"}}

>  <type>  (2) 
r2

$$$$

     RDKit          3D

 11 10  0  0  0  0  0  0  0  0999 V2000
   -1.2710    0.1907   -0.2084 C   0  0  0  0  0  0  0  0  0  0  0  0
    0.0202   -0.6130   -0.2928 C   0  0  0  0  0  0  0  0  0  0  0  0
    0.1086   -1.6953    0.7756 C   0  0  0  0  0  0  0  0  0  0  0  0
   -1.3607    0.6851    0.7620 H   0  0  0  0  0  0  0  0  0  0  0  0
   -2.1429   -0.4567   -0.3299 H   0  0  0  0  0  0  0  0  0  0  0  0
   -1.3158    0.9602   -0.9809 H   0  0  0  0  0  0  0  0  0  0  0  0
    0.8757    0.0616   -0.1992 H   0  0  0  0  0  0  0  0  0  0  0  0
    0.0997   -1.0712   -1.2825 H   0  0  0  0  0  0  0  0  0  0  0  0
   -0.7198   -2.4022    0.6850 H   0  0  0  0  0  0  0  0  0  0  0  0
    1.0395   -2.2596    0.6989 H   0  0  0  0  0  0  0  0  0  0  0  0
    0.0624   -1.2603    1.7770 H   0  0  0  0  0  0  0  0  0  0  0  0
  1  2  1  0
  1  4  1  0
  1  5  1  0
  1  6  1  0
  2  3  1  0
  2  7  1  0
  2  8  1  0
  3  9  1  0
  3 10  1  0
  3 11  1  0
M  END
>  <reaction>  (3) 
rxn_1128

>  <mol_properties>  (3) 
{"0": {"label": "a_hydrogen", "atom_type": "H0"}, "2": {"label": "acceptor", "atom_type": "Cs"}}

>  <type>  (3) 
r2h

$$$$

     RDKit          3D

 23 21  0  0  0  0  0  0  0  0999 V2000
   -0.7556   -2.1671   -1.1745 C   0  0  0  0  0  0  0  0  0  0  0  0
    0.0847   -1.4310   -0.4523 C   0  0  0  0  0  0  0  0  0  0  0  0
   -0.2939   -0.6317    0.7219 C   0  0  0  0  0  0  0  0  0  0  0  0
    0.6662   -0.4751    1.8320 C   0  0  0  0  0  0  0  0  0  0  0  0
    1.9187   -0.9194    1.8849 C   0  0  0  0  0  0  0  0  0  0  0  0
   -0.4260   -2.6977   -2.0584 H   0  0  0  0  0  0  0  0  0  0  0  0
   -1.8001   -2.2671   -0.8995 H   0  0  0  0  0  0  0  0  0  0  0  0
    1.1204   -1.3613   -0.7730 H   0  0  0  0  0  0  0  0  0  0  0  0
   -0.4536    0.5496    0.2836 H   0  0  0  0  0  0  0  0  0  0  0  0
   -1.3041   -0.8507    1.0729 H   0  0  0  0  0  0  0  0  0  0  0  0
    0.2913    0.0994    2.6752 H   0  0  0  0  0  0  0  0  0  0  0  0
    2.3582   -1.5137    1.0933 H   0  0  0  0  0  0  0  0  0  0  0  0
    2.5449   -0.7114    2.7428 H   0  0  0  0  0  0  0  0  0  0  0  0
   -1.7995    1.6894   -1.2245 C   0  0  0  0  0  0  0  0  0  0  0  0
   -0.5853    1.8468   -0.3595 C   0  0  0  0  0  3  0  0  0  0  0  0
    0.7396    1.9796   -1.0479 C   0  0  0  0  0  0  0  0  0  0  0  0
   -1.6776    0.8465   -1.9101 H   0  0  0  0  0  0  0  0  0  0  0  0
   -2.6986    1.5175   -0.6305 H   0  0  0  0  0  0  0  0  0  0  0  0
   -1.9729    2.5843   -1.8349 H   0  0  0  0  0  0  0  0  0  0  0  0
   -0.7163    2.4953    0.5057 H   0  0  0  0  0  0  0  0  0  0  0  0
    0.8157    2.9306   -1.5887 H   0  0  0  0  0  0  0  0  0  0  0  0
    1.5660    1.9348   -0.3363 H   0  0  0  0  0  0  0  0  0  0  0  0
    0.8765    1.1795   -1.7803 H   0  0  0  0  0  0  0  0  0  0  0  0
  1  2  2  3
  1  6  1  0
  1  7  1  0
  2  3  1  0
  2  8  1  0
  3  4  1  0
  3  9  1  0
  3 10  1  0
  4  5  2  3
  4 11  1  0
  5 12  1  0
  5 13  1  0
 14 15  1  0
 14 17  1  0
 14 18  1  0
 14 19  1  0
 15 16  1  0
 15 20  1  0
 16 21  1  0
 16 22  1  0
 16 23  1  0
M  RAD  1  15   2
M  END
>  <reaction>  (4) 
rxn_1128

>  <mol_properties>  (4) 
{"1": {"label": "*0", "atom_type": "Cd"}, "2": {"label": "*1", "atom_type": "Cs"}, "8": {"label": "*2", "atom_type": "H0"}, "13": {"label": "*4", "atom_type": "Cs"}, "14": {"label": "*3", "atom_type": "Cs"}}

>  <type>  (4) 
ts

$$$$

     RDKit          3D

 23 21  0  0  0  0  0  0  0  0999 V2000
   -0.2395   -1.8719   -1.2952 C   0  0  0  0  0  0  0  0  0  0  0  0
   -0.2395   -1.8719    0.0280 C   0  0  0  0  0  0  0  0  0  0  0  0
   -0.2395   -0.6461    0.8860 C   0  0  0  0  0  3  0  0  0  0  0  0
    0.9702   -0.4917    1.7672 C   0  0  0  0  0  0  0  0  0  0  0  0
    2.0813   -1.2074    1.6948 C   0  0  0  0  0  0  0  0  0  0  0  0
   -0.2477   -2.7946   -1.8618 H   0  0  0  0  0  0  0  0  0  0  0  0
   -0.2332   -0.9464   -1.8612 H   0  0  0  0  0  0  0  0  0  0  0  0
   -0.2370   -2.8206    0.5586 H   0  0  0  0  0  0  0  0  0  0  0  0
   -0.3596    0.4259    0.1355 H   0  0  0  0  0  0  0  0  0  0  0  0
   -1.1275   -0.6595    1.5288 H   0  0  0  0  0  0  0  0  0  0  0  0
    0.8975    0.2933    2.5150 H   0  0  0  0  0  0  0  0  0  0  0  0
    2.2068   -1.9942    0.9599 H   0  0  0  0  0  0  0  0  0  0  0  0
    2.9095   -1.0231    2.3671 H   0  0  0  0  0  0  0  0  0  0  0  0
   -1.7402    2.2542   -0.2178 C   0  0  0  0  0  0  0  0  0  0  0  0
   -0.4795    1.4964   -0.6140 C   0  0  0  0  0  0  0  0  0  0  0  0
    0.0240    1.8792   -1.9998 C   0  0  0  0  0  0  0  0  0  0  0  0
   -2.5516    2.0584   -0.9230 H   0  0  0  0  0  0  0  0  0  0  0  0
   -2.0852    1.9666    0.7768 H   0  0  0  0  0  0  0  0  0  0  0  0
   -1.5622    3.3323   -0.2116 H   0  0  0  0  0  0  0  0  0  0  0  0
    0.3055    1.6850    0.1235 H   0  0  0  0  0  0  0  0  0  0  0  0
    0.2576    2.9455   -2.0497 H   0  0  0  0  0  0  0  0  0  0  0  0
    0.9267    1.3265   -2.2654 H   0  0  0  0  0  0  0  0  0  0  0  0
   -0.7318    1.6716   -2.7612 H   0  0  0  0  0  0  0  0  0  0  0  0
  1  2  2  3
  1  6  1  0
  1  7  1  0
  2  3  1  0
  2  8  1  0
  3  4  1  0
  3 10  1  0
  4  5  2  3
  4 11  1  0
  5 12  1  0
  5 13  1  0
  9 15  1  0
 14 15  1  0
 14 17  1  0
 14 18  1  0
 14 19  1  0
 15 16  1  0
 15 20  1  0
 16 21  1  0
 16 22  1  0
 16 23  1  0
M  RAD  1   3   2
M  END
>  <reaction>  (5) 
rxn_1128

>  <mol_properties>  (5) 
{"1": {"label": "*0", "atom_type": "Cd"}, "2": {"label": "*1", "atom_type": "Cs"}, "8": {"label": "*2", "atom_type": "H0"}, "13": {"label": "*4", "atom_type": "Cs"}, "14": {"label": "*3", "atom_type": "Cs"}}

>  <type>  (5) 
unop_1

>  <geom_source>  (5) 
Heuristics

$$$$

     RDKit          3D

 23 21  0  0  0  0  0  0  0  0999 V2000
   -0.3861   -1.7963   -1.2170 C   0  0  0  0  0  0  0  0  0  0  0  0
   -0.3861   -1.7963    0.1063 C   0  0  0  0  0  0  0  0  0  0  0  0
   -0.3861   -0.5705    0.9643 C   0  0  0  0  0  3  0  0  0  0  0  0
    0.8236   -0.4161    1.8455 C   0  0  0  0  0  0  0  0  0  0  0  0
    1.9347   -1.1318    1.7730 C   0  0  0  0  0  0  0  0  0  0  0  0
   -0.3943   -2.7191   -1.7835 H   0  0  0  0  0  0  0  0  0  0  0  0
   -0.3798   -0.8709   -1.7830 H   0  0  0  0  0  0  0  0  0  0  0  0
   -0.3836   -2.7451    0.6368 H   0  0  0  0  0  0  0  0  0  0  0  0
   -0.5062    0.5015    0.2137 H   0  0  0  0  0  0  0  0  0  0  0  0
   -1.2741   -0.5840    1.6070 H   0  0  0  0  0  0  0  0  0  0  0  0
    0.7509    0.3689    2.5932 H   0  0  0  0  0  0  0  0  0  0  0  0
    2.0602   -1.9187    1.0382 H   0  0  0  0  0  0  0  0  0  0  0  0
    2.7630   -0.9475    2.4454 H   0  0  0  0  0  0  0  0  0  0  0  0
   -1.4285    1.2293   -1.7845 C   0  0  0  0  0  0  0  0  0  0  0  0
   -0.6261    1.5719   -0.5358 C   0  0  0  0  0  0  0  0  0  0  0  0
    0.5407    2.5072   -0.8263 C   0  0  0  0  0  0  0  0  0  0  0  0
   -0.7988    0.7397   -2.5313 H   0  0  0  0  0  0  0  0  0  0  0  0
   -2.2590    0.5592   -1.5564 H   0  0  0  0  0  0  0  0  0  0  0  0
   -1.8421    2.1310   -2.2426 H   0  0  0  0  0  0  0  0  0  0  0  0
   -1.2853    2.0318    0.2057 H   0  0  0  0  0  0  0  0  0  0  0  0
    0.1891    3.4491   -1.2542 H   0  0  0  0  0  0  0  0  0  0  0  0
    1.1028    2.7408    0.0795 H   0  0  0  0  0  0  0  0  0  0  0  0
    1.2324    2.0578   -1.5429 H   0  0  0  0  0  0  0  0  0  0  0  0
  1  2  2  3
  1  6  1  0
  1  7  1  0
  2  3  1  0
  2  8  1  0
  3  4  1  0
  3 10  1  0
  4  5  2  3
  4 11  1  0
  5 12  1  0
  5 13  1  0
  9 15  1  0
 14 15  1  0
 14 17  1  0
 14 18  1  0
 14 19  1  0
 15 16  1  0
 15 20  1  0
 16 21  1  0
 16 22  1  0
 16 23  1  0
M  RAD  1   3   2
M  END
>  <reaction>  (6) 
rxn_1128

>  <mol_properties>  (6) 
{"1": {"label": "*0", "atom_type": "Cd"}, "2": {"label": "*1", "atom_type": "Cs"}, "8": {"label": "*2", "atom_type": "H0"}, "13": {"label": "*4", "atom_type": "Cs"}, "14": {"label": "*3", "atom_type": "Cs"}}

>  <type>  (6) 
unop_2

>  <geom_source>  (6) 
Heuristics

$$$$

     RDKit          3D

 23 21  0  0  0  0  0  0  0  0999 V2000
   -0.2105   -1.8758   -1.3294 C   0  0  0  0  0  0  0  0  0  0  0  0
   -0.2105   -1.8758   -0.0061 C   0  0  0  0  0  0  0  0  0  0  0  0
   -0.2105   -0.6500    0.8519 C   0  0  0  0  0  3  0  0  0  0  0  0
    0.9992   -0.4957    1.7331 C   0  0  0  0  0  0  0  0  0  0  0  0
    2.1103   -1.2113    1.6606 C   0  0  0  0  0  0  0  0  0  0  0  0
   -0.2187   -2.7986   -1.8959 H   0  0  0  0  0  0  0  0  0  0  0  0
   -0.2042   -0.9504   -1.8954 H   0  0  0  0  0  0  0  0  0  0  0  0
   -0.2080   -2.8246    0.5244 H   0  0  0  0  0  0  0  0  0  0  0  0
   -0.3306    0.4220    0.1013 H   0  0  0  0  0  0  0  0  0  0  0  0
   -1.0985   -0.6635    1.4947 H   0  0  0  0  0  0  0  0  0  0  0  0
    0.9265    0.2894    2.4808 H   0  0  0  0  0  0  0  0  0  0  0  0
    2.2358   -1.9982    0.9258 H   0  0  0  0  0  0  0  0  0  0  0  0
    2.9385   -1.0271    2.3330 H   0  0  0  0  0  0  0  0  0  0  0  0
   -1.1705    2.5822    0.1358 C   0  0  0  0  0  0  0  0  0  0  0  0
   -0.4505    1.4924   -0.6481 C   0  0  0  0  0  0  0  0  0  0  0  0
   -0.7100    1.5788   -2.1467 C   0  0  0  0  0  0  0  0  0  0  0  0
   -2.2516    2.5191   -0.0102 H   0  0  0  0  0  0  0  0  0  0  0  0
   -0.9726    2.5038    1.2061 H   0  0  0  0  0  0  0  0  0  0  0  0
   -0.8514    3.5747   -0.1917 H   0  0  0  0  0  0  0  0  0  0  0  0
    0.6247    1.5589   -0.4605 H   0  0  0  0  0  0  0  0  0  0  0  0
   -0.3763    2.5397   -2.5462 H   0  0  0  0  0  0  0  0  0  0  0  0
   -0.1864    0.7908   -2.6906 H   0  0  0  0  0  0  0  0  0  0  0  0
   -1.7765    1.4840   -2.3646 H   0  0  0  0  0  0  0  0  0  0  0  0
  1  2  2  3
  1  6  1  0
  1  7  1  0
  2  3  1  0
  2  8  1  0
  3  4  1  0
  3 10  1  0
  4  5  2  3
  4 11  1  0
  5 12  1  0
  5 13  1  0
  9 15  1  0
 14 15  1  0
 14 17  1  0
 14 18  1  0
 14 19  1  0
 15 16  1  0
 15 20  1  0
 16 21  1  0
 16 22  1  0
 16 23  1  0
M  RAD  1   3   2
M  END
>  <reaction>  (7) 
rxn_1128

>  <mol_properties>  (7) 
{"1": {"label": "*0", "atom_type": "Cd"}, "2": {"label": "*1", "atom_type": "Cs"}, "8": {"label": "*2", "atom_type": "H0"}, "13": {"label": "*4", "atom_type": "Cs"}, "14": {"label": "*3", "atom_type": "Cs"}}

>  <type>  (7) 
unop_3

>  <geom_source>  (7) 
Heuristics

$$$$

     RDKit          3D

 23 21  0  0  0  0  0  0  0  0999 V2000
   -0.5393   -1.8241   -1.4730 C   0  0  0  0  0  0  0  0  0  0  0  0
   -0.5393   -1.8241   -0.1498 C   0  0  0  0  0  0  0  0  0  0  0  0
   -0.5393   -0.5983    0.7082 C   0  0  0  0  0  3  0  0  0  0  0  0
    0.6704   -0.4439    1.5895 C   0  0  0  0  0  0  0  0  0  0  0  0
    1.7816   -1.1596    1.5170 C   0  0  0  0  0  0  0  0  0  0  0  0
   -0.5475   -2.7468   -2.0395 H   0  0  0  0  0  0  0  0  0  0  0  0
   -0.5330   -0.8986   -2.0390 H   0  0  0  0  0  0  0  0  0  0  0  0
   -0.5368   -2.7729    0.3808 H   0  0  0  0  0  0  0  0  0  0  0  0
   -0.6594    0.4737   -0.0423 H   0  0  0  0  0  0  0  0  0  0  0  0
   -1.4273   -0.6118    1.3510 H   0  0  0  0  0  0  0  0  0  0  0  0
    0.5977    0.3411    2.3372 H   0  0  0  0  0  0  0  0  0  0  0  0
    1.9070   -1.9465    0.7822 H   0  0  0  0  0  0  0  0  0  0  0  0
    2.6098   -0.9753    2.1894 H   0  0  0  0  0  0  0  0  0  0  0  0
    0.3887    1.6136   -1.7672 C   0  0  0  0  0  0  0  0  0  0  0  0
   -0.7793    1.5441   -0.7918 C   0  0  0  0  0  0  0  0  0  0  0  0
   -0.4922    2.2642    0.5196 C   0  0  0  0  0  0  0  0  0  0  0  0
    1.2844    1.1589   -1.3371 H   0  0  0  0  0  0  0  0  0  0  0  0
    0.1642    1.0928   -2.6996 H   0  0  0  0  0  0  0  0  0  0  0  0
    0.6312    2.6503   -2.0131 H   0  0  0  0  0  0  0  0  0  0  0  0
   -1.6689    1.9771   -1.2576 H   0  0  0  0  0  0  0  0  0  0  0  0
   -0.2774    3.3214    0.3458 H   0  0  0  0  0  0  0  0  0  0  0  0
   -1.3396    2.2035    1.2045 H   0  0  0  0  0  0  0  0  0  0  0  0
    0.3758    1.8300    1.0217 H   0  0  0  0  0  0  0  0  0  0  0  0
  1  2  2  3
  1  6  1  0
  1  7  1  0
  2  3  1  0
  2  8  1  0
  3  4  1  0
  3 10  1  0
  4  5  2  3
  4 11  1  0
  5 12  1  0
  5 13  1  0
  9 15  1  0
 14 15  1  0
 14 17  1  0
 14 18  1  0
 14 19  1  0
 15 16  1  0
 15 20  1  0
 16 21  1  0
 16 22  1  0
 16 23  1  0
M  RAD  1   3   2
M  END
>  <reaction>  (8) 
rxn_1128

>  <mol_properties>  (8) 
{"1": {"label": "*0", "atom_type": "Cd"}, "2": {"label": "*1", "atom_type": "Cs"}, "8": {"label": "*2", "atom_type": "H0"}, "13": {"label": "*4", "atom_type": "Cs"}, "14": {"label": "*3", "atom_type": "Cs"}}

>  <type>  (8) 
unop_4

>  <geom_source>  (8) 
Heuristics

$$$$

     RDKit          3D

 23 21  0  0  0  0  0  0  0  0999 V2000
   -0.1690   -1.8683   -1.4284 C   0  0  0  0  0  0  0  0  0  0  0  0
   -0.1690   -1.8683   -0.1052 C   0  0  0  0  0  0  0  0  0  0  0  0
   -0.1690   -0.6425    0.7528 C   0  0  0  0  0  3  0  0  0  0  0  0
    1.0407   -0.4881    1.6340 C   0  0  0  0  0  0  0  0  0  0  0  0
    2.1518   -1.2038    1.5616 C   0  0  0  0  0  0  0  0  0  0  0  0
   -0.1772   -2.7910   -1.9950 H   0  0  0  0  0  0  0  0  0  0  0  0
   -0.1627   -0.9428   -1.9944 H   0  0  0  0  0  0  0  0  0  0  0  0
   -0.1665   -2.8171    0.4253 H   0  0  0  0  0  0  0  0  0  0  0  0
   -0.2891    0.4295    0.0023 H   0  0  0  0  0  0  0  0  0  0  0  0
   -1.0570   -0.6560    1.3956 H   0  0  0  0  0  0  0  0  0  0  0  0
    0.9680    0.2969    2.3817 H   0  0  0  0  0  0  0  0  0  0  0  0
    2.2773   -1.9907    0.8267 H   0  0  0  0  0  0  0  0  0  0  0  0
    2.9800   -1.0195    2.2339 H   0  0  0  0  0  0  0  0  0  0  0  0
   -0.4078    2.7406    0.1367 C   0  0  0  0  0  0  0  0  0  0  0  0
   -0.4090    1.4999   -0.7472 C   0  0  0  0  0  0  0  0  0  0  0  0
   -1.6685    1.3859   -1.5964 C   0  0  0  0  0  0  0  0  0  0  0  0
   -1.2602    2.7340    0.8204 H   0  0  0  0  0  0  0  0  0  0  0  0
    0.5015    2.8047    0.7368 H   0  0  0  0  0  0  0  0  0  0  0  0
   -0.4759    3.6496   -0.4658 H   0  0  0  0  0  0  0  0  0  0  0  0
    0.4690    1.5163   -1.3988 H   0  0  0  0  0  0  0  0  0  0  0  0
   -1.7764    2.2522   -2.2536 H   0  0  0  0  0  0  0  0  0  0  0  0
   -1.6509    0.4919   -2.2221 H   0  0  0  0  0  0  0  0  0  0  0  0
   -2.5607    1.3366   -0.9674 H   0  0  0  0  0  0  0  0  0  0  0  0
  1  2  2  3
  1  6  1  0
  1  7  1  0
  2  3  1  0
  2  8  1  0
  3  4  1  0
  3 10  1  0
  4  5  2  3
  4 11  1  0
  5 12  1  0
  5 13  1  0
  9 15  1  0
 14 15  1  0
 14 17  1  0
 14 18  1  0
 14 19  1  0
 15 16  1  0
 15 20  1  0
 16 21  1  0
 16 22  1  0
 16 23  1  0
M  RAD  1   3   2
M  END
>  <reaction>  (9) 
rxn_1128

>  <mol_properties>  (9) 
{"1": {"label": "*0", "atom_type": "Cd"}, "2": {"label": "*1", "atom_type": "Cs"}, "8": {"label": "*2", "atom_type": "H0"}, "13": {"label": "*4", "atom_type": "Cs"}, "14": {"label": "*3", "atom_type": "Cs"}}

>  <type>  (9) 
unop_5

>  <geom_source>  (9) 
Heuristics

$$$$

     RDKit          3D

 23 21  0  0  0  0  0  0  0  0999 V2000
   -0.4713   -1.8502   -1.5621 C   0  0  0  0  0  0  0  0  0  0  0  0
   -0.4713   -1.8502   -0.2388 C   0  0  0  0  0  0  0  0  0  0  0  0
   -0.4713   -0.6244    0.6192 C   0  0  0  0  0  3  0  0  0  0  0  0
    0.7384   -0.4700    1.5004 C   0  0  0  0  0  0  0  0  0  0  0  0
    1.8495   -1.1857    1.4280 C   0  0  0  0  0  0  0  0  0  0  0  0
   -0.4795   -2.7729   -2.1286 H   0  0  0  0  0  0  0  0  0  0  0  0
   -0.4650   -0.9247   -2.1280 H   0  0  0  0  0  0  0  0  0  0  0  0
   -0.4688   -2.7989    0.2917 H   0  0  0  0  0  0  0  0  0  0  0  0
   -0.5914    0.4476   -0.1314 H   0  0  0  0  0  0  0  0  0  0  0  0
   -1.3593   -0.6379    1.2620 H   0  0  0  0  0  0  0  0  0  0  0  0
    0.6657    0.3150    2.2481 H   0  0  0  0  0  0  0  0  0  0  0  0
    1.9750   -1.9726    0.6931 H   0  0  0  0  0  0  0  0  0  0  0  0
    2.6777   -1.0014    2.1003 H   0  0  0  0  0  0  0  0  0  0  0  0
    0.6720    2.0117   -1.2848 C   0  0  0  0  0  0  0  0  0  0  0  0
   -0.7113    1.5180   -0.8808 C   0  0  0  0  0  0  0  0  0  0  0  0
   -1.1269    2.0036    0.5019 C   0  0  0  0  0  0  0  0  0  0  0  0
    1.4314    1.6673   -0.5786 H   0  0  0  0  0  0  0  0  0  0  0  0
    0.9517    1.6539   -2.2771 H   0  0  0  0  0  0  0  0  0  0  0  0
    0.7079    3.1038   -1.3004 H   0  0  0  0  0  0  0  0  0  0  0  0
   -1.4463    1.8500   -1.6193 H   0  0  0  0  0  0  0  0  0  0  0  0
   -1.1477    3.0954    0.5426 H   0  0  0  0  0  0  0  0  0  0  0  0
   -2.1194    1.6401    0.7733 H   0  0  0  0  0  0  0  0  0  0  0  0
   -0.4242    1.6589    1.2645 H   0  0  0  0  0  0  0  0  0  0  0  0
  1  2  2  3
  1  6  1  0
  1  7  1  0
  2  3  1  0
  2  8  1  0
  3  4  1  0
  3 10  1  0
  4  5  2  3
  4 11  1  0
  5 12  1  0
  5 13  1  0
  9 15  1  0
 14 15  1  0
 14 17  1  0
 14 18  1  0
 14 19  1  0
 15 16  1  0
 15 20  1  0
 16 21  1  0
 16 22  1  0
 16 23  1  0
M  RAD  1   3   2
M  END
>  <reaction>  (10) 
rxn_1128

>  <mol_properties>  (10) 
{"1": {"label": "*0", "atom_type": "Cd"}, "2": {"label": "*1", "atom_type": "Cs"}, "8": {"label": "*2", "atom_type": "H0"}, "13": {"label": "*4", "atom_type": "Cs"}, "14": {"label": "*3", "atom_type": "Cs"}}

>  <type>  (10) 
unop_6

>  <geom_source>  (10) 
Heuristics

$$$$

     RDKit          3D

 23 21  0  0  0  0  0  0  0  0999 V2000
   -0.3587   -1.8656   -1.6021 C   0  0  0  0  0  0  0  0  0  0  0  0
   -0.3587   -1.8656   -0.2789 C   0  0  0  0  0  0  0  0  0  0  0  0
   -0.3587   -0.6398    0.5791 C   0  0  0  0  0  3  0  0  0  0  0  0
    0.8511   -0.4854    1.4603 C   0  0  0  0  0  0  0  0  0  0  0  0
    1.9622   -1.2011    1.3879 C   0  0  0  0  0  0  0  0  0  0  0  0
   -0.3668   -2.7883   -2.1687 H   0  0  0  0  0  0  0  0  0  0  0  0
   -0.3523   -0.9401   -2.1681 H   0  0  0  0  0  0  0  0  0  0  0  0
   -0.3561   -2.8143    0.2516 H   0  0  0  0  0  0  0  0  0  0  0  0
   -0.4787    0.4322   -0.1714 H   0  0  0  0  0  0  0  0  0  0  0  0
   -1.2466   -0.6532    1.2219 H   0  0  0  0  0  0  0  0  0  0  0  0
    0.7784    0.2996    2.2080 H   0  0  0  0  0  0  0  0  0  0  0  0
    2.0877   -1.9879    0.6530 H   0  0  0  0  0  0  0  0  0  0  0  0
    2.7904   -1.0168    2.0602 H   0  0  0  0  0  0  0  0  0  0  0  0
    0.6169    2.3992   -0.7228 C   0  0  0  0  0  0  0  0  0  0  0  0
   -0.5987    1.5027   -0.9209 C   0  0  0  0  0  0  0  0  0  0  0  0
   -1.6567    1.7022    0.1568 C   0  0  0  0  0  0  0  0  0  0  0  0
    1.0942    2.2029    0.2404 H   0  0  0  0  0  0  0  0  0  0  0  0
    1.3629    2.2419   -1.5037 H   0  0  0  0  0  0  0  0  0  0  0  0
    0.3315    3.4538   -0.7401 H   0  0  0  0  0  0  0  0  0  0  0  0
   -1.0383    1.6973   -1.9031 H   0  0  0  0  0  0  0  0  0  0  0  0
   -2.0138    2.7349    0.1672 H   0  0  0  0  0  0  0  0  0  0  0  0
   -2.5187    1.0521   -0.0021 H   0  0  0  0  0  0  0  0  0  0  0  0
   -1.2510    1.4839    1.1476 H   0  0  0  0  0  0  0  0  0  0  0  0
  1  2  2  3
  1  6  1  0
  1  7  1  0
  2  3  1  0
  2  8  1  0
  3  4  1  0
  3 10  1  0
  4  5  2  3
  4 11  1  0
  5 12  1  0
  5 13  1  0
  9 15  1  0
 14 15  1  0
 14 17  1  0
 14 18  1  0
 14 19  1  0
 15 16  1  0
 15 20  1  0
 16 21  1  0
 16 22  1  0
 16 23  1  0
M  RAD  1   3   2
M  END
>  <reaction>  (11) 
rxn_1128

>  <mol_properties>  (11) 
{"1": {"label": "*0", "atom_type": "Cd"}, "2": {"label": "*1", "atom_type": "Cs"}, "8": {"label": "*2", "atom_type": "H0"}, "13": {"label": "*4", "atom_type": "Cs"}, "14": {"label": "*3", "atom_type": "Cs"}}

>  <type>  (11) 
unop_7

>  <geom_source>  (11) 
Heuristics

$$$$

     RDKit          3D

 23 21  0  0  0  0  0  0  0  0999 V2000
   -0.2582   -1.8512   -1.2628 C   0  0  0  0  0  0  0  0  0  0  0  0
   -0.2582   -1.8512    0.0605 C   0  0  0  0  0  0  0  0  0  0  0  0
   -0.2582   -0.6254    0.9185 C   0  0  0  0  0  3  0  0  0  0  0  0
    0.9515   -0.4711    1.7997 C   0  0  0  0  0  0  0  0  0  0  0  0
    2.0627   -1.1867    1.7272 C   0  0  0  0  0  0  0  0  0  0  0  0
   -0.2664   -2.7740   -1.8293 H   0  0  0  0  0  0  0  0  0  0  0  0
   -0.2519   -0.9258   -1.8288 H   0  0  0  0  0  0  0  0  0  0  0  0
   -0.2557   -2.8000    0.5910 H   0  0  0  0  0  0  0  0  0  0  0  0
   -0.3783    0.4466    0.1679 H   0  0  0  0  0  0  0  0  0  0  0  0
   -1.1462   -0.6389    1.5612 H   0  0  0  0  0  0  0  0  0  0  0  0
    0.8788    0.3140    2.5474 H   0  0  0  0  0  0  0  0  0  0  0  0
    2.1881   -1.9736    0.9924 H   0  0  0  0  0  0  0  0  0  0  0  0
    2.8909   -1.0025    2.3996 H   0  0  0  0  0  0  0  0  0  0  0  0
   -1.9742    1.8506   -0.7568 C   0  0  0  0  0  0  0  0  0  0  0  0
   -0.4982    1.5170   -0.5816 C   0  0  0  0  0  0  0  0  0  0  0  0
    0.3808    2.1709   -1.6400 C   0  0  0  0  0  0  0  0  0  0  0  0
   -2.3373    1.5159   -1.7316 H   0  0  0  0  0  0  0  0  0  0  0  0
   -2.5870    1.3736    0.0099 H   0  0  0  0  0  0  0  0  0  0  0  0
   -2.1409    2.9288   -0.6956 H   0  0  0  0  0  0  0  0  0  0  0  0
   -0.1688    1.8341    0.4118 H   0  0  0  0  0  0  0  0  0  0  0  0
    0.2882    3.2592   -1.6067 H   0  0  0  0  0  0  0  0  0  0  0  0
    1.4334    1.9205   -1.4979 H   0  0  0  0  0  0  0  0  0  0  0  0
    0.0919    1.8464   -2.6426 H   0  0  0  0  0  0  0  0  0  0  0  0
  1  2  2  3
  1  6  1  0
  1  7  1  0
  2  3  1  0
  2  8  1  0
  3  4  1  0
  3 10  1  0
  4  5  2  3
  4 11  1  0
  5 12  1  0
  5 13  1  0
  9 15  1  0
 14 15  1  0
 14 17  1  0
 14 18  1  0
 14 19  1  0
 15 16  1  0
 15 20  1  0
 16 21  1  0
 16 22  1  0
 16 23  1  0
M  RAD  1   3   2
M  END
>  <reaction>  (12) 
rxn_1128

>  <mol_properties>  (12) 
{"1": {"label": "*0", "atom_type": "Cd"}, "2": {"label": "*1", "atom_type": "Cs"}, "8": {"label": "*2", "atom_type": "H0"}, "13": {"label": "*4", "atom_type": "Cs"}, "14": {"label": "*3", "atom_type": "Cs"}}

>  <type>  (12) 
unop_8

>  <geom_source>  (12) 
Heuristics

$$$$

     RDKit          3D

 23 21  0  0  0  0  0  0  0  0999 V2000
   -0.5454   -1.7988   -1.3610 C   0  0  0  0  0  0  0  0  0  0  0  0
   -0.5454   -1.7988   -0.0377 C   0  0  0  0  0  0  0  0  0  0  0  0
   -0.5454   -0.5730    0.8203 C   0  0  0  0  0  3  0  0  0  0  0  0
    0.6643   -0.4186    1.7015 C   0  0  0  0  0  0  0  0  0  0  0  0
    1.7755   -1.1343    1.6290 C   0  0  0  0  0  0  0  0  0  0  0  0
   -0.5536   -2.7215   -1.9275 H   0  0  0  0  0  0  0  0  0  0  0  0
   -0.5391   -0.8734   -1.9270 H   0  0  0  0  0  0  0  0  0  0  0  0
   -0.5428   -2.7476    0.4928 H   0  0  0  0  0  0  0  0  0  0  0  0
   -0.6655    0.4990    0.0697 H   0  0  0  0  0  0  0  0  0  0  0  0
   -1.4334   -0.5865    1.4630 H   0  0  0  0  0  0  0  0  0  0  0  0
    0.5916    0.3664    2.4492 H   0  0  0  0  0  0  0  0  0  0  0  0
    1.9009   -1.9212    0.8942 H   0  0  0  0  0  0  0  0  0  0  0  0
    2.6037   -0.9500    2.3014 H   0  0  0  0  0  0  0  0  0  0  0  0
   -0.1581    1.3069   -2.0429 C   0  0  0  0  0  0  0  0  0  0  0  0
   -0.7854    1.5694   -0.6797 C   0  0  0  0  0  0  0  0  0  0  0  0
    0.0906    2.4409    0.2112 C   0  0  0  0  0  0  0  0  0  0  0  0
    0.8043    0.7999   -1.9389 H   0  0  0  0  0  0  0  0  0  0  0  0
   -0.7997    0.6816   -2.6660 H   0  0  0  0  0  0  0  0  0  0  0  0
    0.0189    2.2429   -2.5782 H   0  0  0  0  0  0  0  0  0  0  0  0
   -1.7592    2.0486   -0.8134 H   0  0  0  0  0  0  0  0  0  0  0  0
    0.2754    3.4126   -0.2531 H   0  0  0  0  0  0  0  0  0  0  0  0
   -0.3752    2.6176    1.1822 H   0  0  0  0  0  0  0  0  0  0  0  0
    1.0608    1.9696    0.3862 H   0  0  0  0  0  0  0  0  0  0  0  0
  1  2  2  3
  1  6  1  0
  1  7  1  0
  2  3  1  0
  2  8  1  0
  3  4  1  0
  3 10  1  0
  4  5  2  3
  4 11  1  0
  5 12  1  0
  5 13  1  0
  9 15  1  0
 14 15  1  0
 14 17  1  0
 14 18  1  0
 14 19  1  0
 15 16  1  0
 15 20  1  0
 16 21  1  0
 16 22  1  0
 16 23  1  0
M  RAD  1   3   2
M  END
>  <reaction>  (13) 
rxn_1128

>  <mol_properties>  (13) 
{"1": {"label": "*0", "atom_type": "Cd"}, "2": {"label": "*1", "atom_type": "Cs"}, "8": {"label": "*2", "atom_type": "H0"}, "13": {"label": "*4", "atom_type": "Cs"}, "14": {"label": "*3", "atom_type": "Cs"}}

>  <type>  (13) 
unop_9

>  <geom_source>  (13) 
Heuristics

$$$$

     RDKit          3D

 23 21  0  0  0  0  0  0  0  0999 V2000
   -0.3026   -1.8217   -1.2277 C   0  0  0  0  0  0  0  0  0  0  0  0
   -0.3026   -1.8217    0.0955 C   0  0  0  0  0  0  0  0  0  0  0  0
   -0.3026   -0.5959    0.9535 C   0  0  0  0  0  3  0  0  0  0  0  0
    0.9071   -0.4415    1.8347 C   0  0  0  0  0  0  0  0  0  0  0  0
    2.0182   -1.1572    1.7623 C   0  0  0  0  0  0  0  0  0  0  0  0
   -0.3108   -2.7444   -1.7943 H   0  0  0  0  0  0  0  0  0  0  0  0
   -0.2963   -0.8962   -1.7937 H   0  0  0  0  0  0  0  0  0  0  0  0
   -0.3001   -2.7704    0.6261 H   0  0  0  0  0  0  0  0  0  0  0  0
   -0.4227    0.4761    0.2030 H   0  0  0  0  0  0  0  0  0  0  0  0
   -1.1906   -0.6094    1.5963 H   0  0  0  0  0  0  0  0  0  0  0  0
    0.8344    0.3435    2.5825 H   0  0  0  0  0  0  0  0  0  0  0  0
    2.1437   -1.9441    1.0274 H   0  0  0  0  0  0  0  0  0  0  0  0
    2.8465   -0.9729    2.4346 H   0  0  0  0  0  0  0  0  0  0  0  0
   -1.8509    1.4774   -1.3238 C   0  0  0  0  0  0  0  0  0  0  0  0
   -0.5426    1.5466   -0.5465 C   0  0  0  0  0  0  0  0  0  0  0  0
    0.5136    2.3898   -1.2493 C   0  0  0  0  0  0  0  0  0  0  0  0
   -1.6945    1.0419   -2.3138 H   0  0  0  0  0  0  0  0  0  0  0  0
   -2.5941    0.8696   -0.8050 H   0  0  0  0  0  0  0  0  0  0  0  0
   -2.2741    2.4747   -1.4658 H   0  0  0  0  0  0  0  0  0  0  0  0
   -0.7322    1.9565    0.4494 H   0  0  0  0  0  0  0  0  0  0  0  0
    0.1649    3.4159   -1.3890 H   0  0  0  0  0  0  0  0  0  0  0  0
    1.4425    2.4273   -0.6778 H   0  0  0  0  0  0  0  0  0  0  0  0
    0.7445    1.9831   -2.2369 H   0  0  0  0  0  0  0  0  0  0  0  0
  1  2  2  3
  1  6  1  0
  1  7  1  0
  2  3  1  0
  2  8  1  0
  3  4  1  0
  3 10  1  0
  4  5  2  3
  4 11  1  0
  5 12  1  0
  5 13  1  0
  9 15  1  0
 14 15  1  0
 14 17  1  0
 14 18  1  0
 14 19  1  0
 15 16  1  0
 15 20  1  0
 16 21  1  0
 16 22  1  0
 16 23  1  0
M  RAD  1   3   2
M  END
>  <reaction>  (14) 
rxn_1128

>  <mol_properties>  (14) 
{"1": {"label": "*0", "atom_type": "Cd"}, "2": {"label": "*1", "atom_type": "Cs"}, "8": {"label": "*2", "atom_type": "H0"}, "13": {"label": "*4", "atom_type": "Cs"}, "14": {"label": "*3", "atom_type": "Cs"}}

>  <type>  (14) 
unop_10

>  <geom_source>  (14) 
Heuristics

$$$$

     RDKit          3D

 23 21  0  0  0  0  0  0  0  0999 V2000
   -0.2309   -1.8674   -1.5623 C   0  0  0  0  0  0  0  0  0  0  0  0
   -0.2309   -1.8674   -0.2390 C   0  0  0  0  0  0  0  0  0  0  0  0
   -0.2309   -0.6415    0.6190 C   0  0  0  0  0  3  0  0  0  0  0  0
    0.9788   -0.4872    1.5002 C   0  0  0  0  0  0  0  0  0  0  0  0
    2.0899   -1.2029    1.4277 C   0  0  0  0  0  0  0  0  0  0  0  0
   -0.2391   -2.7901   -2.1288 H   0  0  0  0  0  0  0  0  0  0  0  0
   -0.2246   -0.9419   -2.1283 H   0  0  0  0  0  0  0  0  0  0  0  0
   -0.2284   -2.8161    0.2915 H   0  0  0  0  0  0  0  0  0  0  0  0
   -0.3510    0.4304   -0.1316 H   0  0  0  0  0  0  0  0  0  0  0  0
   -1.1189   -0.6550    1.2617 H   0  0  0  0  0  0  0  0  0  0  0  0
    0.9061    0.2978    2.2479 H   0  0  0  0  0  0  0  0  0  0  0  0
    2.2154   -1.9897    0.6929 H   0  0  0  0  0  0  0  0  0  0  0  0
    2.9182   -1.0186    2.1001 H   0  0  0  0  0  0  0  0  0  0  0  0
    0.2388    2.6708   -0.2115 C   0  0  0  0  0  0  0  0  0  0  0  0
   -0.4709    1.5009   -0.8811 C   0  0  0  0  0  0  0  0  0  0  0  0
   -1.9565    1.4476   -0.5481 C   0  0  0  0  0  0  0  0  0  0  0  0
    0.1523    2.6094    0.8760 H   0  0  0  0  0  0  0  0  0  0  0  0
    1.3008    2.6920   -0.4617 H   0  0  0  0  0  0  0  0  0  0  0  0
   -0.1977    3.6227   -0.5235 H   0  0  0  0  0  0  0  0  0  0  0  0
   -0.3430    1.5696   -1.9649 H   0  0  0  0  0  0  0  0  0  0  0  0
   -2.4621    2.3610   -0.8707 H   0  0  0  0  0  0  0  0  0  0  0  0
   -2.4470    0.6038   -1.0364 H   0  0  0  0  0  0  0  0  0  0  0  0
   -2.1121    1.3477    0.5288 H   0  0  0  0  0  0  0  0  0  0  0  0
  1  2  2  3
  1  6  1  0
  1  7  1  0
  2  3  1  0
  2  8  1  0
  3  4  1  0
  3 10  1  0
  4  5  2  3
  4 11  1  0
  5 12  1  0
  5 13  1  0
  9 15  1  0
 14 15  1  0
 14 17  1  0
 14 18  1  0
 14 19  1  0
 15 16  1  0
 15 20  1  0
 16 21  1  0
 16 22  1  0
 16 23  1  0
M  RAD  1   3   2
M  END
>  <reaction>  (15) 
rxn_1128

>  <mol_properties>  (15) 
{"1": {"label": "*0", "atom_type": "Cd"}, "2": {"label": "*1", "atom_type": "Cs"}, "8": {"label": "*2", "atom_type": "H0"}, "13": {"label": "*4", "atom_type": "Cs"}, "14": {"label": "*3", "atom_type": "Cs"}}

>  <type>  (15) 
unop_11

>  <geom_source>  (15) 
Heuristics

$$$$

     RDKit          3D

 23 21  0  0  0  0  0  0  0  0999 V2000
   -0.4845   -1.7873   -1.2623 C   0  0  0  0  0  0  0  0  0  0  0  0
   -0.4845   -1.7873    0.0610 C   0  0  0  0  0  0  0  0  0  0  0  0
   -0.4845   -0.5615    0.9190 C   0  0  0  0  0  3  0  0  0  0  0  0
    0.7252   -0.4071    1.8002 C   0  0  0  0  0  0  0  0  0  0  0  0
    1.8364   -1.1228    1.7277 C   0  0  0  0  0  0  0  0  0  0  0  0
   -0.4927   -2.7100   -1.8288 H   0  0  0  0  0  0  0  0  0  0  0  0
   -0.4782   -0.8619   -1.8283 H   0  0  0  0  0  0  0  0  0  0  0  0
   -0.4819   -2.7361    0.5915 H   0  0  0  0  0  0  0  0  0  0  0  0
   -0.6046    0.5105    0.1684 H   0  0  0  0  0  0  0  0  0  0  0  0
   -1.3725   -0.5750    1.5617 H   0  0  0  0  0  0  0  0  0  0  0  0
    0.6525    0.3779    2.5479 H   0  0  0  0  0  0  0  0  0  0  0  0
    1.9618   -1.9097    0.9929 H   0  0  0  0  0  0  0  0  0  0  0  0
    2.6646   -0.9385    2.4001 H   0  0  0  0  0  0  0  0  0  0  0  0
   -0.8184    1.1676   -2.0442 C   0  0  0  0  0  0  0  0  0  0  0  0
   -0.7245    1.5809   -0.5811 C   0  0  0  0  0  0  0  0  0  0  0  0
    0.4423    2.5223   -0.3111 C   0  0  0  0  0  0  0  0  0  0  0  0
    0.0921    0.6554   -2.3647 H   0  0  0  0  0  0  0  0  0  0  0  0
   -1.6594    0.4941   -2.2176 H   0  0  0  0  0  0  0  0  0  0  0  0
   -0.9499    2.0400   -2.6890 H   0  0  0  0  0  0  0  0  0  0  0  0
   -1.6584    2.0626   -0.2782 H   0  0  0  0  0  0  0  0  0  0  0  0
    0.3506    3.4374   -0.9012 H   0  0  0  0  0  0  0  0  0  0  0  0
    0.4930    2.8069    0.7413 H   0  0  0  0  0  0  0  0  0  0  0  0
    1.3926    2.0528   -0.5769 H   0  0  0  0  0  0  0  0  0  0  0  0
  1  2  2  3
  1  6  1  0
  1  7  1  0
  2  3  1  0
  2  8  1  0
  3  4  1  0
  3 10  1  0
  4  5  2  3
  4 11  1  0
  5 12  1  0
  5 13  1  0
  9 15  1  0
 14 15  1  0
 14 17  1  0
 14 18  1  0
 14 19  1  0
 15 16  1  0
 15 20  1  0
 16 21  1  0
 16 22  1  0
 16 23  1  0
M  RAD  1   3   2
M  END
>  <reaction>  (16) 
rxn_1128

>  <mol_properties>  (16) 
{"1": {"label": "*0", "atom_type": "Cd"}, "2": {"label": "*1", "atom_type": "Cs"}, "8": {"label": "*2", "atom_type": "H0"}, "13": {"label": "*4", "atom_type": "Cs"}, "14": {"label": "*3", "atom_type": "Cs"}}

>  <type>  (16) 
unop_12

>  <geom_source>  (16) 
Heuristics

$$$$

     RDKit          3D

 23 21  0  0  0  0  0  0  0  0999 V2000
    1.2132   -0.4359   -0.0203 C   0  0  0  0  0  0  0  0  0  0  0  0
    1.5246    0.0406    1.3944 C   0  0  0  0  0  0  0  0  0  0  0  0
    2.4199   -0.2749   -0.9386 C   0  0  0  0  0  0  0  0  0  0  0  0
   -1.1674    0.3216   -0.8437 C   0  0  0  0  0  3  0  0  0  0  0  0
   -1.1560    1.5750   -0.0197 C   0  0  0  0  0  0  0  0  0  0  0  0
   -1.4684   -0.8918   -0.0137 C   0  0  0  0  0  0  0  0  0  0  0  0
   -2.2866    2.1339    0.4206 C   0  0  0  0  0  0  0  0  0  0  0  0
   -1.3029   -2.1146   -0.5196 C   0  0  0  0  0  0  0  0  0  0  0  0
    0.9140   -1.5059    0.0096 H   0  0  0  0  0  0  0  0  0  0  0  0
    0.2516    0.2354   -0.4801 H   0  0  0  0  0  0  0  0  0  0  0  0
    2.3585   -0.5522    1.8272 H   0  0  0  0  0  0  0  0  0  0  0  0
    1.8029    1.1159    1.3852 H   0  0  0  0  0  0  0  0  0  0  0  0
    0.6263   -0.0881    2.0338 H   0  0  0  0  0  0  0  0  0  0  0  0
    3.2753   -0.8753   -0.5618 H   0  0  0  0  0  0  0  0  0  0  0  0
    2.7176    0.7935   -0.9984 H   0  0  0  0  0  0  0  0  0  0  0  0
    2.1582   -0.6280   -1.9580 H   0  0  0  0  0  0  0  0  0  0  0  0
   -1.8740    0.4087   -1.6974 H   0  0  0  0  0  0  0  0  0  0  0  0
   -0.2028    2.0364    0.2174 H   0  0  0  0  0  0  0  0  0  0  0  0
   -1.8316   -0.7853    1.0053 H   0  0  0  0  0  0  0  0  0  0  0  0
   -2.2487    3.0419    1.0134 H   0  0  0  0  0  0  0  0  0  0  0  0
   -3.2522    1.6914    0.1946 H   0  0  0  0  0  0  0  0  0  0  0  0
   -0.9450   -2.2547   -1.5353 H   0  0  0  0  0  0  0  0  0  0  0  0
   -1.5263   -2.9876    0.0852 H   0  0  0  0  0  0  0  0  0  0  0  0
  1  2  1  0
  1  3  1  0
  1  9  1  0
  1 10  1  0
  2 11  1  0
  2 12  1  0
  2 13  1  0
  3 14  1  0
  3 15  1  0
  3 16  1  0
  4  5  1  0
  4  6  1  0
  4 17  1  0
  5  7  2  3
  5 18  1  0
  6  8  2  3
  6 19  1  0
  7 20  1  0
  7 21  1  0
  8 22  1  0
  8 23  1  0
M  RAD  1   4   2
M  END
>  <reaction>  (17) 
rxn_1128

>  <mol_properties>  (17) 
{"1": {"label": "*0", "atom_type": "Cd"}, "2": {"label": "*1", "atom_type": "Cs"}, "8": {"label": "*2", "atom_type": "H0"}, "13": {"label": "*4", "atom_type": "Cs"}, "14": {"label": "*3", "atom_type": "Cs"}}

>  <type>  (17) 
unop_13

>  <geom_source>  (17) 
AutoTST

$$$$
