
     RDKit          3D

  6  5  0  0  0  0  0  0  0  0999 V2000
    0.6594    0.0438   -0.0050 C   0  0  0  0  0  0  0  0  0  0  0  0
   -0.6594   -0.0438    0.0050 C   0  0  0  0  0  0  0  0  0  0  0  0
    1.1706    0.8681   -0.4881 H   0  0  0  0  0  0  0  0  0  0  0  0
    1.2824   -0.7051    0.4696 H   0  0  0  0  0  0  0  0  0  0  0  0
   -1.2824    0.7051   -0.4696 H   0  0  0  0  0  0  0  0  0  0  0  0
   -1.1706   -0.8681    0.4881 H   0  0  0  0  0  0  0  0  0  0  0  0
  1  2  2  3
  1  3  1  0
  1  4  1  0
  2  5  1  0
  2  6  1  0
M  END
>  <reaction>  (1) 
rxn_1588

>  <mol_properties>  (1) 
{"1": {"label": "donator", "atom_type": "Cd"}, "4": {"label": "d_hydrogen", "atom_type": "H0"}}

>  <type>  (1) 
r1h

$$$$

     RDKit          3D

 11 10  0  0  0  0  0  0  0  0999 V2000
    1.0781   -1.0166   -0.1159 C   0  0  0  0  0  0  0  0  0  0  0  0
    0.2180    0.1942   -0.2297 C   0  0  0  0  0  3  0  0  0  0  0  0
    0.9343    1.7769   -0.3011 S   0  0  0  0  0  0  0  0  0  0  0  0
   -1.1949    0.1490    0.2439 C   0  0  0  0  0  0  0  0  0  0  0  0
    1.4718   -1.1461    0.9024 H   0  0  0  0  0  0  0  0  0  0  0  0
    1.9367   -0.9751   -0.7902 H   0  0  0  0  0  0  0  0  0  0  0  0
    0.5033   -1.9136   -0.3576 H   0  0  0  0  0  0  0  0  0  0  0  0
    2.1166    1.4195   -0.8209 H   0  0  0  0  0  0  0  0  0  0  0  0
   -1.2620    0.0939    1.3399 H   0  0  0  0  0  0  0  0  0  0  0  0
   -1.7600    1.0270   -0.0739 H   0  0  0  0  0  0  0  0  0  0  0  0
   -1.6972   -0.7380   -0.1506 H   0  0  0  0  0  0  0  0  0  0  0  0
  1  2  1  0
  1  5  1  0
  1  6  1  0
  1  7  1  0
  2  4  1  0
  2  3  1  0
  3  8  1  0
  4  9  1  0
  4 10  1  0
  4 11  1  0
M  RAD  1   2   2
M  END
>  <reaction>  (2) 
rxn_1588

>  <mol_properties>  (2) 
{"1": {"label": "acceptor", "atom_type": "Cs"}}

>  <type>  (2) 
r2

$$$$

     RDKit          3D

 12 11  0  0  0  0  0  0  0  0999 V2000
    1.2394   -0.3763   -0.3020 C   0  0  0  0  0  0  0  0  0  0  0  0
    0.1007    0.3024    0.4464 C   0  0  0  0  0  0  0  0  0  0  0  0
   -0.1187    2.0399   -0.0725 S   0  0  0  0  0  0  0  0  0  0  0  0
   -1.1974   -0.4877    0.3552 C   0  0  0  0  0  0  0  0  0  0  0  0
    2.1681    0.1850   -0.2048 H   0  0  0  0  0  0  0  0  0  0  0  0
    1.0030   -0.4604   -1.3656 H   0  0  0  0  0  0  0  0  0  0  0  0
    1.3993   -1.3856    0.0859 H   0  0  0  0  0  0  0  0  0  0  0  0
    0.3797    0.4050    1.4982 H   0  0  0  0  0  0  0  0  0  0  0  0
   -0.4500    1.7774   -1.3452 H   0  0  0  0  0  0  0  0  0  0  0  0
   -1.0545   -1.4977    0.7478 H   0  0  0  0  0  0  0  0  0  0  0  0
   -1.5206   -0.5758   -0.6849 H   0  0  0  0  0  0  0  0  0  0  0  0
   -1.9957   -0.0054    0.9183 H   0  0  0  0  0  0  0  0  0  0  0  0
  1  2  1  0
  1  5  1  0
  1  6  1  0
  1  7  1  0
  2  4  1  0
  2  3  1  0
  2  8  1  0
  3  9  1  0
  4 10  1  0
  4 11  1  0
  4 12  1  0
M  END
>  <reaction>  (3) 
rxn_1588

>  <mol_properties>  (3) 
{"1": {"label": "acceptor", "atom_type": "Cs"}, "11": {"label": "a_hydrogen", "atom_type": "H0"}}

>  <type>  (3) 
r2h

$$$$

     RDKit          3D

 17 15  0  0  0  0  0  0  0  0999 V2000
   -1.9395    0.8799    0.2994 C   0  0  0  0  0  0  0  0  0  0  0  0
   -0.5882    0.2003    0.3090 C   0  0  0  0  0  0  0  0  0  0  0  0
    0.7669    1.2475   -0.2691 S   0  0  0  0  0  0  0  0  0  0  0  0
   -0.2732   -0.5479    1.5833 C   0  0  0  0  0  0  0  0  0  0  0  0
   -2.1434    1.3417   -0.6664 H   0  0  0  0  0  0  0  0  0  0  0  0
   -1.9847    1.6625    1.0629 H   0  0  0  0  0  0  0  0  0  0  0  0
   -2.7293    0.1543    0.5123 H   0  0  0  0  0  0  0  0  0  0  0  0
    1.1352    1.7249    0.9300 H   0  0  0  0  0  0  0  0  0  0  0  0
   -1.0716   -1.2583    1.8103 H   0  0  0  0  0  0  0  0  0  0  0  0
    0.6639   -1.0976    1.4971 H   0  0  0  0  0  0  0  0  0  0  0  0
   -0.1915    0.1419    2.4299 H   0  0  0  0  0  0  0  0  0  0  0  0
    0.5344   -2.0195   -2.0753 C   0  0  0  0  0  0  0  0  0  0  0  0
   -0.6398   -1.7371   -1.5656 C   0  0  0  0  0  3  0  0  0  0  0  0
    1.4258   -1.4745   -1.7776 H   0  0  0  0  0  0  0  0  0  0  0  0
    0.6660   -2.8041   -2.8178 H   0  0  0  0  0  0  0  0  0  0  0  0
   -0.6439   -0.6756   -0.5857 H   0  0  0  0  0  0  0  0  0  0  0  0
   -1.6031   -2.1897   -1.7687 H   0  0  0  0  0  0  0  0  0  0  0  0
  1  2  1  0
  1  5  1  0
  1  6  1  0
  1  7  1  0
  2  4  1  0
  2  3  1  0
  2 16  1  0
  3  8  1  0
  4  9  1  0
  4 10  1  0
  4 11  1  0
 12 13  2  3
 12 14  1  0
 12 15  1  0
 13 17  1  0
M  RAD  1  13   2
M  END
>  <reaction>  (4) 
rxn_1588

>  <mol_properties>  (4) 
{"1": {"label": "*1", "atom_type": "Cs"}, "2": {"label": "*0", "atom_type": "S2s"}, "11": {"label": "*4", "atom_type": "Cd"}, "12": {"label": "*3", "atom_type": "Cd"}, "15": {"label": "*2", "atom_type": "H0"}}

>  <type>  (4) 
ts

$$$$

     RDKit          3D

 17 15  0  0  0  0  0  0  0  0999 V2000
   -1.4116    0.2262    1.3277 C   0  0  0  0  0  0  0  0  0  0  0  0
   -0.1644    0.1840    0.4559 C   0  0  0  0  0  3  0  0  0  0  0  0
    0.4055    1.8575   -0.0037 S   0  0  0  0  0  0  0  0  0  0  0  0
    0.9477   -0.6438    1.0847 C   0  0  0  0  0  0  0  0  0  0  0  0
   -2.2083    0.7979    0.8529 H   0  0  0  0  0  0  0  0  0  0  0  0
   -1.1898    0.6890    2.2924 H   0  0  0  0  0  0  0  0  0  0  0  0
   -1.7751   -0.7868    1.5184 H   0  0  0  0  0  0  0  0  0  0  0  0
    0.6856    2.2695    1.2413 H   0  0  0  0  0  0  0  0  0  0  0  0
    0.6008   -1.6630    1.2738 H   0  0  0  0  0  0  0  0  0  0  0  0
    1.8231   -0.6888    0.4378 H   0  0  0  0  0  0  0  0  0  0  0  0
    1.2536   -0.2120    2.0408 H   0  0  0  0  0  0  0  0  0  0  0  0
   -0.1644   -2.0398   -2.2359 C   0  0  0  0  0  0  0  0  0  0  0  0
   -0.1644   -2.0398   -0.9142 C   0  0  0  0  0  0  0  0  0  0  0  0
   -0.1644   -1.1172   -2.8043 H   0  0  0  0  0  0  0  0  0  0  0  0
   -0.1644   -2.9624   -2.8043 H   0  0  0  0  0  0  0  0  0  0  0  0
   -0.1644   -0.9327   -0.2321 H   0  0  0  0  0  0  0  0  0  0  0  0
   -0.1644   -2.9624   -0.3458 H   0  0  0  0  0  0  0  0  0  0  0  0
  1  2  1  0
  1  5  1  0
  1  6  1  0
  1  7  1  0
  2  4  1  0
  2  3  1  0
  3  8  1  0
  4  9  1  0
  4 10  1  0
  4 11  1  0
 12 13  2  3
 12 14  1  0
 12 15  1  0
 13 16  1  0
 13 17  1  0
M  RAD  1   2   2
M  END
>  <reaction>  (5) 
rxn_1588

>  <mol_properties>  (5) 
{"1": {"label": "*1", "atom_type": "Cs"}, "2": {"label": "*0", "atom_type": "S2s"}, "11": {"label": "*4", "atom_type": "Cd"}, "12": {"label": "*3", "atom_type": "Cd"}, "15": {"label": "*2", "atom_type": "H0"}}

>  <type>  (5) 
unop_1

>  <geom_source>  (5) 
Heuristics

$$$$

     RDKit          3D

 17 15  0  0  0  0  0  0  0  0999 V2000
   -0.9877    1.4037   -0.5074 C   0  0  0  0  0  0  0  0  0  0  0  0
   -0.2676    0.3295    0.2957 C   0  0  0  0  0  3  0  0  0  0  0  0
    1.3467    0.9112    0.9220 S   0  0  0  0  0  0  0  0  0  0  0  0
   -1.1395   -0.2370    1.4077 C   0  0  0  0  0  0  0  0  0  0  0  0
   -0.3627    1.7798   -1.3166 H   0  0  0  0  0  0  0  0  0  0  0  0
   -1.2568    2.2465    0.1340 H   0  0  0  0  0  0  0  0  0  0  0  0
   -1.9095    1.0021   -0.9362 H   0  0  0  0  0  0  0  0  0  0  0  0
    0.8624    1.8795    1.7132 H   0  0  0  0  0  0  0  0  0  0  0  0
   -2.0623   -0.6501    0.9923 H   0  0  0  0  0  0  0  0  0  0  0  0
   -0.6220   -1.0237    1.9557 H   0  0  0  0  0  0  0  0  0  0  0  0
   -1.4139    0.5474    2.1172 H   0  0  0  0  0  0  0  0  0  0  0  0
   -0.2676   -1.8943   -2.3960 C   0  0  0  0  0  0  0  0  0  0  0  0
   -0.2676   -1.8943   -1.0743 C   0  0  0  0  0  0  0  0  0  0  0  0
   -0.2676   -0.9717   -2.9644 H   0  0  0  0  0  0  0  0  0  0  0  0
   -0.2676   -2.8169   -2.9644 H   0  0  0  0  0  0  0  0  0  0  0  0
   -0.2676   -0.7872   -0.3923 H   0  0  0  0  0  0  0  0  0  0  0  0
   -0.2676   -2.8169   -0.5059 H   0  0  0  0  0  0  0  0  0  0  0  0
  1  2  1  0
  1  5  1  0
  1  6  1  0
  1  7  1  0
  2  4  1  0
  2  3  1  0
  3  8  1  0
  4  9  1  0
  4 10  1  0
  4 11  1  0
 12 13  2  3
 12 14  1  0
 12 15  1  0
 13 16  1  0
 13 17  1  0
M  RAD  1   2   2
M  END
>  <reaction>  (6) 
rxn_1588

>  <mol_properties>  (6) 
{"1": {"label": "*1", "atom_type": "Cs"}, "2": {"label": "*0", "atom_type": "S2s"}, "11": {"label": "*4", "atom_type": "Cd"}, "12": {"label": "*3", "atom_type": "Cd"}, "15": {"label": "*2", "atom_type": "H0"}}

>  <type>  (6) 
unop_2

>  <geom_source>  (6) 
Heuristics

$$$$

     RDKit          3D

 17 15  0  0  0  0  0  0  0  0999 V2000
   -0.7146   -0.0913    1.8722 C   0  0  0  0  0  0  0  0  0  0  0  0
    0.0055    0.1429    0.5515 C   0  0  0  0  0  3  0  0  0  0  0  0
   -0.4033    1.7701   -0.1707 S   0  0  0  0  0  0  0  0  0  0  0  0
    1.5087   -0.0652    0.6726 C   0  0  0  0  0  0  0  0  0  0  0  0
   -1.7915    0.0333    1.7643 H   0  0  0  0  0  0  0  0  0  0  0  0
   -0.3650    0.6141    2.6300 H   0  0  0  0  0  0  0  0  0  0  0  0
   -0.5151   -1.1017    2.2384 H   0  0  0  0  0  0  0  0  0  0  0  0
    0.1209    2.5104    0.8169 H   0  0  0  0  0  0  0  0  0  0  0  0
    1.7237   -1.0754    1.0304 H   0  0  0  0  0  0  0  0  0  0  0  0
    2.0074    0.0779   -0.2854 H   0  0  0  0  0  0  0  0  0  0  0  0
    1.9374    0.6411    1.3878 H   0  0  0  0  0  0  0  0  0  0  0  0
    0.0055   -2.0809   -2.1402 C   0  0  0  0  0  0  0  0  0  0  0  0
    0.0055   -2.0809   -0.8185 C   0  0  0  0  0  0  0  0  0  0  0  0
    0.0055   -1.1583   -2.7086 H   0  0  0  0  0  0  0  0  0  0  0  0
    0.0055   -3.0035   -2.7086 H   0  0  0  0  0  0  0  0  0  0  0  0
    0.0055   -0.9738   -0.1365 H   0  0  0  0  0  0  0  0  0  0  0  0
    0.0055   -3.0035   -0.2501 H   0  0  0  0  0  0  0  0  0  0  0  0
  1  2  1  0
  1  5  1  0
  1  6  1  0
  1  7  1  0
  2  4  1  0
  2  3  1  0
  3  8  1  0
  4  9  1  0
  4 10  1  0
  4 11  1  0
 12 13  2  3
 12 14  1  0
 12 15  1  0
 13 16  1  0
 13 17  1  0
M  RAD  1   2   2
M  END
>  <reaction>  (7) 
rxn_1588

>  <mol_properties>  (7) 
{"1": {"label": "*1", "atom_type": "Cs"}, "2": {"label": "*0", "atom_type": "S2s"}, "11": {"label": "*4", "atom_type": "Cd"}, "12": {"label": "*3", "atom_type": "Cd"}, "15": {"label": "*2", "atom_type": "H0"}}

>  <type>  (7) 
unop_3

>  <geom_source>  (7) 
Heuristics

$$$$

     RDKit          3D

 17 15  0  0  0  0  0  0  0  0999 V2000
    1.1159    1.5528   -0.2170 C   0  0  0  0  0  0  0  0  0  0  0  0
   -0.1314    0.7551    0.1373 C   0  0  0  0  0  3  0  0  0  0  0  0
    0.2205   -0.5572    1.3582 S   0  0  0  0  0  0  0  0  0  0  0  0
   -1.2797    1.6515    0.5794 C   0  0  0  0  0  0  0  0  0  0  0  0
    1.9197    0.9014   -0.5583 H   0  0  0  0  0  0  0  0  0  0  0  0
    1.4752    2.1091    0.6522 H   0  0  0  0  0  0  0  0  0  0  0  0
    0.8923    2.2745   -1.0070 H   0  0  0  0  0  0  0  0  0  0  0  0
    0.5862    0.2592    2.3572 H   0  0  0  0  0  0  0  0  0  0  0  0
   -1.5200    2.3738   -0.2050 H   0  0  0  0  0  0  0  0  0  0  0  0
   -2.1735    1.0700    0.8025 H   0  0  0  0  0  0  0  0  0  0  0  0
   -1.0056    2.2113    1.4769 H   0  0  0  0  0  0  0  0  0  0  0  0
   -0.1314   -1.4687   -2.5545 C   0  0  0  0  0  0  0  0  0  0  0  0
   -0.1314   -1.4687   -1.2327 C   0  0  0  0  0  0  0  0  0  0  0  0
   -0.1314   -0.5461   -3.1229 H   0  0  0  0  0  0  0  0  0  0  0  0
   -0.1314   -2.3913   -3.1229 H   0  0  0  0  0  0  0  0  0  0  0  0
   -0.1314   -0.3616   -0.5507 H   0  0  0  0  0  0  0  0  0  0  0  0
   -0.1314   -2.3913   -0.6644 H   0  0  0  0  0  0  0  0  0  0  0  0
  1  2  1  0
  1  5  1  0
  1  6  1  0
  1  7  1  0
  2  4  1  0
  2  3  1  0
  3  8  1  0
  4  9  1  0
  4 10  1  0
  4 11  1  0
 12 13  2  3
 12 14  1  0
 12 15  1  0
 13 16  1  0
 13 17  1  0
M  RAD  1   2   2
M  END
>  <reaction>  (8) 
rxn_1588

>  <mol_properties>  (8) 
{"1": {"label": "*1", "atom_type": "Cs"}, "2": {"label": "*0", "atom_type": "S2s"}, "11": {"label": "*4", "atom_type": "Cd"}, "12": {"label": "*3", "atom_type": "Cd"}, "15": {"label": "*2", "atom_type": "H0"}}

>  <type>  (8) 
unop_4

>  <geom_source>  (8) 
Heuristics

$$$$

     RDKit          3D

 17 15  0  0  0  0  0  0  0  0999 V2000
    0.3134   -0.0693    2.0302 C   0  0  0  0  0  0  0  0  0  0  0  0
    0.3134    0.2661    0.5453 C   0  0  0  0  0  3  0  0  0  0  0  0
   -1.2513    1.0495    0.0215 S   0  0  0  0  0  0  0  0  0  0  0  0
    1.5269    1.0930    0.1436 C   0  0  0  0  0  0  0  0  0  0  0  0
   -0.5450   -0.6845    2.2979 H   0  0  0  0  0  0  0  0  0  0  0  0
    0.2774    0.8436    2.6297 H   0  0  0  0  0  0  0  0  0  0  0  0
    1.2260   -0.6086    2.2968 H   0  0  0  0  0  0  0  0  0  0  0  0
   -1.1303    2.1504    0.7775 H   0  0  0  0  0  0  0  0  0  0  0  0
    2.4480    0.5618    0.3970 H   0  0  0  0  0  0  0  0  0  0  0  0
    1.5285    1.3015   -0.9257 H   0  0  0  0  0  0  0  0  0  0  0  0
    1.5340    2.0473    0.6760 H   0  0  0  0  0  0  0  0  0  0  0  0
    0.3134   -1.9576   -2.1465 C   0  0  0  0  0  0  0  0  0  0  0  0
    0.3134   -1.9576   -0.8248 C   0  0  0  0  0  0  0  0  0  0  0  0
    0.3134   -1.0351   -2.7149 H   0  0  0  0  0  0  0  0  0  0  0  0
    0.3134   -2.8802   -2.7149 H   0  0  0  0  0  0  0  0  0  0  0  0
    0.3134   -0.8505   -0.1427 H   0  0  0  0  0  0  0  0  0  0  0  0
    0.3134   -2.8802   -0.2564 H   0  0  0  0  0  0  0  0  0  0  0  0
  1  2  1  0
  1  5  1  0
  1  6  1  0
  1  7  1  0
  2  4  1  0
  2  3  1  0
  3  8  1  0
  4  9  1  0
  4 10  1  0
  4 11  1  0
 12 13  2  3
 12 14  1  0
 12 15  1  0
 13 16  1  0
 13 17  1  0
M  RAD  1   2   2
M  END
>  <reaction>  (9) 
rxn_1588

>  <mol_properties>  (9) 
{"1": {"label": "*1", "atom_type": "Cs"}, "2": {"label": "*0", "atom_type": "S2s"}, "11": {"label": "*4", "atom_type": "Cd"}, "12": {"label": "*3", "atom_type": "Cd"}, "15": {"label": "*2", "atom_type": "H0"}}

>  <type>  (9) 
unop_5

>  <geom_source>  (9) 
Heuristics

$$$$

     RDKit          3D

 17 15  0  0  0  0  0  0  0  0999 V2000
    1.5244    1.2300    0.4077 C   0  0  0  0  0  0  0  0  0  0  0  0
    0.0842    0.8100    0.1490 C   0  0  0  0  0  3  0  0  0  0  0  0
   -0.4080   -0.6152    1.1801 S   0  0  0  0  0  0  0  0  0  0  0  0
   -0.8867    1.9745    0.2859 C   0  0  0  0  0  0  0  0  0  0  0  0
    2.2107    0.3938    0.2788 H   0  0  0  0  0  0  0  0  0  0  0  0
    1.6366    1.6076    1.4270 H   0  0  0  0  0  0  0  0  0  0  0  0
    1.8152    2.0292   -0.2789 H   0  0  0  0  0  0  0  0  0  0  0  0
   -0.2773    0.0016    2.3636 H   0  0  0  0  0  0  0  0  0  0  0  0
   -0.6128    2.7789   -0.4016 H   0  0  0  0  0  0  0  0  0  0  0  0
   -1.9091    1.6660    0.0706 H   0  0  0  0  0  0  0  0  0  0  0  0
   -0.8603    2.3786    1.3008 H   0  0  0  0  0  0  0  0  0  0  0  0
    0.0842   -1.4138   -2.5428 C   0  0  0  0  0  0  0  0  0  0  0  0
    0.0842   -1.4138   -1.2211 C   0  0  0  0  0  0  0  0  0  0  0  0
    0.0842   -0.4912   -3.1112 H   0  0  0  0  0  0  0  0  0  0  0  0
    0.0842   -2.3364   -3.1112 H   0  0  0  0  0  0  0  0  0  0  0  0
    0.0842   -0.3067   -0.5390 H   0  0  0  0  0  0  0  0  0  0  0  0
    0.0842   -2.3364   -0.6527 H   0  0  0  0  0  0  0  0  0  0  0  0
  1  2  1  0
  1  5  1  0
  1  6  1  0
  1  7  1  0
  2  4  1  0
  2  3  1  0
  3  8  1  0
  4  9  1  0
  4 10  1  0
  4 11  1  0
 12 13  2  3
 12 14  1  0
 12 15  1  0
 13 16  1  0
 13 17  1  0
M  RAD  1   2   2
M  END
>  <reaction>  (10) 
rxn_1588

>  <mol_properties>  (10) 
{"1": {"label": "*1", "atom_type": "Cs"}, "2": {"label": "*0", "atom_type": "S2s"}, "11": {"label": "*4", "atom_type": "Cd"}, "12": {"label": "*3", "atom_type": "Cd"}, "15": {"label": "*2", "atom_type": "H0"}}

>  <type>  (10) 
unop_6

>  <geom_source>  (10) 
Heuristics

$$$$

     RDKit          3D

 17 15  0  0  0  0  0  0  0  0999 V2000
    1.5459    0.7976    1.1079 C   0  0  0  0  0  0  0  0  0  0  0  0
    0.2987    0.7554    0.2361 C   0  0  0  0  0  3  0  0  0  0  0  0
   -0.9416   -0.4241    0.8740 S   0  0  0  0  0  0  0  0  0  0  0  0
   -0.2935    2.1401    0.0138 C   0  0  0  0  0  0  0  0  0  0  0  0
    1.9748   -0.1957    1.2352 H   0  0  0  0  0  0  0  0  0  0  0  0
    1.3086    1.1947    2.0979 H   0  0  0  0  0  0  0  0  0  0  0  0
    2.3004    1.4485    0.6585 H   0  0  0  0  0  0  0  0  0  0  0  0
   -1.1699    0.2085    2.0341 H   0  0  0  0  0  0  0  0  0  0  0  0
    0.4481    2.8004   -0.4432 H   0  0  0  0  0  0  0  0  0  0  0  0
   -1.1682    2.0981   -0.6342 H   0  0  0  0  0  0  0  0  0  0  0  0
   -0.5963    2.5850    0.9649 H   0  0  0  0  0  0  0  0  0  0  0  0
    0.2987   -1.4684   -2.4557 C   0  0  0  0  0  0  0  0  0  0  0  0
    0.2987   -1.4684   -1.1340 C   0  0  0  0  0  0  0  0  0  0  0  0
    0.2987   -0.5458   -3.0241 H   0  0  0  0  0  0  0  0  0  0  0  0
    0.2987   -2.3910   -3.0241 H   0  0  0  0  0  0  0  0  0  0  0  0
    0.2987   -0.3613   -0.4519 H   0  0  0  0  0  0  0  0  0  0  0  0
    0.2987   -2.3910   -0.5656 H   0  0  0  0  0  0  0  0  0  0  0  0
  1  2  1  0
  1  5  1  0
  1  6  1  0
  1  7  1  0
  2  4  1  0
  2  3  1  0
  3  8  1  0
  4  9  1  0
  4 10  1  0
  4 11  1  0
 12 13  2  3
 12 14  1  0
 12 15  1  0
 13 16  1  0
 13 17  1  0
M  RAD  1   2   2
M  END
>  <reaction>  (11) 
rxn_1588

>  <mol_properties>  (11) 
{"1": {"label": "*1", "atom_type": "Cs"}, "2": {"label": "*0", "atom_type": "S2s"}, "11": {"label": "*4", "atom_type": "Cd"}, "12": {"label": "*3", "atom_type": "Cd"}, "15": {"label": "*2", "atom_type": "H0"}}

>  <type>  (11) 
unop_7

>  <geom_source>  (11) 
Heuristics

$$$$

     RDKit          3D

 17 15  0  0  0  0  0  0  0  0999 V2000
   -1.6519    0.6572    0.6281 C   0  0  0  0  0  0  0  0  0  0  0  0
   -0.2117    0.2372    0.3693 C   0  0  0  0  0  3  0  0  0  0  0  0
    0.9168    1.6719    0.3003 S   0  0  0  0  0  0  0  0  0  0  0  0
    0.2658   -0.8161    1.3593 C   0  0  0  0  0  0  0  0  0  0  0  0
   -1.9891    1.3898   -0.1044 H   0  0  0  0  0  0  0  0  0  0  0  0
   -1.7494    1.1007    1.6220 H   0  0  0  0  0  0  0  0  0  0  0  0
   -2.3138   -0.2115    0.5830 H   0  0  0  0  0  0  0  0  0  0  0  0
    0.7370    2.0674    1.5689 H   0  0  0  0  0  0  0  0  0  0  0  0
   -0.3827   -1.6951    1.3194 H   0  0  0  0  0  0  0  0  0  0  0  0
    1.2875   -1.1276    1.1452 H   0  0  0  0  0  0  0  0  0  0  0  0
    0.2365   -0.4250    2.3793 H   0  0  0  0  0  0  0  0  0  0  0  0
   -0.2117   -1.9866   -2.3225 C   0  0  0  0  0  0  0  0  0  0  0  0
   -0.2117   -1.9866   -1.0007 C   0  0  0  0  0  0  0  0  0  0  0  0
   -0.2117   -1.0640   -2.8908 H   0  0  0  0  0  0  0  0  0  0  0  0
   -0.2117   -2.9092   -2.8908 H   0  0  0  0  0  0  0  0  0  0  0  0
   -0.2117   -0.8795   -0.3187 H   0  0  0  0  0  0  0  0  0  0  0  0
   -0.2117   -2.9092   -0.4323 H   0  0  0  0  0  0  0  0  0  0  0  0
  1  2  1  0
  1  5  1  0
  1  6  1  0
  1  7  1  0
  2  4  1  0
  2  3  1  0
  3  8  1  0
  4  9  1  0
  4 10  1  0
  4 11  1  0
 12 13  2  3
 12 14  1  0
 12 15  1  0
 13 16  1  0
 13 17  1  0
M  RAD  1   2   2
M  END
>  <reaction>  (12) 
rxn_1588

>  <mol_properties>  (12) 
{"1": {"label": "*1", "atom_type": "Cs"}, "2": {"label": "*0", "atom_type": "S2s"}, "11": {"label": "*4", "atom_type": "Cd"}, "12": {"label": "*3", "atom_type": "Cd"}, "15": {"label": "*2", "atom_type": "H0"}}

>  <type>  (12) 
unop_8

>  <geom_source>  (12) 
Heuristics

$$$$

     RDKit          3D

 17 15  0  0  0  0  0  0  0  0999 V2000
    0.4403    1.6887   -0.6171 C   0  0  0  0  0  0  0  0  0  0  0  0
   -0.2798    0.6145    0.1861 C   0  0  0  0  0  3  0  0  0  0  0  0
    0.8390   -0.2267    1.3597 S   0  0  0  0  0  0  0  0  0  0  0  0
   -1.5274    1.1514    0.8736 C   0  0  0  0  0  0  0  0  0  0  0  0
    1.3146    1.2843   -1.1260 H   0  0  0  0  0  0  0  0  0  0  0  0
    0.7723    2.4987    0.0370 H   0  0  0  0  0  0  0  0  0  0  0  0
   -0.2319    2.1170   -1.3650 H   0  0  0  0  0  0  0  0  0  0  0  0
    1.1118    0.8517    2.1086 H   0  0  0  0  0  0  0  0  0  0  0  0
   -2.2134    1.5759    0.1360 H   0  0  0  0  0  0  0  0  0  0  0  0
   -2.0477    0.3662    1.4210 H   0  0  0  0  0  0  0  0  0  0  0  0
   -1.2654    1.9423    1.5807 H   0  0  0  0  0  0  0  0  0  0  0  0
   -0.2798   -1.6093   -2.5057 C   0  0  0  0  0  0  0  0  0  0  0  0
   -0.2798   -1.6093   -1.1839 C   0  0  0  0  0  0  0  0  0  0  0  0
   -0.2798   -0.6867   -3.0741 H   0  0  0  0  0  0  0  0  0  0  0  0
   -0.2798   -2.5319   -3.0741 H   0  0  0  0  0  0  0  0  0  0  0  0
   -0.2798   -0.5022   -0.5019 H   0  0  0  0  0  0  0  0  0  0  0  0
   -0.2798   -2.5319   -0.6155 H   0  0  0  0  0  0  0  0  0  0  0  0
  1  2  1  0
  1  5  1  0
  1  6  1  0
  1  7  1  0
  2  4  1  0
  2  3  1  0
  3  8  1  0
  4  9  1  0
  4 10  1  0
  4 11  1  0
 12 13  2  3
 12 14  1  0
 12 15  1  0
 13 16  1  0
 13 17  1  0
M  RAD  1   2   2
M  END
>  <reaction>  (13) 
rxn_1588

>  <mol_properties>  (13) 
{"1": {"label": "*1", "atom_type": "Cs"}, "2": {"label": "*0", "atom_type": "S2s"}, "11": {"label": "*4", "atom_type": "Cd"}, "12": {"label": "*3", "atom_type": "Cd"}, "15": {"label": "*2", "atom_type": "H0"}}

>  <type>  (13) 
unop_9

>  <geom_source>  (13) 
Heuristics

$$$$

     RDKit          3D

 17 15  0  0  0  0  0  0  0  0999 V2000
   -1.4749    1.0733   -0.0326 C   0  0  0  0  0  0  0  0  0  0  0  0
   -0.2277    0.2756    0.3217 C   0  0  0  0  0  3  0  0  0  0  0  0
    1.2133    1.3574    0.6217 S   0  0  0  0  0  0  0  0  0  0  0  0
   -0.4697   -0.6846    1.4780 C   0  0  0  0  0  0  0  0  0  0  0  0
   -1.2953    1.7352   -0.8791 H   0  0  0  0  0  0  0  0  0  0  0  0
   -1.7930    1.6848    0.8154 H   0  0  0  0  0  0  0  0  0  0  0  0
   -2.2970    0.3987   -0.2854 H   0  0  0  0  0  0  0  0  0  0  0  0
    0.7088    1.9886    1.6919 H   0  0  0  0  0  0  0  0  0  0  0  0
   -1.2847   -1.3715    1.2358 H   0  0  0  0  0  0  0  0  0  0  0  0
    0.4223   -1.2685    1.7021 H   0  0  0  0  0  0  0  0  0  0  0  0
   -0.7520   -0.1357    2.3798 H   0  0  0  0  0  0  0  0  0  0  0  0
   -0.2277   -1.9482   -2.3700 C   0  0  0  0  0  0  0  0  0  0  0  0
   -0.2277   -1.9482   -1.0483 C   0  0  0  0  0  0  0  0  0  0  0  0
   -0.2277   -1.0256   -2.9384 H   0  0  0  0  0  0  0  0  0  0  0  0
   -0.2277   -2.8708   -2.9384 H   0  0  0  0  0  0  0  0  0  0  0  0
   -0.2277   -0.8411   -0.3662 H   0  0  0  0  0  0  0  0  0  0  0  0
   -0.2277   -2.8708   -0.4799 H   0  0  0  0  0  0  0  0  0  0  0  0
  1  2  1  0
  1  5  1  0
  1  6  1  0
  1  7  1  0
  2  4  1  0
  2  3  1  0
  3  8  1  0
  4  9  1  0
  4 10  1  0
  4 11  1  0
 12 13  2  3
 12 14  1  0
 12 15  1  0
 13 16  1  0
 13 17  1  0
M  RAD  1   2   2
M  END
>  <reaction>  (14) 
rxn_1588

>  <mol_properties>  (14) 
{"1": {"label": "*1", "atom_type": "Cs"}, "2": {"label": "*0", "atom_type": "S2s"}, "11": {"label": "*4", "atom_type": "Cd"}, "12": {"label": "*3", "atom_type": "Cd"}, "15": {"label": "*2", "atom_type": "H0"}}

>  <type>  (14) 
unop_10

>  <geom_source>  (14) 
Heuristics

$$$$

     RDKit          3D

 17 15  0  0  0  0  0  0  0  0999 V2000
    1.1491    0.3302    1.7100 C   0  0  0  0  0  0  0  0  0  0  0  0
    0.4290    0.5645    0.3894 C   0  0  0  0  0  3  0  0  0  0  0  0
   -1.3319    0.0868    0.4768 S   0  0  0  0  0  0  0  0  0  0  0  0
    0.6084    1.9887   -0.1175 C   0  0  0  0  0  0  0  0  0  0  0  0
    1.0358   -0.6998    2.0463 H   0  0  0  0  0  0  0  0  0  0  0  0
    0.7496    0.9872    2.4865 H   0  0  0  0  0  0  0  0  0  0  0  0
    2.2151    0.5475    1.6040 H   0  0  0  0  0  0  0  0  0  0  0  0
   -1.6882    0.9899    1.4018 H   0  0  0  0  0  0  0  0  0  0  0  0
    1.6706    2.2176   -0.2363 H   0  0  0  0  0  0  0  0  0  0  0  0
    0.1120    2.1340   -1.0763 H   0  0  0  0  0  0  0  0  0  0  0  0
    0.1897    2.7047    0.5940 H   0  0  0  0  0  0  0  0  0  0  0  0
    0.4290   -1.6593   -2.3024 C   0  0  0  0  0  0  0  0  0  0  0  0
    0.4290   -1.6593   -0.9807 C   0  0  0  0  0  0  0  0  0  0  0  0
    0.4290   -0.7367   -2.8708 H   0  0  0  0  0  0  0  0  0  0  0  0
    0.4290   -2.5819   -2.8708 H   0  0  0  0  0  0  0  0  0  0  0  0
    0.4290   -0.5522   -0.2986 H   0  0  0  0  0  0  0  0  0  0  0  0
    0.4290   -2.5819   -0.4123 H   0  0  0  0  0  0  0  0  0  0  0  0
  1  2  1  0
  1  5  1  0
  1  6  1  0
  1  7  1  0
  2  4  1  0
  2  3  1  0
  3  8  1  0
  4  9  1  0
  4 10  1  0
  4 11  1  0
 12 13  2  3
 12 14  1  0
 12 15  1  0
 13 16  1  0
 13 17  1  0
M  RAD  1   2   2
M  END
>  <reaction>  (15) 
rxn_1588

>  <mol_properties>  (15) 
{"1": {"label": "*1", "atom_type": "Cs"}, "2": {"label": "*0", "atom_type": "S2s"}, "11": {"label": "*4", "atom_type": "Cd"}, "12": {"label": "*3", "atom_type": "Cd"}, "15": {"label": "*2", "atom_type": "H0"}}

>  <type>  (15) 
unop_11

>  <geom_source>  (15) 
Heuristics

$$$$

     RDKit          3D

 17 15  0  0  0  0  0  0  0  0999 V2000
   -0.3134    1.6216   -0.7144 C   0  0  0  0  0  0  0  0  0  0  0  0
   -0.3134    0.4462    0.2531 C   0  0  0  0  0  3  0  0  0  0  0  0
    1.2513    0.3307    1.1883 S   0  0  0  0  0  0  0  0  0  0  0  0
   -1.5269    0.4593    1.1722 C   0  0  0  0  0  0  0  0  0  0  0  0
    0.5450    1.5840   -1.3842 H   0  0  0  0  0  0  0  0  0  0  0  0
   -0.2774    2.5676   -0.1686 H   0  0  0  0  0  0  0  0  0  0  0  0
   -1.2260    1.6171   -1.3160 H   0  0  0  0  0  0  0  0  0  0  0  0
    1.1303    1.5010    1.8316 H   0  0  0  0  0  0  0  0  0  0  0  0
   -2.4480    0.4467    0.5838 H   0  0  0  0  0  0  0  0  0  0  0  0
   -1.5285   -0.4020    1.8394 H   0  0  0  0  0  0  0  0  0  0  0  0
   -1.5340    1.3639    1.7851 H   0  0  0  0  0  0  0  0  0  0  0  0
   -0.3134   -1.7776   -2.4387 C   0  0  0  0  0  0  0  0  0  0  0  0
   -0.3134   -1.7776   -1.1170 C   0  0  0  0  0  0  0  0  0  0  0  0
   -0.3134   -0.8550   -3.0071 H   0  0  0  0  0  0  0  0  0  0  0  0
   -0.3134   -2.7002   -3.0071 H   0  0  0  0  0  0  0  0  0  0  0  0
   -0.3134   -0.6705   -0.4349 H   0  0  0  0  0  0  0  0  0  0  0  0
   -0.3134   -2.7002   -0.5486 H   0  0  0  0  0  0  0  0  0  0  0  0
  1  2  1  0
  1  5  1  0
  1  6  1  0
  1  7  1  0
  2  4  1  0
  2  3  1  0
  3  8  1  0
  4  9  1  0
  4 10  1  0
  4 11  1  0
 12 13  2  3
 12 14  1  0
 12 15  1  0
 13 16  1  0
 13 17  1  0
M  RAD  1   2   2
M  END
>  <reaction>  (16) 
rxn_1588

>  <mol_properties>  (16) 
{"1": {"label": "*1", "atom_type": "Cs"}, "2": {"label": "*0", "atom_type": "S2s"}, "11": {"label": "*4", "atom_type": "Cd"}, "12": {"label": "*3", "atom_type": "Cd"}, "15": {"label": "*2", "atom_type": "H0"}}

>  <type>  (16) 
unop_12

>  <geom_source>  (16) 
Heuristics

$$$$

     RDKit          3D

 17 15  0  0  0  0  0  0  0  0999 V2000
    0.1630   -0.7746    1.6002 S   0  0  0  0  0  0  0  0  0  0  0  0
   -0.4778   -0.0413    0.0565 C   0  0  0  0  0  3  0  0  0  0  0  0
   -1.1598    1.2942    0.3474 C   0  0  0  0  0  0  0  0  0  0  0  0
   -1.4326   -1.0125   -0.6351 C   0  0  0  0  0  0  0  0  0  0  0  0
    2.7094    0.1407    0.0662 C   0  0  0  0  0  0  0  0  0  0  0  0
    1.8701    0.3075   -0.9518 C   0  0  0  0  0  0  0  0  0  0  0  0
    0.6442    0.2018   -0.8257 H   0  0  0  0  0  0  0  0  0  0  0  0
   -1.4984    1.7613   -0.6015 H   0  0  0  0  0  0  0  0  0  0  0  0
   -0.4406    1.9835    0.8375 H   0  0  0  0  0  0  0  0  0  0  0  0
   -2.0370    1.1523    1.0144 H   0  0  0  0  0  0  0  0  0  0  0  0
   -1.7757   -0.5838   -1.6003 H   0  0  0  0  0  0  0  0  0  0  0  0
   -0.9079   -1.9680   -0.8456 H   0  0  0  0  0  0  0  0  0  0  0  0
   -2.3173   -1.2188    0.0045 H   0  0  0  0  0  0  0  0  0  0  0  0
    2.9098    0.9651    0.7415 H   0  0  0  0  0  0  0  0  0  0  0  0
    3.1954   -0.8165    0.2254 H   0  0  0  0  0  0  0  0  0  0  0  0
   -1.1070   -0.8800    2.2002 H   0  0  0  0  0  0  0  0  0  0  0  0
    1.6623   -0.5108   -1.6336 H   0  0  0  0  0  0  0  0  0  0  0  0
  1  2  1  0
  1 16  1  0
  2  3  1  0
  2  4  1  0
  3  8  1  0
  3  9  1  0
  3 10  1  0
  4 11  1  0
  4 12  1  0
  4 13  1  0
  5  6  2  3
  5 14  1  0
  5 15  1  0
  6  7  1  0
  6 17  1  0
M  RAD  1   2   2
M  END
>  <reaction>  (17) 
rxn_1588

>  <mol_properties>  (17) 
{"1": {"label": "*1", "atom_type": "Cs"}, "2": {"label": "*0", "atom_type": "S2s"}, "11": {"label": "*4", "atom_type": "Cd"}, "12": {"label": "*3", "atom_type": "Cd"}, "15": {"label": "*2", "atom_type": "H0"}}

>  <type>  (17) 
unop_13

>  <geom_source>  (17) 
AutoTST

$$$$

     RDKit          3D

 17 15  0  0  0  0  0  0  0  0999 V2000
   -0.9877    1.4037   -0.5074 C   0  0  0  0  0  0  0  0  0  0  0  0
   -0.2676    0.3295    0.2957 C   0  0  0  0  0  3  0  0  0  0  0  0
    1.3467    0.9112    0.9220 S   0  0  0  0  0  0  0  0  0  0  0  0
   -1.1395   -0.2370    1.4077 C   0  0  0  0  0  0  0  0  0  0  0  0
   -0.3627    1.7798   -1.3166 H   0  0  0  0  0  0  0  0  0  0  0  0
   -1.2568    2.2465    0.1340 H   0  0  0  0  0  0  0  0  0  0  0  0
   -1.9095    1.0021   -0.9362 H   0  0  0  0  0  0  0  0  0  0  0  0
    0.8624    1.8795    1.7132 H   0  0  0  0  0  0  0  0  0  0  0  0
   -2.0623   -0.6501    0.9923 H   0  0  0  0  0  0  0  0  0  0  0  0
   -0.6220   -1.0236    1.9557 H   0  0  0  0  0  0  0  0  0  0  0  0
   -1.4139    0.5474    2.1172 H   0  0  0  0  0  0  0  0  0  0  0  0
   -0.2676   -1.8943   -2.3960 C   0  0  0  0  0  0  0  0  0  0  0  0
   -0.2676   -1.8943   -1.0743 C   0  0  0  0  0  0  0  0  0  0  0  0
   -0.2676   -0.9717   -2.9644 H   0  0  0  0  0  0  0  0  0  0  0  0
   -0.2676   -2.8169   -2.9644 H   0  0  0  0  0  0  0  0  0  0  0  0
   -0.2676   -0.7872   -0.3922 H   0  0  0  0  0  0  0  0  0  0  0  0
   -0.2676   -2.8169   -0.5059 H   0  0  0  0  0  0  0  0  0  0  0  0
  1  2  1  0
  1  5  1  0
  1  6  1  0
  1  7  1  0
  2  4  1  0
  2  3  1  0
  3  8  1  0
  4  9  1  0
  4 10  1  0
  4 11  1  0
 12 13  2  3
 12 14  1  0
 12 15  1  0
 13 16  1  0
 13 17  1  0
M  RAD  1   2   2
M  END
>  <reaction>  (18) 
rxn_1588

>  <mol_properties>  (18) 
{"1": {"label": "*1", "atom_type": "Cs"}, "2": {"label": "*0", "atom_type": "S2s"}, "11": {"label": "*4", "atom_type": "Cd"}, "12": {"label": "*3", "atom_type": "Cd"}, "15": {"label": "*2", "atom_type": "H0"}}

>  <type>  (18) 
unop_14

>  <geom_source>  (18) 
gaussian_log

$$$$
