
     RDKit          3D

  5  4  0  0  0  0  0  0  0  0999 V2000
    0.0000    0.0000    0.0000 C   0  0  0  0  0  0  0  0  0  0  0  0
   -0.6486   -0.7720   -0.4113 H   0  0  0  0  0  0  0  0  0  0  0  0
   -0.3482    0.9787   -0.3267 H   0  0  0  0  0  0  0  0  0  0  0  0
   -0.0223   -0.0487    1.0876 H   0  0  0  0  0  0  0  0  0  0  0  0
    1.0191   -0.1580   -0.3496 H   0  0  0  0  0  0  0  0  0  0  0  0
  1  2  1  0
  1  3  1  0
  1  4  1  0
  1  5  1  0
M  END
>  <reaction>  (1) 
rxn_830

>  <mol_properties>  (1) 
{"0": {"label": "donator", "atom_type": "Cs"}, "1": {"label": "d_hydrogen", "atom_type": "H0"}}

>  <type>  (1) 
r1h

$$$$

     RDKit          3D

 11 10  0  0  0  0  0  0  0  0999 V2000
    2.0591    0.2533   -0.1061 C   0  0  0  0  0  0  0  0  0  0  0  0
    0.8045   -0.3111   -0.1535 C   0  0  0  0  0  0  0  0  0  0  0  0
   -0.3816    0.3942   -0.1885 C   0  0  0  0  0  3  0  0  0  0  0  0
   -1.7316   -0.2294   -0.2396 C   0  0  0  0  0  0  0  0  0  0  0  0
    2.9505   -0.3576   -0.0805 H   0  0  0  0  0  0  0  0  0  0  0  0
    2.1872    1.3290   -0.0933 H   0  0  0  0  0  0  0  0  0  0  0  0
    0.7385   -1.3970   -0.1643 H   0  0  0  0  0  0  0  0  0  0  0  0
   -0.3340    1.4795   -0.1783 H   0  0  0  0  0  0  0  0  0  0  0  0
   -1.6704   -1.3186   -0.2461 H   0  0  0  0  0  0  0  0  0  0  0  0
   -2.3404    0.0713    0.6191 H   0  0  0  0  0  0  0  0  0  0  0  0
   -2.2805    0.0851   -1.1331 H   0  0  0  0  0  0  0  0  0  0  0  0
  1  2  2  3
  1  5  1  0
  1  6  1  0
  2  3  1  0
  2  7  1  0
  3  4  1  0
  3  8  1  0
  4  9  1  0
  4 10  1  0
  4 11  1  0
M  RAD  1   3   2
M  END
>  <reaction>  (2) 
rxn_830

>  <mol_properties>  (2) 
{"2": {"label": "acceptor", "atom_type": "Cs"}}

>  <type>  (2) 
r2

$$$$

     RDKit          3D

 12 11  0  0  0  0  0  0  0  0999 V2000
    1.9877    0.1011    0.4814 C   0  0  0  0  0  0  0  0  0  0  0  0
    0.8179    0.5502    0.0525 C   0  0  0  0  0  0  0  0  0  0  0  0
   -0.2939   -0.2692   -0.5320 C   0  0  0  0  0  0  0  0  0  0  0  0
   -0.0292   -1.7631   -0.6328 C   0  0  0  0  0  0  0  0  0  0  0  0
    2.2522   -0.9490    0.4436 H   0  0  0  0  0  0  0  0  0  0  0  0
    2.7295    0.7757    0.8896 H   0  0  0  0  0  0  0  0  0  0  0  0
    0.6162    1.6164    0.1190 H   0  0  0  0  0  0  0  0  0  0  0  0
   -0.5268    0.1319   -1.5245 H   0  0  0  0  0  0  0  0  0  0  0  0
   -1.1959   -0.0938    0.0644 H   0  0  0  0  0  0  0  0  0  0  0  0
    0.1590   -2.1992    0.3502 H   0  0  0  0  0  0  0  0  0  0  0  0
    0.8382   -1.9701   -1.2626 H   0  0  0  0  0  0  0  0  0  0  0  0
   -0.8879   -2.2759   -1.0672 H   0  0  0  0  0  0  0  0  0  0  0  0
  1  2  2  3
  1  5  1  0
  1  6  1  0
  2  3  1  0
  2  7  1  0
  3  4  1  0
  3  8  1  0
  3  9  1  0
  4 10  1  0
  4 11  1  0
  4 12  1  0
M  END
>  <reaction>  (3) 
rxn_830

>  <mol_properties>  (3) 
{"2": {"label": "acceptor", "atom_type": "Cs"}, "11": {"label": "a_hydrogen", "atom_type": "H0"}}

>  <type>  (3) 
r2h

$$$$

     RDKit          3D

 16 14  0  0  0  0  0  0  0  0999 V2000
   -1.4661    1.0631    0.9432 C   0  0  0  0  0  0  0  0  0  0  0  0
   -0.5382    0.1324    1.1515 C   0  0  0  0  0  0  0  0  0  0  0  0
    0.6979   -0.0554    0.3733 C   0  0  0  0  0  0  0  0  0  0  0  0
    1.0805    1.0155   -0.6207 C   0  0  0  0  0  0  0  0  0  0  0  0
   -2.3602    1.1068    1.5518 H   0  0  0  0  0  0  0  0  0  0  0  0
   -1.3635    1.8164    0.1712 H   0  0  0  0  0  0  0  0  0  0  0  0
   -0.7019   -0.5895    1.9474 H   0  0  0  0  0  0  0  0  0  0  0  0
    1.5322   -0.3594    1.0079 H   0  0  0  0  0  0  0  0  0  0  0  0
    1.2439    1.9771   -0.1269 H   0  0  0  0  0  0  0  0  0  0  0  0
    1.9981    0.7442   -1.1438 H   0  0  0  0  0  0  0  0  0  0  0  0
    0.2996    1.1560   -1.3711 H   0  0  0  0  0  0  0  0  0  0  0  0
    0.3112   -2.2210   -1.2188 C   0  0  0  0  0  3  0  0  0  0  0  0
    0.5186   -1.0943   -0.3107 H   0  0  0  0  0  0  0  0  0  0  0  0
    0.1992   -3.0649   -0.5465 H   0  0  0  0  0  0  0  0  0  0  0  0
   -0.5943   -1.9291   -1.7398 H   0  0  0  0  0  0  0  0  0  0  0  0
    1.2073   -2.2381   -1.8298 H   0  0  0  0  0  0  0  0  0  0  0  0
  1  2  2  3
  1  5  1  0
  1  6  1  0
  2  3  1  0
  2  7  1  0
  3  4  1  0
  3  8  1  0
  3 13  1  0
  4  9  1  0
  4 10  1  0
  4 11  1  0
 12 14  1  0
 12 15  1  0
 12 16  1  0
M  RAD  1  12   2
M  END
>  <reaction>  (4) 
rxn_830

>  <mol_properties>  (4) 
{"1": {"label": "*0", "atom_type": "Cd"}, "2": {"label": "*1", "atom_type": "Cs"}, "11": {"label": "*3", "atom_type": "Cs"}, "12": {"label": "*2", "atom_type": "H0"}, "13": {"label": "*4", "atom_type": "H0"}}

>  <type>  (4) 
ts

$$$$

     RDKit          3D

 16 14  0  0  0  0  0  0  0  0999 V2000
   -1.3495    1.3362    1.0702 C   0  0  0  0  0  0  0  0  0  0  0  0
   -0.8054    0.1763    0.7348 C   0  0  0  0  0  0  0  0  0  0  0  0
    0.4291   -0.0256   -0.0925 C   0  0  0  0  0  3  0  0  0  0  0  0
    1.1074    1.2430   -0.5848 C   0  0  0  0  0  0  0  0  0  0  0  0
   -2.2468    1.3784    1.6745 H   0  0  0  0  0  0  0  0  0  0  0  0
   -0.9264    2.2839    0.7589 H   0  0  0  0  0  0  0  0  0  0  0  0
   -1.2808   -0.7383    1.0805 H   0  0  0  0  0  0  0  0  0  0  0  0
    1.1387   -0.6195    0.4940 H   0  0  0  0  0  0  0  0  0  0  0  0
    1.4239    1.8723    0.2493 H   0  0  0  0  0  0  0  0  0  0  0  0
    1.9919    1.0004   -1.1748 H   0  0  0  0  0  0  0  0  0  0  0  0
    0.4371    1.8324   -1.2134 H   0  0  0  0  0  0  0  0  0  0  0  0
    0.4291   -2.4970   -0.9663 C   0  0  0  0  0  0  0  0  0  0  0  0
    0.4291   -1.2650   -0.5307 H   0  0  0  0  0  0  0  0  0  0  0  0
    1.3182   -3.0103   -0.6033 H   0  0  0  0  0  0  0  0  0  0  0  0
   -0.4600   -3.0103   -0.6033 H   0  0  0  0  0  0  0  0  0  0  0  0
    0.4291   -2.4970   -2.0552 H   0  0  0  0  0  0  0  0  0  0  0  0
  1  2  2  3
  1  5  1  0
  1  6  1  0
  2  3  1  0
  2  7  1  0
  3  4  1  0
  3  8  1  0
  4  9  1  0
  4 10  1  0
  4 11  1  0
 12 13  1  0
 12 14  1  0
 12 15  1  0
 12 16  1  0
M  RAD  1   3   2
M  END
>  <reaction>  (5) 
rxn_830

>  <mol_properties>  (5) 
{"1": {"label": "*0", "atom_type": "Cd"}, "2": {"label": "*1", "atom_type": "Cs"}, "11": {"label": "*3", "atom_type": "Cs"}, "12": {"label": "*2", "atom_type": "H0"}, "13": {"label": "*4", "atom_type": "H0"}}

>  <type>  (5) 
unop_1

>  <geom_source>  (5) 
Heuristics

$$$$

     RDKit          3D

 16 14  0  0  0  0  0  0  0  0999 V2000
   -0.4314    1.9244   -0.8686 C   0  0  0  0  0  0  0  0  0  0  0  0
   -0.7580    0.6943   -0.5024 C   0  0  0  0  0  0  0  0  0  0  0  0
   -0.0453   -0.1566    0.5061 C   0  0  0  0  0  3  0  0  0  0  0  0
    1.1717    0.4773    1.1612 C   0  0  0  0  0  0  0  0  0  0  0  0
   -1.0120    2.4595   -1.6093 H   0  0  0  0  0  0  0  0  0  0  0  0
    0.4212    2.4448   -0.4486 H   0  0  0  0  0  0  0  0  0  0  0  0
   -1.6261    0.2297   -0.9633 H   0  0  0  0  0  0  0  0  0  0  0  0
   -0.7678   -0.4496    1.2758 H   0  0  0  0  0  0  0  0  0  0  0  0
    0.9028    1.3892    1.6977 H   0  0  0  0  0  0  0  0  0  0  0  0
    1.6236   -0.2106    1.8765 H   0  0  0  0  0  0  0  0  0  0  0  0
    1.9306    0.7361    0.4203 H   0  0  0  0  0  0  0  0  0  0  0  0
   -0.0453   -2.6280   -0.3677 C   0  0  0  0  0  0  0  0  0  0  0  0
   -0.0453   -1.3960    0.0679 H   0  0  0  0  0  0  0  0  0  0  0  0
    0.8438   -3.1414   -0.0047 H   0  0  0  0  0  0  0  0  0  0  0  0
   -0.9344   -3.1414   -0.0047 H   0  0  0  0  0  0  0  0  0  0  0  0
   -0.0453   -2.6280   -1.4566 H   0  0  0  0  0  0  0  0  0  0  0  0
  1  2  2  3
  1  5  1  0
  1  6  1  0
  2  3  1  0
  2  7  1  0
  3  4  1  0
  3  8  1  0
  4  9  1  0
  4 10  1  0
  4 11  1  0
 12 13  1  0
 12 14  1  0
 12 15  1  0
 12 16  1  0
M  RAD  1   3   2
M  END
>  <reaction>  (6) 
rxn_830

>  <mol_properties>  (6) 
{"1": {"label": "*0", "atom_type": "Cd"}, "2": {"label": "*1", "atom_type": "Cs"}, "11": {"label": "*3", "atom_type": "Cs"}, "12": {"label": "*2", "atom_type": "H0"}, "13": {"label": "*4", "atom_type": "H0"}}

>  <type>  (6) 
unop_2

>  <geom_source>  (6) 
Heuristics

$$$$

     RDKit          3D

 16 14  0  0  0  0  0  0  0  0999 V2000
   -0.9807    1.1068    1.5851 C   0  0  0  0  0  0  0  0  0  0  0  0
   -0.2947    0.0927    1.0803 C   0  0  0  0  0  0  0  0  0  0  0  0
    0.4180    0.0647   -0.2389 C   0  0  0  0  0  3  0  0  0  0  0  0
    0.3306    1.3398   -1.0626 C   0  0  0  0  0  0  0  0  0  0  0  0
   -1.4625    1.0294    2.5515 H   0  0  0  0  0  0  0  0  0  0  0  0
   -1.0896    2.0485    1.0602 H   0  0  0  0  0  0  0  0  0  0  0  0
   -0.2245   -0.8248    1.6593 H   0  0  0  0  0  0  0  0  0  0  0  0
    1.4689   -0.1829   -0.0530 H   0  0  0  0  0  0  0  0  0  0  0  0
    0.7592    2.1884   -0.5257 H   0  0  0  0  0  0  0  0  0  0  0  0
    0.8753    1.2281   -2.0007 H   0  0  0  0  0  0  0  0  0  0  0  0
   -0.7054    1.5851   -1.3042 H   0  0  0  0  0  0  0  0  0  0  0  0
    0.4180   -2.4067   -1.1127 C   0  0  0  0  0  0  0  0  0  0  0  0
    0.4180   -1.1747   -0.6771 H   0  0  0  0  0  0  0  0  0  0  0  0
    1.3072   -2.9200   -0.7497 H   0  0  0  0  0  0  0  0  0  0  0  0
   -0.4711   -2.9200   -0.7497 H   0  0  0  0  0  0  0  0  0  0  0  0
    0.4180   -2.4067   -2.2016 H   0  0  0  0  0  0  0  0  0  0  0  0
  1  2  2  3
  1  5  1  0
  1  6  1  0
  2  3  1  0
  2  7  1  0
  3  4  1  0
  3  8  1  0
  4  9  1  0
  4 10  1  0
  4 11  1  0
 12 13  1  0
 12 14  1  0
 12 15  1  0
 12 16  1  0
M  RAD  1   3   2
M  END
>  <reaction>  (7) 
rxn_830

>  <mol_properties>  (7) 
{"1": {"label": "*0", "atom_type": "Cd"}, "2": {"label": "*1", "atom_type": "Cs"}, "11": {"label": "*3", "atom_type": "Cs"}, "12": {"label": "*2", "atom_type": "H0"}, "13": {"label": "*4", "atom_type": "H0"}}

>  <type>  (7) 
unop_3

>  <geom_source>  (7) 
Heuristics

$$$$

     RDKit          3D

 16 14  0  0  0  0  0  0  0  0999 V2000
    1.6761    1.1637    0.0694 C   0  0  0  0  0  0  0  0  0  0  0  0
    0.5037    1.0872   -0.5419 C   0  0  0  0  0  0  0  0  0  0  0  0
   -0.7307    0.4102   -0.0253 C   0  0  0  0  0  3  0  0  0  0  0  0
   -0.5998   -0.2476    1.3393 C   0  0  0  0  0  0  0  0  0  0  0  0
    2.5121    1.6775   -0.3879 H   0  0  0  0  0  0  0  0  0  0  0  0
    1.8496    0.7211    1.0431 H   0  0  0  0  0  0  0  0  0  0  0  0
    0.3970    1.5534   -1.5181 H   0  0  0  0  0  0  0  0  0  0  0  0
   -1.5398    1.1485   -0.0027 H   0  0  0  0  0  0  0  0  0  0  0  0
   -0.3332    0.4817    2.1067 H   0  0  0  0  0  0  0  0  0  0  0  0
   -1.5418   -0.7123    1.6326 H   0  0  0  0  0  0  0  0  0  0  0  0
    0.1684   -1.0232    1.3332 H   0  0  0  0  0  0  0  0  0  0  0  0
   -0.7307   -2.0613   -0.8990 C   0  0  0  0  0  0  0  0  0  0  0  0
   -0.7307   -0.8293   -0.4635 H   0  0  0  0  0  0  0  0  0  0  0  0
    0.1584   -2.5746   -0.5361 H   0  0  0  0  0  0  0  0  0  0  0  0
   -1.6198   -2.5746   -0.5361 H   0  0  0  0  0  0  0  0  0  0  0  0
   -0.7307   -2.0613   -1.9880 H   0  0  0  0  0  0  0  0  0  0  0  0
  1  2  2  3
  1  5  1  0
  1  6  1  0
  2  3  1  0
  2  7  1  0
  3  4  1  0
  3  8  1  0
  4  9  1  0
  4 10  1  0
  4 11  1  0
 12 13  1  0
 12 14  1  0
 12 15  1  0
 12 16  1  0
M  RAD  1   3   2
M  END
>  <reaction>  (8) 
rxn_830

>  <mol_properties>  (8) 
{"1": {"label": "*0", "atom_type": "Cd"}, "2": {"label": "*1", "atom_type": "Cs"}, "11": {"label": "*3", "atom_type": "Cs"}, "12": {"label": "*2", "atom_type": "H0"}, "13": {"label": "*4", "atom_type": "H0"}}

>  <type>  (8) 
unop_4

>  <geom_source>  (8) 
Heuristics

$$$$

     RDKit          3D

 16 14  0  0  0  0  0  0  0  0999 V2000
   -0.4732    0.8111    1.9009 C   0  0  0  0  0  0  0  0  0  0  0  0
    0.4149    0.2446    1.0982 C   0  0  0  0  0  0  0  0  0  0  0  0
    0.4149    0.2804   -0.4011 C   0  0  0  0  0  3  0  0  0  0  0  0
   -0.7291    1.0499   -1.0422 C   0  0  0  0  0  0  0  0  0  0  0  0
   -0.3866    0.7283    2.9769 H   0  0  0  0  0  0  0  0  0  0  0  0
   -1.3165    1.3762    1.5218 H   0  0  0  0  0  0  0  0  0  0  0  0
    1.2377   -0.3086    1.5440 H   0  0  0  0  0  0  0  0  0  0  0  0
    1.3718    0.6988   -0.7317 H   0  0  0  0  0  0  0  0  0  0  0  0
   -0.7247    2.0969   -0.7327 H   0  0  0  0  0  0  0  0  0  0  0  0
   -0.6478    1.0222   -2.1293 H   0  0  0  0  0  0  0  0  0  0  0  0
   -1.6961    0.6238   -0.7678 H   0  0  0  0  0  0  0  0  0  0  0  0
    0.4149   -2.1911   -1.2749 C   0  0  0  0  0  0  0  0  0  0  0  0
    0.4149   -0.9591   -0.8393 H   0  0  0  0  0  0  0  0  0  0  0  0
    1.3040   -2.7044   -0.9119 H   0  0  0  0  0  0  0  0  0  0  0  0
   -0.4743   -2.7044   -0.9119 H   0  0  0  0  0  0  0  0  0  0  0  0
    0.4149   -2.1911   -2.3638 H   0  0  0  0  0  0  0  0  0  0  0  0
  1  2  2  3
  1  5  1  0
  1  6  1  0
  2  3  1  0
  2  7  1  0
  3  4  1  0
  3  8  1  0
  4  9  1  0
  4 10  1  0
  4 11  1  0
 12 13  1  0
 12 14  1  0
 12 15  1  0
 12 16  1  0
M  RAD  1   3   2
M  END
>  <reaction>  (9) 
rxn_830

>  <mol_properties>  (9) 
{"1": {"label": "*0", "atom_type": "Cd"}, "2": {"label": "*1", "atom_type": "Cs"}, "11": {"label": "*3", "atom_type": "Cs"}, "12": {"label": "*2", "atom_type": "H0"}, "13": {"label": "*4", "atom_type": "H0"}}

>  <type>  (9) 
unop_5

>  <geom_source>  (9) 
Heuristics

$$$$

     RDKit          3D

 16 14  0  0  0  0  0  0  0  0999 V2000
    1.6340    0.8100    0.8752 C   0  0  0  0  0  0  0  0  0  0  0  0
    0.8536    1.0195   -0.1741 C   0  0  0  0  0  0  0  0  0  0  0  0
   -0.5718    0.5801   -0.3295 C   0  0  0  0  0  3  0  0  0  0  0  0
   -1.1592   -0.1808    0.8486 C   0  0  0  0  0  0  0  0  0  0  0  0
    2.6553    1.1687    0.8925 H   0  0  0  0  0  0  0  0  0  0  0  0
    1.2899    0.2765    1.7533 H   0  0  0  0  0  0  0  0  0  0  0  0
    1.2616    1.5623   -1.0231 H   0  0  0  0  0  0  0  0  0  0  0  0
   -1.1808    1.4669   -0.5364 H   0  0  0  0  0  0  0  0  0  0  0  0
   -1.1455    0.4241    1.7574 H   0  0  0  0  0  0  0  0  0  0  0  0
   -2.1944   -0.4587    0.6475 H   0  0  0  0  0  0  0  0  0  0  0  0
   -0.5993   -1.0967    1.0475 H   0  0  0  0  0  0  0  0  0  0  0  0
   -0.5718   -1.8914   -1.2033 C   0  0  0  0  0  0  0  0  0  0  0  0
   -0.5718   -0.6594   -0.7677 H   0  0  0  0  0  0  0  0  0  0  0  0
    0.3173   -2.4047   -0.8403 H   0  0  0  0  0  0  0  0  0  0  0  0
   -1.4609   -2.4047   -0.8403 H   0  0  0  0  0  0  0  0  0  0  0  0
   -0.5718   -1.8914   -2.2922 H   0  0  0  0  0  0  0  0  0  0  0  0
  1  2  2  3
  1  5  1  0
  1  6  1  0
  2  3  1  0
  2  7  1  0
  3  4  1  0
  3  8  1  0
  4  9  1  0
  4 10  1  0
  4 11  1  0
 12 13  1  0
 12 14  1  0
 12 15  1  0
 12 16  1  0
M  RAD  1   3   2
M  END
>  <reaction>  (10) 
rxn_830

>  <mol_properties>  (10) 
{"1": {"label": "*0", "atom_type": "Cd"}, "2": {"label": "*1", "atom_type": "Cs"}, "11": {"label": "*3", "atom_type": "Cs"}, "12": {"label": "*2", "atom_type": "H0"}, "13": {"label": "*4", "atom_type": "H0"}}

>  <type>  (10) 
unop_6

>  <geom_source>  (10) 
Heuristics

$$$$

     RDKit          3D

 16 14  0  0  0  0  0  0  0  0999 V2000
    1.1365    0.5652    1.5761 C   0  0  0  0  0  0  0  0  0  0  0  0
    0.9921    0.8522    0.2913 C   0  0  0  0  0  0  0  0  0  0  0  0
   -0.2424    0.6503   -0.5360 C   0  0  0  0  0  3  0  0  0  0  0  0
   -1.4356    0.0551    0.1947 C   0  0  0  0  0  0  0  0  0  0  0  0
    2.0728    0.7486    2.0877 H   0  0  0  0  0  0  0  0  0  0  0  0
    0.3339    0.1389    2.1663 H   0  0  0  0  0  0  0  0  0  0  0  0
    1.8378    1.2783   -0.2427 H   0  0  0  0  0  0  0  0  0  0  0  0
   -0.5213    1.6157   -0.9725 H   0  0  0  0  0  0  0  0  0  0  0  0
   -1.7500    0.6915    1.0241 H   0  0  0  0  0  0  0  0  0  0  0  0
   -2.2834   -0.0551   -0.4823 H   0  0  0  0  0  0  0  0  0  0  0  0
   -1.2004   -0.9310    0.5998 H   0  0  0  0  0  0  0  0  0  0  0  0
   -0.2424   -1.8211   -1.4098 C   0  0  0  0  0  0  0  0  0  0  0  0
   -0.2424   -0.5891   -0.9742 H   0  0  0  0  0  0  0  0  0  0  0  0
    0.6467   -2.3344   -1.0468 H   0  0  0  0  0  0  0  0  0  0  0  0
   -1.1315   -2.3344   -1.0468 H   0  0  0  0  0  0  0  0  0  0  0  0
   -0.2424   -1.8211   -2.4987 H   0  0  0  0  0  0  0  0  0  0  0  0
  1  2  2  3
  1  5  1  0
  1  6  1  0
  2  3  1  0
  2  7  1  0
  3  4  1  0
  3  8  1  0
  4  9  1  0
  4 10  1  0
  4 11  1  0
 12 13  1  0
 12 14  1  0
 12 15  1  0
 12 16  1  0
M  RAD  1   3   2
M  END
>  <reaction>  (11) 
rxn_830

>  <mol_properties>  (11) 
{"1": {"label": "*0", "atom_type": "Cd"}, "2": {"label": "*1", "atom_type": "Cs"}, "11": {"label": "*3", "atom_type": "Cs"}, "12": {"label": "*2", "atom_type": "H0"}, "13": {"label": "*4", "atom_type": "H0"}}

>  <type>  (11) 
unop_7

>  <geom_source>  (11) 
Heuristics

$$$$

     RDKit          3D

 16 14  0  0  0  0  0  0  0  0999 V2000
   -1.4502    1.5862    0.3659 C   0  0  0  0  0  0  0  0  0  0  0  0
   -1.0148    0.3390    0.2724 C   0  0  0  0  0  0  0  0  0  0  0  0
    0.4107   -0.1004    0.1170 C   0  0  0  0  0  3  0  0  0  0  0  0
    1.4424    1.0152    0.0639 C   0  0  0  0  0  0  0  0  0  0  0  0
   -2.5051    1.8029    0.4764 H   0  0  0  0  0  0  0  0  0  0  0  0
   -0.7786    2.4360    0.3364 H   0  0  0  0  0  0  0  0  0  0  0  0
   -1.7423   -0.4680    0.3090 H   0  0  0  0  0  0  0  0  0  0  0  0
    0.6480   -0.7834    0.9401 H   0  0  0  0  0  0  0  0  0  0  0  0
    1.4270    1.6129    0.9774 H   0  0  0  0  0  0  0  0  0  0  0  0
    2.4460    0.6039   -0.0497 H   0  0  0  0  0  0  0  0  0  0  0  0
    1.2581    1.6855   -0.7779 H   0  0  0  0  0  0  0  0  0  0  0  0
    0.4107   -2.5719   -0.7568 C   0  0  0  0  0  0  0  0  0  0  0  0
    0.4107   -1.3399   -0.3212 H   0  0  0  0  0  0  0  0  0  0  0  0
    1.2998   -3.0852   -0.3938 H   0  0  0  0  0  0  0  0  0  0  0  0
   -0.4784   -3.0852   -0.3938 H   0  0  0  0  0  0  0  0  0  0  0  0
    0.4107   -2.5719   -1.8457 H   0  0  0  0  0  0  0  0  0  0  0  0
  1  2  2  3
  1  5  1  0
  1  6  1  0
  2  3  1  0
  2  7  1  0
  3  4  1  0
  3  8  1  0
  4  9  1  0
  4 10  1  0
  4 11  1  0
 12 13  1  0
 12 14  1  0
 12 15  1  0
 12 16  1  0
M  RAD  1   3   2
M  END
>  <reaction>  (12) 
rxn_830

>  <mol_properties>  (12) 
{"1": {"label": "*0", "atom_type": "Cd"}, "2": {"label": "*1", "atom_type": "Cs"}, "11": {"label": "*3", "atom_type": "Cs"}, "12": {"label": "*2", "atom_type": "H0"}, "13": {"label": "*4", "atom_type": "H0"}}

>  <type>  (12) 
unop_8

>  <geom_source>  (12) 
Heuristics

$$$$

     RDKit          3D

 16 14  0  0  0  0  0  0  0  0999 V2000
    1.2560    1.5359   -0.6137 C   0  0  0  0  0  0  0  0  0  0  0  0
    0.0352    1.0349   -0.7259 C   0  0  0  0  0  0  0  0  0  0  0  0
   -0.6775    0.1840    0.2826 C   0  0  0  0  0  3  0  0  0  0  0  0
    0.0987   -0.1213    1.5539 C   0  0  0  0  0  0  0  0  0  0  0  0
    1.6856    2.1422   -1.4011 H   0  0  0  0  0  0  0  0  0  0  0  0
    1.8727    1.3639    0.2605 H   0  0  0  0  0  0  0  0  0  0  0  0
   -0.5304    1.2458   -1.6300 H   0  0  0  0  0  0  0  0  0  0  0  0
   -1.6224    0.6766    0.5368 H   0  0  0  0  0  0  0  0  0  0  0  0
    0.3599    0.7943    2.0881 H   0  0  0  0  0  0  0  0  0  0  0  0
   -0.4949   -0.7425    2.2255 H   0  0  0  0  0  0  0  0  0  0  0  0
    1.0246   -0.6563    1.3339 H   0  0  0  0  0  0  0  0  0  0  0  0
   -0.6775   -2.2874   -0.5912 C   0  0  0  0  0  0  0  0  0  0  0  0
   -0.6775   -1.0555   -0.1556 H   0  0  0  0  0  0  0  0  0  0  0  0
    0.2116   -2.8008   -0.2282 H   0  0  0  0  0  0  0  0  0  0  0  0
   -1.5666   -2.8008   -0.2282 H   0  0  0  0  0  0  0  0  0  0  0  0
   -0.6775   -2.2874   -1.6801 H   0  0  0  0  0  0  0  0  0  0  0  0
  1  2  2  3
  1  5  1  0
  1  6  1  0
  2  3  1  0
  2  7  1  0
  3  4  1  0
  3  8  1  0
  4  9  1  0
  4 10  1  0
  4 11  1  0
 12 13  1  0
 12 14  1  0
 12 15  1  0
 12 16  1  0
M  RAD  1   3   2
M  END
>  <reaction>  (13) 
rxn_830

>  <mol_properties>  (13) 
{"1": {"label": "*0", "atom_type": "Cd"}, "2": {"label": "*1", "atom_type": "Cs"}, "11": {"label": "*3", "atom_type": "Cs"}, "12": {"label": "*2", "atom_type": "H0"}, "13": {"label": "*4", "atom_type": "H0"}}

>  <type>  (13) 
unop_9

>  <geom_source>  (13) 
Heuristics

$$$$

     RDKit          3D

 16 14  0  0  0  0  0  0  0  0999 V2000
   -1.1396    1.8156   -0.3583 C   0  0  0  0  0  0  0  0  0  0  0  0
   -0.9741    0.5157   -0.1669 C   0  0  0  0  0  0  0  0  0  0  0  0
    0.2604   -0.1613    0.3497 C   0  0  0  0  0  3  0  0  0  0  0  0
    1.4264    0.7568    0.6803 C   0  0  0  0  0  0  0  0  0  0  0  0
   -2.0738    2.2100   -0.7374 H   0  0  0  0  0  0  0  0  0  0  0  0
   -0.3570    2.5347   -0.1468 H   0  0  0  0  0  0  0  0  0  0  0  0
   -1.8002   -0.1517   -0.3994 H   0  0  0  0  0  0  0  0  0  0  0  0
   -0.0155   -0.7413    1.2372 H   0  0  0  0  0  0  0  0  0  0  0  0
    1.1548    1.4801    1.4517 H   0  0  0  0  0  0  0  0  0  0  0  0
    2.2762    0.1801    1.0471 H   0  0  0  0  0  0  0  0  0  0  0  0
    1.7544    1.3132   -0.1998 H   0  0  0  0  0  0  0  0  0  0  0  0
    0.2604   -2.6328   -0.5241 C   0  0  0  0  0  0  0  0  0  0  0  0
    0.2604   -1.4008   -0.0885 H   0  0  0  0  0  0  0  0  0  0  0  0
    1.1495   -3.1461   -0.1611 H   0  0  0  0  0  0  0  0  0  0  0  0
   -0.6287   -3.1461   -0.1611 H   0  0  0  0  0  0  0  0  0  0  0  0
    0.2604   -2.6328   -1.6130 H   0  0  0  0  0  0  0  0  0  0  0  0
  1  2  2  3
  1  5  1  0
  1  6  1  0
  2  3  1  0
  2  7  1  0
  3  4  1  0
  3  8  1  0
  4  9  1  0
  4 10  1  0
  4 11  1  0
 12 13  1  0
 12 14  1  0
 12 15  1  0
 12 16  1  0
M  RAD  1   3   2
M  END
>  <reaction>  (14) 
rxn_830

>  <mol_properties>  (14) 
{"1": {"label": "*0", "atom_type": "Cd"}, "2": {"label": "*1", "atom_type": "Cs"}, "11": {"label": "*3", "atom_type": "Cs"}, "12": {"label": "*2", "atom_type": "H0"}, "13": {"label": "*4", "atom_type": "H0"}}

>  <type>  (14) 
unop_10

>  <geom_source>  (14) 
Heuristics

$$$$

     RDKit          3D

 16 14  0  0  0  0  0  0  0  0999 V2000
    0.3174    0.5424    1.9554 C   0  0  0  0  0  0  0  0  0  0  0  0
    0.8762    0.5875    0.7556 C   0  0  0  0  0  0  0  0  0  0  0  0
    0.1635    0.5595   -0.5636 C   0  0  0  0  0  3  0  0  0  0  0  0
   -1.3527    0.4702   -0.4920 C   0  0  0  0  0  0  0  0  0  0  0  0
    0.9206    0.5683    2.8541 H   0  0  0  0  0  0  0  0  0  0  0  0
   -0.7559    0.4782    2.0905 H   0  0  0  0  0  0  0  0  0  0  0  0
    1.9595    0.6515    0.6907 H   0  0  0  0  0  0  0  0  0  0  0  0
    0.4541    1.4533   -1.1266 H   0  0  0  0  0  0  0  0  0  0  0  0
   -1.7751    1.3240    0.0414 H   0  0  0  0  0  0  0  0  0  0  0  0
   -1.7834    0.4555   -1.4938 H   0  0  0  0  0  0  0  0  0  0  0  0
   -1.6722   -0.4378    0.0231 H   0  0  0  0  0  0  0  0  0  0  0  0
    0.1635   -1.9119   -1.4374 C   0  0  0  0  0  0  0  0  0  0  0  0
    0.1635   -0.6799   -1.0018 H   0  0  0  0  0  0  0  0  0  0  0  0
    1.0526   -2.4252   -1.0744 H   0  0  0  0  0  0  0  0  0  0  0  0
   -0.7256   -2.4252   -1.0744 H   0  0  0  0  0  0  0  0  0  0  0  0
    0.1635   -1.9119   -2.5263 H   0  0  0  0  0  0  0  0  0  0  0  0
  1  2  2  3
  1  5  1  0
  1  6  1  0
  2  3  1  0
  2  7  1  0
  3  4  1  0
  3  8  1  0
  4  9  1  0
  4 10  1  0
  4 11  1  0
 12 13  1  0
 12 14  1  0
 12 15  1  0
 12 16  1  0
M  RAD  1   3   2
M  END
>  <reaction>  (15) 
rxn_830

>  <mol_properties>  (15) 
{"1": {"label": "*0", "atom_type": "Cd"}, "2": {"label": "*1", "atom_type": "Cs"}, "11": {"label": "*3", "atom_type": "Cs"}, "12": {"label": "*2", "atom_type": "H0"}, "13": {"label": "*4", "atom_type": "H0"}}

>  <type>  (15) 
unop_11

>  <geom_source>  (15) 
Heuristics

$$$$

     RDKit          3D

 16 14  0  0  0  0  0  0  0  0999 V2000
    0.4732    1.8256   -0.9687 C   0  0  0  0  0  0  0  0  0  0  0  0
   -0.4149    0.8805   -0.7004 C   0  0  0  0  0  0  0  0  0  0  0  0
   -0.4149   -0.0340    0.4882 C   0  0  0  0  0  3  0  0  0  0  0  0
    0.7291    0.1616    1.4705 C   0  0  0  0  0  0  0  0  0  0  0  0
    0.3866    2.4376   -1.8576 H   0  0  0  0  0  0  0  0  0  0  0  0
    1.3165    2.0269   -0.3187 H   0  0  0  0  0  0  0  0  0  0  0  0
   -1.2377    0.7305   -1.3949 H   0  0  0  0  0  0  0  0  0  0  0  0
   -1.3718    0.0836    1.0083 H   0  0  0  0  0  0  0  0  0  0  0  0
    0.7247    1.1704    1.8879 H   0  0  0  0  0  0  0  0  0  0  0  0
    0.6478   -0.5433    2.2986 H   0  0  0  0  0  0  0  0  0  0  0  0
    1.6961    0.0025    0.9893 H   0  0  0  0  0  0  0  0  0  0  0  0
   -0.4149   -2.5055   -0.3856 C   0  0  0  0  0  0  0  0  0  0  0  0
   -0.4149   -1.2735    0.0500 H   0  0  0  0  0  0  0  0  0  0  0  0
    0.4743   -3.0188   -0.0226 H   0  0  0  0  0  0  0  0  0  0  0  0
   -1.3040   -3.0188   -0.0226 H   0  0  0  0  0  0  0  0  0  0  0  0
   -0.4149   -2.5055   -1.4745 H   0  0  0  0  0  0  0  0  0  0  0  0
  1  2  2  3
  1  5  1  0
  1  6  1  0
  2  3  1  0
  2  7  1  0
  3  4  1  0
  3  8  1  0
  4  9  1  0
  4 10  1  0
  4 11  1  0
 12 13  1  0
 12 14  1  0
 12 15  1  0
 12 16  1  0
M  RAD  1   3   2
M  END
>  <reaction>  (16) 
rxn_830

>  <mol_properties>  (16) 
{"1": {"label": "*0", "atom_type": "Cd"}, "2": {"label": "*1", "atom_type": "Cs"}, "11": {"label": "*3", "atom_type": "Cs"}, "12": {"label": "*2", "atom_type": "H0"}, "13": {"label": "*4", "atom_type": "H0"}}

>  <type>  (16) 
unop_12

>  <geom_source>  (16) 
Heuristics

$$$$

     RDKit          3D

 16 14  0  0  0  0  0  0  0  0999 V2000
   -0.0917    0.0748   -0.3422 C   0  0  0  0  0  3  0  0  0  0  0  0
   -0.4605    1.5405   -0.5436 C   0  0  0  0  0  0  0  0  0  0  0  0
   -1.0209   -0.5978    0.6282 C   0  0  0  0  0  0  0  0  0  0  0  0
   -2.2915   -0.8688    0.3154 C   0  0  0  0  0  0  0  0  0  0  0  0
    2.3904   -0.5429    0.2545 C   0  0  0  0  0  0  0  0  0  0  0  0
   -0.1094   -0.4585   -1.3174 H   0  0  0  0  0  0  0  0  0  0  0  0
    1.2818    0.0089    0.1950 H   0  0  0  0  0  0  0  0  0  0  0  0
   -1.4717    1.6314   -0.9941 H   0  0  0  0  0  0  0  0  0  0  0  0
    0.2761    2.0136   -1.2257 H   0  0  0  0  0  0  0  0  0  0  0  0
   -0.4394    2.0770    0.4288 H   0  0  0  0  0  0  0  0  0  0  0  0
   -0.6361   -0.8991    1.5973 H   0  0  0  0  0  0  0  0  0  0  0  0
   -2.9324   -1.3694    1.0338 H   0  0  0  0  0  0  0  0  0  0  0  0
   -2.6984   -0.5989   -0.6544 H   0  0  0  0  0  0  0  0  0  0  0  0
    2.7223   -0.3414   -0.7847 H   0  0  0  0  0  0  0  0  0  0  0  0
    3.0724   -0.0333    0.9659 H   0  0  0  0  0  0  0  0  0  0  0  0
    2.4089   -1.6360    0.4432 H   0  0  0  0  0  0  0  0  0  0  0  0
  1  2  1  0
  1  3  1  0
  1  6  1  0
  2  8  1  0
  2  9  1  0
  2 10  1  0
  3  4  2  3
  3 11  1  0
  4 12  1  0
  4 13  1  0
  5  7  1  0
  5 14  1  0
  5 15  1  0
  5 16  1  0
M  RAD  1   1   2
M  END
>  <reaction>  (17) 
rxn_830

>  <mol_properties>  (17) 
{"1": {"label": "*0", "atom_type": "Cd"}, "2": {"label": "*1", "atom_type": "Cs"}, "11": {"label": "*3", "atom_type": "Cs"}, "12": {"label": "*2", "atom_type": "H0"}, "13": {"label": "*4", "atom_type": "H0"}}

>  <type>  (17) 
unop_13

>  <geom_source>  (17) 
AutoTST

$$$$
