
     RDKit          3D

 15 14  0  0  0  0  0  0  0  0999 V2000
    2.1256    0.4849   -0.6284 C   0  0  0  0  0  0  0  0  0  0  0  0
    1.1128    0.2141    0.1794 C   0  0  0  0  0  0  0  0  0  0  0  0
   -0.3017   -0.0425   -0.2513 C   0  0  0  0  0  0  0  0  0  0  0  0
   -1.2427    1.0075    0.3423 C   0  0  0  0  0  0  0  0  0  0  0  0
   -0.7381   -1.4526    0.1504 C   0  0  0  0  0  0  0  0  0  0  0  0
    3.1243    0.6602   -0.2486 H   0  0  0  0  0  0  0  0  0  0  0  0
    1.9908    0.5411   -1.7036 H   0  0  0  0  0  0  0  0  0  0  0  0
    1.2888    0.1665    1.2533 H   0  0  0  0  0  0  0  0  0  0  0  0
   -0.3426    0.0343   -1.3424 H   0  0  0  0  0  0  0  0  0  0  0  0
   -0.9570    2.0133    0.0315 H   0  0  0  0  0  0  0  0  0  0  0  0
   -1.2189    0.9728    1.4350 H   0  0  0  0  0  0  0  0  0  0  0  0
   -2.2723    0.8287    0.0254 H   0  0  0  0  0  0  0  0  0  0  0  0
   -0.6964   -1.5744    1.2363 H   0  0  0  0  0  0  0  0  0  0  0  0
   -0.0911   -2.2079   -0.2978 H   0  0  0  0  0  0  0  0  0  0  0  0
   -1.7646   -1.6461   -0.1677 H   0  0  0  0  0  0  0  0  0  0  0  0
  1  2  2  3
  1  6  1  0
  1  7  1  0
  2  3  1  0
  2  8  1  0
  3  4  1  0
  3  5  1  0
  3  9  1  0
  4 10  1  0
  4 11  1  0
  4 12  1  0
  5 13  1  0
  5 14  1  0
  5 15  1  0
M  END
>  <reaction>  (1) 
rxn_105

>  <mol_properties>  (1) 
{"2": {"label": "donator", "atom_type": "Cs"}, "8": {"label": "d_hydrogen", "atom_type": "H0"}}

>  <type>  (1) 
r1h

$$$$

     RDKit          3D

  3  2  0  0  0  0  0  0  0  0999 V2000
    0.0002    0.4233    0.0000 N   0  0  0  0  0  2  0  0  0  0  0  0
   -0.8051   -0.2112    0.0000 H   0  0  0  0  0  0  0  0  0  0  0  0
    0.8049   -0.2121    0.0000 H   0  0  0  0  0  0  0  0  0  0  0  0
  1  2  1  0
  1  3  1  0
M  RAD  1   1   2
M  END
>  <reaction>  (2) 
rxn_105

>  <mol_properties>  (2) 
{"0": {"label": "acceptor", "atom_type": "N3s"}}

>  <type>  (2) 
r2

$$$$

     RDKit          3D

  4  3  0  0  0  0  0  0  0  0999 V2000
    0.0006   -0.0009    0.2762 N   0  0  0  0  0  0  0  0  0  0  0  0
   -0.4188    0.8439   -0.0883 H   0  0  0  0  0  0  0  0  0  0  0  0
   -0.5215   -0.7840   -0.0936 H   0  0  0  0  0  0  0  0  0  0  0  0
    0.9397   -0.0590   -0.0943 H   0  0  0  0  0  0  0  0  0  0  0  0
  1  2  1  0
  1  3  1  0
  1  4  1  0
M  END
>  <reaction>  (3) 
rxn_105

>  <mol_properties>  (3) 
{"0": {"label": "acceptor", "atom_type": "N3s"}, "3": {"label": "a_hydrogen", "atom_type": "H0"}}

>  <type>  (3) 
r2h

$$$$

     RDKit          3D

 18 16  0  0  0  0  0  0  0  0999 V2000
   -0.8563    2.3113   -0.6109 N   0  0  0  0  0  2  0  0  0  0  0  0
    0.0573    2.7644   -0.5308 H   0  0  0  0  0  0  0  0  0  0  0  0
   -0.8713    1.9620   -1.5726 H   0  0  0  0  0  0  0  0  0  0  0  0
   -0.0404   -1.8068   -1.2706 C   0  0  0  0  0  0  0  0  0  0  0  0
   -0.6921   -1.0177   -0.4236 C   0  0  0  0  0  0  0  0  0  0  0  0
   -0.1020    0.0175    0.4601 C   0  0  0  0  0  0  0  0  0  0  0  0
    1.4093    0.1098    0.4561 C   0  0  0  0  0  0  0  0  0  0  0  0
   -0.7011    0.0126    1.8571 C   0  0  0  0  0  0  0  0  0  0  0  0
   -0.5703   -2.5257   -1.8822 H   0  0  0  0  0  0  0  0  0  0  0  0
    1.0371   -1.7745   -1.3792 H   0  0  0  0  0  0  0  0  0  0  0  0
   -1.7739   -1.1084   -0.3589 H   0  0  0  0  0  0  0  0  0  0  0  0
   -0.5147    1.0706   -0.0002 H   0  0  0  0  0  0  0  0  0  0  0  0
    1.8029    0.2568   -0.5510 H   0  0  0  0  0  0  0  0  0  0  0  0
    1.8566   -0.8024    0.8624 H   0  0  0  0  0  0  0  0  0  0  0  0
    1.7410    0.9459    1.0740 H   0  0  0  0  0  0  0  0  0  0  0  0
   -0.3870   -0.8808    2.4055 H   0  0  0  0  0  0  0  0  0  0  0  0
   -1.7912    0.0213    1.8183 H   0  0  0  0  0  0  0  0  0  0  0  0
   -0.3769    0.8886    2.4211 H   0  0  0  0  0  0  0  0  0  0  0  0
  1  2  1  0
  1  3  1  0
  4  5  2  3
  4  9  1  0
  4 10  1  0
  5  6  1  0
  5 11  1  0
  6  7  1  0
  6  8  1  0
  6 12  1  0
  7 13  1  0
  7 14  1  0
  7 15  1  0
  8 16  1  0
  8 17  1  0
  8 18  1  0
M  RAD  1   1   2
M  END
>  <reaction>  (4) 
rxn_105

>  <mol_properties>  (4) 
{"0": {"label": "*3", "atom_type": "N3s"}, "1": {"label": "*4", "atom_type": "H0"}, "4": {"label": "*0", "atom_type": "Cd"}, "5": {"label": "*1", "atom_type": "Cs"}, "11": {"label": "*2", "atom_type": "H0"}}

>  <type>  (4) 
ts

$$$$

     RDKit          3D

 18 16  0  0  0  0  0  0  0  0999 V2000
    0.0029    2.0124   -1.0469 N   0  0  0  0  0  0  0  0  0  0  0  0
   -0.8322    2.5437   -0.8399 H   0  0  0  0  0  0  0  0  0  0  0  0
    0.5909    2.2759   -0.2676 H   0  0  0  0  0  0  0  0  0  0  0  0
    0.0029   -1.2414   -1.7409 C   0  0  0  0  0  0  0  0  0  0  0  0
    0.0029   -1.2414   -0.4174 C   0  0  0  0  0  0  0  0  0  0  0  0
    0.0029   -0.0200    0.4546 C   0  0  0  0  0  3  0  0  0  0  0  0
    1.2622    0.0204    1.3223 C   0  0  0  0  0  0  0  0  0  0  0  0
   -1.2564    0.0204    1.3223 C   0  0  0  0  0  0  0  0  0  0  0  0
    0.0029   -2.1631   -2.3092 H   0  0  0  0  0  0  0  0  0  0  0  0
    0.0029   -0.3149   -2.3055 H   0  0  0  0  0  0  0  0  0  0  0  0
    0.0029   -2.1927    0.1131 H   0  0  0  0  0  0  0  0  0  0  0  0
    0.0029    1.0364   -0.3258 H   0  0  0  0  0  0  0  0  0  0  0  0
    2.1637    0.0263    0.7081 H   0  0  0  0  0  0  0  0  0  0  0  0
    1.3068   -0.8534    1.9781 H   0  0  0  0  0  0  0  0  0  0  0  0
    1.2697    0.9116    1.9533 H   0  0  0  0  0  0  0  0  0  0  0  0
   -1.3010   -0.8534    1.9781 H   0  0  0  0  0  0  0  0  0  0  0  0
   -2.1580    0.0263    0.7081 H   0  0  0  0  0  0  0  0  0  0  0  0
   -1.2639    0.9116    1.9533 H   0  0  0  0  0  0  0  0  0  0  0  0
  1  2  1  0
  1  3  1  0
  1 12  1  0
  4  5  2  3
  4  9  1  0
  4 10  1  0
  5  6  1  0
  5 11  1  0
  6  7  1  0
  6  8  1  0
  7 13  1  0
  7 14  1  0
  7 15  1  0
  8 16  1  0
  8 17  1  0
  8 18  1  0
M  RAD  1   6   2
M  END
>  <reaction>  (5) 
rxn_105

>  <mol_properties>  (5) 
{"0": {"label": "*3", "atom_type": "N3s"}, "1": {"label": "*4", "atom_type": "H0"}, "4": {"label": "*0", "atom_type": "Cd"}, "5": {"label": "*1", "atom_type": "Cs"}, "11": {"label": "*2", "atom_type": "H0"}}

>  <type>  (5) 
unop_1

>  <geom_source>  (5) 
Heuristics

$$$$

     RDKit          3D

 18 16  0  0  0  0  0  0  0  0999 V2000
    0.0121    2.0216   -1.0348 N   0  0  0  0  0  0  0  0  0  0  0  0
   -0.4701    1.7702   -1.8874 H   0  0  0  0  0  0  0  0  0  0  0  0
   -0.5352    2.2835   -0.2258 H   0  0  0  0  0  0  0  0  0  0  0  0
    0.0120   -1.2322   -1.7289 C   0  0  0  0  0  0  0  0  0  0  0  0
    0.0120   -1.2322   -0.4054 C   0  0  0  0  0  0  0  0  0  0  0  0
    0.0120   -0.0108    0.4666 C   0  0  0  0  0  3  0  0  0  0  0  0
    1.2714    0.0296    1.3343 C   0  0  0  0  0  0  0  0  0  0  0  0
   -1.2473    0.0296    1.3343 C   0  0  0  0  0  0  0  0  0  0  0  0
    0.0121   -2.1539   -2.2971 H   0  0  0  0  0  0  0  0  0  0  0  0
    0.0121   -0.3057   -2.2934 H   0  0  0  0  0  0  0  0  0  0  0  0
    0.0120   -2.1835    0.1252 H   0  0  0  0  0  0  0  0  0  0  0  0
    0.0121    1.0456   -0.3138 H   0  0  0  0  0  0  0  0  0  0  0  0
    2.1729    0.0355    0.7201 H   0  0  0  0  0  0  0  0  0  0  0  0
    1.3159   -0.8442    1.9901 H   0  0  0  0  0  0  0  0  0  0  0  0
    1.2789    0.9208    1.9653 H   0  0  0  0  0  0  0  0  0  0  0  0
   -1.2918   -0.8442    1.9901 H   0  0  0  0  0  0  0  0  0  0  0  0
   -2.1488    0.0355    0.7201 H   0  0  0  0  0  0  0  0  0  0  0  0
   -1.2548    0.9208    1.9653 H   0  0  0  0  0  0  0  0  0  0  0  0
  1  2  1  0
  1  3  1  0
  1 12  1  0
  4  5  2  3
  4  9  1  0
  4 10  1  0
  5  6  1  0
  5 11  1  0
  6  7  1  0
  6  8  1  0
  7 13  1  0
  7 14  1  0
  7 15  1  0
  8 16  1  0
  8 17  1  0
  8 18  1  0
M  RAD  1   6   2
M  END
>  <reaction>  (6) 
rxn_105

>  <mol_properties>  (6) 
{"0": {"label": "*3", "atom_type": "N3s"}, "1": {"label": "*4", "atom_type": "H0"}, "4": {"label": "*0", "atom_type": "Cd"}, "5": {"label": "*1", "atom_type": "Cs"}, "11": {"label": "*2", "atom_type": "H0"}}

>  <type>  (6) 
unop_2

>  <geom_source>  (6) 
Heuristics

$$$$

     RDKit          3D

 18 16  0  0  0  0  0  0  0  0999 V2000
   -0.0049    2.0097   -1.0454 N   0  0  0  0  0  0  0  0  0  0  0  0
   -0.4870    2.7507   -0.5546 H   0  0  0  0  0  0  0  0  0  0  0  0
    0.8929    2.2950   -0.6778 H   0  0  0  0  0  0  0  0  0  0  0  0
   -0.0049   -1.2441   -1.7394 C   0  0  0  0  0  0  0  0  0  0  0  0
   -0.0049   -1.2441   -0.4159 C   0  0  0  0  0  0  0  0  0  0  0  0
   -0.0049   -0.0227    0.4561 C   0  0  0  0  0  3  0  0  0  0  0  0
    1.2544    0.0177    1.3238 C   0  0  0  0  0  0  0  0  0  0  0  0
   -1.2642    0.0177    1.3238 C   0  0  0  0  0  0  0  0  0  0  0  0
   -0.0049   -2.1658   -2.3077 H   0  0  0  0  0  0  0  0  0  0  0  0
   -0.0049   -0.3176   -2.3040 H   0  0  0  0  0  0  0  0  0  0  0  0
   -0.0049   -2.1954    0.1146 H   0  0  0  0  0  0  0  0  0  0  0  0
   -0.0049    1.0337   -0.3243 H   0  0  0  0  0  0  0  0  0  0  0  0
    2.1560    0.0236    0.7096 H   0  0  0  0  0  0  0  0  0  0  0  0
    1.2990   -0.8561    1.9796 H   0  0  0  0  0  0  0  0  0  0  0  0
    1.2620    0.9089    1.9547 H   0  0  0  0  0  0  0  0  0  0  0  0
   -1.3088   -0.8561    1.9796 H   0  0  0  0  0  0  0  0  0  0  0  0
   -2.1657    0.0236    0.7096 H   0  0  0  0  0  0  0  0  0  0  0  0
   -1.2717    0.9089    1.9547 H   0  0  0  0  0  0  0  0  0  0  0  0
  1  2  1  0
  1  3  1  0
  1 12  1  0
  4  5  2  3
  4  9  1  0
  4 10  1  0
  5  6  1  0
  5 11  1  0
  6  7  1  0
  6  8  1  0
  7 13  1  0
  7 14  1  0
  7 15  1  0
  8 16  1  0
  8 17  1  0
  8 18  1  0
M  RAD  1   6   2
M  END
>  <reaction>  (7) 
rxn_105

>  <mol_properties>  (7) 
{"0": {"label": "*3", "atom_type": "N3s"}, "1": {"label": "*4", "atom_type": "H0"}, "4": {"label": "*0", "atom_type": "Cd"}, "5": {"label": "*1", "atom_type": "Cs"}, "11": {"label": "*2", "atom_type": "H0"}}

>  <type>  (7) 
unop_3

>  <geom_source>  (7) 
Heuristics

$$$$

     RDKit          3D

 18 16  0  0  0  0  0  0  0  0999 V2000
   -0.0000    2.0183   -1.0232 N   0  0  0  0  0  0  0  0  0  0  0  0
    0.8351    1.9767   -1.5918 H   0  0  0  0  0  0  0  0  0  0  0  0
   -0.8320    2.3481   -1.4940 H   0  0  0  0  0  0  0  0  0  0  0  0
   -0.0000   -1.2355   -1.7172 C   0  0  0  0  0  0  0  0  0  0  0  0
   -0.0000   -1.2355   -0.3937 C   0  0  0  0  0  0  0  0  0  0  0  0
   -0.0000   -0.0141    0.4783 C   0  0  0  0  0  3  0  0  0  0  0  0
    1.2593    0.0263    1.3460 C   0  0  0  0  0  0  0  0  0  0  0  0
   -1.2593    0.0263    1.3460 C   0  0  0  0  0  0  0  0  0  0  0  0
   -0.0000   -2.1572   -2.2855 H   0  0  0  0  0  0  0  0  0  0  0  0
   -0.0000   -0.3089   -2.2818 H   0  0  0  0  0  0  0  0  0  0  0  0
   -0.0000   -2.1868    0.1368 H   0  0  0  0  0  0  0  0  0  0  0  0
   -0.0000    1.0423   -0.3021 H   0  0  0  0  0  0  0  0  0  0  0  0
    2.1608    0.0322    0.7318 H   0  0  0  0  0  0  0  0  0  0  0  0
    1.3038   -0.8475    2.0018 H   0  0  0  0  0  0  0  0  0  0  0  0
    1.2668    0.9175    1.9770 H   0  0  0  0  0  0  0  0  0  0  0  0
   -1.3039   -0.8475    2.0018 H   0  0  0  0  0  0  0  0  0  0  0  0
   -2.1609    0.0322    0.7318 H   0  0  0  0  0  0  0  0  0  0  0  0
   -1.2669    0.9175    1.9770 H   0  0  0  0  0  0  0  0  0  0  0  0
  1  2  1  0
  1  3  1  0
  1 12  1  0
  4  5  2  3
  4  9  1  0
  4 10  1  0
  5  6  1  0
  5 11  1  0
  6  7  1  0
  6  8  1  0
  7 13  1  0
  7 14  1  0
  7 15  1  0
  8 16  1  0
  8 17  1  0
  8 18  1  0
M  RAD  1   6   2
M  END
>  <reaction>  (8) 
rxn_105

>  <mol_properties>  (8) 
{"0": {"label": "*3", "atom_type": "N3s"}, "1": {"label": "*4", "atom_type": "H0"}, "4": {"label": "*0", "atom_type": "Cd"}, "5": {"label": "*1", "atom_type": "Cs"}, "11": {"label": "*2", "atom_type": "H0"}}

>  <type>  (8) 
unop_4

>  <geom_source>  (8) 
Heuristics

$$$$

     RDKit          3D

 18 16  0  0  0  0  0  0  0  0999 V2000
   -0.0102    2.0083   -1.0376 N   0  0  0  0  0  0  0  0  0  0  0  0
   -0.0102    2.8261   -0.4429 H   0  0  0  0  0  0  0  0  0  0  0  0
    0.8601    2.3343   -1.4362 H   0  0  0  0  0  0  0  0  0  0  0  0
   -0.0102   -1.2455   -1.7317 C   0  0  0  0  0  0  0  0  0  0  0  0
   -0.0102   -1.2455   -0.4082 C   0  0  0  0  0  0  0  0  0  0  0  0
   -0.0102   -0.0241    0.4638 C   0  0  0  0  0  3  0  0  0  0  0  0
    1.2491    0.0163    1.3315 C   0  0  0  0  0  0  0  0  0  0  0  0
   -1.2695    0.0163    1.3315 C   0  0  0  0  0  0  0  0  0  0  0  0
   -0.0102   -2.1672   -2.3000 H   0  0  0  0  0  0  0  0  0  0  0  0
   -0.0102   -0.3189   -2.2963 H   0  0  0  0  0  0  0  0  0  0  0  0
   -0.0102   -2.1968    0.1224 H   0  0  0  0  0  0  0  0  0  0  0  0
   -0.0102    1.0323   -0.3166 H   0  0  0  0  0  0  0  0  0  0  0  0
    2.1507    0.0222    0.7173 H   0  0  0  0  0  0  0  0  0  0  0  0
    1.2937   -0.8575    1.9873 H   0  0  0  0  0  0  0  0  0  0  0  0
    1.2566    0.9075    1.9625 H   0  0  0  0  0  0  0  0  0  0  0  0
   -1.3141   -0.8575    1.9873 H   0  0  0  0  0  0  0  0  0  0  0  0
   -2.1710    0.0222    0.7173 H   0  0  0  0  0  0  0  0  0  0  0  0
   -1.2770    0.9075    1.9625 H   0  0  0  0  0  0  0  0  0  0  0  0
  1  2  1  0
  1  3  1  0
  1 12  1  0
  4  5  2  3
  4  9  1  0
  4 10  1  0
  5  6  1  0
  5 11  1  0
  6  7  1  0
  6  8  1  0
  7 13  1  0
  7 14  1  0
  7 15  1  0
  8 16  1  0
  8 17  1  0
  8 18  1  0
M  RAD  1   6   2
M  END
>  <reaction>  (9) 
rxn_105

>  <mol_properties>  (9) 
{"0": {"label": "*3", "atom_type": "N3s"}, "1": {"label": "*4", "atom_type": "H0"}, "4": {"label": "*0", "atom_type": "Cd"}, "5": {"label": "*1", "atom_type": "Cs"}, "11": {"label": "*2", "atom_type": "H0"}}

>  <type>  (9) 
unop_5

>  <geom_source>  (9) 
Heuristics

$$$$

     RDKit          3D

 18 16  0  0  0  0  0  0  0  0999 V2000
   -0.0045    2.0148   -1.0244 N   0  0  0  0  0  0  0  0  0  0  0  0
    0.9598    2.2596   -1.2053 H   0  0  0  0  0  0  0  0  0  0  0  0
   -0.5830    2.3596   -1.7787 H   0  0  0  0  0  0  0  0  0  0  0  0
   -0.0045   -1.2390   -1.7184 C   0  0  0  0  0  0  0  0  0  0  0  0
   -0.0045   -1.2390   -0.3949 C   0  0  0  0  0  0  0  0  0  0  0  0
   -0.0045   -0.0176    0.4771 C   0  0  0  0  0  3  0  0  0  0  0  0
    1.2548    0.0228    1.3448 C   0  0  0  0  0  0  0  0  0  0  0  0
   -1.2638    0.0228    1.3448 C   0  0  0  0  0  0  0  0  0  0  0  0
   -0.0045   -2.1607   -2.2867 H   0  0  0  0  0  0  0  0  0  0  0  0
   -0.0045   -0.3125   -2.2830 H   0  0  0  0  0  0  0  0  0  0  0  0
   -0.0045   -2.1903    0.1356 H   0  0  0  0  0  0  0  0  0  0  0  0
   -0.0045    1.0388   -0.3033 H   0  0  0  0  0  0  0  0  0  0  0  0
    2.1563    0.0287    0.7306 H   0  0  0  0  0  0  0  0  0  0  0  0
    1.2994   -0.8510    2.0006 H   0  0  0  0  0  0  0  0  0  0  0  0
    1.2623    0.9140    1.9757 H   0  0  0  0  0  0  0  0  0  0  0  0
   -1.3084   -0.8510    2.0006 H   0  0  0  0  0  0  0  0  0  0  0  0
   -2.1654    0.0287    0.7306 H   0  0  0  0  0  0  0  0  0  0  0  0
   -1.2714    0.9140    1.9757 H   0  0  0  0  0  0  0  0  0  0  0  0
  1  2  1  0
  1  3  1  0
  1 12  1  0
  4  5  2  3
  4  9  1  0
  4 10  1  0
  5  6  1  0
  5 11  1  0
  6  7  1  0
  6  8  1  0
  7 13  1  0
  7 14  1  0
  7 15  1  0
  8 16  1  0
  8 17  1  0
  8 18  1  0
M  RAD  1   6   2
M  END
>  <reaction>  (10) 
rxn_105

>  <mol_properties>  (10) 
{"0": {"label": "*3", "atom_type": "N3s"}, "1": {"label": "*4", "atom_type": "H0"}, "4": {"label": "*0", "atom_type": "Cd"}, "5": {"label": "*1", "atom_type": "Cs"}, "11": {"label": "*2", "atom_type": "H0"}}

>  <type>  (10) 
unop_6

>  <geom_source>  (10) 
Heuristics

$$$$

     RDKit          3D

 18 16  0  0  0  0  0  0  0  0999 V2000
   -0.0071    2.0113   -1.0270 N   0  0  0  0  0  0  0  0  0  0  0  0
    0.8280    2.5427   -0.8201 H   0  0  0  0  0  0  0  0  0  0  0  0
   -0.2314    2.3650   -1.9474 H   0  0  0  0  0  0  0  0  0  0  0  0
   -0.0072   -1.2425   -1.7210 C   0  0  0  0  0  0  0  0  0  0  0  0
   -0.0072   -1.2425   -0.3975 C   0  0  0  0  0  0  0  0  0  0  0  0
   -0.0072   -0.0211    0.4745 C   0  0  0  0  0  3  0  0  0  0  0  0
    1.2522    0.0194    1.3422 C   0  0  0  0  0  0  0  0  0  0  0  0
   -1.2665    0.0194    1.3422 C   0  0  0  0  0  0  0  0  0  0  0  0
   -0.0072   -2.1642   -2.2893 H   0  0  0  0  0  0  0  0  0  0  0  0
   -0.0072   -0.3159   -2.2856 H   0  0  0  0  0  0  0  0  0  0  0  0
   -0.0072   -2.1938    0.1330 H   0  0  0  0  0  0  0  0  0  0  0  0
   -0.0072    1.0353   -0.3059 H   0  0  0  0  0  0  0  0  0  0  0  0
    2.1537    0.0252    0.7280 H   0  0  0  0  0  0  0  0  0  0  0  0
    1.2967   -0.8545    1.9980 H   0  0  0  0  0  0  0  0  0  0  0  0
    1.2597    0.9106    1.9731 H   0  0  0  0  0  0  0  0  0  0  0  0
   -1.3110   -0.8545    1.9980 H   0  0  0  0  0  0  0  0  0  0  0  0
   -2.1680    0.0252    0.7280 H   0  0  0  0  0  0  0  0  0  0  0  0
   -1.2740    0.9106    1.9731 H   0  0  0  0  0  0  0  0  0  0  0  0
  1  2  1  0
  1  3  1  0
  1 12  1  0
  4  5  2  3
  4  9  1  0
  4 10  1  0
  5  6  1  0
  5 11  1  0
  6  7  1  0
  6  8  1  0
  7 13  1  0
  7 14  1  0
  7 15  1  0
  8 16  1  0
  8 17  1  0
  8 18  1  0
M  RAD  1   6   2
M  END
>  <reaction>  (11) 
rxn_105

>  <mol_properties>  (11) 
{"0": {"label": "*3", "atom_type": "N3s"}, "1": {"label": "*4", "atom_type": "H0"}, "4": {"label": "*0", "atom_type": "Cd"}, "5": {"label": "*1", "atom_type": "Cs"}, "11": {"label": "*2", "atom_type": "H0"}}

>  <type>  (11) 
unop_7

>  <geom_source>  (11) 
Heuristics

$$$$

     RDKit          3D

 18 16  0  0  0  0  0  0  0  0999 V2000
    0.0085    2.0158   -1.0443 N   0  0  0  0  0  0  0  0  0  0  0  0
   -0.9558    2.2607   -1.2252 H   0  0  0  0  0  0  0  0  0  0  0  0
    0.2444    2.2703   -0.0945 H   0  0  0  0  0  0  0  0  0  0  0  0
    0.0085   -1.2380   -1.7384 C   0  0  0  0  0  0  0  0  0  0  0  0
    0.0085   -1.2380   -0.4149 C   0  0  0  0  0  0  0  0  0  0  0  0
    0.0085   -0.0166    0.4571 C   0  0  0  0  0  3  0  0  0  0  0  0
    1.2678    0.0239    1.3248 C   0  0  0  0  0  0  0  0  0  0  0  0
   -1.2508    0.0239    1.3248 C   0  0  0  0  0  0  0  0  0  0  0  0
    0.0085   -2.1597   -2.3067 H   0  0  0  0  0  0  0  0  0  0  0  0
    0.0085   -0.3114   -2.3030 H   0  0  0  0  0  0  0  0  0  0  0  0
    0.0085   -2.1893    0.1156 H   0  0  0  0  0  0  0  0  0  0  0  0
    0.0085    1.0398   -0.3233 H   0  0  0  0  0  0  0  0  0  0  0  0
    2.1694    0.0298    0.7106 H   0  0  0  0  0  0  0  0  0  0  0  0
    1.3124   -0.8500    1.9806 H   0  0  0  0  0  0  0  0  0  0  0  0
    1.2754    0.9151    1.9558 H   0  0  0  0  0  0  0  0  0  0  0  0
   -1.2954   -0.8500    1.9806 H   0  0  0  0  0  0  0  0  0  0  0  0
   -2.1523    0.0298    0.7106 H   0  0  0  0  0  0  0  0  0  0  0  0
   -1.2583    0.9151    1.9558 H   0  0  0  0  0  0  0  0  0  0  0  0
  1  2  1  0
  1  3  1  0
  1 12  1  0
  4  5  2  3
  4  9  1  0
  4 10  1  0
  5  6  1  0
  5 11  1  0
  6  7  1  0
  6  8  1  0
  7 13  1  0
  7 14  1  0
  7 15  1  0
  8 16  1  0
  8 17  1  0
  8 18  1  0
M  RAD  1   6   2
M  END
>  <reaction>  (12) 
rxn_105

>  <mol_properties>  (12) 
{"0": {"label": "*3", "atom_type": "N3s"}, "1": {"label": "*4", "atom_type": "H0"}, "4": {"label": "*0", "atom_type": "Cd"}, "5": {"label": "*1", "atom_type": "Cs"}, "11": {"label": "*2", "atom_type": "H0"}}

>  <type>  (12) 
unop_8

>  <geom_source>  (12) 
Heuristics

$$$$

     RDKit          3D

 18 16  0  0  0  0  0  0  0  0999 V2000
    0.0056    2.0210   -1.0247 N   0  0  0  0  0  0  0  0  0  0  0  0
    0.4878    1.7696   -1.8773 H   0  0  0  0  0  0  0  0  0  0  0  0
   -0.9559    2.3289   -1.0825 H   0  0  0  0  0  0  0  0  0  0  0  0
    0.0056   -1.2328   -1.7187 C   0  0  0  0  0  0  0  0  0  0  0  0
    0.0056   -1.2328   -0.3952 C   0  0  0  0  0  0  0  0  0  0  0  0
    0.0056   -0.0114    0.4768 C   0  0  0  0  0  3  0  0  0  0  0  0
    1.2649    0.0290    1.3445 C   0  0  0  0  0  0  0  0  0  0  0  0
   -1.2537    0.0291    1.3445 C   0  0  0  0  0  0  0  0  0  0  0  0
    0.0056   -2.1545   -2.2870 H   0  0  0  0  0  0  0  0  0  0  0  0
    0.0056   -0.3062   -2.2833 H   0  0  0  0  0  0  0  0  0  0  0  0
    0.0056   -2.1841    0.1353 H   0  0  0  0  0  0  0  0  0  0  0  0
    0.0056    1.0450   -0.3036 H   0  0  0  0  0  0  0  0  0  0  0  0
    2.1665    0.0349    0.7303 H   0  0  0  0  0  0  0  0  0  0  0  0
    1.3095   -0.8448    2.0003 H   0  0  0  0  0  0  0  0  0  0  0  0
    1.2724    0.9203    1.9755 H   0  0  0  0  0  0  0  0  0  0  0  0
   -1.2983   -0.8448    2.0003 H   0  0  0  0  0  0  0  0  0  0  0  0
   -2.1552    0.0349    0.7303 H   0  0  0  0  0  0  0  0  0  0  0  0
   -1.2612    0.9203    1.9755 H   0  0  0  0  0  0  0  0  0  0  0  0
  1  2  1  0
  1  3  1  0
  1 12  1  0
  4  5  2  3
  4  9  1  0
  4 10  1  0
  5  6  1  0
  5 11  1  0
  6  7  1  0
  6  8  1  0
  7 13  1  0
  7 14  1  0
  7 15  1  0
  8 16  1  0
  8 17  1  0
  8 18  1  0
M  RAD  1   6   2
M  END
>  <reaction>  (13) 
rxn_105

>  <mol_properties>  (13) 
{"0": {"label": "*3", "atom_type": "N3s"}, "1": {"label": "*4", "atom_type": "H0"}, "4": {"label": "*0", "atom_type": "Cd"}, "5": {"label": "*1", "atom_type": "Cs"}, "11": {"label": "*2", "atom_type": "H0"}}

>  <type>  (13) 
unop_9

>  <geom_source>  (13) 
Heuristics

$$$$

     RDKit          3D

 18 16  0  0  0  0  0  0  0  0999 V2000
    0.0115    2.0192   -1.0400 N   0  0  0  0  0  0  0  0  0  0  0  0
   -0.8237    1.9775   -1.6087 H   0  0  0  0  0  0  0  0  0  0  0  0
   -0.1328    2.2727   -0.0718 H   0  0  0  0  0  0  0  0  0  0  0  0
    0.0115   -1.2346   -1.7341 C   0  0  0  0  0  0  0  0  0  0  0  0
    0.0115   -1.2346   -0.4106 C   0  0  0  0  0  0  0  0  0  0  0  0
    0.0115   -0.0132    0.4615 C   0  0  0  0  0  3  0  0  0  0  0  0
    1.2708    0.0272    1.3291 C   0  0  0  0  0  0  0  0  0  0  0  0
   -1.2478    0.0272    1.3291 C   0  0  0  0  0  0  0  0  0  0  0  0
    0.0115   -2.1563   -2.3023 H   0  0  0  0  0  0  0  0  0  0  0  0
    0.0115   -0.3080   -2.2986 H   0  0  0  0  0  0  0  0  0  0  0  0
    0.0115   -2.1859    0.1200 H   0  0  0  0  0  0  0  0  0  0  0  0
    0.0115    1.0432   -0.3190 H   0  0  0  0  0  0  0  0  0  0  0  0
    2.1723    0.0331    0.7150 H   0  0  0  0  0  0  0  0  0  0  0  0
    1.3154   -0.8466    1.9849 H   0  0  0  0  0  0  0  0  0  0  0  0
    1.2783    0.9184    1.9601 H   0  0  0  0  0  0  0  0  0  0  0  0
   -1.2924   -0.8466    1.9849 H   0  0  0  0  0  0  0  0  0  0  0  0
   -2.1494    0.0331    0.7150 H   0  0  0  0  0  0  0  0  0  0  0  0
   -1.2554    0.9184    1.9601 H   0  0  0  0  0  0  0  0  0  0  0  0
  1  2  1  0
  1  3  1  0
  1 12  1  0
  4  5  2  3
  4  9  1  0
  4 10  1  0
  5  6  1  0
  5 11  1  0
  6  7  1  0
  6  8  1  0
  7 13  1  0
  7 14  1  0
  7 15  1  0
  8 16  1  0
  8 17  1  0
  8 18  1  0
M  RAD  1   6   2
M  END
>  <reaction>  (14) 
rxn_105

>  <mol_properties>  (14) 
{"0": {"label": "*3", "atom_type": "N3s"}, "1": {"label": "*4", "atom_type": "H0"}, "4": {"label": "*0", "atom_type": "Cd"}, "5": {"label": "*1", "atom_type": "Cs"}, "11": {"label": "*2", "atom_type": "H0"}}

>  <type>  (14) 
unop_10

>  <geom_source>  (14) 
Heuristics

$$$$

     RDKit          3D

 18 16  0  0  0  0  0  0  0  0999 V2000
   -0.0090    2.0089   -1.0305 N   0  0  0  0  0  0  0  0  0  0  0  0
    0.4731    2.7500   -0.5397 H   0  0  0  0  0  0  0  0  0  0  0  0
    0.2821    2.3615   -1.9324 H   0  0  0  0  0  0  0  0  0  0  0  0
   -0.0091   -1.2449   -1.7246 C   0  0  0  0  0  0  0  0  0  0  0  0
   -0.0091   -1.2449   -0.4011 C   0  0  0  0  0  0  0  0  0  0  0  0
   -0.0091   -0.0235    0.4710 C   0  0  0  0  0  3  0  0  0  0  0  0
    1.2503    0.0169    1.3386 C   0  0  0  0  0  0  0  0  0  0  0  0
   -1.2684    0.0169    1.3386 C   0  0  0  0  0  0  0  0  0  0  0  0
   -0.0091   -2.1666   -2.2928 H   0  0  0  0  0  0  0  0  0  0  0  0
   -0.0091   -0.3184   -2.2891 H   0  0  0  0  0  0  0  0  0  0  0  0
   -0.0091   -2.1962    0.1295 H   0  0  0  0  0  0  0  0  0  0  0  0
   -0.0091    1.0329   -0.3095 H   0  0  0  0  0  0  0  0  0  0  0  0
    2.1518    0.0228    0.7244 H   0  0  0  0  0  0  0  0  0  0  0  0
    1.2948   -0.8569    1.9944 H   0  0  0  0  0  0  0  0  0  0  0  0
    1.2578    0.9081    1.9696 H   0  0  0  0  0  0  0  0  0  0  0  0
   -1.3129   -0.8569    1.9944 H   0  0  0  0  0  0  0  0  0  0  0  0
   -2.1699    0.0228    0.7244 H   0  0  0  0  0  0  0  0  0  0  0  0
   -1.2759    0.9081    1.9696 H   0  0  0  0  0  0  0  0  0  0  0  0
  1  2  1  0
  1  3  1  0
  1 12  1  0
  4  5  2  3
  4  9  1  0
  4 10  1  0
  5  6  1  0
  5 11  1  0
  6  7  1  0
  6  8  1  0
  7 13  1  0
  7 14  1  0
  7 15  1  0
  8 16  1  0
  8 17  1  0
  8 18  1  0
M  RAD  1   6   2
M  END
>  <reaction>  (15) 
rxn_105

>  <mol_properties>  (15) 
{"0": {"label": "*3", "atom_type": "N3s"}, "1": {"label": "*4", "atom_type": "H0"}, "4": {"label": "*0", "atom_type": "Cd"}, "5": {"label": "*1", "atom_type": "Cs"}, "11": {"label": "*2", "atom_type": "H0"}}

>  <type>  (15) 
unop_11

>  <geom_source>  (15) 
Heuristics

$$$$

     RDKit          3D

 18 16  0  0  0  0  0  0  0  0999 V2000
    0.0102    2.0222   -1.0292 N   0  0  0  0  0  0  0  0  0  0  0  0
    0.0102    1.6941   -1.9857 H   0  0  0  0  0  0  0  0  0  0  0  0
   -0.8601    2.3042   -0.5983 H   0  0  0  0  0  0  0  0  0  0  0  0
    0.0102   -1.2316   -1.7232 C   0  0  0  0  0  0  0  0  0  0  0  0
    0.0102   -1.2316   -0.3997 C   0  0  0  0  0  0  0  0  0  0  0  0
    0.0102   -0.0102    0.4723 C   0  0  0  0  0  3  0  0  0  0  0  0
    1.2695    0.0303    1.3400 C   0  0  0  0  0  0  0  0  0  0  0  0
   -1.2491    0.0303    1.3400 C   0  0  0  0  0  0  0  0  0  0  0  0
    0.0102   -2.1533   -2.2915 H   0  0  0  0  0  0  0  0  0  0  0  0
    0.0102   -0.3050   -2.2878 H   0  0  0  0  0  0  0  0  0  0  0  0
    0.0102   -2.1829    0.1308 H   0  0  0  0  0  0  0  0  0  0  0  0
    0.0102    1.0462   -0.3081 H   0  0  0  0  0  0  0  0  0  0  0  0
    2.1710    0.0361    0.7258 H   0  0  0  0  0  0  0  0  0  0  0  0
    1.3141   -0.8436    1.9958 H   0  0  0  0  0  0  0  0  0  0  0  0
    1.2770    0.9215    1.9709 H   0  0  0  0  0  0  0  0  0  0  0  0
   -1.2937   -0.8436    1.9958 H   0  0  0  0  0  0  0  0  0  0  0  0
   -2.1507    0.0361    0.7258 H   0  0  0  0  0  0  0  0  0  0  0  0
   -1.2567    0.9215    1.9710 H   0  0  0  0  0  0  0  0  0  0  0  0
  1  2  1  0
  1  3  1  0
  1 12  1  0
  4  5  2  3
  4  9  1  0
  4 10  1  0
  5  6  1  0
  5 11  1  0
  6  7  1  0
  6  8  1  0
  7 13  1  0
  7 14  1  0
  7 15  1  0
  8 16  1  0
  8 17  1  0
  8 18  1  0
M  RAD  1   6   2
M  END
>  <reaction>  (16) 
rxn_105

>  <mol_properties>  (16) 
{"0": {"label": "*3", "atom_type": "N3s"}, "1": {"label": "*4", "atom_type": "H0"}, "4": {"label": "*0", "atom_type": "Cd"}, "5": {"label": "*1", "atom_type": "Cs"}, "11": {"label": "*2", "atom_type": "H0"}}

>  <type>  (16) 
unop_12

>  <geom_source>  (16) 
Heuristics

$$$$
