
     RDKit          3D

  5  4  0  0  0  0  0  0  0  0999 V2000
    0.0000    0.0000    0.0000 C   0  0  0  0  0  0  0  0  0  0  0  0
   -0.6486   -0.7720   -0.4113 H   0  0  0  0  0  0  0  0  0  0  0  0
   -0.3482    0.9787   -0.3267 H   0  0  0  0  0  0  0  0  0  0  0  0
   -0.0223   -0.0487    1.0876 H   0  0  0  0  0  0  0  0  0  0  0  0
    1.0191   -0.1580   -0.3496 H   0  0  0  0  0  0  0  0  0  0  0  0
  1  2  1  0
  1  3  1  0
  1  4  1  0
  1  5  1  0
M  END
>  <reaction>  (1) 
rxn_833

>  <mol_properties>  (1) 
{"0": {"label": "donator", "atom_type": "Cs"}, "1": {"label": "d_hydrogen", "atom_type": "H0"}}

>  <type>  (1) 
r1h

$$$$

     RDKit          3D

 15 14  0  0  0  0  0  0  0  0999 V2000
    2.4381    0.5770   -0.2356 C   0  0  0  0  0  0  0  0  0  0  0  0
    1.4430   -0.3367   -0.1409 C   0  0  0  0  0  0  0  0  0  0  0  0
    0.0521   -0.0957   -0.0045 C   0  0  0  0  0  3  0  0  0  0  0  0
   -0.5167    1.2867    0.0548 C   0  0  0  0  0  0  0  0  0  0  0  0
   -0.8226   -1.2147    0.0778 C   0  0  0  0  0  0  0  0  0  0  0  0
   -2.1666   -1.1669    0.2092 C   0  0  0  0  0  0  0  0  0  0  0  0
    3.4666    0.2585   -0.3369 H   0  0  0  0  0  0  0  0  0  0  0  0
    2.2594    1.6438   -0.2152 H   0  0  0  0  0  0  0  0  0  0  0  0
    1.7306   -1.3845   -0.1719 H   0  0  0  0  0  0  0  0  0  0  0  0
   -1.2300    1.4469   -0.7583 H   0  0  0  0  0  0  0  0  0  0  0  0
    0.2481    2.0557   -0.0178 H   0  0  0  0  0  0  0  0  0  0  0  0
   -1.0592    1.4421    0.9914 H   0  0  0  0  0  0  0  0  0  0  0  0
   -0.3519   -2.1929    0.0292 H   0  0  0  0  0  0  0  0  0  0  0  0
   -2.7080   -0.2310    0.2646 H   0  0  0  0  0  0  0  0  0  0  0  0
   -2.7513   -2.0751    0.2638 H   0  0  0  0  0  0  0  0  0  0  0  0
  1  2  2  3
  1  7  1  0
  1  8  1  0
  2  3  1  0
  2  9  1  0
  3  4  1  0
  3  5  1  0
  4 10  1  0
  4 11  1  0
  4 12  1  0
  5  6  2  3
  5 13  1  0
  6 14  1  0
  6 15  1  0
M  RAD  1   3   2
M  END
>  <reaction>  (2) 
rxn_833

>  <mol_properties>  (2) 
{"2": {"label": "acceptor", "atom_type": "Cs"}}

>  <type>  (2) 
r2

$$$$

     RDKit          3D

 16 15  0  0  0  0  0  0  0  0999 V2000
    1.7961   -0.3807    1.6176 C   0  0  0  0  0  0  0  0  0  0  0  0
    0.8562   -0.8708    0.8256 C   0  0  0  0  0  0  0  0  0  0  0  0
    0.0895   -0.0826   -0.2048 C   0  0  0  0  0  0  0  0  0  0  0  0
   -1.4061   -0.1111    0.0982 C   0  0  0  0  0  0  0  0  0  0  0  0
    0.4476   -0.5902   -1.5797 C   0  0  0  0  0  0  0  0  0  0  0  0
   -0.3793   -1.1113   -2.4728 C   0  0  0  0  0  0  0  0  0  0  0  0
    2.3110   -1.0032    2.3386 H   0  0  0  0  0  0  0  0  0  0  0  0
    2.0846    0.6643    1.5737 H   0  0  0  0  0  0  0  0  0  0  0  0
    0.5921   -1.9241    0.8925 H   0  0  0  0  0  0  0  0  0  0  0  0
    0.4358    0.9557   -0.1462 H   0  0  0  0  0  0  0  0  0  0  0  0
   -1.5968    0.3080    1.0865 H   0  0  0  0  0  0  0  0  0  0  0  0
   -1.9674    0.4693   -0.6359 H   0  0  0  0  0  0  0  0  0  0  0  0
   -1.7902   -1.1338    0.0883 H   0  0  0  0  0  0  0  0  0  0  0  0
    1.5049   -0.5197   -1.8214 H   0  0  0  0  0  0  0  0  0  0  0  0
   -1.4421   -1.2131   -2.2889 H   0  0  0  0  0  0  0  0  0  0  0  0
   -0.0162   -1.4558   -3.4328 H   0  0  0  0  0  0  0  0  0  0  0  0
  1  2  2  3
  1  7  1  0
  1  8  1  0
  2  3  1  0
  2  9  1  0
  3  4  1  0
  3  5  1  0
  3 10  1  0
  4 11  1  0
  4 12  1  0
  4 13  1  0
  5  6  2  3
  5 14  1  0
  6 15  1  0
  6 16  1  0
M  END
>  <reaction>  (3) 
rxn_833

>  <mol_properties>  (3) 
{"2": {"label": "acceptor", "atom_type": "Cs"}, "15": {"label": "a_hydrogen", "atom_type": "H0"}}

>  <type>  (3) 
r2h

$$$$

     RDKit          3D

 20 18  0  0  0  0  0  0  0  0999 V2000
   -0.1244   -0.9964    2.1938 C   0  0  0  0  0  0  0  0  0  0  0  0
    0.3843    0.0055    1.4919 C   0  0  0  0  0  0  0  0  0  0  0  0
    0.2297    0.1927    0.0149 C   0  0  0  0  0  0  0  0  0  0  0  0
    1.4362    0.8460   -0.6292 C   0  0  0  0  0  0  0  0  0  0  0  0
   -1.0933    0.7530   -0.3621 C   0  0  0  0  0  0  0  0  0  0  0  0
   -1.3286    1.6661   -1.2981 C   0  0  0  0  0  0  0  0  0  0  0  0
    0.0088   -1.0601    3.2661 H   0  0  0  0  0  0  0  0  0  0  0  0
   -0.6929   -1.7890    1.7192 H   0  0  0  0  0  0  0  0  0  0  0  0
    0.9612    0.7722    2.0063 H   0  0  0  0  0  0  0  0  0  0  0  0
    1.3674    0.8189   -1.7176 H   0  0  0  0  0  0  0  0  0  0  0  0
    2.3493    0.3249   -0.3381 H   0  0  0  0  0  0  0  0  0  0  0  0
    1.5289    1.8918   -0.3224 H   0  0  0  0  0  0  0  0  0  0  0  0
   -1.9331    0.3396    0.1896 H   0  0  0  0  0  0  0  0  0  0  0  0
   -0.5338    2.1255   -1.8731 H   0  0  0  0  0  0  0  0  0  0  0  0
   -2.3379    1.9926   -1.5134 H   0  0  0  0  0  0  0  0  0  0  0  0
    0.3297   -2.3144   -1.0551 C   0  0  0  0  0  3  0  0  0  0  0  0
    0.2158   -0.9567   -0.4510 H   0  0  0  0  0  0  0  0  0  0  0  0
    1.0727   -2.7918   -0.4264 H   0  0  0  0  0  0  0  0  0  0  0  0
   -0.6789   -2.7018   -0.9625 H   0  0  0  0  0  0  0  0  0  0  0  0
    0.6459   -2.0891   -2.0674 H   0  0  0  0  0  0  0  0  0  0  0  0
  1  2  2  3
  1  7  1  0
  1  8  1  0
  2  3  1  0
  2  9  1  0
  3  4  1  0
  3  5  1  0
  3 17  1  0
  4 10  1  0
  4 11  1  0
  4 12  1  0
  5  6  2  3
  5 13  1  0
  6 14  1  0
  6 15  1  0
 16 18  1  0
 16 19  1  0
 16 20  1  0
M  RAD  1  16   2
M  END
>  <reaction>  (4) 
rxn_833

>  <mol_properties>  (4) 
{"1": {"label": "*0", "atom_type": "Cd"}, "2": {"label": "*1", "atom_type": "Cs"}, "15": {"label": "*3", "atom_type": "Cs"}, "16": {"label": "*2", "atom_type": "H0"}, "17": {"label": "*4", "atom_type": "H0"}}

>  <type>  (4) 
ts

$$$$

     RDKit          3D

 20 18  0  0  0  0  0  0  0  0999 V2000
   -2.3707   -0.2460    0.4828 C   0  0  0  0  0  0  0  0  0  0  0  0
   -1.1797    0.2509    0.7750 C   0  0  0  0  0  0  0  0  0  0  0  0
    0.0660    0.0671   -0.0528 C   0  0  0  0  0  3  0  0  0  0  0  0
    1.1517   -0.6368    0.7566 C   0  0  0  0  0  0  0  0  0  0  0  0
    0.4865    1.4033   -0.6132 C   0  0  0  0  0  0  0  0  0  0  0  0
    1.6362    2.0252   -0.4026 C   0  0  0  0  0  0  0  0  0  0  0  0
   -3.2281   -0.0757    1.1217 H   0  0  0  0  0  0  0  0  0  0  0  0
   -2.5312   -0.8438   -0.4083 H   0  0  0  0  0  0  0  0  0  0  0  0
   -1.0527    0.8489    1.6749 H   0  0  0  0  0  0  0  0  0  0  0  0
    2.0528   -0.7864    0.1595 H   0  0  0  0  0  0  0  0  0  0  0  0
    0.7966   -1.6112    1.0930 H   0  0  0  0  0  0  0  0  0  0  0  0
    1.4227   -0.0554    1.6409 H   0  0  0  0  0  0  0  0  0  0  0  0
   -0.2634    1.8830   -1.2369 H   0  0  0  0  0  0  0  0  0  0  0  0
    2.4203    1.6012    0.2131 H   0  0  0  0  0  0  0  0  0  0  0  0
    1.8356    2.9918   -0.8477 H   0  0  0  0  0  0  0  0  0  0  0  0
    0.0660   -2.4049   -0.9268 C   0  0  0  0  0  0  0  0  0  0  0  0
    0.0660   -1.1730   -0.4913 H   0  0  0  0  0  0  0  0  0  0  0  0
    0.9551   -2.9183   -0.5638 H   0  0  0  0  0  0  0  0  0  0  0  0
   -0.8231   -2.9183   -0.5638 H   0  0  0  0  0  0  0  0  0  0  0  0
    0.0660   -2.4049   -2.0158 H   0  0  0  0  0  0  0  0  0  0  0  0
  1  2  2  3
  1  7  1  0
  1  8  1  0
  2  3  1  0
  2  9  1  0
  3  4  1  0
  3  5  1  0
  4 10  1  0
  4 11  1  0
  4 12  1  0
  5  6  2  3
  5 13  1  0
  6 14  1  0
  6 15  1  0
 16 17  1  0
 16 18  1  0
 16 19  1  0
 16 20  1  0
M  RAD  1   3   2
M  END
>  <reaction>  (5) 
rxn_833

>  <mol_properties>  (5) 
{"1": {"label": "*0", "atom_type": "Cd"}, "2": {"label": "*1", "atom_type": "Cs"}, "15": {"label": "*3", "atom_type": "Cs"}, "16": {"label": "*2", "atom_type": "H0"}, "17": {"label": "*4", "atom_type": "H0"}}

>  <type>  (5) 
unop_1

>  <geom_source>  (5) 
Heuristics

$$$$

     RDKit          3D

 20 18  0  0  0  0  0  0  0  0999 V2000
   -0.9430    0.5081   -2.1501 C   0  0  0  0  0  0  0  0  0  0  0  0
   -0.7465    0.8486   -0.8866 C   0  0  0  0  0  0  0  0  0  0  0  0
   -0.0273    0.0098    0.1381 C   0  0  0  0  0  3  0  0  0  0  0  0
   -0.9518   -0.3244    1.3056 C   0  0  0  0  0  0  0  0  0  0  0  0
    1.2453    0.7115    0.5434 C   0  0  0  0  0  0  0  0  0  0  0  0
    1.5743    1.1167    1.7601 C   0  0  0  0  0  0  0  0  0  0  0  0
   -1.4688    1.1590   -2.8373 H   0  0  0  0  0  0  0  0  0  0  0  0
   -0.5846   -0.4374   -2.5435 H   0  0  0  0  0  0  0  0  0  0  0  0
   -1.1161    1.8054   -0.5240 H   0  0  0  0  0  0  0  0  0  0  0  0
   -0.4425   -0.9437    2.0458 H   0  0  0  0  0  0  0  0  0  0  0  0
   -1.8274   -0.8666    0.9477 H   0  0  0  0  0  0  0  0  0  0  0  0
   -1.3003    0.5832    1.8039 H   0  0  0  0  0  0  0  0  0  0  0  0
    1.9324    0.9015   -0.2770 H   0  0  0  0  0  0  0  0  0  0  0  0
    0.9300    0.9613    2.6170 H   0  0  0  0  0  0  0  0  0  0  0  0
    2.5141    1.6223    1.9430 H   0  0  0  0  0  0  0  0  0  0  0  0
   -0.0273   -2.4623   -0.7360 C   0  0  0  0  0  0  0  0  0  0  0  0
   -0.0273   -1.2303   -0.3004 H   0  0  0  0  0  0  0  0  0  0  0  0
    0.8618   -2.9756   -0.3730 H   0  0  0  0  0  0  0  0  0  0  0  0
   -0.9164   -2.9756   -0.3730 H   0  0  0  0  0  0  0  0  0  0  0  0
   -0.0273   -2.4623   -1.8249 H   0  0  0  0  0  0  0  0  0  0  0  0
  1  2  2  3
  1  7  1  0
  1  8  1  0
  2  3  1  0
  2  9  1  0
  3  4  1  0
  3  5  1  0
  4 10  1  0
  4 11  1  0
  4 12  1  0
  5  6  2  3
  5 13  1  0
  6 14  1  0
  6 15  1  0
 16 17  1  0
 16 18  1  0
 16 19  1  0
 16 20  1  0
M  RAD  1   3   2
M  END
>  <reaction>  (6) 
rxn_833

>  <mol_properties>  (6) 
{"1": {"label": "*0", "atom_type": "Cd"}, "2": {"label": "*1", "atom_type": "Cs"}, "15": {"label": "*3", "atom_type": "Cs"}, "16": {"label": "*2", "atom_type": "H0"}, "17": {"label": "*4", "atom_type": "H0"}}

>  <type>  (6) 
unop_2

>  <geom_source>  (6) 
Heuristics

$$$$

     RDKit          3D

 20 18  0  0  0  0  0  0  0  0999 V2000
   -1.5891   -0.7760    1.6396 C   0  0  0  0  0  0  0  0  0  0  0  0
   -0.6392    0.0728    1.2814 C   0  0  0  0  0  0  0  0  0  0  0  0
    0.0800    0.0645   -0.0427 C   0  0  0  0  0  3  0  0  0  0  0  0
    1.5791   -0.1379    0.1597 C   0  0  0  0  0  0  0  0  0  0  0  0
   -0.2736    1.3187   -0.8030 C   0  0  0  0  0  0  0  0  0  0  0  0
    0.5634    2.2570   -1.2179 C   0  0  0  0  0  0  0  0  0  0  0  0
   -2.0677   -0.7148    2.6089 H   0  0  0  0  0  0  0  0  0  0  0  0
   -1.9225   -1.5656    0.9744 H   0  0  0  0  0  0  0  0  0  0  0  0
   -0.3296    0.8554    1.9708 H   0  0  0  0  0  0  0  0  0  0  0  0
    2.1058   -0.1591   -0.7958 H   0  0  0  0  0  0  0  0  0  0  0  0
    1.7643   -1.0805    0.6753 H   0  0  0  0  0  0  0  0  0  0  0  0
    2.0064    0.6648    0.7652 H   0  0  0  0  0  0  0  0  0  0  0  0
   -1.3359    1.4390   -0.9987 H   0  0  0  0  0  0  0  0  0  0  0  0
    1.6318    2.1967   -1.0489 H   0  0  0  0  0  0  0  0  0  0  0  0
    0.2031    3.1279   -1.7508 H   0  0  0  0  0  0  0  0  0  0  0  0
    0.0800   -2.4076   -0.9168 C   0  0  0  0  0  0  0  0  0  0  0  0
    0.0800   -1.1756   -0.4812 H   0  0  0  0  0  0  0  0  0  0  0  0
    0.9691   -2.9209   -0.5538 H   0  0  0  0  0  0  0  0  0  0  0  0
   -0.8092   -2.9209   -0.5538 H   0  0  0  0  0  0  0  0  0  0  0  0
    0.0800   -2.4076   -2.0057 H   0  0  0  0  0  0  0  0  0  0  0  0
  1  2  2  3
  1  7  1  0
  1  8  1  0
  2  3  1  0
  2  9  1  0
  3  4  1  0
  3  5  1  0
  4 10  1  0
  4 11  1  0
  4 12  1  0
  5  6  2  3
  5 13  1  0
  6 14  1  0
  6 15  1  0
 16 17  1  0
 16 18  1  0
 16 19  1  0
 16 20  1  0
M  RAD  1   3   2
M  END
>  <reaction>  (7) 
rxn_833

>  <mol_properties>  (7) 
{"1": {"label": "*0", "atom_type": "Cd"}, "2": {"label": "*1", "atom_type": "Cs"}, "15": {"label": "*3", "atom_type": "Cs"}, "16": {"label": "*2", "atom_type": "H0"}, "17": {"label": "*4", "atom_type": "H0"}}

>  <type>  (7) 
unop_3

>  <geom_source>  (7) 
Heuristics

$$$$

     RDKit          3D

 20 18  0  0  0  0  0  0  0  0999 V2000
    1.5633    0.6409   -1.7699 C   0  0  0  0  0  0  0  0  0  0  0  0
    0.9606    0.9449   -0.6318 C   0  0  0  0  0  0  0  0  0  0  0  0
   -0.2850    0.2816   -0.1035 C   0  0  0  0  0  3  0  0  0  0  0  0
   -1.4078    1.3015    0.0662 C   0  0  0  0  0  0  0  0  0  0  0  0
    0.0558   -0.4725    1.1580 C   0  0  0  0  0  0  0  0  0  0  0  0
   -0.4564   -0.2750    2.3628 C   0  0  0  0  0  0  0  0  0  0  0  0
    2.4588    1.1571   -2.0925 H   0  0  0  0  0  0  0  0  0  0  0  0
    1.1809   -0.1370   -2.4224 H   0  0  0  0  0  0  0  0  0  0  0  0
    1.3714    1.7284    0.0015 H   0  0  0  0  0  0  0  0  0  0  0  0
   -2.3182    0.8265    0.4354 H   0  0  0  0  0  0  0  0  0  0  0  0
   -1.6310    1.7763   -0.8895 H   0  0  0  0  0  0  0  0  0  0  0  0
   -1.1238    2.0858    0.7717 H   0  0  0  0  0  0  0  0  0  0  0  0
    0.8156   -1.2390    1.0296 H   0  0  0  0  0  0  0  0  0  0  0  0
   -1.2125    0.4766    2.5552 H   0  0  0  0  0  0  0  0  0  0  0  0
   -0.1340   -0.8690    3.2086 H   0  0  0  0  0  0  0  0  0  0  0  0
   -0.2850   -2.1904   -0.9775 C   0  0  0  0  0  0  0  0  0  0  0  0
   -0.2850   -0.9585   -0.5419 H   0  0  0  0  0  0  0  0  0  0  0  0
    0.6041   -2.7038   -0.6145 H   0  0  0  0  0  0  0  0  0  0  0  0
   -1.1741   -2.7038   -0.6145 H   0  0  0  0  0  0  0  0  0  0  0  0
   -0.2850   -2.1904   -2.0664 H   0  0  0  0  0  0  0  0  0  0  0  0
  1  2  2  3
  1  7  1  0
  1  8  1  0
  2  3  1  0
  2  9  1  0
  3  4  1  0
  3  5  1  0
  4 10  1  0
  4 11  1  0
  4 12  1  0
  5  6  2  3
  5 13  1  0
  6 14  1  0
  6 15  1  0
 16 17  1  0
 16 18  1  0
 16 19  1  0
 16 20  1  0
M  RAD  1   3   2
M  END
>  <reaction>  (8) 
rxn_833

>  <mol_properties>  (8) 
{"1": {"label": "*0", "atom_type": "Cd"}, "2": {"label": "*1", "atom_type": "Cs"}, "15": {"label": "*3", "atom_type": "Cs"}, "16": {"label": "*2", "atom_type": "H0"}, "17": {"label": "*4", "atom_type": "H0"}}

>  <type>  (8) 
unop_4

>  <geom_source>  (8) 
Heuristics

$$$$

     RDKit          3D

 20 18  0  0  0  0  0  0  0  0999 V2000
    0.1546   -1.0357    2.1580 C   0  0  0  0  0  0  0  0  0  0  0  0
    0.1861    0.0722    1.4352 C   0  0  0  0  0  0  0  0  0  0  0  0
    0.1861    0.1281   -0.0707 C   0  0  0  0  0  3  0  0  0  0  0  0
    1.4447    0.8223   -0.5840 C   0  0  0  0  0  0  0  0  0  0  0  0
   -1.1000    0.7621   -0.5399 C   0  0  0  0  0  0  0  0  0  0  0  0
   -1.2233    1.8674   -1.2582 C   0  0  0  0  0  0  0  0  0  0  0  0
    0.1559   -1.0065    3.2404 H   0  0  0  0  0  0  0  0  0  0  0  0
    0.1273   -2.0149    1.6916 H   0  0  0  0  0  0  0  0  0  0  0  0
    0.2101    1.0389    1.9338 H   0  0  0  0  0  0  0  0  0  0  0  0
    1.4591    0.8545   -1.6747 H   0  0  0  0  0  0  0  0  0  0  0  0
    2.3326    0.2888   -0.2440 H   0  0  0  0  0  0  0  0  0  0  0  0
    1.5076    1.8479   -0.2130 H   0  0  0  0  0  0  0  0  0  0  0  0
   -1.9985    0.2387   -0.2234 H   0  0  0  0  0  0  0  0  0  0  0  0
   -0.3663    2.4359   -1.5990 H   0  0  0  0  0  0  0  0  0  0  0  0
   -2.1994    2.2445   -1.5359 H   0  0  0  0  0  0  0  0  0  0  0  0
    0.1861   -2.3440   -0.9447 C   0  0  0  0  0  0  0  0  0  0  0  0
    0.1861   -1.1120   -0.5091 H   0  0  0  0  0  0  0  0  0  0  0  0
    1.0752   -2.8573   -0.5817 H   0  0  0  0  0  0  0  0  0  0  0  0
   -0.7030   -2.8573   -0.5817 H   0  0  0  0  0  0  0  0  0  0  0  0
    0.1861   -2.3440   -2.0336 H   0  0  0  0  0  0  0  0  0  0  0  0
  1  2  2  3
  1  7  1  0
  1  8  1  0
  2  3  1  0
  2  9  1  0
  3  4  1  0
  3  5  1  0
  4 10  1  0
  4 11  1  0
  4 12  1  0
  5  6  2  3
  5 13  1  0
  6 14  1  0
  6 15  1  0
 16 17  1  0
 16 18  1  0
 16 19  1  0
 16 20  1  0
M  RAD  1   3   2
M  END
>  <reaction>  (9) 
rxn_833

>  <mol_properties>  (9) 
{"1": {"label": "*0", "atom_type": "Cd"}, "2": {"label": "*1", "atom_type": "Cs"}, "15": {"label": "*3", "atom_type": "Cs"}, "16": {"label": "*2", "atom_type": "H0"}, "17": {"label": "*4", "atom_type": "H0"}}

>  <type>  (9) 
unop_5

>  <geom_source>  (9) 
Heuristics

$$$$

     RDKit          3D

 20 18  0  0  0  0  0  0  0  0999 V2000
    2.2624    0.4359   -0.8768 C   0  0  0  0  0  0  0  0  0  0  0  0
    1.2759    0.7834   -0.0662 C   0  0  0  0  0  0  0  0  0  0  0  0
   -0.1624    0.3599   -0.2159 C   0  0  0  0  0  3  0  0  0  0  0  0
   -1.0677    1.5771   -0.3840 C   0  0  0  0  0  0  0  0  0  0  0  0
   -0.5373   -0.5292    0.9439 C   0  0  0  0  0  0  0  0  0  0  0  0
   -1.4901   -0.3088    1.8364 C   0  0  0  0  0  0  0  0  0  0  0  0
    3.2774    0.7751   -0.7120 H   0  0  0  0  0  0  0  0  0  0  0  0
    2.0895   -0.2015   -1.7376 H   0  0  0  0  0  0  0  0  0  0  0  0
    1.4832    1.4216    0.7902 H   0  0  0  0  0  0  0  0  0  0  0  0
   -2.1100    1.2781   -0.5071 H   0  0  0  0  0  0  0  0  0  0  0  0
   -0.7681    2.1492   -1.2624 H   0  0  0  0  0  0  0  0  0  0  0  0
   -1.0041    2.2377    0.4838 H   0  0  0  0  0  0  0  0  0  0  0  0
    0.0693   -1.4266    1.0342 H   0  0  0  0  0  0  0  0  0  0  0  0
   -2.1240    0.5691    1.8028 H   0  0  0  0  0  0  0  0  0  0  0  0
   -1.6726   -1.0106    2.6403 H   0  0  0  0  0  0  0  0  0  0  0  0
   -0.1624   -2.1122   -1.0899 C   0  0  0  0  0  0  0  0  0  0  0  0
   -0.1624   -0.8803   -0.6544 H   0  0  0  0  0  0  0  0  0  0  0  0
    0.7267   -2.6256   -0.7270 H   0  0  0  0  0  0  0  0  0  0  0  0
   -1.0515   -2.6256   -0.7270 H   0  0  0  0  0  0  0  0  0  0  0  0
   -0.1624   -2.1122   -2.1789 H   0  0  0  0  0  0  0  0  0  0  0  0
  1  2  2  3
  1  7  1  0
  1  8  1  0
  2  3  1  0
  2  9  1  0
  3  4  1  0
  3  5  1  0
  4 10  1  0
  4 11  1  0
  4 12  1  0
  5  6  2  3
  5 13  1  0
  6 14  1  0
  6 15  1  0
 16 17  1  0
 16 18  1  0
 16 19  1  0
 16 20  1  0
M  RAD  1   3   2
M  END
>  <reaction>  (10) 
rxn_833

>  <mol_properties>  (10) 
{"1": {"label": "*0", "atom_type": "Cd"}, "2": {"label": "*1", "atom_type": "Cs"}, "15": {"label": "*3", "atom_type": "Cs"}, "16": {"label": "*2", "atom_type": "H0"}, "17": {"label": "*4", "atom_type": "H0"}}

>  <type>  (10) 
unop_6

>  <geom_source>  (10) 
Heuristics

$$$$

     RDKit          3D

 20 18  0  0  0  0  0  0  0  0999 V2000
    2.4433    0.0052    0.3178 C   0  0  0  0  0  0  0  0  0  0  0  0
    1.2670    0.5534    0.5764 C   0  0  0  0  0  0  0  0  0  0  0  0
    0.0213    0.3696   -0.2514 C   0  0  0  0  0  3  0  0  0  0  0  0
   -0.4738    1.7111   -0.7848 C   0  0  0  0  0  0  0  0  0  0  0  0
   -1.0026   -0.3845    0.5604 C   0  0  0  0  0  0  0  0  0  0  0  0
   -2.2102    0.0371    0.9026 C   0  0  0  0  0  0  0  0  0  0  0  0
    3.3013    0.1776    0.9554 H   0  0  0  0  0  0  0  0  0  0  0  0
    2.5909   -0.6368   -0.5442 H   0  0  0  0  0  0  0  0  0  0  0  0
    1.1513    1.1903    1.4508 H   0  0  0  0  0  0  0  0  0  0  0  0
   -1.3681    1.5850   -1.3973 H   0  0  0  0  0  0  0  0  0  0  0  0
    0.2980    2.1799   -1.3958 H   0  0  0  0  0  0  0  0  0  0  0  0
   -0.7153    2.3947    0.0324 H   0  0  0  0  0  0  0  0  0  0  0  0
   -0.6743   -1.3650    0.8953 H   0  0  0  0  0  0  0  0  0  0  0  0
   -2.5922    1.0059    0.6040 H   0  0  0  0  0  0  0  0  0  0  0  0
   -2.8677   -0.5828    1.4989 H   0  0  0  0  0  0  0  0  0  0  0  0
    0.0213   -2.1025   -1.1254 C   0  0  0  0  0  0  0  0  0  0  0  0
    0.0213   -0.8705   -0.6898 H   0  0  0  0  0  0  0  0  0  0  0  0
    0.9105   -2.6158   -0.7624 H   0  0  0  0  0  0  0  0  0  0  0  0
   -0.8678   -2.6158   -0.7624 H   0  0  0  0  0  0  0  0  0  0  0  0
    0.0213   -2.1025   -2.2143 H   0  0  0  0  0  0  0  0  0  0  0  0
  1  2  2  3
  1  7  1  0
  1  8  1  0
  2  3  1  0
  2  9  1  0
  3  4  1  0
  3  5  1  0
  4 10  1  0
  4 11  1  0
  4 12  1  0
  5  6  2  3
  5 13  1  0
  6 14  1  0
  6 15  1  0
 16 17  1  0
 16 18  1  0
 16 19  1  0
 16 20  1  0
M  RAD  1   3   2
M  END
>  <reaction>  (11) 
rxn_833

>  <mol_properties>  (11) 
{"1": {"label": "*0", "atom_type": "Cd"}, "2": {"label": "*1", "atom_type": "Cs"}, "15": {"label": "*3", "atom_type": "Cs"}, "16": {"label": "*2", "atom_type": "H0"}, "17": {"label": "*4", "atom_type": "H0"}}

>  <type>  (11) 
unop_7

>  <geom_source>  (11) 
Heuristics

$$$$

     RDKit          3D

 20 18  0  0  0  0  0  0  0  0999 V2000
   -2.3199    0.1819   -0.7101 C   0  0  0  0  0  0  0  0  0  0  0  0
   -1.3451    0.4776    0.1345 C   0  0  0  0  0  0  0  0  0  0  0  0
    0.0933    0.0541   -0.0152 C   0  0  0  0  0  3  0  0  0  0  0  0
    0.5311   -0.7963    1.1741 C   0  0  0  0  0  0  0  0  0  0  0  0
    0.9459    1.2779   -0.2425 C   0  0  0  0  0  0  0  0  0  0  0  0
    1.9445    1.7008    0.5171 C   0  0  0  0  0  0  0  0  0  0  0  0
   -3.3353    0.5190   -0.5439 H   0  0  0  0  0  0  0  0  0  0  0  0
   -2.1368   -0.4106   -1.6002 H   0  0  0  0  0  0  0  0  0  0  0  0
   -1.5613    1.0765    1.0167 H   0  0  0  0  0  0  0  0  0  0  0  0
    1.5680   -1.1189    1.0665 H   0  0  0  0  0  0  0  0  0  0  0  0
   -0.0983   -1.6830    1.2534 H   0  0  0  0  0  0  0  0  0  0  0  0
    0.4441   -0.2390    2.1097 H   0  0  0  0  0  0  0  0  0  0  0  0
    0.6731    1.8565   -1.1212 H   0  0  0  0  0  0  0  0  0  0  0  0
    2.2601    1.1709    1.4077 H   0  0  0  0  0  0  0  0  0  0  0  0
    2.4895    2.6026    0.2683 H   0  0  0  0  0  0  0  0  0  0  0  0
    0.0933   -2.4180   -0.8892 C   0  0  0  0  0  0  0  0  0  0  0  0
    0.0933   -1.1860   -0.4537 H   0  0  0  0  0  0  0  0  0  0  0  0
    0.9824   -2.9313   -0.5263 H   0  0  0  0  0  0  0  0  0  0  0  0
   -0.7958   -2.9313   -0.5263 H   0  0  0  0  0  0  0  0  0  0  0  0
    0.0933   -2.4180   -1.9782 H   0  0  0  0  0  0  0  0  0  0  0  0
  1  2  2  3
  1  7  1  0
  1  8  1  0
  2  3  1  0
  2  9  1  0
  3  4  1  0
  3  5  1  0
  4 10  1  0
  4 11  1  0
  4 12  1  0
  5  6  2  3
  5 13  1  0
  6 14  1  0
  6 15  1  0
 16 17  1  0
 16 18  1  0
 16 19  1  0
 16 20  1  0
M  RAD  1   3   2
M  END
>  <reaction>  (12) 
rxn_833

>  <mol_properties>  (12) 
{"1": {"label": "*0", "atom_type": "Cd"}, "2": {"label": "*1", "atom_type": "Cs"}, "15": {"label": "*3", "atom_type": "Cs"}, "16": {"label": "*2", "atom_type": "H0"}, "17": {"label": "*4", "atom_type": "H0"}}

>  <type>  (12) 
unop_8

>  <geom_source>  (12) 
Heuristics

$$$$

     RDKit          3D

 20 18  0  0  0  0  0  0  0  0999 V2000
    0.6742    0.6360   -2.2341 C   0  0  0  0  0  0  0  0  0  0  0  0
    0.4230    1.0025   -0.9877 C   0  0  0  0  0  0  0  0  0  0  0  0
   -0.2961    0.1637    0.0370 C   0  0  0  0  0  3  0  0  0  0  0  0
   -1.5593    0.8705    0.5212 C   0  0  0  0  0  0  0  0  0  0  0  0
    0.6667   -0.1983    1.1407 C   0  0  0  0  0  0  0  0  0  0  0  0
    0.5519    0.1050    2.4243 C   0  0  0  0  0  0  0  0  0  0  0  0
    1.1979    1.2880   -2.9219 H   0  0  0  0  0  0  0  0  0  0  0  0
    0.3633   -0.3321   -2.6127 H   0  0  0  0  0  0  0  0  0  0  0  0
    0.7510    1.9791   -0.6380 H   0  0  0  0  0  0  0  0  0  0  0  0
   -2.0937    0.2631    1.2536 H   0  0  0  0  0  0  0  0  0  0  0  0
   -2.2271    1.0627   -0.3189 H   0  0  0  0  0  0  0  0  0  0  0  0
   -1.3201    1.8300    0.9854 H   0  0  0  0  0  0  0  0  0  0  0  0
    1.5412   -0.7514    0.8080 H   0  0  0  0  0  0  0  0  0  0  0  0
   -0.2932    0.6583    2.8159 H   0  0  0  0  0  0  0  0  0  0  0  0
    1.3088   -0.1968    3.1372 H   0  0  0  0  0  0  0  0  0  0  0  0
   -0.2961   -2.3083   -0.8370 C   0  0  0  0  0  0  0  0  0  0  0  0
   -0.2961   -1.0764   -0.4014 H   0  0  0  0  0  0  0  0  0  0  0  0
    0.5930   -2.8217   -0.4740 H   0  0  0  0  0  0  0  0  0  0  0  0
   -1.1852   -2.8217   -0.4740 H   0  0  0  0  0  0  0  0  0  0  0  0
   -0.2961   -2.3083   -1.9259 H   0  0  0  0  0  0  0  0  0  0  0  0
  1  2  2  3
  1  7  1  0
  1  8  1  0
  2  3  1  0
  2  9  1  0
  3  4  1  0
  3  5  1  0
  4 10  1  0
  4 11  1  0
  4 12  1  0
  5  6  2  3
  5 13  1  0
  6 14  1  0
  6 15  1  0
 16 17  1  0
 16 18  1  0
 16 19  1  0
 16 20  1  0
M  RAD  1   3   2
M  END
>  <reaction>  (13) 
rxn_833

>  <mol_properties>  (13) 
{"1": {"label": "*0", "atom_type": "Cd"}, "2": {"label": "*1", "atom_type": "Cs"}, "15": {"label": "*3", "atom_type": "Cs"}, "16": {"label": "*2", "atom_type": "H0"}, "17": {"label": "*4", "atom_type": "H0"}}

>  <type>  (13) 
unop_9

>  <geom_source>  (13) 
Heuristics

$$$$

     RDKit          3D

 20 18  0  0  0  0  0  0  0  0999 V2000
   -1.7368    0.4270   -1.6295 C   0  0  0  0  0  0  0  0  0  0  0  0
   -1.1695    0.6873   -0.4627 C   0  0  0  0  0  0  0  0  0  0  0  0
    0.0762    0.0241    0.0656 C   0  0  0  0  0  3  0  0  0  0  0  0
   -0.2134   -0.6978    1.3787 C   0  0  0  0  0  0  0  0  0  0  0  0
    1.1786    1.0498    0.1586 C   0  0  0  0  0  0  0  0  0  0  0  0
    1.8291    1.4179    1.2514 C   0  0  0  0  0  0  0  0  0  0  0  0
   -2.6337    0.9414   -1.9509 H   0  0  0  0  0  0  0  0  0  0  0  0
   -1.3238   -0.3132   -2.3067 H   0  0  0  0  0  0  0  0  0  0  0  0
   -1.6071    1.4376    0.1924 H   0  0  0  0  0  0  0  0  0  0  0  0
    0.6808   -1.1929    1.7610 H   0  0  0  0  0  0  0  0  0  0  0  0
   -0.9866   -1.4519    1.2297 H   0  0  0  0  0  0  0  0  0  0  0  0
   -0.5680   -0.0006    2.1413 H   0  0  0  0  0  0  0  0  0  0  0  0
    1.4270    1.5267   -0.7860 H   0  0  0  0  0  0  0  0  0  0  0  0
    1.6236    0.9836    2.2224 H   0  0  0  0  0  0  0  0  0  0  0  0
    2.6022    2.1748    1.2104 H   0  0  0  0  0  0  0  0  0  0  0  0
    0.0762   -2.4480   -0.8084 C   0  0  0  0  0  0  0  0  0  0  0  0
    0.0762   -1.2160   -0.3729 H   0  0  0  0  0  0  0  0  0  0  0  0
    0.9653   -2.9613   -0.4455 H   0  0  0  0  0  0  0  0  0  0  0  0
   -0.8129   -2.9613   -0.4455 H   0  0  0  0  0  0  0  0  0  0  0  0
    0.0762   -2.4480   -1.8974 H   0  0  0  0  0  0  0  0  0  0  0  0
  1  2  2  3
  1  7  1  0
  1  8  1  0
  2  3  1  0
  2  9  1  0
  3  4  1  0
  3  5  1  0
  4 10  1  0
  4 11  1  0
  4 12  1  0
  5  6  2  3
  5 13  1  0
  6 14  1  0
  6 15  1  0
 16 17  1  0
 16 18  1  0
 16 19  1  0
 16 20  1  0
M  RAD  1   3   2
M  END
>  <reaction>  (14) 
rxn_833

>  <mol_properties>  (14) 
{"1": {"label": "*0", "atom_type": "Cd"}, "2": {"label": "*1", "atom_type": "Cs"}, "15": {"label": "*3", "atom_type": "Cs"}, "16": {"label": "*2", "atom_type": "H0"}, "17": {"label": "*4", "atom_type": "H0"}}

>  <type>  (14) 
unop_10

>  <geom_source>  (14) 
Heuristics

$$$$

     RDKit          3D

 20 18  0  0  0  0  0  0  0  0999 V2000
    1.8078   -0.5933    1.5197 C   0  0  0  0  0  0  0  0  0  0  0  0
    0.9025    0.2927    1.1370 C   0  0  0  0  0  0  0  0  0  0  0  0
    0.1833    0.2844   -0.1871 C   0  0  0  0  0  3  0  0  0  0  0  0
    0.4648    1.5694   -0.9611 C   0  0  0  0  0  0  0  0  0  0  0  0
   -1.2827    0.0188    0.0503 C   0  0  0  0  0  0  0  0  0  0  0  0
   -2.2940    0.8114   -0.2689 C   0  0  0  0  0  0  0  0  0  0  0  0
    2.2883   -0.5305    2.4880 H   0  0  0  0  0  0  0  0  0  0  0  0
    2.1026   -1.4151    0.8757 H   0  0  0  0  0  0  0  0  0  0  0  0
    0.6268    1.1037    1.8078 H   0  0  0  0  0  0  0  0  0  0  0  0
   -0.0414    1.5652   -1.9278 H   0  0  0  0  0  0  0  0  0  0  0  0
    1.5359    1.6761   -1.1344 H   0  0  0  0  0  0  0  0  0  0  0  0
    0.1265    2.4463   -0.4043 H   0  0  0  0  0  0  0  0  0  0  0  0
   -1.4914   -0.9227    0.5517 H   0  0  0  0  0  0  0  0  0  0  0  0
   -2.1501    1.7638   -0.7647 H   0  0  0  0  0  0  0  0  0  0  0  0
   -3.3148    0.5287   -0.0445 H   0  0  0  0  0  0  0  0  0  0  0  0
    0.1833   -2.1877   -1.0611 C   0  0  0  0  0  0  0  0  0  0  0  0
    0.1833   -0.9557   -0.6256 H   0  0  0  0  0  0  0  0  0  0  0  0
    1.0724   -2.7010   -0.6982 H   0  0  0  0  0  0  0  0  0  0  0  0
   -0.7058   -2.7010   -0.6982 H   0  0  0  0  0  0  0  0  0  0  0  0
    0.1833   -2.1877   -2.1501 H   0  0  0  0  0  0  0  0  0  0  0  0
  1  2  2  3
  1  7  1  0
  1  8  1  0
  2  3  1  0
  2  9  1  0
  3  4  1  0
  3  5  1  0
  4 10  1  0
  4 11  1  0
  4 12  1  0
  5  6  2  3
  5 13  1  0
  6 14  1  0
  6 15  1  0
 16 17  1  0
 16 18  1  0
 16 19  1  0
 16 20  1  0
M  RAD  1   3   2
M  END
>  <reaction>  (15) 
rxn_833

>  <mol_properties>  (15) 
{"1": {"label": "*0", "atom_type": "Cd"}, "2": {"label": "*1", "atom_type": "Cs"}, "15": {"label": "*3", "atom_type": "Cs"}, "16": {"label": "*2", "atom_type": "H0"}, "17": {"label": "*4", "atom_type": "H0"}}

>  <type>  (15) 
unop_11

>  <geom_source>  (15) 
Heuristics

$$$$

     RDKit          3D

 20 18  0  0  0  0  0  0  0  0999 V2000
   -0.1546    0.5508   -2.3295 C   0  0  0  0  0  0  0  0  0  0  0  0
   -0.1861    0.9582   -1.0709 C   0  0  0  0  0  0  0  0  0  0  0  0
   -0.1861    0.0552    0.1355 C   0  0  0  0  0  3  0  0  0  0  0  0
   -1.4447    0.2725    0.9711 C   0  0  0  0  0  0  0  0  0  0  0  0
    1.1000    0.2534    0.8989 C   0  0  0  0  0  0  0  0  0  0  0  0
    1.2233    0.6616    2.1524 C   0  0  0  0  0  0  0  0  0  0  0  0
   -0.1559    1.2539   -3.1529 H   0  0  0  0  0  0  0  0  0  0  0  0
   -0.1273   -0.5040   -2.5821 H   0  0  0  0  0  0  0  0  0  0  0  0
   -0.2101    2.0234   -0.8511 H   0  0  0  0  0  0  0  0  0  0  0  0
   -1.4591   -0.3880    1.8396 H   0  0  0  0  0  0  0  0  0  0  0  0
   -2.3326    0.0712    0.3713 H   0  0  0  0  0  0  0  0  0  0  0  0
   -1.5076    1.3034    1.3272 H   0  0  0  0  0  0  0  0  0  0  0  0
    1.9985    0.0452    0.3238 H   0  0  0  0  0  0  0  0  0  0  0  0
    0.3663    0.8895    2.7747 H   0  0  0  0  0  0  0  0  0  0  0  0
    2.1994    0.7804    2.6054 H   0  0  0  0  0  0  0  0  0  0  0  0
   -0.1861   -2.4169   -0.7385 C   0  0  0  0  0  0  0  0  0  0  0  0
   -0.1861   -1.1849   -0.3030 H   0  0  0  0  0  0  0  0  0  0  0  0
    0.7030   -2.9302   -0.3756 H   0  0  0  0  0  0  0  0  0  0  0  0
   -1.0752   -2.9302   -0.3756 H   0  0  0  0  0  0  0  0  0  0  0  0
   -0.1861   -2.4169   -1.8275 H   0  0  0  0  0  0  0  0  0  0  0  0
  1  2  2  3
  1  7  1  0
  1  8  1  0
  2  3  1  0
  2  9  1  0
  3  4  1  0
  3  5  1  0
  4 10  1  0
  4 11  1  0
  4 12  1  0
  5  6  2  3
  5 13  1  0
  6 14  1  0
  6 15  1  0
 16 17  1  0
 16 18  1  0
 16 19  1  0
 16 20  1  0
M  RAD  1   3   2
M  END
>  <reaction>  (16) 
rxn_833

>  <mol_properties>  (16) 
{"1": {"label": "*0", "atom_type": "Cd"}, "2": {"label": "*1", "atom_type": "Cs"}, "15": {"label": "*3", "atom_type": "Cs"}, "16": {"label": "*2", "atom_type": "H0"}, "17": {"label": "*4", "atom_type": "H0"}}

>  <type>  (16) 
unop_12

>  <geom_source>  (16) 
Heuristics

$$$$

     RDKit          3D

 20 18  0  0  0  0  0  0  0  0999 V2000
    0.0660    0.0283    0.0490 C   0  0  0  0  0  3  0  0  0  0  0  0
    0.2840    0.3174   -1.4411 C   0  0  0  0  0  0  0  0  0  0  0  0
   -0.5416   -1.3325    0.3018 C   0  0  0  0  0  0  0  0  0  0  0  0
   -0.6960    1.1256    0.7561 C   0  0  0  0  0  0  0  0  0  0  0  0
   -1.6853   -1.7490   -0.2544 C   0  0  0  0  0  0  0  0  0  0  0  0
   -1.8939    1.5712    0.3592 C   0  0  0  0  0  0  0  0  0  0  0  0
    2.6084   -0.0770    0.6181 C   0  0  0  0  0  0  0  0  0  0  0  0
    1.3543    0.0002    0.6390 H   0  0  0  0  0  0  0  0  0  0  0  0
   -0.6761    0.3596   -1.9960 H   0  0  0  0  0  0  0  0  0  0  0  0
    0.9189   -0.4768   -1.8877 H   0  0  0  0  0  0  0  0  0  0  0  0
    0.8079    1.2891   -1.5613 H   0  0  0  0  0  0  0  0  0  0  0  0
   -0.0175   -2.0058    0.9731 H   0  0  0  0  0  0  0  0  0  0  0  0
   -0.2424    1.5740    1.6347 H   0  0  0  0  0  0  0  0  0  0  0  0
   -2.2457   -1.1255   -0.9408 H   0  0  0  0  0  0  0  0  0  0  0  0
   -2.0660   -2.7394   -0.0272 H   0  0  0  0  0  0  0  0  0  0  0  0
   -2.3865    2.3619    0.9156 H   0  0  0  0  0  0  0  0  0  0  0  0
   -2.3899    1.1700   -0.5165 H   0  0  0  0  0  0  0  0  0  0  0  0
    2.9408    0.9433    0.8995 H   0  0  0  0  0  0  0  0  0  0  0  0
    3.3609   -0.5390   -0.0535 H   0  0  0  0  0  0  0  0  0  0  0  0
    2.4995   -0.6957    1.5325 H   0  0  0  0  0  0  0  0  0  0  0  0
  1  2  1  0
  1  3  1  0
  1  4  1  0
  2  9  1  0
  2 10  1  0
  2 11  1  0
  3  5  2  3
  3 12  1  0
  4  6  2  3
  4 13  1  0
  5 14  1  0
  5 15  1  0
  6 16  1  0
  6 17  1  0
  7  8  1  0
  7 18  1  0
  7 19  1  0
  7 20  1  0
M  RAD  1   1   2
M  END
>  <reaction>  (17) 
rxn_833

>  <mol_properties>  (17) 
{"1": {"label": "*0", "atom_type": "Cd"}, "2": {"label": "*1", "atom_type": "Cs"}, "15": {"label": "*3", "atom_type": "Cs"}, "16": {"label": "*2", "atom_type": "H0"}, "17": {"label": "*4", "atom_type": "H0"}}

>  <type>  (17) 
unop_13

>  <geom_source>  (17) 
AutoTST

$$$$
