
     RDKit          3D

 12 12  0  0  0  0  0  0  0  0999 V2000
   -1.2385    0.6248   -0.0199 C   0  0  0  0  0  0  0  0  0  0  0  0
   -0.0779    1.3848   -0.0298 C   0  0  0  0  0  0  0  0  0  0  0  0
    1.1605    0.7600   -0.0100 C   0  0  0  0  0  0  0  0  0  0  0  0
    1.2385   -0.6248    0.0199 C   0  0  0  0  0  0  0  0  0  0  0  0
    0.0779   -1.3848    0.0298 C   0  0  0  0  0  0  0  0  0  0  0  0
   -1.1606   -0.7600    0.0100 C   0  0  0  0  0  0  0  0  0  0  0  0
   -2.2052    1.1125   -0.0354 H   0  0  0  0  0  0  0  0  0  0  0  0
   -0.1387    2.4657   -0.0531 H   0  0  0  0  0  0  0  0  0  0  0  0
    2.0664    1.3532   -0.0177 H   0  0  0  0  0  0  0  0  0  0  0  0
    2.2052   -1.1125    0.0354 H   0  0  0  0  0  0  0  0  0  0  0  0
    0.1387   -2.4657    0.0531 H   0  0  0  0  0  0  0  0  0  0  0  0
   -2.0664   -1.3532    0.0177 H   0  0  0  0  0  0  0  0  0  0  0  0
  1  2  2  0
  1  6  1  0
  1  7  1  0
  2  3  1  0
  2  8  1  0
  3  4  2  0
  3  9  1  0
  4  5  1  0
  4 10  1  0
  5  6  2  0
  5 11  1  0
  6 12  1  0
M  END
>  <reaction>  (1) 
rxn_279

>  <mol_properties>  (1) 
{"2": {"label": "donator", "atom_type": "Cd"}, "8": {"label": "d_hydrogen", "atom_type": "H0"}}

>  <type>  (1) 
r1h

$$$$

     RDKit          3D

  7  6  0  0  0  0  0  0  0  0999 V2000
   -0.6201    0.0189   -0.0017 C   0  0  0  0  0  0  0  0  0  0  0  0
    0.8589   -0.0553    0.0500 C   0  0  0  0  0  3  0  0  0  0  0  0
   -1.0738   -0.9730   -0.0559 H   0  0  0  0  0  0  0  0  0  0  0  0
   -0.9680    0.5706   -0.8872 H   0  0  0  0  0  0  0  0  0  0  0  0
   -1.0303    0.5369    0.8678 H   0  0  0  0  0  0  0  0  0  0  0  0
    1.3939   -0.8386   -0.4695 H   0  0  0  0  0  0  0  0  0  0  0  0
    1.4394    0.7404    0.4965 H   0  0  0  0  0  0  0  0  0  0  0  0
  1  2  1  0
  1  3  1  0
  1  4  1  0
  1  5  1  0
  2  6  1  0
  2  7  1  0
M  RAD  1   2   2
M  END
>  <reaction>  (2) 
rxn_279

>  <mol_properties>  (2) 
{"1": {"label": "acceptor", "atom_type": "Cs"}}

>  <type>  (2) 
r2

$$$$

     RDKit          3D

  8  7  0  0  0  0  0  0  0  0999 V2000
    0.7610    0.0250    0.0051 C   0  0  0  0  0  0  0  0  0  0  0  0
   -0.7610   -0.0250   -0.0051 C   0  0  0  0  0  0  0  0  0  0  0  0
    1.1904   -0.9237   -0.3217 H   0  0  0  0  0  0  0  0  0  0  0  0
    1.1359    0.8041   -0.6609 H   0  0  0  0  0  0  0  0  0  0  0  0
    1.1435    0.2336    1.0058 H   0  0  0  0  0  0  0  0  0  0  0  0
   -1.1435   -0.2336   -1.0058 H   0  0  0  0  0  0  0  0  0  0  0  0
   -1.1904    0.9237    0.3216 H   0  0  0  0  0  0  0  0  0  0  0  0
   -1.1359   -0.8041    0.6609 H   0  0  0  0  0  0  0  0  0  0  0  0
  1  2  1  0
  1  3  1  0
  1  4  1  0
  1  5  1  0
  2  6  1  0
  2  7  1  0
  2  8  1  0
M  END
>  <reaction>  (3) 
rxn_279

>  <mol_properties>  (3) 
{"0": {"label": "a_hydrogen", "atom_type": "H0"}, "2": {"label": "acceptor", "atom_type": "Cs"}}

>  <type>  (3) 
r2h

$$$$

     RDKit          3D

 19 18  0  0  0  0  0  0  0  0999 V2000
    0.1655   -1.0822   -1.7461 C   0  0  0  0  0  0  0  0  0  0  0  0
    0.2803   -0.9359   -0.3675 C   0  0  0  0  0  0  0  0  0  0  0  0
   -0.0297    0.2837    0.1937 C   0  0  0  0  0  3  0  0  0  0  0  0
   -0.4478    1.3606   -0.5573 C   0  0  0  0  0  0  0  0  0  0  0  0
   -0.5600    1.2062   -1.9349 C   0  0  0  0  0  0  0  0  0  0  0  0
   -0.2537   -0.0125   -2.5247 C   0  0  0  0  0  0  0  0  0  0  0  0
    0.4034   -2.0312   -2.2114 H   0  0  0  0  0  0  0  0  0  0  0  0
    0.6069   -1.7660    0.2482 H   0  0  0  0  0  0  0  0  0  0  0  0
    0.0887    0.4252    1.5906 H   0  0  0  0  0  0  0  0  0  0  0  0
   -0.6852    2.3089   -0.0892 H   0  0  0  0  0  0  0  0  0  0  0  0
   -0.8868    2.0378   -2.5477 H   0  0  0  0  0  0  0  0  0  0  0  0
   -0.3421   -0.1291   -3.5976 H   0  0  0  0  0  0  0  0  0  0  0  0
    0.6950   -0.9070    3.2912 C   0  0  0  0  0  0  0  0  0  0  0  0
    0.2250    0.4580    2.8541 C   0  0  0  0  0  0  0  0  0  0  0  0
    0.8349   -0.9535    4.3750 H   0  0  0  0  0  0  0  0  0  0  0  0
    1.6495   -1.1629    2.8272 H   0  0  0  0  0  0  0  0  0  0  0  0
   -0.0287   -1.6786    3.0215 H   0  0  0  0  0  0  0  0  0  0  0  0
    0.9448    1.2568    3.0280 H   0  0  0  0  0  0  0  0  0  0  0  0
   -0.7614    0.7325    3.2257 H   0  0  0  0  0  0  0  0  0  0  0  0
  1  6  2  0
  1  2  1  0
  1  7  1  0
  2  3  2  0
  2  8  1  0
  3  4  1  0
  4  5  2  0
  4 10  1  0
  5  6  1  0
  5 11  1  0
  6 12  1  0
  9 14  1  0
 13 14  1  0
 13 15  1  0
 13 16  1  0
 13 17  1  0
 14 18  1  0
 14 19  1  0
M  RAD  1   3   2
M  END
>  <reaction>  (4) 
rxn_279

>  <mol_properties>  (4) 
{"1": {"label": "*4", "atom_type": "Cd"}, "2": {"label": "*3", "atom_type": "Cd"}, "8": {"label": "*2", "atom_type": "H0"}, "12": {"label": "*0", "atom_type": "Cs"}, "13": {"label": "*1", "atom_type": "Cs"}}

>  <type>  (4) 
ts

$$$$

     RDKit          3D

 19 18  0  0  0  0  0  0  0  0999 V2000
   -0.1701   -1.3067   -1.8651 C   0  0  0  0  0  0  0  0  0  0  0  0
   -0.1701   -1.3067   -0.4778 C   0  0  0  0  0  0  0  0  0  0  0  0
   -0.1701   -0.1053    0.2158 C   0  0  0  0  0  0  0  0  0  0  0  0
   -0.1701    1.0962   -0.4778 C   0  0  0  0  0  0  0  0  0  0  0  0
   -0.1701    1.0961   -1.8651 C   0  0  0  0  0  0  0  0  0  0  0  0
   -0.1701   -0.1053   -2.5588 C   0  0  0  0  0  0  0  0  0  0  0  0
   -0.1701   -2.2445   -2.4065 H   0  0  0  0  0  0  0  0  0  0  0  0
   -0.1701   -2.2445    0.0637 H   0  0  0  0  0  0  0  0  0  0  0  0
   -0.1701   -0.1052    1.5152 H   0  0  0  0  0  0  0  0  0  0  0  0
   -0.1700    2.0340    0.0636 H   0  0  0  0  0  0  0  0  0  0  0  0
   -0.1701    2.0339   -2.4066 H   0  0  0  0  0  0  0  0  0  0  0  0
   -0.1701   -0.1053   -3.6416 H   0  0  0  0  0  0  0  0  0  0  0  0
    1.0589    0.6044    3.3772 C   0  0  0  0  0  0  0  0  0  0  0  0
   -0.1701   -0.1052    2.8250 C   0  0  0  0  0  3  0  0  0  0  0  0
    0.8074    1.2110    4.2490 H   0  0  0  0  0  0  0  0  0  0  0  0
    1.5027    1.2660    2.6312 H   0  0  0  0  0  0  0  0  0  0  0  0
    1.8251   -0.1106    3.6823 H   0  0  0  0  0  0  0  0  0  0  0  0
   -0.9362    0.6097    2.5199 H   0  0  0  0  0  0  0  0  0  0  0  0
   -0.6138   -0.7668    3.5710 H   0  0  0  0  0  0  0  0  0  0  0  0
  1  2  2  0
  1  6  1  0
  1  7  1  0
  2  3  1  0
  2  8  1  0
  3  4  2  0
  3  9  1  0
  4  5  1  0
  4 10  1  0
  5  6  2  0
  5 11  1  0
  6 12  1  0
 13 14  1  0
 13 15  1  0
 13 16  1  0
 13 17  1  0
 14 18  1  0
 14 19  1  0
M  RAD  1  14   2
M  END
>  <reaction>  (5) 
rxn_279

>  <mol_properties>  (5) 
{"1": {"label": "*4", "atom_type": "Cd"}, "2": {"label": "*3", "atom_type": "Cd"}, "8": {"label": "*2", "atom_type": "H0"}, "12": {"label": "*0", "atom_type": "Cs"}, "13": {"label": "*1", "atom_type": "Cs"}}

>  <type>  (5) 
unop_1

>  <geom_source>  (5) 
Heuristics

$$$$

     RDKit          3D

 19 18  0  0  0  0  0  0  0  0999 V2000
   -0.1022   -1.0304   -1.8667 C   0  0  0  0  0  0  0  0  0  0  0  0
   -0.1022   -1.0304   -0.4794 C   0  0  0  0  0  0  0  0  0  0  0  0
   -0.1022    0.1711    0.2142 C   0  0  0  0  0  0  0  0  0  0  0  0
   -0.1022    1.3725   -0.4795 C   0  0  0  0  0  0  0  0  0  0  0  0
   -0.1022    1.3725   -1.8667 C   0  0  0  0  0  0  0  0  0  0  0  0
   -0.1022    0.1710   -2.5604 C   0  0  0  0  0  0  0  0  0  0  0  0
   -0.1022   -1.9682   -2.4081 H   0  0  0  0  0  0  0  0  0  0  0  0
   -0.1022   -1.9681    0.0620 H   0  0  0  0  0  0  0  0  0  0  0  0
   -0.1022    0.1711    1.5136 H   0  0  0  0  0  0  0  0  0  0  0  0
   -0.1022    2.3103    0.0620 H   0  0  0  0  0  0  0  0  0  0  0  0
   -0.1022    2.3102   -2.4082 H   0  0  0  0  0  0  0  0  0  0  0  0
   -0.1022    0.1710   -3.6433 H   0  0  0  0  0  0  0  0  0  0  0  0
    0.6074   -1.0578    3.3756 C   0  0  0  0  0  0  0  0  0  0  0  0
   -0.1022    0.1711    2.8233 C   0  0  0  0  0  3  0  0  0  0  0  0
    0.8893   -0.9160    4.4204 H   0  0  0  0  0  0  0  0  0  0  0  0
    1.5178   -1.2749    2.8143 H   0  0  0  0  0  0  0  0  0  0  0  0
   -0.0317   -1.9410    3.3229 H   0  0  0  0  0  0  0  0  0  0  0  0
    0.5369    1.0543    2.8761 H   0  0  0  0  0  0  0  0  0  0  0  0
   -1.0127    0.3882    3.3847 H   0  0  0  0  0  0  0  0  0  0  0  0
  1  2  2  0
  1  6  1  0
  1  7  1  0
  2  3  1  0
  2  8  1  0
  3  4  2  0
  3  9  1  0
  4  5  1  0
  4 10  1  0
  5  6  2  0
  5 11  1  0
  6 12  1  0
 13 14  1  0
 13 15  1  0
 13 16  1  0
 13 17  1  0
 14 18  1  0
 14 19  1  0
M  RAD  1  14   2
M  END
>  <reaction>  (6) 
rxn_279

>  <mol_properties>  (6) 
{"1": {"label": "*4", "atom_type": "Cd"}, "2": {"label": "*3", "atom_type": "Cd"}, "8": {"label": "*2", "atom_type": "H0"}, "12": {"label": "*0", "atom_type": "Cs"}, "13": {"label": "*1", "atom_type": "Cs"}}

>  <type>  (6) 
unop_2

>  <geom_source>  (6) 
Heuristics

$$$$

     RDKit          3D

 19 18  0  0  0  0  0  0  0  0999 V2000
   -0.0958   -1.3766   -1.8660 C   0  0  0  0  0  0  0  0  0  0  0  0
   -0.0958   -1.3766   -0.4787 C   0  0  0  0  0  0  0  0  0  0  0  0
   -0.0958   -0.1751    0.2149 C   0  0  0  0  0  0  0  0  0  0  0  0
   -0.0958    1.0263   -0.4788 C   0  0  0  0  0  0  0  0  0  0  0  0
   -0.0958    1.0263   -1.8661 C   0  0  0  0  0  0  0  0  0  0  0  0
   -0.0958   -0.1751   -2.5597 C   0  0  0  0  0  0  0  0  0  0  0  0
   -0.0958   -2.3143   -2.4074 H   0  0  0  0  0  0  0  0  0  0  0  0
   -0.0958   -2.3143    0.0627 H   0  0  0  0  0  0  0  0  0  0  0  0
   -0.0958   -0.1751    1.5143 H   0  0  0  0  0  0  0  0  0  0  0  0
   -0.0958    1.9641    0.0626 H   0  0  0  0  0  0  0  0  0  0  0  0
   -0.0958    1.9641   -2.4075 H   0  0  0  0  0  0  0  0  0  0  0  0
   -0.0958   -0.1752   -3.6426 H   0  0  0  0  0  0  0  0  0  0  0  0
    0.6138    1.0539    3.3763 C   0  0  0  0  0  0  0  0  0  0  0  0
   -0.0958   -0.1751    2.8240 C   0  0  0  0  0  3  0  0  0  0  0  0
    0.2113    1.3393    4.3498 H   0  0  0  0  0  0  0  0  0  0  0  0
    0.5009    1.9097    2.7084 H   0  0  0  0  0  0  0  0  0  0  0  0
    1.6825    0.8712    3.5013 H   0  0  0  0  0  0  0  0  0  0  0  0
   -1.1645    0.0077    2.6989 H   0  0  0  0  0  0  0  0  0  0  0  0
    0.0171   -1.0308    3.4919 H   0  0  0  0  0  0  0  0  0  0  0  0
  1  2  2  0
  1  6  1  0
  1  7  1  0
  2  3  1  0
  2  8  1  0
  3  4  2  0
  3  9  1  0
  4  5  1  0
  4 10  1  0
  5  6  2  0
  5 11  1  0
  6 12  1  0
 13 14  1  0
 13 15  1  0
 13 16  1  0
 13 17  1  0
 14 18  1  0
 14 19  1  0
M  RAD  1  14   2
M  END
>  <reaction>  (7) 
rxn_279

>  <mol_properties>  (7) 
{"1": {"label": "*4", "atom_type": "Cd"}, "2": {"label": "*3", "atom_type": "Cd"}, "8": {"label": "*2", "atom_type": "H0"}, "12": {"label": "*0", "atom_type": "Cs"}, "13": {"label": "*1", "atom_type": "Cs"}}

>  <type>  (7) 
unop_3

>  <geom_source>  (7) 
Heuristics

$$$$

     RDKit          3D

 19 18  0  0  0  0  0  0  0  0999 V2000
    0.1754   -1.1060   -1.8658 C   0  0  0  0  0  0  0  0  0  0  0  0
    0.1754   -1.1060   -0.4785 C   0  0  0  0  0  0  0  0  0  0  0  0
    0.1754    0.0955    0.2151 C   0  0  0  0  0  0  0  0  0  0  0  0
    0.1754    1.2969   -0.4786 C   0  0  0  0  0  0  0  0  0  0  0  0
    0.1754    1.2968   -1.8659 C   0  0  0  0  0  0  0  0  0  0  0  0
    0.1754    0.0954   -2.5595 C   0  0  0  0  0  0  0  0  0  0  0  0
    0.1754   -2.0438   -2.4072 H   0  0  0  0  0  0  0  0  0  0  0  0
    0.1754   -2.0438    0.0629 H   0  0  0  0  0  0  0  0  0  0  0  0
    0.1754    0.0955    1.5145 H   0  0  0  0  0  0  0  0  0  0  0  0
    0.1754    2.2347    0.0629 H   0  0  0  0  0  0  0  0  0  0  0  0
    0.1754    2.2346   -2.4073 H   0  0  0  0  0  0  0  0  0  0  0  0
    0.1754    0.0954   -3.6424 H   0  0  0  0  0  0  0  0  0  0  0  0
   -1.0536   -0.6140    3.3765 C   0  0  0  0  0  0  0  0  0  0  0  0
    0.1754    0.0955    2.8242 C   0  0  0  0  0  3  0  0  0  0  0  0
   -1.3686   -0.1786    4.3265 H   0  0  0  0  0  0  0  0  0  0  0  0
   -0.8552   -1.6735    3.5483 H   0  0  0  0  0  0  0  0  0  0  0  0
   -1.8954   -0.5434    2.6855 H   0  0  0  0  0  0  0  0  0  0  0  0
    1.0172    0.0248    3.5153 H   0  0  0  0  0  0  0  0  0  0  0  0
   -0.0230    1.1549    2.6524 H   0  0  0  0  0  0  0  0  0  0  0  0
  1  2  2  0
  1  6  1  0
  1  7  1  0
  2  3  1  0
  2  8  1  0
  3  4  2  0
  3  9  1  0
  4  5  1  0
  4 10  1  0
  5  6  2  0
  5 11  1  0
  6 12  1  0
 13 14  1  0
 13 15  1  0
 13 16  1  0
 13 17  1  0
 14 18  1  0
 14 19  1  0
M  RAD  1  14   2
M  END
>  <reaction>  (8) 
rxn_279

>  <mol_properties>  (8) 
{"1": {"label": "*4", "atom_type": "Cd"}, "2": {"label": "*3", "atom_type": "Cd"}, "8": {"label": "*2", "atom_type": "H0"}, "12": {"label": "*0", "atom_type": "Cs"}, "13": {"label": "*1", "atom_type": "Cs"}}

>  <type>  (8) 
unop_4

>  <geom_source>  (8) 
Heuristics

$$$$

     RDKit          3D

 19 18  0  0  0  0  0  0  0  0999 V2000
   -0.0000   -1.4005   -1.8671 C   0  0  0  0  0  0  0  0  0  0  0  0
   -0.0000   -1.4005   -0.4798 C   0  0  0  0  0  0  0  0  0  0  0  0
    0.0000   -0.1991    0.2138 C   0  0  0  0  0  0  0  0  0  0  0  0
    0.0000    1.0023   -0.4799 C   0  0  0  0  0  0  0  0  0  0  0  0
    0.0000    1.0023   -1.8672 C   0  0  0  0  0  0  0  0  0  0  0  0
   -0.0000   -0.1991   -2.5608 C   0  0  0  0  0  0  0  0  0  0  0  0
   -0.0000   -2.3383   -2.4086 H   0  0  0  0  0  0  0  0  0  0  0  0
   -0.0000   -2.3383    0.0616 H   0  0  0  0  0  0  0  0  0  0  0  0
    0.0000   -0.1991    1.5132 H   0  0  0  0  0  0  0  0  0  0  0  0
    0.0000    1.9401    0.0615 H   0  0  0  0  0  0  0  0  0  0  0  0
   -0.0000    1.9401   -2.4086 H   0  0  0  0  0  0  0  0  0  0  0  0
   -0.0000   -0.1991   -3.6437 H   0  0  0  0  0  0  0  0  0  0  0  0
    0.0000    1.2201    3.3752 C   0  0  0  0  0  0  0  0  0  0  0  0
    0.0000   -0.1990    2.8229 C   0  0  0  0  0  3  0  0  0  0  0  0
    0.0000    1.2201    4.4666 H   0  0  0  0  0  0  0  0  0  0  0  0
   -0.8808    1.7734    3.0448 H   0  0  0  0  0  0  0  0  0  0  0  0
    0.8808    1.7734    3.0448 H   0  0  0  0  0  0  0  0  0  0  0  0
   -0.8808   -0.7524    3.1533 H   0  0  0  0  0  0  0  0  0  0  0  0
    0.8808   -0.7524    3.1533 H   0  0  0  0  0  0  0  0  0  0  0  0
  1  2  2  0
  1  6  1  0
  1  7  1  0
  2  3  1  0
  2  8  1  0
  3  4  2  0
  3  9  1  0
  4  5  1  0
  4 10  1  0
  5  6  2  0
  5 11  1  0
  6 12  1  0
 13 14  1  0
 13 15  1  0
 13 16  1  0
 13 17  1  0
 14 18  1  0
 14 19  1  0
M  RAD  1  14   2
M  END
>  <reaction>  (9) 
rxn_279

>  <mol_properties>  (9) 
{"1": {"label": "*4", "atom_type": "Cd"}, "2": {"label": "*3", "atom_type": "Cd"}, "8": {"label": "*2", "atom_type": "H0"}, "12": {"label": "*0", "atom_type": "Cs"}, "13": {"label": "*1", "atom_type": "Cs"}}

>  <type>  (9) 
unop_5

>  <geom_source>  (9) 
Heuristics

$$$$

     RDKit          3D

 19 18  0  0  0  0  0  0  0  0999 V2000
    0.1999   -1.2075   -1.8651 C   0  0  0  0  0  0  0  0  0  0  0  0
    0.1999   -1.2075   -0.4778 C   0  0  0  0  0  0  0  0  0  0  0  0
    0.1999   -0.0061    0.2158 C   0  0  0  0  0  0  0  0  0  0  0  0
    0.1999    1.1954   -0.4779 C   0  0  0  0  0  0  0  0  0  0  0  0
    0.1999    1.1953   -1.8652 C   0  0  0  0  0  0  0  0  0  0  0  0
    0.1999   -0.0061   -2.5588 C   0  0  0  0  0  0  0  0  0  0  0  0
    0.1999   -2.1453   -2.4065 H   0  0  0  0  0  0  0  0  0  0  0  0
    0.1999   -2.1453    0.0636 H   0  0  0  0  0  0  0  0  0  0  0  0
    0.1999   -0.0060    1.5152 H   0  0  0  0  0  0  0  0  0  0  0  0
    0.1999    2.1332    0.0635 H   0  0  0  0  0  0  0  0  0  0  0  0
    0.1999    2.1331   -2.4066 H   0  0  0  0  0  0  0  0  0  0  0  0
    0.1999   -0.0061   -3.6417 H   0  0  0  0  0  0  0  0  0  0  0  0
   -1.2192   -0.0060    3.3772 C   0  0  0  0  0  0  0  0  0  0  0  0
    0.1999   -0.0060    2.8249 C   0  0  0  0  0  3  0  0  0  0  0  0
   -1.3028    0.6386    4.2540 H   0  0  0  0  0  0  0  0  0  0  0  0
   -1.5283   -1.0097    3.6744 H   0  0  0  0  0  0  0  0  0  0  0  0
   -1.9333    0.3530    2.6339 H   0  0  0  0  0  0  0  0  0  0  0  0
    0.9139   -0.3651    3.5682 H   0  0  0  0  0  0  0  0  0  0  0  0
    0.5090    0.9976    2.5277 H   0  0  0  0  0  0  0  0  0  0  0  0
  1  2  2  0
  1  6  1  0
  1  7  1  0
  2  3  1  0
  2  8  1  0
  3  4  2  0
  3  9  1  0
  4  5  1  0
  4 10  1  0
  5  6  2  0
  5 11  1  0
  6 12  1  0
 13 14  1  0
 13 15  1  0
 13 16  1  0
 13 17  1  0
 14 18  1  0
 14 19  1  0
M  RAD  1  14   2
M  END
>  <reaction>  (10) 
rxn_279

>  <mol_properties>  (10) 
{"1": {"label": "*4", "atom_type": "Cd"}, "2": {"label": "*3", "atom_type": "Cd"}, "8": {"label": "*2", "atom_type": "H0"}, "12": {"label": "*0", "atom_type": "Cs"}, "13": {"label": "*1", "atom_type": "Cs"}}

>  <type>  (10) 
unop_6

>  <geom_source>  (10) 
Heuristics

$$$$

     RDKit          3D

 19 18  0  0  0  0  0  0  0  0999 V2000
    0.1700   -1.3067   -1.8651 C   0  0  0  0  0  0  0  0  0  0  0  0
    0.1700   -1.3067   -0.4778 C   0  0  0  0  0  0  0  0  0  0  0  0
    0.1701   -0.1053    0.2158 C   0  0  0  0  0  0  0  0  0  0  0  0
    0.1701    1.0962   -0.4778 C   0  0  0  0  0  0  0  0  0  0  0  0
    0.1701    1.0961   -1.8651 C   0  0  0  0  0  0  0  0  0  0  0  0
    0.1700   -0.1053   -2.5588 C   0  0  0  0  0  0  0  0  0  0  0  0
    0.1700   -2.2445   -2.4065 H   0  0  0  0  0  0  0  0  0  0  0  0
    0.1701   -2.2445    0.0637 H   0  0  0  0  0  0  0  0  0  0  0  0
    0.1701   -0.1052    1.5152 H   0  0  0  0  0  0  0  0  0  0  0  0
    0.1701    2.0340    0.0636 H   0  0  0  0  0  0  0  0  0  0  0  0
    0.1701    2.0339   -2.4066 H   0  0  0  0  0  0  0  0  0  0  0  0
    0.1700   -0.1053   -3.6416 H   0  0  0  0  0  0  0  0  0  0  0  0
   -1.0589    0.6044    3.3772 C   0  0  0  0  0  0  0  0  0  0  0  0
    0.1701   -0.1052    2.8250 C   0  0  0  0  0  3  0  0  0  0  0  0
   -0.8074    1.2110    4.2490 H   0  0  0  0  0  0  0  0  0  0  0  0
   -1.8251   -0.1106    3.6823 H   0  0  0  0  0  0  0  0  0  0  0  0
   -1.5027    1.2660    2.6312 H   0  0  0  0  0  0  0  0  0  0  0  0
    0.6138   -0.7668    3.5710 H   0  0  0  0  0  0  0  0  0  0  0  0
    0.9362    0.6097    2.5199 H   0  0  0  0  0  0  0  0  0  0  0  0
  1  2  2  0
  1  6  1  0
  1  7  1  0
  2  3  1  0
  2  8  1  0
  3  4  2  0
  3  9  1  0
  4  5  1  0
  4 10  1  0
  5  6  2  0
  5 11  1  0
  6 12  1  0
 13 14  1  0
 13 15  1  0
 13 16  1  0
 13 17  1  0
 14 18  1  0
 14 19  1  0
M  RAD  1  14   2
M  END
>  <reaction>  (11) 
rxn_279

>  <mol_properties>  (11) 
{"1": {"label": "*4", "atom_type": "Cd"}, "2": {"label": "*3", "atom_type": "Cd"}, "8": {"label": "*2", "atom_type": "H0"}, "12": {"label": "*0", "atom_type": "Cs"}, "13": {"label": "*1", "atom_type": "Cs"}}

>  <type>  (11) 
unop_7

>  <geom_source>  (11) 
Heuristics

$$$$

     RDKit          3D

 19 18  0  0  0  0  0  0  0  0999 V2000
   -0.1999   -1.2075   -1.8651 C   0  0  0  0  0  0  0  0  0  0  0  0
   -0.1999   -1.2075   -0.4778 C   0  0  0  0  0  0  0  0  0  0  0  0
   -0.1999   -0.0061    0.2158 C   0  0  0  0  0  0  0  0  0  0  0  0
   -0.1999    1.1954   -0.4779 C   0  0  0  0  0  0  0  0  0  0  0  0
   -0.1999    1.1953   -1.8652 C   0  0  0  0  0  0  0  0  0  0  0  0
   -0.1999   -0.0061   -2.5588 C   0  0  0  0  0  0  0  0  0  0  0  0
   -0.1999   -2.1453   -2.4065 H   0  0  0  0  0  0  0  0  0  0  0  0
   -0.1999   -2.1453    0.0636 H   0  0  0  0  0  0  0  0  0  0  0  0
   -0.1999   -0.0060    1.5152 H   0  0  0  0  0  0  0  0  0  0  0  0
   -0.1999    2.1332    0.0635 H   0  0  0  0  0  0  0  0  0  0  0  0
   -0.1999    2.1331   -2.4066 H   0  0  0  0  0  0  0  0  0  0  0  0
   -0.1999   -0.0061   -3.6417 H   0  0  0  0  0  0  0  0  0  0  0  0
    1.2192   -0.0060    3.3772 C   0  0  0  0  0  0  0  0  0  0  0  0
   -0.1999   -0.0060    2.8249 C   0  0  0  0  0  3  0  0  0  0  0  0
    1.3028    0.6386    4.2540 H   0  0  0  0  0  0  0  0  0  0  0  0
    1.9333    0.3530    2.6339 H   0  0  0  0  0  0  0  0  0  0  0  0
    1.5283   -1.0097    3.6744 H   0  0  0  0  0  0  0  0  0  0  0  0
   -0.5090    0.9976    2.5277 H   0  0  0  0  0  0  0  0  0  0  0  0
   -0.9139   -0.3651    3.5682 H   0  0  0  0  0  0  0  0  0  0  0  0
  1  2  2  0
  1  6  1  0
  1  7  1  0
  2  3  1  0
  2  8  1  0
  3  4  2  0
  3  9  1  0
  4  5  1  0
  4 10  1  0
  5  6  2  0
  5 11  1  0
  6 12  1  0
 13 14  1  0
 13 15  1  0
 13 16  1  0
 13 17  1  0
 14 18  1  0
 14 19  1  0
M  RAD  1  14   2
M  END
>  <reaction>  (12) 
rxn_279

>  <mol_properties>  (12) 
{"1": {"label": "*4", "atom_type": "Cd"}, "2": {"label": "*3", "atom_type": "Cd"}, "8": {"label": "*2", "atom_type": "H0"}, "12": {"label": "*0", "atom_type": "Cs"}, "13": {"label": "*1", "atom_type": "Cs"}}

>  <type>  (12) 
unop_8

>  <geom_source>  (12) 
Heuristics

$$$$

     RDKit          3D

 19 18  0  0  0  0  0  0  0  0999 V2000
    0.1022   -1.0304   -1.8667 C   0  0  0  0  0  0  0  0  0  0  0  0
    0.1022   -1.0304   -0.4794 C   0  0  0  0  0  0  0  0  0  0  0  0
    0.1022    0.1711    0.2142 C   0  0  0  0  0  0  0  0  0  0  0  0
    0.1022    1.3725   -0.4795 C   0  0  0  0  0  0  0  0  0  0  0  0
    0.1022    1.3725   -1.8667 C   0  0  0  0  0  0  0  0  0  0  0  0
    0.1022    0.1710   -2.5604 C   0  0  0  0  0  0  0  0  0  0  0  0
    0.1022   -1.9682   -2.4081 H   0  0  0  0  0  0  0  0  0  0  0  0
    0.1022   -1.9681    0.0620 H   0  0  0  0  0  0  0  0  0  0  0  0
    0.1022    0.1711    1.5136 H   0  0  0  0  0  0  0  0  0  0  0  0
    0.1022    2.3103    0.0620 H   0  0  0  0  0  0  0  0  0  0  0  0
    0.1022    2.3102   -2.4082 H   0  0  0  0  0  0  0  0  0  0  0  0
    0.1022    0.1710   -3.6433 H   0  0  0  0  0  0  0  0  0  0  0  0
   -0.6074   -1.0578    3.3756 C   0  0  0  0  0  0  0  0  0  0  0  0
    0.1022    0.1711    2.8233 C   0  0  0  0  0  3  0  0  0  0  0  0
   -0.8893   -0.9160    4.4204 H   0  0  0  0  0  0  0  0  0  0  0  0
    0.0317   -1.9410    3.3229 H   0  0  0  0  0  0  0  0  0  0  0  0
   -1.5178   -1.2749    2.8143 H   0  0  0  0  0  0  0  0  0  0  0  0
    1.0127    0.3882    3.3847 H   0  0  0  0  0  0  0  0  0  0  0  0
   -0.5369    1.0543    2.8761 H   0  0  0  0  0  0  0  0  0  0  0  0
  1  2  2  0
  1  6  1  0
  1  7  1  0
  2  3  1  0
  2  8  1  0
  3  4  2  0
  3  9  1  0
  4  5  1  0
  4 10  1  0
  5  6  2  0
  5 11  1  0
  6 12  1  0
 13 14  1  0
 13 15  1  0
 13 16  1  0
 13 17  1  0
 14 18  1  0
 14 19  1  0
M  RAD  1  14   2
M  END
>  <reaction>  (13) 
rxn_279

>  <mol_properties>  (13) 
{"1": {"label": "*4", "atom_type": "Cd"}, "2": {"label": "*3", "atom_type": "Cd"}, "8": {"label": "*2", "atom_type": "H0"}, "12": {"label": "*0", "atom_type": "Cs"}, "13": {"label": "*1", "atom_type": "Cs"}}

>  <type>  (13) 
unop_9

>  <geom_source>  (13) 
Heuristics

$$$$

     RDKit          3D

 19 18  0  0  0  0  0  0  0  0999 V2000
   -0.1754   -1.1060   -1.8658 C   0  0  0  0  0  0  0  0  0  0  0  0
   -0.1754   -1.1060   -0.4785 C   0  0  0  0  0  0  0  0  0  0  0  0
   -0.1754    0.0955    0.2151 C   0  0  0  0  0  0  0  0  0  0  0  0
   -0.1754    1.2969   -0.4786 C   0  0  0  0  0  0  0  0  0  0  0  0
   -0.1754    1.2968   -1.8659 C   0  0  0  0  0  0  0  0  0  0  0  0
   -0.1754    0.0954   -2.5595 C   0  0  0  0  0  0  0  0  0  0  0  0
   -0.1754   -2.0438   -2.4072 H   0  0  0  0  0  0  0  0  0  0  0  0
   -0.1754   -2.0438    0.0629 H   0  0  0  0  0  0  0  0  0  0  0  0
   -0.1754    0.0955    1.5145 H   0  0  0  0  0  0  0  0  0  0  0  0
   -0.1754    2.2347    0.0629 H   0  0  0  0  0  0  0  0  0  0  0  0
   -0.1754    2.2346   -2.4073 H   0  0  0  0  0  0  0  0  0  0  0  0
   -0.1754    0.0954   -3.6424 H   0  0  0  0  0  0  0  0  0  0  0  0
    1.0536   -0.6141    3.3765 C   0  0  0  0  0  0  0  0  0  0  0  0
   -0.1754    0.0955    2.8242 C   0  0  0  0  0  3  0  0  0  0  0  0
    1.3686   -0.1786    4.3265 H   0  0  0  0  0  0  0  0  0  0  0  0
    1.8954   -0.5434    2.6855 H   0  0  0  0  0  0  0  0  0  0  0  0
    0.8552   -1.6735    3.5483 H   0  0  0  0  0  0  0  0  0  0  0  0
    0.0230    1.1549    2.6524 H   0  0  0  0  0  0  0  0  0  0  0  0
   -1.0172    0.0248    3.5153 H   0  0  0  0  0  0  0  0  0  0  0  0
  1  2  2  0
  1  6  1  0
  1  7  1  0
  2  3  1  0
  2  8  1  0
  3  4  2  0
  3  9  1  0
  4  5  1  0
  4 10  1  0
  5  6  2  0
  5 11  1  0
  6 12  1  0
 13 14  1  0
 13 15  1  0
 13 16  1  0
 13 17  1  0
 14 18  1  0
 14 19  1  0
M  RAD  1  14   2
M  END
>  <reaction>  (14) 
rxn_279

>  <mol_properties>  (14) 
{"1": {"label": "*4", "atom_type": "Cd"}, "2": {"label": "*3", "atom_type": "Cd"}, "8": {"label": "*2", "atom_type": "H0"}, "12": {"label": "*0", "atom_type": "Cs"}, "13": {"label": "*1", "atom_type": "Cs"}}

>  <type>  (14) 
unop_10

>  <geom_source>  (14) 
Heuristics

$$$$

     RDKit          3D

 19 18  0  0  0  0  0  0  0  0999 V2000
    0.0958   -1.3766   -1.8660 C   0  0  0  0  0  0  0  0  0  0  0  0
    0.0958   -1.3766   -0.4787 C   0  0  0  0  0  0  0  0  0  0  0  0
    0.0958   -0.1751    0.2149 C   0  0  0  0  0  0  0  0  0  0  0  0
    0.0958    1.0263   -0.4788 C   0  0  0  0  0  0  0  0  0  0  0  0
    0.0958    1.0263   -1.8661 C   0  0  0  0  0  0  0  0  0  0  0  0
    0.0958   -0.1751   -2.5597 C   0  0  0  0  0  0  0  0  0  0  0  0
    0.0958   -2.3143   -2.4074 H   0  0  0  0  0  0  0  0  0  0  0  0
    0.0958   -2.3143    0.0627 H   0  0  0  0  0  0  0  0  0  0  0  0
    0.0958   -0.1751    1.5143 H   0  0  0  0  0  0  0  0  0  0  0  0
    0.0958    1.9641    0.0626 H   0  0  0  0  0  0  0  0  0  0  0  0
    0.0958    1.9641   -2.4075 H   0  0  0  0  0  0  0  0  0  0  0  0
    0.0958   -0.1752   -3.6426 H   0  0  0  0  0  0  0  0  0  0  0  0
   -0.6138    1.0539    3.3763 C   0  0  0  0  0  0  0  0  0  0  0  0
    0.0958   -0.1751    2.8240 C   0  0  0  0  0  3  0  0  0  0  0  0
   -0.2113    1.3393    4.3498 H   0  0  0  0  0  0  0  0  0  0  0  0
   -1.6825    0.8712    3.5014 H   0  0  0  0  0  0  0  0  0  0  0  0
   -0.5009    1.9097    2.7084 H   0  0  0  0  0  0  0  0  0  0  0  0
   -0.0171   -1.0308    3.4919 H   0  0  0  0  0  0  0  0  0  0  0  0
    1.1645    0.0077    2.6989 H   0  0  0  0  0  0  0  0  0  0  0  0
  1  2  2  0
  1  6  1  0
  1  7  1  0
  2  3  1  0
  2  8  1  0
  3  4  2  0
  3  9  1  0
  4  5  1  0
  4 10  1  0
  5  6  2  0
  5 11  1  0
  6 12  1  0
 13 14  1  0
 13 15  1  0
 13 16  1  0
 13 17  1  0
 14 18  1  0
 14 19  1  0
M  RAD  1  14   2
M  END
>  <reaction>  (15) 
rxn_279

>  <mol_properties>  (15) 
{"1": {"label": "*4", "atom_type": "Cd"}, "2": {"label": "*3", "atom_type": "Cd"}, "8": {"label": "*2", "atom_type": "H0"}, "12": {"label": "*0", "atom_type": "Cs"}, "13": {"label": "*1", "atom_type": "Cs"}}

>  <type>  (15) 
unop_11

>  <geom_source>  (15) 
Heuristics

$$$$

     RDKit          3D

 19 18  0  0  0  0  0  0  0  0999 V2000
   -0.0000   -1.0024   -1.8671 C   0  0  0  0  0  0  0  0  0  0  0  0
   -0.0000   -1.0024   -0.4799 C   0  0  0  0  0  0  0  0  0  0  0  0
    0.0000    0.1991    0.2138 C   0  0  0  0  0  0  0  0  0  0  0  0
    0.0000    1.4005   -0.4799 C   0  0  0  0  0  0  0  0  0  0  0  0
    0.0000    1.4005   -1.8672 C   0  0  0  0  0  0  0  0  0  0  0  0
   -0.0000    0.1990   -2.5608 C   0  0  0  0  0  0  0  0  0  0  0  0
   -0.0000   -1.9401   -2.4086 H   0  0  0  0  0  0  0  0  0  0  0  0
   -0.0000   -1.9401    0.0616 H   0  0  0  0  0  0  0  0  0  0  0  0
    0.0000    0.1991    1.5132 H   0  0  0  0  0  0  0  0  0  0  0  0
    0.0000    2.3383    0.0615 H   0  0  0  0  0  0  0  0  0  0  0  0
    0.0000    2.3382   -2.4086 H   0  0  0  0  0  0  0  0  0  0  0  0
   -0.0000    0.1990   -3.6437 H   0  0  0  0  0  0  0  0  0  0  0  0
   -0.0000   -1.2200    3.3752 C   0  0  0  0  0  0  0  0  0  0  0  0
    0.0000    0.1991    2.8229 C   0  0  0  0  0  3  0  0  0  0  0  0
   -0.0000   -1.2199    4.4666 H   0  0  0  0  0  0  0  0  0  0  0  0
    0.8808   -1.7733    3.0449 H   0  0  0  0  0  0  0  0  0  0  0  0
   -0.8808   -1.7733    3.0449 H   0  0  0  0  0  0  0  0  0  0  0  0
    0.8808    0.7525    3.1532 H   0  0  0  0  0  0  0  0  0  0  0  0
   -0.8808    0.7525    3.1532 H   0  0  0  0  0  0  0  0  0  0  0  0
  1  2  2  0
  1  6  1  0
  1  7  1  0
  2  3  1  0
  2  8  1  0
  3  4  2  0
  3  9  1  0
  4  5  1  0
  4 10  1  0
  5  6  2  0
  5 11  1  0
  6 12  1  0
 13 14  1  0
 13 15  1  0
 13 16  1  0
 13 17  1  0
 14 18  1  0
 14 19  1  0
M  RAD  1  14   2
M  END
>  <reaction>  (16) 
rxn_279

>  <mol_properties>  (16) 
{"1": {"label": "*4", "atom_type": "Cd"}, "2": {"label": "*3", "atom_type": "Cd"}, "8": {"label": "*2", "atom_type": "H0"}, "12": {"label": "*0", "atom_type": "Cs"}, "13": {"label": "*1", "atom_type": "Cs"}}

>  <type>  (16) 
unop_12

>  <geom_source>  (16) 
Heuristics

$$$$

     RDKit          3D

 19 18  0  0  0  0  0  0  0  0999 V2000
    2.1762    0.5274   -0.4134 C   0  0  0  0  0  3  0  0  0  0  0  0
    3.0356   -0.2004    0.6045 C   0  0  0  0  0  0  0  0  0  0  0  0
   -2.9662   -0.2895    0.3136 C   0  0  0  0  0  0  0  0  0  0  0  0
   -2.2124   -1.3584   -0.1837 C   0  0  0  0  0  0  0  0  0  0  0  0
   -2.4147    0.9958    0.3548 C   0  0  0  0  0  0  0  0  0  0  0  0
   -0.9076   -1.1413   -0.6395 C   0  0  0  0  0  0  0  0  0  0  0  0
   -1.1098    1.2116   -0.1013 C   0  0  0  0  0  0  0  0  0  0  0  0
   -0.3571    0.1432   -0.5980 C   0  0  0  0  0  0  0  0  0  0  0  0
    2.0883    1.5989   -0.1357 H   0  0  0  0  0  0  0  0  0  0  0  0
    2.6361    0.4482   -1.4210 H   0  0  0  0  0  0  0  0  0  0  0  0
    0.9053   -0.0442   -0.4435 H   0  0  0  0  0  0  0  0  0  0  0  0
    2.5714   -0.1218    1.6097 H   0  0  0  0  0  0  0  0  0  0  0  0
    4.0501    0.2501    0.6335 H   0  0  0  0  0  0  0  0  0  0  0  0
    3.1188   -1.2716    0.3254 H   0  0  0  0  0  0  0  0  0  0  0  0
   -2.6386   -2.3527   -0.2158 H   0  0  0  0  0  0  0  0  0  0  0  0
   -3.9757   -0.4570    0.6663 H   0  0  0  0  0  0  0  0  0  0  0  0
   -2.9975    1.8228    0.7394 H   0  0  0  0  0  0  0  0  0  0  0  0
   -0.3220   -1.9653   -1.0246 H   0  0  0  0  0  0  0  0  0  0  0  0
   -0.6802    2.2040   -0.0708 H   0  0  0  0  0  0  0  0  0  0  0  0
  1  2  1  0
  1  9  1  0
  1 10  1  0
  2 12  1  0
  2 13  1  0
  2 14  1  0
  3  4  2  0
  3  5  1  0
  3 16  1  0
  4  6  1  0
  4 15  1  0
  5  7  2  0
  5 17  1  0
  6  8  2  0
  6 18  1  0
  7  8  1  0
  7 19  1  0
  8 11  1  0
M  RAD  1   1   2
M  END
>  <reaction>  (17) 
rxn_279

>  <mol_properties>  (17) 
{"1": {"label": "*4", "atom_type": "Cd"}, "2": {"label": "*3", "atom_type": "Cd"}, "8": {"label": "*2", "atom_type": "H0"}, "12": {"label": "*0", "atom_type": "Cs"}, "13": {"label": "*1", "atom_type": "Cs"}}

>  <type>  (17) 
unop_13

>  <geom_source>  (17) 
AutoTST

$$$$
