
     RDKit          3D

 25 26  0  0  0  0  0  0  0  0999 V2000
    2.0298   -1.1515    0.0571 C   0  0  0  0  0  0  0  0  0  0  0  0
    2.2278    0.2445    0.6528 C   0  0  0  0  0  0  0  0  0  0  0  0
    1.2292    1.2625    0.0947 C   0  0  0  0  0  0  0  0  0  0  0  0
   -0.1869    0.7454    0.2762 C   0  0  0  0  0  0  0  0  0  0  0  0
   -1.3415    1.5501   -0.3122 C   0  0  0  0  0  0  0  0  0  0  0  0
   -2.5060    0.5338   -0.4178 C   0  0  0  0  0  0  0  0  0  0  0  0
   -1.8709   -0.8658   -0.2234 C   0  0  0  0  0  0  0  0  0  0  0  0
   -0.3715   -0.6265   -0.3693 C   0  0  0  0  0  0  0  0  0  0  0  0
    0.5898   -1.6500    0.2086 C   0  0  0  0  0  0  0  0  0  0  0  0
    2.2820   -1.1226   -1.0088 H   0  0  0  0  0  0  0  0  0  0  0  0
    2.7243   -1.8549    0.5221 H   0  0  0  0  0  0  0  0  0  0  0  0
    2.1030    0.1885    1.7400 H   0  0  0  0  0  0  0  0  0  0  0  0
    3.2514    0.5819    0.4743 H   0  0  0  0  0  0  0  0  0  0  0  0
    1.3611    2.2304    0.5855 H   0  0  0  0  0  0  0  0  0  0  0  0
    1.4198    1.4194   -0.9737 H   0  0  0  0  0  0  0  0  0  0  0  0
   -0.3675    0.6209    1.3539 H   0  0  0  0  0  0  0  0  0  0  0  0
   -1.5992    2.4249    0.2862 H   0  0  0  0  0  0  0  0  0  0  0  0
   -1.0595    1.9116   -1.3055 H   0  0  0  0  0  0  0  0  0  0  0  0
   -3.2666    0.7244    0.3399 H   0  0  0  0  0  0  0  0  0  0  0  0
   -3.0030    0.6112   -1.3853 H   0  0  0  0  0  0  0  0  0  0  0  0
   -2.2549   -1.6039   -0.9288 H   0  0  0  0  0  0  0  0  0  0  0  0
   -2.0796   -1.2429    0.7821 H   0  0  0  0  0  0  0  0  0  0  0  0
   -0.1432   -0.5121   -1.4391 H   0  0  0  0  0  0  0  0  0  0  0  0
    0.4720   -2.6209   -0.2799 H   0  0  0  0  0  0  0  0  0  0  0  0
    0.3601   -1.7986    1.2704 H   0  0  0  0  0  0  0  0  0  0  0  0
  1  2  1  0
  1  9  1  0
  1 10  1  0
  1 11  1  0
  2  3  1  0
  2 12  1  0
  2 13  1  0
  3  4  1  0
  3 14  1  0
  3 15  1  0
  4  5  1  0
  4  8  1  0
  4 16  1  0
  5  6  1  0
  5 17  1  0
  5 18  1  0
  6  7  1  0
  6 19  1  0
  6 20  1  0
  7  8  1  0
  7 21  1  0
  7 22  1  0
  8  9  1  0
  8 23  1  0
  9 24  1  0
  9 25  1  0
M  END
>  <reaction>  (1) 
rxn_604

>  <mol_properties>  (1) 
{"5": {"label": "donator", "atom_type": "Cs"}, "18": {"label": "d_hydrogen", "atom_type": "H0"}}

>  <type>  (1) 
r1h

$$$$

     RDKit          3D

 11 10  0  0  0  0  0  0  0  0999 V2000
    2.0591    0.2533   -0.1061 C   0  0  0  0  0  0  0  0  0  0  0  0
    0.8045   -0.3111   -0.1535 C   0  0  0  0  0  0  0  0  0  0  0  0
   -0.3816    0.3942   -0.1885 C   0  0  0  0  0  3  0  0  0  0  0  0
   -1.7316   -0.2294   -0.2396 C   0  0  0  0  0  0  0  0  0  0  0  0
    2.9505   -0.3576   -0.0805 H   0  0  0  0  0  0  0  0  0  0  0  0
    2.1872    1.3290   -0.0933 H   0  0  0  0  0  0  0  0  0  0  0  0
    0.7385   -1.3970   -0.1643 H   0  0  0  0  0  0  0  0  0  0  0  0
   -0.3340    1.4795   -0.1783 H   0  0  0  0  0  0  0  0  0  0  0  0
   -1.6704   -1.3186   -0.2461 H   0  0  0  0  0  0  0  0  0  0  0  0
   -2.3404    0.0713    0.6191 H   0  0  0  0  0  0  0  0  0  0  0  0
   -2.2805    0.0851   -1.1331 H   0  0  0  0  0  0  0  0  0  0  0  0
  1  2  2  3
  1  5  1  0
  1  6  1  0
  2  3  1  0
  2  7  1  0
  3  4  1  0
  3  8  1  0
  4  9  1  0
  4 10  1  0
  4 11  1  0
M  RAD  1   3   2
M  END
>  <reaction>  (2) 
rxn_604

>  <mol_properties>  (2) 
{"2": {"label": "acceptor", "atom_type": "Cs"}}

>  <type>  (2) 
r2

$$$$

     RDKit          3D

 12 11  0  0  0  0  0  0  0  0999 V2000
    1.9877    0.1011    0.4814 C   0  0  0  0  0  0  0  0  0  0  0  0
    0.8179    0.5502    0.0525 C   0  0  0  0  0  0  0  0  0  0  0  0
   -0.2939   -0.2692   -0.5320 C   0  0  0  0  0  0  0  0  0  0  0  0
   -0.0292   -1.7631   -0.6328 C   0  0  0  0  0  0  0  0  0  0  0  0
    2.2522   -0.9490    0.4436 H   0  0  0  0  0  0  0  0  0  0  0  0
    2.7295    0.7757    0.8896 H   0  0  0  0  0  0  0  0  0  0  0  0
    0.6162    1.6164    0.1190 H   0  0  0  0  0  0  0  0  0  0  0  0
   -0.5268    0.1319   -1.5245 H   0  0  0  0  0  0  0  0  0  0  0  0
   -1.1959   -0.0938    0.0644 H   0  0  0  0  0  0  0  0  0  0  0  0
    0.1590   -2.1992    0.3502 H   0  0  0  0  0  0  0  0  0  0  0  0
    0.8382   -1.9701   -1.2626 H   0  0  0  0  0  0  0  0  0  0  0  0
   -0.8879   -2.2759   -1.0672 H   0  0  0  0  0  0  0  0  0  0  0  0
  1  2  2  3
  1  5  1  0
  1  6  1  0
  2  3  1  0
  2  7  1  0
  3  4  1  0
  3  8  1  0
  3  9  1  0
  4 10  1  0
  4 11  1  0
  4 12  1  0
M  END
>  <reaction>  (3) 
rxn_604

>  <mol_properties>  (3) 
{"2": {"label": "acceptor", "atom_type": "Cs"}, "11": {"label": "a_hydrogen", "atom_type": "H0"}}

>  <type>  (3) 
r2h

$$$$

     RDKit          3D

 36 36  0  0  0  0  0  0  0  0999 V2000
   -1.5021    2.3016    1.6143 C   0  0  0  0  0  0  0  0  0  0  0  0
   -0.1981    2.3885    1.3419 C   0  0  0  0  0  0  0  0  0  0  0  0
    0.4035    2.9272    0.1212 C   0  0  0  0  0  0  0  0  0  0  0  0
   -0.4642    3.7379   -0.8106 C   0  0  0  0  0  0  0  0  0  0  0  0
   -1.8517    1.8505    2.5338 H   0  0  0  0  0  0  0  0  0  0  0  0
   -2.2580    2.6852    0.9394 H   0  0  0  0  0  0  0  0  0  0  0  0
    0.5031    1.9873    2.0695 H   0  0  0  0  0  0  0  0  0  0  0  0
    1.3781    3.3803    0.3049 H   0  0  0  0  0  0  0  0  0  0  0  0
   -0.8526    4.6341   -0.3185 H   0  0  0  0  0  0  0  0  0  0  0  0
    0.1022    4.0516   -1.6883 H   0  0  0  0  0  0  0  0  0  0  0  0
   -1.3208    3.1584   -1.1623 H   0  0  0  0  0  0  0  0  0  0  0  0
   -1.1081   -3.2120    0.3732 C   0  0  0  0  0  0  0  0  0  0  0  0
   -0.0272   -3.0015    1.4368 C   0  0  0  0  0  0  0  0  0  0  0  0
    1.2065   -2.2826    0.8822 C   0  0  0  0  0  0  0  0  0  0  0  0
    0.7797   -0.9885    0.2147 C   0  0  1  0  0  0  0  0  0  0  0  0
    1.8262   -0.1315   -0.4917 C   0  0  0  0  0  0  0  0  0  0  0  0
    0.9839    0.7676   -1.3799 C   0  0  0  0  0  3  0  0  0  0  0  0
   -0.3862    0.1273   -1.5595 C   0  0  0  0  0  0  0  0  0  0  0  0
   -0.2481   -1.2420   -0.8883 C   0  0  2  0  0  0  0  0  0  0  0  0
   -1.4941   -1.9097   -0.3343 C   0  0  0  0  0  0  0  0  0  0  0  0
   -0.7376   -3.9219   -0.3748 H   0  0  0  0  0  0  0  0  0  0  0  0
   -1.9892   -3.6708    0.8275 H   0  0  0  0  0  0  0  0  0  0  0  0
   -0.4441   -2.4017    2.2534 H   0  0  0  0  0  0  0  0  0  0  0  0
    0.2578   -3.9629    1.8703 H   0  0  0  0  0  0  0  0  0  0  0  0
    1.9259   -2.0945    1.6836 H   0  0  0  0  0  0  0  0  0  0  0  0
    1.7090   -2.9217    0.1463 H   0  0  0  0  0  0  0  0  0  0  0  0
    0.2889   -0.3599    0.9699 H   0  0  0  0  0  0  0  0  0  0  0  0
    2.4629    0.4295    0.1986 H   0  0  0  0  0  0  0  0  0  0  0  0
    2.4891   -0.7657   -1.0938 H   0  0  0  0  0  0  0  0  0  0  0  0
    0.7460    1.8966   -0.5866 H   0  0  0  0  0  0  0  0  0  0  0  0
    1.4614    1.2010   -2.2549 H   0  0  0  0  0  0  0  0  0  0  0  0
   -0.6900    0.0620   -2.6060 H   0  0  0  0  0  0  0  0  0  0  0  0
   -1.1564    0.7106   -1.0393 H   0  0  0  0  0  0  0  0  0  0  0  0
    0.2157   -1.9296   -1.6098 H   0  0  0  0  0  0  0  0  0  0  0  0
   -2.2199   -2.1110   -1.1267 H   0  0  0  0  0  0  0  0  0  0  0  0
   -1.9768   -1.2284    0.3762 H   0  0  0  0  0  0  0  0  0  0  0  0
  1  2  2  3
  1  5  1  0
  1  6  1  0
  2  3  1  0
  2  7  1  0
  3  4  1  0
  3  8  1  0
  3 30  1  0
  4  9  1  0
  4 10  1  0
  4 11  1  0
 12 13  1  0
 12 20  1  0
 12 21  1  0
 12 22  1  0
 13 14  1  0
 13 23  1  0
 13 24  1  0
 14 15  1  0
 14 25  1  0
 14 26  1  0
 15 16  1  0
 15 19  1  0
 15 27  1  1
 16 17  1  0
 16 28  1  0
 16 29  1  0
 17 18  1  0
 17 31  1  0
 18 19  1  0
 18 32  1  0
 18 33  1  0
 19 20  1  0
 19 34  1  6
 20 35  1  0
 20 36  1  0
M  RAD  1  17   2
M  END
>  <reaction>  (4) 
rxn_604

>  <mol_properties>  (4) 
{"1": {"label": "*0", "atom_type": "Cd"}, "2": {"label": "*1", "atom_type": "Cs"}, "15": {"label": "*4", "atom_type": "Cs"}, "16": {"label": "*3", "atom_type": "Cs"}, "29": {"label": "*2", "atom_type": "H0"}}

>  <type>  (4) 
ts

$$$$

     RDKit          3D

 36 36  0  0  0  0  0  0  0  0999 V2000
    1.1346    5.1147    0.9457 C   0  0  0  0  0  0  0  0  0  0  0  0
    1.0975    3.9394    0.3365 C   0  0  0  0  0  0  0  0  0  0  0  0
    0.0588    2.8726    0.5157 C   0  0  0  0  0  3  0  0  0  0  0  0
   -1.0538    3.1946    1.5007 C   0  0  0  0  0  0  0  0  0  0  0  0
    1.9307    5.8214    0.7483 H   0  0  0  0  0  0  0  0  0  0  0  0
    0.3792    5.4186    1.6607 H   0  0  0  0  0  0  0  0  0  0  0  0
    1.8872    3.6969   -0.3702 H   0  0  0  0  0  0  0  0  0  0  0  0
   -0.3717    2.6480   -0.4664 H   0  0  0  0  0  0  0  0  0  0  0  0
   -1.6090    4.0834    1.1946 H   0  0  0  0  0  0  0  0  0  0  0  0
   -1.7595    2.3657    1.5662 H   0  0  0  0  0  0  0  0  0  0  0  0
   -0.6568    3.3759    2.5014 H   0  0  0  0  0  0  0  0  0  0  0  0
   -1.1235   -3.6690   -1.1403 C   0  0  0  0  0  0  0  0  0  0  0  0
   -1.1235   -3.6690    0.3903 C   0  0  0  0  0  0  0  0  0  0  0  0
    0.0196   -2.8326    0.9723 C   0  0  0  0  0  0  0  0  0  0  0  0
   -0.0200   -1.4316    0.3882 C   0  0  0  0  0  0  0  0  0  0  0  0
    1.0991   -0.4578    0.7436 C   0  0  0  0  0  0  0  0  0  0  0  0
    1.0491    0.6127   -0.3750 C   0  0  0  0  0  0  0  0  0  0  0  0
    0.1556    0.0209   -1.4936 C   0  0  0  0  0  0  0  0  0  0  0  0
    0.0305   -1.4572   -1.1382 C   0  0  0  0  0  0  0  0  0  0  0  0
   -1.1235   -2.2525   -1.7223 C   0  0  0  0  0  0  0  0  0  0  0  0
   -0.2311   -4.1958   -1.4962 H   0  0  0  0  0  0  0  0  0  0  0  0
   -1.9844   -4.2301   -1.5110 H   0  0  0  0  0  0  0  0  0  0  0  0
   -2.0756   -3.2598    0.7462 H   0  0  0  0  0  0  0  0  0  0  0  0
   -1.0680   -4.6951    0.7610 H   0  0  0  0  0  0  0  0  0  0  0  0
   -0.0476   -2.8066    2.0631 H   0  0  0  0  0  0  0  0  0  0  0  0
    0.9811   -3.2977    0.7242 H   0  0  0  0  0  0  0  0  0  0  0  0
   -0.9788   -0.9727    0.6707 H   0  0  0  0  0  0  0  0  0  0  0  0
    0.9902   -0.0299    1.7410 H   0  0  0  0  0  0  0  0  0  0  0  0
    2.0567   -0.9864    0.7232 H   0  0  0  0  0  0  0  0  0  0  0  0
    0.5551    1.7400    0.0693 H   0  0  0  0  0  0  0  0  0  0  0  0
    2.0503    0.8352   -0.7453 H   0  0  0  0  0  0  0  0  0  0  0  0
    0.5652    0.1858   -2.4910 H   0  0  0  0  0  0  0  0  0  0  0  0
   -0.8364    0.4816   -1.4732 H   0  0  0  0  0  0  0  0  0  0  0  0
    0.9670   -1.9601   -1.4207 H   0  0  0  0  0  0  0  0  0  0  0  0
   -1.0629   -2.2915   -2.8131 H   0  0  0  0  0  0  0  0  0  0  0  0
   -2.0667   -1.7512   -1.4742 H   0  0  0  0  0  0  0  0  0  0  0  0
  1  2  2  3
  1  5  1  0
  1  6  1  0
  2  3  1  0
  2  7  1  0
  3  4  1  0
  3  8  1  0
  4  9  1  0
  4 10  1  0
  4 11  1  0
 12 13  1  0
 12 20  1  0
 12 21  1  0
 12 22  1  0
 13 14  1  0
 13 23  1  0
 13 24  1  0
 14 15  1  0
 14 25  1  0
 14 26  1  0
 15 16  1  0
 15 19  1  0
 15 27  1  0
 16 17  1  0
 16 28  1  0
 16 29  1  0
 17 18  1  0
 17 30  1  0
 17 31  1  0
 18 19  1  0
 18 32  1  0
 18 33  1  0
 19 20  1  0
 19 34  1  0
 20 35  1  0
 20 36  1  0
M  RAD  1   3   2
M  END
>  <reaction>  (5) 
rxn_604

>  <mol_properties>  (5) 
{"1": {"label": "*0", "atom_type": "Cd"}, "2": {"label": "*1", "atom_type": "Cs"}, "15": {"label": "*4", "atom_type": "Cs"}, "16": {"label": "*3", "atom_type": "Cs"}, "29": {"label": "*2", "atom_type": "H0"}}

>  <type>  (5) 
unop_1

>  <geom_source>  (5) 
Heuristics

$$$$

     RDKit          3D

 36 36  0  0  0  0  0  0  0  0999 V2000
   -0.1885    3.6579    2.7657 C   0  0  0  0  0  0  0  0  0  0  0  0
    0.5882    3.1703    1.8101 C   0  0  0  0  0  0  0  0  0  0  0  0
    0.2474    3.0539    0.3543 C   0  0  0  0  0  3  0  0  0  0  0  0
   -1.1336    3.5517   -0.0414 C   0  0  0  0  0  0  0  0  0  0  0  0
    0.1496    3.7000    3.7933 H   0  0  0  0  0  0  0  0  0  0  0  0
   -1.1853    4.0322    2.5648 H   0  0  0  0  0  0  0  0  0  0  0  0
    1.5781    2.8110    2.0799 H   0  0  0  0  0  0  0  0  0  0  0  0
    1.0113    3.5914   -0.2182 H   0  0  0  0  0  0  0  0  0  0  0  0
   -1.2560    4.6104    0.1955 H   0  0  0  0  0  0  0  0  0  0  0  0
   -1.2929    3.4283   -1.1132 H   0  0  0  0  0  0  0  0  0  0  0  0
   -1.9182    2.9993    0.4794 H   0  0  0  0  0  0  0  0  0  0  0  0
   -0.9349   -3.4877   -1.3017 C   0  0  0  0  0  0  0  0  0  0  0  0
   -0.9349   -3.4877    0.2289 C   0  0  0  0  0  0  0  0  0  0  0  0
    0.2083   -2.6513    0.8109 C   0  0  0  0  0  0  0  0  0  0  0  0
    0.1687   -1.2503    0.2268 C   0  0  0  0  0  0  0  0  0  0  0  0
    1.2877   -0.2765    0.5822 C   0  0  0  0  0  0  0  0  0  0  0  0
    1.2377    0.7940   -0.5364 C   0  0  0  0  0  0  0  0  0  0  0  0
    0.3443    0.2022   -1.6550 C   0  0  0  0  0  0  0  0  0  0  0  0
    0.2192   -1.2759   -1.2996 C   0  0  0  0  0  0  0  0  0  0  0  0
   -0.9349   -2.0712   -1.8837 C   0  0  0  0  0  0  0  0  0  0  0  0
   -0.0424   -4.0145   -1.6576 H   0  0  0  0  0  0  0  0  0  0  0  0
   -1.7957   -4.0488   -1.6724 H   0  0  0  0  0  0  0  0  0  0  0  0
   -1.8870   -3.0785    0.5848 H   0  0  0  0  0  0  0  0  0  0  0  0
   -0.8793   -4.5138    0.5996 H   0  0  0  0  0  0  0  0  0  0  0  0
    0.1410   -2.6253    1.9017 H   0  0  0  0  0  0  0  0  0  0  0  0
    1.1698   -3.1164    0.5628 H   0  0  0  0  0  0  0  0  0  0  0  0
   -0.7901   -0.7915    0.5093 H   0  0  0  0  0  0  0  0  0  0  0  0
    1.1789    0.1514    1.5796 H   0  0  0  0  0  0  0  0  0  0  0  0
    2.2453   -0.8051    0.5618 H   0  0  0  0  0  0  0  0  0  0  0  0
    0.7438    1.9213   -0.0921 H   0  0  0  0  0  0  0  0  0  0  0  0
    2.2389    1.0165   -0.9067 H   0  0  0  0  0  0  0  0  0  0  0  0
    0.7539    0.3671   -2.6525 H   0  0  0  0  0  0  0  0  0  0  0  0
   -0.6478    0.6629   -1.6346 H   0  0  0  0  0  0  0  0  0  0  0  0
    1.1556   -1.7788   -1.5821 H   0  0  0  0  0  0  0  0  0  0  0  0
   -0.8742   -2.1102   -2.9745 H   0  0  0  0  0  0  0  0  0  0  0  0
   -1.8780   -1.5699   -1.6357 H   0  0  0  0  0  0  0  0  0  0  0  0
  1  2  2  3
  1  5  1  0
  1  6  1  0
  2  3  1  0
  2  7  1  0
  3  4  1  0
  3  8  1  0
  4  9  1  0
  4 10  1  0
  4 11  1  0
 12 13  1  0
 12 20  1  0
 12 21  1  0
 12 22  1  0
 13 14  1  0
 13 23  1  0
 13 24  1  0
 14 15  1  0
 14 25  1  0
 14 26  1  0
 15 16  1  0
 15 19  1  0
 15 27  1  0
 16 17  1  0
 16 28  1  0
 16 29  1  0
 17 18  1  0
 17 30  1  0
 17 31  1  0
 18 19  1  0
 18 32  1  0
 18 33  1  0
 19 20  1  0
 19 34  1  0
 20 35  1  0
 20 36  1  0
M  RAD  1   3   2
M  END
>  <reaction>  (6) 
rxn_604

>  <mol_properties>  (6) 
{"1": {"label": "*0", "atom_type": "Cd"}, "2": {"label": "*1", "atom_type": "Cs"}, "15": {"label": "*4", "atom_type": "Cs"}, "16": {"label": "*3", "atom_type": "Cs"}, "29": {"label": "*2", "atom_type": "H0"}}

>  <type>  (6) 
unop_2

>  <geom_source>  (6) 
Heuristics

$$$$

     RDKit          3D

 36 36  0  0  0  0  0  0  0  0999 V2000
    0.8891    5.2128    0.2277 C   0  0  0  0  0  0  0  0  0  0  0  0
    0.6675    3.9794   -0.2006 C   0  0  0  0  0  0  0  0  0  0  0  0
    0.0499    2.8592    0.5822 C   0  0  0  0  0  3  0  0  0  0  0  0
   -0.3547    3.1964    2.0085 C   0  0  0  0  0  0  0  0  0  0  0  0
    1.3430    5.9549   -0.4167 H   0  0  0  0  0  0  0  0  0  0  0  0
    0.6293    5.5313    1.2304 H   0  0  0  0  0  0  0  0  0  0  0  0
    0.9522    3.7254   -1.2186 H   0  0  0  0  0  0  0  0  0  0  0  0
   -0.8224    2.4966    0.0274 H   0  0  0  0  0  0  0  0  0  0  0  0
   -1.0932    4.0002    2.0313 H   0  0  0  0  0  0  0  0  0  0  0  0
   -0.7926    2.3261    2.4986 H   0  0  0  0  0  0  0  0  0  0  0  0
    0.5059    3.5156    2.5995 H   0  0  0  0  0  0  0  0  0  0  0  0
   -1.1324   -3.6823   -1.0738 C   0  0  0  0  0  0  0  0  0  0  0  0
   -1.1324   -3.6823    0.4568 C   0  0  0  0  0  0  0  0  0  0  0  0
    0.0107   -2.8459    1.0388 C   0  0  0  0  0  0  0  0  0  0  0  0
   -0.0289   -1.4450    0.4547 C   0  0  0  0  0  0  0  0  0  0  0  0
    1.0901   -0.4712    0.8101 C   0  0  0  0  0  0  0  0  0  0  0  0
    1.0402    0.5994   -0.3085 C   0  0  0  0  0  0  0  0  0  0  0  0
    0.1467    0.0075   -1.4271 C   0  0  0  0  0  0  0  0  0  0  0  0
    0.0216   -1.4706   -1.0717 C   0  0  0  0  0  0  0  0  0  0  0  0
   -1.1324   -2.2659   -1.6558 C   0  0  0  0  0  0  0  0  0  0  0  0
   -0.2400   -4.2091   -1.4297 H   0  0  0  0  0  0  0  0  0  0  0  0
   -1.9933   -4.2434   -1.4445 H   0  0  0  0  0  0  0  0  0  0  0  0
   -2.0846   -3.2732    0.8127 H   0  0  0  0  0  0  0  0  0  0  0  0
   -1.0769   -4.7084    0.8275 H   0  0  0  0  0  0  0  0  0  0  0  0
   -0.0566   -2.8200    2.1296 H   0  0  0  0  0  0  0  0  0  0  0  0
    0.9722   -3.3111    0.7907 H   0  0  0  0  0  0  0  0  0  0  0  0
   -0.9877   -0.9861    0.7372 H   0  0  0  0  0  0  0  0  0  0  0  0
    0.9813   -0.0432    1.8075 H   0  0  0  0  0  0  0  0  0  0  0  0
    2.0478   -0.9997    0.7897 H   0  0  0  0  0  0  0  0  0  0  0  0
    0.5462    1.7266    0.1358 H   0  0  0  0  0  0  0  0  0  0  0  0
    2.0414    0.8219   -0.6788 H   0  0  0  0  0  0  0  0  0  0  0  0
    0.5563    0.1724   -2.4246 H   0  0  0  0  0  0  0  0  0  0  0  0
   -0.8453    0.4683   -1.4067 H   0  0  0  0  0  0  0  0  0  0  0  0
    0.9581   -1.9734   -1.3542 H   0  0  0  0  0  0  0  0  0  0  0  0
   -1.0718   -2.3049   -2.7466 H   0  0  0  0  0  0  0  0  0  0  0  0
   -2.0756   -1.7646   -1.4078 H   0  0  0  0  0  0  0  0  0  0  0  0
  1  2  2  3
  1  5  1  0
  1  6  1  0
  2  3  1  0
  2  7  1  0
  3  4  1  0
  3  8  1  0
  4  9  1  0
  4 10  1  0
  4 11  1  0
 12 13  1  0
 12 20  1  0
 12 21  1  0
 12 22  1  0
 13 14  1  0
 13 23  1  0
 13 24  1  0
 14 15  1  0
 14 25  1  0
 14 26  1  0
 15 16  1  0
 15 19  1  0
 15 27  1  0
 16 17  1  0
 16 28  1  0
 16 29  1  0
 17 18  1  0
 17 30  1  0
 17 31  1  0
 18 19  1  0
 18 32  1  0
 18 33  1  0
 19 20  1  0
 19 34  1  0
 20 35  1  0
 20 36  1  0
M  RAD  1   3   2
M  END
>  <reaction>  (7) 
rxn_604

>  <mol_properties>  (7) 
{"1": {"label": "*0", "atom_type": "Cd"}, "2": {"label": "*1", "atom_type": "Cs"}, "15": {"label": "*4", "atom_type": "Cs"}, "16": {"label": "*3", "atom_type": "Cs"}, "29": {"label": "*2", "atom_type": "H0"}}

>  <type>  (7) 
unop_3

>  <geom_source>  (7) 
Heuristics

$$$$

     RDKit          3D

 36 36  0  0  0  0  0  0  0  0999 V2000
   -2.0974    2.9886    0.5155 C   0  0  0  0  0  0  0  0  0  0  0  0
   -0.9774    2.8836    1.2144 C   0  0  0  0  0  0  0  0  0  0  0  0
    0.4132    3.1474    0.7186 C   0  0  0  0  0  3  0  0  0  0  0  0
    0.5242    3.5774   -0.7356 C   0  0  0  0  0  0  0  0  0  0  0  0
   -3.0587    2.7753    0.9653 H   0  0  0  0  0  0  0  0  0  0  0  0
   -2.1023    3.2891   -0.5256 H   0  0  0  0  0  0  0  0  0  0  0  0
   -1.0430    2.5770    2.2553 H   0  0  0  0  0  0  0  0  0  0  0  0
    0.8661    3.9083    1.3638 H   0  0  0  0  0  0  0  0  0  0  0  0
   -0.0232    4.5043   -0.9175 H   0  0  0  0  0  0  0  0  0  0  0  0
    1.5669    3.7461   -1.0068 H   0  0  0  0  0  0  0  0  0  0  0  0
    0.1232    2.8146   -1.4059 H   0  0  0  0  0  0  0  0  0  0  0  0
   -0.7691   -3.3941   -0.9374 C   0  0  0  0  0  0  0  0  0  0  0  0
   -0.7691   -3.3941    0.5932 C   0  0  0  0  0  0  0  0  0  0  0  0
    0.3740   -2.5577    1.1752 C   0  0  0  0  0  0  0  0  0  0  0  0
    0.3344   -1.1567    0.5911 C   0  0  0  0  0  0  0  0  0  0  0  0
    1.4535   -0.1830    0.9465 C   0  0  0  0  0  0  0  0  0  0  0  0
    1.4035    0.8876   -0.1721 C   0  0  0  0  0  0  0  0  0  0  0  0
    0.5100    0.2958   -1.2907 C   0  0  0  0  0  0  0  0  0  0  0  0
    0.3849   -1.1824   -0.9353 C   0  0  0  0  0  0  0  0  0  0  0  0
   -0.7691   -1.9777   -1.5194 C   0  0  0  0  0  0  0  0  0  0  0  0
    0.1233   -3.9209   -1.2933 H   0  0  0  0  0  0  0  0  0  0  0  0
   -1.6300   -3.9552   -1.3081 H   0  0  0  0  0  0  0  0  0  0  0  0
   -1.7212   -2.9850    0.9491 H   0  0  0  0  0  0  0  0  0  0  0  0
   -0.7136   -4.4202    0.9639 H   0  0  0  0  0  0  0  0  0  0  0  0
    0.3068   -2.5318    2.2660 H   0  0  0  0  0  0  0  0  0  0  0  0
    1.3355   -3.0229    0.9271 H   0  0  0  0  0  0  0  0  0  0  0  0
   -0.6244   -0.6979    0.8736 H   0  0  0  0  0  0  0  0  0  0  0  0
    1.3446    0.2450    1.9439 H   0  0  0  0  0  0  0  0  0  0  0  0
    2.4111   -0.7115    0.9261 H   0  0  0  0  0  0  0  0  0  0  0  0
    0.9095    2.0149    0.2722 H   0  0  0  0  0  0  0  0  0  0  0  0
    2.4047    1.1101   -0.5424 H   0  0  0  0  0  0  0  0  0  0  0  0
    0.9197    0.4606   -2.2882 H   0  0  0  0  0  0  0  0  0  0  0  0
   -0.4820    0.7565   -1.2703 H   0  0  0  0  0  0  0  0  0  0  0  0
    1.3214   -1.6852   -1.2178 H   0  0  0  0  0  0  0  0  0  0  0  0
   -0.7085   -2.0166   -2.6102 H   0  0  0  0  0  0  0  0  0  0  0  0
   -1.7123   -1.4764   -1.2714 H   0  0  0  0  0  0  0  0  0  0  0  0
  1  2  2  3
  1  5  1  0
  1  6  1  0
  2  3  1  0
  2  7  1  0
  3  4  1  0
  3  8  1  0
  4  9  1  0
  4 10  1  0
  4 11  1  0
 12 13  1  0
 12 20  1  0
 12 21  1  0
 12 22  1  0
 13 14  1  0
 13 23  1  0
 13 24  1  0
 14 15  1  0
 14 25  1  0
 14 26  1  0
 15 16  1  0
 15 19  1  0
 15 27  1  0
 16 17  1  0
 16 28  1  0
 16 29  1  0
 17 18  1  0
 17 30  1  0
 17 31  1  0
 18 19  1  0
 18 32  1  0
 18 33  1  0
 19 20  1  0
 19 34  1  0
 20 35  1  0
 20 36  1  0
M  RAD  1   3   2
M  END
>  <reaction>  (8) 
rxn_604

>  <mol_properties>  (8) 
{"1": {"label": "*0", "atom_type": "Cd"}, "2": {"label": "*1", "atom_type": "Cs"}, "15": {"label": "*4", "atom_type": "Cs"}, "16": {"label": "*3", "atom_type": "Cs"}, "29": {"label": "*2", "atom_type": "H0"}}

>  <type>  (8) 
unop_4

>  <geom_source>  (8) 
Heuristics

$$$$

     RDKit          3D

 36 36  0  0  0  0  0  0  0  0999 V2000
    0.5800    5.0470   -0.4714 C   0  0  0  0  0  0  0  0  0  0  0  0
    0.0026    3.8553   -0.4507 C   0  0  0  0  0  0  0  0  0  0  0  0
    0.0187    2.8743    0.6835 C   0  0  0  0  0  3  0  0  0  0  0  0
    0.7804    3.3133    1.9240 C   0  0  0  0  0  0  0  0  0  0  0  0
    0.5113    5.6861   -1.3426 H   0  0  0  0  0  0  0  0  0  0  0  0
    1.1405    5.4318    0.3723 H   0  0  0  0  0  0  0  0  0  0  0  0
   -0.5451    3.5296   -1.3315 H   0  0  0  0  0  0  0  0  0  0  0  0
   -1.0189    2.6447    0.9498 H   0  0  0  0  0  0  0  0  0  0  0  0
    0.3584    4.2279    2.3451 H   0  0  0  0  0  0  0  0  0  0  0  0
    0.7384    2.5410    2.6928 H   0  0  0  0  0  0  0  0  0  0  0  0
    1.8313    3.5030    1.6972 H   0  0  0  0  0  0  0  0  0  0  0  0
   -1.1636   -3.6672   -0.9725 C   0  0  0  0  0  0  0  0  0  0  0  0
   -1.1636   -3.6672    0.5581 C   0  0  0  0  0  0  0  0  0  0  0  0
   -0.0205   -2.8308    1.1400 C   0  0  0  0  0  0  0  0  0  0  0  0
   -0.0601   -1.4298    0.5559 C   0  0  0  0  0  0  0  0  0  0  0  0
    1.0590   -0.4560    0.9114 C   0  0  0  0  0  0  0  0  0  0  0  0
    1.0090    0.6145   -0.2072 C   0  0  0  0  0  0  0  0  0  0  0  0
    0.1155    0.0227   -1.3259 C   0  0  0  0  0  0  0  0  0  0  0  0
   -0.0096   -1.4555   -0.9704 C   0  0  0  0  0  0  0  0  0  0  0  0
   -1.1636   -2.2508   -1.5545 C   0  0  0  0  0  0  0  0  0  0  0  0
   -0.2712   -4.1940   -1.3285 H   0  0  0  0  0  0  0  0  0  0  0  0
   -2.0245   -4.2283   -1.3433 H   0  0  0  0  0  0  0  0  0  0  0  0
   -2.1157   -3.2580    0.9140 H   0  0  0  0  0  0  0  0  0  0  0  0
   -1.1081   -4.6933    0.9288 H   0  0  0  0  0  0  0  0  0  0  0  0
   -0.0877   -2.8049    2.2309 H   0  0  0  0  0  0  0  0  0  0  0  0
    0.9410   -3.2959    0.8920 H   0  0  0  0  0  0  0  0  0  0  0  0
   -1.0189   -0.9710    0.8385 H   0  0  0  0  0  0  0  0  0  0  0  0
    0.9501   -0.0281    1.9088 H   0  0  0  0  0  0  0  0  0  0  0  0
    2.0166   -0.9846    0.8910 H   0  0  0  0  0  0  0  0  0  0  0  0
    0.5150    1.7418    0.2371 H   0  0  0  0  0  0  0  0  0  0  0  0
    2.0102    0.8370   -0.5775 H   0  0  0  0  0  0  0  0  0  0  0  0
    0.5251    0.1875   -2.3233 H   0  0  0  0  0  0  0  0  0  0  0  0
   -0.8765    0.4834   -1.3054 H   0  0  0  0  0  0  0  0  0  0  0  0
    0.9269   -1.9583   -1.2530 H   0  0  0  0  0  0  0  0  0  0  0  0
   -1.1030   -2.2897   -2.6454 H   0  0  0  0  0  0  0  0  0  0  0  0
   -2.1068   -1.7494   -1.3065 H   0  0  0  0  0  0  0  0  0  0  0  0
  1  2  2  3
  1  5  1  0
  1  6  1  0
  2  3  1  0
  2  7  1  0
  3  4  1  0
  3  8  1  0
  4  9  1  0
  4 10  1  0
  4 11  1  0
 12 13  1  0
 12 20  1  0
 12 21  1  0
 12 22  1  0
 13 14  1  0
 13 23  1  0
 13 24  1  0
 14 15  1  0
 14 25  1  0
 14 26  1  0
 15 16  1  0
 15 19  1  0
 15 27  1  0
 16 17  1  0
 16 28  1  0
 16 29  1  0
 17 18  1  0
 17 30  1  0
 17 31  1  0
 18 19  1  0
 18 32  1  0
 18 33  1  0
 19 20  1  0
 19 34  1  0
 20 35  1  0
 20 36  1  0
M  RAD  1   3   2
M  END
>  <reaction>  (9) 
rxn_604

>  <mol_properties>  (9) 
{"1": {"label": "*0", "atom_type": "Cd"}, "2": {"label": "*1", "atom_type": "Cs"}, "15": {"label": "*4", "atom_type": "Cs"}, "16": {"label": "*3", "atom_type": "Cs"}, "29": {"label": "*2", "atom_type": "H0"}}

>  <type>  (9) 
unop_5

>  <geom_source>  (9) 
Heuristics

$$$$

     RDKit          3D

 36 36  0  0  0  0  0  0  0  0999 V2000
   -1.8110    3.3851   -0.4678 C   0  0  0  0  0  0  0  0  0  0  0  0
   -1.1550    3.0608    0.6361 C   0  0  0  0  0  0  0  0  0  0  0  0
    0.3312    3.0929    0.8343 C   0  0  0  0  0  3  0  0  0  0  0  0
    1.1467    3.5466   -0.3661 C   0  0  0  0  0  0  0  0  0  0  0  0
   -2.8912    3.3287   -0.5127 H   0  0  0  0  0  0  0  0  0  0  0  0
   -1.3025    3.7175   -1.3650 H   0  0  0  0  0  0  0  0  0  0  0  0
   -1.7265    2.7348    1.5016 H   0  0  0  0  0  0  0  0  0  0  0  0
    0.5463    3.7396    1.6921 H   0  0  0  0  0  0  0  0  0  0  0  0
    0.8779    4.5610   -0.6671 H   0  0  0  0  0  0  0  0  0  0  0  0
    2.2115    3.5386   -0.1310 H   0  0  0  0  0  0  0  0  0  0  0  0
    0.9883    2.8899   -1.2237 H   0  0  0  0  0  0  0  0  0  0  0  0
   -0.8511   -3.4486   -0.8217 C   0  0  0  0  0  0  0  0  0  0  0  0
   -0.8511   -3.4486    0.7089 C   0  0  0  0  0  0  0  0  0  0  0  0
    0.2920   -2.6122    1.2909 C   0  0  0  0  0  0  0  0  0  0  0  0
    0.2524   -1.2112    0.7068 C   0  0  0  0  0  0  0  0  0  0  0  0
    1.3714   -0.2375    1.0622 C   0  0  0  0  0  0  0  0  0  0  0  0
    1.3215    0.8331   -0.0564 C   0  0  0  0  0  0  0  0  0  0  0  0
    0.4280    0.2413   -1.1750 C   0  0  0  0  0  0  0  0  0  0  0  0
    0.3029   -1.2369   -0.8196 C   0  0  0  0  0  0  0  0  0  0  0  0
   -0.8511   -2.0322   -1.4037 C   0  0  0  0  0  0  0  0  0  0  0  0
    0.0413   -3.9754   -1.1776 H   0  0  0  0  0  0  0  0  0  0  0  0
   -1.7120   -4.0097   -1.1924 H   0  0  0  0  0  0  0  0  0  0  0  0
   -1.8033   -3.0395    1.0648 H   0  0  0  0  0  0  0  0  0  0  0  0
   -0.7956   -4.4747    1.0796 H   0  0  0  0  0  0  0  0  0  0  0  0
    0.2247   -2.5863    2.3817 H   0  0  0  0  0  0  0  0  0  0  0  0
    1.2535   -3.0773    1.0428 H   0  0  0  0  0  0  0  0  0  0  0  0
   -0.7064   -0.7524    0.9893 H   0  0  0  0  0  0  0  0  0  0  0  0
    1.2626    0.1905    2.0596 H   0  0  0  0  0  0  0  0  0  0  0  0
    2.3290   -0.7660    1.0418 H   0  0  0  0  0  0  0  0  0  0  0  0
    0.8275    1.9604    0.3879 H   0  0  0  0  0  0  0  0  0  0  0  0
    2.3227    1.0556   -0.4267 H   0  0  0  0  0  0  0  0  0  0  0  0
    0.8376    0.4061   -2.1725 H   0  0  0  0  0  0  0  0  0  0  0  0
   -0.5641    0.7020   -1.1546 H   0  0  0  0  0  0  0  0  0  0  0  0
    1.2393   -1.7397   -1.1021 H   0  0  0  0  0  0  0  0  0  0  0  0
   -0.7905   -2.0711   -2.4945 H   0  0  0  0  0  0  0  0  0  0  0  0
   -1.7943   -1.5308   -1.1557 H   0  0  0  0  0  0  0  0  0  0  0  0
  1  2  2  3
  1  5  1  0
  1  6  1  0
  2  3  1  0
  2  7  1  0
  3  4  1  0
  3  8  1  0
  4  9  1  0
  4 10  1  0
  4 11  1  0
 12 13  1  0
 12 20  1  0
 12 21  1  0
 12 22  1  0
 13 14  1  0
 13 23  1  0
 13 24  1  0
 14 15  1  0
 14 25  1  0
 14 26  1  0
 15 16  1  0
 15 19  1  0
 15 27  1  0
 16 17  1  0
 16 28  1  0
 16 29  1  0
 17 18  1  0
 17 30  1  0
 17 31  1  0
 18 19  1  0
 18 32  1  0
 18 33  1  0
 19 20  1  0
 19 34  1  0
 20 35  1  0
 20 36  1  0
M  RAD  1   3   2
M  END
>  <reaction>  (10) 
rxn_604

>  <mol_properties>  (10) 
{"1": {"label": "*0", "atom_type": "Cd"}, "2": {"label": "*1", "atom_type": "Cs"}, "15": {"label": "*4", "atom_type": "Cs"}, "16": {"label": "*3", "atom_type": "Cs"}, "29": {"label": "*2", "atom_type": "H0"}}

>  <type>  (10) 
unop_6

>  <geom_source>  (10) 
Heuristics

$$$$

     RDKit          3D

 36 36  0  0  0  0  0  0  0  0999 V2000
   -1.0747    3.9560   -1.0846 C   0  0  0  0  0  0  0  0  0  0  0  0
   -1.0290    3.3328    0.0830 C   0  0  0  0  0  0  0  0  0  0  0  0
    0.2017    3.0171    0.8797 C   0  0  0  0  0  3  0  0  0  0  0  0
    1.5179    3.4671    0.2658 C   0  0  0  0  0  0  0  0  0  0  0  0
   -2.0177    4.1383   -1.5841 H   0  0  0  0  0  0  0  0  0  0  0  0
   -0.1812    4.3075   -1.5869 H   0  0  0  0  0  0  0  0  0  0  0  0
   -1.9632    3.0059    0.5328 H   0  0  0  0  0  0  0  0  0  0  0  0
    0.0872    3.4625    1.8741 H   0  0  0  0  0  0  0  0  0  0  0  0
    1.5400    4.5496    0.1254 H   0  0  0  0  0  0  0  0  0  0  0  0
    2.3542    3.1966    0.9113 H   0  0  0  0  0  0  0  0  0  0  0  0
    1.6814    2.9999   -0.7073 H   0  0  0  0  0  0  0  0  0  0  0  0
   -0.9806   -3.5244   -0.7763 C   0  0  0  0  0  0  0  0  0  0  0  0
   -0.9806   -3.5244    0.7543 C   0  0  0  0  0  0  0  0  0  0  0  0
    0.1625   -2.6880    1.3363 C   0  0  0  0  0  0  0  0  0  0  0  0
    0.1229   -1.2870    0.7522 C   0  0  0  0  0  0  0  0  0  0  0  0
    1.2420   -0.3133    1.1076 C   0  0  0  0  0  0  0  0  0  0  0  0
    1.1920    0.7573   -0.0110 C   0  0  0  0  0  0  0  0  0  0  0  0
    0.2985    0.1655   -1.1296 C   0  0  0  0  0  0  0  0  0  0  0  0
    0.1734   -1.3127   -0.7742 C   0  0  0  0  0  0  0  0  0  0  0  0
   -0.9806   -2.1080   -1.3583 C   0  0  0  0  0  0  0  0  0  0  0  0
   -0.0882   -4.0512   -1.1322 H   0  0  0  0  0  0  0  0  0  0  0  0
   -1.8415   -4.0855   -1.1470 H   0  0  0  0  0  0  0  0  0  0  0  0
   -1.9327   -3.1153    1.1102 H   0  0  0  0  0  0  0  0  0  0  0  0
   -0.9251   -4.5505    1.1250 H   0  0  0  0  0  0  0  0  0  0  0  0
    0.0953   -2.6621    2.4272 H   0  0  0  0  0  0  0  0  0  0  0  0
    1.1241   -3.1532    1.0883 H   0  0  0  0  0  0  0  0  0  0  0  0
   -0.8359   -0.8282    1.0347 H   0  0  0  0  0  0  0  0  0  0  0  0
    1.1331    0.1147    2.1051 H   0  0  0  0  0  0  0  0  0  0  0  0
    2.1996   -0.8418    1.0872 H   0  0  0  0  0  0  0  0  0  0  0  0
    0.6980    1.8845    0.4333 H   0  0  0  0  0  0  0  0  0  0  0  0
    2.1932    0.9798   -0.3812 H   0  0  0  0  0  0  0  0  0  0  0  0
    0.7082    0.3303   -2.1270 H   0  0  0  0  0  0  0  0  0  0  0  0
   -0.6935    0.6262   -1.1092 H   0  0  0  0  0  0  0  0  0  0  0  0
    1.1099   -1.8155   -1.0567 H   0  0  0  0  0  0  0  0  0  0  0  0
   -0.9199   -2.1469   -2.4491 H   0  0  0  0  0  0  0  0  0  0  0  0
   -1.9238   -1.6067   -1.1102 H   0  0  0  0  0  0  0  0  0  0  0  0
  1  2  2  3
  1  5  1  0
  1  6  1  0
  2  3  1  0
  2  7  1  0
  3  4  1  0
  3  8  1  0
  4  9  1  0
  4 10  1  0
  4 11  1  0
 12 13  1  0
 12 20  1  0
 12 21  1  0
 12 22  1  0
 13 14  1  0
 13 23  1  0
 13 24  1  0
 14 15  1  0
 14 25  1  0
 14 26  1  0
 15 16  1  0
 15 19  1  0
 15 27  1  0
 16 17  1  0
 16 28  1  0
 16 29  1  0
 17 18  1  0
 17 30  1  0
 17 31  1  0
 18 19  1  0
 18 32  1  0
 18 33  1  0
 19 20  1  0
 19 34  1  0
 20 35  1  0
 20 36  1  0
M  RAD  1   3   2
M  END
>  <reaction>  (11) 
rxn_604

>  <mol_properties>  (11) 
{"1": {"label": "*0", "atom_type": "Cd"}, "2": {"label": "*1", "atom_type": "Cs"}, "15": {"label": "*4", "atom_type": "Cs"}, "16": {"label": "*3", "atom_type": "Cs"}, "29": {"label": "*2", "atom_type": "H0"}}

>  <type>  (11) 
unop_7

>  <geom_source>  (11) 
Heuristics

$$$$

     RDKit          3D

 36 36  0  0  0  0  0  0  0  0999 V2000
    1.1176    4.7847    1.7680 C   0  0  0  0  0  0  0  0  0  0  0  0
    1.2098    3.7456    0.9522 C   0  0  0  0  0  0  0  0  0  0  0  0
    0.0755    2.9104    0.4374 C   0  0  0  0  0  3  0  0  0  0  0  0
   -1.3106    3.3159    0.9132 C   0  0  0  0  0  0  0  0  0  0  0  0
    1.9998    5.3264    2.0847 H   0  0  0  0  0  0  0  0  0  0  0  0
    0.1666    5.1357    2.1508 H   0  0  0  0  0  0  0  0  0  0  0  0
    2.1952    3.4454    0.6047 H   0  0  0  0  0  0  0  0  0  0  0  0
    0.1094    2.9278   -0.6575 H   0  0  0  0  0  0  0  0  0  0  0  0
   -1.5498    4.3375    0.6115 H   0  0  0  0  0  0  0  0  0  0  0  0
   -2.0690    2.6561    0.4904 H   0  0  0  0  0  0  0  0  0  0  0  0
   -1.3878    3.2611    2.0008 H   0  0  0  0  0  0  0  0  0  0  0  0
   -1.1068   -3.6311   -1.2186 C   0  0  0  0  0  0  0  0  0  0  0  0
   -1.1068   -3.6311    0.3120 C   0  0  0  0  0  0  0  0  0  0  0  0
    0.0363   -2.7947    0.8940 C   0  0  0  0  0  0  0  0  0  0  0  0
   -0.0033   -1.3937    0.3099 C   0  0  0  0  0  0  0  0  0  0  0  0
    1.1158   -0.4200    0.6653 C   0  0  0  0  0  0  0  0  0  0  0  0
    1.0658    0.6506   -0.4533 C   0  0  0  0  0  0  0  0  0  0  0  0
    0.1723    0.0588   -1.5719 C   0  0  0  0  0  0  0  0  0  0  0  0
    0.0472   -1.4194   -1.2165 C   0  0  0  0  0  0  0  0  0  0  0  0
   -1.1068   -2.2147   -1.8006 C   0  0  0  0  0  0  0  0  0  0  0  0
   -0.2144   -4.1579   -1.5745 H   0  0  0  0  0  0  0  0  0  0  0  0
   -1.9677   -4.1922   -1.5893 H   0  0  0  0  0  0  0  0  0  0  0  0
   -2.0589   -3.2220    0.6679 H   0  0  0  0  0  0  0  0  0  0  0  0
   -1.0513   -4.6572    0.6827 H   0  0  0  0  0  0  0  0  0  0  0  0
   -0.0309   -2.7688    1.9848 H   0  0  0  0  0  0  0  0  0  0  0  0
    0.9979   -3.2599    0.6459 H   0  0  0  0  0  0  0  0  0  0  0  0
   -0.9621   -0.9349    0.5924 H   0  0  0  0  0  0  0  0  0  0  0  0
    1.0069    0.0080    1.6627 H   0  0  0  0  0  0  0  0  0  0  0  0
    2.0734   -0.9485    0.6449 H   0  0  0  0  0  0  0  0  0  0  0  0
    0.5718    1.7779   -0.0090 H   0  0  0  0  0  0  0  0  0  0  0  0
    2.0670    0.8731   -0.8236 H   0  0  0  0  0  0  0  0  0  0  0  0
    0.5820    0.2236   -2.5693 H   0  0  0  0  0  0  0  0  0  0  0  0
   -0.8197    0.5195   -1.5515 H   0  0  0  0  0  0  0  0  0  0  0  0
    0.9837   -1.9222   -1.4990 H   0  0  0  0  0  0  0  0  0  0  0  0
   -1.0461   -2.2536   -2.8914 H   0  0  0  0  0  0  0  0  0  0  0  0
   -2.0500   -1.7134   -1.5525 H   0  0  0  0  0  0  0  0  0  0  0  0
  1  2  2  3
  1  5  1  0
  1  6  1  0
  2  3  1  0
  2  7  1  0
  3  4  1  0
  3  8  1  0
  4  9  1  0
  4 10  1  0
  4 11  1  0
 12 13  1  0
 12 20  1  0
 12 21  1  0
 12 22  1  0
 13 14  1  0
 13 23  1  0
 13 24  1  0
 14 15  1  0
 14 25  1  0
 14 26  1  0
 15 16  1  0
 15 19  1  0
 15 27  1  0
 16 17  1  0
 16 28  1  0
 16 29  1  0
 17 18  1  0
 17 30  1  0
 17 31  1  0
 18 19  1  0
 18 32  1  0
 18 33  1  0
 19 20  1  0
 19 34  1  0
 20 35  1  0
 20 36  1  0
M  RAD  1   3   2
M  END
>  <reaction>  (12) 
rxn_604

>  <mol_properties>  (12) 
{"1": {"label": "*0", "atom_type": "Cd"}, "2": {"label": "*1", "atom_type": "Cs"}, "15": {"label": "*4", "atom_type": "Cs"}, "16": {"label": "*3", "atom_type": "Cs"}, "29": {"label": "*2", "atom_type": "H0"}}

>  <type>  (12) 
unop_8

>  <geom_source>  (12) 
Heuristics

$$$$

     RDKit          3D

 36 36  0  0  0  0  0  0  0  0999 V2000
   -1.8643    2.8879    1.5895 C   0  0  0  0  0  0  0  0  0  0  0  0
   -0.5429    2.8450    1.6662 C   0  0  0  0  0  0  0  0  0  0  0  0
    0.4266    3.1622    0.5669 C   0  0  0  0  0  3  0  0  0  0  0  0
   -0.1923    3.5717   -0.7601 C   0  0  0  0  0  0  0  0  0  0  0  0
   -2.4819    2.6395    2.4434 H   0  0  0  0  0  0  0  0  0  0  0  0
   -2.3811    3.1700    0.6799 H   0  0  0  0  0  0  0  0  0  0  0  0
   -0.0878    2.5536    2.6096 H   0  0  0  0  0  0  0  0  0  0  0  0
    1.0963    3.9534    0.9213 H   0  0  0  0  0  0  0  0  0  0  0  0
   -0.8033    4.4700   -0.6518 H   0  0  0  0  0  0  0  0  0  0  0  0
    0.5841    3.7822   -1.4964 H   0  0  0  0  0  0  0  0  0  0  0  0
   -0.8285    2.7805   -1.1615 H   0  0  0  0  0  0  0  0  0  0  0  0
   -0.7557   -3.3794   -1.0891 C   0  0  0  0  0  0  0  0  0  0  0  0
   -0.7557   -3.3794    0.4415 C   0  0  0  0  0  0  0  0  0  0  0  0
    0.3874   -2.5430    1.0235 C   0  0  0  0  0  0  0  0  0  0  0  0
    0.3478   -1.1420    0.4394 C   0  0  0  0  0  0  0  0  0  0  0  0
    1.4669   -0.1682    0.7948 C   0  0  0  0  0  0  0  0  0  0  0  0
    1.4169    0.9023   -0.3238 C   0  0  0  0  0  0  0  0  0  0  0  0
    0.5234    0.3105   -1.4425 C   0  0  0  0  0  0  0  0  0  0  0  0
    0.3984   -1.1676   -1.0870 C   0  0  0  0  0  0  0  0  0  0  0  0
   -0.7557   -1.9629   -1.6711 C   0  0  0  0  0  0  0  0  0  0  0  0
    0.1368   -3.9062   -1.4451 H   0  0  0  0  0  0  0  0  0  0  0  0
   -1.6166   -3.9405   -1.4598 H   0  0  0  0  0  0  0  0  0  0  0  0
   -1.7078   -2.9702    0.7974 H   0  0  0  0  0  0  0  0  0  0  0  0
   -0.7001   -4.4055    0.8122 H   0  0  0  0  0  0  0  0  0  0  0  0
    0.3202   -2.5170    2.1143 H   0  0  0  0  0  0  0  0  0  0  0  0
    1.3490   -3.0081    0.7754 H   0  0  0  0  0  0  0  0  0  0  0  0
   -0.6109   -0.6832    0.7219 H   0  0  0  0  0  0  0  0  0  0  0  0
    1.3581    0.2597    1.7922 H   0  0  0  0  0  0  0  0  0  0  0  0
    2.4245   -0.6968    0.7744 H   0  0  0  0  0  0  0  0  0  0  0  0
    0.9229    2.0296    0.1205 H   0  0  0  0  0  0  0  0  0  0  0  0
    2.4181    1.1248   -0.6941 H   0  0  0  0  0  0  0  0  0  0  0  0
    0.9331    0.4754   -2.4399 H   0  0  0  0  0  0  0  0  0  0  0  0
   -0.4686    0.7712   -1.4220 H   0  0  0  0  0  0  0  0  0  0  0  0
    1.3348   -1.6705   -1.3695 H   0  0  0  0  0  0  0  0  0  0  0  0
   -0.6950   -2.0019   -2.7620 H   0  0  0  0  0  0  0  0  0  0  0  0
   -1.6988   -1.4616   -1.4231 H   0  0  0  0  0  0  0  0  0  0  0  0
  1  2  2  3
  1  5  1  0
  1  6  1  0
  2  3  1  0
  2  7  1  0
  3  4  1  0
  3  8  1  0
  4  9  1  0
  4 10  1  0
  4 11  1  0
 12 13  1  0
 12 20  1  0
 12 21  1  0
 12 22  1  0
 13 14  1  0
 13 23  1  0
 13 24  1  0
 14 15  1  0
 14 25  1  0
 14 26  1  0
 15 16  1  0
 15 19  1  0
 15 27  1  0
 16 17  1  0
 16 28  1  0
 16 29  1  0
 17 18  1  0
 17 30  1  0
 17 31  1  0
 18 19  1  0
 18 32  1  0
 18 33  1  0
 19 20  1  0
 19 34  1  0
 20 35  1  0
 20 36  1  0
M  RAD  1   3   2
M  END
>  <reaction>  (13) 
rxn_604

>  <mol_properties>  (13) 
{"1": {"label": "*0", "atom_type": "Cd"}, "2": {"label": "*1", "atom_type": "Cs"}, "15": {"label": "*4", "atom_type": "Cs"}, "16": {"label": "*3", "atom_type": "Cs"}, "29": {"label": "*2", "atom_type": "H0"}}

>  <type>  (13) 
unop_9

>  <geom_source>  (13) 
Heuristics

$$$$

     RDKit          3D

 36 36  0  0  0  0  0  0  0  0999 V2000
    0.6614    4.2631    2.4745 C   0  0  0  0  0  0  0  0  0  0  0  0
    1.0168    3.4614    1.4821 C   0  0  0  0  0  0  0  0  0  0  0  0
    0.1379    2.9741    0.3688 C   0  0  0  0  0  3  0  0  0  0  0  0
   -1.3016    3.4623    0.4034 C   0  0  0  0  0  0  0  0  0  0  0  0
    1.3727    4.5601    3.2348 H   0  0  0  0  0  0  0  0  0  0  0  0
   -0.3449    4.6534    2.5694 H   0  0  0  0  0  0  0  0  0  0  0  0
    2.0433    3.1053    1.4458 H   0  0  0  0  0  0  0  0  0  0  0  0
    0.6018    3.2606   -0.5814 H   0  0  0  0  0  0  0  0  0  0  0  0
   -1.3519    4.5516    0.3494 H   0  0  0  0  0  0  0  0  0  0  0  0
   -1.8632    3.0594   -0.4401 H   0  0  0  0  0  0  0  0  0  0  0  0
   -1.8043    3.1490    1.3205 H   0  0  0  0  0  0  0  0  0  0  0  0
   -1.0443   -3.5674   -1.2872 C   0  0  0  0  0  0  0  0  0  0  0  0
   -1.0443   -3.5674    0.2434 C   0  0  0  0  0  0  0  0  0  0  0  0
    0.0988   -2.7310    0.8254 C   0  0  0  0  0  0  0  0  0  0  0  0
    0.0592   -1.3301    0.2413 C   0  0  0  0  0  0  0  0  0  0  0  0
    1.1782   -0.3563    0.5967 C   0  0  0  0  0  0  0  0  0  0  0  0
    1.1282    0.7143   -0.5219 C   0  0  0  0  0  0  0  0  0  0  0  0
    0.2348    0.1224   -1.6405 C   0  0  0  0  0  0  0  0  0  0  0  0
    0.1097   -1.3557   -1.2851 C   0  0  0  0  0  0  0  0  0  0  0  0
   -1.0443   -2.1510   -1.8692 C   0  0  0  0  0  0  0  0  0  0  0  0
   -0.1519   -4.0942   -1.6431 H   0  0  0  0  0  0  0  0  0  0  0  0
   -1.9052   -4.1285   -1.6579 H   0  0  0  0  0  0  0  0  0  0  0  0
   -1.9965   -3.1583    0.5993 H   0  0  0  0  0  0  0  0  0  0  0  0
   -0.9888   -4.5935    0.6141 H   0  0  0  0  0  0  0  0  0  0  0  0
    0.0315   -2.7051    1.9162 H   0  0  0  0  0  0  0  0  0  0  0  0
    1.0603   -3.1962    0.5773 H   0  0  0  0  0  0  0  0  0  0  0  0
   -0.8996   -0.8712    0.5238 H   0  0  0  0  0  0  0  0  0  0  0  0
    1.0694    0.0717    1.5941 H   0  0  0  0  0  0  0  0  0  0  0  0
    2.1358   -0.8848    0.5763 H   0  0  0  0  0  0  0  0  0  0  0  0
    0.6343    1.8415   -0.0776 H   0  0  0  0  0  0  0  0  0  0  0  0
    2.1294    0.9368   -0.8922 H   0  0  0  0  0  0  0  0  0  0  0  0
    0.6444    0.2873   -2.6379 H   0  0  0  0  0  0  0  0  0  0  0  0
   -0.7573    0.5832   -1.6201 H   0  0  0  0  0  0  0  0  0  0  0  0
    1.0461   -1.8585   -1.5676 H   0  0  0  0  0  0  0  0  0  0  0  0
   -0.9837   -2.1900   -2.9600 H   0  0  0  0  0  0  0  0  0  0  0  0
   -1.9875   -1.6497   -1.6211 H   0  0  0  0  0  0  0  0  0  0  0  0
  1  2  2  3
  1  5  1  0
  1  6  1  0
  2  3  1  0
  2  7  1  0
  3  4  1  0
  3  8  1  0
  4  9  1  0
  4 10  1  0
  4 11  1  0
 12 13  1  0
 12 20  1  0
 12 21  1  0
 12 22  1  0
 13 14  1  0
 13 23  1  0
 13 24  1  0
 14 15  1  0
 14 25  1  0
 14 26  1  0
 15 16  1  0
 15 19  1  0
 15 27  1  0
 16 17  1  0
 16 28  1  0
 16 29  1  0
 17 18  1  0
 17 30  1  0
 17 31  1  0
 18 19  1  0
 18 32  1  0
 18 33  1  0
 19 20  1  0
 19 34  1  0
 20 35  1  0
 20 36  1  0
M  RAD  1   3   2
M  END
>  <reaction>  (14) 
rxn_604

>  <mol_properties>  (14) 
{"1": {"label": "*0", "atom_type": "Cd"}, "2": {"label": "*1", "atom_type": "Cs"}, "15": {"label": "*4", "atom_type": "Cs"}, "16": {"label": "*3", "atom_type": "Cs"}, "29": {"label": "*2", "atom_type": "H0"}}

>  <type>  (14) 
unop_10

>  <geom_source>  (14) 
Heuristics

$$$$

     RDKit          3D

 36 36  0  0  0  0  0  0  0  0999 V2000
   -0.1172    4.5668   -1.0923 C   0  0  0  0  0  0  0  0  0  0  0  0
   -0.6245    3.6229   -0.3141 C   0  0  0  0  0  0  0  0  0  0  0  0
    0.0681    2.9364    0.8252 C   0  0  0  0  0  3  0  0  0  0  0  0
    1.4954    3.3852    1.0957 C   0  0  0  0  0  0  0  0  0  0  0  0
   -0.6999    5.0033   -1.8935 H   0  0  0  0  0  0  0  0  0  0  0  0
    0.8918    4.9405   -0.9640 H   0  0  0  0  0  0  0  0  0  0  0  0
   -1.6442    3.2931   -0.4971 H   0  0  0  0  0  0  0  0  0  0  0  0
   -0.5393    3.0753    1.7263 H   0  0  0  0  0  0  0  0  0  0  0  0
    1.5372    4.4491    1.3371 H   0  0  0  0  0  0  0  0  0  0  0  0
    1.9173    2.8346    1.9372 H   0  0  0  0  0  0  0  0  0  0  0  0
    2.1359    3.2133    0.2284 H   0  0  0  0  0  0  0  0  0  0  0  0
   -1.1142   -3.6051   -0.8309 C   0  0  0  0  0  0  0  0  0  0  0  0
   -1.1142   -3.6051    0.6998 C   0  0  0  0  0  0  0  0  0  0  0  0
    0.0289   -2.7687    1.2817 C   0  0  0  0  0  0  0  0  0  0  0  0
   -0.0107   -1.3678    0.6976 C   0  0  0  0  0  0  0  0  0  0  0  0
    1.1084   -0.3940    1.0531 C   0  0  0  0  0  0  0  0  0  0  0  0
    1.0584    0.6766   -0.0655 C   0  0  0  0  0  0  0  0  0  0  0  0
    0.1649    0.0847   -1.1842 C   0  0  0  0  0  0  0  0  0  0  0  0
    0.0398   -1.3934   -0.8287 C   0  0  0  0  0  0  0  0  0  0  0  0
   -1.1142   -2.1887   -1.4128 C   0  0  0  0  0  0  0  0  0  0  0  0
   -0.2218   -4.1319   -1.1868 H   0  0  0  0  0  0  0  0  0  0  0  0
   -1.9751   -4.1662   -1.2016 H   0  0  0  0  0  0  0  0  0  0  0  0
   -2.0663   -3.1960    1.0557 H   0  0  0  0  0  0  0  0  0  0  0  0
   -1.0587   -4.6312    1.0705 H   0  0  0  0  0  0  0  0  0  0  0  0
   -0.0383   -2.7428    2.3726 H   0  0  0  0  0  0  0  0  0  0  0  0
    0.9904   -3.2339    1.0337 H   0  0  0  0  0  0  0  0  0  0  0  0
   -0.9695   -0.9089    0.9802 H   0  0  0  0  0  0  0  0  0  0  0  0
    0.9995    0.0340    2.0505 H   0  0  0  0  0  0  0  0  0  0  0  0
    2.0660   -0.9225    1.0326 H   0  0  0  0  0  0  0  0  0  0  0  0
    0.5644    1.8038    0.3788 H   0  0  0  0  0  0  0  0  0  0  0  0
    2.0596    0.8991   -0.4358 H   0  0  0  0  0  0  0  0  0  0  0  0
    0.5745    0.2496   -2.1816 H   0  0  0  0  0  0  0  0  0  0  0  0
   -0.8271    0.5455   -1.1637 H   0  0  0  0  0  0  0  0  0  0  0  0
    0.9763   -1.8962   -1.1113 H   0  0  0  0  0  0  0  0  0  0  0  0
   -1.0536   -2.2277   -2.5037 H   0  0  0  0  0  0  0  0  0  0  0  0
   -2.0574   -1.6874   -1.1648 H   0  0  0  0  0  0  0  0  0  0  0  0
  1  2  2  3
  1  5  1  0
  1  6  1  0
  2  3  1  0
  2  7  1  0
  3  4  1  0
  3  8  1  0
  4  9  1  0
  4 10  1  0
  4 11  1  0
 12 13  1  0
 12 20  1  0
 12 21  1  0
 12 22  1  0
 13 14  1  0
 13 23  1  0
 13 24  1  0
 14 15  1  0
 14 25  1  0
 14 26  1  0
 15 16  1  0
 15 19  1  0
 15 27  1  0
 16 17  1  0
 16 28  1  0
 16 29  1  0
 17 18  1  0
 17 30  1  0
 17 31  1  0
 18 19  1  0
 18 32  1  0
 18 33  1  0
 19 20  1  0
 19 34  1  0
 20 35  1  0
 20 36  1  0
M  RAD  1   3   2
M  END
>  <reaction>  (15) 
rxn_604

>  <mol_properties>  (15) 
{"1": {"label": "*0", "atom_type": "Cd"}, "2": {"label": "*1", "atom_type": "Cs"}, "15": {"label": "*4", "atom_type": "Cs"}, "16": {"label": "*3", "atom_type": "Cs"}, "29": {"label": "*2", "atom_type": "H0"}}

>  <type>  (15) 
unop_11

>  <geom_source>  (15) 
Heuristics

$$$$

     RDKit          3D

 36 36  0  0  0  0  0  0  0  0999 V2000
   -1.1552    3.1381    2.4424 C   0  0  0  0  0  0  0  0  0  0  0  0
    0.0274    2.9486    1.8773 C   0  0  0  0  0  0  0  0  0  0  0  0
    0.3632    3.1266    0.4265 C   0  0  0  0  0  3  0  0  0  0  0  0
   -0.7850    3.5696   -0.4664 C   0  0  0  0  0  0  0  0  0  0  0  0
   -1.2984    2.9826    3.5041 H   0  0  0  0  0  0  0  0  0  0  0  0
   -2.0226    3.4536    1.8746 H   0  0  0  0  0  0  0  0  0  0  0  0
    0.8567    2.6318    2.5047 H   0  0  0  0  0  0  0  0  0  0  0  0
    1.1861    3.8461    0.3533 H   0  0  0  0  0  0  0  0  0  0  0  0
   -1.1861    4.5334   -0.1470 H   0  0  0  0  0  0  0  0  0  0  0  0
   -0.4497    3.6725   -1.4990 H   0  0  0  0  0  0  0  0  0  0  0  0
   -1.6016    2.8451   -0.4503 H   0  0  0  0  0  0  0  0  0  0  0  0
   -0.8191   -3.4149   -1.2295 C   0  0  0  0  0  0  0  0  0  0  0  0
   -0.8191   -3.4149    0.3011 C   0  0  0  0  0  0  0  0  0  0  0  0
    0.3240   -2.5785    0.8831 C   0  0  0  0  0  0  0  0  0  0  0  0
    0.2844   -1.1776    0.2990 C   0  0  0  0  0  0  0  0  0  0  0  0
    1.4035   -0.2038    0.6544 C   0  0  0  0  0  0  0  0  0  0  0  0
    1.3535    0.8668   -0.4642 C   0  0  0  0  0  0  0  0  0  0  0  0
    0.4600    0.2749   -1.5828 C   0  0  0  0  0  0  0  0  0  0  0  0
    0.3350   -1.2032   -1.2274 C   0  0  0  0  0  0  0  0  0  0  0  0
   -0.8191   -1.9985   -1.8115 C   0  0  0  0  0  0  0  0  0  0  0  0
    0.0734   -3.9417   -1.5854 H   0  0  0  0  0  0  0  0  0  0  0  0
   -1.6800   -3.9760   -1.6002 H   0  0  0  0  0  0  0  0  0  0  0  0
   -1.7712   -3.0058    0.6570 H   0  0  0  0  0  0  0  0  0  0  0  0
   -0.7635   -4.4410    0.6718 H   0  0  0  0  0  0  0  0  0  0  0  0
    0.2568   -2.5526    1.9739 H   0  0  0  0  0  0  0  0  0  0  0  0
    1.2856   -3.0437    0.6350 H   0  0  0  0  0  0  0  0  0  0  0  0
   -0.6743   -0.7187    0.5815 H   0  0  0  0  0  0  0  0  0  0  0  0
    1.2947    0.2242    1.6518 H   0  0  0  0  0  0  0  0  0  0  0  0
    2.3611   -0.7323    0.6340 H   0  0  0  0  0  0  0  0  0  0  0  0
    0.8595    1.9940   -0.0199 H   0  0  0  0  0  0  0  0  0  0  0  0
    2.3547    1.0893   -0.8345 H   0  0  0  0  0  0  0  0  0  0  0  0
    0.8697    0.4398   -2.5803 H   0  0  0  0  0  0  0  0  0  0  0  0
   -0.5320    0.7357   -1.5624 H   0  0  0  0  0  0  0  0  0  0  0  0
    1.2714   -1.7060   -1.5099 H   0  0  0  0  0  0  0  0  0  0  0  0
   -0.7584   -2.0375   -2.9023 H   0  0  0  0  0  0  0  0  0  0  0  0
   -1.7622   -1.4972   -1.5634 H   0  0  0  0  0  0  0  0  0  0  0  0
  1  2  2  3
  1  5  1  0
  1  6  1  0
  2  3  1  0
  2  7  1  0
  3  4  1  0
  3  8  1  0
  4  9  1  0
  4 10  1  0
  4 11  1  0
 12 13  1  0
 12 20  1  0
 12 21  1  0
 12 22  1  0
 13 14  1  0
 13 23  1  0
 13 24  1  0
 14 15  1  0
 14 25  1  0
 14 26  1  0
 15 16  1  0
 15 19  1  0
 15 27  1  0
 16 17  1  0
 16 28  1  0
 16 29  1  0
 17 18  1  0
 17 30  1  0
 17 31  1  0
 18 19  1  0
 18 32  1  0
 18 33  1  0
 19 20  1  0
 19 34  1  0
 20 35  1  0
 20 36  1  0
M  RAD  1   3   2
M  END
>  <reaction>  (16) 
rxn_604

>  <mol_properties>  (16) 
{"1": {"label": "*0", "atom_type": "Cd"}, "2": {"label": "*1", "atom_type": "Cs"}, "15": {"label": "*4", "atom_type": "Cs"}, "16": {"label": "*3", "atom_type": "Cs"}, "29": {"label": "*2", "atom_type": "H0"}}

>  <type>  (16) 
unop_12

>  <geom_source>  (16) 
Heuristics

$$$$

     RDKit          3D

 36 36  0  0  0  0  0  0  0  0999 V2000
    1.7063   -0.6429    0.1565 C   0  0  0  0  0  0  0  0  0  0  0  0
    1.5442    0.8320   -0.1538 C   0  0  0  0  0  0  0  0  0  0  0  0
    2.9470   -0.8778    1.0409 C   0  0  0  0  0  0  0  0  0  0  0  0
    2.6724    1.3174   -1.0855 C   0  0  0  0  0  0  0  0  0  0  0  0
    4.1055    0.0891    0.6778 C   0  0  0  0  0  0  0  0  0  0  0  0
    4.0207    0.6152   -0.7730 C   0  0  0  0  0  0  0  0  0  0  0  0
    0.3648   -1.0413    0.7532 C   0  0  0  0  0  0  0  0  0  0  0  0
    0.1263    0.9408   -0.6951 C   0  0  0  0  0  0  0  0  0  0  0  0
   -3.2523   -0.4722    0.2272 C   0  0  0  0  0  3  0  0  0  0  0  0
   -3.6100   -1.4238   -0.9094 C   0  0  0  0  0  0  0  0  0  0  0  0
   -0.6578   -0.1536    0.0360 C   0  0  0  0  0  0  0  0  0  0  0  0
   -4.1746    0.7137    0.2622 C   0  0  0  0  0  0  0  0  0  0  0  0
   -5.4517    0.6024    0.6391 C   0  0  0  0  0  0  0  0  0  0  0  0
    1.8386   -1.2053   -0.7987 H   0  0  0  0  0  0  0  0  0  0  0  0
    1.5937    1.4133    0.7979 H   0  0  0  0  0  0  0  0  0  0  0  0
    3.2844   -1.9289    0.9093 H   0  0  0  0  0  0  0  0  0  0  0  0
    2.6936   -0.7399    2.1146 H   0  0  0  0  0  0  0  0  0  0  0  0
    4.0826    0.9608    1.3682 H   0  0  0  0  0  0  0  0  0  0  0  0
    5.0788   -0.4258    0.8283 H   0  0  0  0  0  0  0  0  0  0  0  0
    4.1528   -0.2450   -1.4656 H   0  0  0  0  0  0  0  0  0  0  0  0
    4.8583    1.3213   -0.9599 H   0  0  0  0  0  0  0  0  0  0  0  0
    2.4108    1.1254   -2.1489 H   0  0  0  0  0  0  0  0  0  0  0  0
    2.7878    2.4162   -0.9626 H   0  0  0  0  0  0  0  0  0  0  0  0
   -3.2891   -1.0109    1.1988 H   0  0  0  0  0  0  0  0  0  0  0  0
   -1.9311   -0.0132    0.0271 H   0  0  0  0  0  0  0  0  0  0  0  0
    0.1466   -2.1149    0.5713 H   0  0  0  0  0  0  0  0  0  0  0  0
    0.3392   -0.8339    1.8459 H   0  0  0  0  0  0  0  0  0  0  0  0
    0.0977    0.7266   -1.7851 H   0  0  0  0  0  0  0  0  0  0  0  0
   -0.3020    1.9483   -0.5024 H   0  0  0  0  0  0  0  0  0  0  0  0
   -2.8792   -2.2588   -0.9329 H   0  0  0  0  0  0  0  0  0  0  0  0
   -3.5701   -0.8896   -1.8824 H   0  0  0  0  0  0  0  0  0  0  0  0
   -4.6267   -1.8457   -0.7611 H   0  0  0  0  0  0  0  0  0  0  0  0
   -1.3708    0.2871    0.7665 H   0  0  0  0  0  0  0  0  0  0  0  0
   -3.7800    1.6914    0.0042 H   0  0  0  0  0  0  0  0  0  0  0  0
   -6.0876    1.4812    0.6679 H   0  0  0  0  0  0  0  0  0  0  0  0
   -5.8691   -0.3588    0.9235 H   0  0  0  0  0  0  0  0  0  0  0  0
  1  3  1  0
  1  7  1  0
  1  2  1  0
  1 14  1  0
  2  4  1  0
  2  8  1  0
  2 15  1  0
  3  5  1  0
  3 16  1  0
  3 17  1  0
  4  6  1  0
  4 22  1  0
  4 23  1  0
  5  6  1  0
  5 18  1  0
  5 19  1  0
  6 20  1  0
  6 21  1  0
  7 11  1  0
  7 26  1  0
  7 27  1  0
  8 11  1  0
  8 28  1  0
  8 29  1  0
  9 10  1  0
  9 12  1  0
  9 24  1  0
 10 30  1  0
 10 31  1  0
 10 32  1  0
 11 25  1  0
 11 33  1  0
 12 13  2  3
 12 34  1  0
 13 35  1  0
 13 36  1  0
M  RAD  1   9   2
M  END
>  <reaction>  (17) 
rxn_604

>  <mol_properties>  (17) 
{"1": {"label": "*0", "atom_type": "Cd"}, "2": {"label": "*1", "atom_type": "Cs"}, "15": {"label": "*4", "atom_type": "Cs"}, "16": {"label": "*3", "atom_type": "Cs"}, "29": {"label": "*2", "atom_type": "H0"}}

>  <type>  (17) 
unop_13

>  <geom_source>  (17) 
AutoTST

$$$$

     RDKit          3D

 36 36  0  0  0  0  0  0  0  0999 V2000
   -0.1885    3.6579    2.7656 C   0  0  0  0  0  0  0  0  0  0  0  0
    0.5882    3.1704    1.8101 C   0  0  0  0  0  0  0  0  0  0  0  0
    0.2475    3.0539    0.3543 C   0  0  0  0  0  3  0  0  0  0  0  0
   -1.1336    3.5517   -0.0414 C   0  0  0  0  0  0  0  0  0  0  0  0
    0.1496    3.7000    3.7933 H   0  0  0  0  0  0  0  0  0  0  0  0
   -1.1853    4.0322    2.5648 H   0  0  0  0  0  0  0  0  0  0  0  0
    1.5781    2.8110    2.0799 H   0  0  0  0  0  0  0  0  0  0  0  0
    1.0113    3.5914   -0.2182 H   0  0  0  0  0  0  0  0  0  0  0  0
   -1.2560    4.6104    0.1955 H   0  0  0  0  0  0  0  0  0  0  0  0
   -1.2929    3.4284   -1.1132 H   0  0  0  0  0  0  0  0  0  0  0  0
   -1.9182    2.9993    0.4794 H   0  0  0  0  0  0  0  0  0  0  0  0
   -0.9348   -3.4877   -1.3017 C   0  0  0  0  0  0  0  0  0  0  0  0
   -0.9348   -3.4877    0.2289 C   0  0  0  0  0  0  0  0  0  0  0  0
    0.2083   -2.6513    0.8109 C   0  0  0  0  0  0  0  0  0  0  0  0
    0.1686   -1.2503    0.2268 C   0  0  0  0  0  0  0  0  0  0  0  0
    1.2877   -0.2765    0.5822 C   0  0  0  0  0  0  0  0  0  0  0  0
    1.2377    0.7941   -0.5364 C   0  0  0  0  0  0  0  0  0  0  0  0
    0.3443    0.2022   -1.6550 C   0  0  0  0  0  0  0  0  0  0  0  0
    0.2192   -1.2759   -1.2996 C   0  0  0  0  0  0  0  0  0  0  0  0
   -0.9348   -2.0712   -1.8837 C   0  0  0  0  0  0  0  0  0  0  0  0
   -0.0424   -4.0145   -1.6576 H   0  0  0  0  0  0  0  0  0  0  0  0
   -1.7957   -4.0488   -1.6724 H   0  0  0  0  0  0  0  0  0  0  0  0
   -1.8870   -3.0785    0.5848 H   0  0  0  0  0  0  0  0  0  0  0  0
   -0.8793   -4.5138    0.5996 H   0  0  0  0  0  0  0  0  0  0  0  0
    0.1410   -2.6253    1.9017 H   0  0  0  0  0  0  0  0  0  0  0  0
    1.1698   -3.1164    0.5628 H   0  0  0  0  0  0  0  0  0  0  0  0
   -0.7901   -0.7914    0.5093 H   0  0  0  0  0  0  0  0  0  0  0  0
    1.1789    0.1514    1.5796 H   0  0  0  0  0  0  0  0  0  0  0  0
    2.2453   -0.8051    0.5618 H   0  0  0  0  0  0  0  0  0  0  0  0
    0.7438    1.9213   -0.0921 H   0  0  0  0  0  0  0  0  0  0  0  0
    2.2389    1.0165   -0.9067 H   0  0  0  0  0  0  0  0  0  0  0  0
    0.7539    0.3671   -2.6524 H   0  0  0  0  0  0  0  0  0  0  0  0
   -0.6478    0.6629   -1.6346 H   0  0  0  0  0  0  0  0  0  0  0  0
    1.1556   -1.7788   -1.5821 H   0  0  0  0  0  0  0  0  0  0  0  0
   -0.8742   -2.1102   -2.9745 H   0  0  0  0  0  0  0  0  0  0  0  0
   -1.8780   -1.5699   -1.6357 H   0  0  0  0  0  0  0  0  0  0  0  0
  1  2  2  3
  1  5  1  0
  1  6  1  0
  2  3  1  0
  2  7  1  0
  3  4  1  0
  3  8  1  0
  4  9  1  0
  4 10  1  0
  4 11  1  0
 12 13  1  0
 12 20  1  0
 12 21  1  0
 12 22  1  0
 13 14  1  0
 13 23  1  0
 13 24  1  0
 14 15  1  0
 14 25  1  0
 14 26  1  0
 15 16  1  0
 15 19  1  0
 15 27  1  0
 16 17  1  0
 16 28  1  0
 16 29  1  0
 17 18  1  0
 17 30  1  0
 17 31  1  0
 18 19  1  0
 18 32  1  0
 18 33  1  0
 19 20  1  0
 19 34  1  0
 20 35  1  0
 20 36  1  0
M  RAD  1   3   2
M  END
>  <reaction>  (18) 
rxn_604

>  <mol_properties>  (18) 
{"1": {"label": "*0", "atom_type": "Cd"}, "2": {"label": "*1", "atom_type": "Cs"}, "15": {"label": "*4", "atom_type": "Cs"}, "16": {"label": "*3", "atom_type": "Cs"}, "29": {"label": "*2", "atom_type": "H0"}}

>  <type>  (18) 
unop_14

>  <geom_source>  (18) 
gaussian_log

$$$$
