
     RDKit          3D

  6  5  0  0  0  0  0  0  0  0999 V2000
   -0.6628   -0.1053   -0.2416 N   0  0  0  0  0  0  0  0  0  0  0  0
    0.6229    0.0313    0.3460 N   0  0  0  0  0  0  0  0  0  0  0  0
   -1.1552    0.7686   -0.1293 H   0  0  0  0  0  0  0  0  0  0  0  0
   -1.2103   -0.8412    0.1876 H   0  0  0  0  0  0  0  0  0  0  0  0
    1.2634   -0.5674   -0.1542 H   0  0  0  0  0  0  0  0  0  0  0  0
    0.6334   -0.2313    1.3241 H   0  0  0  0  0  0  0  0  0  0  0  0
  1  2  1  0
  1  3  1  0
  1  4  1  0
  2  5  1  0
  2  6  1  0
M  END
>  <reaction>  (1) 
rxn_649

>  <mol_properties>  (1) 
{"1": {"label": "donator", "atom_type": "N3s"}, "4": {"label": "d_hydrogen", "atom_type": "H0"}}

>  <type>  (1) 
r1h

$$$$

     RDKit          3D

  3  2  0  0  0  0  0  0  0  0999 V2000
    0.0002    0.4233    0.0000 N   0  0  0  0  0  2  0  0  0  0  0  0
   -0.8051   -0.2112    0.0000 H   0  0  0  0  0  0  0  0  0  0  0  0
    0.8049   -0.2121    0.0000 H   0  0  0  0  0  0  0  0  0  0  0  0
  1  2  1  0
  1  3  1  0
M  RAD  1   1   2
M  END
>  <reaction>  (2) 
rxn_649

>  <mol_properties>  (2) 
{"0": {"label": "acceptor", "atom_type": "N3s"}}

>  <type>  (2) 
r2

$$$$

     RDKit          3D

  4  3  0  0  0  0  0  0  0  0999 V2000
    0.0006   -0.0009    0.2762 N   0  0  0  0  0  0  0  0  0  0  0  0
   -0.4188    0.8439   -0.0883 H   0  0  0  0  0  0  0  0  0  0  0  0
   -0.5215   -0.7840   -0.0936 H   0  0  0  0  0  0  0  0  0  0  0  0
    0.9397   -0.0590   -0.0943 H   0  0  0  0  0  0  0  0  0  0  0  0
  1  2  1  0
  1  3  1  0
  1  4  1  0
M  END
>  <reaction>  (3) 
rxn_649

>  <mol_properties>  (3) 
{"0": {"label": "acceptor", "atom_type": "N3s"}, "3": {"label": "a_hydrogen", "atom_type": "H0"}}

>  <type>  (3) 
r2h

$$$$

     RDKit          3D

  9  7  0  0  0  0  0  0  0  0999 V2000
   -0.4555    1.3960    1.1081 N   0  0  0  0  0  2  0  0  0  0  0  0
    0.4223    1.8620    1.3462 H   0  0  0  0  0  0  0  0  0  0  0  0
   -0.6789    1.7369    0.1710 H   0  0  0  0  0  0  0  0  0  0  0  0
   -0.2198   -0.8545   -1.0675 N   0  0  0  0  0  0  0  0  0  0  0  0
    0.3337   -0.8188    0.2241 N   0  0  0  0  0  0  0  0  0  0  0  0
   -0.7668   -1.6980   -1.1651 H   0  0  0  0  0  0  0  0  0  0  0  0
    0.4806   -0.8230   -1.7935 H   0  0  0  0  0  0  0  0  0  0  0  0
   -0.1222    0.0253    0.7886 H   0  0  0  0  0  0  0  0  0  0  0  0
    1.3261   -0.6199    0.1620 H   0  0  0  0  0  0  0  0  0  0  0  0
  1  2  1  0
  1  3  1  0
  4  5  1  0
  4  6  1  0
  4  7  1  0
  5  8  1  0
  5  9  1  0
M  RAD  1   1   2
M  END
>  <reaction>  (4) 
rxn_649

>  <mol_properties>  (4) 
{"0": {"label": "*3", "atom_type": "N3s"}, "1": {"label": "*4", "atom_type": "H0"}, "3": {"label": "*0", "atom_type": "N3s"}, "4": {"label": "*1", "atom_type": "N3s"}, "7": {"label": "*2", "atom_type": "H0"}}

>  <type>  (4) 
ts

$$$$

     RDKit          3D

  9  7  0  0  0  0  0  0  0  0999 V2000
   -0.0213    1.5459    0.9515 N   0  0  0  0  0  2  0  0  0  0  0  0
   -0.8565    1.6844    1.5047 H   0  0  0  0  0  0  0  0  0  0  0  0
    0.5667    1.0625    1.6173 H   0  0  0  0  0  0  0  0  0  0  0  0
   -0.0213   -0.7574   -1.2262 N   0  0  0  0  0  0  0  0  0  0  0  0
   -0.0213   -0.7574    0.1940 N   0  0  0  0  0  0  0  0  0  0  0  0
   -0.5024   -1.5868   -1.5415 H   0  0  0  0  0  0  0  0  0  0  0  0
    0.9138   -0.7597   -1.6151 H   0  0  0  0  0  0  0  0  0  0  0  0
   -0.0213    0.3931    0.5724 H   0  0  0  0  0  0  0  0  0  0  0  0
    0.7887   -1.2247    0.5829 H   0  0  0  0  0  0  0  0  0  0  0  0
  1  2  1  0
  1  3  1  0
  4  5  1  0
  4  6  1  0
  4  7  1  0
  5  8  1  0
  5  9  1  0
M  RAD  1   1   2
M  END
>  <reaction>  (5) 
rxn_649

>  <mol_properties>  (5) 
{"0": {"label": "*3", "atom_type": "N3s"}, "1": {"label": "*4", "atom_type": "H0"}, "3": {"label": "*0", "atom_type": "N3s"}, "4": {"label": "*1", "atom_type": "N3s"}, "7": {"label": "*2", "atom_type": "H0"}}

>  <type>  (5) 
unop_1

>  <geom_source>  (5) 
Heuristics

$$$$

     RDKit          3D

  9  7  0  0  0  0  0  0  0  0999 V2000
   -0.0049    1.5378    0.9774 N   0  0  0  0  0  2  0  0  0  0  0  0
   -0.4871    2.0878    0.2792 H   0  0  0  0  0  0  0  0  0  0  0  0
   -0.5522    1.0293    1.6590 H   0  0  0  0  0  0  0  0  0  0  0  0
   -0.0049   -0.7655   -1.2003 N   0  0  0  0  0  0  0  0  0  0  0  0
   -0.0049   -0.7655    0.2199 N   0  0  0  0  0  0  0  0  0  0  0  0
   -0.4860   -1.5949   -1.5156 H   0  0  0  0  0  0  0  0  0  0  0  0
    0.9302   -0.7678   -1.5892 H   0  0  0  0  0  0  0  0  0  0  0  0
   -0.0049    0.3850    0.5983 H   0  0  0  0  0  0  0  0  0  0  0  0
    0.8051   -1.2328    0.6088 H   0  0  0  0  0  0  0  0  0  0  0  0
  1  2  1  0
  1  3  1  0
  4  5  1  0
  4  6  1  0
  4  7  1  0
  5  8  1  0
  5  9  1  0
M  RAD  1   1   2
M  END
>  <reaction>  (6) 
rxn_649

>  <mol_properties>  (6) 
{"0": {"label": "*3", "atom_type": "N3s"}, "1": {"label": "*4", "atom_type": "H0"}, "3": {"label": "*0", "atom_type": "N3s"}, "4": {"label": "*1", "atom_type": "N3s"}, "7": {"label": "*2", "atom_type": "H0"}}

>  <type>  (6) 
unop_2

>  <geom_source>  (6) 
Heuristics

$$$$

     RDKit          3D

  9  7  0  0  0  0  0  0  0  0999 V2000
   -0.0352    1.5409    0.9491 N   0  0  0  0  0  2  0  0  0  0  0  0
   -0.5174    1.5691    1.8375 H   0  0  0  0  0  0  0  0  0  0  0  0
    0.8625    1.4060    1.3945 H   0  0  0  0  0  0  0  0  0  0  0  0
   -0.0352   -0.7624   -1.2286 N   0  0  0  0  0  0  0  0  0  0  0  0
   -0.0352   -0.7624    0.1916 N   0  0  0  0  0  0  0  0  0  0  0  0
   -0.5163   -1.5918   -1.5439 H   0  0  0  0  0  0  0  0  0  0  0  0
    0.8999   -0.7647   -1.6175 H   0  0  0  0  0  0  0  0  0  0  0  0
   -0.0352    0.3881    0.5700 H   0  0  0  0  0  0  0  0  0  0  0  0
    0.7748   -1.2296    0.5805 H   0  0  0  0  0  0  0  0  0  0  0  0
  1  2  1  0
  1  3  1  0
  4  5  1  0
  4  6  1  0
  4  7  1  0
  5  8  1  0
  5  9  1  0
M  RAD  1   1   2
M  END
>  <reaction>  (7) 
rxn_649

>  <mol_properties>  (7) 
{"0": {"label": "*3", "atom_type": "N3s"}, "1": {"label": "*4", "atom_type": "H0"}, "3": {"label": "*0", "atom_type": "N3s"}, "4": {"label": "*1", "atom_type": "N3s"}, "7": {"label": "*2", "atom_type": "H0"}}

>  <type>  (7) 
unop_3

>  <geom_source>  (7) 
Heuristics

$$$$

     RDKit          3D

  9  7  0  0  0  0  0  0  0  0999 V2000
   -0.0266    1.5174    0.9848 N   0  0  0  0  0  2  0  0  0  0  0  0
    0.8085    1.9572    0.6219 H   0  0  0  0  0  0  0  0  0  0  0  0
   -0.8585    2.0922    0.9815 H   0  0  0  0  0  0  0  0  0  0  0  0
   -0.0266   -0.7859   -1.1929 N   0  0  0  0  0  0  0  0  0  0  0  0
   -0.0266   -0.7859    0.2272 N   0  0  0  0  0  0  0  0  0  0  0  0
   -0.5076   -1.6153   -1.5083 H   0  0  0  0  0  0  0  0  0  0  0  0
    0.9086   -0.7882   -1.5818 H   0  0  0  0  0  0  0  0  0  0  0  0
   -0.0266    0.3646    0.6057 H   0  0  0  0  0  0  0  0  0  0  0  0
    0.7835   -1.2532    0.6161 H   0  0  0  0  0  0  0  0  0  0  0  0
  1  2  1  0
  1  3  1  0
  4  5  1  0
  4  6  1  0
  4  7  1  0
  5  8  1  0
  5  9  1  0
M  RAD  1   1   2
M  END
>  <reaction>  (8) 
rxn_649

>  <mol_properties>  (8) 
{"0": {"label": "*3", "atom_type": "N3s"}, "1": {"label": "*4", "atom_type": "H0"}, "3": {"label": "*0", "atom_type": "N3s"}, "4": {"label": "*1", "atom_type": "N3s"}, "7": {"label": "*2", "atom_type": "H0"}}

>  <type>  (8) 
unop_4

>  <geom_source>  (8) 
Heuristics

$$$$

     RDKit          3D

  9  7  0  0  0  0  0  0  0  0999 V2000
   -0.0448    1.5281    0.9552 N   0  0  0  0  0  2  0  0  0  0  0  0
   -0.0448    1.5160    1.9663 H   0  0  0  0  0  0  0  0  0  0  0  0
    0.8255    2.0418    0.9905 H   0  0  0  0  0  0  0  0  0  0  0  0
   -0.0448   -0.7752   -1.2226 N   0  0  0  0  0  0  0  0  0  0  0  0
   -0.0448   -0.7752    0.1976 N   0  0  0  0  0  0  0  0  0  0  0  0
   -0.5258   -1.6046   -1.5379 H   0  0  0  0  0  0  0  0  0  0  0  0
    0.8904   -0.7774   -1.6115 H   0  0  0  0  0  0  0  0  0  0  0  0
   -0.0448    0.3754    0.5760 H   0  0  0  0  0  0  0  0  0  0  0  0
    0.7653   -1.2424    0.5865 H   0  0  0  0  0  0  0  0  0  0  0  0
  1  2  1  0
  1  3  1  0
  4  5  1  0
  4  6  1  0
  4  7  1  0
  5  8  1  0
  5  9  1  0
M  RAD  1   1   2
M  END
>  <reaction>  (9) 
rxn_649

>  <mol_properties>  (9) 
{"0": {"label": "*3", "atom_type": "N3s"}, "1": {"label": "*4", "atom_type": "H0"}, "3": {"label": "*0", "atom_type": "N3s"}, "4": {"label": "*1", "atom_type": "N3s"}, "7": {"label": "*2", "atom_type": "H0"}}

>  <type>  (9) 
unop_5

>  <geom_source>  (9) 
Heuristics

$$$$

     RDKit          3D

  9  7  0  0  0  0  0  0  0  0999 V2000
   -0.0346    1.5155    0.9784 N   0  0  0  0  0  2  0  0  0  0  0  0
    0.9297    1.8046    1.0735 H   0  0  0  0  0  0  0  0  0  0  0  0
   -0.6131    2.3303    0.8234 H   0  0  0  0  0  0  0  0  0  0  0  0
   -0.0346   -0.7878   -1.1994 N   0  0  0  0  0  0  0  0  0  0  0  0
   -0.0346   -0.7878    0.2208 N   0  0  0  0  0  0  0  0  0  0  0  0
   -0.5157   -1.6172   -1.5147 H   0  0  0  0  0  0  0  0  0  0  0  0
    0.9005   -0.7901   -1.5882 H   0  0  0  0  0  0  0  0  0  0  0  0
   -0.0346    0.3628    0.5992 H   0  0  0  0  0  0  0  0  0  0  0  0
    0.7754   -1.2550    0.6097 H   0  0  0  0  0  0  0  0  0  0  0  0
  1  2  1  0
  1  3  1  0
  4  5  1  0
  4  6  1  0
  4  7  1  0
  5  8  1  0
  5  9  1  0
M  RAD  1   1   2
M  END
>  <reaction>  (10) 
rxn_649

>  <mol_properties>  (10) 
{"0": {"label": "*3", "atom_type": "N3s"}, "1": {"label": "*4", "atom_type": "H0"}, "3": {"label": "*0", "atom_type": "N3s"}, "4": {"label": "*1", "atom_type": "N3s"}, "7": {"label": "*2", "atom_type": "H0"}}

>  <type>  (10) 
unop_6

>  <geom_source>  (10) 
Heuristics

$$$$

     RDKit          3D

  9  7  0  0  0  0  0  0  0  0999 V2000
   -0.0393    1.5157    0.9706 N   0  0  0  0  0  2  0  0  0  0  0  0
    0.7958    1.6542    1.5237 H   0  0  0  0  0  0  0  0  0  0  0  0
   -0.2635    2.4711    0.7267 H   0  0  0  0  0  0  0  0  0  0  0  0
   -0.0393   -0.7876   -1.2071 N   0  0  0  0  0  0  0  0  0  0  0  0
   -0.0393   -0.7876    0.2131 N   0  0  0  0  0  0  0  0  0  0  0  0
   -0.5204   -1.6170   -1.5225 H   0  0  0  0  0  0  0  0  0  0  0  0
    0.8958   -0.7899   -1.5960 H   0  0  0  0  0  0  0  0  0  0  0  0
   -0.0393    0.3630    0.5915 H   0  0  0  0  0  0  0  0  0  0  0  0
    0.7707   -1.2548    0.6020 H   0  0  0  0  0  0  0  0  0  0  0  0
  1  2  1  0
  1  3  1  0
  4  5  1  0
  4  6  1  0
  4  7  1  0
  5  8  1  0
  5  9  1  0
M  RAD  1   1   2
M  END
>  <reaction>  (11) 
rxn_649

>  <mol_properties>  (11) 
{"0": {"label": "*3", "atom_type": "N3s"}, "1": {"label": "*4", "atom_type": "H0"}, "3": {"label": "*0", "atom_type": "N3s"}, "4": {"label": "*1", "atom_type": "N3s"}, "7": {"label": "*2", "atom_type": "H0"}}

>  <type>  (11) 
unop_7

>  <geom_source>  (11) 
Heuristics

$$$$

     RDKit          3D

  9  7  0  0  0  0  0  0  0  0999 V2000
   -0.0112    1.5457    0.9592 N   0  0  0  0  0  2  0  0  0  0  0  0
   -0.9756    1.8349    1.0543 H   0  0  0  0  0  0  0  0  0  0  0  0
    0.2246    0.9181    1.7162 H   0  0  0  0  0  0  0  0  0  0  0  0
   -0.0112   -0.7576   -1.2185 N   0  0  0  0  0  0  0  0  0  0  0  0
   -0.0112   -0.7576    0.2017 N   0  0  0  0  0  0  0  0  0  0  0  0
   -0.4923   -1.5869   -1.5338 H   0  0  0  0  0  0  0  0  0  0  0  0
    0.9239   -0.7598   -1.6074 H   0  0  0  0  0  0  0  0  0  0  0  0
   -0.0112    0.3930    0.5801 H   0  0  0  0  0  0  0  0  0  0  0  0
    0.7988   -1.2248    0.5906 H   0  0  0  0  0  0  0  0  0  0  0  0
  1  2  1  0
  1  3  1  0
  4  5  1  0
  4  6  1  0
  4  7  1  0
  5  8  1  0
  5  9  1  0
M  RAD  1   1   2
M  END
>  <reaction>  (12) 
rxn_649

>  <mol_properties>  (12) 
{"0": {"label": "*3", "atom_type": "N3s"}, "1": {"label": "*4", "atom_type": "H0"}, "3": {"label": "*0", "atom_type": "N3s"}, "4": {"label": "*1", "atom_type": "N3s"}, "7": {"label": "*2", "atom_type": "H0"}}

>  <type>  (12) 
unop_8

>  <geom_source>  (12) 
Heuristics

$$$$

     RDKit          3D

  9  7  0  0  0  0  0  0  0  0999 V2000
   -0.0165    1.5224    0.9872 N   0  0  0  0  0  2  0  0  0  0  0  0
    0.4657    2.0725    0.2890 H   0  0  0  0  0  0  0  0  0  0  0  0
   -0.9779    1.7476    1.2049 H   0  0  0  0  0  0  0  0  0  0  0  0
   -0.0165   -0.7809   -1.1906 N   0  0  0  0  0  0  0  0  0  0  0  0
   -0.0165   -0.7809    0.2296 N   0  0  0  0  0  0  0  0  0  0  0  0
   -0.4975   -1.6103   -1.5059 H   0  0  0  0  0  0  0  0  0  0  0  0
    0.9187   -0.7832   -1.5794 H   0  0  0  0  0  0  0  0  0  0  0  0
   -0.0165    0.3697    0.6081 H   0  0  0  0  0  0  0  0  0  0  0  0
    0.7936   -1.2481    0.6185 H   0  0  0  0  0  0  0  0  0  0  0  0
  1  2  1  0
  1  3  1  0
  4  5  1  0
  4  6  1  0
  4  7  1  0
  5  8  1  0
  5  9  1  0
M  RAD  1   1   2
M  END
>  <reaction>  (13) 
rxn_649

>  <mol_properties>  (13) 
{"0": {"label": "*3", "atom_type": "N3s"}, "1": {"label": "*4", "atom_type": "H0"}, "3": {"label": "*0", "atom_type": "N3s"}, "4": {"label": "*1", "atom_type": "N3s"}, "7": {"label": "*2", "atom_type": "H0"}}

>  <type>  (13) 
unop_9

>  <geom_source>  (13) 
Heuristics

$$$$

     RDKit          3D

  9  7  0  0  0  0  0  0  0  0999 V2000
   -0.0060    1.5429    0.9686 N   0  0  0  0  0  2  0  0  0  0  0  0
   -0.8411    1.9827    0.6057 H   0  0  0  0  0  0  0  0  0  0  0  0
   -0.1502    0.8997    1.7355 H   0  0  0  0  0  0  0  0  0  0  0  0
   -0.0060   -0.7604   -1.2091 N   0  0  0  0  0  0  0  0  0  0  0  0
   -0.0060   -0.7604    0.2111 N   0  0  0  0  0  0  0  0  0  0  0  0
   -0.4870   -1.5898   -1.5244 H   0  0  0  0  0  0  0  0  0  0  0  0
    0.9292   -0.7626   -1.5980 H   0  0  0  0  0  0  0  0  0  0  0  0
   -0.0060    0.3902    0.5895 H   0  0  0  0  0  0  0  0  0  0  0  0
    0.8041   -1.2276    0.6000 H   0  0  0  0  0  0  0  0  0  0  0  0
  1  2  1  0
  1  3  1  0
  4  5  1  0
  4  6  1  0
  4  7  1  0
  5  8  1  0
  5  9  1  0
M  RAD  1   1   2
M  END
>  <reaction>  (14) 
rxn_649

>  <mol_properties>  (14) 
{"0": {"label": "*3", "atom_type": "N3s"}, "1": {"label": "*4", "atom_type": "H0"}, "3": {"label": "*0", "atom_type": "N3s"}, "4": {"label": "*1", "atom_type": "N3s"}, "7": {"label": "*2", "atom_type": "H0"}}

>  <type>  (14) 
unop_10

>  <geom_source>  (14) 
Heuristics

$$$$

     RDKit          3D

  9  7  0  0  0  0  0  0  0  0999 V2000
   -0.0427    1.5183    0.9634 N   0  0  0  0  0  2  0  0  0  0  0  0
    0.4394    1.5466    1.8518 H   0  0  0  0  0  0  0  0  0  0  0  0
    0.2484    2.4581    0.7294 H   0  0  0  0  0  0  0  0  0  0  0  0
   -0.0427   -0.7850   -1.2144 N   0  0  0  0  0  0  0  0  0  0  0  0
   -0.0427   -0.7850    0.2058 N   0  0  0  0  0  0  0  0  0  0  0  0
   -0.5238   -1.6143   -1.5297 H   0  0  0  0  0  0  0  0  0  0  0  0
    0.8924   -0.7872   -1.6032 H   0  0  0  0  0  0  0  0  0  0  0  0
   -0.0427    0.3656    0.5843 H   0  0  0  0  0  0  0  0  0  0  0  0
    0.7673   -1.2522    0.5947 H   0  0  0  0  0  0  0  0  0  0  0  0
  1  2  1  0
  1  3  1  0
  4  5  1  0
  4  6  1  0
  4  7  1  0
  5  8  1  0
  5  9  1  0
M  RAD  1   1   2
M  END
>  <reaction>  (15) 
rxn_649

>  <mol_properties>  (15) 
{"0": {"label": "*3", "atom_type": "N3s"}, "1": {"label": "*4", "atom_type": "H0"}, "3": {"label": "*0", "atom_type": "N3s"}, "4": {"label": "*1", "atom_type": "N3s"}, "7": {"label": "*2", "atom_type": "H0"}}

>  <type>  (15) 
unop_11

>  <geom_source>  (15) 
Heuristics

$$$$

     RDKit          3D

  9  7  0  0  0  0  0  0  0  0999 V2000
   -0.0083    1.5302    0.9843 N   0  0  0  0  0  2  0  0  0  0  0  0
   -0.0083    2.1206    0.1633 H   0  0  0  0  0  0  0  0  0  0  0  0
   -0.8786    1.3418    1.4635 H   0  0  0  0  0  0  0  0  0  0  0  0
   -0.0083   -0.7731   -1.1935 N   0  0  0  0  0  0  0  0  0  0  0  0
   -0.0083   -0.7731    0.2267 N   0  0  0  0  0  0  0  0  0  0  0  0
   -0.4893   -1.6025   -1.5088 H   0  0  0  0  0  0  0  0  0  0  0  0
    0.9269   -0.7753   -1.5823 H   0  0  0  0  0  0  0  0  0  0  0  0
   -0.0083    0.3775    0.6051 H   0  0  0  0  0  0  0  0  0  0  0  0
    0.8018   -1.2403    0.6156 H   0  0  0  0  0  0  0  0  0  0  0  0
  1  2  1  0
  1  3  1  0
  4  5  1  0
  4  6  1  0
  4  7  1  0
  5  8  1  0
  5  9  1  0
M  RAD  1   1   2
M  END
>  <reaction>  (16) 
rxn_649

>  <mol_properties>  (16) 
{"0": {"label": "*3", "atom_type": "N3s"}, "1": {"label": "*4", "atom_type": "H0"}, "3": {"label": "*0", "atom_type": "N3s"}, "4": {"label": "*1", "atom_type": "N3s"}, "7": {"label": "*2", "atom_type": "H0"}}

>  <type>  (16) 
unop_12

>  <geom_source>  (16) 
Heuristics

$$$$
