
     RDKit          3D

  7  7  0  0  0  0  0  0  0  0999 V2000
    1.6064   -0.4313    0.1905 N   0  0  0  0  0  0  0  0  0  0  0  0
    0.3982   -0.1725    0.0701 C   0  0  0  0  0  0  0  0  0  0  0  0
   -0.6051   -1.0481    0.3497 O   0  0  0  0  0  0  0  0  0  0  0  0
   -1.7906   -0.4044    0.0958 N   0  0  0  0  0  0  0  0  0  0  0  0
   -1.5819    0.7348   -0.2956 N   0  0  0  0  0  0  0  0  0  0  0  0
   -0.2229    0.9708   -0.3436 O   0  0  0  0  0  0  0  0  0  0  0  0
    2.1958    0.3506   -0.0669 H   0  0  0  0  0  0  0  0  0  0  0  0
  1  2  2  3
  1  7  1  0
  2  3  1  0
  2  6  1  0
  3  4  1  0
  4  5  2  0
  5  6  1  0
M  END
>  <reaction>  (1) 
rxn_3242

>  <mol_properties>  (1) 
{"0": {"label": "donator", "atom_type": "N3d"}, "6": {"label": "d_hydrogen", "atom_type": "H0"}}

>  <type>  (1) 
r1h

$$$$

     RDKit          3D

  7  6  0  0  0  0  0  0  0  0999 V2000
   -1.3059    0.5497   -0.1304 N   0  0  0  0  0  2  0  0  0  0  0  0
   -0.2700   -0.4288    0.0448 C   0  0  0  0  0  0  0  0  0  0  0  0
    1.1109    0.0669    0.0401 C   0  0  0  0  0  0  0  0  0  0  0  0
    2.1758    0.4925    0.0308 N   0  0  0  0  0  0  0  0  0  0  0  0
   -0.8815    1.4733   -0.2339 H   0  0  0  0  0  0  0  0  0  0  0  0
   -0.3767   -1.1909   -0.7373 H   0  0  0  0  0  0  0  0  0  0  0  0
   -0.4527   -0.9628    0.9858 H   0  0  0  0  0  0  0  0  0  0  0  0
  1  2  1  0
  1  5  1  0
  2  3  1  0
  2  6  1  0
  2  7  1  0
  3  4  3  0
M  RAD  1   1   2
M  END
>  <reaction>  (2) 
rxn_3242

>  <mol_properties>  (2) 
{"0": {"label": "acceptor", "atom_type": "N3s"}}

>  <type>  (2) 
r2

$$$$

     RDKit          3D

  8  7  0  0  0  0  0  0  0  0999 V2000
   -1.0805    0.5317    0.0204 N   0  0  0  0  0  0  0  0  0  0  0  0
   -0.1080   -0.5393    0.0956 C   0  0  0  0  0  0  0  0  0  0  0  0
    1.2945   -0.1247   -0.1005 C   0  0  0  0  0  0  0  0  0  0  0  0
    2.3714    0.2386   -0.2580 N   0  0  0  0  0  0  0  0  0  0  0  0
   -1.0516    0.9857   -0.8822 H   0  0  0  0  0  0  0  0  0  0  0  0
   -0.9009    1.2352    0.7235 H   0  0  0  0  0  0  0  0  0  0  0  0
   -0.3427   -1.2965   -0.6542 H   0  0  0  0  0  0  0  0  0  0  0  0
   -0.1810   -1.0288    1.0680 H   0  0  0  0  0  0  0  0  0  0  0  0
  1  2  1  0
  1  5  1  0
  1  6  1  0
  2  3  1  0
  2  7  1  0
  2  8  1  0
  3  4  3  0
M  END
>  <reaction>  (3) 
rxn_3242

>  <mol_properties>  (3) 
{"0": {"label": "acceptor", "atom_type": "N3s"}, "7": {"label": "a_hydrogen", "atom_type": "H0"}}

>  <type>  (3) 
r2h

$$$$

     RDKit          3D

 14 13  0  0  0  0  0  0  0  0999 V2000
   -0.3313   -0.9165    2.2255 N   0  0  0  0  0  0  0  0  0  0  0  0
    0.8014   -1.7888    1.9914 C   0  0  0  0  0  0  0  0  0  0  0  0
    1.0397   -2.1232    0.5806 C   0  0  0  0  0  0  0  0  0  0  0  0
    1.1915   -2.3575   -0.5318 N   0  0  0  0  0  0  0  0  0  0  0  0
   -1.1216   -1.2159    1.6575 H   0  0  0  0  0  0  0  0  0  0  0  0
    0.6446   -2.7225    2.5419 H   0  0  0  0  0  0  0  0  0  0  0  0
    1.7005   -1.3218    2.3955 H   0  0  0  0  0  0  0  0  0  0  0  0
    0.4202    1.1228    1.1351 N   0  0  0  0  0  2  0  0  0  0  0  0
   -0.0719    1.1255   -0.0092 C   0  0  0  0  0  0  0  0  0  0  0  0
    0.2362    2.0174   -0.9913 O   0  0  0  0  0  0  0  0  0  0  0  0
   -0.5142    1.6793   -2.0952 N   0  0  0  0  0  0  0  0  0  0  0  0
   -1.2123    0.7082   -1.8540 N   0  0  0  0  0  0  0  0  0  0  0  0
   -1.0066    0.2921   -0.5538 O   0  0  0  0  0  0  0  0  0  0  0  0
   -0.0233    0.2081    1.8773 H   0  0  0  0  0  0  0  0  0  0  0  0
  1  2  1  0
  1  5  1  0
  1 14  1  0
  2  3  1  0
  2  6  1  0
  2  7  1  0
  3  4  3  0
  8  9  2  0
  9 10  1  0
  9 13  1  0
 10 11  1  0
 11 12  2  0
 12 13  1  0
M  RAD  1   8   2
M  END
>  <reaction>  (4) 
rxn_3242

>  <mol_properties>  (4) 
{"0": {"label": "*1", "atom_type": "N3s"}, "1": {"label": "*0", "atom_type": "Cs"}, "7": {"label": "*3", "atom_type": "N3d"}, "8": {"label": "*4", "atom_type": "Cd"}, "13": {"label": "*2", "atom_type": "H0"}}

>  <type>  (4) 
ts

$$$$

     RDKit          3D

 14 13  0  0  0  0  0  0  0  0999 V2000
   -0.6034   -1.1270    1.7259 N   0  0  0  0  0  0  0  0  0  0  0  0
    0.5674   -1.3507    2.5491 C   0  0  0  0  0  0  0  0  0  0  0  0
    1.6380   -2.1408    1.9112 C   0  0  0  0  0  0  0  0  0  0  0  0
    2.4459   -2.7582    1.3794 N   0  0  0  0  0  0  0  0  0  0  0  0
   -1.0308   -2.0025    1.4570 H   0  0  0  0  0  0  0  0  0  0  0  0
    0.2738   -1.8620    3.4672 H   0  0  0  0  0  0  0  0  0  0  0  0
    0.9907   -0.3903    2.8475 H   0  0  0  0  0  0  0  0  0  0  0  0
   -0.6034    1.1178    0.8012 N   0  0  0  0  0  2  0  0  0  0  0  0
   -0.6034    1.1178   -0.4403 C   0  0  0  0  0  0  0  0  0  0  0  0
   -0.6034    2.2419   -1.2070 O   0  0  0  0  0  0  0  0  0  0  0  0
   -0.6034    1.8401   -2.5196 N   0  0  0  0  0  0  0  0  0  0  0  0
   -0.6034    0.6198   -2.5920 N   0  0  0  0  0  0  0  0  0  0  0  0
   -0.6034    0.0765   -1.3232 O   0  0  0  0  0  0  0  0  0  0  0  0
   -0.6034   -0.0056    1.2639 H   0  0  0  0  0  0  0  0  0  0  0  0
  1  2  1  0
  1  5  1  0
  1 14  1  0
  2  3  1  0
  2  6  1  0
  2  7  1  0
  3  4  3  0
  8  9  2  0
  9 10  1  0
  9 13  1  0
 10 11  1  0
 11 12  2  0
 12 13  1  0
M  RAD  1   8   2
M  END
>  <reaction>  (5) 
rxn_3242

>  <mol_properties>  (5) 
{"0": {"label": "*1", "atom_type": "N3s"}, "1": {"label": "*0", "atom_type": "Cs"}, "7": {"label": "*3", "atom_type": "N3d"}, "8": {"label": "*4", "atom_type": "Cd"}, "13": {"label": "*2", "atom_type": "H0"}}

>  <type>  (5) 
unop_1

>  <geom_source>  (5) 
Heuristics

$$$$

     RDKit          3D

 14 13  0  0  0  0  0  0  0  0999 V2000
    0.0176   -1.0144    2.3383 N   0  0  0  0  0  0  0  0  0  0  0  0
    0.6936   -1.9415    1.4539 C   0  0  0  0  0  0  0  0  0  0  0  0
   -0.1056   -2.4014    0.3019 C   0  0  0  0  0  0  0  0  0  0  0  0
   -0.7599   -2.7345   -0.5799 N   0  0  0  0  0  0  0  0  0  0  0  0
   -0.8165   -1.4293    2.7304 H   0  0  0  0  0  0  0  0  0  0  0  0
    1.0055   -2.8211    2.0192 H   0  0  0  0  0  0  0  0  0  0  0  0
    1.6033   -1.4784    1.0686 H   0  0  0  0  0  0  0  0  0  0  0  0
    0.0176    1.2304    1.4136 N   0  0  0  0  0  2  0  0  0  0  0  0
    0.0176    1.2304    0.1721 C   0  0  0  0  0  0  0  0  0  0  0  0
    0.0176    2.3545   -0.5946 O   0  0  0  0  0  0  0  0  0  0  0  0
    0.0176    1.9527   -1.9072 N   0  0  0  0  0  0  0  0  0  0  0  0
    0.0176    0.7324   -1.9796 N   0  0  0  0  0  0  0  0  0  0  0  0
    0.0176    0.1890   -0.7108 O   0  0  0  0  0  0  0  0  0  0  0  0
    0.0176    0.1070    1.8763 H   0  0  0  0  0  0  0  0  0  0  0  0
  1  2  1  0
  1  5  1  0
  1 14  1  0
  2  3  1  0
  2  6  1  0
  2  7  1  0
  3  4  3  0
  8  9  2  0
  9 10  1  0
  9 13  1  0
 10 11  1  0
 11 12  2  0
 12 13  1  0
M  RAD  1   8   2
M  END
>  <reaction>  (6) 
rxn_3242

>  <mol_properties>  (6) 
{"0": {"label": "*1", "atom_type": "N3s"}, "1": {"label": "*0", "atom_type": "Cs"}, "7": {"label": "*3", "atom_type": "N3d"}, "8": {"label": "*4", "atom_type": "Cd"}, "13": {"label": "*2", "atom_type": "H0"}}

>  <type>  (6) 
unop_2

>  <geom_source>  (6) 
Heuristics

$$$$

     RDKit          3D

 14 13  0  0  0  0  0  0  0  0999 V2000
   -0.5615   -1.3061    1.4505 N   0  0  0  0  0  0  0  0  0  0  0  0
    0.1145   -1.3413    2.7313 C   0  0  0  0  0  0  0  0  0  0  0  0
    1.5583   -1.6394    2.6677 C   0  0  0  0  0  0  0  0  0  0  0  0
    2.6777   -1.8740    2.5751 N   0  0  0  0  0  0  0  0  0  0  0  0
   -0.4849   -2.1947    0.9750 H   0  0  0  0  0  0  0  0  0  0  0  0
   -0.3557   -2.0908    3.3698 H   0  0  0  0  0  0  0  0  0  0  0  0
   -0.0085   -0.3806    3.2337 H   0  0  0  0  0  0  0  0  0  0  0  0
   -0.5615    0.9387    0.5258 N   0  0  0  0  0  2  0  0  0  0  0  0
   -0.5615    0.9387   -0.7157 C   0  0  0  0  0  0  0  0  0  0  0  0
   -0.5615    2.0628   -1.4824 O   0  0  0  0  0  0  0  0  0  0  0  0
   -0.5615    1.6610   -2.7950 N   0  0  0  0  0  0  0  0  0  0  0  0
   -0.5615    0.4407   -2.8673 N   0  0  0  0  0  0  0  0  0  0  0  0
   -0.5615   -0.1027   -1.5986 O   0  0  0  0  0  0  0  0  0  0  0  0
   -0.5615   -0.1847    0.9886 H   0  0  0  0  0  0  0  0  0  0  0  0
  1  2  1  0
  1  5  1  0
  1 14  1  0
  2  3  1  0
  2  6  1  0
  2  7  1  0
  3  4  3  0
  8  9  2  0
  9 10  1  0
  9 13  1  0
 10 11  1  0
 11 12  2  0
 12 13  1  0
M  RAD  1   8   2
M  END
>  <reaction>  (7) 
rxn_3242

>  <mol_properties>  (7) 
{"0": {"label": "*1", "atom_type": "N3s"}, "1": {"label": "*0", "atom_type": "Cs"}, "7": {"label": "*3", "atom_type": "N3d"}, "8": {"label": "*4", "atom_type": "Cd"}, "13": {"label": "*2", "atom_type": "H0"}}

>  <type>  (7) 
unop_3

>  <geom_source>  (7) 
Heuristics

$$$$

     RDKit          3D

 14 13  0  0  0  0  0  0  0  0999 V2000
    0.6345   -1.4038    1.9955 N   0  0  0  0  0  0  0  0  0  0  0  0
   -0.5363   -2.1425    1.5687 C   0  0  0  0  0  0  0  0  0  0  0  0
   -1.7114   -1.3137    1.2373 C   0  0  0  0  0  0  0  0  0  0  0  0
   -2.6018   -0.6339    0.9894 N   0  0  0  0  0  0  0  0  0  0  0  0
    0.4386   -0.8605    2.8249 H   0  0  0  0  0  0  0  0  0  0  0  0
   -0.8294   -2.8432    2.3520 H   0  0  0  0  0  0  0  0  0  0  0  0
   -0.2884   -2.7406    0.6905 H   0  0  0  0  0  0  0  0  0  0  0  0
    0.6345    0.8409    1.0708 N   0  0  0  0  0  2  0  0  0  0  0  0
    0.6345    0.8409   -0.1707 C   0  0  0  0  0  0  0  0  0  0  0  0
    0.6345    1.9651   -0.9374 O   0  0  0  0  0  0  0  0  0  0  0  0
    0.6345    1.5633   -2.2500 N   0  0  0  0  0  0  0  0  0  0  0  0
    0.6345    0.3430   -2.3224 N   0  0  0  0  0  0  0  0  0  0  0  0
    0.6345   -0.2004   -1.0536 O   0  0  0  0  0  0  0  0  0  0  0  0
    0.6345   -0.2824    1.5335 H   0  0  0  0  0  0  0  0  0  0  0  0
  1  2  1  0
  1  5  1  0
  1 14  1  0
  2  3  1  0
  2  6  1  0
  2  7  1  0
  3  4  3  0
  8  9  2  0
  9 10  1  0
  9 13  1  0
 10 11  1  0
 11 12  2  0
 12 13  1  0
M  RAD  1   8   2
M  END
>  <reaction>  (8) 
rxn_3242

>  <mol_properties>  (8) 
{"0": {"label": "*1", "atom_type": "N3s"}, "1": {"label": "*0", "atom_type": "Cs"}, "7": {"label": "*3", "atom_type": "N3d"}, "8": {"label": "*4", "atom_type": "Cd"}, "13": {"label": "*2", "atom_type": "H0"}}

>  <type>  (8) 
unop_4

>  <geom_source>  (8) 
Heuristics

$$$$

     RDKit          3D

 14 13  0  0  0  0  0  0  0  0999 V2000
   -0.3010   -1.5797    1.2303 N   0  0  0  0  0  0  0  0  0  0  0  0
   -0.3010   -1.5459    2.6785 C   0  0  0  0  0  0  0  0  0  0  0  0
    0.8554   -0.8609    3.2875 C   0  0  0  0  0  0  0  0  0  0  0  0
    1.7699   -0.3204    3.7211 N   0  0  0  0  0  0  0  0  0  0  0  0
    0.5176   -2.0566    0.8783 H   0  0  0  0  0  0  0  0  0  0  0  0
   -0.3299   -2.5655    3.0658 H   0  0  0  0  0  0  0  0  0  0  0  0
   -1.2079   -1.0517    3.0305 H   0  0  0  0  0  0  0  0  0  0  0  0
   -0.3010    0.6651    0.3056 N   0  0  0  0  0  2  0  0  0  0  0  0
   -0.3010    0.6651   -0.9359 C   0  0  0  0  0  0  0  0  0  0  0  0
   -0.3010    1.7892   -1.7026 O   0  0  0  0  0  0  0  0  0  0  0  0
   -0.3010    1.3875   -3.0152 N   0  0  0  0  0  0  0  0  0  0  0  0
   -0.3010    0.1672   -3.0875 N   0  0  0  0  0  0  0  0  0  0  0  0
   -0.3010   -0.3762   -1.8188 O   0  0  0  0  0  0  0  0  0  0  0  0
   -0.3010   -0.4582    0.7684 H   0  0  0  0  0  0  0  0  0  0  0  0
  1  2  1  0
  1  5  1  0
  1 14  1  0
  2  3  1  0
  2  6  1  0
  2  7  1  0
  3  4  3  0
  8  9  2  0
  9 10  1  0
  9 13  1  0
 10 11  1  0
 11 12  2  0
 12 13  1  0
M  RAD  1   8   2
M  END
>  <reaction>  (9) 
rxn_3242

>  <mol_properties>  (9) 
{"0": {"label": "*1", "atom_type": "N3s"}, "1": {"label": "*0", "atom_type": "Cs"}, "7": {"label": "*3", "atom_type": "N3d"}, "8": {"label": "*4", "atom_type": "Cd"}, "13": {"label": "*2", "atom_type": "H0"}}

>  <type>  (9) 
unop_5

>  <geom_source>  (9) 
Heuristics

$$$$

     RDKit          3D

 14 13  0  0  0  0  0  0  0  0999 V2000
    0.6479   -1.5337    1.7272 N   0  0  0  0  0  0  0  0  0  0  0  0
   -0.7040   -2.0148    1.9254 C   0  0  0  0  0  0  0  0  0  0  0  0
   -1.7427   -0.9670    1.9509 C   0  0  0  0  0  0  0  0  0  0  0  0
   -2.5193   -0.1224    1.9645 N   0  0  0  0  0  0  0  0  0  0  0  0
    0.9182   -0.8966    2.4638 H   0  0  0  0  0  0  0  0  0  0  0  0
   -0.7594   -2.5660    2.8655 H   0  0  0  0  0  0  0  0  0  0  0  0
   -0.9583   -2.7209    1.1333 H   0  0  0  0  0  0  0  0  0  0  0  0
    0.6479    0.7111    0.8025 N   0  0  0  0  0  2  0  0  0  0  0  0
    0.6479    0.7111   -0.4390 C   0  0  0  0  0  0  0  0  0  0  0  0
    0.6479    1.8352   -1.2057 O   0  0  0  0  0  0  0  0  0  0  0  0
    0.6479    1.4334   -2.5183 N   0  0  0  0  0  0  0  0  0  0  0  0
    0.6479    0.2131   -2.5906 N   0  0  0  0  0  0  0  0  0  0  0  0
    0.6479   -0.3302   -1.3219 O   0  0  0  0  0  0  0  0  0  0  0  0
    0.6479   -0.4123    1.2653 H   0  0  0  0  0  0  0  0  0  0  0  0
  1  2  1  0
  1  5  1  0
  1 14  1  0
  2  3  1  0
  2  6  1  0
  2  7  1  0
  3  4  3  0
  8  9  2  0
  9 10  1  0
  9 13  1  0
 10 11  1  0
 11 12  2  0
 12 13  1  0
M  RAD  1   8   2
M  END
>  <reaction>  (10) 
rxn_3242

>  <mol_properties>  (10) 
{"0": {"label": "*1", "atom_type": "N3s"}, "1": {"label": "*0", "atom_type": "Cs"}, "7": {"label": "*3", "atom_type": "N3d"}, "8": {"label": "*4", "atom_type": "Cd"}, "13": {"label": "*2", "atom_type": "H0"}}

>  <type>  (10) 
unop_6

>  <geom_source>  (10) 
Heuristics

$$$$

     RDKit          3D

 14 13  0  0  0  0  0  0  0  0999 V2000
    0.5067   -1.6512    1.4459 N   0  0  0  0  0  0  0  0  0  0  0  0
   -0.6641   -1.8749    2.2691 C   0  0  0  0  0  0  0  0  0  0  0  0
   -1.3632   -0.6513    2.7067 C   0  0  0  0  0  0  0  0  0  0  0  0
   -1.8773    0.3237    3.0255 N   0  0  0  0  0  0  0  0  0  0  0  0
    1.1971   -1.1013    1.9383 H   0  0  0  0  0  0  0  0  0  0  0  0
   -0.3798   -2.4365    3.1604 H   0  0  0  0  0  0  0  0  0  0  0  0
   -1.3787   -2.4936    1.7241 H   0  0  0  0  0  0  0  0  0  0  0  0
    0.5067    0.5936    0.5212 N   0  0  0  0  0  2  0  0  0  0  0  0
    0.5067    0.5936   -0.7203 C   0  0  0  0  0  0  0  0  0  0  0  0
    0.5067    1.7177   -1.4870 O   0  0  0  0  0  0  0  0  0  0  0  0
    0.5067    1.3159   -2.7996 N   0  0  0  0  0  0  0  0  0  0  0  0
    0.5067    0.0956   -2.8719 N   0  0  0  0  0  0  0  0  0  0  0  0
    0.5067   -0.4477   -1.6032 O   0  0  0  0  0  0  0  0  0  0  0  0
    0.5067   -0.5298    0.9840 H   0  0  0  0  0  0  0  0  0  0  0  0
  1  2  1  0
  1  5  1  0
  1 14  1  0
  2  3  1  0
  2  6  1  0
  2  7  1  0
  3  4  3  0
  8  9  2  0
  9 10  1  0
  9 13  1  0
 10 11  1  0
 11 12  2  0
 12 13  1  0
M  RAD  1   8   2
M  END
>  <reaction>  (11) 
rxn_3242

>  <mol_properties>  (11) 
{"0": {"label": "*1", "atom_type": "N3s"}, "1": {"label": "*0", "atom_type": "Cs"}, "7": {"label": "*3", "atom_type": "N3d"}, "8": {"label": "*4", "atom_type": "Cd"}, "13": {"label": "*2", "atom_type": "H0"}}

>  <type>  (11) 
unop_7

>  <geom_source>  (11) 
Heuristics

$$$$

     RDKit          3D

 14 13  0  0  0  0  0  0  0  0999 V2000
   -0.5047   -1.0178    2.0027 N   0  0  0  0  0  0  0  0  0  0  0  0
    0.8472   -1.4990    2.2009 C   0  0  0  0  0  0  0  0  0  0  0  0
    1.3358   -2.4328    1.1681 C   0  0  0  0  0  0  0  0  0  0  0  0
    1.6774   -3.1553    0.3447 N   0  0  0  0  0  0  0  0  0  0  0  0
   -1.1644   -1.7835    1.9901 H   0  0  0  0  0  0  0  0  0  0  0  0
    0.9164   -2.0007    3.1674 H   0  0  0  0  0  0  0  0  0  0  0  0
    1.5328   -0.6510    2.2388 H   0  0  0  0  0  0  0  0  0  0  0  0
   -0.5047    1.2270    1.0780 N   0  0  0  0  0  2  0  0  0  0  0  0
   -0.5047    1.2270   -0.1635 C   0  0  0  0  0  0  0  0  0  0  0  0
   -0.5047    2.3511   -0.9302 O   0  0  0  0  0  0  0  0  0  0  0  0
   -0.5047    1.9493   -2.2428 N   0  0  0  0  0  0  0  0  0  0  0  0
   -0.5047    0.7290   -2.3151 N   0  0  0  0  0  0  0  0  0  0  0  0
   -0.5047    0.1856   -1.0464 O   0  0  0  0  0  0  0  0  0  0  0  0
   -0.5047    0.1036    1.5408 H   0  0  0  0  0  0  0  0  0  0  0  0
  1  2  1  0
  1  5  1  0
  1 14  1  0
  2  3  1  0
  2  6  1  0
  2  7  1  0
  3  4  3  0
  8  9  2  0
  9 10  1  0
  9 13  1  0
 10 11  1  0
 11 12  2  0
 12 13  1  0
M  RAD  1   8   2
M  END
>  <reaction>  (12) 
rxn_3242

>  <mol_properties>  (12) 
{"0": {"label": "*1", "atom_type": "N3s"}, "1": {"label": "*0", "atom_type": "Cs"}, "7": {"label": "*3", "atom_type": "N3d"}, "8": {"label": "*4", "atom_type": "Cd"}, "13": {"label": "*2", "atom_type": "H0"}}

>  <type>  (12) 
unop_8

>  <geom_source>  (12) 
Heuristics

$$$$

     RDKit          3D

 14 13  0  0  0  0  0  0  0  0999 V2000
    0.5105   -1.2695    2.2021 N   0  0  0  0  0  0  0  0  0  0  0  0
   -0.1655   -2.1966    1.3177 C   0  0  0  0  0  0  0  0  0  0  0  0
   -1.3950   -1.6766    0.6890 C   0  0  0  0  0  0  0  0  0  0  0  0
   -2.3449   -1.2347    0.2211 N   0  0  0  0  0  0  0  0  0  0  0  0
   -0.0915   -0.9907    2.9646 H   0  0  0  0  0  0  0  0  0  0  0  0
   -0.4268   -3.1006    1.8699 H   0  0  0  0  0  0  0  0  0  0  0  0
    0.5157   -2.5019    0.5219 H   0  0  0  0  0  0  0  0  0  0  0  0
    0.5105    0.9753    1.2774 N   0  0  0  0  0  2  0  0  0  0  0  0
    0.5105    0.9753    0.0359 C   0  0  0  0  0  0  0  0  0  0  0  0
    0.5105    2.0994   -0.7309 O   0  0  0  0  0  0  0  0  0  0  0  0
    0.5105    1.6976   -2.0435 N   0  0  0  0  0  0  0  0  0  0  0  0
    0.5105    0.4773   -2.1158 N   0  0  0  0  0  0  0  0  0  0  0  0
    0.5105   -0.0660   -0.8470 O   0  0  0  0  0  0  0  0  0  0  0  0
    0.5105   -0.1481    1.7401 H   0  0  0  0  0  0  0  0  0  0  0  0
  1  2  1  0
  1  5  1  0
  1 14  1  0
  2  3  1  0
  2  6  1  0
  2  7  1  0
  3  4  3  0
  8  9  2  0
  9 10  1  0
  9 13  1  0
 10 11  1  0
 11 12  2  0
 12 13  1  0
M  RAD  1   8   2
M  END
>  <reaction>  (13) 
rxn_3242

>  <mol_properties>  (13) 
{"0": {"label": "*1", "atom_type": "N3s"}, "1": {"label": "*0", "atom_type": "Cs"}, "7": {"label": "*3", "atom_type": "N3d"}, "8": {"label": "*4", "atom_type": "Cd"}, "13": {"label": "*2", "atom_type": "H0"}}

>  <type>  (13) 
unop_9

>  <geom_source>  (13) 
Heuristics

$$$$

     RDKit          3D

 14 13  0  0  0  0  0  0  0  0999 V2000
   -0.2801   -0.9745    2.2248 N   0  0  0  0  0  0  0  0  0  0  0  0
    0.8907   -1.7131    1.7980 C   0  0  0  0  0  0  0  0  0  0  0  0
    0.7043   -2.5336    0.5858 C   0  0  0  0  0  0  0  0  0  0  0  0
    0.5180   -3.1580   -0.3587 N   0  0  0  0  0  0  0  0  0  0  0  0
   -1.0480   -1.5986    2.4307 H   0  0  0  0  0  0  0  0  0  0  0  0
    1.2178   -2.3727    2.6033 H   0  0  0  0  0  0  0  0  0  0  0  0
    1.7106   -1.0180    1.6105 H   0  0  0  0  0  0  0  0  0  0  0  0
   -0.2801    1.2703    1.3001 N   0  0  0  0  0  2  0  0  0  0  0  0
   -0.2801    1.2703    0.0586 C   0  0  0  0  0  0  0  0  0  0  0  0
   -0.2801    2.3944   -0.7081 O   0  0  0  0  0  0  0  0  0  0  0  0
   -0.2801    1.9926   -2.0207 N   0  0  0  0  0  0  0  0  0  0  0  0
   -0.2801    0.7723   -2.0931 N   0  0  0  0  0  0  0  0  0  0  0  0
   -0.2801    0.2289   -0.8243 O   0  0  0  0  0  0  0  0  0  0  0  0
   -0.2801    0.1469    1.7628 H   0  0  0  0  0  0  0  0  0  0  0  0
  1  2  1  0
  1  5  1  0
  1 14  1  0
  2  3  1  0
  2  6  1  0
  2  7  1  0
  3  4  3  0
  8  9  2  0
  9 10  1  0
  9 13  1  0
 10 11  1  0
 11 12  2  0
 12 13  1  0
M  RAD  1   8   2
M  END
>  <reaction>  (14) 
rxn_3242

>  <mol_properties>  (14) 
{"0": {"label": "*1", "atom_type": "N3s"}, "1": {"label": "*0", "atom_type": "Cs"}, "7": {"label": "*3", "atom_type": "N3d"}, "8": {"label": "*4", "atom_type": "Cd"}, "13": {"label": "*2", "atom_type": "H0"}}

>  <type>  (14) 
unop_10

>  <geom_source>  (14) 
Heuristics

$$$$

     RDKit          3D

 14 13  0  0  0  0  0  0  0  0999 V2000
    0.1724   -1.7115    1.2341 N   0  0  0  0  0  0  0  0  0  0  0  0
   -0.5036   -1.7467    2.5148 C   0  0  0  0  0  0  0  0  0  0  0  0
   -0.4528   -0.4877    3.2829 C   0  0  0  0  0  0  0  0  0  0  0  0
   -0.3903    0.5090    3.8479 N   0  0  0  0  0  0  0  0  0  0  0  0
    1.1538   -1.4978    1.3472 H   0  0  0  0  0  0  0  0  0  0  0  0
   -0.0707   -2.5350    3.1326 H   0  0  0  0  0  0  0  0  0  0  0  0
   -1.5525   -2.0070    2.3650 H   0  0  0  0  0  0  0  0  0  0  0  0
    0.1724    0.5333    0.3094 N   0  0  0  0  0  2  0  0  0  0  0  0
    0.1724    0.5333   -0.9321 C   0  0  0  0  0  0  0  0  0  0  0  0
    0.1724    1.6574   -1.6989 O   0  0  0  0  0  0  0  0  0  0  0  0
    0.1724    1.2557   -3.0115 N   0  0  0  0  0  0  0  0  0  0  0  0
    0.1724    0.0354   -3.0838 N   0  0  0  0  0  0  0  0  0  0  0  0
    0.1724   -0.5080   -1.8150 O   0  0  0  0  0  0  0  0  0  0  0  0
    0.1724   -0.5900    0.7721 H   0  0  0  0  0  0  0  0  0  0  0  0
  1  2  1  0
  1  5  1  0
  1 14  1  0
  2  3  1  0
  2  6  1  0
  2  7  1  0
  3  4  3  0
  8  9  2  0
  9 10  1  0
  9 13  1  0
 10 11  1  0
 11 12  2  0
 12 13  1  0
M  RAD  1   8   2
M  END
>  <reaction>  (15) 
rxn_3242

>  <mol_properties>  (15) 
{"0": {"label": "*1", "atom_type": "N3s"}, "1": {"label": "*0", "atom_type": "Cs"}, "7": {"label": "*3", "atom_type": "N3d"}, "8": {"label": "*4", "atom_type": "Cd"}, "13": {"label": "*2", "atom_type": "H0"}}

>  <type>  (15) 
unop_11

>  <geom_source>  (15) 
Heuristics

$$$$

     RDKit          3D

 14 13  0  0  0  0  0  0  0  0999 V2000
    0.3010   -1.1291    2.3240 N   0  0  0  0  0  0  0  0  0  0  0  0
    0.3010   -2.1252    1.2722 C   0  0  0  0  0  0  0  0  0  0  0  0
   -0.8554   -2.0679    0.3574 C   0  0  0  0  0  0  0  0  0  0  0  0
   -1.7699   -1.9896   -0.3311 N   0  0  0  0  0  0  0  0  0  0  0  0
   -0.5176   -1.2197    2.9098 H   0  0  0  0  0  0  0  0  0  0  0  0
    0.3299   -3.1218    1.7155 H   0  0  0  0  0  0  0  0  0  0  0  0
    1.2079   -2.0223    0.6743 H   0  0  0  0  0  0  0  0  0  0  0  0
    0.3010    1.1157    1.3993 N   0  0  0  0  0  2  0  0  0  0  0  0
    0.3010    1.1157    0.1578 C   0  0  0  0  0  0  0  0  0  0  0  0
    0.3010    2.2398   -0.6090 O   0  0  0  0  0  0  0  0  0  0  0  0
    0.3010    1.8380   -1.9215 N   0  0  0  0  0  0  0  0  0  0  0  0
    0.3010    0.6177   -1.9939 N   0  0  0  0  0  0  0  0  0  0  0  0
    0.3010    0.0743   -0.7251 O   0  0  0  0  0  0  0  0  0  0  0  0
    0.3010   -0.0077    1.8620 H   0  0  0  0  0  0  0  0  0  0  0  0
  1  2  1  0
  1  5  1  0
  1 14  1  0
  2  3  1  0
  2  6  1  0
  2  7  1  0
  3  4  3  0
  8  9  2  0
  9 10  1  0
  9 13  1  0
 10 11  1  0
 11 12  2  0
 12 13  1  0
M  RAD  1   8   2
M  END
>  <reaction>  (16) 
rxn_3242

>  <mol_properties>  (16) 
{"0": {"label": "*1", "atom_type": "N3s"}, "1": {"label": "*0", "atom_type": "Cs"}, "7": {"label": "*3", "atom_type": "N3d"}, "8": {"label": "*4", "atom_type": "Cd"}, "13": {"label": "*2", "atom_type": "H0"}}

>  <type>  (16) 
unop_12

>  <geom_source>  (16) 
Heuristics

$$$$

     RDKit          3D

 14 13  0  0  0  0  0  0  0  0999 V2000
    0.0176   -1.0144    2.3383 N   0  0  0  0  0  0  0  0  0  0  0  0
    0.6936   -1.9415    1.4540 C   0  0  0  0  0  0  0  0  0  0  0  0
   -0.1056   -2.4014    0.3019 C   0  0  0  0  0  0  0  0  0  0  0  0
   -0.7599   -2.7345   -0.5799 N   0  0  0  0  0  0  0  0  0  0  0  0
   -0.8165   -1.4293    2.7304 H   0  0  0  0  0  0  0  0  0  0  0  0
    1.0055   -2.8211    2.0192 H   0  0  0  0  0  0  0  0  0  0  0  0
    1.6033   -1.4784    1.0686 H   0  0  0  0  0  0  0  0  0  0  0  0
    0.0176    1.2304    1.4136 N   0  0  0  0  0  2  0  0  0  0  0  0
    0.0176    1.2304    0.1721 C   0  0  0  0  0  0  0  0  0  0  0  0
    0.0176    2.3545   -0.5946 O   0  0  0  0  0  0  0  0  0  0  0  0
    0.0176    1.9527   -1.9072 N   0  0  0  0  0  0  0  0  0  0  0  0
    0.0176    0.7324   -1.9796 N   0  0  0  0  0  0  0  0  0  0  0  0
    0.0176    0.1890   -0.7108 O   0  0  0  0  0  0  0  0  0  0  0  0
    0.0176    0.1070    1.8763 H   0  0  0  0  0  0  0  0  0  0  0  0
  1  2  1  0
  1  5  1  0
  1 14  1  0
  2  3  1  0
  2  6  1  0
  2  7  1  0
  3  4  3  0
  8  9  2  0
  9 10  1  0
  9 13  1  0
 10 11  1  0
 11 12  2  0
 12 13  1  0
M  RAD  1   8   2
M  END
>  <reaction>  (17) 
rxn_3242

>  <mol_properties>  (17) 
{"0": {"label": "*1", "atom_type": "N3s"}, "1": {"label": "*0", "atom_type": "Cs"}, "7": {"label": "*3", "atom_type": "N3d"}, "8": {"label": "*4", "atom_type": "Cd"}, "13": {"label": "*2", "atom_type": "H0"}}

>  <type>  (17) 
unop_13

>  <geom_source>  (17) 
gaussian_log

$$$$
