
     RDKit          3D

  9  8  0  0  0  0  0  0  0  0999 V2000
   -2.1022   -0.6873    0.3932 C   0  0  0  0  0  0  0  0  0  0  0  0
   -1.2072   -0.1086   -0.1482 C   0  0  0  0  0  0  0  0  0  0  0  0
   -0.1242    0.6105   -0.8193 C   0  0  0  0  0  0  0  0  0  0  0  0
    1.2067    0.1106   -0.4741 C   0  0  0  0  0  0  0  0  0  0  0  0
    2.3005   -0.2875   -0.2012 C   0  0  0  0  0  0  0  0  0  0  0  0
   -2.8942   -1.2059    0.8778 H   0  0  0  0  0  0  0  0  0  0  0  0
   -0.1862    1.6723   -0.5649 H   0  0  0  0  0  0  0  0  0  0  0  0
   -0.2641    0.5418   -1.9017 H   0  0  0  0  0  0  0  0  0  0  0  0
    3.2709   -0.6459    0.0455 H   0  0  0  0  0  0  0  0  0  0  0  0
  1  2  3  0
  1  6  1  0
  2  3  1  0
  3  4  1  0
  3  7  1  0
  3  8  1  0
  4  5  3  0
  5  9  1  0
M  END
>  <reaction>  (1) 
rxn_1357

>  <mol_properties>  (1) 
{"2": {"label": "donator", "atom_type": "Cs"}, "6": {"label": "d_hydrogen", "atom_type": "H0"}}

>  <type>  (1) 
r1h

$$$$

     RDKit          3D

 12 11  0  0  0  0  0  0  0  0999 V2000
    2.5164   -0.5559   -0.0242 C   0  0  0  0  0  0  0  0  0  0  0  0
    1.3287   -0.2938   -0.0132 C   0  0  0  0  0  0  0  0  0  0  0  0
   -0.0146    0.0027   -0.0006 C   0  0  0  0  0  3  0  0  0  0  0  0
   -1.0396   -1.0729   -0.1642 C   0  0  0  0  0  0  0  0  0  0  0  0
   -0.4887    1.4091    0.1769 C   0  0  0  0  0  0  0  0  0  0  0  0
    3.5543   -0.7850   -0.0339 H   0  0  0  0  0  0  0  0  0  0  0  0
   -1.7064   -1.1056    0.7044 H   0  0  0  0  0  0  0  0  0  0  0  0
   -0.5831   -2.0533   -0.2854 H   0  0  0  0  0  0  0  0  0  0  0  0
   -1.6716   -0.8741   -1.0367 H   0  0  0  0  0  0  0  0  0  0  0  0
   -1.0951    1.7228   -0.6798 H   0  0  0  0  0  0  0  0  0  0  0  0
    0.3401    2.1059    0.2861 H   0  0  0  0  0  0  0  0  0  0  0  0
   -1.1300    1.4913    1.0613 H   0  0  0  0  0  0  0  0  0  0  0  0
  1  2  3  0
  1  6  1  0
  2  3  1  0
  3  4  1  0
  3  5  1  0
  4  7  1  0
  4  8  1  0
  4  9  1  0
  5 10  1  0
  5 11  1  0
  5 12  1  0
M  RAD  1   3   2
M  END
>  <reaction>  (2) 
rxn_1357

>  <mol_properties>  (2) 
{"2": {"label": "acceptor", "atom_type": "Cs"}}

>  <type>  (2) 
r2

$$$$

     RDKit          3D

 13 12  0  0  0  0  0  0  0  0999 V2000
    2.2975   -0.6134    0.7685 C   0  0  0  0  0  0  0  0  0  0  0  0
    1.1676   -0.5248    0.3802 C   0  0  0  0  0  0  0  0  0  0  0  0
   -0.2109   -0.3926   -0.0948 C   0  0  0  0  0  0  0  0  0  0  0  0
   -0.2501    0.2584   -1.4808 C   0  0  0  0  0  0  0  0  0  0  0  0
   -1.0633    0.3831    0.9141 C   0  0  0  0  0  0  0  0  0  0  0  0
    3.2999   -0.6974    1.1133 H   0  0  0  0  0  0  0  0  0  0  0  0
   -0.6209   -1.4038   -0.1814 H   0  0  0  0  0  0  0  0  0  0  0  0
    0.3402   -0.3102   -2.1992 H   0  0  0  0  0  0  0  0  0  0  0  0
    0.1511    1.2724   -1.4369 H   0  0  0  0  0  0  0  0  0  0  0  0
   -1.2791    0.3109   -1.8407 H   0  0  0  0  0  0  0  0  0  0  0  0
   -0.6861    1.4008    1.0287 H   0  0  0  0  0  0  0  0  0  0  0  0
   -1.0492   -0.0971    1.8924 H   0  0  0  0  0  0  0  0  0  0  0  0
   -2.0971    0.4363    0.5680 H   0  0  0  0  0  0  0  0  0  0  0  0
  1  2  3  0
  1  6  1  0
  2  3  1  0
  3  4  1  0
  3  5  1  0
  3  7  1  0
  4  8  1  0
  4  9  1  0
  4 10  1  0
  5 11  1  0
  5 12  1  0
  5 13  1  0
M  END
>  <reaction>  (3) 
rxn_1357

>  <mol_properties>  (3) 
{"2": {"label": "acceptor", "atom_type": "Cs"}, "12": {"label": "a_hydrogen", "atom_type": "H0"}}

>  <type>  (3) 
r2h

$$$$

     RDKit          3D

 21 19  0  0  0  0  0  0  0  0999 V2000
    3.3286    0.7393   -0.3966 C   0  0  0  0  0  0  0  0  0  0  0  0
    2.2335    0.7950    0.0982 C   0  0  0  0  0  0  0  0  0  0  0  0
    0.9139    0.8234    0.6381 C   0  0  0  0  0  3  0  0  0  0  0  0
    0.1691    2.1318    0.4910 C   0  0  0  0  0  0  0  0  0  0  0  0
    0.7267    0.1088    1.9576 C   0  0  0  0  0  0  0  0  0  0  0  0
    4.3014    0.6941   -0.8236 H   0  0  0  0  0  0  0  0  0  0  0  0
   -0.8932    1.9822    0.6917 H   0  0  0  0  0  0  0  0  0  0  0  0
    0.2827    2.5421   -0.5123 H   0  0  0  0  0  0  0  0  0  0  0  0
    0.5503    2.8692    1.2037 H   0  0  0  0  0  0  0  0  0  0  0  0
    1.1741    0.6856    2.7723 H   0  0  0  0  0  0  0  0  0  0  0  0
    1.1916   -0.8765    1.9385 H   0  0  0  0  0  0  0  0  0  0  0  0
   -0.3377   -0.0114    2.1684 H   0  0  0  0  0  0  0  0  0  0  0  0
   -2.9708   -0.3716   -0.0178 C   0  0  0  0  0  0  0  0  0  0  0  0
   -1.8735   -0.6092   -0.4433 C   0  0  0  0  0  0  0  0  0  0  0  0
   -0.5396   -0.8339   -0.9115 C   0  0  0  0  0  0  0  0  0  0  0  0
    0.0350   -2.1231   -0.6775 C   0  0  0  0  0  0  0  0  0  0  0  0
    0.5676   -3.1744   -0.4505 C   0  0  0  0  0  0  0  0  0  0  0  0
   -3.9524   -0.1810    0.3440 H   0  0  0  0  0  0  0  0  0  0  0  0
    0.2277    0.0042   -0.1935 H   0  0  0  0  0  0  0  0  0  0  0  0
   -0.3516   -0.4443   -1.9112 H   0  0  0  0  0  0  0  0  0  0  0  0
    1.0259   -4.1151   -0.2617 H   0  0  0  0  0  0  0  0  0  0  0  0
  1  2  3  0
  1  6  1  0
  2  3  1  0
  3  4  1  0
  3  5  1  0
  4  7  1  0
  4  8  1  0
  4  9  1  0
  5 10  1  0
  5 11  1  0
  5 12  1  0
 13 14  3  0
 13 18  1  0
 14 15  1  0
 15 16  1  0
 15 19  1  0
 15 20  1  0
 16 17  3  0
 17 21  1  0
M  RAD  1   3   2
M  END
>  <reaction>  (4) 
rxn_1357

>  <mol_properties>  (4) 
{"1": {"label": "*4", "atom_type": "Ct"}, "2": {"label": "*3", "atom_type": "Cs"}, "13": {"label": "*0", "atom_type": "Ct"}, "14": {"label": "*1", "atom_type": "Cs"}, "18": {"label": "*2", "atom_type": "H0"}}

>  <type>  (4) 
ts

$$$$

     RDKit          3D

 21 19  0  0  0  0  0  0  0  0999 V2000
   -0.1399    2.3665    1.8763 C   0  0  0  0  0  0  0  0  0  0  0  0
    0.4595    1.5738    1.2071 C   0  0  0  0  0  0  0  0  0  0  0  0
    1.2104    0.6066    0.4047 C   0  0  0  0  0  3  0  0  0  0  0  0
    1.5070   -0.6598    1.2137 C   0  0  0  0  0  0  0  0  0  0  0  0
    2.4944    1.2347   -0.1458 C   0  0  0  0  0  0  0  0  0  0  0  0
   -0.6719    3.0700    2.4702 H   0  0  0  0  0  0  0  0  0  0  0  0
    2.0284   -1.3885    0.5905 H   0  0  0  0  0  0  0  0  0  0  0  0
    0.5881   -1.1141    1.5840 H   0  0  0  0  0  0  0  0  0  0  0  0
    2.1403   -0.4246    2.0709 H   0  0  0  0  0  0  0  0  0  0  0  0
    3.1568    1.5258    0.6713 H   0  0  0  0  0  0  0  0  0  0  0  0
    2.2751    2.1225   -0.7388 H   0  0  0  0  0  0  0  0  0  0  0  0
    3.0215    0.5169   -0.7769 H   0  0  0  0  0  0  0  0  0  0  0  0
   -0.5067   -1.1831   -3.1163 C   0  0  0  0  0  0  0  0  0  0  0  0
   -0.5067   -1.1831   -1.9208 C   0  0  0  0  0  0  0  0  0  0  0  0
   -0.5067   -1.1831   -0.4578 C   0  0  0  0  0  0  0  0  0  0  0  0
   -1.8207   -0.9074    0.1234 C   0  0  0  0  0  0  0  0  0  0  0  0
   -2.8945   -0.6822    0.5983 C   0  0  0  0  0  0  0  0  0  0  0  0
   -0.5067   -1.1831   -4.1798 H   0  0  0  0  0  0  0  0  0  0  0  0
    0.3514   -0.2887   -0.0268 H   0  0  0  0  0  0  0  0  0  0  0  0
   -0.1513   -2.1529   -0.0986 H   0  0  0  0  0  0  0  0  0  0  0  0
   -3.8497   -0.4819    1.0207 H   0  0  0  0  0  0  0  0  0  0  0  0
  1  2  3  0
  1  6  1  0
  2  3  1  0
  3  4  1  0
  3  5  1  0
  4  7  1  0
  4  8  1  0
  4  9  1  0
  5 10  1  0
  5 11  1  0
  5 12  1  0
 13 14  3  0
 13 18  1  0
 14 15  1  0
 15 16  1  0
 15 19  1  0
 15 20  1  0
 16 17  3  0
 17 21  1  0
M  RAD  1   3   2
M  END
>  <reaction>  (5) 
rxn_1357

>  <mol_properties>  (5) 
{"1": {"label": "*4", "atom_type": "Ct"}, "2": {"label": "*3", "atom_type": "Cs"}, "13": {"label": "*0", "atom_type": "Ct"}, "14": {"label": "*1", "atom_type": "Cs"}, "18": {"label": "*2", "atom_type": "H0"}}

>  <type>  (5) 
unop_1

>  <geom_source>  (5) 
Heuristics

$$$$

     RDKit          3D

 21 19  0  0  0  0  0  0  0  0999 V2000
    1.2223    2.4476   -1.0713 C   0  0  0  0  0  0  0  0  0  0  0  0
    1.1708    1.5636   -0.2643 C   0  0  0  0  0  0  0  0  0  0  0  0
    1.1177    0.4980    0.7381 C   0  0  0  0  0  3  0  0  0  0  0  0
    0.2140    0.8955    1.9092 C   0  0  0  0  0  0  0  0  0  0  0  0
    2.5252    0.1278    1.2156 C   0  0  0  0  0  0  0  0  0  0  0  0
    1.2679    3.2322   -1.7876 H   0  0  0  0  0  0  0  0  0  0  0  0
    0.1491    0.0757    2.6269 H   0  0  0  0  0  0  0  0  0  0  0  0
   -0.7919    1.1363    1.5657 H   0  0  0  0  0  0  0  0  0  0  0  0
    0.6175    1.7703    2.4219 H   0  0  0  0  0  0  0  0  0  0  0  0
    2.9970    0.9800    1.7078 H   0  0  0  0  0  0  0  0  0  0  0  0
    3.1568   -0.1753    0.3806 H   0  0  0  0  0  0  0  0  0  0  0  0
    2.4737   -0.6964    1.9293 H   0  0  0  0  0  0  0  0  0  0  0  0
   -0.5994   -1.2917   -2.7829 C   0  0  0  0  0  0  0  0  0  0  0  0
   -0.5994   -1.2917   -1.5874 C   0  0  0  0  0  0  0  0  0  0  0  0
   -0.5994   -1.2917   -0.1244 C   0  0  0  0  0  0  0  0  0  0  0  0
   -1.9134   -1.0161    0.4568 C   0  0  0  0  0  0  0  0  0  0  0  0
   -2.9872   -0.7909    0.9317 C   0  0  0  0  0  0  0  0  0  0  0  0
   -0.5994   -1.2917   -3.8464 H   0  0  0  0  0  0  0  0  0  0  0  0
    0.2587   -0.3973    0.3066 H   0  0  0  0  0  0  0  0  0  0  0  0
   -0.2440   -2.2616    0.2348 H   0  0  0  0  0  0  0  0  0  0  0  0
   -3.9424   -0.5905    1.3541 H   0  0  0  0  0  0  0  0  0  0  0  0
  1  2  3  0
  1  6  1  0
  2  3  1  0
  3  4  1  0
  3  5  1  0
  4  7  1  0
  4  8  1  0
  4  9  1  0
  5 10  1  0
  5 11  1  0
  5 12  1  0
 13 14  3  0
 13 18  1  0
 14 15  1  0
 15 16  1  0
 15 19  1  0
 15 20  1  0
 16 17  3  0
 17 21  1  0
M  RAD  1   3   2
M  END
>  <reaction>  (6) 
rxn_1357

>  <mol_properties>  (6) 
{"1": {"label": "*4", "atom_type": "Ct"}, "2": {"label": "*3", "atom_type": "Cs"}, "13": {"label": "*0", "atom_type": "Ct"}, "14": {"label": "*1", "atom_type": "Cs"}, "18": {"label": "*2", "atom_type": "H0"}}

>  <type>  (6) 
unop_2

>  <geom_source>  (6) 
Heuristics

$$$$

     RDKit          3D

 21 19  0  0  0  0  0  0  0  0999 V2000
    0.2483    1.5674    2.7172 C   0  0  0  0  0  0  0  0  0  0  0  0
    0.6374    1.1609    1.6594 C   0  0  0  0  0  0  0  0  0  0  0  0
    1.1352    0.6695    0.3734 C   0  0  0  0  0  3  0  0  0  0  0  0
    2.0765   -0.5224    0.5723 C   0  0  0  0  0  0  0  0  0  0  0  0
    1.8127    1.7945   -0.4150 C   0  0  0  0  0  0  0  0  0  0  0  0
   -0.0970    1.9281    3.6559 H   0  0  0  0  0  0  0  0  0  0  0  0
    2.4052   -0.9053   -0.3954 H   0  0  0  0  0  0  0  0  0  0  0  0
    1.5817   -1.3281    1.1145 H   0  0  0  0  0  0  0  0  0  0  0  0
    2.9582   -0.2207    1.1404 H   0  0  0  0  0  0  0  0  0  0  0  0
    2.6867    2.1645    0.1240 H   0  0  0  0  0  0  0  0  0  0  0  0
    1.1311    2.6303   -0.5724 H   0  0  0  0  0  0  0  0  0  0  0  0
    2.1400    1.4249   -1.3884 H   0  0  0  0  0  0  0  0  0  0  0  0
   -0.5819   -1.1202   -3.1476 C   0  0  0  0  0  0  0  0  0  0  0  0
   -0.5819   -1.1202   -1.9521 C   0  0  0  0  0  0  0  0  0  0  0  0
   -0.5819   -1.1202   -0.4891 C   0  0  0  0  0  0  0  0  0  0  0  0
   -1.8959   -0.8446    0.0920 C   0  0  0  0  0  0  0  0  0  0  0  0
   -2.9697   -0.6193    0.5669 C   0  0  0  0  0  0  0  0  0  0  0  0
   -0.5819   -1.1202   -4.2111 H   0  0  0  0  0  0  0  0  0  0  0  0
    0.2762   -0.2258   -0.0581 H   0  0  0  0  0  0  0  0  0  0  0  0
   -0.2265   -2.0900   -0.1299 H   0  0  0  0  0  0  0  0  0  0  0  0
   -3.9249   -0.4190    0.9894 H   0  0  0  0  0  0  0  0  0  0  0  0
  1  2  3  0
  1  6  1  0
  2  3  1  0
  3  4  1  0
  3  5  1  0
  4  7  1  0
  4  8  1  0
  4  9  1  0
  5 10  1  0
  5 11  1  0
  5 12  1  0
 13 14  3  0
 13 18  1  0
 14 15  1  0
 15 16  1  0
 15 19  1  0
 15 20  1  0
 16 17  3  0
 17 21  1  0
M  RAD  1   3   2
M  END
>  <reaction>  (7) 
rxn_1357

>  <mol_properties>  (7) 
{"1": {"label": "*4", "atom_type": "Ct"}, "2": {"label": "*3", "atom_type": "Cs"}, "13": {"label": "*0", "atom_type": "Ct"}, "14": {"label": "*1", "atom_type": "Cs"}, "18": {"label": "*2", "atom_type": "H0"}}

>  <type>  (7) 
unop_3

>  <geom_source>  (7) 
Heuristics

$$$$

     RDKit          3D

 21 19  0  0  0  0  0  0  0  0999 V2000
    3.2770    0.1257   -0.3029 C   0  0  0  0  0  0  0  0  0  0  0  0
    2.1920    0.4280    0.1057 C   0  0  0  0  0  0  0  0  0  0  0  0
    0.8765    0.8067    0.6245 C   0  0  0  0  0  3  0  0  0  0  0  0
    0.7693    2.3265    0.7822 C   0  0  0  0  0  0  0  0  0  0  0  0
    0.5809    0.0833    1.9419 C   0  0  0  0  0  0  0  0  0  0  0  0
    4.2399   -0.1426   -0.6655 H   0  0  0  0  0  0  0  0  0  0  0  0
   -0.2299    2.5974    1.1279 H   0  0  0  0  0  0  0  0  0  0  0  0
    0.9589    2.8344   -0.1633 H   0  0  0  0  0  0  0  0  0  0  0  0
    1.4954    2.6857    1.5135 H   0  0  0  0  0  0  0  0  0  0  0  0
    1.3015    0.3763    2.7074 H   0  0  0  0  0  0  0  0  0  0  0  0
    0.6370   -0.9981    1.8179 H   0  0  0  0  0  0  0  0  0  0  0  0
   -0.4194    0.3412    2.2943 H   0  0  0  0  0  0  0  0  0  0  0  0
   -0.8406   -0.9830   -2.8965 C   0  0  0  0  0  0  0  0  0  0  0  0
   -0.8406   -0.9830   -1.7010 C   0  0  0  0  0  0  0  0  0  0  0  0
   -0.8406   -0.9830   -0.2380 C   0  0  0  0  0  0  0  0  0  0  0  0
   -2.1546   -0.7074    0.3432 C   0  0  0  0  0  0  0  0  0  0  0  0
   -3.2284   -0.4822    0.8180 C   0  0  0  0  0  0  0  0  0  0  0  0
   -0.8406   -0.9830   -3.9600 H   0  0  0  0  0  0  0  0  0  0  0  0
    0.0175   -0.0886    0.1930 H   0  0  0  0  0  0  0  0  0  0  0  0
   -0.4853   -1.9529    0.1212 H   0  0  0  0  0  0  0  0  0  0  0  0
   -4.1836   -0.2818    1.2405 H   0  0  0  0  0  0  0  0  0  0  0  0
  1  2  3  0
  1  6  1  0
  2  3  1  0
  3  4  1  0
  3  5  1  0
  4  7  1  0
  4  8  1  0
  4  9  1  0
  5 10  1  0
  5 11  1  0
  5 12  1  0
 13 14  3  0
 13 18  1  0
 14 15  1  0
 15 16  1  0
 15 19  1  0
 15 20  1  0
 16 17  3  0
 17 21  1  0
M  RAD  1   3   2
M  END
>  <reaction>  (8) 
rxn_1357

>  <mol_properties>  (8) 
{"1": {"label": "*4", "atom_type": "Ct"}, "2": {"label": "*3", "atom_type": "Cs"}, "13": {"label": "*0", "atom_type": "Ct"}, "14": {"label": "*1", "atom_type": "Cs"}, "18": {"label": "*2", "atom_type": "H0"}}

>  <type>  (8) 
unop_4

>  <geom_source>  (8) 
Heuristics

$$$$

     RDKit          3D

 21 19  0  0  0  0  0  0  0  0999 V2000
    1.0365    0.6342    3.0403 C   0  0  0  0  0  0  0  0  0  0  0  0
    1.0522    0.6505    1.8425 C   0  0  0  0  0  0  0  0  0  0  0  0
    1.0880    0.6878    0.3794 C   0  0  0  0  0  3  0  0  0  0  0  0
    2.4768    0.3066   -0.1421 C   0  0  0  0  0  0  0  0  0  0  0  0
    0.6496    2.0597   -0.1421 C   0  0  0  0  0  0  0  0  0  0  0  0
    1.0226    0.6196    4.1035 H   0  0  0  0  0  0  0  0  0  0  0  0
    2.4770    0.2962   -1.2335 H   0  0  0  0  0  0  0  0  0  0  0  0
    2.7737   -0.6797    0.2143 H   0  0  0  0  0  0  0  0  0  0  0  0
    3.2219    1.0292    0.1952 H   0  0  0  0  0  0  0  0  0  0  0  0
    1.3408    2.8341    0.1952 H   0  0  0  0  0  0  0  0  0  0  0  0
   -0.3481    2.3155    0.2143 H   0  0  0  0  0  0  0  0  0  0  0  0
    0.6392    2.0595   -1.2335 H   0  0  0  0  0  0  0  0  0  0  0  0
   -0.6291   -1.1019   -3.1416 C   0  0  0  0  0  0  0  0  0  0  0  0
   -0.6291   -1.1019   -1.9461 C   0  0  0  0  0  0  0  0  0  0  0  0
   -0.6291   -1.1019   -0.4831 C   0  0  0  0  0  0  0  0  0  0  0  0
   -1.9431   -0.8263    0.0980 C   0  0  0  0  0  0  0  0  0  0  0  0
   -3.0169   -0.6010    0.5729 C   0  0  0  0  0  0  0  0  0  0  0  0
   -0.6291   -1.1019   -4.2051 H   0  0  0  0  0  0  0  0  0  0  0  0
    0.2290   -0.2075   -0.0521 H   0  0  0  0  0  0  0  0  0  0  0  0
   -0.2738   -2.0717   -0.1239 H   0  0  0  0  0  0  0  0  0  0  0  0
   -3.9721   -0.4007    0.9954 H   0  0  0  0  0  0  0  0  0  0  0  0
  1  2  3  0
  1  6  1  0
  2  3  1  0
  3  4  1  0
  3  5  1  0
  4  7  1  0
  4  8  1  0
  4  9  1  0
  5 10  1  0
  5 11  1  0
  5 12  1  0
 13 14  3  0
 13 18  1  0
 14 15  1  0
 15 16  1  0
 15 19  1  0
 15 20  1  0
 16 17  3  0
 17 21  1  0
M  RAD  1   3   2
M  END
>  <reaction>  (9) 
rxn_1357

>  <mol_properties>  (9) 
{"1": {"label": "*4", "atom_type": "Ct"}, "2": {"label": "*3", "atom_type": "Cs"}, "13": {"label": "*0", "atom_type": "Ct"}, "14": {"label": "*1", "atom_type": "Cs"}, "18": {"label": "*2", "atom_type": "H0"}}

>  <type>  (9) 
unop_5

>  <geom_source>  (9) 
Heuristics

$$$$

     RDKit          3D

 21 19  0  0  0  0  0  0  0  0999 V2000
    3.2743   -0.3757    0.7716 C   0  0  0  0  0  0  0  0  0  0  0  0
    2.2137    0.1658    0.6392 C   0  0  0  0  0  0  0  0  0  0  0  0
    0.9220    0.8400    0.4974 C   0  0  0  0  0  3  0  0  0  0  0  0
    1.1116    2.3488    0.3136 C   0  0  0  0  0  0  0  0  0  0  0  0
    0.0111    0.5296    1.6890 C   0  0  0  0  0  0  0  0  0  0  0  0
    4.2155   -0.8562    0.8891 H   0  0  0  0  0  0  0  0  0  0  0  0
    0.1443    2.8323    0.1658 H   0  0  0  0  0  0  0  0  0  0  0  0
    1.7424    2.5638   -0.5488 H   0  0  0  0  0  0  0  0  0  0  0  0
    1.5822    2.7839    1.1970 H   0  0  0  0  0  0  0  0  0  0  0  0
    0.4492    0.9111    2.6130 H   0  0  0  0  0  0  0  0  0  0  0  0
   -0.1378   -0.5443    1.8011 H   0  0  0  0  0  0  0  0  0  0  0  0
   -0.9625    1.0026    1.5492 H   0  0  0  0  0  0  0  0  0  0  0  0
   -0.7951   -0.9497   -3.0236 C   0  0  0  0  0  0  0  0  0  0  0  0
   -0.7951   -0.9497   -1.8281 C   0  0  0  0  0  0  0  0  0  0  0  0
   -0.7951   -0.9497   -0.3651 C   0  0  0  0  0  0  0  0  0  0  0  0
   -2.1091   -0.6741    0.2160 C   0  0  0  0  0  0  0  0  0  0  0  0
   -3.1829   -0.4489    0.6909 C   0  0  0  0  0  0  0  0  0  0  0  0
   -0.7951   -0.9497   -4.0871 H   0  0  0  0  0  0  0  0  0  0  0  0
    0.0630   -0.0553    0.0659 H   0  0  0  0  0  0  0  0  0  0  0  0
   -0.4398   -1.9195   -0.0059 H   0  0  0  0  0  0  0  0  0  0  0  0
   -4.1381   -0.2485    1.1134 H   0  0  0  0  0  0  0  0  0  0  0  0
  1  2  3  0
  1  6  1  0
  2  3  1  0
  3  4  1  0
  3  5  1  0
  4  7  1  0
  4  8  1  0
  4  9  1  0
  5 10  1  0
  5 11  1  0
  5 12  1  0
 13 14  3  0
 13 18  1  0
 14 15  1  0
 15 16  1  0
 15 19  1  0
 15 20  1  0
 16 17  3  0
 17 21  1  0
M  RAD  1   3   2
M  END
>  <reaction>  (10) 
rxn_1357

>  <mol_properties>  (10) 
{"1": {"label": "*4", "atom_type": "Ct"}, "2": {"label": "*3", "atom_type": "Cs"}, "13": {"label": "*0", "atom_type": "Ct"}, "14": {"label": "*1", "atom_type": "Cs"}, "18": {"label": "*2", "atom_type": "H0"}}

>  <type>  (10) 
unop_6

>  <geom_source>  (10) 
Heuristics

$$$$

     RDKit          3D

 21 19  0  0  0  0  0  0  0  0999 V2000
    2.8160   -0.4696    1.8763 C   0  0  0  0  0  0  0  0  0  0  0  0
    1.9993    0.0965    1.2071 C   0  0  0  0  0  0  0  0  0  0  0  0
    1.0018    0.8068    0.4047 C   0  0  0  0  0  3  0  0  0  0  0  0
    1.5762    2.1156   -0.1458 C   0  0  0  0  0  0  0  0  0  0  0  0
   -0.2758    1.0507    1.2137 C   0  0  0  0  0  0  0  0  0  0  0  0
    3.5409   -0.9720    2.4702 H   0  0  0  0  0  0  0  0  0  0  0  0
    0.8373    2.6126   -0.7769 H   0  0  0  0  0  0  0  0  0  0  0  0
    2.4724    1.9333   -0.7388 H   0  0  0  0  0  0  0  0  0  0  0  0
    1.8396    2.7895    0.6713 H   0  0  0  0  0  0  0  0  0  0  0  0
   -0.0670    1.6932    2.0709 H   0  0  0  0  0  0  0  0  0  0  0  0
   -0.6918    0.1138    1.5840 H   0  0  0  0  0  0  0  0  0  0  0  0
   -1.0255    1.5415    0.5905 H   0  0  0  0  0  0  0  0  0  0  0  0
   -0.7153   -0.9829   -3.1163 C   0  0  0  0  0  0  0  0  0  0  0  0
   -0.7153   -0.9829   -1.9208 C   0  0  0  0  0  0  0  0  0  0  0  0
   -0.7153   -0.9829   -0.4578 C   0  0  0  0  0  0  0  0  0  0  0  0
   -2.0293   -0.7073    0.1234 C   0  0  0  0  0  0  0  0  0  0  0  0
   -3.1031   -0.4821    0.5983 C   0  0  0  0  0  0  0  0  0  0  0  0
   -0.7153   -0.9829   -4.1798 H   0  0  0  0  0  0  0  0  0  0  0  0
    0.1428   -0.0885   -0.0268 H   0  0  0  0  0  0  0  0  0  0  0  0
   -0.3600   -1.9528   -0.0986 H   0  0  0  0  0  0  0  0  0  0  0  0
   -4.0583   -0.2817    1.0207 H   0  0  0  0  0  0  0  0  0  0  0  0
  1  2  3  0
  1  6  1  0
  2  3  1  0
  3  4  1  0
  3  5  1  0
  4  7  1  0
  4  8  1  0
  4  9  1  0
  5 10  1  0
  5 11  1  0
  5 12  1  0
 13 14  3  0
 13 18  1  0
 14 15  1  0
 15 16  1  0
 15 19  1  0
 15 20  1  0
 16 17  3  0
 17 21  1  0
M  RAD  1   3   2
M  END
>  <reaction>  (11) 
rxn_1357

>  <mol_properties>  (11) 
{"1": {"label": "*4", "atom_type": "Ct"}, "2": {"label": "*3", "atom_type": "Cs"}, "13": {"label": "*0", "atom_type": "Ct"}, "14": {"label": "*1", "atom_type": "Cs"}, "18": {"label": "*2", "atom_type": "H0"}}

>  <type>  (11) 
unop_7

>  <geom_source>  (11) 
Heuristics

$$$$

     RDKit          3D

 21 19  0  0  0  0  0  0  0  0999 V2000
   -0.0651    2.8282    0.7716 C   0  0  0  0  0  0  0  0  0  0  0  0
    0.5198    1.7910    0.6392 C   0  0  0  0  0  0  0  0  0  0  0  0
    1.2469    0.5283    0.4974 C   0  0  0  0  0  3  0  0  0  0  0  0
    0.9745   -0.3947    1.6890 C   0  0  0  0  0  0  0  0  0  0  0  0
    2.7465    0.7801    0.3136 C   0  0  0  0  0  0  0  0  0  0  0  0
   -0.5841    3.7488    0.8891 H   0  0  0  0  0  0  0  0  0  0  0  0
    1.4873   -1.3479    1.5492 H   0  0  0  0  0  0  0  0  0  0  0  0
   -0.0923   -0.5879    1.8011 H   0  0  0  0  0  0  0  0  0  0  0  0
    1.3375    0.0589    2.6130 H   0  0  0  0  0  0  0  0  0  0  0  0
    3.1619    1.2683    1.1970 H   0  0  0  0  0  0  0  0  0  0  0  0
    2.9353    1.4193   -0.5488 H   0  0  0  0  0  0  0  0  0  0  0  0
    3.2697   -0.1663    0.1658 H   0  0  0  0  0  0  0  0  0  0  0  0
   -0.4702   -1.2614   -3.0236 C   0  0  0  0  0  0  0  0  0  0  0  0
   -0.4702   -1.2614   -1.8281 C   0  0  0  0  0  0  0  0  0  0  0  0
   -0.4702   -1.2614   -0.3651 C   0  0  0  0  0  0  0  0  0  0  0  0
   -1.7842   -0.9858    0.2160 C   0  0  0  0  0  0  0  0  0  0  0  0
   -2.8580   -0.7606    0.6909 C   0  0  0  0  0  0  0  0  0  0  0  0
   -0.4702   -1.2614   -4.0871 H   0  0  0  0  0  0  0  0  0  0  0  0
    0.3879   -0.3670    0.0659 H   0  0  0  0  0  0  0  0  0  0  0  0
   -0.1149   -2.2313   -0.0059 H   0  0  0  0  0  0  0  0  0  0  0  0
   -3.8132   -0.5603    1.1134 H   0  0  0  0  0  0  0  0  0  0  0  0
  1  2  3  0
  1  6  1  0
  2  3  1  0
  3  4  1  0
  3  5  1  0
  4  7  1  0
  4  8  1  0
  4  9  1  0
  5 10  1  0
  5 11  1  0
  5 12  1  0
 13 14  3  0
 13 18  1  0
 14 15  1  0
 15 16  1  0
 15 19  1  0
 15 20  1  0
 16 17  3  0
 17 21  1  0
M  RAD  1   3   2
M  END
>  <reaction>  (12) 
rxn_1357

>  <mol_properties>  (12) 
{"1": {"label": "*4", "atom_type": "Ct"}, "2": {"label": "*3", "atom_type": "Cs"}, "13": {"label": "*0", "atom_type": "Ct"}, "14": {"label": "*1", "atom_type": "Cs"}, "18": {"label": "*2", "atom_type": "H0"}}

>  <type>  (12) 
unop_8

>  <geom_source>  (12) 
Heuristics

$$$$

     RDKit          3D

 21 19  0  0  0  0  0  0  0  0999 V2000
    2.8407    0.8948   -1.0714 C   0  0  0  0  0  0  0  0  0  0  0  0
    1.9596    0.8068   -0.2643 C   0  0  0  0  0  0  0  0  0  0  0  0
    0.8971    0.7097    0.7381 C   0  0  0  0  0  3  0  0  0  0  0  0
    0.4690    2.1007    1.2156 C   0  0  0  0  0  0  0  0  0  0  0  0
    1.3316   -0.1768    1.9092 C   0  0  0  0  0  0  0  0  0  0  0  0
    3.6228    0.9729   -1.7876 H   0  0  0  0  0  0  0  0  0  0  0  0
   -0.3524    2.0151    1.9293 H   0  0  0  0  0  0  0  0  0  0  0  0
    0.1400    2.7192    0.3806 H   0  0  0  0  0  0  0  0  0  0  0  0
    1.3010    2.6072    1.7078 H   0  0  0  0  0  0  0  0  0  0  0  0
    2.1890    0.2625    2.4219 H   0  0  0  0  0  0  0  0  0  0  0  0
    1.6139   -1.1719    1.5657 H   0  0  0  0  0  0  0  0  0  0  0  0
    0.5153   -0.2756    2.6269 H   0  0  0  0  0  0  0  0  0  0  0  0
   -0.8200   -1.0800   -2.7829 C   0  0  0  0  0  0  0  0  0  0  0  0
   -0.8200   -1.0800   -1.5874 C   0  0  0  0  0  0  0  0  0  0  0  0
   -0.8200   -1.0800   -0.1244 C   0  0  0  0  0  0  0  0  0  0  0  0
   -2.1341   -0.8044    0.4568 C   0  0  0  0  0  0  0  0  0  0  0  0
   -3.2078   -0.5792    0.9317 C   0  0  0  0  0  0  0  0  0  0  0  0
   -0.8200   -1.0800   -3.8464 H   0  0  0  0  0  0  0  0  0  0  0  0
    0.0381   -0.1856    0.3066 H   0  0  0  0  0  0  0  0  0  0  0  0
   -0.4647   -2.0499    0.2348 H   0  0  0  0  0  0  0  0  0  0  0  0
   -4.1630   -0.3788    1.3541 H   0  0  0  0  0  0  0  0  0  0  0  0
  1  2  3  0
  1  6  1  0
  2  3  1  0
  3  4  1  0
  3  5  1  0
  4  7  1  0
  4  8  1  0
  4  9  1  0
  5 10  1  0
  5 11  1  0
  5 12  1  0
 13 14  3  0
 13 18  1  0
 14 15  1  0
 15 16  1  0
 15 19  1  0
 15 20  1  0
 16 17  3  0
 17 21  1  0
M  RAD  1   3   2
M  END
>  <reaction>  (13) 
rxn_1357

>  <mol_properties>  (13) 
{"1": {"label": "*4", "atom_type": "Ct"}, "2": {"label": "*3", "atom_type": "Cs"}, "13": {"label": "*0", "atom_type": "Ct"}, "14": {"label": "*1", "atom_type": "Cs"}, "18": {"label": "*2", "atom_type": "H0"}}

>  <type>  (13) 
unop_9

>  <geom_source>  (13) 
Heuristics

$$$$

     RDKit          3D

 21 19  0  0  0  0  0  0  0  0999 V2000
    0.4358    2.8517   -0.3029 C   0  0  0  0  0  0  0  0  0  0  0  0
    0.7827    1.7802    0.1057 C   0  0  0  0  0  0  0  0  0  0  0  0
    1.2155    0.4814    0.6245 C   0  0  0  0  0  3  0  0  0  0  0  0
    0.5049    0.1562    1.9419 C   0  0  0  0  0  0  0  0  0  0  0  0
    2.7384    0.4372    0.7822 C   0  0  0  0  0  0  0  0  0  0  0  0
    0.1278    3.8027   -0.6655 H   0  0  0  0  0  0  0  0  0  0  0  0
    0.8040   -0.8326    2.2943 H   0  0  0  0  0  0  0  0  0  0  0  0
   -0.5779    0.1675    1.8179 H   0  0  0  0  0  0  0  0  0  0  0  0
    0.7679    0.8882    2.7074 H   0  0  0  0  0  0  0  0  0  0  0  0
    3.0673    1.1776    1.5135 H   0  0  0  0  0  0  0  0  0  0  0  0
    3.2381    0.6476   -0.1633 H   0  0  0  0  0  0  0  0  0  0  0  0
    3.0504   -0.5499    1.1279 H   0  0  0  0  0  0  0  0  0  0  0  0
   -0.5016   -1.3083   -2.8965 C   0  0  0  0  0  0  0  0  0  0  0  0
   -0.5016   -1.3083   -1.7010 C   0  0  0  0  0  0  0  0  0  0  0  0
   -0.5016   -1.3083   -0.2380 C   0  0  0  0  0  0  0  0  0  0  0  0
   -1.8156   -1.0327    0.3432 C   0  0  0  0  0  0  0  0  0  0  0  0
   -2.8894   -0.8074    0.8180 C   0  0  0  0  0  0  0  0  0  0  0  0
   -0.5016   -1.3083   -3.9600 H   0  0  0  0  0  0  0  0  0  0  0  0
    0.3565   -0.4139    0.1930 H   0  0  0  0  0  0  0  0  0  0  0  0
   -0.1463   -2.2781    0.1212 H   0  0  0  0  0  0  0  0  0  0  0  0
   -3.8446   -0.6071    1.2405 H   0  0  0  0  0  0  0  0  0  0  0  0
  1  2  3  0
  1  6  1  0
  2  3  1  0
  3  4  1  0
  3  5  1  0
  4  7  1  0
  4  8  1  0
  4  9  1  0
  5 10  1  0
  5 11  1  0
  5 12  1  0
 13 14  3  0
 13 18  1  0
 14 15  1  0
 15 16  1  0
 15 19  1  0
 15 20  1  0
 16 17  3  0
 17 21  1  0
M  RAD  1   3   2
M  END
>  <reaction>  (14) 
rxn_1357

>  <mol_properties>  (14) 
{"1": {"label": "*4", "atom_type": "Ct"}, "2": {"label": "*3", "atom_type": "Cs"}, "13": {"label": "*0", "atom_type": "Ct"}, "14": {"label": "*1", "atom_type": "Cs"}, "18": {"label": "*2", "atom_type": "H0"}}

>  <type>  (14) 
unop_10

>  <geom_source>  (14) 
Heuristics

$$$$

     RDKit          3D

 21 19  0  0  0  0  0  0  0  0999 V2000
    2.0015   -0.1148    2.7172 C   0  0  0  0  0  0  0  0  0  0  0  0
    1.5793    0.2571    1.6594 C   0  0  0  0  0  0  0  0  0  0  0  0
    1.0677    0.7342    0.3734 C   0  0  0  0  0  3  0  0  0  0  0  0
    2.1637    1.4577   -0.4150 C   0  0  0  0  0  0  0  0  0  0  0  0
   -0.1621    1.6254    0.5723 C   0  0  0  0  0  0  0  0  0  0  0  0
    2.3762   -0.4448    3.6559 H   0  0  0  0  0  0  0  0  0  0  0  0
    1.7810    1.7694   -1.3884 H   0  0  0  0  0  0  0  0  0  0  0  0
    3.0270    0.8113   -0.5724 H   0  0  0  0  0  0  0  0  0  0  0  0
    2.4973    2.3463    0.1239 H   0  0  0  0  0  0  0  0  0  0  0  0
    0.1028    2.5189    1.1404 H   0  0  0  0  0  0  0  0  0  0  0  0
   -0.9466    1.0977    1.1145 H   0  0  0  0  0  0  0  0  0  0  0  0
   -0.5583    1.9380   -0.3954 H   0  0  0  0  0  0  0  0  0  0  0  0
   -0.6494   -1.0554   -3.1476 C   0  0  0  0  0  0  0  0  0  0  0  0
   -0.6494   -1.0554   -1.9521 C   0  0  0  0  0  0  0  0  0  0  0  0
   -0.6494   -1.0554   -0.4891 C   0  0  0  0  0  0  0  0  0  0  0  0
   -1.9634   -0.7798    0.0920 C   0  0  0  0  0  0  0  0  0  0  0  0
   -3.0371   -0.5546    0.5669 C   0  0  0  0  0  0  0  0  0  0  0  0
   -0.6494   -1.0554   -4.2111 H   0  0  0  0  0  0  0  0  0  0  0  0
    0.2088   -0.1610   -0.0581 H   0  0  0  0  0  0  0  0  0  0  0  0
   -0.2940   -2.0253   -0.1299 H   0  0  0  0  0  0  0  0  0  0  0  0
   -3.9923   -0.3543    0.9894 H   0  0  0  0  0  0  0  0  0  0  0  0
  1  2  3  0
  1  6  1  0
  2  3  1  0
  3  4  1  0
  3  5  1  0
  4  7  1  0
  4  8  1  0
  4  9  1  0
  5 10  1  0
  5 11  1  0
  5 12  1  0
 13 14  3  0
 13 18  1  0
 14 15  1  0
 15 16  1  0
 15 19  1  0
 15 20  1  0
 16 17  3  0
 17 21  1  0
M  RAD  1   3   2
M  END
>  <reaction>  (15) 
rxn_1357

>  <mol_properties>  (15) 
{"1": {"label": "*4", "atom_type": "Ct"}, "2": {"label": "*3", "atom_type": "Cs"}, "13": {"label": "*0", "atom_type": "Ct"}, "14": {"label": "*1", "atom_type": "Cs"}, "18": {"label": "*2", "atom_type": "H0"}}

>  <type>  (15) 
unop_11

>  <geom_source>  (15) 
Heuristics

$$$$

     RDKit          3D

 21 19  0  0  0  0  0  0  0  0999 V2000
    2.0930    1.7354   -1.3481 C   0  0  0  0  0  0  0  0  0  0  0  0
    1.5908    1.2119   -0.3946 C   0  0  0  0  0  0  0  0  0  0  0  0
    0.9903    0.5861    0.7849 C   0  0  0  0  0  3  0  0  0  0  0  0
    0.2254    1.6176    1.6197 C   0  0  0  0  0  0  0  0  0  0  0  0
    2.0527   -0.1355    1.6197 C   0  0  0  0  0  0  0  0  0  0  0  0
    2.5388    2.1999   -2.1943 H   0  0  0  0  0  0  0  0  0  0  0  0
   -0.2527    1.1299    2.4711 H   0  0  0  0  0  0  0  0  0  0  0  0
   -0.5436    2.1118    1.0262 H   0  0  0  0  0  0  0  0  0  0  0  0
    0.9065    2.3815    1.9989 H   0  0  0  0  0  0  0  0  0  0  0  0
    2.7877    0.5766    1.9989 H   0  0  0  0  0  0  0  0  0  0  0  0
    2.5783   -0.8834    1.0262 H   0  0  0  0  0  0  0  0  0  0  0  0
    1.5852   -0.6334    2.4711 H   0  0  0  0  0  0  0  0  0  0  0  0
   -0.7268   -1.2036   -2.7361 C   0  0  0  0  0  0  0  0  0  0  0  0
   -0.7268   -1.2036   -1.5406 C   0  0  0  0  0  0  0  0  0  0  0  0
   -0.7268   -1.2036   -0.0776 C   0  0  0  0  0  0  0  0  0  0  0  0
   -2.0408   -0.9280    0.5035 C   0  0  0  0  0  0  0  0  0  0  0  0
   -3.1145   -0.7028    0.9784 C   0  0  0  0  0  0  0  0  0  0  0  0
   -0.7268   -1.2036   -3.7996 H   0  0  0  0  0  0  0  0  0  0  0  0
    0.1314   -0.3092    0.3534 H   0  0  0  0  0  0  0  0  0  0  0  0
   -0.3714   -2.1735    0.2816 H   0  0  0  0  0  0  0  0  0  0  0  0
   -4.0697   -0.5025    1.4009 H   0  0  0  0  0  0  0  0  0  0  0  0
  1  2  3  0
  1  6  1  0
  2  3  1  0
  3  4  1  0
  3  5  1  0
  4  7  1  0
  4  8  1  0
  4  9  1  0
  5 10  1  0
  5 11  1  0
  5 12  1  0
 13 14  3  0
 13 18  1  0
 14 15  1  0
 15 16  1  0
 15 19  1  0
 15 20  1  0
 16 17  3  0
 17 21  1  0
M  RAD  1   3   2
M  END
>  <reaction>  (16) 
rxn_1357

>  <mol_properties>  (16) 
{"1": {"label": "*4", "atom_type": "Ct"}, "2": {"label": "*3", "atom_type": "Cs"}, "13": {"label": "*0", "atom_type": "Ct"}, "14": {"label": "*1", "atom_type": "Cs"}, "18": {"label": "*2", "atom_type": "H0"}}

>  <type>  (16) 
unop_12

>  <geom_source>  (16) 
Heuristics

$$$$

     RDKit          3D

 21 19  0  0  0  0  0  0  0  0999 V2000
   -1.0151    0.1334    0.0442 C   0  0  0  0  0  0  0  0  0  0  0  0
   -1.8602    0.3995    1.2906 C   0  0  0  0  0  0  0  0  0  0  0  0
   -0.8950   -1.3668   -0.2272 C   0  0  0  0  0  0  0  0  0  0  0  0
    1.5187    0.4604    0.6115 C   0  0  0  0  0  3  0  0  0  0  0  0
   -1.6055    0.8112   -1.1201 C   0  0  0  0  0  0  0  0  0  0  0  0
    2.0980    0.9394   -0.6450 C   0  0  0  0  0  0  0  0  0  0  0  0
    2.0947   -0.8405    0.9578 C   0  0  0  0  0  0  0  0  0  0  0  0
   -2.0885    1.3675   -2.0746 C   0  0  0  0  0  0  0  0  0  0  0  0
    2.5737    1.3355   -1.6797 C   0  0  0  0  0  0  0  0  0  0  0  0
    2.5678   -1.9118    1.2445 C   0  0  0  0  0  0  0  0  0  0  0  0
    0.1901    0.6220    0.2420 H   0  0  0  0  0  0  0  0  0  0  0  0
   -1.9160    1.4917    1.4868 H   0  0  0  0  0  0  0  0  0  0  0  0
   -1.3956   -0.0864    2.1746 H   0  0  0  0  0  0  0  0  0  0  0  0
   -2.8908    0.0026    1.1616 H   0  0  0  0  0  0  0  0  0  0  0  0
   -0.4197   -1.8722    0.6401 H   0  0  0  0  0  0  0  0  0  0  0  0
   -0.2580   -1.5424   -1.1205 H   0  0  0  0  0  0  0  0  0  0  0  0
   -1.8958   -1.8181   -0.4030 H   0  0  0  0  0  0  0  0  0  0  0  0
    1.7352    1.1883    1.4204 H   0  0  0  0  0  0  0  0  0  0  0  0
   -2.5126    1.8557   -2.9123 H   0  0  0  0  0  0  0  0  0  0  0  0
    2.9914    1.6830   -2.5878 H   0  0  0  0  0  0  0  0  0  0  0  0
    2.9832   -2.8522    1.4961 H   0  0  0  0  0  0  0  0  0  0  0  0
  1  2  1  0
  1  3  1  0
  1  5  1  0
  1 11  1  0
  2 12  1  0
  2 13  1  0
  2 14  1  0
  3 15  1  0
  3 16  1  0
  3 17  1  0
  4  6  1  0
  4  7  1  0
  4 18  1  0
  5  8  3  0
  6  9  3  0
  7 10  3  0
  8 19  1  0
  9 20  1  0
 10 21  1  0
M  RAD  1   4   2
M  END
>  <reaction>  (17) 
rxn_1357

>  <mol_properties>  (17) 
{"1": {"label": "*4", "atom_type": "Ct"}, "2": {"label": "*3", "atom_type": "Cs"}, "13": {"label": "*0", "atom_type": "Ct"}, "14": {"label": "*1", "atom_type": "Cs"}, "18": {"label": "*2", "atom_type": "H0"}}

>  <type>  (17) 
unop_13

>  <geom_source>  (17) 
AutoTST

$$$$
