
     RDKit          3D

 14 13  0  0  0  0  0  0  0  0999 V2000
    1.8106   -0.5953    0.5577 C   0  0  0  0  0  0  0  0  0  0  0  0
    0.5197    0.2064    0.6554 C   0  0  0  0  0  0  0  0  0  0  0  0
   -0.5206   -0.2080   -0.3788 C   0  0  0  0  0  0  0  0  0  0  0  0
   -1.8114    0.5937   -0.2812 C   0  0  0  0  0  0  0  0  0  0  0  0
    2.2725   -0.4752   -0.4251 H   0  0  0  0  0  0  0  0  0  0  0  0
    1.6214   -1.6612    0.7052 H   0  0  0  0  0  0  0  0  0  0  0  0
    2.5364   -0.2784    1.3084 H   0  0  0  0  0  0  0  0  0  0  0  0
    0.0930    0.0950    1.6574 H   0  0  0  0  0  0  0  0  0  0  0  0
    0.7393    1.2723    0.5354 H   0  0  0  0  0  0  0  0  0  0  0  0
   -0.7402   -1.2739   -0.2588 H   0  0  0  0  0  0  0  0  0  0  0  0
   -0.0938   -0.0965   -1.3808 H   0  0  0  0  0  0  0  0  0  0  0  0
   -1.6222    1.6596   -0.4287 H   0  0  0  0  0  0  0  0  0  0  0  0
   -2.2734    0.4736    0.7017 H   0  0  0  0  0  0  0  0  0  0  0  0
   -2.5373    0.2768   -1.0318 H   0  0  0  0  0  0  0  0  0  0  0  0
  1  2  1  0
  1  5  1  0
  1  6  1  0
  1  7  1  0
  2  3  1  0
  2  8  1  0
  2  9  1  0
  3  4  1  0
  3 10  1  0
  3 11  1  0
  4 12  1  0
  4 13  1  0
  4 14  1  0
M  END
>  <reaction>  (1) 
rxn_95

>  <mol_properties>  (1) 
{"2": {"label": "donator", "atom_type": "Cs"}, "10": {"label": "d_hydrogen", "atom_type": "H0"}}

>  <type>  (1) 
r1h

$$$$

     RDKit          3D

  3  2  0  0  0  0  0  0  0  0999 V2000
    0.0002    0.4233    0.0000 N   0  0  0  0  0  2  0  0  0  0  0  0
   -0.8051   -0.2112    0.0000 H   0  0  0  0  0  0  0  0  0  0  0  0
    0.8049   -0.2121    0.0000 H   0  0  0  0  0  0  0  0  0  0  0  0
  1  2  1  0
  1  3  1  0
M  RAD  1   1   2
M  END
>  <reaction>  (2) 
rxn_95

>  <mol_properties>  (2) 
{"0": {"label": "acceptor", "atom_type": "N3s"}}

>  <type>  (2) 
r2

$$$$

     RDKit          3D

  4  3  0  0  0  0  0  0  0  0999 V2000
    0.0006   -0.0009    0.2762 N   0  0  0  0  0  0  0  0  0  0  0  0
   -0.4188    0.8439   -0.0883 H   0  0  0  0  0  0  0  0  0  0  0  0
   -0.5215   -0.7840   -0.0936 H   0  0  0  0  0  0  0  0  0  0  0  0
    0.9397   -0.0590   -0.0943 H   0  0  0  0  0  0  0  0  0  0  0  0
  1  2  1  0
  1  3  1  0
  1  4  1  0
M  END
>  <reaction>  (3) 
rxn_95

>  <mol_properties>  (3) 
{"0": {"label": "acceptor", "atom_type": "N3s"}, "3": {"label": "a_hydrogen", "atom_type": "H0"}}

>  <type>  (3) 
r2h

$$$$

     RDKit          3D

 17 15  0  0  0  0  0  0  0  0999 V2000
    1.5495    1.6084   -0.3634 N   0  0  0  0  0  2  0  0  0  0  0  0
    2.1168    0.8077   -0.6500 H   0  0  0  0  0  0  0  0  0  0  0  0
    1.1615    1.9625   -1.2403 H   0  0  0  0  0  0  0  0  0  0  0  0
   -0.4719   -1.0685   -1.7085 C   0  0  0  0  0  0  0  0  0  0  0  0
   -0.4046   -1.1085   -0.1879 C   0  0  0  0  0  0  0  0  0  0  0  0
   -0.5161    0.2524    0.4590 C   0  0  0  0  0  0  0  0  0  0  0  0
   -0.4413    0.2705    1.9660 C   0  0  0  0  0  0  0  0  0  0  0  0
    0.3407   -0.4649   -2.1189 H   0  0  0  0  0  0  0  0  0  0  0  0
   -1.4132   -0.6294   -2.0465 H   0  0  0  0  0  0  0  0  0  0  0  0
   -0.3963   -2.0687   -2.1373 H   0  0  0  0  0  0  0  0  0  0  0  0
   -1.2104   -1.7472    0.1951 H   0  0  0  0  0  0  0  0  0  0  0  0
    0.5289   -1.5830    0.1324 H   0  0  0  0  0  0  0  0  0  0  0  0
   -1.3678    0.8200    0.0750 H   0  0  0  0  0  0  0  0  0  0  0  0
    0.4698    0.9459    0.0906 H   0  0  0  0  0  0  0  0  0  0  0  0
    0.4733   -0.2123    2.3172 H   0  0  0  0  0  0  0  0  0  0  0  0
   -1.2891   -0.2656    2.4054 H   0  0  0  0  0  0  0  0  0  0  0  0
   -0.4514    1.2904    2.3512 H   0  0  0  0  0  0  0  0  0  0  0  0
  1  2  1  0
  1  3  1  0
  4  5  1  0
  4  8  1  0
  4  9  1  0
  4 10  1  0
  5  6  1  0
  5 11  1  0
  5 12  1  0
  6  7  1  0
  6 13  1  0
  6 14  1  0
  7 15  1  0
  7 16  1  0
  7 17  1  0
M  RAD  1   1   2
M  END
>  <reaction>  (4) 
rxn_95

>  <mol_properties>  (4) 
{"0": {"label": "*3", "atom_type": "N3s"}, "1": {"label": "*4", "atom_type": "H0"}, "4": {"label": "*0", "atom_type": "Cs"}, "5": {"label": "*1", "atom_type": "Cs"}, "13": {"label": "*2", "atom_type": "H0"}}

>  <type>  (4) 
ts

$$$$

     RDKit          3D

 17 15  0  0  0  0  0  0  0  0999 V2000
    1.5868    1.5205   -0.4358 N   0  0  0  0  0  0  0  0  0  0  0  0
    1.2512    2.3353   -0.9318 H   0  0  0  0  0  0  0  0  0  0  0  0
    1.4830    1.8279    0.5220 H   0  0  0  0  0  0  0  0  0  0  0  0
   -0.4331   -1.1419   -1.7079 C   0  0  0  0  0  0  0  0  0  0  0  0
   -0.4331   -1.1419   -0.1852 C   0  0  0  0  0  0  0  0  0  0  0  0
   -0.4331    0.2604    0.4121 C   0  0  0  0  0  3  0  0  0  0  0  0
   -0.4331    0.2604    1.9348 C   0  0  0  0  0  0  0  0  0  0  0  0
    0.4484   -0.6286   -2.0993 H   0  0  0  0  0  0  0  0  0  0  0  0
   -1.3146   -0.6286   -2.0993 H   0  0  0  0  0  0  0  0  0  0  0  0
   -0.4331   -2.1570   -2.1083 H   0  0  0  0  0  0  0  0  0  0  0  0
   -1.3081   -1.6878    0.1821 H   0  0  0  0  0  0  0  0  0  0  0  0
    0.4420   -1.6878    0.1821 H   0  0  0  0  0  0  0  0  0  0  0  0
   -1.3081    0.8063    0.0448 H   0  0  0  0  0  0  0  0  0  0  0  0
    0.6170    0.9155   -0.0286 H   0  0  0  0  0  0  0  0  0  0  0  0
    0.4484   -0.2529    2.3262 H   0  0  0  0  0  0  0  0  0  0  0  0
   -1.3146   -0.2529    2.3262 H   0  0  0  0  0  0  0  0  0  0  0  0
   -0.4331    1.2755    2.3352 H   0  0  0  0  0  0  0  0  0  0  0  0
  1  2  1  0
  1  3  1  0
  1 14  1  0
  4  5  1  0
  4  8  1  0
  4  9  1  0
  4 10  1  0
  5  6  1  0
  5 11  1  0
  5 12  1  0
  6  7  1  0
  6 13  1  0
  7 15  1  0
  7 16  1  0
  7 17  1  0
M  RAD  1   6   2
M  END
>  <reaction>  (5) 
rxn_95

>  <mol_properties>  (5) 
{"0": {"label": "*3", "atom_type": "N3s"}, "1": {"label": "*4", "atom_type": "H0"}, "4": {"label": "*0", "atom_type": "Cs"}, "5": {"label": "*1", "atom_type": "Cs"}, "13": {"label": "*2", "atom_type": "H0"}}

>  <type>  (5) 
unop_1

>  <geom_source>  (5) 
Heuristics

$$$$

     RDKit          3D

 17 15  0  0  0  0  0  0  0  0999 V2000
    1.5879    1.5312   -0.4182 N   0  0  0  0  0  0  0  0  0  0  0  0
    1.8051    1.1740   -1.3389 H   0  0  0  0  0  0  0  0  0  0  0  0
    0.8569    2.2238   -0.3254 H   0  0  0  0  0  0  0  0  0  0  0  0
   -0.4321   -1.1312   -1.6904 C   0  0  0  0  0  0  0  0  0  0  0  0
   -0.4321   -1.1312   -0.1677 C   0  0  0  0  0  0  0  0  0  0  0  0
   -0.4321    0.2711    0.4297 C   0  0  0  0  0  3  0  0  0  0  0  0
   -0.4321    0.2711    1.9524 C   0  0  0  0  0  0  0  0  0  0  0  0
    0.4495   -0.6179   -2.0818 H   0  0  0  0  0  0  0  0  0  0  0  0
   -1.3136   -0.6179   -2.0818 H   0  0  0  0  0  0  0  0  0  0  0  0
   -0.4321   -2.1463   -2.0908 H   0  0  0  0  0  0  0  0  0  0  0  0
   -1.3071   -1.6771    0.1996 H   0  0  0  0  0  0  0  0  0  0  0  0
    0.4430   -1.6771    0.1996 H   0  0  0  0  0  0  0  0  0  0  0  0
   -1.3071    0.8170    0.0624 H   0  0  0  0  0  0  0  0  0  0  0  0
    0.6180    0.9262   -0.0111 H   0  0  0  0  0  0  0  0  0  0  0  0
    0.4495   -0.2422    2.3437 H   0  0  0  0  0  0  0  0  0  0  0  0
   -1.3136   -0.2422    2.3437 H   0  0  0  0  0  0  0  0  0  0  0  0
   -0.4321    1.2862    2.3527 H   0  0  0  0  0  0  0  0  0  0  0  0
  1  2  1  0
  1  3  1  0
  1 14  1  0
  4  5  1  0
  4  8  1  0
  4  9  1  0
  4 10  1  0
  5  6  1  0
  5 11  1  0
  5 12  1  0
  6  7  1  0
  6 13  1  0
  7 15  1  0
  7 16  1  0
  7 17  1  0
M  RAD  1   6   2
M  END
>  <reaction>  (6) 
rxn_95

>  <mol_properties>  (6) 
{"0": {"label": "*3", "atom_type": "N3s"}, "1": {"label": "*4", "atom_type": "H0"}, "4": {"label": "*0", "atom_type": "Cs"}, "5": {"label": "*1", "atom_type": "Cs"}, "13": {"label": "*2", "atom_type": "H0"}}

>  <type>  (6) 
unop_2

>  <geom_source>  (6) 
Heuristics

$$$$

     RDKit          3D

 17 15  0  0  0  0  0  0  0  0999 V2000
    1.5793    1.5214   -0.4418 N   0  0  0  0  0  0  0  0  0  0  0  0
    1.3343    2.5019   -0.4758 H   0  0  0  0  0  0  0  0  0  0  0  0
    1.9383    1.6019    0.5001 H   0  0  0  0  0  0  0  0  0  0  0  0
   -0.4406   -1.1411   -1.7140 C   0  0  0  0  0  0  0  0  0  0  0  0
   -0.4406   -1.1411   -0.1913 C   0  0  0  0  0  0  0  0  0  0  0  0
   -0.4406    0.2613    0.4061 C   0  0  0  0  0  3  0  0  0  0  0  0
   -0.4406    0.2613    1.9288 C   0  0  0  0  0  0  0  0  0  0  0  0
    0.4409   -0.6278   -2.1054 H   0  0  0  0  0  0  0  0  0  0  0  0
   -1.3221   -0.6278   -2.1054 H   0  0  0  0  0  0  0  0  0  0  0  0
   -0.4406   -2.1562   -2.1144 H   0  0  0  0  0  0  0  0  0  0  0  0
   -1.3156   -1.6870    0.1760 H   0  0  0  0  0  0  0  0  0  0  0  0
    0.4344   -1.6870    0.1760 H   0  0  0  0  0  0  0  0  0  0  0  0
   -1.3156    0.8072    0.0388 H   0  0  0  0  0  0  0  0  0  0  0  0
    0.6094    0.9163   -0.0347 H   0  0  0  0  0  0  0  0  0  0  0  0
    0.4409   -0.2521    2.3201 H   0  0  0  0  0  0  0  0  0  0  0  0
   -1.3221   -0.2521    2.3201 H   0  0  0  0  0  0  0  0  0  0  0  0
   -0.4406    1.2764    2.3291 H   0  0  0  0  0  0  0  0  0  0  0  0
  1  2  1  0
  1  3  1  0
  1 14  1  0
  4  5  1  0
  4  8  1  0
  4  9  1  0
  4 10  1  0
  5  6  1  0
  5 11  1  0
  5 12  1  0
  6  7  1  0
  6 13  1  0
  7 15  1  0
  7 16  1  0
  7 17  1  0
M  RAD  1   6   2
M  END
>  <reaction>  (7) 
rxn_95

>  <mol_properties>  (7) 
{"0": {"label": "*3", "atom_type": "N3s"}, "1": {"label": "*4", "atom_type": "H0"}, "4": {"label": "*0", "atom_type": "Cs"}, "5": {"label": "*1", "atom_type": "Cs"}, "13": {"label": "*2", "atom_type": "H0"}}

>  <type>  (7) 
unop_3

>  <geom_source>  (7) 
Heuristics

$$$$

     RDKit          3D

 17 15  0  0  0  0  0  0  0  0999 V2000
    1.5691    1.5373   -0.4208 N   0  0  0  0  0  0  0  0  0  0  0  0
    2.3914    1.0261   -0.1291 H   0  0  0  0  0  0  0  0  0  0  0  0
    1.6115    1.9385   -1.3481 H   0  0  0  0  0  0  0  0  0  0  0  0
   -0.4508   -1.1252   -1.6930 C   0  0  0  0  0  0  0  0  0  0  0  0
   -0.4508   -1.1252   -0.1703 C   0  0  0  0  0  0  0  0  0  0  0  0
   -0.4508    0.2772    0.4271 C   0  0  0  0  0  3  0  0  0  0  0  0
   -0.4508    0.2772    1.9498 C   0  0  0  0  0  0  0  0  0  0  0  0
    0.4307   -0.6118   -2.0844 H   0  0  0  0  0  0  0  0  0  0  0  0
   -1.3323   -0.6118   -2.0844 H   0  0  0  0  0  0  0  0  0  0  0  0
   -0.4508   -2.1403   -2.0934 H   0  0  0  0  0  0  0  0  0  0  0  0
   -1.3259   -1.6711    0.1970 H   0  0  0  0  0  0  0  0  0  0  0  0
    0.4242   -1.6711    0.1970 H   0  0  0  0  0  0  0  0  0  0  0  0
   -1.3259    0.8231    0.0597 H   0  0  0  0  0  0  0  0  0  0  0  0
    0.5992    0.9323   -0.0137 H   0  0  0  0  0  0  0  0  0  0  0  0
    0.4307   -0.2362    2.3411 H   0  0  0  0  0  0  0  0  0  0  0  0
   -1.3323   -0.2362    2.3411 H   0  0  0  0  0  0  0  0  0  0  0  0
   -0.4508    1.2923    2.3501 H   0  0  0  0  0  0  0  0  0  0  0  0
  1  2  1  0
  1  3  1  0
  1 14  1  0
  4  5  1  0
  4  8  1  0
  4  9  1  0
  4 10  1  0
  5  6  1  0
  5 11  1  0
  5 12  1  0
  6  7  1  0
  6 13  1  0
  7 15  1  0
  7 16  1  0
  7 17  1  0
M  RAD  1   6   2
M  END
>  <reaction>  (8) 
rxn_95

>  <mol_properties>  (8) 
{"0": {"label": "*3", "atom_type": "N3s"}, "1": {"label": "*4", "atom_type": "H0"}, "4": {"label": "*0", "atom_type": "Cs"}, "5": {"label": "*1", "atom_type": "Cs"}, "13": {"label": "*2", "atom_type": "H0"}}

>  <type>  (8) 
unop_4

>  <geom_source>  (8) 
Heuristics

$$$$

     RDKit          3D

 17 15  0  0  0  0  0  0  0  0999 V2000
    1.5690    1.5252   -0.4411 N   0  0  0  0  0  0  0  0  0  0  0  0
    1.5454    2.4493   -0.0312 H   0  0  0  0  0  0  0  0  0  0  0  0
    2.4672    1.3839    0.0014 H   0  0  0  0  0  0  0  0  0  0  0  0
   -0.4510   -1.1373   -1.7132 C   0  0  0  0  0  0  0  0  0  0  0  0
   -0.4510   -1.1373   -0.1905 C   0  0  0  0  0  0  0  0  0  0  0  0
   -0.4510    0.2651    0.4068 C   0  0  0  0  0  3  0  0  0  0  0  0
   -0.4510    0.2651    1.9295 C   0  0  0  0  0  0  0  0  0  0  0  0
    0.4306   -0.6240   -2.1046 H   0  0  0  0  0  0  0  0  0  0  0  0
   -1.3325   -0.6240   -2.1046 H   0  0  0  0  0  0  0  0  0  0  0  0
   -0.4510   -2.1524   -2.1136 H   0  0  0  0  0  0  0  0  0  0  0  0
   -1.3260   -1.6832    0.1768 H   0  0  0  0  0  0  0  0  0  0  0  0
    0.4241   -1.6832    0.1768 H   0  0  0  0  0  0  0  0  0  0  0  0
   -1.3260    0.8109    0.0395 H   0  0  0  0  0  0  0  0  0  0  0  0
    0.5991    0.9201   -0.0340 H   0  0  0  0  0  0  0  0  0  0  0  0
    0.4306   -0.2483    2.3209 H   0  0  0  0  0  0  0  0  0  0  0  0
   -1.3325   -0.2483    2.3209 H   0  0  0  0  0  0  0  0  0  0  0  0
   -0.4510    1.2802    2.3299 H   0  0  0  0  0  0  0  0  0  0  0  0
  1  2  1  0
  1  3  1  0
  1 14  1  0
  4  5  1  0
  4  8  1  0
  4  9  1  0
  4 10  1  0
  5  6  1  0
  5 11  1  0
  5 12  1  0
  6  7  1  0
  6 13  1  0
  7 15  1  0
  7 16  1  0
  7 17  1  0
M  RAD  1   6   2
M  END
>  <reaction>  (9) 
rxn_95

>  <mol_properties>  (9) 
{"0": {"label": "*3", "atom_type": "N3s"}, "1": {"label": "*4", "atom_type": "H0"}, "4": {"label": "*0", "atom_type": "Cs"}, "5": {"label": "*1", "atom_type": "Cs"}, "13": {"label": "*2", "atom_type": "H0"}}

>  <type>  (9) 
unop_5

>  <geom_source>  (9) 
Heuristics

$$$$

     RDKit          3D

 17 15  0  0  0  0  0  0  0  0999 V2000
    1.5654    1.5349   -0.4260 N   0  0  0  0  0  0  0  0  0  0  0  0
    2.3231    1.3671    0.2223 H   0  0  0  0  0  0  0  0  0  0  0  0
    1.9479    1.7667   -1.3329 H   0  0  0  0  0  0  0  0  0  0  0  0
   -0.4546   -1.1275   -1.6981 C   0  0  0  0  0  0  0  0  0  0  0  0
   -0.4546   -1.1275   -0.1754 C   0  0  0  0  0  0  0  0  0  0  0  0
   -0.4546    0.2748    0.4219 C   0  0  0  0  0  3  0  0  0  0  0  0
   -0.4546    0.2748    1.9446 C   0  0  0  0  0  0  0  0  0  0  0  0
    0.4270   -0.6142   -2.0895 H   0  0  0  0  0  0  0  0  0  0  0  0
   -1.3361   -0.6142   -2.0895 H   0  0  0  0  0  0  0  0  0  0  0  0
   -0.4546   -2.1427   -2.0985 H   0  0  0  0  0  0  0  0  0  0  0  0
   -1.3296   -1.6734    0.1919 H   0  0  0  0  0  0  0  0  0  0  0  0
    0.4205   -1.6734    0.1919 H   0  0  0  0  0  0  0  0  0  0  0  0
   -1.3296    0.8207    0.0546 H   0  0  0  0  0  0  0  0  0  0  0  0
    0.5955    0.9299   -0.0188 H   0  0  0  0  0  0  0  0  0  0  0  0
    0.4270   -0.2385    2.3360 H   0  0  0  0  0  0  0  0  0  0  0  0
   -1.3361   -0.2385    2.3360 H   0  0  0  0  0  0  0  0  0  0  0  0
   -0.4546    1.2899    2.3450 H   0  0  0  0  0  0  0  0  0  0  0  0
  1  2  1  0
  1  3  1  0
  1 14  1  0
  4  5  1  0
  4  8  1  0
  4  9  1  0
  4 10  1  0
  5  6  1  0
  5 11  1  0
  5 12  1  0
  6  7  1  0
  6 13  1  0
  7 15  1  0
  7 16  1  0
  7 17  1  0
M  RAD  1   6   2
M  END
>  <reaction>  (10) 
rxn_95

>  <mol_properties>  (10) 
{"0": {"label": "*3", "atom_type": "N3s"}, "1": {"label": "*4", "atom_type": "H0"}, "4": {"label": "*0", "atom_type": "Cs"}, "5": {"label": "*1", "atom_type": "Cs"}, "13": {"label": "*2", "atom_type": "H0"}}

>  <type>  (10) 
unop_6

>  <geom_source>  (10) 
Heuristics

$$$$

     RDKit          3D

 17 15  0  0  0  0  0  0  0  0999 V2000
    1.5639    1.5314   -0.4304 N   0  0  0  0  0  0  0  0  0  0  0  0
    2.1192    1.7925    0.3733 H   0  0  0  0  0  0  0  0  0  0  0  0
    2.2555    1.5956   -1.1653 H   0  0  0  0  0  0  0  0  0  0  0  0
   -0.4560   -1.1311   -1.7026 C   0  0  0  0  0  0  0  0  0  0  0  0
   -0.4560   -1.1311   -0.1799 C   0  0  0  0  0  0  0  0  0  0  0  0
   -0.4560    0.2713    0.4175 C   0  0  0  0  0  3  0  0  0  0  0  0
   -0.4560    0.2713    1.9402 C   0  0  0  0  0  0  0  0  0  0  0  0
    0.4255   -0.6178   -2.0940 H   0  0  0  0  0  0  0  0  0  0  0  0
   -1.3375   -0.6178   -2.0940 H   0  0  0  0  0  0  0  0  0  0  0  0
   -0.4560   -2.1462   -2.1030 H   0  0  0  0  0  0  0  0  0  0  0  0
   -1.3311   -1.6770    0.1874 H   0  0  0  0  0  0  0  0  0  0  0  0
    0.4190   -1.6770    0.1874 H   0  0  0  0  0  0  0  0  0  0  0  0
   -1.3311    0.8172    0.0502 H   0  0  0  0  0  0  0  0  0  0  0  0
    0.5940    0.9263   -0.0233 H   0  0  0  0  0  0  0  0  0  0  0  0
    0.4255   -0.2421    2.3315 H   0  0  0  0  0  0  0  0  0  0  0  0
   -1.3375   -0.2421    2.3315 H   0  0  0  0  0  0  0  0  0  0  0  0
   -0.4560    1.2864    2.3405 H   0  0  0  0  0  0  0  0  0  0  0  0
  1  2  1  0
  1  3  1  0
  1 14  1  0
  4  5  1  0
  4  8  1  0
  4  9  1  0
  4 10  1  0
  5  6  1  0
  5 11  1  0
  5 12  1  0
  6  7  1  0
  6 13  1  0
  7 15  1  0
  7 16  1  0
  7 17  1  0
M  RAD  1   6   2
M  END
>  <reaction>  (11) 
rxn_95

>  <mol_properties>  (11) 
{"0": {"label": "*3", "atom_type": "N3s"}, "1": {"label": "*4", "atom_type": "H0"}, "4": {"label": "*0", "atom_type": "Cs"}, "5": {"label": "*1", "atom_type": "Cs"}, "13": {"label": "*2", "atom_type": "H0"}}

>  <type>  (11) 
unop_7

>  <geom_source>  (11) 
Heuristics

$$$$

     RDKit          3D

 17 15  0  0  0  0  0  0  0  0999 V2000
    1.5902    1.5229   -0.4286 N   0  0  0  0  0  0  0  0  0  0  0  0
    1.3191    1.9944   -1.2812 H   0  0  0  0  0  0  0  0  0  0  0  0
    1.1752    1.9984    0.3615 H   0  0  0  0  0  0  0  0  0  0  0  0
   -0.4297   -1.1396   -1.7008 C   0  0  0  0  0  0  0  0  0  0  0  0
   -0.4297   -1.1396   -0.1781 C   0  0  0  0  0  0  0  0  0  0  0  0
   -0.4297    0.2628    0.4193 C   0  0  0  0  0  3  0  0  0  0  0  0
   -0.4297    0.2628    1.9420 C   0  0  0  0  0  0  0  0  0  0  0  0
    0.4518   -0.6262   -2.0922 H   0  0  0  0  0  0  0  0  0  0  0  0
   -1.3113   -0.6262   -2.0922 H   0  0  0  0  0  0  0  0  0  0  0  0
   -0.4297   -2.1547   -2.1012 H   0  0  0  0  0  0  0  0  0  0  0  0
   -1.3048   -1.6854    0.1892 H   0  0  0  0  0  0  0  0  0  0  0  0
    0.4453   -1.6854    0.1892 H   0  0  0  0  0  0  0  0  0  0  0  0
   -1.3048    0.8087    0.0520 H   0  0  0  0  0  0  0  0  0  0  0  0
    0.6203    0.9179   -0.0215 H   0  0  0  0  0  0  0  0  0  0  0  0
    0.4518   -0.2505    2.3333 H   0  0  0  0  0  0  0  0  0  0  0  0
   -1.3113   -0.2505    2.3333 H   0  0  0  0  0  0  0  0  0  0  0  0
   -0.4297    1.2779    2.3423 H   0  0  0  0  0  0  0  0  0  0  0  0
  1  2  1  0
  1  3  1  0
  1 14  1  0
  4  5  1  0
  4  8  1  0
  4  9  1  0
  4 10  1  0
  5  6  1  0
  5 11  1  0
  5 12  1  0
  6  7  1  0
  6 13  1  0
  7 15  1  0
  7 16  1  0
  7 17  1  0
M  RAD  1   6   2
M  END
>  <reaction>  (12) 
rxn_95

>  <mol_properties>  (12) 
{"0": {"label": "*3", "atom_type": "N3s"}, "1": {"label": "*4", "atom_type": "H0"}, "4": {"label": "*0", "atom_type": "Cs"}, "5": {"label": "*1", "atom_type": "Cs"}, "13": {"label": "*2", "atom_type": "H0"}}

>  <type>  (12) 
unop_8

>  <geom_source>  (12) 
Heuristics

$$$$

     RDKit          3D

 17 15  0  0  0  0  0  0  0  0999 V2000
    1.5753    1.5373   -0.4167 N   0  0  0  0  0  0  0  0  0  0  0  0
    2.3070    0.8604   -0.5870 H   0  0  0  0  0  0  0  0  0  0  0  0
    1.2501    2.1059   -1.1870 H   0  0  0  0  0  0  0  0  0  0  0  0
   -0.4446   -1.1252   -1.6889 C   0  0  0  0  0  0  0  0  0  0  0  0
   -0.4446   -1.1252   -0.1662 C   0  0  0  0  0  0  0  0  0  0  0  0
   -0.4446    0.2772    0.4312 C   0  0  0  0  0  3  0  0  0  0  0  0
   -0.4446    0.2772    1.9539 C   0  0  0  0  0  0  0  0  0  0  0  0
    0.4369   -0.6119   -2.0802 H   0  0  0  0  0  0  0  0  0  0  0  0
   -1.3261   -0.6119   -2.0802 H   0  0  0  0  0  0  0  0  0  0  0  0
   -0.4446   -2.1403   -2.0892 H   0  0  0  0  0  0  0  0  0  0  0  0
   -1.3196   -1.6711    0.2012 H   0  0  0  0  0  0  0  0  0  0  0  0
    0.4305   -1.6711    0.2012 H   0  0  0  0  0  0  0  0  0  0  0  0
   -1.3196    0.8231    0.0639 H   0  0  0  0  0  0  0  0  0  0  0  0
    0.6055    0.9322   -0.0096 H   0  0  0  0  0  0  0  0  0  0  0  0
    0.4369   -0.2362    2.3453 H   0  0  0  0  0  0  0  0  0  0  0  0
   -1.3261   -0.2362    2.3453 H   0  0  0  0  0  0  0  0  0  0  0  0
   -0.4446    1.2923    2.3543 H   0  0  0  0  0  0  0  0  0  0  0  0
  1  2  1  0
  1  3  1  0
  1 14  1  0
  4  5  1  0
  4  8  1  0
  4  9  1  0
  4 10  1  0
  5  6  1  0
  5 11  1  0
  5 12  1  0
  6  7  1  0
  6 13  1  0
  7 15  1  0
  7 16  1  0
  7 17  1  0
M  RAD  1   6   2
M  END
>  <reaction>  (13) 
rxn_95

>  <mol_properties>  (13) 
{"0": {"label": "*3", "atom_type": "N3s"}, "1": {"label": "*4", "atom_type": "H0"}, "4": {"label": "*0", "atom_type": "Cs"}, "5": {"label": "*1", "atom_type": "Cs"}, "13": {"label": "*2", "atom_type": "H0"}}

>  <type>  (13) 
unop_9

>  <geom_source>  (13) 
Heuristics

$$$$

     RDKit          3D

 17 15  0  0  0  0  0  0  0  0999 V2000
    1.5904    1.5270   -0.4226 N   0  0  0  0  0  0  0  0  0  0  0  0
    1.5217    1.5694   -1.4306 H   0  0  0  0  0  0  0  0  0  0  0  0
    0.9593    2.1340    0.0832 H   0  0  0  0  0  0  0  0  0  0  0  0
   -0.4295   -1.1355   -1.6948 C   0  0  0  0  0  0  0  0  0  0  0  0
   -0.4295   -1.1355   -0.1721 C   0  0  0  0  0  0  0  0  0  0  0  0
   -0.4295    0.2669    0.4252 C   0  0  0  0  0  3  0  0  0  0  0  0
   -0.4295    0.2669    1.9479 C   0  0  0  0  0  0  0  0  0  0  0  0
    0.4520   -0.6222   -2.0862 H   0  0  0  0  0  0  0  0  0  0  0  0
   -1.3111   -0.6222   -2.0862 H   0  0  0  0  0  0  0  0  0  0  0  0
   -0.4295   -2.1506   -2.0952 H   0  0  0  0  0  0  0  0  0  0  0  0
   -1.3046   -1.6814    0.1952 H   0  0  0  0  0  0  0  0  0  0  0  0
    0.4455   -1.6814    0.1952 H   0  0  0  0  0  0  0  0  0  0  0  0
   -1.3046    0.8128    0.0579 H   0  0  0  0  0  0  0  0  0  0  0  0
    0.6205    0.9219   -0.0155 H   0  0  0  0  0  0  0  0  0  0  0  0
    0.4520   -0.2465    2.3393 H   0  0  0  0  0  0  0  0  0  0  0  0
   -1.3111   -0.2465    2.3393 H   0  0  0  0  0  0  0  0  0  0  0  0
   -0.4295    1.2820    2.3483 H   0  0  0  0  0  0  0  0  0  0  0  0
  1  2  1  0
  1  3  1  0
  1 14  1  0
  4  5  1  0
  4  8  1  0
  4  9  1  0
  4 10  1  0
  5  6  1  0
  5 11  1  0
  5 12  1  0
  6  7  1  0
  6 13  1  0
  7 15  1  0
  7 16  1  0
  7 17  1  0
M  RAD  1   6   2
M  END
>  <reaction>  (14) 
rxn_95

>  <mol_properties>  (14) 
{"0": {"label": "*3", "atom_type": "N3s"}, "1": {"label": "*4", "atom_type": "H0"}, "4": {"label": "*0", "atom_type": "Cs"}, "5": {"label": "*1", "atom_type": "Cs"}, "13": {"label": "*2", "atom_type": "H0"}}

>  <type>  (14) 
unop_10

>  <geom_source>  (14) 
Heuristics

$$$$

     RDKit          3D

 17 15  0  0  0  0  0  0  0  0999 V2000
    1.5642    1.5282   -0.4348 N   0  0  0  0  0  0  0  0  0  0  0  0
    1.8336    2.1890    0.2816 H   0  0  0  0  0  0  0  0  0  0  0  0
    2.5174    1.4272   -0.7572 H   0  0  0  0  0  0  0  0  0  0  0  0
   -0.4557   -1.1343   -1.7070 C   0  0  0  0  0  0  0  0  0  0  0  0
   -0.4557   -1.1343   -0.1843 C   0  0  0  0  0  0  0  0  0  0  0  0
   -0.4557    0.2681    0.4131 C   0  0  0  0  0  3  0  0  0  0  0  0
   -0.4557    0.2681    1.9358 C   0  0  0  0  0  0  0  0  0  0  0  0
    0.4258   -0.6209   -2.0984 H   0  0  0  0  0  0  0  0  0  0  0  0
   -1.3372   -0.6209   -2.0984 H   0  0  0  0  0  0  0  0  0  0  0  0
   -0.4557   -2.1494   -2.1074 H   0  0  0  0  0  0  0  0  0  0  0  0
   -1.3307   -1.6802    0.1830 H   0  0  0  0  0  0  0  0  0  0  0  0
    0.4194   -1.6802    0.1830 H   0  0  0  0  0  0  0  0  0  0  0  0
   -1.3307    0.8140    0.0457 H   0  0  0  0  0  0  0  0  0  0  0  0
    0.5944    0.9231   -0.0277 H   0  0  0  0  0  0  0  0  0  0  0  0
    0.4258   -0.2453    2.3271 H   0  0  0  0  0  0  0  0  0  0  0  0
   -1.3372   -0.2453    2.3271 H   0  0  0  0  0  0  0  0  0  0  0  0
   -0.4557    1.2832    2.3361 H   0  0  0  0  0  0  0  0  0  0  0  0
  1  2  1  0
  1  3  1  0
  1 14  1  0
  4  5  1  0
  4  8  1  0
  4  9  1  0
  4 10  1  0
  5  6  1  0
  5 11  1  0
  5 12  1  0
  6  7  1  0
  6 13  1  0
  7 15  1  0
  7 16  1  0
  7 17  1  0
M  RAD  1   6   2
M  END
>  <reaction>  (15) 
rxn_95

>  <mol_properties>  (15) 
{"0": {"label": "*3", "atom_type": "N3s"}, "1": {"label": "*4", "atom_type": "H0"}, "4": {"label": "*0", "atom_type": "Cs"}, "5": {"label": "*1", "atom_type": "Cs"}, "13": {"label": "*2", "atom_type": "H0"}}

>  <type>  (15) 
unop_11

>  <geom_source>  (15) 
Heuristics

$$$$

     RDKit          3D

 17 15  0  0  0  0  0  0  0  0999 V2000
    1.5825    1.5349   -0.4158 N   0  0  0  0  0  0  0  0  0  0  0  0
    2.0927    0.9143   -1.0299 H   0  0  0  0  0  0  0  0  0  0  0  0
    0.9526    2.2206   -0.8103 H   0  0  0  0  0  0  0  0  0  0  0  0
   -0.4374   -1.1276   -1.6879 C   0  0  0  0  0  0  0  0  0  0  0  0
   -0.4374   -1.1276   -0.1652 C   0  0  0  0  0  0  0  0  0  0  0  0
   -0.4374    0.2748    0.4321 C   0  0  0  0  0  3  0  0  0  0  0  0
   -0.4374    0.2748    1.9548 C   0  0  0  0  0  0  0  0  0  0  0  0
    0.4441   -0.6142   -2.0793 H   0  0  0  0  0  0  0  0  0  0  0  0
   -1.3190   -0.6142   -2.0793 H   0  0  0  0  0  0  0  0  0  0  0  0
   -0.4374   -2.1427   -2.0883 H   0  0  0  0  0  0  0  0  0  0  0  0
   -1.3125   -1.6735    0.2021 H   0  0  0  0  0  0  0  0  0  0  0  0
    0.4376   -1.6735    0.2021 H   0  0  0  0  0  0  0  0  0  0  0  0
   -1.3125    0.8207    0.0648 H   0  0  0  0  0  0  0  0  0  0  0  0
    0.6126    0.9299   -0.0086 H   0  0  0  0  0  0  0  0  0  0  0  0
    0.4441   -0.2385    2.3462 H   0  0  0  0  0  0  0  0  0  0  0  0
   -1.3190   -0.2385    2.3462 H   0  0  0  0  0  0  0  0  0  0  0  0
   -0.4374    1.2899    2.3552 H   0  0  0  0  0  0  0  0  0  0  0  0
  1  2  1  0
  1  3  1  0
  1 14  1  0
  4  5  1  0
  4  8  1  0
  4  9  1  0
  4 10  1  0
  5  6  1  0
  5 11  1  0
  5 12  1  0
  6  7  1  0
  6 13  1  0
  7 15  1  0
  7 16  1  0
  7 17  1  0
M  RAD  1   6   2
M  END
>  <reaction>  (16) 
rxn_95

>  <mol_properties>  (16) 
{"0": {"label": "*3", "atom_type": "N3s"}, "1": {"label": "*4", "atom_type": "H0"}, "4": {"label": "*0", "atom_type": "Cs"}, "5": {"label": "*1", "atom_type": "Cs"}, "13": {"label": "*2", "atom_type": "H0"}}

>  <type>  (16) 
unop_12

>  <geom_source>  (16) 
Heuristics

$$$$
