
     RDKit          3D

  6  5  0  0  0  0  0  0  0  0999 V2000
   -0.5072   -0.0291   -0.0097 C   0  0  0  0  0  0  0  0  0  0  0  0
    1.1321   -0.1527   -0.7687 S   0  0  0  0  0  0  0  0  0  0  0  0
   -0.6174   -0.7330    0.8127 H   0  0  0  0  0  0  0  0  0  0  0  0
   -0.5863    0.9827    0.3845 H   0  0  0  0  0  0  0  0  0  0  0  0
   -1.2962   -0.1800   -0.7434 H   0  0  0  0  0  0  0  0  0  0  0  0
    1.0312   -1.4237   -1.1764 H   0  0  0  0  0  0  0  0  0  0  0  0
  1  2  1  0
  1  3  1  0
  1  4  1  0
  1  5  1  0
  2  6  1  0
M  END
>  <reaction>  (1) 
rxn_1839

>  <mol_properties>  (1) 
{"0": {"label": "donator", "atom_type": "Cs"}, "2": {"label": "d_hydrogen", "atom_type": "H0"}}

>  <type>  (1) 
r1h

$$$$

     RDKit          3D

 11 11  0  0  0  0  0  0  0  0999 V2000
    0.1524   -1.5397    0.0698 C   0  0  0  0  0  3  0  0  0  0  0  0
   -1.1218   -1.0406    0.0516 C   0  0  0  0  0  0  0  0  0  0  0  0
   -1.2464    0.3470   -0.0114 C   0  0  0  0  0  0  0  0  0  0  0  0
   -0.1137    1.1487   -0.0521 C   0  0  0  0  0  0  0  0  0  0  0  0
    1.1542    0.5837   -0.0308 C   0  0  0  0  0  0  0  0  0  0  0  0
    1.3041   -0.8014    0.0319 C   0  0  0  0  0  0  0  0  0  0  0  0
   -1.9955   -1.6793    0.0840 H   0  0  0  0  0  0  0  0  0  0  0  0
   -2.2319    0.7966   -0.0284 H   0  0  0  0  0  0  0  0  0  0  0  0
   -0.2203    2.2248   -0.1009 H   0  0  0  0  0  0  0  0  0  0  0  0
    2.0325    1.2173   -0.0630 H   0  0  0  0  0  0  0  0  0  0  0  0
    2.2862   -1.2570    0.0492 H   0  0  0  0  0  0  0  0  0  0  0  0
  1  2  2  0
  1  6  1  0
  2  3  1  0
  2  7  1  0
  3  4  2  0
  3  8  1  0
  4  5  1  0
  4  9  1  0
  5  6  2  0
  5 10  1  0
  6 11  1  0
M  RAD  1   1   2
M  END
>  <reaction>  (2) 
rxn_1839

>  <mol_properties>  (2) 
{"0": {"label": "acceptor", "atom_type": "Cd"}}

>  <type>  (2) 
r2

$$$$

     RDKit          3D

 12 12  0  0  0  0  0  0  0  0999 V2000
   -1.2385    0.6248   -0.0199 C   0  0  0  0  0  0  0  0  0  0  0  0
   -0.0779    1.3848   -0.0298 C   0  0  0  0  0  0  0  0  0  0  0  0
    1.1605    0.7600   -0.0100 C   0  0  0  0  0  0  0  0  0  0  0  0
    1.2385   -0.6248    0.0199 C   0  0  0  0  0  0  0  0  0  0  0  0
    0.0779   -1.3848    0.0298 C   0  0  0  0  0  0  0  0  0  0  0  0
   -1.1606   -0.7600    0.0100 C   0  0  0  0  0  0  0  0  0  0  0  0
   -2.2052    1.1125   -0.0354 H   0  0  0  0  0  0  0  0  0  0  0  0
   -0.1387    2.4657   -0.0531 H   0  0  0  0  0  0  0  0  0  0  0  0
    2.0664    1.3532   -0.0177 H   0  0  0  0  0  0  0  0  0  0  0  0
    2.2052   -1.1125    0.0354 H   0  0  0  0  0  0  0  0  0  0  0  0
    0.1387   -2.4657    0.0531 H   0  0  0  0  0  0  0  0  0  0  0  0
   -2.0664   -1.3532    0.0177 H   0  0  0  0  0  0  0  0  0  0  0  0
  1  2  2  0
  1  6  1  0
  1  7  1  0
  2  3  1  0
  2  8  1  0
  3  4  2  0
  3  9  1  0
  4  5  1  0
  4 10  1  0
  5  6  2  0
  5 11  1  0
  6 12  1  0
M  END
>  <reaction>  (3) 
rxn_1839

>  <mol_properties>  (3) 
{"0": {"label": "a_hydrogen", "atom_type": "H0"}, "1": {"label": "acceptor", "atom_type": "Cd"}}

>  <type>  (3) 
r2h

$$$$

     RDKit          3D

 17 16  0  0  0  0  0  0  0  0999 V2000
   -0.0574   -2.3325   -0.5159 C   0  0  0  0  0  0  0  0  0  0  0  0
    0.2918   -2.1668   -2.2532 S   0  0  0  0  0  0  0  0  0  0  0  0
   -0.0575   -1.2067    0.0317 H   0  0  0  0  0  0  0  0  0  0  0  0
   -1.0667   -2.7203   -0.3966 H   0  0  0  0  0  0  0  0  0  0  0  0
    0.6678   -2.9398    0.0210 H   0  0  0  0  0  0  0  0  0  0  0  0
    1.5625   -1.7619   -2.1307 H   0  0  0  0  0  0  0  0  0  0  0  0
   -0.0505    0.1283    0.5756 C   0  0  0  0  0  3  0  0  0  0  0  0
   -0.1605    1.1505   -0.3392 C   0  0  0  0  0  0  0  0  0  0  0  0
   -0.1466    2.4594    0.1326 C   0  0  0  0  0  0  0  0  0  0  0  0
   -0.0247    2.7056    1.4932 C   0  0  0  0  0  0  0  0  0  0  0  0
    0.0836    1.6526    2.3913 C   0  0  0  0  0  0  0  0  0  0  0  0
    0.0709    0.3398    1.9305 C   0  0  0  0  0  0  0  0  0  0  0  0
   -0.2557    0.9399   -1.3985 H   0  0  0  0  0  0  0  0  0  0  0  0
   -0.2316    3.2856   -0.5629 H   0  0  0  0  0  0  0  0  0  0  0  0
   -0.0145    3.7254    1.8567 H   0  0  0  0  0  0  0  0  0  0  0  0
    0.1781    1.8519    3.4520 H   0  0  0  0  0  0  0  0  0  0  0  0
    0.1550   -0.4878    2.6250 H   0  0  0  0  0  0  0  0  0  0  0  0
  1  2  1  0
  1  3  1  0
  1  4  1  0
  1  5  1  0
  2  6  1  0
  7  8  2  0
  7 12  1  0
  8  9  1  0
  8 13  1  0
  9 10  2  0
  9 14  1  0
 10 11  1  0
 10 15  1  0
 11 12  2  0
 11 16  1  0
 12 17  1  0
M  RAD  1   7   2
M  END
>  <reaction>  (4) 
rxn_1839

>  <mol_properties>  (4) 
{"0": {"label": "*1", "atom_type": "Cs"}, "1": {"label": "*0", "atom_type": "S2s"}, "2": {"label": "*2", "atom_type": "H0"}, "6": {"label": "*3", "atom_type": "Cd"}, "7": {"label": "*4", "atom_type": "Cd"}}

>  <type>  (4) 
ts

$$$$

     RDKit          3D

 17 16  0  0  0  0  0  0  0  0999 V2000
   -0.1804   -1.9508   -0.8457 C   0  0  0  0  0  3  0  0  0  0  0  0
   -0.1804   -1.9508   -2.6563 S   0  0  0  0  0  0  0  0  0  0  0  0
   -0.1804   -0.7349   -0.3699 H   0  0  0  0  0  0  0  0  0  0  0  0
   -1.1010   -2.4449   -0.5397 H   0  0  0  0  0  0  0  0  0  0  0  0
    0.6640   -2.5108   -0.4492 H   0  0  0  0  0  0  0  0  0  0  0  0
    0.9900   -1.3226   -2.8227 H   0  0  0  0  0  0  0  0  0  0  0  0
   -0.1804    0.4751    0.1036 C   0  0  0  0  0  0  0  0  0  0  0  0
   -1.2208    0.9022    0.9158 C   0  0  0  0  0  0  0  0  0  0  0  0
   -0.9487    1.6156    2.0740 C   0  0  0  0  0  0  0  0  0  0  0  0
    0.3638    1.9020    2.4201 C   0  0  0  0  0  0  0  0  0  0  0  0
    1.4043    1.4750    1.6079 C   0  0  0  0  0  0  0  0  0  0  0  0
    1.1322    0.7615    0.4497 C   0  0  0  0  0  0  0  0  0  0  0  0
   -2.2454    0.6786    0.6457 H   0  0  0  0  0  0  0  0  0  0  0  0
   -1.7609    1.9489    2.7080 H   0  0  0  0  0  0  0  0  0  0  0  0
    0.5762    2.4589    3.3242 H   0  0  0  0  0  0  0  0  0  0  0  0
    2.4288    1.6986    1.8780 H   0  0  0  0  0  0  0  0  0  0  0  0
    1.9443    0.4282   -0.1843 H   0  0  0  0  0  0  0  0  0  0  0  0
  1  2  1  0
  1  4  1  0
  1  5  1  0
  2  6  1  0
  3  7  1  0
  7  8  2  0
  7 12  1  0
  8  9  1  0
  8 13  1  0
  9 10  2  0
  9 14  1  0
 10 11  1  0
 10 15  1  0
 11 12  2  0
 11 16  1  0
 12 17  1  0
M  RAD  1   1   2
M  END
>  <reaction>  (5) 
rxn_1839

>  <mol_properties>  (5) 
{"0": {"label": "*1", "atom_type": "Cs"}, "1": {"label": "*0", "atom_type": "S2s"}, "2": {"label": "*2", "atom_type": "H0"}, "6": {"label": "*3", "atom_type": "Cd"}, "7": {"label": "*4", "atom_type": "Cd"}}

>  <type>  (5) 
unop_1

>  <geom_source>  (5) 
Heuristics

$$$$

     RDKit          3D

 17 16  0  0  0  0  0  0  0  0999 V2000
    0.2006   -2.2498   -0.5159 C   0  0  0  0  0  3  0  0  0  0  0  0
    0.2006   -2.2498   -2.3265 S   0  0  0  0  0  0  0  0  0  0  0  0
    0.2006   -1.0340   -0.0401 H   0  0  0  0  0  0  0  0  0  0  0  0
   -0.7200   -2.7439   -0.2100 H   0  0  0  0  0  0  0  0  0  0  0  0
    1.0450   -2.8098   -0.1194 H   0  0  0  0  0  0  0  0  0  0  0  0
    1.3710   -1.6217   -2.4929 H   0  0  0  0  0  0  0  0  0  0  0  0
    0.2006    0.1761    0.4334 C   0  0  0  0  0  0  0  0  0  0  0  0
   -0.4001    1.2012   -0.2828 C   0  0  0  0  0  0  0  0  0  0  0  0
   -0.7323    2.3890    0.3524 C   0  0  0  0  0  0  0  0  0  0  0  0
   -0.4638    2.5516    1.7037 C   0  0  0  0  0  0  0  0  0  0  0  0
    0.1369    1.5265    2.4199 C   0  0  0  0  0  0  0  0  0  0  0  0
    0.4691    0.3387    1.7847 C   0  0  0  0  0  0  0  0  0  0  0  0
   -0.6096    1.0743   -1.3375 H   0  0  0  0  0  0  0  0  0  0  0  0
   -1.2012    3.1891   -0.2066 H   0  0  0  0  0  0  0  0  0  0  0  0
   -0.7232    3.4787    2.1995 H   0  0  0  0  0  0  0  0  0  0  0  0
    0.3464    1.6535    3.4746 H   0  0  0  0  0  0  0  0  0  0  0  0
    0.9380   -0.4614    2.3437 H   0  0  0  0  0  0  0  0  0  0  0  0
  1  2  1  0
  1  4  1  0
  1  5  1  0
  2  6  1  0
  3  7  1  0
  7  8  2  0
  7 12  1  0
  8  9  1  0
  8 13  1  0
  9 10  2  0
  9 14  1  0
 10 11  1  0
 10 15  1  0
 11 12  2  0
 11 16  1  0
 12 17  1  0
M  RAD  1   1   2
M  END
>  <reaction>  (6) 
rxn_1839

>  <mol_properties>  (6) 
{"0": {"label": "*1", "atom_type": "Cs"}, "1": {"label": "*0", "atom_type": "S2s"}, "2": {"label": "*2", "atom_type": "H0"}, "6": {"label": "*3", "atom_type": "Cd"}, "7": {"label": "*4", "atom_type": "Cd"}}

>  <type>  (6) 
unop_2

>  <geom_source>  (6) 
Heuristics

$$$$

     RDKit          3D

 17 16  0  0  0  0  0  0  0  0999 V2000
   -0.3570   -2.0964   -0.6532 C   0  0  0  0  0  3  0  0  0  0  0  0
   -0.3570   -2.0964   -2.4639 S   0  0  0  0  0  0  0  0  0  0  0  0
   -0.3570   -0.8806   -0.1775 H   0  0  0  0  0  0  0  0  0  0  0  0
   -1.2777   -2.5905   -0.3473 H   0  0  0  0  0  0  0  0  0  0  0  0
    0.4873   -2.6564   -0.2568 H   0  0  0  0  0  0  0  0  0  0  0  0
    0.8133   -1.4682   -2.6303 H   0  0  0  0  0  0  0  0  0  0  0  0
   -0.3570    0.3295    0.2961 C   0  0  0  0  0  0  0  0  0  0  0  0
   -0.9577    0.5963    1.5178 C   0  0  0  0  0  0  0  0  0  0  0  0
   -0.4054    1.5407    2.3707 C   0  0  0  0  0  0  0  0  0  0  0  0
    0.7476    2.2184    2.0021 C   0  0  0  0  0  0  0  0  0  0  0  0
    1.3483    1.9516    0.7804 C   0  0  0  0  0  0  0  0  0  0  0  0
    0.7960    1.0071   -0.0727 C   0  0  0  0  0  0  0  0  0  0  0  0
   -1.8577    0.0674    1.8056 H   0  0  0  0  0  0  0  0  0  0  0  0
   -0.8743    1.7489    3.3243 H   0  0  0  0  0  0  0  0  0  0  0  0
    1.1787    2.9555    2.6679 H   0  0  0  0  0  0  0  0  0  0  0  0
    2.2483    2.4805    0.4926 H   0  0  0  0  0  0  0  0  0  0  0  0
    1.2649    0.7989   -1.0263 H   0  0  0  0  0  0  0  0  0  0  0  0
  1  2  1  0
  1  4  1  0
  1  5  1  0
  2  6  1  0
  3  7  1  0
  7  8  2  0
  7 12  1  0
  8  9  1  0
  8 13  1  0
  9 10  2  0
  9 14  1  0
 10 11  1  0
 10 15  1  0
 11 12  2  0
 11 16  1  0
 12 17  1  0
M  RAD  1   1   2
M  END
>  <reaction>  (7) 
rxn_1839

>  <mol_properties>  (7) 
{"0": {"label": "*1", "atom_type": "Cs"}, "1": {"label": "*0", "atom_type": "S2s"}, "2": {"label": "*2", "atom_type": "H0"}, "6": {"label": "*3", "atom_type": "Cd"}, "7": {"label": "*4", "atom_type": "Cd"}}

>  <type>  (7) 
unop_3

>  <geom_source>  (7) 
Heuristics

$$$$

     RDKit          3D

 17 16  0  0  0  0  0  0  0  0999 V2000
   -0.2611   -2.1047   -0.6958 C   0  0  0  0  0  3  0  0  0  0  0  0
   -0.2611   -2.1047   -2.5064 S   0  0  0  0  0  0  0  0  0  0  0  0
   -0.2611   -0.8889   -0.2200 H   0  0  0  0  0  0  0  0  0  0  0  0
   -1.1817   -2.5989   -0.3899 H   0  0  0  0  0  0  0  0  0  0  0  0
    0.5833   -2.6647   -0.2993 H   0  0  0  0  0  0  0  0  0  0  0  0
    0.9093   -1.4766   -2.6728 H   0  0  0  0  0  0  0  0  0  0  0  0
   -0.2611    0.3212    0.2535 C   0  0  0  0  0  0  0  0  0  0  0  0
    0.7794    1.1860   -0.0531 C   0  0  0  0  0  0  0  0  0  0  0  0
    1.1795    2.1437    0.8674 C   0  0  0  0  0  0  0  0  0  0  0  0
    0.5391    2.2365    2.0945 C   0  0  0  0  0  0  0  0  0  0  0  0
   -0.5013    1.3717    2.4011 C   0  0  0  0  0  0  0  0  0  0  0  0
   -0.9015    0.4140    1.4806 C   0  0  0  0  0  0  0  0  0  0  0  0
    1.2793    1.1135   -1.0110 H   0  0  0  0  0  0  0  0  0  0  0  0
    1.9916    2.8187    0.6280 H   0  0  0  0  0  0  0  0  0  0  0  0
    0.8514    2.9841    2.8130 H   0  0  0  0  0  0  0  0  0  0  0  0
   -1.0012    1.4441    3.3590 H   0  0  0  0  0  0  0  0  0  0  0  0
   -1.7136   -0.2611    1.7200 H   0  0  0  0  0  0  0  0  0  0  0  0
  1  2  1  0
  1  4  1  0
  1  5  1  0
  2  6  1  0
  3  7  1  0
  7  8  2  0
  7 12  1  0
  8  9  1  0
  8 13  1  0
  9 10  2  0
  9 14  1  0
 10 11  1  0
 10 15  1  0
 11 12  2  0
 11 16  1  0
 12 17  1  0
M  RAD  1   1   2
M  END
>  <reaction>  (8) 
rxn_1839

>  <mol_properties>  (8) 
{"0": {"label": "*1", "atom_type": "Cs"}, "1": {"label": "*0", "atom_type": "S2s"}, "2": {"label": "*2", "atom_type": "H0"}, "6": {"label": "*3", "atom_type": "Cd"}, "7": {"label": "*4", "atom_type": "Cd"}}

>  <type>  (8) 
unop_4

>  <geom_source>  (8) 
Heuristics

$$$$

     RDKit          3D

 17 16  0  0  0  0  0  0  0  0999 V2000
   -0.0088   -2.3154   -0.4342 C   0  0  0  0  0  3  0  0  0  0  0  0
   -0.0088   -2.3154   -2.2448 S   0  0  0  0  0  0  0  0  0  0  0  0
   -0.0088   -1.0996    0.0416 H   0  0  0  0  0  0  0  0  0  0  0  0
   -0.9295   -2.8096   -0.1282 H   0  0  0  0  0  0  0  0  0  0  0  0
    0.8355   -2.8754   -0.0377 H   0  0  0  0  0  0  0  0  0  0  0  0
    1.1615   -1.6873   -2.4112 H   0  0  0  0  0  0  0  0  0  0  0  0
   -0.0088    0.1105    0.5151 C   0  0  0  0  0  0  0  0  0  0  0  0
   -0.0088    0.3186    1.8867 C   0  0  0  0  0  0  0  0  0  0  0  0
   -0.0088    1.6105    2.3922 C   0  0  0  0  0  0  0  0  0  0  0  0
   -0.0088    2.6942    1.5262 C   0  0  0  0  0  0  0  0  0  0  0  0
   -0.0088    2.4861    0.1546 C   0  0  0  0  0  0  0  0  0  0  0  0
   -0.0088    1.1942   -0.3509 C   0  0  0  0  0  0  0  0  0  0  0  0
   -0.0088   -0.5274    2.5627 H   0  0  0  0  0  0  0  0  0  0  0  0
   -0.0088    1.7729    3.4628 H   0  0  0  0  0  0  0  0  0  0  0  0
   -0.0088    3.7026    1.9208 H   0  0  0  0  0  0  0  0  0  0  0  0
   -0.0088    3.3320   -0.5214 H   0  0  0  0  0  0  0  0  0  0  0  0
   -0.0088    1.0317   -1.4215 H   0  0  0  0  0  0  0  0  0  0  0  0
  1  2  1  0
  1  4  1  0
  1  5  1  0
  2  6  1  0
  3  7  1  0
  7  8  2  0
  7 12  1  0
  8  9  1  0
  8 13  1  0
  9 10  2  0
  9 14  1  0
 10 11  1  0
 10 15  1  0
 11 12  2  0
 11 16  1  0
 12 17  1  0
M  RAD  1   1   2
M  END
>  <reaction>  (9) 
rxn_1839

>  <mol_properties>  (9) 
{"0": {"label": "*1", "atom_type": "Cs"}, "1": {"label": "*0", "atom_type": "S2s"}, "2": {"label": "*2", "atom_type": "H0"}, "6": {"label": "*3", "atom_type": "Cd"}, "7": {"label": "*4", "atom_type": "Cd"}}

>  <type>  (9) 
unop_5

>  <geom_source>  (9) 
Heuristics

$$$$

     RDKit          3D

 17 16  0  0  0  0  0  0  0  0999 V2000
   -0.1044   -1.9779   -0.8424 C   0  0  0  0  0  3  0  0  0  0  0  0
   -0.1044   -1.9779   -2.6530 S   0  0  0  0  0  0  0  0  0  0  0  0
   -0.1044   -0.7620   -0.3666 H   0  0  0  0  0  0  0  0  0  0  0  0
   -1.0251   -2.4720   -0.5364 H   0  0  0  0  0  0  0  0  0  0  0  0
    0.7399   -2.5379   -0.4459 H   0  0  0  0  0  0  0  0  0  0  0  0
    1.0659   -1.3497   -2.8194 H   0  0  0  0  0  0  0  0  0  0  0  0
   -0.1044    0.4480    0.1069 C   0  0  0  0  0  0  0  0  0  0  0  0
    1.0970    1.0940    0.3597 C   0  0  0  0  0  0  0  0  0  0  0  0
    1.2487    1.8504    1.5127 C   0  0  0  0  0  0  0  0  0  0  0  0
    0.1989    1.9609    2.4129 C   0  0  0  0  0  0  0  0  0  0  0  0
   -1.0025    1.3149    2.1601 C   0  0  0  0  0  0  0  0  0  0  0  0
   -1.1542    0.5585    1.0071 C   0  0  0  0  0  0  0  0  0  0  0  0
    1.9164    1.0077   -0.3430 H   0  0  0  0  0  0  0  0  0  0  0  0
    2.1864    2.3546    1.7100 H   0  0  0  0  0  0  0  0  0  0  0  0
    0.3173    2.5513    3.3129 H   0  0  0  0  0  0  0  0  0  0  0  0
   -1.8219    1.4012    2.8628 H   0  0  0  0  0  0  0  0  0  0  0  0
   -2.0920    0.0543    0.8098 H   0  0  0  0  0  0  0  0  0  0  0  0
  1  2  1  0
  1  4  1  0
  1  5  1  0
  2  6  1  0
  3  7  1  0
  7  8  2  0
  7 12  1  0
  8  9  1  0
  8 13  1  0
  9 10  2  0
  9 14  1  0
 10 11  1  0
 10 15  1  0
 11 12  2  0
 11 16  1  0
 12 17  1  0
M  RAD  1   1   2
M  END
>  <reaction>  (10) 
rxn_1839

>  <mol_properties>  (10) 
{"0": {"label": "*1", "atom_type": "Cs"}, "1": {"label": "*0", "atom_type": "S2s"}, "2": {"label": "*2", "atom_type": "H0"}, "6": {"label": "*3", "atom_type": "Cd"}, "7": {"label": "*4", "atom_type": "Cd"}}

>  <type>  (10) 
unop_6

>  <geom_source>  (10) 
Heuristics

$$$$

     RDKit          3D

 17 16  0  0  0  0  0  0  0  0999 V2000
    0.1627   -1.9508   -0.8457 C   0  0  0  0  0  3  0  0  0  0  0  0
    0.1627   -1.9508   -2.6563 S   0  0  0  0  0  0  0  0  0  0  0  0
    0.1627   -0.7349   -0.3699 H   0  0  0  0  0  0  0  0  0  0  0  0
   -0.7580   -2.4449   -0.5397 H   0  0  0  0  0  0  0  0  0  0  0  0
    1.0071   -2.5108   -0.4492 H   0  0  0  0  0  0  0  0  0  0  0  0
    1.3330   -1.3226   -2.8227 H   0  0  0  0  0  0  0  0  0  0  0  0
    0.1627    0.4751    0.1036 C   0  0  0  0  0  0  0  0  0  0  0  0
    1.2032    0.9022    0.9158 C   0  0  0  0  0  0  0  0  0  0  0  0
    0.9311    1.6156    2.0740 C   0  0  0  0  0  0  0  0  0  0  0  0
   -0.3815    1.9020    2.4201 C   0  0  0  0  0  0  0  0  0  0  0  0
   -1.4219    1.4750    1.6079 C   0  0  0  0  0  0  0  0  0  0  0  0
   -1.1498    0.7615    0.4497 C   0  0  0  0  0  0  0  0  0  0  0  0
    2.2277    0.6786    0.6457 H   0  0  0  0  0  0  0  0  0  0  0  0
    1.7432    1.9489    2.7080 H   0  0  0  0  0  0  0  0  0  0  0  0
   -0.5938    2.4589    3.3242 H   0  0  0  0  0  0  0  0  0  0  0  0
   -2.4464    1.6986    1.8780 H   0  0  0  0  0  0  0  0  0  0  0  0
   -1.9620    0.4282   -0.1843 H   0  0  0  0  0  0  0  0  0  0  0  0
  1  2  1  0
  1  4  1  0
  1  5  1  0
  2  6  1  0
  3  7  1  0
  7  8  2  0
  7 12  1  0
  8  9  1  0
  8 13  1  0
  9 10  2  0
  9 14  1  0
 10 11  1  0
 10 15  1  0
 11 12  2  0
 11 16  1  0
 12 17  1  0
M  RAD  1   1   2
M  END
>  <reaction>  (11) 
rxn_1839

>  <mol_properties>  (11) 
{"0": {"label": "*1", "atom_type": "Cs"}, "1": {"label": "*0", "atom_type": "S2s"}, "2": {"label": "*2", "atom_type": "H0"}, "6": {"label": "*3", "atom_type": "Cd"}, "7": {"label": "*4", "atom_type": "Cd"}}

>  <type>  (11) 
unop_7

>  <geom_source>  (11) 
Heuristics

$$$$

     RDKit          3D

 17 16  0  0  0  0  0  0  0  0999 V2000
    0.0868   -1.9779   -0.8424 C   0  0  0  0  0  3  0  0  0  0  0  0
    0.0868   -1.9779   -2.6530 S   0  0  0  0  0  0  0  0  0  0  0  0
    0.0868   -0.7620   -0.3666 H   0  0  0  0  0  0  0  0  0  0  0  0
   -0.8339   -2.4720   -0.5364 H   0  0  0  0  0  0  0  0  0  0  0  0
    0.9312   -2.5379   -0.4459 H   0  0  0  0  0  0  0  0  0  0  0  0
    1.2571   -1.3497   -2.8194 H   0  0  0  0  0  0  0  0  0  0  0  0
    0.0868    0.4480    0.1069 C   0  0  0  0  0  0  0  0  0  0  0  0
   -1.1146    1.0940    0.3597 C   0  0  0  0  0  0  0  0  0  0  0  0
   -1.2663    1.8504    1.5127 C   0  0  0  0  0  0  0  0  0  0  0  0
   -0.2165    1.9609    2.4129 C   0  0  0  0  0  0  0  0  0  0  0  0
    0.9849    1.3149    2.1601 C   0  0  0  0  0  0  0  0  0  0  0  0
    1.1366    0.5585    1.0071 C   0  0  0  0  0  0  0  0  0  0  0  0
   -1.9340    1.0077   -0.3430 H   0  0  0  0  0  0  0  0  0  0  0  0
   -2.2041    2.3546    1.7100 H   0  0  0  0  0  0  0  0  0  0  0  0
   -0.3349    2.5513    3.3129 H   0  0  0  0  0  0  0  0  0  0  0  0
    1.8043    1.4012    2.8628 H   0  0  0  0  0  0  0  0  0  0  0  0
    2.0744    0.0543    0.8098 H   0  0  0  0  0  0  0  0  0  0  0  0
  1  2  1  0
  1  4  1  0
  1  5  1  0
  2  6  1  0
  3  7  1  0
  7  8  2  0
  7 12  1  0
  8  9  1  0
  8 13  1  0
  9 10  2  0
  9 14  1  0
 10 11  1  0
 10 15  1  0
 11 12  2  0
 11 16  1  0
 12 17  1  0
M  RAD  1   1   2
M  END
>  <reaction>  (12) 
rxn_1839

>  <mol_properties>  (12) 
{"0": {"label": "*1", "atom_type": "Cs"}, "1": {"label": "*0", "atom_type": "S2s"}, "2": {"label": "*2", "atom_type": "H0"}, "6": {"label": "*3", "atom_type": "Cd"}, "7": {"label": "*4", "atom_type": "Cd"}}

>  <type>  (12) 
unop_8

>  <geom_source>  (12) 
Heuristics

$$$$

     RDKit          3D

 17 16  0  0  0  0  0  0  0  0999 V2000
   -0.2183   -2.2498   -0.5159 C   0  0  0  0  0  3  0  0  0  0  0  0
   -0.2183   -2.2498   -2.3265 S   0  0  0  0  0  0  0  0  0  0  0  0
   -0.2183   -1.0340   -0.0401 H   0  0  0  0  0  0  0  0  0  0  0  0
   -1.1390   -2.7439   -0.2100 H   0  0  0  0  0  0  0  0  0  0  0  0
    0.6261   -2.8098   -0.1194 H   0  0  0  0  0  0  0  0  0  0  0  0
    0.9520   -1.6217   -2.4929 H   0  0  0  0  0  0  0  0  0  0  0  0
   -0.2183    0.1761    0.4334 C   0  0  0  0  0  0  0  0  0  0  0  0
    0.3824    1.2012   -0.2828 C   0  0  0  0  0  0  0  0  0  0  0  0
    0.7147    2.3890    0.3524 C   0  0  0  0  0  0  0  0  0  0  0  0
    0.4462    2.5516    1.7037 C   0  0  0  0  0  0  0  0  0  0  0  0
   -0.1545    1.5265    2.4199 C   0  0  0  0  0  0  0  0  0  0  0  0
   -0.4868    0.3387    1.7847 C   0  0  0  0  0  0  0  0  0  0  0  0
    0.5920    1.0742   -1.3375 H   0  0  0  0  0  0  0  0  0  0  0  0
    1.1836    3.1891   -0.2066 H   0  0  0  0  0  0  0  0  0  0  0  0
    0.7055    3.4787    2.1995 H   0  0  0  0  0  0  0  0  0  0  0  0
   -0.3641    1.6535    3.4746 H   0  0  0  0  0  0  0  0  0  0  0  0
   -0.9557   -0.4614    2.3437 H   0  0  0  0  0  0  0  0  0  0  0  0
  1  2  1  0
  1  4  1  0
  1  5  1  0
  2  6  1  0
  3  7  1  0
  7  8  2  0
  7 12  1  0
  8  9  1  0
  8 13  1  0
  9 10  2  0
  9 14  1  0
 10 11  1  0
 10 15  1  0
 11 12  2  0
 11 16  1  0
 12 17  1  0
M  RAD  1   1   2
M  END
>  <reaction>  (13) 
rxn_1839

>  <mol_properties>  (13) 
{"0": {"label": "*1", "atom_type": "Cs"}, "1": {"label": "*0", "atom_type": "S2s"}, "2": {"label": "*2", "atom_type": "H0"}, "6": {"label": "*3", "atom_type": "Cd"}, "7": {"label": "*4", "atom_type": "Cd"}}

>  <type>  (13) 
unop_9

>  <geom_source>  (13) 
Heuristics

$$$$

     RDKit          3D

 17 16  0  0  0  0  0  0  0  0999 V2000
    0.2434   -2.1047   -0.6958 C   0  0  0  0  0  3  0  0  0  0  0  0
    0.2434   -2.1047   -2.5064 S   0  0  0  0  0  0  0  0  0  0  0  0
    0.2434   -0.8889   -0.2200 H   0  0  0  0  0  0  0  0  0  0  0  0
   -0.6773   -2.5989   -0.3899 H   0  0  0  0  0  0  0  0  0  0  0  0
    1.0878   -2.6647   -0.2993 H   0  0  0  0  0  0  0  0  0  0  0  0
    1.4137   -1.4766   -2.6728 H   0  0  0  0  0  0  0  0  0  0  0  0
    0.2434    0.3212    0.2535 C   0  0  0  0  0  0  0  0  0  0  0  0
   -0.7971    1.1860   -0.0531 C   0  0  0  0  0  0  0  0  0  0  0  0
   -1.1971    2.1437    0.8674 C   0  0  0  0  0  0  0  0  0  0  0  0
   -0.5568    2.2365    2.0945 C   0  0  0  0  0  0  0  0  0  0  0  0
    0.4837    1.3717    2.4011 C   0  0  0  0  0  0  0  0  0  0  0  0
    0.8838    0.4140    1.4806 C   0  0  0  0  0  0  0  0  0  0  0  0
   -1.2969    1.1135   -1.0110 H   0  0  0  0  0  0  0  0  0  0  0  0
   -2.0093    2.8187    0.6280 H   0  0  0  0  0  0  0  0  0  0  0  0
   -0.8691    2.9841    2.8130 H   0  0  0  0  0  0  0  0  0  0  0  0
    0.9836    1.4441    3.3590 H   0  0  0  0  0  0  0  0  0  0  0  0
    1.6960   -0.2611    1.7200 H   0  0  0  0  0  0  0  0  0  0  0  0
  1  2  1  0
  1  4  1  0
  1  5  1  0
  2  6  1  0
  3  7  1  0
  7  8  2  0
  7 12  1  0
  8  9  1  0
  8 13  1  0
  9 10  2  0
  9 14  1  0
 10 11  1  0
 10 15  1  0
 11 12  2  0
 11 16  1  0
 12 17  1  0
M  RAD  1   1   2
M  END
>  <reaction>  (14) 
rxn_1839

>  <mol_properties>  (14) 
{"0": {"label": "*1", "atom_type": "Cs"}, "1": {"label": "*0", "atom_type": "S2s"}, "2": {"label": "*2", "atom_type": "H0"}, "6": {"label": "*3", "atom_type": "Cd"}, "7": {"label": "*4", "atom_type": "Cd"}}

>  <type>  (14) 
unop_10

>  <geom_source>  (14) 
Heuristics

$$$$

     RDKit          3D

 17 16  0  0  0  0  0  0  0  0999 V2000
    0.3394   -2.0964   -0.6532 C   0  0  0  0  0  3  0  0  0  0  0  0
    0.3394   -2.0964   -2.4639 S   0  0  0  0  0  0  0  0  0  0  0  0
    0.3394   -0.8806   -0.1775 H   0  0  0  0  0  0  0  0  0  0  0  0
   -0.5813   -2.5905   -0.3473 H   0  0  0  0  0  0  0  0  0  0  0  0
    1.1838   -2.6564   -0.2568 H   0  0  0  0  0  0  0  0  0  0  0  0
    1.5097   -1.4682   -2.6303 H   0  0  0  0  0  0  0  0  0  0  0  0
    0.3394    0.3295    0.2961 C   0  0  0  0  0  0  0  0  0  0  0  0
    0.9401    0.5963    1.5178 C   0  0  0  0  0  0  0  0  0  0  0  0
    0.3878    1.5407    2.3707 C   0  0  0  0  0  0  0  0  0  0  0  0
   -0.7652    2.2184    2.0021 C   0  0  0  0  0  0  0  0  0  0  0  0
   -1.3659    1.9516    0.7804 C   0  0  0  0  0  0  0  0  0  0  0  0
   -0.8136    1.0071   -0.0727 C   0  0  0  0  0  0  0  0  0  0  0  0
    1.8401    0.0674    1.8056 H   0  0  0  0  0  0  0  0  0  0  0  0
    0.8567    1.7489    3.3243 H   0  0  0  0  0  0  0  0  0  0  0  0
   -1.1963    2.9555    2.6679 H   0  0  0  0  0  0  0  0  0  0  0  0
   -2.2659    2.4805    0.4926 H   0  0  0  0  0  0  0  0  0  0  0  0
   -1.2825    0.7989   -1.0263 H   0  0  0  0  0  0  0  0  0  0  0  0
  1  2  1  0
  1  4  1  0
  1  5  1  0
  2  6  1  0
  3  7  1  0
  7  8  2  0
  7 12  1  0
  8  9  1  0
  8 13  1  0
  9 10  2  0
  9 14  1  0
 10 11  1  0
 10 15  1  0
 11 12  2  0
 11 16  1  0
 12 17  1  0
M  RAD  1   1   2
M  END
>  <reaction>  (15) 
rxn_1839

>  <mol_properties>  (15) 
{"0": {"label": "*1", "atom_type": "Cs"}, "1": {"label": "*0", "atom_type": "S2s"}, "2": {"label": "*2", "atom_type": "H0"}, "6": {"label": "*3", "atom_type": "Cd"}, "7": {"label": "*4", "atom_type": "Cd"}}

>  <type>  (15) 
unop_11

>  <geom_source>  (15) 
Heuristics

$$$$

     RDKit          3D

 17 16  0  0  0  0  0  0  0  0999 V2000
   -0.0088   -2.3154   -0.4342 C   0  0  0  0  0  3  0  0  0  0  0  0
   -0.0088   -2.3154   -2.2448 S   0  0  0  0  0  0  0  0  0  0  0  0
   -0.0088   -1.0996    0.0416 H   0  0  0  0  0  0  0  0  0  0  0  0
   -0.9295   -2.8096   -0.1282 H   0  0  0  0  0  0  0  0  0  0  0  0
    0.8355   -2.8754   -0.0377 H   0  0  0  0  0  0  0  0  0  0  0  0
    1.1615   -1.6873   -2.4112 H   0  0  0  0  0  0  0  0  0  0  0  0
   -0.0088    0.1105    0.5151 C   0  0  0  0  0  0  0  0  0  0  0  0
   -0.0088    1.1942   -0.3509 C   0  0  0  0  0  0  0  0  0  0  0  0
   -0.0088    2.4861    0.1546 C   0  0  0  0  0  0  0  0  0  0  0  0
   -0.0088    2.6942    1.5262 C   0  0  0  0  0  0  0  0  0  0  0  0
   -0.0088    1.6105    2.3922 C   0  0  0  0  0  0  0  0  0  0  0  0
   -0.0088    0.3186    1.8867 C   0  0  0  0  0  0  0  0  0  0  0  0
   -0.0088    1.0317   -1.4215 H   0  0  0  0  0  0  0  0  0  0  0  0
   -0.0088    3.3320   -0.5214 H   0  0  0  0  0  0  0  0  0  0  0  0
   -0.0088    3.7026    1.9208 H   0  0  0  0  0  0  0  0  0  0  0  0
   -0.0088    1.7729    3.4628 H   0  0  0  0  0  0  0  0  0  0  0  0
   -0.0088   -0.5274    2.5627 H   0  0  0  0  0  0  0  0  0  0  0  0
  1  2  1  0
  1  4  1  0
  1  5  1  0
  2  6  1  0
  3  7  1  0
  7  8  2  0
  7 12  1  0
  8  9  1  0
  8 13  1  0
  9 10  2  0
  9 14  1  0
 10 11  1  0
 10 15  1  0
 11 12  2  0
 11 16  1  0
 12 17  1  0
M  RAD  1   1   2
M  END
>  <reaction>  (16) 
rxn_1839

>  <mol_properties>  (16) 
{"0": {"label": "*1", "atom_type": "Cs"}, "1": {"label": "*0", "atom_type": "S2s"}, "2": {"label": "*2", "atom_type": "H0"}, "6": {"label": "*3", "atom_type": "Cd"}, "7": {"label": "*4", "atom_type": "Cd"}}

>  <type>  (16) 
unop_12

>  <geom_source>  (16) 
Heuristics

$$$$

     RDKit          3D

 17 16  0  0  0  0  0  0  0  0999 V2000
   -2.0469   -1.4741   -0.6580 S   0  0  0  0  0  0  0  0  0  0  0  0
    0.2368    1.0989   -0.6509 C   0  0  0  0  0  0  0  0  0  0  0  0
    1.5847    1.0871   -1.0256 C   0  0  0  0  0  0  0  0  0  0  0  0
   -0.2091    0.2686    0.3825 C   0  0  0  0  0  0  0  0  0  0  0  0
    2.4865    0.2446   -0.3664 C   0  0  0  0  0  0  0  0  0  0  0  0
    0.6921   -0.5737    1.0416 C   0  0  0  0  0  0  0  0  0  0  0  0
    2.0401   -0.5859    0.6673 C   0  0  0  0  0  0  0  0  0  0  0  0
   -2.7305   -0.2506    0.4939 C   0  0  0  0  0  3  0  0  0  0  0  0
   -0.4617    1.7500   -1.1599 H   0  0  0  0  0  0  0  0  0  0  0  0
    1.9299    1.7296   -1.8253 H   0  0  0  0  0  0  0  0  0  0  0  0
   -1.4036    0.2793    0.7143 H   0  0  0  0  0  0  0  0  0  0  0  0
    3.5293    0.2353   -0.6561 H   0  0  0  0  0  0  0  0  0  0  0  0
    0.3455   -1.2154    1.8409 H   0  0  0  0  0  0  0  0  0  0  0  0
    2.7375   -1.2377    1.1774 H   0  0  0  0  0  0  0  0  0  0  0  0
   -3.8022   -0.0797    0.2624 H   0  0  0  0  0  0  0  0  0  0  0  0
   -2.6337   -0.6274    1.5329 H   0  0  0  0  0  0  0  0  0  0  0  0
   -2.2948   -0.6489   -1.7710 H   0  0  0  0  0  0  0  0  0  0  0  0
  1  8  1  0
  1 17  1  0
  2  3  2  0
  2  4  1  0
  2  9  1  0
  3  5  1  0
  3 10  1  0
  4  6  2  0
  4 11  1  0
  5  7  2  0
  5 12  1  0
  6  7  1  0
  6 13  1  0
  7 14  1  0
  8 15  1  0
  8 16  1  0
M  RAD  1   8   2
M  END
>  <reaction>  (17) 
rxn_1839

>  <mol_properties>  (17) 
{"0": {"label": "*1", "atom_type": "Cs"}, "1": {"label": "*0", "atom_type": "S2s"}, "2": {"label": "*2", "atom_type": "H0"}, "6": {"label": "*3", "atom_type": "Cd"}, "7": {"label": "*4", "atom_type": "Cd"}}

>  <type>  (17) 
unop_13

>  <geom_source>  (17) 
AutoTST

$$$$
