
     RDKit          3D

  6  5  0  0  0  0  0  0  0  0999 V2000
   -0.5072   -0.0291   -0.0097 C   0  0  0  0  0  0  0  0  0  0  0  0
    1.1321   -0.1527   -0.7687 S   0  0  0  0  0  0  0  0  0  0  0  0
   -0.6174   -0.7330    0.8127 H   0  0  0  0  0  0  0  0  0  0  0  0
   -0.5863    0.9827    0.3845 H   0  0  0  0  0  0  0  0  0  0  0  0
   -1.2962   -0.1800   -0.7434 H   0  0  0  0  0  0  0  0  0  0  0  0
    1.0312   -1.4237   -1.1764 H   0  0  0  0  0  0  0  0  0  0  0  0
  1  2  1  0
  1  3  1  0
  1  4  1  0
  1  5  1  0
  2  6  1  0
M  END
>  <reaction>  (1) 
rxn_1859

>  <mol_properties>  (1) 
{"0": {"label": "donator", "atom_type": "Cs"}, "2": {"label": "d_hydrogen", "atom_type": "H0"}}

>  <type>  (1) 
r1h

$$$$

     RDKit          3D

  6  5  0  0  0  0  0  0  0  0999 V2000
   -0.5044    0.1172    0.0330 C   0  0  0  0  0  0  0  0  0  0  0  0
    0.9510    0.1169    0.2268 C   0  0  0  0  0  3  0  0  0  0  0  0
    2.2110   -0.6566   -0.2666 S   0  0  0  0  0  0  0  0  0  0  0  0
   -0.8466   -0.6499   -0.6685 H   0  0  0  0  0  0  0  0  0  0  0  0
   -0.8173    1.1017   -0.3238 H   0  0  0  0  0  0  0  0  0  0  0  0
   -0.9937   -0.0294    0.9991 H   0  0  0  0  0  0  0  0  0  0  0  0
  1  2  1  0
  1  4  1  0
  1  5  1  0
  1  6  1  0
  2  3  2  0
M  RAD  1   2   2
M  END
>  <reaction>  (2) 
rxn_1859

>  <mol_properties>  (2) 
{"1": {"label": "acceptor", "atom_type": "CS"}}

>  <type>  (2) 
r2

$$$$

     RDKit          3D

  7  6  0  0  0  0  0  0  0  0999 V2000
   -0.6782    0.0507    0.0301 C   0  0  0  0  0  0  0  0  0  0  0  0
    0.8092    0.0996    0.0213 C   0  0  0  0  0  0  0  0  0  0  0  0
    1.7473    0.7521    1.1507 S   0  0  0  0  0  0  0  0  0  0  0  0
   -1.0667    0.5456   -0.8653 H   0  0  0  0  0  0  0  0  0  0  0  0
   -1.0112   -0.9904   -0.0239 H   0  0  0  0  0  0  0  0  0  0  0  0
   -1.0920    0.5225    0.9188 H   0  0  0  0  0  0  0  0  0  0  0  0
    1.2740   -0.3620   -0.8520 H   0  0  0  0  0  0  0  0  0  0  0  0
  1  2  1  0
  1  4  1  0
  1  5  1  0
  1  6  1  0
  2  3  2  0
  2  7  1  0
M  END
>  <reaction>  (3) 
rxn_1859

>  <mol_properties>  (3) 
{"0": {"label": "a_hydrogen", "atom_type": "H0"}, "2": {"label": "acceptor", "atom_type": "CS"}}

>  <type>  (3) 
r2h

$$$$

     RDKit          3D

 12 10  0  0  0  0  0  0  0  0999 V2000
   -0.5076   -1.5847   -0.3439 C   0  0  0  0  0  3  0  0  0  0  0  0
    0.0845   -1.3563   -1.9879 S   0  0  0  0  0  0  0  0  0  0  0  0
   -0.4383   -0.3651    0.2904 H   0  0  0  0  0  0  0  0  0  0  0  0
   -1.5564   -1.8703   -0.3580 H   0  0  0  0  0  0  0  0  0  0  0  0
    0.0983   -2.2389    0.2786 H   0  0  0  0  0  0  0  0  0  0  0  0
    1.3308   -0.9842   -1.6648 H   0  0  0  0  0  0  0  0  0  0  0  0
   -1.3623    1.2065    1.7559 C   0  0  0  0  0  0  0  0  0  0  0  0
   -0.2552    0.8326    0.8454 C   0  0  0  0  0  0  0  0  0  0  0  0
    1.0602    1.6172    0.4306 S   0  0  0  0  0  0  0  0  0  0  0  0
   -1.2177    2.1844    2.2157 H   0  0  0  0  0  0  0  0  0  0  0  0
   -1.4623    0.4439    2.5337 H   0  0  0  0  0  0  0  0  0  0  0  0
   -2.3016    1.1990    1.1951 H   0  0  0  0  0  0  0  0  0  0  0  0
  1  2  1  0
  1  4  1  0
  1  5  1  0
  2  6  1  0
  3  8  1  0
  7  8  1  0
  7 10  1  0
  7 11  1  0
  7 12  1  0
  8  9  2  0
M  RAD  1   1   2
M  END
>  <reaction>  (4) 
rxn_1859

>  <mol_properties>  (4) 
{"0": {"label": "*3", "atom_type": "Cs"}, "1": {"label": "*4", "atom_type": "S2s"}, "2": {"label": "*2", "atom_type": "H0"}, "7": {"label": "*1", "atom_type": "CS"}, "8": {"label": "*0", "atom_type": "S2d"}}

>  <type>  (4) 
ts

$$$$

     RDKit          3D

 12 10  0  0  0  0  0  0  0  0999 V2000
   -0.2934   -1.5226   -0.1852 C   0  0  0  0  0  0  0  0  0  0  0  0
   -0.2934   -1.5226   -1.9958 S   0  0  0  0  0  0  0  0  0  0  0  0
   -0.2934   -0.3068    0.2906 H   0  0  0  0  0  0  0  0  0  0  0  0
   -1.2141   -2.0168    0.1208 H   0  0  0  0  0  0  0  0  0  0  0  0
    0.5510   -2.0826    0.2113 H   0  0  0  0  0  0  0  0  0  0  0  0
    0.8769   -0.8945   -2.1622 H   0  0  0  0  0  0  0  0  0  0  0  0
   -1.4652    1.2435    1.6238 C   0  0  0  0  0  0  0  0  0  0  0  0
   -0.2934    0.9131    0.7680 C   0  0  0  0  0  3  0  0  0  0  0  0
    1.2343    1.3274    1.0436 S   0  0  0  0  0  0  0  0  0  0  0  0
   -1.1754    1.8217    2.4986 H   0  0  0  0  0  0  0  0  0  0  0  0
   -1.9608    0.3203    1.9393 H   0  0  0  0  0  0  0  0  0  0  0  0
   -2.2006    1.8039    1.0382 H   0  0  0  0  0  0  0  0  0  0  0  0
  1  2  1  0
  1  3  1  0
  1  4  1  0
  1  5  1  0
  2  6  1  0
  7  8  1  0
  7 10  1  0
  7 11  1  0
  7 12  1  0
  8  9  2  0
M  RAD  1   8   2
M  END
>  <reaction>  (5) 
rxn_1859

>  <mol_properties>  (5) 
{"0": {"label": "*3", "atom_type": "Cs"}, "1": {"label": "*4", "atom_type": "S2s"}, "2": {"label": "*2", "atom_type": "H0"}, "7": {"label": "*1", "atom_type": "CS"}, "8": {"label": "*0", "atom_type": "S2d"}}

>  <type>  (5) 
unop_1

>  <geom_source>  (5) 
Heuristics

$$$$

     RDKit          3D

 12 10  0  0  0  0  0  0  0  0999 V2000
   -0.0138   -1.5478   -0.3149 C   0  0  0  0  0  0  0  0  0  0  0  0
   -0.0138   -1.5478   -2.1255 S   0  0  0  0  0  0  0  0  0  0  0  0
   -0.0138   -0.3320    0.1609 H   0  0  0  0  0  0  0  0  0  0  0  0
   -0.9345   -2.0419   -0.0089 H   0  0  0  0  0  0  0  0  0  0  0  0
    0.8306   -2.1078    0.0816 H   0  0  0  0  0  0  0  0  0  0  0  0
    1.1565   -0.9197   -2.2919 H   0  0  0  0  0  0  0  0  0  0  0  0
   -0.6903    1.8919   -0.2272 C   0  0  0  0  0  0  0  0  0  0  0  0
   -0.0138    0.8880    0.6383 C   0  0  0  0  0  3  0  0  0  0  0  0
    0.3319    1.0540    2.1985 S   0  0  0  0  0  0  0  0  0  0  0  0
   -0.9418    2.7955    0.3242 H   0  0  0  0  0  0  0  0  0  0  0  0
   -1.5985    1.4555   -0.6542 H   0  0  0  0  0  0  0  0  0  0  0  0
   -0.0422    2.1438   -1.0723 H   0  0  0  0  0  0  0  0  0  0  0  0
  1  2  1  0
  1  3  1  0
  1  4  1  0
  1  5  1  0
  2  6  1  0
  7  8  1  0
  7 10  1  0
  7 11  1  0
  7 12  1  0
  8  9  2  0
M  RAD  1   8   2
M  END
>  <reaction>  (6) 
rxn_1859

>  <mol_properties>  (6) 
{"0": {"label": "*3", "atom_type": "Cs"}, "1": {"label": "*4", "atom_type": "S2s"}, "2": {"label": "*2", "atom_type": "H0"}, "7": {"label": "*1", "atom_type": "CS"}, "8": {"label": "*0", "atom_type": "S2d"}}

>  <type>  (6) 
unop_2

>  <geom_source>  (6) 
Heuristics

$$$$

     RDKit          3D

 12 10  0  0  0  0  0  0  0  0999 V2000
   -0.2810   -1.6310   -0.0107 C   0  0  0  0  0  0  0  0  0  0  0  0
   -0.2810   -1.6310   -1.8214 S   0  0  0  0  0  0  0  0  0  0  0  0
   -0.2810   -0.4152    0.4651 H   0  0  0  0  0  0  0  0  0  0  0  0
   -1.2017   -2.1251    0.2952 H   0  0  0  0  0  0  0  0  0  0  0  0
    0.5633   -2.1910    0.3858 H   0  0  0  0  0  0  0  0  0  0  0  0
    0.8893   -1.0029   -1.9878 H   0  0  0  0  0  0  0  0  0  0  0  0
   -0.9575    0.9547    2.2594 C   0  0  0  0  0  0  0  0  0  0  0  0
   -0.2810    0.8048    0.9424 C   0  0  0  0  0  3  0  0  0  0  0  0
    0.9607    1.6714    0.4054 S   0  0  0  0  0  0  0  0  0  0  0  0
   -0.5094    1.7471    2.8551 H   0  0  0  0  0  0  0  0  0  0  0  0
   -0.9080    0.0085    2.8070 H   0  0  0  0  0  0  0  0  0  0  0  0
   -2.0200    1.1659    2.1040 H   0  0  0  0  0  0  0  0  0  0  0  0
  1  2  1  0
  1  3  1  0
  1  4  1  0
  1  5  1  0
  2  6  1  0
  7  8  1  0
  7 10  1  0
  7 11  1  0
  7 12  1  0
  8  9  2  0
M  RAD  1   8   2
M  END
>  <reaction>  (7) 
rxn_1859

>  <mol_properties>  (7) 
{"0": {"label": "*3", "atom_type": "Cs"}, "1": {"label": "*4", "atom_type": "S2s"}, "2": {"label": "*2", "atom_type": "H0"}, "7": {"label": "*1", "atom_type": "CS"}, "8": {"label": "*0", "atom_type": "S2d"}}

>  <type>  (7) 
unop_3

>  <geom_source>  (7) 
Heuristics

$$$$

     RDKit          3D

 12 10  0  0  0  0  0  0  0  0999 V2000
    0.0576   -1.5033   -0.3307 C   0  0  0  0  0  0  0  0  0  0  0  0
    0.0576   -1.5033   -2.1414 S   0  0  0  0  0  0  0  0  0  0  0  0
    0.0576   -0.2875    0.1450 H   0  0  0  0  0  0  0  0  0  0  0  0
   -0.8631   -1.9975   -0.0248 H   0  0  0  0  0  0  0  0  0  0  0  0
    0.9020   -2.0633    0.0657 H   0  0  0  0  0  0  0  0  0  0  0  0
    1.2279   -0.8752   -2.3078 H   0  0  0  0  0  0  0  0  0  0  0  0
    1.2294    1.7559    0.2182 C   0  0  0  0  0  0  0  0  0  0  0  0
    0.0576    0.9324    0.6224 C   0  0  0  0  0  3  0  0  0  0  0  0
   -0.7486    1.0386    2.0081 S   0  0  0  0  0  0  0  0  0  0  0  0
    1.5031    2.4735    0.9887 H   0  0  0  0  0  0  0  0  0  0  0  0
    1.0030    2.2834   -0.7136 H   0  0  0  0  0  0  0  0  0  0  0  0
    2.0805    1.1023    0.0037 H   0  0  0  0  0  0  0  0  0  0  0  0
  1  2  1  0
  1  3  1  0
  1  4  1  0
  1  5  1  0
  2  6  1  0
  7  8  1  0
  7 10  1  0
  7 11  1  0
  7 12  1  0
  8  9  2  0
M  RAD  1   8   2
M  END
>  <reaction>  (8) 
rxn_1859

>  <mol_properties>  (8) 
{"0": {"label": "*3", "atom_type": "Cs"}, "1": {"label": "*4", "atom_type": "S2s"}, "2": {"label": "*2", "atom_type": "H0"}, "7": {"label": "*1", "atom_type": "CS"}, "8": {"label": "*0", "atom_type": "S2d"}}

>  <type>  (8) 
unop_4

>  <geom_source>  (8) 
Heuristics

$$$$

     RDKit          3D

 12 10  0  0  0  0  0  0  0  0999 V2000
   -0.0103   -1.7321    0.1096 C   0  0  0  0  0  0  0  0  0  0  0  0
   -0.0103   -1.7321   -1.7010 S   0  0  0  0  0  0  0  0  0  0  0  0
   -0.0103   -0.5162    0.5854 H   0  0  0  0  0  0  0  0  0  0  0  0
   -0.9310   -2.2262    0.4156 H   0  0  0  0  0  0  0  0  0  0  0  0
    0.8341   -2.2921    0.5061 H   0  0  0  0  0  0  0  0  0  0  0  0
    1.1600   -1.1039   -1.8674 H   0  0  0  0  0  0  0  0  0  0  0  0
   -0.0103    0.7876    2.5486 C   0  0  0  0  0  0  0  0  0  0  0  0
   -0.0103    0.7037    1.0628 C   0  0  0  0  0  3  0  0  0  0  0  0
   -0.0103    1.9419    0.0389 S   0  0  0  0  0  0  0  0  0  0  0  0
   -0.0103    1.8191    2.8943 H   0  0  0  0  0  0  0  0  0  0  0  0
    0.8658    0.2655    2.9454 H   0  0  0  0  0  0  0  0  0  0  0  0
   -0.8864    0.2655    2.9454 H   0  0  0  0  0  0  0  0  0  0  0  0
  1  2  1  0
  1  3  1  0
  1  4  1  0
  1  5  1  0
  2  6  1  0
  7  8  1  0
  7 10  1  0
  7 11  1  0
  7 12  1  0
  8  9  2  0
M  RAD  1   8   2
M  END
>  <reaction>  (9) 
rxn_1859

>  <mol_properties>  (9) 
{"0": {"label": "*3", "atom_type": "Cs"}, "1": {"label": "*4", "atom_type": "S2s"}, "2": {"label": "*2", "atom_type": "H0"}, "7": {"label": "*1", "atom_type": "CS"}, "8": {"label": "*0", "atom_type": "S2d"}}

>  <type>  (9) 
unop_5

>  <geom_source>  (9) 
Heuristics

$$$$

     RDKit          3D

 12 10  0  0  0  0  0  0  0  0999 V2000
    0.1718   -1.4851   -0.2961 C   0  0  0  0  0  0  0  0  0  0  0  0
    0.1718   -1.4851   -2.1068 S   0  0  0  0  0  0  0  0  0  0  0  0
    0.1718   -0.2692    0.1796 H   0  0  0  0  0  0  0  0  0  0  0  0
   -0.7489   -1.9792    0.0098 H   0  0  0  0  0  0  0  0  0  0  0  0
    1.0162   -2.0451    0.1003 H   0  0  0  0  0  0  0  0  0  0  0  0
    1.3421   -0.8569   -2.2732 H   0  0  0  0  0  0  0  0  0  0  0  0
    1.5248    1.5276    0.8828 C   0  0  0  0  0  0  0  0  0  0  0  0
    0.1718    0.9507    0.6570 C   0  0  0  0  0  3  0  0  0  0  0  0
   -1.1068    1.1173    1.6156 S   0  0  0  0  0  0  0  0  0  0  0  0
    1.5694    2.1024    1.8054 H   0  0  0  0  0  0  0  0  0  0  0  0
    1.7971    2.1662    0.0368 H   0  0  0  0  0  0  0  0  0  0  0  0
    2.2662    0.7232    0.9132 H   0  0  0  0  0  0  0  0  0  0  0  0
  1  2  1  0
  1  3  1  0
  1  4  1  0
  1  5  1  0
  2  6  1  0
  7  8  1  0
  7 10  1  0
  7 11  1  0
  7 12  1  0
  8  9  2  0
M  RAD  1   8   2
M  END
>  <reaction>  (10) 
rxn_1859

>  <mol_properties>  (10) 
{"0": {"label": "*3", "atom_type": "Cs"}, "1": {"label": "*4", "atom_type": "S2s"}, "2": {"label": "*2", "atom_type": "H0"}, "7": {"label": "*1", "atom_type": "CS"}, "8": {"label": "*0", "atom_type": "S2d"}}

>  <type>  (10) 
unop_6

>  <geom_source>  (10) 
Heuristics

$$$$

     RDKit          3D

 12 10  0  0  0  0  0  0  0  0999 V2000
    0.2728   -1.5226   -0.1852 C   0  0  0  0  0  0  0  0  0  0  0  0
    0.2728   -1.5226   -1.9958 S   0  0  0  0  0  0  0  0  0  0  0  0
    0.2728   -0.3068    0.2906 H   0  0  0  0  0  0  0  0  0  0  0  0
   -0.6479   -2.0168    0.1208 H   0  0  0  0  0  0  0  0  0  0  0  0
    1.1172   -2.0826    0.2113 H   0  0  0  0  0  0  0  0  0  0  0  0
    1.4431   -0.8945   -2.1622 H   0  0  0  0  0  0  0  0  0  0  0  0
    1.4446    1.2435    1.6238 C   0  0  0  0  0  0  0  0  0  0  0  0
    0.2728    0.9131    0.7680 C   0  0  0  0  0  3  0  0  0  0  0  0
   -1.2549    1.3274    1.0436 S   0  0  0  0  0  0  0  0  0  0  0  0
    1.1548    1.8217    2.4986 H   0  0  0  0  0  0  0  0  0  0  0  0
    2.1800    1.8039    1.0382 H   0  0  0  0  0  0  0  0  0  0  0  0
    1.9403    0.3203    1.9393 H   0  0  0  0  0  0  0  0  0  0  0  0
  1  2  1  0
  1  3  1  0
  1  4  1  0
  1  5  1  0
  2  6  1  0
  7  8  1  0
  7 10  1  0
  7 11  1  0
  7 12  1  0
  8  9  2  0
M  RAD  1   8   2
M  END
>  <reaction>  (11) 
rxn_1859

>  <mol_properties>  (11) 
{"0": {"label": "*3", "atom_type": "Cs"}, "1": {"label": "*4", "atom_type": "S2s"}, "2": {"label": "*2", "atom_type": "H0"}, "7": {"label": "*1", "atom_type": "CS"}, "8": {"label": "*0", "atom_type": "S2d"}}

>  <type>  (11) 
unop_7

>  <geom_source>  (11) 
Heuristics

$$$$

     RDKit          3D

 12 10  0  0  0  0  0  0  0  0999 V2000
   -0.1924   -1.4851   -0.2961 C   0  0  0  0  0  0  0  0  0  0  0  0
   -0.1924   -1.4851   -2.1068 S   0  0  0  0  0  0  0  0  0  0  0  0
   -0.1924   -0.2692    0.1796 H   0  0  0  0  0  0  0  0  0  0  0  0
   -1.1131   -1.9792    0.0098 H   0  0  0  0  0  0  0  0  0  0  0  0
    0.6520   -2.0451    0.1003 H   0  0  0  0  0  0  0  0  0  0  0  0
    0.9779   -0.8569   -2.2732 H   0  0  0  0  0  0  0  0  0  0  0  0
   -1.5455    1.5276    0.8828 C   0  0  0  0  0  0  0  0  0  0  0  0
   -0.1924    0.9507    0.6570 C   0  0  0  0  0  3  0  0  0  0  0  0
    1.0861    1.1173    1.6156 S   0  0  0  0  0  0  0  0  0  0  0  0
   -1.5900    2.1025    1.8054 H   0  0  0  0  0  0  0  0  0  0  0  0
   -2.2868    0.7232    0.9132 H   0  0  0  0  0  0  0  0  0  0  0  0
   -1.8177    2.1662    0.0368 H   0  0  0  0  0  0  0  0  0  0  0  0
  1  2  1  0
  1  3  1  0
  1  4  1  0
  1  5  1  0
  2  6  1  0
  7  8  1  0
  7 10  1  0
  7 11  1  0
  7 12  1  0
  8  9  2  0
M  RAD  1   8   2
M  END
>  <reaction>  (12) 
rxn_1859

>  <mol_properties>  (12) 
{"0": {"label": "*3", "atom_type": "Cs"}, "1": {"label": "*4", "atom_type": "S2s"}, "2": {"label": "*2", "atom_type": "H0"}, "7": {"label": "*1", "atom_type": "CS"}, "8": {"label": "*0", "atom_type": "S2d"}}

>  <type>  (12) 
unop_8

>  <geom_source>  (12) 
Heuristics

$$$$

     RDKit          3D

 12 10  0  0  0  0  0  0  0  0999 V2000
   -0.0068   -1.5478   -0.3149 C   0  0  0  0  0  0  0  0  0  0  0  0
   -0.0068   -1.5478   -2.1255 S   0  0  0  0  0  0  0  0  0  0  0  0
   -0.0068   -0.3320    0.1609 H   0  0  0  0  0  0  0  0  0  0  0  0
   -0.9275   -2.0419   -0.0089 H   0  0  0  0  0  0  0  0  0  0  0  0
    0.8375   -2.1078    0.0816 H   0  0  0  0  0  0  0  0  0  0  0  0
    1.1635   -0.9197   -2.2919 H   0  0  0  0  0  0  0  0  0  0  0  0
    0.6697    1.8919   -0.2272 C   0  0  0  0  0  0  0  0  0  0  0  0
   -0.0068    0.8880    0.6383 C   0  0  0  0  0  3  0  0  0  0  0  0
   -0.3525    1.0540    2.1985 S   0  0  0  0  0  0  0  0  0  0  0  0
    0.9213    2.7955    0.3242 H   0  0  0  0  0  0  0  0  0  0  0  0
    0.0216    2.1438   -1.0723 H   0  0  0  0  0  0  0  0  0  0  0  0
    1.5779    1.4555   -0.6542 H   0  0  0  0  0  0  0  0  0  0  0  0
  1  2  1  0
  1  3  1  0
  1  4  1  0
  1  5  1  0
  2  6  1  0
  7  8  1  0
  7 10  1  0
  7 11  1  0
  7 12  1  0
  8  9  2  0
M  RAD  1   8   2
M  END
>  <reaction>  (13) 
rxn_1859

>  <mol_properties>  (13) 
{"0": {"label": "*3", "atom_type": "Cs"}, "1": {"label": "*4", "atom_type": "S2s"}, "2": {"label": "*2", "atom_type": "H0"}, "7": {"label": "*1", "atom_type": "CS"}, "8": {"label": "*0", "atom_type": "S2d"}}

>  <type>  (13) 
unop_9

>  <geom_source>  (13) 
Heuristics

$$$$

     RDKit          3D

 12 10  0  0  0  0  0  0  0  0999 V2000
   -0.0782   -1.5033   -0.3308 C   0  0  0  0  0  0  0  0  0  0  0  0
   -0.0782   -1.5033   -2.1414 S   0  0  0  0  0  0  0  0  0  0  0  0
   -0.0782   -0.2875    0.1450 H   0  0  0  0  0  0  0  0  0  0  0  0
   -0.9989   -1.9975   -0.0248 H   0  0  0  0  0  0  0  0  0  0  0  0
    0.7662   -2.0633    0.0657 H   0  0  0  0  0  0  0  0  0  0  0  0
    1.0921   -0.8752   -2.3078 H   0  0  0  0  0  0  0  0  0  0  0  0
   -1.2500    1.7559    0.2182 C   0  0  0  0  0  0  0  0  0  0  0  0
   -0.0782    0.9324    0.6224 C   0  0  0  0  0  3  0  0  0  0  0  0
    0.7280    1.0386    2.0081 S   0  0  0  0  0  0  0  0  0  0  0  0
   -1.5236    2.4735    0.9887 H   0  0  0  0  0  0  0  0  0  0  0  0
   -2.1011    1.1023    0.0037 H   0  0  0  0  0  0  0  0  0  0  0  0
   -1.0237    2.2834   -0.7136 H   0  0  0  0  0  0  0  0  0  0  0  0
  1  2  1  0
  1  3  1  0
  1  4  1  0
  1  5  1  0
  2  6  1  0
  7  8  1  0
  7 10  1  0
  7 11  1  0
  7 12  1  0
  8  9  2  0
M  RAD  1   8   2
M  END
>  <reaction>  (14) 
rxn_1859

>  <mol_properties>  (14) 
{"0": {"label": "*3", "atom_type": "Cs"}, "1": {"label": "*4", "atom_type": "S2s"}, "2": {"label": "*2", "atom_type": "H0"}, "7": {"label": "*1", "atom_type": "CS"}, "8": {"label": "*0", "atom_type": "S2d"}}

>  <type>  (14) 
unop_10

>  <geom_source>  (14) 
Heuristics

$$$$

     RDKit          3D

 12 10  0  0  0  0  0  0  0  0999 V2000
    0.2604   -1.6310   -0.0107 C   0  0  0  0  0  0  0  0  0  0  0  0
    0.2604   -1.6310   -1.8214 S   0  0  0  0  0  0  0  0  0  0  0  0
    0.2604   -0.4152    0.4651 H   0  0  0  0  0  0  0  0  0  0  0  0
   -0.6603   -2.1251    0.2952 H   0  0  0  0  0  0  0  0  0  0  0  0
    1.1048   -2.1910    0.3858 H   0  0  0  0  0  0  0  0  0  0  0  0
    1.4307   -1.0029   -1.9878 H   0  0  0  0  0  0  0  0  0  0  0  0
    0.9369    0.9547    2.2594 C   0  0  0  0  0  0  0  0  0  0  0  0
    0.2604    0.8048    0.9424 C   0  0  0  0  0  3  0  0  0  0  0  0
   -0.9813    1.6714    0.4054 S   0  0  0  0  0  0  0  0  0  0  0  0
    0.4887    1.7471    2.8552 H   0  0  0  0  0  0  0  0  0  0  0  0
    1.9994    1.1660    2.1040 H   0  0  0  0  0  0  0  0  0  0  0  0
    0.8875    0.0084    2.8070 H   0  0  0  0  0  0  0  0  0  0  0  0
  1  2  1  0
  1  3  1  0
  1  4  1  0
  1  5  1  0
  2  6  1  0
  7  8  1  0
  7 10  1  0
  7 11  1  0
  7 12  1  0
  8  9  2  0
M  RAD  1   8   2
M  END
>  <reaction>  (15) 
rxn_1859

>  <mol_properties>  (15) 
{"0": {"label": "*3", "atom_type": "Cs"}, "1": {"label": "*4", "atom_type": "S2s"}, "2": {"label": "*2", "atom_type": "H0"}, "7": {"label": "*1", "atom_type": "CS"}, "8": {"label": "*0", "atom_type": "S2d"}}

>  <type>  (15) 
unop_11

>  <geom_source>  (15) 
Heuristics

$$$$

     RDKit          3D

 12 10  0  0  0  0  0  0  0  0999 V2000
   -0.0103   -1.5719   -0.2996 C   0  0  0  0  0  0  0  0  0  0  0  0
   -0.0103   -1.5719   -2.1102 S   0  0  0  0  0  0  0  0  0  0  0  0
   -0.0103   -0.3561    0.1762 H   0  0  0  0  0  0  0  0  0  0  0  0
   -0.9310   -2.0661    0.0064 H   0  0  0  0  0  0  0  0  0  0  0  0
    0.8341   -2.1319    0.0969 H   0  0  0  0  0  0  0  0  0  0  0  0
    1.1600   -0.9438   -2.2766 H   0  0  0  0  0  0  0  0  0  0  0  0
   -0.0103    1.9338   -0.3807 C   0  0  0  0  0  0  0  0  0  0  0  0
   -0.0103    0.8638    0.6536 C   0  0  0  0  0  3  0  0  0  0  0  0
   -0.0103    1.0782    2.2459 S   0  0  0  0  0  0  0  0  0  0  0  0
   -0.0103    2.9261    0.0656 H   0  0  0  0  0  0  0  0  0  0  0  0
   -0.8865    1.8198   -1.0264 H   0  0  0  0  0  0  0  0  0  0  0  0
    0.8658    1.8197   -1.0265 H   0  0  0  0  0  0  0  0  0  0  0  0
  1  2  1  0
  1  3  1  0
  1  4  1  0
  1  5  1  0
  2  6  1  0
  7  8  1  0
  7 10  1  0
  7 11  1  0
  7 12  1  0
  8  9  2  0
M  RAD  1   8   2
M  END
>  <reaction>  (16) 
rxn_1859

>  <mol_properties>  (16) 
{"0": {"label": "*3", "atom_type": "Cs"}, "1": {"label": "*4", "atom_type": "S2s"}, "2": {"label": "*2", "atom_type": "H0"}, "7": {"label": "*1", "atom_type": "CS"}, "8": {"label": "*0", "atom_type": "S2d"}}

>  <type>  (16) 
unop_12

>  <geom_source>  (16) 
Heuristics

$$$$

     RDKit          3D

 12 10  0  0  0  0  0  0  0  0999 V2000
    2.3410    0.4175   -1.1538 S   0  0  0  0  0  0  0  0  0  0  0  0
   -1.3584   -0.7966    1.8130 S   0  0  0  0  0  0  0  0  0  0  0  0
   -1.9079    0.3281   -0.4072 C   0  0  0  0  0  0  0  0  0  0  0  0
   -0.9204   -0.1323    0.6177 C   0  0  0  0  0  0  0  0  0  0  0  0
    1.6130   -0.5011    0.2310 C   0  0  0  0  0  3  0  0  0  0  0  0
   -1.3660    0.8128   -1.2456 H   0  0  0  0  0  0  0  0  0  0  0  0
   -2.4809   -0.5362   -0.8061 H   0  0  0  0  0  0  0  0  0  0  0  0
   -2.6092    1.0662    0.0374 H   0  0  0  0  0  0  0  0  0  0  0  0
    0.3837    0.0762    0.4199 H   0  0  0  0  0  0  0  0  0  0  0  0
    1.1322   -1.4250   -0.1509 H   0  0  0  0  0  0  0  0  0  0  0  0
    2.4078   -0.7723    0.9564 H   0  0  0  0  0  0  0  0  0  0  0  0
    2.7651    1.4627   -0.3119 H   0  0  0  0  0  0  0  0  0  0  0  0
  1  5  1  0
  1 12  1  0
  2  4  2  0
  3  4  1  0
  3  6  1  0
  3  7  1  0
  3  8  1  0
  4  9  1  0
  5 10  1  0
  5 11  1  0
M  RAD  1   5   2
M  END
>  <reaction>  (17) 
rxn_1859

>  <mol_properties>  (17) 
{"0": {"label": "*3", "atom_type": "Cs"}, "1": {"label": "*4", "atom_type": "S2s"}, "2": {"label": "*2", "atom_type": "H0"}, "7": {"label": "*1", "atom_type": "CS"}, "8": {"label": "*0", "atom_type": "S2d"}}

>  <type>  (17) 
unop_13

>  <geom_source>  (17) 
AutoTST

$$$$
