
     RDKit          3D

  6  5  0  0  0  0  0  0  0  0999 V2000
   -0.5072   -0.0291   -0.0097 C   0  0  0  0  0  0  0  0  0  0  0  0
    1.1321   -0.1527   -0.7687 S   0  0  0  0  0  0  0  0  0  0  0  0
   -0.6174   -0.7330    0.8127 H   0  0  0  0  0  0  0  0  0  0  0  0
   -0.5863    0.9827    0.3845 H   0  0  0  0  0  0  0  0  0  0  0  0
   -1.2962   -0.1800   -0.7434 H   0  0  0  0  0  0  0  0  0  0  0  0
    1.0312   -1.4237   -1.1764 H   0  0  0  0  0  0  0  0  0  0  0  0
  1  2  1  0
  1  3  1  0
  1  4  1  0
  1  5  1  0
  2  6  1  0
M  END
>  <reaction>  (1) 
rxn_1801

>  <mol_properties>  (1) 
{"0": {"label": "donator", "atom_type": "Cs"}, "2": {"label": "d_hydrogen", "atom_type": "H0"}}

>  <type>  (1) 
r1h

$$$$

     RDKit          3D

  7  6  0  0  0  0  0  0  0  0999 V2000
   -0.6201    0.0189   -0.0017 C   0  0  0  0  0  0  0  0  0  0  0  0
    0.8589   -0.0553    0.0500 C   0  0  0  0  0  3  0  0  0  0  0  0
   -1.0738   -0.9730   -0.0559 H   0  0  0  0  0  0  0  0  0  0  0  0
   -0.9680    0.5706   -0.8872 H   0  0  0  0  0  0  0  0  0  0  0  0
   -1.0303    0.5369    0.8678 H   0  0  0  0  0  0  0  0  0  0  0  0
    1.3939   -0.8386   -0.4695 H   0  0  0  0  0  0  0  0  0  0  0  0
    1.4394    0.7404    0.4965 H   0  0  0  0  0  0  0  0  0  0  0  0
  1  2  1  0
  1  3  1  0
  1  4  1  0
  1  5  1  0
  2  6  1  0
  2  7  1  0
M  RAD  1   2   2
M  END
>  <reaction>  (2) 
rxn_1801

>  <mol_properties>  (2) 
{"1": {"label": "acceptor", "atom_type": "Cs"}}

>  <type>  (2) 
r2

$$$$

     RDKit          3D

  8  7  0  0  0  0  0  0  0  0999 V2000
    0.7610    0.0250    0.0051 C   0  0  0  0  0  0  0  0  0  0  0  0
   -0.7610   -0.0250   -0.0051 C   0  0  0  0  0  0  0  0  0  0  0  0
    1.1904   -0.9237   -0.3217 H   0  0  0  0  0  0  0  0  0  0  0  0
    1.1359    0.8041   -0.6609 H   0  0  0  0  0  0  0  0  0  0  0  0
    1.1435    0.2336    1.0058 H   0  0  0  0  0  0  0  0  0  0  0  0
   -1.1359   -0.8041    0.6609 H   0  0  0  0  0  0  0  0  0  0  0  0
   -1.1435   -0.2336   -1.0058 H   0  0  0  0  0  0  0  0  0  0  0  0
   -1.1904    0.9237    0.3217 H   0  0  0  0  0  0  0  0  0  0  0  0
  1  2  1  0
  1  3  1  0
  1  4  1  0
  1  5  1  0
  2  6  1  0
  2  7  1  0
  2  8  1  0
M  END
>  <reaction>  (3) 
rxn_1801

>  <mol_properties>  (3) 
{"0": {"label": "a_hydrogen", "atom_type": "H0"}, "2": {"label": "acceptor", "atom_type": "Cs"}}

>  <type>  (3) 
r2h

$$$$

     RDKit          3D

 13 11  0  0  0  0  0  0  0  0999 V2000
    0.1157   -1.1272    0.6088 C   0  0  0  0  0  0  0  0  0  0  0  0
   -0.4628   -1.1488   -1.0696 S   0  0  0  0  0  0  0  0  0  0  0  0
   -0.0379    0.0758    1.1389 H   0  0  0  0  0  0  0  0  0  0  0  0
   -0.5154   -1.7757    1.2119 H   0  0  0  0  0  0  0  0  0  0  0  0
    1.1691   -1.3728    0.7200 H   0  0  0  0  0  0  0  0  0  0  0  0
    0.5033   -0.3837   -1.5936 H   0  0  0  0  0  0  0  0  0  0  0  0
    0.1977    2.2538    0.4722 C   0  0  0  0  0  0  0  0  0  0  0  0
   -0.1877    1.3505    1.6105 C   0  0  0  0  0  3  0  0  0  0  0  0
    0.0881    3.3099    0.7399 H   0  0  0  0  0  0  0  0  0  0  0  0
   -0.4303    2.0716   -0.4022 H   0  0  0  0  0  0  0  0  0  0  0  0
    1.2387    2.1011    0.1785 H   0  0  0  0  0  0  0  0  0  0  0  0
   -1.2386    1.3835    1.8914 H   0  0  0  0  0  0  0  0  0  0  0  0
    0.4681    1.3866    2.4784 H   0  0  0  0  0  0  0  0  0  0  0  0
  1  2  1  0
  1  3  1  0
  1  4  1  0
  1  5  1  0
  2  6  1  0
  7  8  1  0
  7  9  1  0
  7 10  1  0
  7 11  1  0
  8 12  1  0
  8 13  1  0
M  RAD  1   8   2
M  END
>  <reaction>  (4) 
rxn_1801

>  <mol_properties>  (4) 
{"0": {"label": "*1", "atom_type": "Cs"}, "1": {"label": "*0", "atom_type": "S2s"}, "2": {"label": "*2", "atom_type": "H0"}, "6": {"label": "*4", "atom_type": "Cs"}, "7": {"label": "*3", "atom_type": "Cs"}}

>  <type>  (4) 
ts

$$$$

     RDKit          3D

 13 11  0  0  0  0  0  0  0  0999 V2000
    0.2221   -0.9859    0.2230 C   0  0  0  0  0  0  0  0  0  0  0  0
    0.2221   -0.9859   -1.5877 S   0  0  0  0  0  0  0  0  0  0  0  0
    0.2221    0.2299    0.6988 H   0  0  0  0  0  0  0  0  0  0  0  0
   -0.6986   -1.4801    0.5289 H   0  0  0  0  0  0  0  0  0  0  0  0
    1.0664   -1.5459    0.6195 H   0  0  0  0  0  0  0  0  0  0  0  0
    1.3924   -0.3578   -1.7541 H   0  0  0  0  0  0  0  0  0  0  0  0
   -1.0069    1.7053    2.0381 C   0  0  0  0  0  0  0  0  0  0  0  0
    0.2221    1.4496    1.1760 C   0  0  0  0  0  3  0  0  0  0  0  0
   -0.7554    2.2960    2.9207 H   0  0  0  0  0  0  0  0  0  0  0  0
   -1.4507    0.7695    2.3823 H   0  0  0  0  0  0  0  0  0  0  0  0
   -1.7731    2.2499    1.4834 H   0  0  0  0  0  0  0  0  0  0  0  0
    0.9882    0.9050    1.7307 H   0  0  0  0  0  0  0  0  0  0  0  0
    0.6658    2.3854    0.8318 H   0  0  0  0  0  0  0  0  0  0  0  0
  1  2  1  0
  1  3  1  0
  1  4  1  0
  1  5  1  0
  2  6  1  0
  7  8  1  0
  7  9  1  0
  7 10  1  0
  7 11  1  0
  8 12  1  0
  8 13  1  0
M  RAD  1   8   2
M  END
>  <reaction>  (5) 
rxn_1801

>  <mol_properties>  (5) 
{"0": {"label": "*1", "atom_type": "Cs"}, "1": {"label": "*0", "atom_type": "S2s"}, "2": {"label": "*2", "atom_type": "H0"}, "6": {"label": "*4", "atom_type": "Cs"}, "7": {"label": "*3", "atom_type": "Cs"}}

>  <type>  (5) 
unop_1

>  <geom_source>  (5) 
Heuristics

$$$$

     RDKit          3D

 13 11  0  0  0  0  0  0  0  0999 V2000
    0.1277   -1.1280    0.5798 C   0  0  0  0  0  0  0  0  0  0  0  0
    0.1277   -1.1280   -1.2308 S   0  0  0  0  0  0  0  0  0  0  0  0
    0.1277    0.0878    1.0556 H   0  0  0  0  0  0  0  0  0  0  0  0
   -0.7929   -1.6222    0.8858 H   0  0  0  0  0  0  0  0  0  0  0  0
    0.9721   -1.6880    0.9763 H   0  0  0  0  0  0  0  0  0  0  0  0
    1.2980   -0.4999   -1.3972 H   0  0  0  0  0  0  0  0  0  0  0  0
   -0.5818    2.2697    0.5897 C   0  0  0  0  0  0  0  0  0  0  0  0
    0.1277    1.3075    1.5329 C   0  0  0  0  0  3  0  0  0  0  0  0
   -0.8638    3.1909    1.1025 H   0  0  0  0  0  0  0  0  0  0  0  0
   -1.4923    1.8260    0.1830 H   0  0  0  0  0  0  0  0  0  0  0  0
    0.0573    2.5424   -0.2520 H   0  0  0  0  0  0  0  0  0  0  0  0
   -0.5113    1.0348    2.3746 H   0  0  0  0  0  0  0  0  0  0  0  0
    1.0382    1.7511    1.9396 H   0  0  0  0  0  0  0  0  0  0  0  0
  1  2  1  0
  1  3  1  0
  1  4  1  0
  1  5  1  0
  2  6  1  0
  7  8  1  0
  7  9  1  0
  7 10  1  0
  7 11  1  0
  8 12  1  0
  8 13  1  0
M  RAD  1   8   2
M  END
>  <reaction>  (6) 
rxn_1801

>  <mol_properties>  (6) 
{"0": {"label": "*1", "atom_type": "Cs"}, "1": {"label": "*0", "atom_type": "S2s"}, "2": {"label": "*2", "atom_type": "H0"}, "6": {"label": "*4", "atom_type": "Cs"}, "7": {"label": "*3", "atom_type": "Cs"}}

>  <type>  (6) 
unop_2

>  <geom_source>  (6) 
Heuristics

$$$$

     RDKit          3D

 13 11  0  0  0  0  0  0  0  0999 V2000
    0.1188   -0.9518    0.1321 C   0  0  0  0  0  0  0  0  0  0  0  0
    0.1188   -0.9518   -1.6786 S   0  0  0  0  0  0  0  0  0  0  0  0
    0.1188    0.2640    0.6079 H   0  0  0  0  0  0  0  0  0  0  0  0
   -0.8019   -1.4459    0.4380 H   0  0  0  0  0  0  0  0  0  0  0  0
    0.9632   -1.5118    0.5286 H   0  0  0  0  0  0  0  0  0  0  0  0
    1.2891   -0.3237   -1.8450 H   0  0  0  0  0  0  0  0  0  0  0  0
   -0.5908    1.5502    2.4309 C   0  0  0  0  0  0  0  0  0  0  0  0
    0.1188    1.4837    1.0851 C   0  0  0  0  0  3  0  0  0  0  0  0
   -0.1883    2.3528    3.0514 H   0  0  0  0  0  0  0  0  0  0  0  0
   -0.4779    0.6163    2.9845 H   0  0  0  0  0  0  0  0  0  0  0  0
   -1.6595    1.7332    2.3063 H   0  0  0  0  0  0  0  0  0  0  0  0
    1.1875    1.3006    1.2097 H   0  0  0  0  0  0  0  0  0  0  0  0
    0.0059    2.4175    0.5316 H   0  0  0  0  0  0  0  0  0  0  0  0
  1  2  1  0
  1  3  1  0
  1  4  1  0
  1  5  1  0
  2  6  1  0
  7  8  1  0
  7  9  1  0
  7 10  1  0
  7 11  1  0
  8 12  1  0
  8 13  1  0
M  RAD  1   8   2
M  END
>  <reaction>  (7) 
rxn_1801

>  <mol_properties>  (7) 
{"0": {"label": "*1", "atom_type": "Cs"}, "1": {"label": "*0", "atom_type": "S2s"}, "2": {"label": "*2", "atom_type": "H0"}, "6": {"label": "*4", "atom_type": "Cs"}, "7": {"label": "*3", "atom_type": "Cs"}}

>  <type>  (7) 
unop_3

>  <geom_source>  (7) 
Heuristics

$$$$

     RDKit          3D

 13 11  0  0  0  0  0  0  0  0999 V2000
   -0.2581   -1.0885    0.4824 C   0  0  0  0  0  0  0  0  0  0  0  0
   -0.2581   -1.0885   -1.3282 S   0  0  0  0  0  0  0  0  0  0  0  0
   -0.2581    0.1273    0.9582 H   0  0  0  0  0  0  0  0  0  0  0  0
   -1.1788   -1.5827    0.7883 H   0  0  0  0  0  0  0  0  0  0  0  0
    0.5863   -1.6485    0.8789 H   0  0  0  0  0  0  0  0  0  0  0  0
    0.9122   -0.4604   -1.4946 H   0  0  0  0  0  0  0  0  0  0  0  0
    0.9709    2.1198    0.9760 C   0  0  0  0  0  0  0  0  0  0  0  0
   -0.2581    1.3469    1.4354 C   0  0  0  0  0  3  0  0  0  0  0  0
    1.2858    2.8458    1.7276 H   0  0  0  0  0  0  0  0  0  0  0  0
    0.7725    2.6659    0.0520 H   0  0  0  0  0  0  0  0  0  0  0  0
    1.8127    1.4506    0.7899 H   0  0  0  0  0  0  0  0  0  0  0  0
   -1.0999    2.0162    1.6215 H   0  0  0  0  0  0  0  0  0  0  0  0
   -0.0597    0.8009    2.3594 H   0  0  0  0  0  0  0  0  0  0  0  0
  1  2  1  0
  1  3  1  0
  1  4  1  0
  1  5  1  0
  2  6  1  0
  7  8  1  0
  7  9  1  0
  7 10  1  0
  7 11  1  0
  8 12  1  0
  8 13  1  0
M  RAD  1   8   2
M  END
>  <reaction>  (8) 
rxn_1801

>  <mol_properties>  (8) 
{"0": {"label": "*1", "atom_type": "Cs"}, "1": {"label": "*0", "atom_type": "S2s"}, "2": {"label": "*2", "atom_type": "H0"}, "6": {"label": "*4", "atom_type": "Cs"}, "7": {"label": "*3", "atom_type": "Cs"}}

>  <type>  (8) 
unop_4

>  <geom_source>  (8) 
Heuristics

$$$$

     RDKit          3D

 13 11  0  0  0  0  0  0  0  0999 V2000
   -0.0143   -0.9411    0.1005 C   0  0  0  0  0  0  0  0  0  0  0  0
   -0.0143   -0.9411   -1.7102 S   0  0  0  0  0  0  0  0  0  0  0  0
   -0.0143    0.2748    0.5763 H   0  0  0  0  0  0  0  0  0  0  0  0
   -0.9350   -1.4352    0.4064 H   0  0  0  0  0  0  0  0  0  0  0  0
    0.8301   -1.5011    0.4970 H   0  0  0  0  0  0  0  0  0  0  0  0
    1.1560   -0.3129   -1.8766 H   0  0  0  0  0  0  0  0  0  0  0  0
   -0.0143    1.4916    2.5763 C   0  0  0  0  0  0  0  0  0  0  0  0
   -0.0143    1.4944    1.0535 C   0  0  0  0  0  3  0  0  0  0  0  0
   -0.0143    2.5080    2.9740 H   0  0  0  0  0  0  0  0  0  0  0  0
    0.8665    0.9823    2.9712 H   0  0  0  0  0  0  0  0  0  0  0  0
   -0.8952    0.9823    2.9712 H   0  0  0  0  0  0  0  0  0  0  0  0
    0.8665    2.0037    0.6586 H   0  0  0  0  0  0  0  0  0  0  0  0
   -0.8952    2.0037    0.6586 H   0  0  0  0  0  0  0  0  0  0  0  0
  1  2  1  0
  1  3  1  0
  1  4  1  0
  1  5  1  0
  2  6  1  0
  7  8  1  0
  7  9  1  0
  7 10  1  0
  7 11  1  0
  8 12  1  0
  8 13  1  0
M  RAD  1   8   2
M  END
>  <reaction>  (9) 
rxn_1801

>  <mol_properties>  (9) 
{"0": {"label": "*1", "atom_type": "Cs"}, "1": {"label": "*0", "atom_type": "S2s"}, "2": {"label": "*2", "atom_type": "H0"}, "6": {"label": "*4", "atom_type": "Cs"}, "7": {"label": "*3", "atom_type": "Cs"}}

>  <type>  (9) 
unop_5

>  <geom_source>  (9) 
Heuristics

$$$$

     RDKit          3D

 13 11  0  0  0  0  0  0  0  0999 V2000
   -0.2921   -1.0362    0.3513 C   0  0  0  0  0  0  0  0  0  0  0  0
   -0.2921   -1.0362   -1.4593 S   0  0  0  0  0  0  0  0  0  0  0  0
   -0.2921    0.1796    0.8271 H   0  0  0  0  0  0  0  0  0  0  0  0
   -1.2128   -1.5304    0.6573 H   0  0  0  0  0  0  0  0  0  0  0  0
    0.5522   -1.5962    0.7478 H   0  0  0  0  0  0  0  0  0  0  0  0
    0.8782   -0.4081   -1.6257 H   0  0  0  0  0  0  0  0  0  0  0  0
    1.1270    1.9136    1.5057 C   0  0  0  0  0  0  0  0  0  0  0  0
   -0.2921    1.3993    1.3044 C   0  0  0  0  0  3  0  0  0  0  0  0
    1.2105    2.4952    2.4255 H   0  0  0  0  0  0  0  0  0  0  0  0
    1.4361    2.5561    0.6793 H   0  0  0  0  0  0  0  0  0  0  0  0
    1.8410    1.0906    1.5692 H   0  0  0  0  0  0  0  0  0  0  0  0
   -1.0062    2.2223    1.2409 H   0  0  0  0  0  0  0  0  0  0  0  0
   -0.6012    0.7567    2.1307 H   0  0  0  0  0  0  0  0  0  0  0  0
  1  2  1  0
  1  3  1  0
  1  4  1  0
  1  5  1  0
  2  6  1  0
  7  8  1  0
  7  9  1  0
  7 10  1  0
  7 11  1  0
  8 12  1  0
  8 13  1  0
M  RAD  1   8   2
M  END
>  <reaction>  (10) 
rxn_1801

>  <mol_properties>  (10) 
{"0": {"label": "*1", "atom_type": "Cs"}, "1": {"label": "*0", "atom_type": "S2s"}, "2": {"label": "*2", "atom_type": "H0"}, "6": {"label": "*4", "atom_type": "Cs"}, "7": {"label": "*3", "atom_type": "Cs"}}

>  <type>  (10) 
unop_6

>  <geom_source>  (10) 
Heuristics

$$$$

     RDKit          3D

 13 11  0  0  0  0  0  0  0  0999 V2000
   -0.2507   -0.9859    0.2230 C   0  0  0  0  0  0  0  0  0  0  0  0
   -0.2507   -0.9859   -1.5877 S   0  0  0  0  0  0  0  0  0  0  0  0
   -0.2507    0.2299    0.6988 H   0  0  0  0  0  0  0  0  0  0  0  0
   -1.1714   -1.4801    0.5289 H   0  0  0  0  0  0  0  0  0  0  0  0
    0.5937   -1.5459    0.6195 H   0  0  0  0  0  0  0  0  0  0  0  0
    0.9196   -0.3578   -1.7541 H   0  0  0  0  0  0  0  0  0  0  0  0
    0.9783    1.7053    2.0381 C   0  0  0  0  0  0  0  0  0  0  0  0
   -0.2507    1.4496    1.1760 C   0  0  0  0  0  3  0  0  0  0  0  0
    0.7268    2.2960    2.9207 H   0  0  0  0  0  0  0  0  0  0  0  0
    1.7445    2.2499    1.4834 H   0  0  0  0  0  0  0  0  0  0  0  0
    1.4221    0.7695    2.3823 H   0  0  0  0  0  0  0  0  0  0  0  0
   -0.6944    2.3854    0.8318 H   0  0  0  0  0  0  0  0  0  0  0  0
   -1.0169    0.9050    1.7307 H   0  0  0  0  0  0  0  0  0  0  0  0
  1  2  1  0
  1  3  1  0
  1  4  1  0
  1  5  1  0
  2  6  1  0
  7  8  1  0
  7  9  1  0
  7 10  1  0
  7 11  1  0
  8 12  1  0
  8 13  1  0
M  RAD  1   8   2
M  END
>  <reaction>  (11) 
rxn_1801

>  <mol_properties>  (11) 
{"0": {"label": "*1", "atom_type": "Cs"}, "1": {"label": "*0", "atom_type": "S2s"}, "2": {"label": "*2", "atom_type": "H0"}, "6": {"label": "*4", "atom_type": "Cs"}, "7": {"label": "*3", "atom_type": "Cs"}}

>  <type>  (11) 
unop_7

>  <geom_source>  (11) 
Heuristics

$$$$

     RDKit          3D

 13 11  0  0  0  0  0  0  0  0999 V2000
    0.2635   -1.0362    0.3513 C   0  0  0  0  0  0  0  0  0  0  0  0
    0.2635   -1.0362   -1.4593 S   0  0  0  0  0  0  0  0  0  0  0  0
    0.2635    0.1796    0.8271 H   0  0  0  0  0  0  0  0  0  0  0  0
   -0.6572   -1.5304    0.6573 H   0  0  0  0  0  0  0  0  0  0  0  0
    1.1079   -1.5962    0.7478 H   0  0  0  0  0  0  0  0  0  0  0  0
    1.4338   -0.4081   -1.6257 H   0  0  0  0  0  0  0  0  0  0  0  0
   -1.1556    1.9136    1.5057 C   0  0  0  0  0  0  0  0  0  0  0  0
    0.2635    1.3993    1.3044 C   0  0  0  0  0  3  0  0  0  0  0  0
   -1.2391    2.4952    2.4255 H   0  0  0  0  0  0  0  0  0  0  0  0
   -1.8696    1.0906    1.5692 H   0  0  0  0  0  0  0  0  0  0  0  0
   -1.4647    2.5561    0.6793 H   0  0  0  0  0  0  0  0  0  0  0  0
    0.5726    0.7567    2.1307 H   0  0  0  0  0  0  0  0  0  0  0  0
    0.9776    2.2223    1.2409 H   0  0  0  0  0  0  0  0  0  0  0  0
  1  2  1  0
  1  3  1  0
  1  4  1  0
  1  5  1  0
  2  6  1  0
  7  8  1  0
  7  9  1  0
  7 10  1  0
  7 11  1  0
  8 12  1  0
  8 13  1  0
M  RAD  1   8   2
M  END
>  <reaction>  (12) 
rxn_1801

>  <mol_properties>  (12) 
{"0": {"label": "*1", "atom_type": "Cs"}, "1": {"label": "*0", "atom_type": "S2s"}, "2": {"label": "*2", "atom_type": "H0"}, "6": {"label": "*4", "atom_type": "Cs"}, "7": {"label": "*3", "atom_type": "Cs"}}

>  <type>  (12) 
unop_8

>  <geom_source>  (12) 
Heuristics

$$$$

     RDKit          3D

 13 11  0  0  0  0  0  0  0  0999 V2000
   -0.1564   -1.1280    0.5798 C   0  0  0  0  0  0  0  0  0  0  0  0
   -0.1564   -1.1280   -1.2308 S   0  0  0  0  0  0  0  0  0  0  0  0
   -0.1564    0.0878    1.0556 H   0  0  0  0  0  0  0  0  0  0  0  0
   -1.0770   -1.6222    0.8858 H   0  0  0  0  0  0  0  0  0  0  0  0
    0.6880   -1.6880    0.9763 H   0  0  0  0  0  0  0  0  0  0  0  0
    1.0139   -0.4999   -1.3972 H   0  0  0  0  0  0  0  0  0  0  0  0
    0.5532    2.2697    0.5897 C   0  0  0  0  0  0  0  0  0  0  0  0
   -0.1564    1.3075    1.5329 C   0  0  0  0  0  3  0  0  0  0  0  0
    0.8351    3.1909    1.1025 H   0  0  0  0  0  0  0  0  0  0  0  0
   -0.0859    2.5424   -0.2520 H   0  0  0  0  0  0  0  0  0  0  0  0
    1.4637    1.8260    0.1830 H   0  0  0  0  0  0  0  0  0  0  0  0
   -1.0669    1.7511    1.9396 H   0  0  0  0  0  0  0  0  0  0  0  0
    0.4827    1.0348    2.3746 H   0  0  0  0  0  0  0  0  0  0  0  0
  1  2  1  0
  1  3  1  0
  1  4  1  0
  1  5  1  0
  2  6  1  0
  7  8  1  0
  7  9  1  0
  7 10  1  0
  7 11  1  0
  8 12  1  0
  8 13  1  0
M  RAD  1   8   2
M  END
>  <reaction>  (13) 
rxn_1801

>  <mol_properties>  (13) 
{"0": {"label": "*1", "atom_type": "Cs"}, "1": {"label": "*0", "atom_type": "S2s"}, "2": {"label": "*2", "atom_type": "H0"}, "6": {"label": "*4", "atom_type": "Cs"}, "7": {"label": "*3", "atom_type": "Cs"}}

>  <type>  (13) 
unop_9

>  <geom_source>  (13) 
Heuristics

$$$$

     RDKit          3D

 13 11  0  0  0  0  0  0  0  0999 V2000
    0.2295   -1.0885    0.4824 C   0  0  0  0  0  0  0  0  0  0  0  0
    0.2295   -1.0885   -1.3282 S   0  0  0  0  0  0  0  0  0  0  0  0
    0.2295    0.1273    0.9582 H   0  0  0  0  0  0  0  0  0  0  0  0
   -0.6912   -1.5827    0.7883 H   0  0  0  0  0  0  0  0  0  0  0  0
    1.0738   -1.6485    0.8789 H   0  0  0  0  0  0  0  0  0  0  0  0
    1.3998   -0.4604   -1.4946 H   0  0  0  0  0  0  0  0  0  0  0  0
   -0.9995    2.1198    0.9760 C   0  0  0  0  0  0  0  0  0  0  0  0
    0.2295    1.3469    1.4354 C   0  0  0  0  0  3  0  0  0  0  0  0
   -1.3145    2.8458    1.7276 H   0  0  0  0  0  0  0  0  0  0  0  0
   -1.8414    1.4506    0.7899 H   0  0  0  0  0  0  0  0  0  0  0  0
   -0.8011    2.6659    0.0520 H   0  0  0  0  0  0  0  0  0  0  0  0
    0.0311    0.8009    2.3594 H   0  0  0  0  0  0  0  0  0  0  0  0
    1.0713    2.0162    1.6215 H   0  0  0  0  0  0  0  0  0  0  0  0
  1  2  1  0
  1  3  1  0
  1  4  1  0
  1  5  1  0
  2  6  1  0
  7  8  1  0
  7  9  1  0
  7 10  1  0
  7 11  1  0
  8 12  1  0
  8 13  1  0
M  RAD  1   8   2
M  END
>  <reaction>  (14) 
rxn_1801

>  <mol_properties>  (14) 
{"0": {"label": "*1", "atom_type": "Cs"}, "1": {"label": "*0", "atom_type": "S2s"}, "2": {"label": "*2", "atom_type": "H0"}, "6": {"label": "*4", "atom_type": "Cs"}, "7": {"label": "*3", "atom_type": "Cs"}}

>  <type>  (14) 
unop_10

>  <geom_source>  (14) 
Heuristics

$$$$

     RDKit          3D

 13 11  0  0  0  0  0  0  0  0999 V2000
   -0.1474   -0.9518    0.1321 C   0  0  0  0  0  0  0  0  0  0  0  0
   -0.1474   -0.9518   -1.6786 S   0  0  0  0  0  0  0  0  0  0  0  0
   -0.1474    0.2640    0.6079 H   0  0  0  0  0  0  0  0  0  0  0  0
   -1.0681   -1.4459    0.4380 H   0  0  0  0  0  0  0  0  0  0  0  0
    0.6970   -1.5118    0.5286 H   0  0  0  0  0  0  0  0  0  0  0  0
    1.0229   -0.3237   -1.8450 H   0  0  0  0  0  0  0  0  0  0  0  0
    0.5621    1.5502    2.4309 C   0  0  0  0  0  0  0  0  0  0  0  0
   -0.1474    1.4837    1.0851 C   0  0  0  0  0  3  0  0  0  0  0  0
    0.1596    2.3528    3.0514 H   0  0  0  0  0  0  0  0  0  0  0  0
    1.6309    1.7332    2.3063 H   0  0  0  0  0  0  0  0  0  0  0  0
    0.4493    0.6163    2.9845 H   0  0  0  0  0  0  0  0  0  0  0  0
   -0.0345    2.4175    0.5316 H   0  0  0  0  0  0  0  0  0  0  0  0
   -1.2161    1.3006    1.2097 H   0  0  0  0  0  0  0  0  0  0  0  0
  1  2  1  0
  1  3  1  0
  1  4  1  0
  1  5  1  0
  2  6  1  0
  7  8  1  0
  7  9  1  0
  7 10  1  0
  7 11  1  0
  8 12  1  0
  8 13  1  0
M  RAD  1   8   2
M  END
>  <reaction>  (15) 
rxn_1801

>  <mol_properties>  (15) 
{"0": {"label": "*1", "atom_type": "Cs"}, "1": {"label": "*0", "atom_type": "S2s"}, "2": {"label": "*2", "atom_type": "H0"}, "6": {"label": "*4", "atom_type": "Cs"}, "7": {"label": "*3", "atom_type": "Cs"}}

>  <type>  (15) 
unop_11

>  <geom_source>  (15) 
Heuristics

$$$$

     RDKit          3D

 13 11  0  0  0  0  0  0  0  0999 V2000
   -0.0143   -1.1428    0.6159 C   0  0  0  0  0  0  0  0  0  0  0  0
   -0.0143   -1.1428   -1.1948 S   0  0  0  0  0  0  0  0  0  0  0  0
   -0.0143    0.0731    1.0916 H   0  0  0  0  0  0  0  0  0  0  0  0
   -0.9350   -1.6369    0.9218 H   0  0  0  0  0  0  0  0  0  0  0  0
    0.8301   -1.7028    1.0124 H   0  0  0  0  0  0  0  0  0  0  0  0
    1.1560   -0.5146   -1.3612 H   0  0  0  0  0  0  0  0  0  0  0  0
   -0.0143    2.3242    0.4487 C   0  0  0  0  0  0  0  0  0  0  0  0
   -0.0143    1.2927    1.5689 C   0  0  0  0  0  3  0  0  0  0  0  0
   -0.0143    3.3406    0.8464 H   0  0  0  0  0  0  0  0  0  0  0  0
   -0.8952    2.2182   -0.1870 H   0  0  0  0  0  0  0  0  0  0  0  0
    0.8665    2.2182   -0.1870 H   0  0  0  0  0  0  0  0  0  0  0  0
   -0.8952    1.3987    2.2046 H   0  0  0  0  0  0  0  0  0  0  0  0
    0.8665    1.3987    2.2046 H   0  0  0  0  0  0  0  0  0  0  0  0
  1  2  1  0
  1  3  1  0
  1  4  1  0
  1  5  1  0
  2  6  1  0
  7  8  1  0
  7  9  1  0
  7 10  1  0
  7 11  1  0
  8 12  1  0
  8 13  1  0
M  RAD  1   8   2
M  END
>  <reaction>  (16) 
rxn_1801

>  <mol_properties>  (16) 
{"0": {"label": "*1", "atom_type": "Cs"}, "1": {"label": "*0", "atom_type": "S2s"}, "2": {"label": "*2", "atom_type": "H0"}, "6": {"label": "*4", "atom_type": "Cs"}, "7": {"label": "*3", "atom_type": "Cs"}}

>  <type>  (16) 
unop_12

>  <geom_source>  (16) 
Heuristics

$$$$

     RDKit          3D

 13 11  0  0  0  0  0  0  0  0999 V2000
    1.7234    1.0919    1.0939 S   0  0  0  0  0  0  0  0  0  0  0  0
   -0.9307   -0.6990   -0.3026 C   0  0  0  0  0  0  0  0  0  0  0  0
   -1.2063    0.7815   -0.4955 C   0  0  0  0  0  0  0  0  0  0  0  0
    1.4710   -0.6600    0.6958 C   0  0  0  0  0  3  0  0  0  0  0  0
   -1.7978   -1.1822    0.1951 H   0  0  0  0  0  0  0  0  0  0  0  0
   -0.7597   -1.1822   -1.2876 H   0  0  0  0  0  0  0  0  0  0  0  0
    0.1320   -0.8534    0.4414 H   0  0  0  0  0  0  0  0  0  0  0  0
   -1.3745    1.2625    0.4908 H   0  0  0  0  0  0  0  0  0  0  0  0
   -0.3371    1.2625   -0.9910 H   0  0  0  0  0  0  0  0  0  0  0  0
   -2.1090    0.9182   -1.1275 H   0  0  0  0  0  0  0  0  0  0  0  0
    2.1716   -0.9633   -0.1094 H   0  0  0  0  0  0  0  0  0  0  0  0
    1.6601   -1.2749    1.5996 H   0  0  0  0  0  0  0  0  0  0  0  0
    1.3572    1.4982   -0.2030 H   0  0  0  0  0  0  0  0  0  0  0  0
  1  4  1  0
  1 13  1  0
  2  3  1  0
  2  5  1  0
  2  6  1  0
  2  7  1  0
  3  8  1  0
  3  9  1  0
  3 10  1  0
  4 11  1  0
  4 12  1  0
M  RAD  1   4   2
M  END
>  <reaction>  (17) 
rxn_1801

>  <mol_properties>  (17) 
{"0": {"label": "*1", "atom_type": "Cs"}, "1": {"label": "*0", "atom_type": "S2s"}, "2": {"label": "*2", "atom_type": "H0"}, "6": {"label": "*4", "atom_type": "Cs"}, "7": {"label": "*3", "atom_type": "Cs"}}

>  <type>  (17) 
unop_13

>  <geom_source>  (17) 
AutoTST

$$$$
