
     RDKit          3D

  9  8  0  0  0  0  0  0  0  0999 V2000
   -0.8818   -0.3578    0.1297 C   0  0  0  0  0  0  0  0  0  0  0  0
    0.6153   -0.3021   -0.1188 C   0  0  0  0  0  0  0  0  0  0  0  0
    1.5354   -1.7170    0.5545 S   0  0  0  0  0  0  0  0  0  0  0  0
   -1.1018   -0.3317    1.1984 H   0  0  0  0  0  0  0  0  0  0  0  0
   -1.3114   -1.2723   -0.2799 H   0  0  0  0  0  0  0  0  0  0  0  0
   -1.3767    0.4976   -0.3363 H   0  0  0  0  0  0  0  0  0  0  0  0
    1.0467    0.6194    0.2718 H   0  0  0  0  0  0  0  0  0  0  0  0
    0.8295   -0.3275   -1.1882 H   0  0  0  0  0  0  0  0  0  0  0  0
    1.2306   -1.5077    1.8423 H   0  0  0  0  0  0  0  0  0  0  0  0
  1  2  1  0
  1  4  1  0
  1  5  1  0
  1  6  1  0
  2  3  1  0
  2  7  1  0
  2  8  1  0
  3  9  1  0
M  END
>  <reaction>  (1) 
rxn_1890

>  <mol_properties>  (1) 
{"1": {"label": "donator", "atom_type": "Cs"}, "6": {"label": "d_hydrogen", "atom_type": "H0"}}

>  <type>  (1) 
r1h

$$$$

     RDKit          3D

 12 11  0  0  0  0  0  0  0  0999 V2000
    2.7049    0.9350   -0.4404 S   0  0  0  0  0  1  0  0  0  0  0  0
    1.0313    1.0813   -0.4080 C   0  0  0  0  0  0  0  0  0  0  0  0
    0.1364    0.1019   -0.0473 C   0  0  0  0  0  0  0  0  0  0  0  0
    0.5360   -1.2679    0.3784 C   0  0  0  0  0  0  0  0  0  0  0  0
   -1.3304    0.3842   -0.0689 C   0  0  0  0  0  0  0  0  0  0  0  0
    0.6069    2.0398   -0.6990 H   0  0  0  0  0  0  0  0  0  0  0  0
    0.1578   -1.4699    1.3849 H   0  0  0  0  0  0  0  0  0  0  0  0
    0.0783   -2.0109   -0.2814 H   0  0  0  0  0  0  0  0  0  0  0  0
    1.6154   -1.3973    0.3689 H   0  0  0  0  0  0  0  0  0  0  0  0
   -1.8406   -0.3126   -0.7406 H   0  0  0  0  0  0  0  0  0  0  0  0
   -1.5514    1.4016   -0.3887 H   0  0  0  0  0  0  0  0  0  0  0  0
   -1.7610    0.2281    0.9247 H   0  0  0  0  0  0  0  0  0  0  0  0
  1  2  1  0
  2  3  2  3
  2  6  1  0
  3  4  1  0
  3  5  1  0
  4  7  1  0
  4  8  1  0
  4  9  1  0
  5 10  1  0
  5 11  1  0
  5 12  1  0
M  RAD  1   1   2
M  END
>  <reaction>  (2) 
rxn_1890

>  <mol_properties>  (2) 
{"2": {"label": "acceptor", "atom_type": "Cs"}}

>  <type>  (2) 
r2

$$$$

     RDKit          3D

 13 12  0  0  0  0  0  0  0  0999 V2000
    2.7452   -1.1134   -0.3601 S   0  0  0  0  0  0  0  0  0  0  0  0
    1.4120   -0.4899    0.2856 C   0  0  0  0  0  0  0  0  0  0  0  0
    0.1714   -0.0257   -0.4180 C   0  0  0  0  0  0  0  0  0  0  0  0
   -0.0717    1.4493   -0.0658 C   0  0  0  0  0  0  0  0  0  0  0  0
    0.1609   -0.2576   -1.9191 C   0  0  0  0  0  0  0  0  0  0  0  0
    1.3665   -0.3550    1.3690 H   0  0  0  0  0  0  0  0  0  0  0  0
   -0.6453   -0.6023    0.0382 H   0  0  0  0  0  0  0  0  0  0  0  0
    0.7161    2.0755   -0.4895 H   0  0  0  0  0  0  0  0  0  0  0  0
   -0.0915    1.6095    1.0136 H   0  0  0  0  0  0  0  0  0  0  0  0
   -1.0268    1.7797   -0.4755 H   0  0  0  0  0  0  0  0  0  0  0  0
    0.3131   -1.3093   -2.1616 H   0  0  0  0  0  0  0  0  0  0  0  0
    0.9567    0.3095   -2.4051 H   0  0  0  0  0  0  0  0  0  0  0  0
   -0.7945    0.0619   -2.3384 H   0  0  0  0  0  0  0  0  0  0  0  0
  1  2  2  0
  2  3  1  0
  2  6  1  0
  3  4  1  0
  3  5  1  0
  3  7  1  0
  4  8  1  0
  4  9  1  0
  4 10  1  0
  5 11  1  0
  5 12  1  0
  5 13  1  0
M  END
>  <reaction>  (3) 
rxn_1890

>  <mol_properties>  (3) 
{"0": {"label": "a_hydrogen", "atom_type": "H0"}, "3": {"label": "acceptor", "atom_type": "Cs"}}

>  <type>  (3) 
r2h

$$$$

     RDKit          3D

 21 19  0  0  0  0  0  0  0  0999 V2000
   -1.3790   -0.0497   -2.2056 C   0  0  0  0  0  0  0  0  0  0  0  0
   -1.8527   -0.0246   -0.7837 C   0  0  0  0  0  3  0  0  0  0  0  0
   -2.1219    1.5098    0.0119 S   0  0  0  0  0  0  0  0  0  0  0  0
   -0.4477    0.5116   -2.3152 H   0  0  0  0  0  0  0  0  0  0  0  0
   -2.1178    0.3925   -2.8797 H   0  0  0  0  0  0  0  0  0  0  0  0
   -1.1959   -1.0770   -2.5265 H   0  0  0  0  0  0  0  0  0  0  0  0
   -0.6688   -0.6370   -0.1194 H   0  0  0  0  0  0  0  0  0  0  0  0
   -2.6454   -0.7223   -0.5260 H   0  0  0  0  0  0  0  0  0  0  0  0
   -1.0188    2.1238   -0.4421 H   0  0  0  0  0  0  0  0  0  0  0  0
    2.1078    0.9500   -0.0053 S   0  0  0  0  0  0  0  0  0  0  0  0
    1.3949   -0.4844   -0.3136 C   0  0  0  0  0  0  0  0  0  0  0  0
    0.3352   -1.1307    0.4401 C   0  0  0  0  0  0  0  0  0  0  0  0
    0.1936   -2.6228    0.1922 C   0  0  0  0  0  0  0  0  0  0  0  0
    0.1473   -0.7192    1.8836 C   0  0  0  0  0  0  0  0  0  0  0  0
    1.6824   -1.0137   -1.2247 H   0  0  0  0  0  0  0  0  0  0  0  0
    0.9622   -3.1806    0.7336 H   0  0  0  0  0  0  0  0  0  0  0  0
   -0.7781   -2.9800    0.5382 H   0  0  0  0  0  0  0  0  0  0  0  0
    0.2871   -2.8645   -0.8684 H   0  0  0  0  0  0  0  0  0  0  0  0
   -0.7957   -1.1101    2.2699 H   0  0  0  0  0  0  0  0  0  0  0  0
    0.1467    0.3641    1.9900 H   0  0  0  0  0  0  0  0  0  0  0  0
    0.9597   -1.1162    2.4983 H   0  0  0  0  0  0  0  0  0  0  0  0
  1  2  1  0
  1  4  1  0
  1  5  1  0
  1  6  1  0
  2  3  1  0
  2  8  1  0
  3  9  1  0
  7 12  1  0
 10 11  2  0
 11 12  1  0
 11 15  1  0
 12 13  1  0
 12 14  1  0
 13 16  1  0
 13 17  1  0
 13 18  1  0
 14 19  1  0
 14 20  1  0
 14 21  1  0
M  RAD  1   2   2
M  END
>  <reaction>  (4) 
rxn_1890

>  <mol_properties>  (4) 
{"1": {"label": "*3", "atom_type": "Cs"}, "2": {"label": "*4", "atom_type": "S2s"}, "6": {"label": "*2", "atom_type": "H0"}, "10": {"label": "*0", "atom_type": "CS"}, "11": {"label": "*1", "atom_type": "Cs"}}

>  <type>  (4) 
ts

$$$$

     RDKit          3D

 21 19  0  0  0  0  0  0  0  0999 V2000
   -1.3667    0.2258   -2.6721 C   0  0  0  0  0  0  0  0  0  0  0  0
   -1.3667    0.2258   -1.1534 C   0  0  0  0  0  0  0  0  0  0  0  0
   -1.3667    1.8831   -0.4084 S   0  0  0  0  0  0  0  0  0  0  0  0
   -0.4600    0.6912   -3.0628 H   0  0  0  0  0  0  0  0  0  0  0  0
   -2.2227    0.7770   -3.0622 H   0  0  0  0  0  0  0  0  0  0  0  0
   -1.4098   -0.7976   -3.0524 H   0  0  0  0  0  0  0  0  0  0  0  0
   -0.3548   -0.4536   -0.6793 H   0  0  0  0  0  0  0  0  0  0  0  0
   -2.2743   -0.2413   -0.7683 H   0  0  0  0  0  0  0  0  0  0  0  0
   -0.1919    2.2848   -0.9120 H   0  0  0  0  0  0  0  0  0  0  0  0
    1.2313    0.2547    2.1545 S   0  0  0  0  0  1  0  0  0  0  0  0
    1.4461   -0.1510    0.6142 C   0  0  0  0  0  0  0  0  0  0  0  0
    0.6656   -1.1386   -0.2012 C   0  0  0  0  0  0  0  0  0  0  0  0
    1.6314   -2.2037   -0.7412 C   0  0  0  0  0  0  0  0  0  0  0  0
   -0.5222   -1.7619    0.5115 C   0  0  0  0  0  0  0  0  0  0  0  0
    2.2617    0.3159    0.0568 H   0  0  0  0  0  0  0  0  0  0  0  0
    2.0318   -2.8035    0.0786 H   0  0  0  0  0  0  0  0  0  0  0  0
    1.1080   -2.8706   -1.4272 H   0  0  0  0  0  0  0  0  0  0  0  0
    2.4698   -1.7551   -1.2770 H   0  0  0  0  0  0  0  0  0  0  0  0
   -1.0585   -2.4251   -0.1691 H   0  0  0  0  0  0  0  0  0  0  0  0
   -1.2141   -1.0017    0.8739 H   0  0  0  0  0  0  0  0  0  0  0  0
   -0.1951   -2.3455    1.3737 H   0  0  0  0  0  0  0  0  0  0  0  0
  1  2  1  0
  1  4  1  0
  1  5  1  0
  1  6  1  0
  2  3  1  0
  2  7  1  0
  2  8  1  0
  3  9  1  0
 10 11  1  0
 11 12  2  3
 11 15  1  0
 12 13  1  0
 12 14  1  0
 13 16  1  0
 13 17  1  0
 13 18  1  0
 14 19  1  0
 14 20  1  0
 14 21  1  0
M  RAD  1  10   2
M  END
>  <reaction>  (5) 
rxn_1890

>  <mol_properties>  (5) 
{"1": {"label": "*3", "atom_type": "Cs"}, "2": {"label": "*4", "atom_type": "S2s"}, "6": {"label": "*2", "atom_type": "H0"}, "10": {"label": "*0", "atom_type": "CS"}, "11": {"label": "*1", "atom_type": "Cs"}}

>  <type>  (5) 
unop_1

>  <geom_source>  (5) 
Heuristics

$$$$

     RDKit          3D

 21 19  0  0  0  0  0  0  0  0999 V2000
   -1.8079    0.2614   -1.9501 C   0  0  0  0  0  0  0  0  0  0  0  0
   -1.8079    0.2614   -0.4314 C   0  0  0  0  0  0  0  0  0  0  0  0
   -1.8079    1.9188    0.3136 S   0  0  0  0  0  0  0  0  0  0  0  0
   -0.9013    0.7268   -2.3408 H   0  0  0  0  0  0  0  0  0  0  0  0
   -2.6639    0.8126   -2.3402 H   0  0  0  0  0  0  0  0  0  0  0  0
   -1.8510   -0.7620   -2.3304 H   0  0  0  0  0  0  0  0  0  0  0  0
   -0.7960   -0.4179    0.0427 H   0  0  0  0  0  0  0  0  0  0  0  0
   -2.7155   -0.2056   -0.0463 H   0  0  0  0  0  0  0  0  0  0  0  0
   -0.6331    2.3204   -0.1899 H   0  0  0  0  0  0  0  0  0  0  0  0
    2.6267   -0.0439   -0.4373 S   0  0  0  0  0  1  0  0  0  0  0  0
    1.3051   -0.9558   -0.5087 C   0  0  0  0  0  0  0  0  0  0  0  0
    0.2244   -1.1030    0.5208 C   0  0  0  0  0  0  0  0  0  0  0  0
    0.1126   -2.5848    0.9088 C   0  0  0  0  0  0  0  0  0  0  0  0
    0.3742   -0.2092    1.7399 C   0  0  0  0  0  0  0  0  0  0  0  0
    1.1409   -1.5744   -1.3942 H   0  0  0  0  0  0  0  0  0  0  0  0
    1.0145   -2.9093    1.4318 H   0  0  0  0  0  0  0  0  0  0  0  0
   -0.7390   -2.7347    1.5734 H   0  0  0  0  0  0  0  0  0  0  0  0
   -0.0229   -3.2230    0.0339 H   0  0  0  0  0  0  0  0  0  0  0  0
   -0.4778   -0.3451    2.4080 H   0  0  0  0  0  0  0  0  0  0  0  0
    0.4319    0.8424    1.4591 H   0  0  0  0  0  0  0  0  0  0  0  0
    1.2848   -0.4523    2.2900 H   0  0  0  0  0  0  0  0  0  0  0  0
  1  2  1  0
  1  4  1  0
  1  5  1  0
  1  6  1  0
  2  3  1  0
  2  7  1  0
  2  8  1  0
  3  9  1  0
 10 11  1  0
 11 12  2  3
 11 15  1  0
 12 13  1  0
 12 14  1  0
 13 16  1  0
 13 17  1  0
 13 18  1  0
 14 19  1  0
 14 20  1  0
 14 21  1  0
M  RAD  1  10   2
M  END
>  <reaction>  (6) 
rxn_1890

>  <mol_properties>  (6) 
{"1": {"label": "*3", "atom_type": "Cs"}, "2": {"label": "*4", "atom_type": "S2s"}, "6": {"label": "*2", "atom_type": "H0"}, "10": {"label": "*0", "atom_type": "CS"}, "11": {"label": "*1", "atom_type": "Cs"}}

>  <type>  (6) 
unop_2

>  <geom_source>  (6) 
Heuristics

$$$$

     RDKit          3D

 21 19  0  0  0  0  0  0  0  0999 V2000
   -1.2428    0.4941   -2.7266 C   0  0  0  0  0  0  0  0  0  0  0  0
   -1.2428    0.4941   -1.2079 C   0  0  0  0  0  0  0  0  0  0  0  0
   -1.2428    2.1514   -0.4629 S   0  0  0  0  0  0  0  0  0  0  0  0
   -0.3362    0.9595   -3.1173 H   0  0  0  0  0  0  0  0  0  0  0  0
   -2.0988    1.0453   -3.1167 H   0  0  0  0  0  0  0  0  0  0  0  0
   -1.2859   -0.5293   -3.1069 H   0  0  0  0  0  0  0  0  0  0  0  0
   -0.2309   -0.1853   -0.7338 H   0  0  0  0  0  0  0  0  0  0  0  0
   -2.1504    0.0270   -0.8228 H   0  0  0  0  0  0  0  0  0  0  0  0
   -0.0680    2.5531   -0.9664 H   0  0  0  0  0  0  0  0  0  0  0  0
    0.6710   -0.6733    2.5296 S   0  0  0  0  0  1  0  0  0  0  0  0
    1.1146   -0.2159    1.0541 C   0  0  0  0  0  0  0  0  0  0  0  0
    0.7895   -0.8703   -0.2557 C   0  0  0  0  0  0  0  0  0  0  0  0
    2.1029   -1.2256   -0.9680 C   0  0  0  0  0  0  0  0  0  0  0  0
   -0.1435   -2.0653   -0.1611 C   0  0  0  0  0  0  0  0  0  0  0  0
    1.7459    0.6694    0.9461 H   0  0  0  0  0  0  0  0  0  0  0  0
    2.6362   -2.0021   -0.4158 H   0  0  0  0  0  0  0  0  0  0  0  0
    1.8955   -1.6020   -1.9703 H   0  0  0  0  0  0  0  0  0  0  0  0
    2.7605   -0.3594   -1.0598 H   0  0  0  0  0  0  0  0  0  0  0  0
   -0.3647   -2.4448   -1.1600 H   0  0  0  0  0  0  0  0  0  0  0  0
   -1.0818   -1.8014    0.3265 H   0  0  0  0  0  0  0  0  0  0  0  0
    0.3129   -2.8692    0.4189 H   0  0  0  0  0  0  0  0  0  0  0  0
  1  2  1  0
  1  4  1  0
  1  5  1  0
  1  6  1  0
  2  3  1  0
  2  7  1  0
  2  8  1  0
  3  9  1  0
 10 11  1  0
 11 12  2  3
 11 15  1  0
 12 13  1  0
 12 14  1  0
 13 16  1  0
 13 17  1  0
 13 18  1  0
 14 19  1  0
 14 20  1  0
 14 21  1  0
M  RAD  1  10   2
M  END
>  <reaction>  (7) 
rxn_1890

>  <mol_properties>  (7) 
{"1": {"label": "*3", "atom_type": "Cs"}, "2": {"label": "*4", "atom_type": "S2s"}, "6": {"label": "*2", "atom_type": "H0"}, "10": {"label": "*0", "atom_type": "CS"}, "11": {"label": "*1", "atom_type": "Cs"}}

>  <type>  (7) 
unop_3

>  <geom_source>  (7) 
Heuristics

$$$$

     RDKit          3D

 21 19  0  0  0  0  0  0  0  0999 V2000
   -1.4335    1.0374   -2.0268 C   0  0  0  0  0  0  0  0  0  0  0  0
   -1.4335    1.0374   -0.5082 C   0  0  0  0  0  0  0  0  0  0  0  0
   -1.4335    2.6947    0.2368 S   0  0  0  0  0  0  0  0  0  0  0  0
   -0.5269    1.5028   -2.4176 H   0  0  0  0  0  0  0  0  0  0  0  0
   -2.2895    1.5886   -2.4169 H   0  0  0  0  0  0  0  0  0  0  0  0
   -1.4766    0.0140   -2.4071 H   0  0  0  0  0  0  0  0  0  0  0  0
   -0.4216    0.3580   -0.0340 H   0  0  0  0  0  0  0  0  0  0  0  0
   -2.3411    0.5703   -0.1230 H   0  0  0  0  0  0  0  0  0  0  0  0
   -0.2587    3.0964   -0.2667 H   0  0  0  0  0  0  0  0  0  0  0  0
    1.5374   -2.8425   -0.3317 S   0  0  0  0  0  1  0  0  0  0  0  0
    0.4164   -1.7162   -0.0911 C   0  0  0  0  0  0  0  0  0  0  0  0
    0.5988   -0.3270    0.4441 C   0  0  0  0  0  0  0  0  0  0  0  0
   -0.2793   -0.1614    1.6933 C   0  0  0  0  0  0  0  0  0  0  0  0
    2.0398    0.0741    0.7087 C   0  0  0  0  0  0  0  0  0  0  0  0
   -0.6254   -1.9549   -0.3182 H   0  0  0  0  0  0  0  0  0  0  0  0
    0.0851   -0.7999    2.5006 H   0  0  0  0  0  0  0  0  0  0  0  0
   -0.2497    0.8730    2.0374 H   0  0  0  0  0  0  0  0  0  0  0  0
   -1.3198   -0.4235    1.4940 H   0  0  0  0  0  0  0  0  0  0  0  0
    2.0816    1.1111    1.0457 H   0  0  0  0  0  0  0  0  0  0  0  0
    2.6528   -0.0258   -0.1869 H   0  0  0  0  0  0  0  0  0  0  0  0
    2.4826   -0.5567    1.4814 H   0  0  0  0  0  0  0  0  0  0  0  0
  1  2  1  0
  1  4  1  0
  1  5  1  0
  1  6  1  0
  2  3  1  0
  2  7  1  0
  2  8  1  0
  3  9  1  0
 10 11  1  0
 11 12  2  3
 11 15  1  0
 12 13  1  0
 12 14  1  0
 13 16  1  0
 13 17  1  0
 13 18  1  0
 14 19  1  0
 14 20  1  0
 14 21  1  0
M  RAD  1  10   2
M  END
>  <reaction>  (8) 
rxn_1890

>  <mol_properties>  (8) 
{"1": {"label": "*3", "atom_type": "Cs"}, "2": {"label": "*4", "atom_type": "S2s"}, "6": {"label": "*2", "atom_type": "H0"}, "10": {"label": "*0", "atom_type": "CS"}, "11": {"label": "*1", "atom_type": "Cs"}}

>  <type>  (8) 
unop_4

>  <geom_source>  (8) 
Heuristics

$$$$

     RDKit          3D

 21 19  0  0  0  0  0  0  0  0999 V2000
   -1.2627    0.7286   -2.6570 C   0  0  0  0  0  0  0  0  0  0  0  0
   -1.2627    0.7286   -1.1383 C   0  0  0  0  0  0  0  0  0  0  0  0
   -1.2627    2.3860   -0.3933 S   0  0  0  0  0  0  0  0  0  0  0  0
   -0.3560    1.1941   -3.0477 H   0  0  0  0  0  0  0  0  0  0  0  0
   -2.1187    1.2798   -3.0471 H   0  0  0  0  0  0  0  0  0  0  0  0
   -1.3058   -0.2947   -3.0373 H   0  0  0  0  0  0  0  0  0  0  0  0
   -0.2508    0.0493   -0.6642 H   0  0  0  0  0  0  0  0  0  0  0  0
   -2.1703    0.2616   -0.7532 H   0  0  0  0  0  0  0  0  0  0  0  0
   -0.0879    2.7877   -0.8969 H   0  0  0  0  0  0  0  0  0  0  0  0
    0.5322   -1.7443    2.3684 S   0  0  0  0  0  1  0  0  0  0  0  0
    0.6324   -0.5437    1.3046 C   0  0  0  0  0  0  0  0  0  0  0  0
    0.7696   -0.6357   -0.1861 C   0  0  0  0  0  0  0  0  0  0  0  0
    2.0450    0.1076   -0.6100 C   0  0  0  0  0  0  0  0  0  0  0  0
    0.7240   -2.0462   -0.7482 C   0  0  0  0  0  0  0  0  0  0  0  0
    0.6182    0.4856    1.6712 H   0  0  0  0  0  0  0  0  0  0  0  0
    2.9293   -0.4122   -0.2359 H   0  0  0  0  0  0  0  0  0  0  0  0
    2.1097    0.1501   -1.6978 H   0  0  0  0  0  0  0  0  0  0  0  0
    2.0632    1.1300   -0.2284 H   0  0  0  0  0  0  0  0  0  0  0  0
    0.7795   -2.0147   -1.8375 H   0  0  0  0  0  0  0  0  0  0  0  0
   -0.1928   -2.5608   -0.4611 H   0  0  0  0  0  0  0  0  0  0  0  0
    1.5624   -2.6388   -0.3782 H   0  0  0  0  0  0  0  0  0  0  0  0
  1  2  1  0
  1  4  1  0
  1  5  1  0
  1  6  1  0
  2  3  1  0
  2  7  1  0
  2  8  1  0
  3  9  1  0
 10 11  1  0
 11 12  2  3
 11 15  1  0
 12 13  1  0
 12 14  1  0
 13 16  1  0
 13 17  1  0
 13 18  1  0
 14 19  1  0
 14 20  1  0
 14 21  1  0
M  RAD  1  10   2
M  END
>  <reaction>  (9) 
rxn_1890

>  <mol_properties>  (9) 
{"1": {"label": "*3", "atom_type": "Cs"}, "2": {"label": "*4", "atom_type": "S2s"}, "6": {"label": "*2", "atom_type": "H0"}, "10": {"label": "*0", "atom_type": "CS"}, "11": {"label": "*1", "atom_type": "Cs"}}

>  <type>  (9) 
unop_5

>  <geom_source>  (9) 
Heuristics

$$$$

     RDKit          3D

 21 19  0  0  0  0  0  0  0  0999 V2000
   -1.3169    1.0464   -2.2653 C   0  0  0  0  0  0  0  0  0  0  0  0
   -1.3169    1.0464   -0.7466 C   0  0  0  0  0  0  0  0  0  0  0  0
   -1.3169    2.7037   -0.0017 S   0  0  0  0  0  0  0  0  0  0  0  0
   -0.4102    1.5118   -2.6561 H   0  0  0  0  0  0  0  0  0  0  0  0
   -2.1728    1.5976   -2.6554 H   0  0  0  0  0  0  0  0  0  0  0  0
   -1.3599    0.0230   -2.6456 H   0  0  0  0  0  0  0  0  0  0  0  0
   -0.3049    0.3670   -0.2725 H   0  0  0  0  0  0  0  0  0  0  0  0
   -2.2245    0.5793   -0.3615 H   0  0  0  0  0  0  0  0  0  0  0  0
   -0.1421    3.1054   -0.5052 H   0  0  0  0  0  0  0  0  0  0  0  0
    1.0590   -3.0770    0.4896 S   0  0  0  0  0  1  0  0  0  0  0  0
    0.2067   -1.7220    0.3457 C   0  0  0  0  0  0  0  0  0  0  0  0
    0.7154   -0.3180    0.2056 C   0  0  0  0  0  0  0  0  0  0  0  0
    0.1433    0.5296    1.3514 C   0  0  0  0  0  0  0  0  0  0  0  0
    2.2259   -0.1902    0.1075 C   0  0  0  0  0  0  0  0  0  0  0  0
   -0.8841   -1.7831    0.3625 H   0  0  0  0  0  0  0  0  0  0  0  0
    0.5528    0.2000    2.3084 H   0  0  0  0  0  0  0  0  0  0  0  0
    0.4086    1.5780    1.2104 H   0  0  0  0  0  0  0  0  0  0  0  0
   -0.9446    0.4586    1.4031 H   0  0  0  0  0  0  0  0  0  0  0  0
    2.5020    0.8548   -0.0424 H   0  0  0  0  0  0  0  0  0  0  0  0
    2.6232   -0.7774   -0.7203 H   0  0  0  0  0  0  0  0  0  0  0  0
    2.7056   -0.5449    1.0213 H   0  0  0  0  0  0  0  0  0  0  0  0
  1  2  1  0
  1  4  1  0
  1  5  1  0
  1  6  1  0
  2  3  1  0
  2  7  1  0
  2  8  1  0
  3  9  1  0
 10 11  1  0
 11 12  2  3
 11 15  1  0
 12 13  1  0
 12 14  1  0
 13 16  1  0
 13 17  1  0
 13 18  1  0
 14 19  1  0
 14 20  1  0
 14 21  1  0
M  RAD  1  10   2
M  END
>  <reaction>  (10) 
rxn_1890

>  <mol_properties>  (10) 
{"1": {"label": "*3", "atom_type": "Cs"}, "2": {"label": "*4", "atom_type": "S2s"}, "6": {"label": "*2", "atom_type": "H0"}, "10": {"label": "*0", "atom_type": "CS"}, "11": {"label": "*1", "atom_type": "Cs"}}

>  <type>  (10) 
unop_6

>  <geom_source>  (10) 
Heuristics

$$$$

     RDKit          3D

 21 19  0  0  0  0  0  0  0  0999 V2000
   -1.2873    0.9522   -2.4638 C   0  0  0  0  0  0  0  0  0  0  0  0
   -1.2873    0.9522   -0.9451 C   0  0  0  0  0  0  0  0  0  0  0  0
   -1.2873    2.6096   -0.2001 S   0  0  0  0  0  0  0  0  0  0  0  0
   -0.3806    1.4176   -2.8545 H   0  0  0  0  0  0  0  0  0  0  0  0
   -2.1432    1.5034   -2.8539 H   0  0  0  0  0  0  0  0  0  0  0  0
   -1.3303   -0.0711   -2.8441 H   0  0  0  0  0  0  0  0  0  0  0  0
   -0.2753    0.2729   -0.4710 H   0  0  0  0  0  0  0  0  0  0  0  0
   -2.1949    0.4852   -0.5600 H   0  0  0  0  0  0  0  0  0  0  0  0
   -0.1124    3.0113   -0.7037 H   0  0  0  0  0  0  0  0  0  0  0  0
    0.7960   -2.8895    1.2997 S   0  0  0  0  0  1  0  0  0  0  0  0
    0.1265   -1.5085    0.8225 C   0  0  0  0  0  0  0  0  0  0  0  0
    0.7450   -0.4121    0.0071 C   0  0  0  0  0  0  0  0  0  0  0  0
    0.6756    0.8964    0.8082 C   0  0  0  0  0  0  0  0  0  0  0  0
    2.1523   -0.6976   -0.4884 C   0  0  0  0  0  0  0  0  0  0  0  0
   -0.9026   -1.2932    1.1201 H   0  0  0  0  0  0  0  0  0  0  0  0
    1.3168    0.8360    1.6899 H   0  0  0  0  0  0  0  0  0  0  0  0
    1.0184    1.7300    0.1943 H   0  0  0  0  0  0  0  0  0  0  0  0
   -0.3411    1.1143    1.1398 H   0  0  0  0  0  0  0  0  0  0  0  0
    2.5020    0.1272   -1.1114 H   0  0  0  0  0  0  0  0  0  0  0  0
    2.1906   -1.6163   -1.0736 H   0  0  0  0  0  0  0  0  0  0  0  0
    2.8427   -0.8129    0.3488 H   0  0  0  0  0  0  0  0  0  0  0  0
  1  2  1  0
  1  4  1  0
  1  5  1  0
  1  6  1  0
  2  3  1  0
  2  7  1  0
  2  8  1  0
  3  9  1  0
 10 11  1  0
 11 12  2  3
 11 15  1  0
 12 13  1  0
 12 14  1  0
 13 16  1  0
 13 17  1  0
 13 18  1  0
 14 19  1  0
 14 20  1  0
 14 21  1  0
M  RAD  1  10   2
M  END
>  <reaction>  (11) 
rxn_1890

>  <mol_properties>  (11) 
{"1": {"label": "*3", "atom_type": "Cs"}, "2": {"label": "*4", "atom_type": "S2s"}, "6": {"label": "*2", "atom_type": "H0"}, "10": {"label": "*0", "atom_type": "CS"}, "11": {"label": "*1", "atom_type": "Cs"}}

>  <type>  (11) 
unop_7

>  <geom_source>  (11) 
Heuristics

$$$$

     RDKit          3D

 21 19  0  0  0  0  0  0  0  0999 V2000
   -1.5557    0.0681   -2.4785 C   0  0  0  0  0  0  0  0  0  0  0  0
   -1.5557    0.0681   -0.9599 C   0  0  0  0  0  0  0  0  0  0  0  0
   -1.5557    1.7255   -0.2149 S   0  0  0  0  0  0  0  0  0  0  0  0
   -0.6491    0.5335   -2.8693 H   0  0  0  0  0  0  0  0  0  0  0  0
   -2.4117    0.6193   -2.8686 H   0  0  0  0  0  0  0  0  0  0  0  0
   -1.5988   -0.9553   -2.8588 H   0  0  0  0  0  0  0  0  0  0  0  0
   -0.5438   -0.6112   -0.4857 H   0  0  0  0  0  0  0  0  0  0  0  0
   -2.4633   -0.3990   -0.5747 H   0  0  0  0  0  0  0  0  0  0  0  0
   -0.3809    2.1271   -0.7184 H   0  0  0  0  0  0  0  0  0  0  0  0
    1.8766    0.6956    1.3646 S   0  0  0  0  0  1  0  0  0  0  0  0
    1.5834   -0.2939    0.1325 C   0  0  0  0  0  0  0  0  0  0  0  0
    0.4766   -1.2963   -0.0076 C   0  0  0  0  0  0  0  0  0  0  0  0
    1.0948   -2.6838   -0.2346 C   0  0  0  0  0  0  0  0  0  0  0  0
   -0.5287   -1.3047    1.1311 C   0  0  0  0  0  0  0  0  0  0  0  0
    2.2593   -0.2786   -0.7259 H   0  0  0  0  0  0  0  0  0  0  0  0
    1.6297   -3.0117    0.6590 H   0  0  0  0  0  0  0  0  0  0  0  0
    0.3119   -3.4120   -0.4494 H   0  0  0  0  0  0  0  0  0  0  0  0
    1.7961   -2.6824   -1.0709 H   0  0  0  0  0  0  0  0  0  0  0  0
   -1.3218   -2.0245    0.9221 H   0  0  0  0  0  0  0  0  0  0  0  0
   -0.9790   -0.3224    1.2733 H   0  0  0  0  0  0  0  0  0  0  0  0
   -0.0489   -1.5847    2.0705 H   0  0  0  0  0  0  0  0  0  0  0  0
  1  2  1  0
  1  4  1  0
  1  5  1  0
  1  6  1  0
  2  3  1  0
  2  7  1  0
  2  8  1  0
  3  9  1  0
 10 11  1  0
 11 12  2  3
 11 15  1  0
 12 13  1  0
 12 14  1  0
 13 16  1  0
 13 17  1  0
 13 18  1  0
 14 19  1  0
 14 20  1  0
 14 21  1  0
M  RAD  1  10   2
M  END
>  <reaction>  (12) 
rxn_1890

>  <mol_properties>  (12) 
{"1": {"label": "*3", "atom_type": "Cs"}, "2": {"label": "*4", "atom_type": "S2s"}, "6": {"label": "*2", "atom_type": "H0"}, "10": {"label": "*0", "atom_type": "CS"}, "11": {"label": "*1", "atom_type": "Cs"}}

>  <type>  (12) 
unop_8

>  <geom_source>  (12) 
Heuristics

$$$$

     RDKit          3D

 21 19  0  0  0  0  0  0  0  0999 V2000
   -1.6126    0.8716   -1.8407 C   0  0  0  0  0  0  0  0  0  0  0  0
   -1.6126    0.8716   -0.3220 C   0  0  0  0  0  0  0  0  0  0  0  0
   -1.6126    2.5290    0.4230 S   0  0  0  0  0  0  0  0  0  0  0  0
   -0.7060    1.3370   -2.2314 H   0  0  0  0  0  0  0  0  0  0  0  0
   -2.4686    1.4228   -2.2308 H   0  0  0  0  0  0  0  0  0  0  0  0
   -1.6557   -0.1518   -2.2210 H   0  0  0  0  0  0  0  0  0  0  0  0
   -0.6007    0.1923    0.1521 H   0  0  0  0  0  0  0  0  0  0  0  0
   -2.5202    0.4045    0.0631 H   0  0  0  0  0  0  0  0  0  0  0  0
   -0.4378    2.9306   -0.0806 H   0  0  0  0  0  0  0  0  0  0  0  0
    2.1152   -2.1164   -0.8862 S   0  0  0  0  0  1  0  0  0  0  0  0
    0.6926   -1.5487   -0.3993 C   0  0  0  0  0  0  0  0  0  0  0  0
    0.4196   -0.4928    0.6302 C   0  0  0  0  0  0  0  0  0  0  0  0
   -0.4793   -1.0908    1.7225 C   0  0  0  0  0  0  0  0  0  0  0  0
    1.6564    0.1676    1.2148 C   0  0  0  0  0  0  0  0  0  0  0  0
   -0.2174   -1.9674   -0.8359 H   0  0  0  0  0  0  0  0  0  0  0  0
    0.0596   -1.8610    2.2780 H   0  0  0  0  0  0  0  0  0  0  0  0
   -0.7827   -0.3136    2.4249 H   0  0  0  0  0  0  0  0  0  0  0  0
   -1.3811   -1.5404    1.3031 H   0  0  0  0  0  0  0  0  0  0  0  0
    1.3639    0.9534    1.9132 H   0  0  0  0  0  0  0  0  0  0  0  0
    2.2793    0.6081    0.4364 H   0  0  0  0  0  0  0  0  0  0  0  0
    2.2677   -0.5597    1.7518 H   0  0  0  0  0  0  0  0  0  0  0  0
  1  2  1  0
  1  4  1  0
  1  5  1  0
  1  6  1  0
  2  3  1  0
  2  7  1  0
  2  8  1  0
  3  9  1  0
 10 11  1  0
 11 12  2  3
 11 15  1  0
 12 13  1  0
 12 14  1  0
 13 16  1  0
 13 17  1  0
 13 18  1  0
 14 19  1  0
 14 20  1  0
 14 21  1  0
M  RAD  1  10   2
M  END
>  <reaction>  (13) 
rxn_1890

>  <mol_properties>  (13) 
{"1": {"label": "*3", "atom_type": "Cs"}, "2": {"label": "*4", "atom_type": "S2s"}, "6": {"label": "*2", "atom_type": "H0"}, "10": {"label": "*0", "atom_type": "CS"}, "11": {"label": "*1", "atom_type": "Cs"}}

>  <type>  (13) 
unop_9

>  <geom_source>  (13) 
Heuristics

$$$$

     RDKit          3D

 21 19  0  0  0  0  0  0  0  0999 V2000
   -1.7227    0.0770   -2.2082 C   0  0  0  0  0  0  0  0  0  0  0  0
   -1.7227    0.0770   -0.6895 C   0  0  0  0  0  0  0  0  0  0  0  0
   -1.7227    1.7343    0.0554 S   0  0  0  0  0  0  0  0  0  0  0  0
   -0.8161    0.5424   -2.5990 H   0  0  0  0  0  0  0  0  0  0  0  0
   -2.5787    0.6282   -2.5983 H   0  0  0  0  0  0  0  0  0  0  0  0
   -1.7658   -0.9464   -2.5885 H   0  0  0  0  0  0  0  0  0  0  0  0
   -0.7108   -0.6024   -0.2154 H   0  0  0  0  0  0  0  0  0  0  0  0
   -2.6303   -0.3901   -0.3044 H   0  0  0  0  0  0  0  0  0  0  0  0
   -0.5479    2.1360   -0.4481 H   0  0  0  0  0  0  0  0  0  0  0  0
    2.3791    0.5848    0.4128 S   0  0  0  0  0  1  0  0  0  0  0  0
    1.5262   -0.5926   -0.2725 C   0  0  0  0  0  0  0  0  0  0  0  0
    0.3096   -1.2874    0.2627 C   0  0  0  0  0  0  0  0  0  0  0  0
    0.5985   -2.7936    0.3439 C   0  0  0  0  0  0  0  0  0  0  0  0
   -0.2139   -0.7404    1.5796 C   0  0  0  0  0  0  0  0  0  0  0  0
    1.8466   -0.9763   -1.2441 H   0  0  0  0  0  0  0  0  0  0  0  0
    1.3632   -2.9933    1.0973 H   0  0  0  0  0  0  0  0  0  0  0  0
   -0.3061   -3.3339    0.6253 H   0  0  0  0  0  0  0  0  0  0  0  0
    0.9481   -3.1906   -0.6107 H   0  0  0  0  0  0  0  0  0  0  0  0
   -1.1246   -1.2687    1.8663 H   0  0  0  0  0  0  0  0  0  0  0  0
   -0.4367    0.3242    1.5091 H   0  0  0  0  0  0  0  0  0  0  0  0
    0.5232   -0.8694    2.3740 H   0  0  0  0  0  0  0  0  0  0  0  0
  1  2  1  0
  1  4  1  0
  1  5  1  0
  1  6  1  0
  2  3  1  0
  2  7  1  0
  2  8  1  0
  3  9  1  0
 10 11  1  0
 11 12  2  3
 11 15  1  0
 12 13  1  0
 12 14  1  0
 13 16  1  0
 13 17  1  0
 13 18  1  0
 14 19  1  0
 14 20  1  0
 14 21  1  0
M  RAD  1  10   2
M  END
>  <reaction>  (14) 
rxn_1890

>  <mol_properties>  (14) 
{"1": {"label": "*3", "atom_type": "Cs"}, "2": {"label": "*4", "atom_type": "S2s"}, "6": {"label": "*2", "atom_type": "H0"}, "10": {"label": "*0", "atom_type": "CS"}, "11": {"label": "*1", "atom_type": "Cs"}}

>  <type>  (14) 
unop_10

>  <geom_source>  (14) 
Heuristics

$$$$

     RDKit          3D

 21 19  0  0  0  0  0  0  0  0999 V2000
   -1.3013    0.8400   -2.5782 C   0  0  0  0  0  0  0  0  0  0  0  0
   -1.3013    0.8400   -1.0595 C   0  0  0  0  0  0  0  0  0  0  0  0
   -1.3013    2.4974   -0.3146 S   0  0  0  0  0  0  0  0  0  0  0  0
   -0.3947    1.3054   -2.9690 H   0  0  0  0  0  0  0  0  0  0  0  0
   -2.1573    1.3912   -2.9683 H   0  0  0  0  0  0  0  0  0  0  0  0
   -1.3444   -0.1833   -2.9585 H   0  0  0  0  0  0  0  0  0  0  0  0
   -0.2894    0.1607   -0.5854 H   0  0  0  0  0  0  0  0  0  0  0  0
   -2.2089    0.3730   -0.6744 H   0  0  0  0  0  0  0  0  0  0  0  0
   -0.1265    2.8991   -0.8181 H   0  0  0  0  0  0  0  0  0  0  0  0
    0.6740   -2.4464    1.9207 S   0  0  0  0  0  1  0  0  0  0  0  0
    0.2484   -1.0731    1.2024 C   0  0  0  0  0  0  0  0  0  0  0  0
    0.7310   -0.5243   -0.1073 C   0  0  0  0  0  0  0  0  0  0  0  0
    1.3422    0.8635    0.1356 C   0  0  0  0  0  0  0  0  0  0  0  0
    1.6773   -1.4327   -0.8734 C   0  0  0  0  0  0  0  0  0  0  0  0
   -0.4690   -0.4186    1.7034 H   0  0  0  0  0  0  0  0  0  0  0  0
    2.2529    0.7780    0.7320 H   0  0  0  0  0  0  0  0  0  0  0  0
    1.6005    1.3307   -0.8154 H   0  0  0  0  0  0  0  0  0  0  0  0
    0.6506    1.5238    0.6616 H   0  0  0  0  0  0  0  0  0  0  0  0
    1.9355   -0.9782   -1.8312 H   0  0  0  0  0  0  0  0  0  0  0  0
    1.2296   -2.4086   -1.0606 H   0  0  0  0  0  0  0  0  0  0  0  0
    2.5981   -1.5967   -0.3111 H   0  0  0  0  0  0  0  0  0  0  0  0
  1  2  1  0
  1  4  1  0
  1  5  1  0
  1  6  1  0
  2  3  1  0
  2  7  1  0
  2  8  1  0
  3  9  1  0
 10 11  1  0
 11 12  2  3
 11 15  1  0
 12 13  1  0
 12 14  1  0
 13 16  1  0
 13 17  1  0
 13 18  1  0
 14 19  1  0
 14 20  1  0
 14 21  1  0
M  RAD  1  10   2
M  END
>  <reaction>  (15) 
rxn_1890

>  <mol_properties>  (15) 
{"1": {"label": "*3", "atom_type": "Cs"}, "2": {"label": "*4", "atom_type": "S2s"}, "6": {"label": "*2", "atom_type": "H0"}, "10": {"label": "*0", "atom_type": "CS"}, "11": {"label": "*1", "atom_type": "Cs"}}

>  <type>  (15) 
unop_11

>  <geom_source>  (15) 
Heuristics

$$$$

     RDKit          3D

 21 19  0  0  0  0  0  0  0  0999 V2000
   -1.7678    0.5709   -1.8048 C   0  0  0  0  0  0  0  0  0  0  0  0
   -1.7678    0.5709   -0.2861 C   0  0  0  0  0  0  0  0  0  0  0  0
   -1.7678    2.2283    0.4588 S   0  0  0  0  0  0  0  0  0  0  0  0
   -0.8612    1.0363   -2.1956 H   0  0  0  0  0  0  0  0  0  0  0  0
   -2.6238    1.1221   -2.1949 H   0  0  0  0  0  0  0  0  0  0  0  0
   -1.8109   -0.4524   -2.1851 H   0  0  0  0  0  0  0  0  0  0  0  0
   -0.7559   -0.1084    0.1880 H   0  0  0  0  0  0  0  0  0  0  0  0
   -2.6754    0.1039    0.0990 H   0  0  0  0  0  0  0  0  0  0  0  0
   -0.5930    2.6300   -0.0447 H   0  0  0  0  0  0  0  0  0  0  0  0
    2.5419   -1.0545   -0.9325 S   0  0  0  0  0  1  0  0  0  0  0  0
    0.9997   -1.2871   -0.5444 C   0  0  0  0  0  0  0  0  0  0  0  0
    0.2645   -0.7934    0.6661 C   0  0  0  0  0  0  0  0  0  0  0  0
   -0.3192   -2.0012    1.4142 C   0  0  0  0  0  0  0  0  0  0  0  0
    1.0739    0.1042    1.5861 C   0  0  0  0  0  0  0  0  0  0  0  0
    0.3752   -1.8875   -1.2102 H   0  0  0  0  0  0  0  0  0  0  0  0
    0.4832   -2.6137    1.8303 H   0  0  0  0  0  0  0  0  0  0  0  0
   -0.9509   -1.6630    2.2363 H   0  0  0  0  0  0  0  0  0  0  0  0
   -0.9234   -2.6301    0.7580 H   0  0  0  0  0  0  0  0  0  0  0  0
    0.4483    0.4554    2.4083 H   0  0  0  0  0  0  0  0  0  0  0  0
    1.4676    0.9700    1.0539 H   0  0  0  0  0  0  0  0  0  0  0  0
    1.9234   -0.4364    2.0070 H   0  0  0  0  0  0  0  0  0  0  0  0
  1  2  1  0
  1  4  1  0
  1  5  1  0
  1  6  1  0
  2  3  1  0
  2  7  1  0
  2  8  1  0
  3  9  1  0
 10 11  1  0
 11 12  2  3
 11 15  1  0
 12 13  1  0
 12 14  1  0
 13 16  1  0
 13 17  1  0
 13 18  1  0
 14 19  1  0
 14 20  1  0
 14 21  1  0
M  RAD  1  10   2
M  END
>  <reaction>  (16) 
rxn_1890

>  <mol_properties>  (16) 
{"1": {"label": "*3", "atom_type": "Cs"}, "2": {"label": "*4", "atom_type": "S2s"}, "6": {"label": "*2", "atom_type": "H0"}, "10": {"label": "*0", "atom_type": "CS"}, "11": {"label": "*1", "atom_type": "Cs"}}

>  <type>  (16) 
unop_12

>  <geom_source>  (16) 
Heuristics

$$$$

     RDKit          3D

 21 19  0  0  0  0  0  0  0  0999 V2000
    2.4444   -1.1002    1.1674 S   0  0  0  0  0  0  0  0  0  0  0  0
   -1.1930    1.3645    2.5375 S   0  0  0  0  0  0  0  0  0  0  0  0
   -0.9713    0.0768    0.3302 C   0  0  0  0  0  0  0  0  0  0  0  0
   -1.2866   -1.3311   -0.1842 C   0  0  0  0  0  0  0  0  0  0  0  0
   -1.4205    1.1289   -0.6908 C   0  0  0  0  0  0  0  0  0  0  0  0
    2.4029    0.1162   -1.2934 C   0  0  0  0  0  0  0  0  0  0  0  0
    1.6205    0.0298    0.0062 C   0  0  0  0  0  3  0  0  0  0  0  0
   -1.6339    0.3085    1.6678 C   0  0  0  0  0  0  0  0  0  0  0  0
    0.3386    0.1630    0.4736 H   0  0  0  0  0  0  0  0  0  0  0  0
   -0.9377   -2.0895    0.5488 H   0  0  0  0  0  0  0  0  0  0  0  0
   -2.3794   -1.4580   -0.3429 H   0  0  0  0  0  0  0  0  0  0  0  0
   -0.7596   -1.5126   -1.1449 H   0  0  0  0  0  0  0  0  0  0  0  0
   -0.9260    0.9470   -1.6686 H   0  0  0  0  0  0  0  0  0  0  0  0
   -2.5225    1.0938   -0.8313 H   0  0  0  0  0  0  0  0  0  0  0  0
   -1.1332    2.1450   -0.3469 H   0  0  0  0  0  0  0  0  0  0  0  0
    1.8807    0.8017   -1.9926 H   0  0  0  0  0  0  0  0  0  0  0  0
    2.4707   -0.8881   -1.7618 H   0  0  0  0  0  0  0  0  0  0  0  0
    3.4253    0.5056   -1.1012 H   0  0  0  0  0  0  0  0  0  0  0  0
    1.5361    1.0375    0.4653 H   0  0  0  0  0  0  0  0  0  0  0  0
   -2.3801   -0.3895    2.0362 H   0  0  0  0  0  0  0  0  0  0  0  0
    1.4247   -0.9495    2.1257 H   0  0  0  0  0  0  0  0  0  0  0  0
  1  7  1  0
  1 21  1  0
  2  8  2  0
  3  4  1  0
  3  5  1  0
  3  8  1  0
  3  9  1  0
  4 10  1  0
  4 11  1  0
  4 12  1  0
  5 13  1  0
  5 14  1  0
  5 15  1  0
  6  7  1  0
  6 16  1  0
  6 17  1  0
  6 18  1  0
  7 19  1  0
  8 20  1  0
M  RAD  1   7   2
M  END
>  <reaction>  (17) 
rxn_1890

>  <mol_properties>  (17) 
{"1": {"label": "*3", "atom_type": "Cs"}, "2": {"label": "*4", "atom_type": "S2s"}, "6": {"label": "*2", "atom_type": "H0"}, "10": {"label": "*0", "atom_type": "CS"}, "11": {"label": "*1", "atom_type": "Cs"}}

>  <type>  (17) 
unop_13

>  <geom_source>  (17) 
AutoTST

$$$$
