
     RDKit          3D

  2  1  0  0  0  0  0  0  0  0999 V2000
    0.0000    0.0000    0.3721 H   0  0  0  0  0  0  0  0  0  0  0  0
    0.0000    0.0000   -0.3721 H   0  0  0  0  0  0  0  0  0  0  0  0
  1  2  1  0
M  END
>  <reaction>  (1) 
rxn_797

>  <mol_properties>  (1) 
{"0": {"label": "donator", "atom_type": "H0"}, "1": {"label": "d_hydrogen", "atom_type": "H0"}}

>  <type>  (1) 
r1h

$$$$

     RDKit          3D

  8  7  0  0  0  0  0  0  0  0999 V2000
   -2.2129    0.4855    0.7390 C   0  0  0  0  0  0  0  0  0  0  0  0
   -1.2226    0.0526    0.1974 C   0  0  0  0  0  0  0  0  0  0  0  0
   -0.1006   -0.4575   -0.4419 C   0  0  0  0  0  3  0  0  0  0  0  0
    1.1960   -0.1737   -0.0342 C   0  0  0  0  0  0  0  0  0  0  0  0
    2.3329    0.0603    0.3036 C   0  0  0  0  0  0  0  0  0  0  0  0
   -3.0803    0.8696    1.2198 H   0  0  0  0  0  0  0  0  0  0  0  0
   -0.2433   -1.1067   -1.2980 H   0  0  0  0  0  0  0  0  0  0  0  0
    3.3308    0.2700    0.6058 H   0  0  0  0  0  0  0  0  0  0  0  0
  1  2  3  0
  1  6  1  0
  2  3  1  0
  3  4  1  0
  3  7  1  0
  4  5  3  0
  5  8  1  0
M  RAD  1   3   2
M  END
>  <reaction>  (2) 
rxn_797

>  <mol_properties>  (2) 
{"2": {"label": "acceptor", "atom_type": "Cs"}}

>  <type>  (2) 
r2

$$$$

     RDKit          3D

  9  8  0  0  0  0  0  0  0  0999 V2000
   -2.1022   -0.6873    0.3932 C   0  0  0  0  0  0  0  0  0  0  0  0
   -1.2072   -0.1086   -0.1482 C   0  0  0  0  0  0  0  0  0  0  0  0
   -0.1242    0.6105   -0.8193 C   0  0  0  0  0  0  0  0  0  0  0  0
    1.2067    0.1106   -0.4741 C   0  0  0  0  0  0  0  0  0  0  0  0
    2.3005   -0.2875   -0.2012 C   0  0  0  0  0  0  0  0  0  0  0  0
   -2.8942   -1.2059    0.8778 H   0  0  0  0  0  0  0  0  0  0  0  0
   -0.1862    1.6723   -0.5649 H   0  0  0  0  0  0  0  0  0  0  0  0
   -0.2641    0.5418   -1.9017 H   0  0  0  0  0  0  0  0  0  0  0  0
    3.2709   -0.6459    0.0455 H   0  0  0  0  0  0  0  0  0  0  0  0
  1  2  3  0
  1  6  1  0
  2  3  1  0
  3  4  1  0
  3  7  1  0
  3  8  1  0
  4  5  3  0
  5  9  1  0
M  END
>  <reaction>  (3) 
rxn_797

>  <mol_properties>  (3) 
{"0": {"label": "a_hydrogen", "atom_type": "H0"}, "3": {"label": "acceptor", "atom_type": "Cs"}}

>  <type>  (3) 
r2h

$$$$

     RDKit          3D

 10  8  0  0  0  0  0  0  0  0999 V2000
    0.5649   -0.3278   -2.7595 H   0  0  0  0  0 15  0  0  0  0  0  0
    0.5742   -0.3168   -1.6300 H   0  0  0  0  0  0  0  0  0  0  0  0
    0.6398    2.2120    0.3311 C   0  0  0  0  0  0  0  0  0  0  0  0
    0.6216    1.0600    0.0069 C   0  0  0  0  0  0  0  0  0  0  0  0
    0.6139   -0.3205   -0.4247 C   0  0  0  0  0  0  0  0  0  0  0  0
   -0.5037   -1.1140    0.0374 C   0  0  0  0  0  0  0  0  0  0  0  0
   -1.4299   -1.7866    0.3872 C   0  0  0  0  0  0  0  0  0  0  0  0
    0.6519    3.2328    0.6298 H   0  0  0  0  0  0  0  0  0  0  0  0
    1.5670   -0.8109   -0.2184 H   0  0  0  0  0  0  0  0  0  0  0  0
   -2.2528   -2.3790    0.7084 H   0  0  0  0  0  0  0  0  0  0  0  0
  2  5  1  0
  3  4  3  0
  3  8  1  0
  4  5  1  0
  5  6  1  0
  5  9  1  0
  6  7  3  0
  7 10  1  0
M  END
>  <reaction>  (4) 
rxn_797

>  <mol_properties>  (4) 
{"0": {"label": "*1", "atom_type": "H0"}, "1": {"label": "*2", "atom_type": "H0"}, "3": {"label": "*4", "atom_type": "Ct"}, "4": {"label": "*3", "atom_type": "Cs"}}

>  <type>  (4) 
ts

$$$$

     RDKit          3D

 10  8  0  0  0  0  0  0  0  0999 V2000
    0.6225   -0.3276   -2.6930 H   0  0  0  0  0 15  0  0  0  0  0  0
    0.6225   -0.3276   -1.8000 H   0  0  0  0  0  0  0  0  0  0  0  0
    0.6225    2.1834    0.3855 C   0  0  0  0  0  0  0  0  0  0  0  0
    0.6225    1.0542   -0.0072 C   0  0  0  0  0  0  0  0  0  0  0  0
    0.6225   -0.3276   -0.4877 C   0  0  0  0  0  0  0  0  0  0  0  0
   -0.5164   -1.1100   -0.0072 C   0  0  0  0  0  0  0  0  0  0  0  0
   -1.4472   -1.7494    0.3855 C   0  0  0  0  0  0  0  0  0  0  0  0
    0.6225    3.1879    0.7348 H   0  0  0  0  0  0  0  0  0  0  0  0
    1.5504   -0.8160   -0.1771 H   0  0  0  0  0  0  0  0  0  0  0  0
   -2.2751   -2.3181    0.7348 H   0  0  0  0  0  0  0  0  0  0  0  0
  2  5  1  0
  3  4  3  0
  3  8  1  0
  4  5  1  0
  5  6  1  0
  5  9  1  0
  6  7  3  0
  7 10  1  0
M  END
>  <reaction>  (5) 
rxn_797

>  <mol_properties>  (5) 
{"0": {"label": "*1", "atom_type": "H0"}, "1": {"label": "*2", "atom_type": "H0"}, "3": {"label": "*4", "atom_type": "Ct"}, "4": {"label": "*3", "atom_type": "Cs"}}

>  <type>  (5) 
unop_1

>  <geom_source>  (5) 
Heuristics

$$$$

     RDKit          3D

 10  8  0  0  0  0  0  0  0  0999 V2000
   -0.0156    0.3219   -0.5520 C   0  0  0  0  0  0  0  0  0  0  0  0
    1.1368   -0.5275   -0.2443 C   0  0  0  0  0  0  0  0  0  0  0  0
   -1.1211    0.0018    0.3533 C   0  0  0  0  0  0  0  0  0  0  0  0
    2.0867   -1.2263    0.0077 C   0  0  0  0  0  0  0  0  0  0  0  0
   -2.0326   -0.2605    1.0979 C   0  0  0  0  0  0  0  0  0  0  0  0
   -0.3342    0.1463   -1.6002 H   0  0  0  0  0  0  0  0  0  0  0  0
    0.2518    1.3290   -0.4340 H   0  0  0  0  0  0  0  0  0  0  0  0
    2.9202   -1.8396    0.2290 H   0  0  0  0  0  0  0  0  0  0  0  0
   -2.8324   -0.4909    1.7514 H   0  0  0  0  0  0  0  0  0  0  0  0
   -0.0596    2.5458   -0.6089 H   0  0  0  0  0 15  0  0  0  0  0  0
  1  2  1  0
  1  3  1  0
  1  6  1  0
  1  7  1  0
  2  4  3  0
  3  5  3  0
  4  8  1  0
  5  9  1  0
M  END
>  <reaction>  (6) 
rxn_797

>  <mol_properties>  (6) 
{"0": {"label": "*1", "atom_type": "H0"}, "1": {"label": "*2", "atom_type": "H0"}, "3": {"label": "*4", "atom_type": "Ct"}, "4": {"label": "*3", "atom_type": "Cs"}}

>  <type>  (6) 
unop_2

>  <geom_source>  (6) 
AutoTST

$$$$

     RDKit          3D

 10  8  0  0  0  0  0  0  0  0999 V2000
   -0.1644    0.4737   -0.5048 C   0  0  0  0  0  0  0  0  0  0  0  0
    1.1209   -0.1417   -0.1685 C   0  0  0  0  0  0  0  0  0  0  0  0
   -1.2587   -0.3642   -0.0104 C   0  0  0  0  0  0  0  0  0  0  0  0
    2.1803   -0.6469    0.1077 C   0  0  0  0  0  0  0  0  0  0  0  0
   -2.1612   -1.0527    0.3962 C   0  0  0  0  0  0  0  0  0  0  0  0
   -0.2475    0.5794   -1.6061 H   0  0  0  0  0  0  0  0  0  0  0  0
    3.1101   -1.0904    0.3502 H   0  0  0  0  0  0  0  0  0  0  0  0
   -2.9532   -1.6572    0.7531 H   0  0  0  0  0  0  0  0  0  0  0  0
    0.2983    2.2585    0.7353 H   0  0  0  0  0 15  0  0  0  0  0  0
    0.0755    1.6416   -0.0527 H   0  0  0  0  0  0  0  0  0  0  0  0
  1  2  1  0
  1  3  1  0
  1  6  1  0
  1 10  1  0
  2  4  3  0
  3  5  3  0
  4  7  1  0
  5  8  1  0
M  END
>  <reaction>  (7) 
rxn_797

>  <mol_properties>  (7) 
{"0": {"label": "*1", "atom_type": "H0"}, "1": {"label": "*2", "atom_type": "H0"}, "3": {"label": "*4", "atom_type": "Ct"}, "4": {"label": "*3", "atom_type": "Cs"}}

>  <type>  (7) 
unop_3

>  <geom_source>  (7) 
gaussian_log

$$$$
