
     RDKit          3D

  6  5  0  0  0  0  0  0  0  0999 V2000
    0.6594    0.0438   -0.0050 C   0  0  0  0  0  0  0  0  0  0  0  0
   -0.6594   -0.0438    0.0050 C   0  0  0  0  0  0  0  0  0  0  0  0
    1.1706    0.8681   -0.4881 H   0  0  0  0  0  0  0  0  0  0  0  0
    1.2824   -0.7051    0.4696 H   0  0  0  0  0  0  0  0  0  0  0  0
   -1.2824    0.7051   -0.4696 H   0  0  0  0  0  0  0  0  0  0  0  0
   -1.1706   -0.8681    0.4881 H   0  0  0  0  0  0  0  0  0  0  0  0
  1  2  2  3
  1  3  1  0
  1  4  1  0
  2  5  1  0
  2  6  1  0
M  END
>  <reaction>  (1) 
rxn_1599

>  <mol_properties>  (1) 
{"1": {"label": "donator", "atom_type": "Cd"}, "4": {"label": "d_hydrogen", "atom_type": "H0"}}

>  <type>  (1) 
r1h

$$$$

     RDKit          3D

 10  9  0  0  0  0  0  0  0  0999 V2000
   -1.2648    0.1959    0.8197 C   0  0  0  0  0  0  0  0  0  0  0  0
   -0.2805    0.0995   -0.3030 C   0  0  0  0  0  3  0  0  0  0  0  0
   -0.0444    1.1347   -1.1797 C   0  0  0  0  0  0  0  0  0  0  0  0
    0.1640    2.0467   -1.9525 C   0  0  0  0  0  0  0  0  0  0  0  0
    0.5686   -1.4168   -0.4488 S   0  0  0  0  0  0  0  0  0  0  0  0
   -2.0466   -0.5638    0.7258 H   0  0  0  0  0  0  0  0  0  0  0  0
   -0.7765    0.0454    1.7871 H   0  0  0  0  0  0  0  0  0  0  0  0
   -1.7371    1.1762    0.8222 H   0  0  0  0  0  0  0  0  0  0  0  0
    0.3433    2.8484   -2.6273 H   0  0  0  0  0  0  0  0  0  0  0  0
    1.3075   -1.0953   -1.5176 H   0  0  0  0  0  0  0  0  0  0  0  0
  1  2  1  0
  1  6  1  0
  1  7  1  0
  1  8  1  0
  2  3  1  0
  2  5  1  0
  3  4  3  0
  4  9  1  0
  5 10  1  0
M  RAD  1   2   2
M  END
>  <reaction>  (2) 
rxn_1599

>  <mol_properties>  (2) 
{"1": {"label": "acceptor", "atom_type": "Cs"}}

>  <type>  (2) 
r2

$$$$

     RDKit          3D

 11 10  0  0  0  0  0  0  0  0999 V2000
   -1.2582   -0.5130    0.2160 C   0  0  0  0  0  0  0  0  0  0  0  0
   -0.1109    0.0509   -0.6210 C   0  0  0  0  0  0  0  0  0  0  0  0
    1.1862   -0.2025   -0.0072 C   0  0  0  0  0  0  0  0  0  0  0  0
    2.2351   -0.4206    0.5274 C   0  0  0  0  0  0  0  0  0  0  0  0
   -0.3298    1.8272   -1.0120 S   0  0  0  0  0  0  0  0  0  0  0  0
   -1.2875   -0.0327    1.1945 H   0  0  0  0  0  0  0  0  0  0  0  0
   -2.2088   -0.3391   -0.2866 H   0  0  0  0  0  0  0  0  0  0  0  0
   -1.1220   -1.5854    0.3655 H   0  0  0  0  0  0  0  0  0  0  0  0
   -0.1222   -0.4181   -1.6078 H   0  0  0  0  0  0  0  0  0  0  0  0
    3.1729   -0.6098    0.9920 H   0  0  0  0  0  0  0  0  0  0  0  0
   -0.1942    2.2663    0.2466 H   0  0  0  0  0  0  0  0  0  0  0  0
  1  2  1  0
  1  6  1  0
  1  7  1  0
  1  8  1  0
  2  3  1  0
  2  5  1  0
  2  9  1  0
  3  4  3  0
  4 10  1  0
  5 11  1  0
M  END
>  <reaction>  (3) 
rxn_1599

>  <mol_properties>  (3) 
{"1": {"label": "acceptor", "atom_type": "Cs"}, "10": {"label": "a_hydrogen", "atom_type": "H0"}}

>  <type>  (3) 
r2h

$$$$

     RDKit          3D

 16 14  0  0  0  0  0  0  0  0999 V2000
   -1.5450    0.9598   -0.1875 C   0  0  0  0  0  0  0  0  0  0  0  0
   -0.3712    0.1199    0.2837 C   0  0  2  0  0  0  0  0  0  0  0  0
   -0.5386   -0.4526    1.5930 C   0  0  0  0  0  0  0  0  0  0  0  0
   -0.7026   -0.9530    2.6712 C   0  0  0  0  0  0  0  0  0  0  0  0
    1.2533    0.8866    0.0277 S   0  0  0  0  0  0  0  0  0  0  0  0
   -1.6439    1.8614    0.4212 H   0  0  0  0  0  0  0  0  0  0  0  0
   -1.4003    1.2548   -1.2262 H   0  0  0  0  0  0  0  0  0  0  0  0
   -2.4714    0.3893   -0.1055 H   0  0  0  0  0  0  0  0  0  0  0  0
   -0.8369   -1.3903    3.6311 H   0  0  0  0  0  0  0  0  0  0  0  0
    1.0436    1.9518    0.8162 H   0  0  0  0  0  0  0  0  0  0  0  0
    0.1696   -1.4525   -2.7320 C   0  0  0  0  0  0  0  0  0  0  0  0
   -0.2702   -1.8566   -1.5681 C   0  0  0  0  0  3  0  0  0  0  0  0
    0.4921   -0.4284   -2.8960 H   0  0  0  0  0  0  0  0  0  0  0  0
    0.2379   -2.1277   -3.5829 H   0  0  0  0  0  0  0  0  0  0  0  0
   -0.3090   -0.8323   -0.5063 H   0  0  0  0  0  0  0  0  0  0  0  0
   -0.6181   -2.8243   -1.2301 H   0  0  0  0  0  0  0  0  0  0  0  0
  1  2  1  0
  1  6  1  0
  1  7  1  0
  1  8  1  0
  2  3  1  0
  2  5  1  0
  2 15  1  6
  3  4  3  0
  4  9  1  0
  5 10  1  0
 11 12  2  3
 11 13  1  0
 11 14  1  0
 12 16  1  0
M  RAD  1  12   2
M  END
>  <reaction>  (4) 
rxn_1599

>  <mol_properties>  (4) 
{"1": {"label": "*1", "atom_type": "Cs"}, "4": {"label": "*0", "atom_type": "S2s"}, "10": {"label": "*4", "atom_type": "Cd"}, "11": {"label": "*3", "atom_type": "Cd"}, "14": {"label": "*2", "atom_type": "H0"}}

>  <type>  (4) 
ts

$$$$

     RDKit          3D

 16 14  0  0  0  0  0  0  0  0999 V2000
   -1.5947    0.3635    1.1812 C   0  0  0  0  0  0  0  0  0  0  0  0
   -0.3448    0.3146    0.3035 C   0  0  0  0  0  3  0  0  0  0  0  0
    0.7085   -0.4958    0.9011 C   0  0  0  0  0  0  0  0  0  0  0  0
    1.5555   -1.1621    1.4231 C   0  0  0  0  0  0  0  0  0  0  0  0
    0.2677    1.9817   -0.1452 S   0  0  0  0  0  0  0  0  0  0  0  0
   -1.3669    0.8247    2.1427 H   0  0  0  0  0  0  0  0  0  0  0  0
   -2.3738    0.9458    0.6908 H   0  0  0  0  0  0  0  0  0  0  0  0
   -1.9637   -0.6468    1.3654 H   0  0  0  0  0  0  0  0  0  0  0  0
    2.3077   -1.7538    1.8867 H   0  0  0  0  0  0  0  0  0  0  0  0
    0.6320    2.3364    1.0945 H   0  0  0  0  0  0  0  0  0  0  0  0
   -0.3448   -1.9089   -2.3881 C   0  0  0  0  0  0  0  0  0  0  0  0
   -0.3448   -1.9089   -1.0664 C   0  0  0  0  0  0  0  0  0  0  0  0
   -0.3448   -0.9863   -2.9565 H   0  0  0  0  0  0  0  0  0  0  0  0
   -0.3448   -2.8315   -2.9565 H   0  0  0  0  0  0  0  0  0  0  0  0
   -0.3448   -0.8018   -0.3843 H   0  0  0  0  0  0  0  0  0  0  0  0
   -0.3448   -2.8315   -0.4980 H   0  0  0  0  0  0  0  0  0  0  0  0
  1  2  1  0
  1  6  1  0
  1  7  1  0
  1  8  1  0
  2  3  1  0
  2  5  1  0
  3  4  3  0
  4  9  1  0
  5 10  1  0
 11 12  2  3
 11 13  1  0
 11 14  1  0
 12 15  1  0
 12 16  1  0
M  RAD  1   2   2
M  END
>  <reaction>  (5) 
rxn_1599

>  <mol_properties>  (5) 
{"1": {"label": "*1", "atom_type": "Cs"}, "4": {"label": "*0", "atom_type": "S2s"}, "10": {"label": "*4", "atom_type": "Cd"}, "11": {"label": "*3", "atom_type": "Cd"}, "14": {"label": "*2", "atom_type": "H0"}}

>  <type>  (5) 
unop_1

>  <geom_source>  (5) 
Heuristics

$$$$

     RDKit          3D

 16 14  0  0  0  0  0  0  0  0999 V2000
   -0.8114    1.4824   -0.7262 C   0  0  0  0  0  0  0  0  0  0  0  0
   -0.0898    0.3994    0.0746 C   0  0  0  0  0  3  0  0  0  0  0  0
   -0.9334   -0.1524    1.1269 C   0  0  0  0  0  0  0  0  0  0  0  0
   -1.6499   -0.5789    1.9862 C   0  0  0  0  0  0  0  0  0  0  0  0
    1.5205    0.9676    0.7378 S   0  0  0  0  0  0  0  0  0  0  0  0
   -1.0767    2.3202   -0.0806 H   0  0  0  0  0  0  0  0  0  0  0  0
   -0.1681    1.8481   -1.5256 H   0  0  0  0  0  0  0  0  0  0  0  0
   -1.7290    1.0805   -1.1592 H   0  0  0  0  0  0  0  0  0  0  0  0
   -2.2862   -0.9577    2.7494 H   0  0  0  0  0  0  0  0  0  0  0  0
    1.0119    1.8629    1.5951 H   0  0  0  0  0  0  0  0  0  0  0  0
   -0.0898   -1.8241   -2.6170 C   0  0  0  0  0  0  0  0  0  0  0  0
   -0.0898   -1.8241   -1.2953 C   0  0  0  0  0  0  0  0  0  0  0  0
   -0.0898   -0.9015   -3.1854 H   0  0  0  0  0  0  0  0  0  0  0  0
   -0.0898   -2.7466   -3.1854 H   0  0  0  0  0  0  0  0  0  0  0  0
   -0.0898   -0.7170   -0.6132 H   0  0  0  0  0  0  0  0  0  0  0  0
   -0.0898   -2.7466   -0.7269 H   0  0  0  0  0  0  0  0  0  0  0  0
  1  2  1  0
  1  6  1  0
  1  7  1  0
  1  8  1  0
  2  3  1  0
  2  5  1  0
  3  4  3  0
  4  9  1  0
  5 10  1  0
 11 12  2  3
 11 13  1  0
 11 14  1  0
 12 15  1  0
 12 16  1  0
M  RAD  1   2   2
M  END
>  <reaction>  (6) 
rxn_1599

>  <mol_properties>  (6) 
{"1": {"label": "*1", "atom_type": "Cs"}, "4": {"label": "*0", "atom_type": "S2s"}, "10": {"label": "*4", "atom_type": "Cd"}, "11": {"label": "*3", "atom_type": "Cd"}, "14": {"label": "*2", "atom_type": "H0"}}

>  <type>  (6) 
unop_2

>  <geom_source>  (6) 
Heuristics

$$$$

     RDKit          3D

 16 14  0  0  0  0  0  0  0  0999 V2000
   -0.9817   -0.0601    1.8074 C   0  0  0  0  0  0  0  0  0  0  0  0
   -0.2601    0.1681    0.4800 C   0  0  0  0  0  3  0  0  0  0  0  0
    1.1756   -0.0530    0.5959 C   0  0  0  0  0  0  0  0  0  0  0  0
    2.3517   -0.2352    0.7271 C   0  0  0  0  0  0  0  0  0  0  0  0
   -0.6271    1.8078   -0.2496 S   0  0  0  0  0  0  0  0  0  0  0  0
   -0.6268    0.6449    2.5597 H   0  0  0  0  0  0  0  0  0  0  0  0
   -2.0545    0.0777    1.6787 H   0  0  0  0  0  0  0  0  0  0  0  0
   -0.7904   -1.0716    2.1696 H   0  0  0  0  0  0  0  0  0  0  0  0
    3.3963   -0.3971    0.8435 H   0  0  0  0  0  0  0  0  0  0  0  0
   -0.0101    2.5254    0.6988 H   0  0  0  0  0  0  0  0  0  0  0  0
   -0.2601   -2.0554   -2.2116 C   0  0  0  0  0  0  0  0  0  0  0  0
   -0.2601   -2.0554   -0.8899 C   0  0  0  0  0  0  0  0  0  0  0  0
   -0.2601   -1.1328   -2.7800 H   0  0  0  0  0  0  0  0  0  0  0  0
   -0.2601   -2.9780   -2.7800 H   0  0  0  0  0  0  0  0  0  0  0  0
   -0.2601   -0.9483   -0.2078 H   0  0  0  0  0  0  0  0  0  0  0  0
   -0.2601   -2.9780   -0.3215 H   0  0  0  0  0  0  0  0  0  0  0  0
  1  2  1  0
  1  6  1  0
  1  7  1  0
  1  8  1  0
  2  3  1  0
  2  5  1  0
  3  4  3  0
  4  9  1  0
  5 10  1  0
 11 12  2  3
 11 13  1  0
 11 14  1  0
 12 15  1  0
 12 16  1  0
M  RAD  1   2   2
M  END
>  <reaction>  (7) 
rxn_1599

>  <mol_properties>  (7) 
{"1": {"label": "*1", "atom_type": "Cs"}, "4": {"label": "*0", "atom_type": "S2s"}, "10": {"label": "*4", "atom_type": "Cd"}, "11": {"label": "*3", "atom_type": "Cd"}, "14": {"label": "*2", "atom_type": "H0"}}

>  <type>  (7) 
unop_3

>  <geom_source>  (7) 
Heuristics

$$$$

     RDKit          3D

 16 14  0  0  0  0  0  0  0  0999 V2000
    1.3306    1.3359   -0.3033 C   0  0  0  0  0  0  0  0  0  0  0  0
    0.0808    0.5300    0.0477 C   0  0  0  0  0  3  0  0  0  0  0  0
   -1.0237    1.3886    0.4554 C   0  0  0  0  0  0  0  0  0  0  0  0
   -1.9083    2.1218    0.7925 C   0  0  0  0  0  0  0  0  0  0  0  0
    0.4086   -0.7736    1.2923 S   0  0  0  0  0  0  0  0  0  0  0  0
    1.6834    1.8898    0.5672 H   0  0  0  0  0  0  0  0  0  0  0  0
    2.1244    0.6690   -0.6376 H   0  0  0  0  0  0  0  0  0  0  0  0
    1.1055    2.0516   -1.0958 H   0  0  0  0  0  0  0  0  0  0  0  0
   -2.6939    2.7730    1.0920 H   0  0  0  0  0  0  0  0  0  0  0  0
    0.6743    0.0622    2.3052 H   0  0  0  0  0  0  0  0  0  0  0  0
    0.0808   -1.6935   -2.6439 C   0  0  0  0  0  0  0  0  0  0  0  0
    0.0808   -1.6935   -1.3222 C   0  0  0  0  0  0  0  0  0  0  0  0
    0.0808   -0.7709   -3.2123 H   0  0  0  0  0  0  0  0  0  0  0  0
    0.0808   -2.6161   -3.2123 H   0  0  0  0  0  0  0  0  0  0  0  0
    0.0808   -0.5864   -0.6401 H   0  0  0  0  0  0  0  0  0  0  0  0
    0.0808   -2.6161   -0.7538 H   0  0  0  0  0  0  0  0  0  0  0  0
  1  2  1  0
  1  6  1  0
  1  7  1  0
  1  8  1  0
  2  3  1  0
  2  5  1  0
  3  4  3  0
  4  9  1  0
  5 10  1  0
 11 12  2  3
 11 13  1  0
 11 14  1  0
 12 15  1  0
 12 16  1  0
M  RAD  1   2   2
M  END
>  <reaction>  (8) 
rxn_1599

>  <mol_properties>  (8) 
{"1": {"label": "*1", "atom_type": "Cs"}, "4": {"label": "*0", "atom_type": "S2s"}, "10": {"label": "*4", "atom_type": "Cd"}, "11": {"label": "*3", "atom_type": "Cd"}, "14": {"label": "*2", "atom_type": "H0"}}

>  <type>  (8) 
unop_4

>  <geom_source>  (8) 
Heuristics

$$$$

     RDKit          3D

 16 14  0  0  0  0  0  0  0  0999 V2000
    0.0720   -0.2321    2.0587 C   0  0  0  0  0  0  0  0  0  0  0  0
    0.0720    0.0975    0.5667 C   0  0  0  0  0  3  0  0  0  0  0  0
    1.2431    0.8742    0.1810 C   0  0  0  0  0  0  0  0  0  0  0  0
    2.2125    1.5178   -0.1012 C   0  0  0  0  0  0  0  0  0  0  0  0
   -1.4775    0.9100    0.0238 S   0  0  0  0  0  0  0  0  0  0  0  0
    0.0366    0.6830    2.6508 H   0  0  0  0  0  0  0  0  0  0  0  0
   -0.7954   -0.8422    2.3073 H   0  0  0  0  0  0  0  0  0  0  0  0
    0.9808   -0.7754    2.3231 H   0  0  0  0  0  0  0  0  0  0  0  0
    3.0736    2.0894   -0.3517 H   0  0  0  0  0  0  0  0  0  0  0  0
   -1.2894    2.0452    0.7103 H   0  0  0  0  0  0  0  0  0  0  0  0
    0.0720   -2.1260   -2.1249 C   0  0  0  0  0  0  0  0  0  0  0  0
    0.0720   -2.1260   -0.8031 C   0  0  0  0  0  0  0  0  0  0  0  0
    0.0720   -1.2034   -2.6933 H   0  0  0  0  0  0  0  0  0  0  0  0
    0.0720   -3.0486   -2.6933 H   0  0  0  0  0  0  0  0  0  0  0  0
    0.0720   -1.0189   -0.1211 H   0  0  0  0  0  0  0  0  0  0  0  0
    0.0720   -3.0486   -0.2348 H   0  0  0  0  0  0  0  0  0  0  0  0
  1  2  1  0
  1  6  1  0
  1  7  1  0
  1  8  1  0
  2  3  1  0
  2  5  1  0
  3  4  3  0
  4  9  1  0
  5 10  1  0
 11 12  2  3
 11 13  1  0
 11 14  1  0
 12 15  1  0
 12 16  1  0
M  RAD  1   2   2
M  END
>  <reaction>  (9) 
rxn_1599

>  <mol_properties>  (9) 
{"1": {"label": "*1", "atom_type": "Cs"}, "4": {"label": "*0", "atom_type": "S2s"}, "10": {"label": "*4", "atom_type": "Cd"}, "11": {"label": "*3", "atom_type": "Cd"}, "14": {"label": "*2", "atom_type": "H0"}}

>  <type>  (9) 
unop_5

>  <geom_source>  (9) 
Heuristics

$$$$

     RDKit          3D

 16 14  0  0  0  0  0  0  0  0999 V2000
    1.6889    0.9611    0.3745 C   0  0  0  0  0  0  0  0  0  0  0  0
    0.2458    0.5337    0.1112 C   0  0  0  0  0  3  0  0  0  0  0  0
   -0.6825    1.6508    0.2276 C   0  0  0  0  0  0  0  0  0  0  0  0
   -1.4190    2.5884    0.3381 C   0  0  0  0  0  0  0  0  0  0  0  0
   -0.2735   -0.8785    1.1562 S   0  0  0  0  0  0  0  0  0  0  0  0
    1.7948    1.3376    1.3924 H   0  0  0  0  0  0  0  0  0  0  0  0
    2.3601    0.1130    0.2447 H   0  0  0  0  0  0  0  0  0  0  0  0
    1.9769    1.7558   -0.3157 H   0  0  0  0  0  0  0  0  0  0  0  0
   -2.0731    3.4212    0.4363 H   0  0  0  0  0  0  0  0  0  0  0  0
   -0.2317   -0.2156    2.3198 H   0  0  0  0  0  0  0  0  0  0  0  0
    0.2458   -1.6898   -2.5804 C   0  0  0  0  0  0  0  0  0  0  0  0
    0.2458   -1.6898   -1.2587 C   0  0  0  0  0  0  0  0  0  0  0  0
    0.2458   -0.7673   -3.1488 H   0  0  0  0  0  0  0  0  0  0  0  0
    0.2458   -2.6124   -3.1488 H   0  0  0  0  0  0  0  0  0  0  0  0
    0.2458   -0.5827   -0.5766 H   0  0  0  0  0  0  0  0  0  0  0  0
    0.2458   -2.6124   -0.6903 H   0  0  0  0  0  0  0  0  0  0  0  0
  1  2  1  0
  1  6  1  0
  1  7  1  0
  1  8  1  0
  2  3  1  0
  2  5  1  0
  3  4  3  0
  4  9  1  0
  5 10  1  0
 11 12  2  3
 11 13  1  0
 11 14  1  0
 12 15  1  0
 12 16  1  0
M  RAD  1   2   2
M  END
>  <reaction>  (10) 
rxn_1599

>  <mol_properties>  (10) 
{"1": {"label": "*1", "atom_type": "Cs"}, "4": {"label": "*0", "atom_type": "S2s"}, "10": {"label": "*4", "atom_type": "Cd"}, "11": {"label": "*3", "atom_type": "Cd"}, "14": {"label": "*2", "atom_type": "H0"}}

>  <type>  (10) 
unop_6

>  <geom_source>  (10) 
Heuristics

$$$$

     RDKit          3D

 16 14  0  0  0  0  0  0  0  0999 V2000
    1.6250    0.4950    1.1306 C   0  0  0  0  0  0  0  0  0  0  0  0
    0.3752    0.4461    0.2529 C   0  0  0  0  0  3  0  0  0  0  0  0
   -0.1847    1.7726    0.0289 C   0  0  0  0  0  0  0  0  0  0  0  0
   -0.6232    2.8755   -0.1294 C   0  0  0  0  0  0  0  0  0  0  0  0
   -0.8902   -0.7144    0.8916 S   0  0  0  0  0  0  0  0  0  0  0  0
    1.3823    0.8915    2.1170 H   0  0  0  0  0  0  0  0  0  0  0  0
    2.0386   -0.5057    1.2490 H   0  0  0  0  0  0  0  0  0  0  0  0
    2.3770    1.1430    0.6772 H   0  0  0  0  0  0  0  0  0  0  0  0
   -1.0126    3.8550   -0.2701 H   0  0  0  0  0  0  0  0  0  0  0  0
   -1.1753   -0.0165    1.9992 H   0  0  0  0  0  0  0  0  0  0  0  0
    0.3752   -1.7774   -2.4386 C   0  0  0  0  0  0  0  0  0  0  0  0
    0.3752   -1.7774   -1.1169 C   0  0  0  0  0  0  0  0  0  0  0  0
    0.3752   -0.8549   -3.0070 H   0  0  0  0  0  0  0  0  0  0  0  0
    0.3752   -2.7000   -3.0070 H   0  0  0  0  0  0  0  0  0  0  0  0
    0.3752   -0.6703   -0.4349 H   0  0  0  0  0  0  0  0  0  0  0  0
    0.3752   -2.7000   -0.5485 H   0  0  0  0  0  0  0  0  0  0  0  0
  1  2  1  0
  1  6  1  0
  1  7  1  0
  1  8  1  0
  2  3  1  0
  2  5  1  0
  3  4  3  0
  4  9  1  0
  5 10  1  0
 11 12  2  3
 11 13  1  0
 11 14  1  0
 12 15  1  0
 12 16  1  0
M  RAD  1   2   2
M  END
>  <reaction>  (11) 
rxn_1599

>  <mol_properties>  (11) 
{"1": {"label": "*1", "atom_type": "Cs"}, "4": {"label": "*0", "atom_type": "S2s"}, "10": {"label": "*4", "atom_type": "Cd"}, "11": {"label": "*3", "atom_type": "Cd"}, "14": {"label": "*2", "atom_type": "H0"}}

>  <type>  (11) 
unop_7

>  <geom_source>  (11) 
Heuristics

$$$$

     RDKit          3D

 16 14  0  0  0  0  0  0  0  0999 V2000
   -1.7187    0.8295    0.4251 C   0  0  0  0  0  0  0  0  0  0  0  0
   -0.2755    0.4021    0.1618 C   0  0  0  0  0  3  0  0  0  0  0  0
    0.1694   -0.6197    1.1007 C   0  0  0  0  0  0  0  0  0  0  0  0
    0.5057   -1.4529    1.8921 C   0  0  0  0  0  0  0  0  0  0  0  0
    0.8834    1.8201    0.1185 S   0  0  0  0  0  0  0  0  0  0  0  0
   -1.8099    1.2707    1.4181 H   0  0  0  0  0  0  0  0  0  0  0  0
   -2.0317    1.5659   -0.3140 H   0  0  0  0  0  0  0  0  0  0  0  0
   -2.3818   -0.0357    0.3732 H   0  0  0  0  0  0  0  0  0  0  0  0
    0.8044   -2.1929    2.5951 H   0  0  0  0  0  0  0  0  0  0  0  0
    0.7639    2.1394    1.4142 H   0  0  0  0  0  0  0  0  0  0  0  0
   -0.2755   -1.8214   -2.5298 C   0  0  0  0  0  0  0  0  0  0  0  0
   -0.2755   -1.8214   -1.2081 C   0  0  0  0  0  0  0  0  0  0  0  0
   -0.2755   -0.8988   -3.0982 H   0  0  0  0  0  0  0  0  0  0  0  0
   -0.2755   -2.7440   -3.0982 H   0  0  0  0  0  0  0  0  0  0  0  0
   -0.2755   -0.7143   -0.5260 H   0  0  0  0  0  0  0  0  0  0  0  0
   -0.2755   -2.7440   -0.6397 H   0  0  0  0  0  0  0  0  0  0  0  0
  1  2  1  0
  1  6  1  0
  1  7  1  0
  1  8  1  0
  2  3  1  0
  2  5  1  0
  3  4  3  0
  4  9  1  0
  5 10  1  0
 11 12  2  3
 11 13  1  0
 11 14  1  0
 12 15  1  0
 12 16  1  0
M  RAD  1   2   2
M  END
>  <reaction>  (12) 
rxn_1599

>  <mol_properties>  (12) 
{"1": {"label": "*1", "atom_type": "Cs"}, "4": {"label": "*0", "atom_type": "S2s"}, "10": {"label": "*4", "atom_type": "Cd"}, "11": {"label": "*3", "atom_type": "Cd"}, "14": {"label": "*2", "atom_type": "H0"}}

>  <type>  (12) 
unop_8

>  <geom_source>  (12) 
Heuristics

$$$$

     RDKit          3D

 16 14  0  0  0  0  0  0  0  0999 V2000
    0.6855    1.5477   -0.7513 C   0  0  0  0  0  0  0  0  0  0  0  0
   -0.0361    0.4648    0.0494 C   0  0  0  0  0  3  0  0  0  0  0  0
   -1.2396    0.9750    0.6934 C   0  0  0  0  0  0  0  0  0  0  0  0
   -2.2179    1.4277    1.2146 C   0  0  0  0  0  0  0  0  0  0  0  0
    1.0623   -0.3723    1.2531 S   0  0  0  0  0  0  0  0  0  0  0  0
    1.0127    2.3534   -0.0934 H   0  0  0  0  0  0  0  0  0  0  0  0
    1.5586    1.1267   -1.2482 H   0  0  0  0  0  0  0  0  0  0  0  0
    0.0144    1.9700   -1.5012 H   0  0  0  0  0  0  0  0  0  0  0  0
   -3.0868    1.8298    1.6776 H   0  0  0  0  0  0  0  0  0  0  0  0
    1.2421    0.6935    2.0448 H   0  0  0  0  0  0  0  0  0  0  0  0
   -0.0361   -1.7587   -2.6421 C   0  0  0  0  0  0  0  0  0  0  0  0
   -0.0361   -1.7587   -1.3204 C   0  0  0  0  0  0  0  0  0  0  0  0
   -0.0361   -0.8361   -3.2105 H   0  0  0  0  0  0  0  0  0  0  0  0
   -0.0361   -2.6813   -3.2105 H   0  0  0  0  0  0  0  0  0  0  0  0
   -0.0361   -0.6516   -0.6383 H   0  0  0  0  0  0  0  0  0  0  0  0
   -0.0361   -2.6813   -0.7520 H   0  0  0  0  0  0  0  0  0  0  0  0
  1  2  1  0
  1  6  1  0
  1  7  1  0
  1  8  1  0
  2  3  1  0
  2  5  1  0
  3  4  3  0
  4  9  1  0
  5 10  1  0
 11 12  2  3
 11 13  1  0
 11 14  1  0
 12 15  1  0
 12 16  1  0
M  RAD  1   2   2
M  END
>  <reaction>  (13) 
rxn_1599

>  <mol_properties>  (13) 
{"1": {"label": "*1", "atom_type": "Cs"}, "4": {"label": "*0", "atom_type": "S2s"}, "10": {"label": "*4", "atom_type": "Cd"}, "11": {"label": "*3", "atom_type": "Cd"}, "14": {"label": "*2", "atom_type": "H0"}}

>  <type>  (13) 
unop_9

>  <geom_source>  (13) 
Heuristics

$$$$

     RDKit          3D

 16 14  0  0  0  0  0  0  0  0999 V2000
   -1.4135    1.2258   -0.2610 C   0  0  0  0  0  0  0  0  0  0  0  0
   -0.1637    0.4200    0.0900 C   0  0  0  0  0  3  0  0  0  0  0  0
   -0.4056   -0.5100    1.1855 C   0  0  0  0  0  0  0  0  0  0  0  0
   -0.6358   -1.2576    2.0920 C   0  0  0  0  0  0  0  0  0  0  0  0
    1.2902    1.4830    0.4245 S   0  0  0  0  0  0  0  0  0  0  0  0
   -1.7255    1.8339    0.5887 H   0  0  0  0  0  0  0  0  0  0  0  0
   -1.2098    1.8839   -1.1048 H   0  0  0  0  0  0  0  0  0  0  0  0
   -2.2332    0.5536   -0.5197 H   0  0  0  0  0  0  0  0  0  0  0  0
   -0.8402   -1.9216    2.8972 H   0  0  0  0  0  0  0  0  0  0  0  0
    0.8083    2.0315    1.5479 H   0  0  0  0  0  0  0  0  0  0  0  0
   -0.1637   -1.8035   -2.6016 C   0  0  0  0  0  0  0  0  0  0  0  0
   -0.1637   -1.8035   -1.2799 C   0  0  0  0  0  0  0  0  0  0  0  0
   -0.1637   -0.8810   -3.1700 H   0  0  0  0  0  0  0  0  0  0  0  0
   -0.1637   -2.7261   -3.1700 H   0  0  0  0  0  0  0  0  0  0  0  0
   -0.1637   -0.6964   -0.5978 H   0  0  0  0  0  0  0  0  0  0  0  0
   -0.1637   -2.7261   -0.7115 H   0  0  0  0  0  0  0  0  0  0  0  0
  1  2  1  0
  1  6  1  0
  1  7  1  0
  1  8  1  0
  2  3  1  0
  2  5  1  0
  3  4  3  0
  4  9  1  0
  5 10  1  0
 11 12  2  3
 11 13  1  0
 11 14  1  0
 12 15  1  0
 12 16  1  0
M  RAD  1   2   2
M  END
>  <reaction>  (14) 
rxn_1599

>  <mol_properties>  (14) 
{"1": {"label": "*1", "atom_type": "Cs"}, "4": {"label": "*0", "atom_type": "S2s"}, "10": {"label": "*4", "atom_type": "Cd"}, "11": {"label": "*3", "atom_type": "Cd"}, "14": {"label": "*2", "atom_type": "H0"}}

>  <type>  (14) 
unop_10

>  <geom_source>  (14) 
Heuristics

$$$$

     RDKit          3D

 16 14  0  0  0  0  0  0  0  0999 V2000
    1.0812    0.0371    1.7700 C   0  0  0  0  0  0  0  0  0  0  0  0
    0.3596    0.2653    0.4426 C   0  0  0  0  0  3  0  0  0  0  0  0
    0.5418    1.6248   -0.0492 C   0  0  0  0  0  0  0  0  0  0  0  0
    0.7051    2.7512   -0.4213 C   0  0  0  0  0  0  0  0  0  0  0  0
   -1.4142   -0.1864    0.5172 S   0  0  0  0  0  0  0  0  0  0  0  0
    0.6774    0.6944    2.5407 H   0  0  0  0  0  0  0  0  0  0  0  0
    0.9556   -0.9960    2.0915 H   0  0  0  0  0  0  0  0  0  0  0  0
    2.1455    0.2522    1.6605 H   0  0  0  0  0  0  0  0  0  0  0  0
    0.8501    3.7515   -0.7517 H   0  0  0  0  0  0  0  0  0  0  0  0
   -1.7713    0.7851    1.3680 H   0  0  0  0  0  0  0  0  0  0  0  0
    0.3596   -1.9582   -2.2490 C   0  0  0  0  0  0  0  0  0  0  0  0
    0.3596   -1.9582   -0.9273 C   0  0  0  0  0  0  0  0  0  0  0  0
    0.3596   -1.0356   -2.8174 H   0  0  0  0  0  0  0  0  0  0  0  0
    0.3596   -2.8808   -2.8174 H   0  0  0  0  0  0  0  0  0  0  0  0
    0.3596   -0.8511   -0.2452 H   0  0  0  0  0  0  0  0  0  0  0  0
    0.3596   -2.8808   -0.3589 H   0  0  0  0  0  0  0  0  0  0  0  0
  1  2  1  0
  1  6  1  0
  1  7  1  0
  1  8  1  0
  2  3  1  0
  2  5  1  0
  3  4  3  0
  4  9  1  0
  5 10  1  0
 11 12  2  3
 11 13  1  0
 11 14  1  0
 12 15  1  0
 12 16  1  0
M  RAD  1   2   2
M  END
>  <reaction>  (15) 
rxn_1599

>  <mol_properties>  (15) 
{"1": {"label": "*1", "atom_type": "Cs"}, "4": {"label": "*0", "atom_type": "S2s"}, "10": {"label": "*4", "atom_type": "Cd"}, "11": {"label": "*3", "atom_type": "Cd"}, "14": {"label": "*2", "atom_type": "H0"}}

>  <type>  (15) 
unop_11

>  <geom_source>  (15) 
Heuristics

$$$$

     RDKit          3D

 16 14  0  0  0  0  0  0  0  0999 V2000
   -0.0720    1.5880   -0.8956 C   0  0  0  0  0  0  0  0  0  0  0  0
   -0.0720    0.4036    0.0698 C   0  0  0  0  0  3  0  0  0  0  0  0
   -1.2431    0.4084    0.9370 C   0  0  0  0  0  0  0  0  0  0  0  0
   -2.2125    0.4459    1.6387 C   0  0  0  0  0  0  0  0  0  0  0  0
    1.4775    0.2842    1.0396 S   0  0  0  0  0  0  0  0  0  0  0  0
   -0.0366    2.5283   -0.3446 H   0  0  0  0  0  0  0  0  0  0  0  0
    0.7954    1.5356   -1.5523 H   0  0  0  0  0  0  0  0  0  0  0  0
   -0.9808    1.5799   -1.4998 H   0  0  0  0  0  0  0  0  0  0  0  0
   -3.0736    0.4792    2.2620 H   0  0  0  0  0  0  0  0  0  0  0  0
    1.2894    1.4078    1.7448 H   0  0  0  0  0  0  0  0  0  0  0  0
   -0.0720   -1.8199   -2.6218 C   0  0  0  0  0  0  0  0  0  0  0  0
   -0.0720   -1.8199   -1.3001 C   0  0  0  0  0  0  0  0  0  0  0  0
   -0.0720   -0.8973   -3.1902 H   0  0  0  0  0  0  0  0  0  0  0  0
   -0.0720   -2.7424   -3.1902 H   0  0  0  0  0  0  0  0  0  0  0  0
   -0.0720   -0.7127   -0.6180 H   0  0  0  0  0  0  0  0  0  0  0  0
   -0.0720   -2.7424   -0.7317 H   0  0  0  0  0  0  0  0  0  0  0  0
  1  2  1  0
  1  6  1  0
  1  7  1  0
  1  8  1  0
  2  3  1  0
  2  5  1  0
  3  4  3  0
  4  9  1  0
  5 10  1  0
 11 12  2  3
 11 13  1  0
 11 14  1  0
 12 15  1  0
 12 16  1  0
M  RAD  1   2   2
M  END
>  <reaction>  (16) 
rxn_1599

>  <mol_properties>  (16) 
{"1": {"label": "*1", "atom_type": "Cs"}, "4": {"label": "*0", "atom_type": "S2s"}, "10": {"label": "*4", "atom_type": "Cd"}, "11": {"label": "*3", "atom_type": "Cd"}, "14": {"label": "*2", "atom_type": "H0"}}

>  <type>  (16) 
unop_12

>  <geom_source>  (16) 
Heuristics

$$$$

     RDKit          3D

 16 14  0  0  0  0  0  0  0  0999 V2000
   -0.9500    0.0553    2.1589 S   0  0  0  0  0  0  0  0  0  0  0  0
   -0.7074    0.1751    0.3596 C   0  0  0  0  0  3  0  0  0  0  0  0
   -1.5738   -0.8520   -0.3626 C   0  0  0  0  0  0  0  0  0  0  0  0
    2.7191   -0.1756   -0.1595 C   0  0  0  0  0  0  0  0  0  0  0  0
   -1.0496    1.5318   -0.0821 C   0  0  0  0  0  0  0  0  0  0  0  0
    1.5847   -0.8668   -0.2233 C   0  0  0  0  0  0  0  0  0  0  0  0
   -1.3295    2.6466   -0.4461 C   0  0  0  0  0  0  0  0  0  0  0  0
    0.6848   -0.0782    0.0534 H   0  0  0  0  0  0  0  0  0  0  0  0
   -1.4173   -0.7777   -1.4599 H   0  0  0  0  0  0  0  0  0  0  0  0
   -2.6496   -0.6877   -0.1362 H   0  0  0  0  0  0  0  0  0  0  0  0
   -1.2901   -1.8759   -0.0408 H   0  0  0  0  0  0  0  0  0  0  0  0
    3.5781   -0.4754   -0.7510 H   0  0  0  0  0  0  0  0  0  0  0  0
    2.7870    0.6924    0.4869 H   0  0  0  0  0  0  0  0  0  0  0  0
   -0.3169   -1.1999    2.2350 H   0  0  0  0  0  0  0  0  0  0  0  0
    1.5058   -1.7370   -0.8668 H   0  0  0  0  0  0  0  0  0  0  0  0
   -1.5753    3.6251   -0.7655 H   0  0  0  0  0  0  0  0  0  0  0  0
  1  2  1  0
  1 14  1  0
  2  3  1  0
  2  5  1  0
  3  9  1  0
  3 10  1  0
  3 11  1  0
  4  6  2  3
  4 12  1  0
  4 13  1  0
  5  7  3  0
  6  8  1  0
  6 15  1  0
  7 16  1  0
M  RAD  1   2   2
M  END
>  <reaction>  (17) 
rxn_1599

>  <mol_properties>  (17) 
{"1": {"label": "*1", "atom_type": "Cs"}, "4": {"label": "*0", "atom_type": "S2s"}, "10": {"label": "*4", "atom_type": "Cd"}, "11": {"label": "*3", "atom_type": "Cd"}, "14": {"label": "*2", "atom_type": "H0"}}

>  <type>  (17) 
unop_13

>  <geom_source>  (17) 
AutoTST

$$$$
