
     RDKit          3D

  7  6  0  0  0  0  0  0  0  0999 V2000
    1.2985   -0.0065   -0.2721 C   0  0  0  0  0  0  0  0  0  0  0  0
    0.0000    0.0000   -0.2926 C   0  0  0  0  0  0  0  0  0  0  0  0
   -1.2985    0.0065   -0.3130 C   0  0  0  0  0  0  0  0  0  0  0  0
    1.8444   -0.7551    0.2895 H   0  0  0  0  0  0  0  0  0  0  0  0
    1.8693    0.7364   -0.8162 H   0  0  0  0  0  0  0  0  0  0  0  0
   -1.8658    0.5623    0.4239 H   0  0  0  0  0  0  0  0  0  0  0  0
   -1.8479   -0.5437   -1.0675 H   0  0  0  0  0  0  0  0  0  0  0  0
  1  2  2  0
  1  4  1  0
  1  5  1  0
  2  3  2  0
  3  6  1  0
  3  7  1  0
M  END
>  <reaction>  (1) 
rxn_1789

>  <mol_properties>  (1) 
{"0": {"label": "donator", "atom_type": "Cd"}, "3": {"label": "d_hydrogen", "atom_type": "H0"}}

>  <type>  (1) 
r1h

$$$$

     RDKit          3D

  5  4  0  0  0  0  0  0  0  0999 V2000
    0.0397    0.7134    0.0000 C   0  0  0  0  0  3  0  0  0  0  0  0
    0.0458   -0.5870    0.0000 C   0  0  0  0  0  0  0  0  0  0  0  0
   -0.6871    1.5118    0.0000 H   0  0  0  0  0  0  0  0  0  0  0  0
   -0.8806   -1.1637    0.0000 H   0  0  0  0  0  0  0  0  0  0  0  0
    0.9690   -1.1600    0.0000 H   0  0  0  0  0  0  0  0  0  0  0  0
  1  2  2  3
  1  3  1  0
  2  4  1  0
  2  5  1  0
M  RAD  1   1   2
M  END
>  <reaction>  (2) 
rxn_1789

>  <mol_properties>  (2) 
{"0": {"label": "acceptor", "atom_type": "Cd"}}

>  <type>  (2) 
r2

$$$$

     RDKit          3D

  6  5  0  0  0  0  0  0  0  0999 V2000
    0.6594    0.0438   -0.0050 C   0  0  0  0  0  0  0  0  0  0  0  0
   -0.6594   -0.0438    0.0050 C   0  0  0  0  0  0  0  0  0  0  0  0
    1.1706    0.8681   -0.4881 H   0  0  0  0  0  0  0  0  0  0  0  0
    1.2824   -0.7051    0.4696 H   0  0  0  0  0  0  0  0  0  0  0  0
   -1.2824    0.7051   -0.4696 H   0  0  0  0  0  0  0  0  0  0  0  0
   -1.1706   -0.8681    0.4881 H   0  0  0  0  0  0  0  0  0  0  0  0
  1  2  2  3
  1  3  1  0
  1  4  1  0
  2  5  1  0
  2  6  1  0
M  END
>  <reaction>  (3) 
rxn_1789

>  <mol_properties>  (3) 
{"0": {"label": "acceptor", "atom_type": "Cd"}, "5": {"label": "a_hydrogen", "atom_type": "H0"}}

>  <type>  (3) 
r2h

$$$$

     RDKit          3D

 12 10  0  0  0  0  0  0  0  0999 V2000
   -0.6319   -0.8522    1.7391 C   0  0  0  0  0  3  0  0  0  0  0  0
   -1.2184   -1.6430    0.8772 C   0  0  0  0  0  0  0  0  0  0  0  0
   -0.6363   -0.8581    2.8218 H   0  0  0  0  0  0  0  0  0  0  0  0
   -1.8388   -2.4797    1.1903 H   0  0  0  0  0  0  0  0  0  0  0  0
   -1.1041   -1.4890   -0.1925 H   0  0  0  0  0  0  0  0  0  0  0  0
    0.7529    1.0154    0.4343 C   0  0  0  0  0  0  0  0  0  0  0  0
    0.6656    0.8976   -0.8383 C   0  0  0  0  0  0  0  0  0  0  0  0
    0.5270    0.7106   -2.1273 C   0  0  0  0  0  0  0  0  0  0  0  0
    0.1301    0.1755    1.1298 H   0  0  0  0  0  0  0  0  0  0  0  0
    1.2997    1.7527    1.0040 H   0  0  0  0  0  0  0  0  0  0  0  0
   -0.2717    1.1929   -2.6776 H   0  0  0  0  0  0  0  0  0  0  0  0
    1.2204    0.0865   -2.6776 H   0  0  0  0  0  0  0  0  0  0  0  0
  1  2  2  3
  1  3  1  0
  2  4  1  0
  2  5  1  0
  6  7  2  0
  6  9  1  0
  6 10  1  0
  7  8  2  0
  8 11  1  0
  8 12  1  0
M  RAD  1   1   2
M  END
>  <reaction>  (4) 
rxn_1789

>  <mol_properties>  (4) 
{"0": {"label": "*3", "atom_type": "Cd"}, "1": {"label": "*4", "atom_type": "Cd"}, "5": {"label": "*1", "atom_type": "Cd"}, "6": {"label": "*0", "atom_type": "Cdd"}, "8": {"label": "*2", "atom_type": "H0"}}

>  <type>  (4) 
ts

$$$$

     RDKit          3D

 12 10  0  0  0  0  0  0  0  0999 V2000
   -0.9105   -0.8911    1.3835 C   0  0  0  0  0  3  0  0  0  0  0  0
   -0.3089   -1.7158    2.2229 C   0  0  0  0  0  0  0  0  0  0  0  0
   -1.8258   -0.3761    1.6505 H   0  0  0  0  0  0  0  0  0  0  0  0
   -0.7067   -1.9102    3.2120 H   0  0  0  0  0  0  0  0  0  0  0  0
    0.6064   -2.2307    1.9559 H   0  0  0  0  0  0  0  0  0  0  0  0
    0.4168    0.8989    0.0431 C   0  0  0  0  0  0  0  0  0  0  0  0
    0.4168    0.8989   -1.2555 C   0  0  0  0  0  0  0  0  0  0  0  0
    0.4168    0.8989   -2.5542 C   0  0  0  0  0  0  0  0  0  0  0  0
   -0.2468    0.0040    0.7132 H   0  0  0  0  0  0  0  0  0  0  0  0
    0.9698    1.6447    0.6015 H   0  0  0  0  0  0  0  0  0  0  0  0
   -0.3290    1.4519   -3.1126 H   0  0  0  0  0  0  0  0  0  0  0  0
    1.1626    0.3459   -3.1126 H   0  0  0  0  0  0  0  0  0  0  0  0
  1  2  2  3
  1  3  1  0
  2  4  1  0
  2  5  1  0
  6  7  2  0
  6  9  1  0
  6 10  1  0
  7  8  2  0
  8 11  1  0
  8 12  1  0
M  RAD  1   1   2
M  END
>  <reaction>  (5) 
rxn_1789

>  <mol_properties>  (5) 
{"0": {"label": "*3", "atom_type": "Cd"}, "1": {"label": "*4", "atom_type": "Cd"}, "5": {"label": "*1", "atom_type": "Cd"}, "6": {"label": "*0", "atom_type": "Cdd"}, "8": {"label": "*2", "atom_type": "H0"}}

>  <type>  (5) 
unop_1

>  <geom_source>  (5) 
Heuristics

$$$$

     RDKit          3D

 12 10  0  0  0  0  0  0  0  0999 V2000
   -0.7443   -0.7999    1.6640 C   0  0  0  0  0  3  0  0  0  0  0  0
   -0.9454   -2.0157    1.1862 C   0  0  0  0  0  0  0  0  0  0  0  0
   -0.8633   -0.5763    2.7176 H   0  0  0  0  0  0  0  0  0  0  0  0
   -1.2374   -2.8379    1.8289 H   0  0  0  0  0  0  0  0  0  0  0  0
   -0.8265   -2.2392    0.1326 H   0  0  0  0  0  0  0  0  0  0  0  0
    0.5830    0.9901    0.3237 C   0  0  0  0  0  0  0  0  0  0  0  0
    0.5830    0.9901   -0.9750 C   0  0  0  0  0  0  0  0  0  0  0  0
    0.5830    0.9901   -2.2737 C   0  0  0  0  0  0  0  0  0  0  0  0
   -0.0806    0.0952    0.9938 H   0  0  0  0  0  0  0  0  0  0  0  0
    1.1360    1.7359    0.8821 H   0  0  0  0  0  0  0  0  0  0  0  0
   -0.1627    1.5431   -2.8321 H   0  0  0  0  0  0  0  0  0  0  0  0
    1.3288    0.4371   -2.8321 H   0  0  0  0  0  0  0  0  0  0  0  0
  1  2  2  3
  1  3  1  0
  2  4  1  0
  2  5  1  0
  6  7  2  0
  6  9  1  0
  6 10  1  0
  7  8  2  0
  8 11  1  0
  8 12  1  0
M  RAD  1   1   2
M  END
>  <reaction>  (6) 
rxn_1789

>  <mol_properties>  (6) 
{"0": {"label": "*3", "atom_type": "Cd"}, "1": {"label": "*4", "atom_type": "Cd"}, "5": {"label": "*1", "atom_type": "Cd"}, "6": {"label": "*0", "atom_type": "Cdd"}, "8": {"label": "*2", "atom_type": "H0"}}

>  <type>  (6) 
unop_2

>  <geom_source>  (6) 
Heuristics

$$$$

     RDKit          3D

 12 10  0  0  0  0  0  0  0  0999 V2000
   -0.8631   -0.9776    1.3127 C   0  0  0  0  0  3  0  0  0  0  0  0
   -0.4659   -1.3864    2.5051 C   0  0  0  0  0  0  0  0  0  0  0  0
   -1.9129   -0.8488    1.0765 H   0  0  0  0  0  0  0  0  0  0  0  0
   -1.1739   -1.6094    3.2946 H   0  0  0  0  0  0  0  0  0  0  0  0
    0.5838   -1.5152    2.7413 H   0  0  0  0  0  0  0  0  0  0  0  0
    0.4642    0.8124   -0.0277 C   0  0  0  0  0  0  0  0  0  0  0  0
    0.4642    0.8124   -1.3263 C   0  0  0  0  0  0  0  0  0  0  0  0
    0.4642    0.8124   -2.6250 C   0  0  0  0  0  0  0  0  0  0  0  0
   -0.1994   -0.0825    0.6425 H   0  0  0  0  0  0  0  0  0  0  0  0
    1.0172    1.5582    0.5308 H   0  0  0  0  0  0  0  0  0  0  0  0
   -0.2816    1.3654   -3.1834 H   0  0  0  0  0  0  0  0  0  0  0  0
    1.2100    0.2594   -3.1834 H   0  0  0  0  0  0  0  0  0  0  0  0
  1  2  2  3
  1  3  1  0
  2  4  1  0
  2  5  1  0
  6  7  2  0
  6  9  1  0
  6 10  1  0
  7  8  2  0
  8 11  1  0
  8 12  1  0
M  RAD  1   1   2
M  END
>  <reaction>  (7) 
rxn_1789

>  <mol_properties>  (7) 
{"0": {"label": "*3", "atom_type": "Cd"}, "1": {"label": "*4", "atom_type": "Cd"}, "5": {"label": "*1", "atom_type": "Cd"}, "6": {"label": "*0", "atom_type": "Cdd"}, "8": {"label": "*2", "atom_type": "H0"}}

>  <type>  (7) 
unop_3

>  <geom_source>  (7) 
Heuristics

$$$$

     RDKit          3D

 12 10  0  0  0  0  0  0  0  0999 V2000
   -0.5077   -1.0345    1.5874 C   0  0  0  0  0  3  0  0  0  0  0  0
   -1.8171   -1.1642    1.4626 C   0  0  0  0  0  0  0  0  0  0  0  0
   -0.0031   -1.2384    2.5245 H   0  0  0  0  0  0  0  0  0  0  0  0
   -2.4387   -1.4796    2.2923 H   0  0  0  0  0  0  0  0  0  0  0  0
   -2.3217   -0.9604    0.5255 H   0  0  0  0  0  0  0  0  0  0  0  0
    0.8196    0.7555    0.2471 C   0  0  0  0  0  0  0  0  0  0  0  0
    0.8196    0.7555   -1.0516 C   0  0  0  0  0  0  0  0  0  0  0  0
    0.8196    0.7555   -2.3503 C   0  0  0  0  0  0  0  0  0  0  0  0
    0.1560   -0.1395    0.9172 H   0  0  0  0  0  0  0  0  0  0  0  0
    1.3726    1.5012    0.8055 H   0  0  0  0  0  0  0  0  0  0  0  0
    0.0739    1.3085   -2.9087 H   0  0  0  0  0  0  0  0  0  0  0  0
    1.5654    0.2025   -2.9087 H   0  0  0  0  0  0  0  0  0  0  0  0
  1  2  2  3
  1  3  1  0
  2  4  1  0
  2  5  1  0
  6  7  2  0
  6  9  1  0
  6 10  1  0
  7  8  2  0
  8 11  1  0
  8 12  1  0
M  RAD  1   1   2
M  END
>  <reaction>  (8) 
rxn_1789

>  <mol_properties>  (8) 
{"0": {"label": "*3", "atom_type": "Cd"}, "1": {"label": "*4", "atom_type": "Cd"}, "5": {"label": "*1", "atom_type": "Cd"}, "6": {"label": "*0", "atom_type": "Cdd"}, "8": {"label": "*2", "atom_type": "H0"}}

>  <type>  (8) 
unop_4

>  <geom_source>  (8) 
Heuristics

$$$$

     RDKit          3D

 12 10  0  0  0  0  0  0  0  0999 V2000
   -0.7807   -1.0528    1.2891 C   0  0  0  0  0  3  0  0  0  0  0  0
   -0.7891   -1.0641    2.6108 C   0  0  0  0  0  0  0  0  0  0  0  0
   -1.3266   -1.7890    0.7109 H   0  0  0  0  0  0  0  0  0  0  0  0
   -1.3422   -1.8100    3.1693 H   0  0  0  0  0  0  0  0  0  0  0  0
   -0.2432   -0.3280    3.1890 H   0  0  0  0  0  0  0  0  0  0  0  0
    0.5467    0.7372   -0.0512 C   0  0  0  0  0  0  0  0  0  0  0  0
    0.5467    0.7372   -1.3499 C   0  0  0  0  0  0  0  0  0  0  0  0
    0.5467    0.7372   -2.6485 C   0  0  0  0  0  0  0  0  0  0  0  0
   -0.1170   -0.1577    0.6189 H   0  0  0  0  0  0  0  0  0  0  0  0
    1.0997    1.4830    0.5072 H   0  0  0  0  0  0  0  0  0  0  0  0
   -0.1991    1.2902   -3.2069 H   0  0  0  0  0  0  0  0  0  0  0  0
    1.2924    0.1842   -3.2069 H   0  0  0  0  0  0  0  0  0  0  0  0
  1  2  2  3
  1  3  1  0
  2  4  1  0
  2  5  1  0
  6  7  2  0
  6  9  1  0
  6 10  1  0
  7  8  2  0
  8 11  1  0
  8 12  1  0
M  RAD  1   1   2
M  END
>  <reaction>  (9) 
rxn_1789

>  <mol_properties>  (9) 
{"0": {"label": "*3", "atom_type": "Cd"}, "1": {"label": "*4", "atom_type": "Cd"}, "5": {"label": "*1", "atom_type": "Cd"}, "6": {"label": "*0", "atom_type": "Cdd"}, "8": {"label": "*2", "atom_type": "H0"}}

>  <type>  (9) 
unop_5

>  <geom_source>  (9) 
Heuristics

$$$$

     RDKit          3D

 12 10  0  0  0  0  0  0  0  0999 V2000
   -0.5224   -1.1026    1.4843 C   0  0  0  0  0  3  0  0  0  0  0  0
   -1.7802   -0.9095    1.8416 C   0  0  0  0  0  0  0  0  0  0  0  0
    0.1992   -1.5447    2.1610 H   0  0  0  0  0  0  0  0  0  0  0  0
   -2.1403   -1.1856    2.8257 H   0  0  0  0  0  0  0  0  0  0  0  0
   -2.5019   -0.4674    1.1649 H   0  0  0  0  0  0  0  0  0  0  0  0
    0.8049    0.6874    0.1440 C   0  0  0  0  0  0  0  0  0  0  0  0
    0.8049    0.6874   -1.1547 C   0  0  0  0  0  0  0  0  0  0  0  0
    0.8049    0.6874   -2.4534 C   0  0  0  0  0  0  0  0  0  0  0  0
    0.1413   -0.2075    0.8141 H   0  0  0  0  0  0  0  0  0  0  0  0
    1.3579    1.4332    0.7024 H   0  0  0  0  0  0  0  0  0  0  0  0
    0.0591    1.2404   -3.0118 H   0  0  0  0  0  0  0  0  0  0  0  0
    1.5507    0.1344   -3.0118 H   0  0  0  0  0  0  0  0  0  0  0  0
  1  2  2  3
  1  3  1  0
  2  4  1  0
  2  5  1  0
  6  7  2  0
  6  9  1  0
  6 10  1  0
  7  8  2  0
  8 11  1  0
  8 12  1  0
M  RAD  1   1   2
M  END
>  <reaction>  (10) 
rxn_1789

>  <mol_properties>  (10) 
{"0": {"label": "*3", "atom_type": "Cd"}, "1": {"label": "*4", "atom_type": "Cd"}, "5": {"label": "*1", "atom_type": "Cd"}, "6": {"label": "*0", "atom_type": "Cdd"}, "8": {"label": "*2", "atom_type": "H0"}}

>  <type>  (10) 
unop_6

>  <geom_source>  (10) 
Heuristics

$$$$

     RDKit          3D

 12 10  0  0  0  0  0  0  0  0999 V2000
   -0.5882   -1.1301    1.3835 C   0  0  0  0  0  3  0  0  0  0  0  0
   -1.5522   -0.7939    2.2229 C   0  0  0  0  0  0  0  0  0  0  0  0
    0.1704   -1.8564    1.6505 H   0  0  0  0  0  0  0  0  0  0  0  0
   -1.6226   -1.2310    3.2120 H   0  0  0  0  0  0  0  0  0  0  0  0
   -2.3107   -0.0676    1.9559 H   0  0  0  0  0  0  0  0  0  0  0  0
    0.7391    0.6599    0.0431 C   0  0  0  0  0  0  0  0  0  0  0  0
    0.7391    0.6599   -1.2555 C   0  0  0  0  0  0  0  0  0  0  0  0
    0.7391    0.6599   -2.5542 C   0  0  0  0  0  0  0  0  0  0  0  0
    0.0755   -0.2350    0.7132 H   0  0  0  0  0  0  0  0  0  0  0  0
    1.2921    1.4057    0.6015 H   0  0  0  0  0  0  0  0  0  0  0  0
   -0.0066    1.2129   -3.1126 H   0  0  0  0  0  0  0  0  0  0  0  0
    1.4849    0.1069   -3.1126 H   0  0  0  0  0  0  0  0  0  0  0  0
  1  2  2  3
  1  3  1  0
  2  4  1  0
  2  5  1  0
  6  7  2  0
  6  9  1  0
  6 10  1  0
  7  8  2  0
  8 11  1  0
  8 12  1  0
M  RAD  1   1   2
M  END
>  <reaction>  (11) 
rxn_1789

>  <mol_properties>  (11) 
{"0": {"label": "*3", "atom_type": "Cd"}, "1": {"label": "*4", "atom_type": "Cd"}, "5": {"label": "*1", "atom_type": "Cd"}, "6": {"label": "*0", "atom_type": "Cdd"}, "8": {"label": "*2", "atom_type": "H0"}}

>  <type>  (11) 
unop_7

>  <geom_source>  (11) 
Heuristics

$$$$

     RDKit          3D

 12 10  0  0  0  0  0  0  0  0999 V2000
   -0.9033   -0.8201    1.4843 C   0  0  0  0  0  3  0  0  0  0  0  0
   -0.3533   -1.9676    1.8416 C   0  0  0  0  0  0  0  0  0  0  0  0
   -1.5360   -0.2580    2.1610 H   0  0  0  0  0  0  0  0  0  0  0  0
   -0.5129   -2.3924    2.8257 H   0  0  0  0  0  0  0  0  0  0  0  0
    0.2794   -2.5298    1.1649 H   0  0  0  0  0  0  0  0  0  0  0  0
    0.4240    0.9698    0.1440 C   0  0  0  0  0  0  0  0  0  0  0  0
    0.4240    0.9698   -1.1547 C   0  0  0  0  0  0  0  0  0  0  0  0
    0.4240    0.9698   -2.4534 C   0  0  0  0  0  0  0  0  0  0  0  0
   -0.2396    0.0749    0.8141 H   0  0  0  0  0  0  0  0  0  0  0  0
    0.9770    1.7156    0.7024 H   0  0  0  0  0  0  0  0  0  0  0  0
   -0.3217    1.5229   -3.0118 H   0  0  0  0  0  0  0  0  0  0  0  0
    1.1698    0.4168   -3.0118 H   0  0  0  0  0  0  0  0  0  0  0  0
  1  2  2  3
  1  3  1  0
  2  4  1  0
  2  5  1  0
  6  7  2  0
  6  9  1  0
  6 10  1  0
  7  8  2  0
  8 11  1  0
  8 12  1  0
M  RAD  1   1   2
M  END
>  <reaction>  (12) 
rxn_1789

>  <mol_properties>  (12) 
{"0": {"label": "*3", "atom_type": "Cd"}, "1": {"label": "*4", "atom_type": "Cd"}, "5": {"label": "*1", "atom_type": "Cd"}, "6": {"label": "*0", "atom_type": "Cdd"}, "8": {"label": "*2", "atom_type": "H0"}}

>  <type>  (12) 
unop_8

>  <geom_source>  (12) 
Heuristics

$$$$

     RDKit          3D

 12 10  0  0  0  0  0  0  0  0999 V2000
   -0.5492   -0.9446    1.6640 C   0  0  0  0  0  3  0  0  0  0  0  0
   -1.6542   -1.4901    1.1862 C   0  0  0  0  0  0  0  0  0  0  0  0
   -0.3008   -0.9935    2.7176 H   0  0  0  0  0  0  0  0  0  0  0  0
   -2.3562   -2.0083    1.8289 H   0  0  0  0  0  0  0  0  0  0  0  0
   -1.9027   -1.4412    0.1326 H   0  0  0  0  0  0  0  0  0  0  0  0
    0.7781    0.8454    0.3237 C   0  0  0  0  0  0  0  0  0  0  0  0
    0.7781    0.8454   -0.9750 C   0  0  0  0  0  0  0  0  0  0  0  0
    0.7781    0.8454   -2.2737 C   0  0  0  0  0  0  0  0  0  0  0  0
    0.1145   -0.0495    0.9938 H   0  0  0  0  0  0  0  0  0  0  0  0
    1.3311    1.5912    0.8821 H   0  0  0  0  0  0  0  0  0  0  0  0
    0.0323    1.3984   -2.8321 H   0  0  0  0  0  0  0  0  0  0  0  0
    1.5239    0.2924   -2.8321 H   0  0  0  0  0  0  0  0  0  0  0  0
  1  2  2  3
  1  3  1  0
  2  4  1  0
  2  5  1  0
  6  7  2  0
  6  9  1  0
  6 10  1  0
  7  8  2  0
  8 11  1  0
  8 12  1  0
M  RAD  1   1   2
M  END
>  <reaction>  (13) 
rxn_1789

>  <mol_properties>  (13) 
{"0": {"label": "*3", "atom_type": "Cd"}, "1": {"label": "*4", "atom_type": "Cd"}, "5": {"label": "*1", "atom_type": "Cd"}, "6": {"label": "*0", "atom_type": "Cdd"}, "8": {"label": "*2", "atom_type": "H0"}}

>  <type>  (13) 
unop_9

>  <geom_source>  (13) 
Heuristics

$$$$

     RDKit          3D

 12 10  0  0  0  0  0  0  0  0999 V2000
   -0.8425   -0.7863    1.5874 C   0  0  0  0  0  3  0  0  0  0  0  0
   -0.5863   -2.0769    1.4626 C   0  0  0  0  0  0  0  0  0  0  0  0
   -1.1841   -0.3626    2.5245 H   0  0  0  0  0  0  0  0  0  0  0  0
   -0.7075   -2.7633    2.2923 H   0  0  0  0  0  0  0  0  0  0  0  0
   -0.2447   -2.5006    0.5255 H   0  0  0  0  0  0  0  0  0  0  0  0
    0.4849    1.0037    0.2471 C   0  0  0  0  0  0  0  0  0  0  0  0
    0.4849    1.0037   -1.0516 C   0  0  0  0  0  0  0  0  0  0  0  0
    0.4849    1.0037   -2.3503 C   0  0  0  0  0  0  0  0  0  0  0  0
   -0.1788    0.1088    0.9172 H   0  0  0  0  0  0  0  0  0  0  0  0
    1.0379    1.7495    0.8055 H   0  0  0  0  0  0  0  0  0  0  0  0
   -0.2609    1.5567   -2.9087 H   0  0  0  0  0  0  0  0  0  0  0  0
    1.2306    0.4507   -2.9087 H   0  0  0  0  0  0  0  0  0  0  0  0
  1  2  2  3
  1  3  1  0
  2  4  1  0
  2  5  1  0
  6  7  2  0
  6  9  1  0
  6 10  1  0
  7  8  2  0
  8 11  1  0
  8 12  1  0
M  RAD  1   1   2
M  END
>  <reaction>  (14) 
rxn_1789

>  <mol_properties>  (14) 
{"0": {"label": "*3", "atom_type": "Cd"}, "1": {"label": "*4", "atom_type": "Cd"}, "5": {"label": "*1", "atom_type": "Cd"}, "6": {"label": "*0", "atom_type": "Cdd"}, "8": {"label": "*2", "atom_type": "H0"}}

>  <type>  (14) 
unop_10

>  <geom_source>  (14) 
Heuristics

$$$$

     RDKit          3D

 12 10  0  0  0  0  0  0  0  0999 V2000
   -0.6847   -1.1099    1.3127 C   0  0  0  0  0  3  0  0  0  0  0  0
   -1.1914   -0.8485    2.5051 C   0  0  0  0  0  0  0  0  0  0  0  0
   -0.2567   -2.0769    1.0765 H   0  0  0  0  0  0  0  0  0  0  0  0
   -1.1991   -1.5907    3.2946 H   0  0  0  0  0  0  0  0  0  0  0  0
   -1.6194    0.1186    2.7413 H   0  0  0  0  0  0  0  0  0  0  0  0
    0.6426    0.6801   -0.0277 C   0  0  0  0  0  0  0  0  0  0  0  0
    0.6426    0.6801   -1.3263 C   0  0  0  0  0  0  0  0  0  0  0  0
    0.6426    0.6801   -2.6250 C   0  0  0  0  0  0  0  0  0  0  0  0
   -0.0210   -0.2148    0.6425 H   0  0  0  0  0  0  0  0  0  0  0  0
    1.1956    1.4259    0.5308 H   0  0  0  0  0  0  0  0  0  0  0  0
   -0.1032    1.2331   -3.1834 H   0  0  0  0  0  0  0  0  0  0  0  0
    1.3884    0.1271   -3.1834 H   0  0  0  0  0  0  0  0  0  0  0  0
  1  2  2  3
  1  3  1  0
  2  4  1  0
  2  5  1  0
  6  7  2  0
  6  9  1  0
  6 10  1  0
  7  8  2  0
  8 11  1  0
  8 12  1  0
M  RAD  1   1   2
M  END
>  <reaction>  (15) 
rxn_1789

>  <mol_properties>  (15) 
{"0": {"label": "*3", "atom_type": "Cd"}, "1": {"label": "*4", "atom_type": "Cd"}, "5": {"label": "*1", "atom_type": "Cd"}, "6": {"label": "*0", "atom_type": "Cdd"}, "8": {"label": "*2", "atom_type": "H0"}}

>  <type>  (15) 
unop_11

>  <geom_source>  (15) 
Heuristics

$$$$

     RDKit          3D

 12 10  0  0  0  0  0  0  0  0999 V2000
   -0.6363   -0.8580    1.6923 C   0  0  0  0  0  3  0  0  0  0  0  0
   -1.3356   -1.8011    1.0853 C   0  0  0  0  0  0  0  0  0  0  0  0
   -0.5879   -0.7928    2.7728 H   0  0  0  0  0  0  0  0  0  0  0  0
   -1.8887   -2.5470    1.6438 H   0  0  0  0  0  0  0  0  0  0  0  0
   -1.3840   -1.8664    0.0047 H   0  0  0  0  0  0  0  0  0  0  0  0
    0.6911    0.9320    0.3519 C   0  0  0  0  0  0  0  0  0  0  0  0
    0.6911    0.9320   -0.9467 C   0  0  0  0  0  0  0  0  0  0  0  0
    0.6911    0.9320   -2.2454 C   0  0  0  0  0  0  0  0  0  0  0  0
    0.0275    0.0370    1.0220 H   0  0  0  0  0  0  0  0  0  0  0  0
    1.2441    1.6777    0.9104 H   0  0  0  0  0  0  0  0  0  0  0  0
   -0.0547    1.4850   -2.8038 H   0  0  0  0  0  0  0  0  0  0  0  0
    1.4368    0.3789   -2.8038 H   0  0  0  0  0  0  0  0  0  0  0  0
  1  2  2  3
  1  3  1  0
  2  4  1  0
  2  5  1  0
  6  7  2  0
  6  9  1  0
  6 10  1  0
  7  8  2  0
  8 11  1  0
  8 12  1  0
M  RAD  1   1   2
M  END
>  <reaction>  (16) 
rxn_1789

>  <mol_properties>  (16) 
{"0": {"label": "*3", "atom_type": "Cd"}, "1": {"label": "*4", "atom_type": "Cd"}, "5": {"label": "*1", "atom_type": "Cd"}, "6": {"label": "*0", "atom_type": "Cdd"}, "8": {"label": "*2", "atom_type": "H0"}}

>  <type>  (16) 
unop_12

>  <geom_source>  (16) 
Heuristics

$$$$

     RDKit          3D

 12 10  0  0  0  0  0  0  0  0999 V2000
   -2.0076   -1.1179   -0.7702 C   0  0  0  0  0  0  0  0  0  0  0  0
   -1.4309   -0.3025    0.1088 C   0  0  0  0  0  0  0  0  0  0  0  0
    2.3817    0.0930    0.7915 C   0  0  0  0  0  3  0  0  0  0  0  0
    1.3779    0.8012    0.3584 C   0  0  0  0  0  0  0  0  0  0  0  0
    0.3743    1.5094   -0.0749 C   0  0  0  0  0  0  0  0  0  0  0  0
   -2.5895   -1.9678   -0.4287 H   0  0  0  0  0  0  0  0  0  0  0  0
   -1.8979   -0.9357   -1.8339 H   0  0  0  0  0  0  0  0  0  0  0  0
   -1.5383   -0.4813    1.1737 H   0  0  0  0  0  0  0  0  0  0  0  0
   -0.7471    0.6964   -0.2976 H   0  0  0  0  0  0  0  0  0  0  0  0
    2.2754   -0.5050    1.6863 H   0  0  0  0  0  0  0  0  0  0  0  0
    3.3213    0.1031    0.2564 H   0  0  0  0  0  0  0  0  0  0  0  0
    0.4808    2.1072   -0.9697 H   0  0  0  0  0  0  0  0  0  0  0  0
  1  2  2  3
  1  6  1  0
  1  7  1  0
  2  8  1  0
  2  9  1  0
  3  4  1  0
  3 10  1  0
  3 11  1  0
  4  5  3  0
  5 12  1  0
M  RAD  1   3   2
M  END
>  <reaction>  (17) 
rxn_1789

>  <mol_properties>  (17) 
{"0": {"label": "*3", "atom_type": "Cd"}, "1": {"label": "*4", "atom_type": "Cd"}, "5": {"label": "*1", "atom_type": "Cd"}, "6": {"label": "*0", "atom_type": "Cdd"}, "8": {"label": "*2", "atom_type": "H0"}}

>  <type>  (17) 
unop_13

>  <geom_source>  (17) 
AutoTST

$$$$
