
     RDKit          3D

 13 12  0  0  0  0  0  0  0  0999 V2000
    2.2975   -0.6134    0.7685 C   0  0  0  0  0  0  0  0  0  0  0  0
    1.1676   -0.5248    0.3802 C   0  0  0  0  0  0  0  0  0  0  0  0
   -0.2109   -0.3926   -0.0948 C   0  0  0  0  0  0  0  0  0  0  0  0
   -0.2501    0.2584   -1.4808 C   0  0  0  0  0  0  0  0  0  0  0  0
   -1.0633    0.3831    0.9141 C   0  0  0  0  0  0  0  0  0  0  0  0
    3.2999   -0.6974    1.1133 H   0  0  0  0  0  0  0  0  0  0  0  0
   -0.6209   -1.4038   -0.1814 H   0  0  0  0  0  0  0  0  0  0  0  0
    0.3402   -0.3102   -2.1992 H   0  0  0  0  0  0  0  0  0  0  0  0
    0.1511    1.2724   -1.4369 H   0  0  0  0  0  0  0  0  0  0  0  0
   -1.2791    0.3109   -1.8407 H   0  0  0  0  0  0  0  0  0  0  0  0
   -0.6861    1.4008    1.0287 H   0  0  0  0  0  0  0  0  0  0  0  0
   -1.0492   -0.0971    1.8924 H   0  0  0  0  0  0  0  0  0  0  0  0
   -2.0971    0.4363    0.5680 H   0  0  0  0  0  0  0  0  0  0  0  0
  1  2  3  0
  1  6  1  0
  2  3  1  0
  3  4  1  0
  3  5  1  0
  3  7  1  0
  4  8  1  0
  4  9  1  0
  4 10  1  0
  5 11  1  0
  5 12  1  0
  5 13  1  0
M  END
>  <reaction>  (1) 
rxn_1337

>  <mol_properties>  (1) 
{"2": {"label": "donator", "atom_type": "Cs"}, "6": {"label": "d_hydrogen", "atom_type": "H0"}}

>  <type>  (1) 
r1h

$$$$

     RDKit          3D

 10  9  0  0  0  0  0  0  0  0999 V2000
   -1.2648    0.1959    0.8197 C   0  0  0  0  0  0  0  0  0  0  0  0
   -0.2805    0.0995   -0.3030 C   0  0  0  0  0  3  0  0  0  0  0  0
   -0.0444    1.1347   -1.1797 C   0  0  0  0  0  0  0  0  0  0  0  0
    0.1640    2.0467   -1.9525 C   0  0  0  0  0  0  0  0  0  0  0  0
    0.5686   -1.4168   -0.4488 S   0  0  0  0  0  0  0  0  0  0  0  0
   -2.0466   -0.5638    0.7258 H   0  0  0  0  0  0  0  0  0  0  0  0
   -0.7765    0.0454    1.7871 H   0  0  0  0  0  0  0  0  0  0  0  0
   -1.7371    1.1762    0.8222 H   0  0  0  0  0  0  0  0  0  0  0  0
    0.3433    2.8484   -2.6273 H   0  0  0  0  0  0  0  0  0  0  0  0
    1.3075   -1.0953   -1.5176 H   0  0  0  0  0  0  0  0  0  0  0  0
  1  2  1  0
  1  6  1  0
  1  7  1  0
  1  8  1  0
  2  3  1  0
  2  5  1  0
  3  4  3  0
  4  9  1  0
  5 10  1  0
M  RAD  1   2   2
M  END
>  <reaction>  (2) 
rxn_1337

>  <mol_properties>  (2) 
{"1": {"label": "acceptor", "atom_type": "Cs"}}

>  <type>  (2) 
r2

$$$$

     RDKit          3D

 11 10  0  0  0  0  0  0  0  0999 V2000
   -1.2582   -0.5130    0.2160 C   0  0  0  0  0  0  0  0  0  0  0  0
   -0.1109    0.0509   -0.6210 C   0  0  0  0  0  0  0  0  0  0  0  0
    1.1862   -0.2025   -0.0072 C   0  0  0  0  0  0  0  0  0  0  0  0
    2.2351   -0.4206    0.5274 C   0  0  0  0  0  0  0  0  0  0  0  0
   -0.3298    1.8272   -1.0120 S   0  0  0  0  0  0  0  0  0  0  0  0
   -1.2875   -0.0327    1.1945 H   0  0  0  0  0  0  0  0  0  0  0  0
   -2.2088   -0.3391   -0.2866 H   0  0  0  0  0  0  0  0  0  0  0  0
   -1.1220   -1.5854    0.3655 H   0  0  0  0  0  0  0  0  0  0  0  0
   -0.1222   -0.4181   -1.6078 H   0  0  0  0  0  0  0  0  0  0  0  0
    3.1729   -0.6098    0.9920 H   0  0  0  0  0  0  0  0  0  0  0  0
   -0.1942    2.2663    0.2466 H   0  0  0  0  0  0  0  0  0  0  0  0
  1  2  1  0
  1  6  1  0
  1  7  1  0
  1  8  1  0
  2  3  1  0
  2  5  1  0
  2  9  1  0
  3  4  3  0
  4 10  1  0
  5 11  1  0
M  END
>  <reaction>  (3) 
rxn_1337

>  <mol_properties>  (3) 
{"0": {"label": "a_hydrogen", "atom_type": "H0"}, "2": {"label": "acceptor", "atom_type": "Cs"}}

>  <type>  (3) 
r2h

$$$$

     RDKit          3D

 23 21  0  0  0  0  0  0  0  0999 V2000
   -0.4821    1.1090   -3.1402 C   0  0  0  0  0  0  0  0  0  0  0  0
   -0.2310    1.2884   -1.9768 C   0  0  0  0  0  0  0  0  0  0  0  0
    0.0711    1.4401   -0.5913 C   0  0  0  0  0  3  0  0  0  0  0  0
   -1.0549    1.9687    0.2704 C   0  0  0  0  0  0  0  0  0  0  0  0
    1.4422    1.9991   -0.2764 C   0  0  0  0  0  0  0  0  0  0  0  0
   -0.7100    0.9636   -4.1685 H   0  0  0  0  0  0  0  0  0  0  0  0
    0.1619    0.1644   -0.1498 H   0  0  0  0  0  0  0  0  0  0  0  0
   -1.9915    1.4586    0.0456 H   0  0  0  0  0  0  0  0  0  0  0  0
   -1.2017    3.0400    0.1032 H   0  0  0  0  0  0  0  0  0  0  0  0
   -0.8173    1.8211    1.3264 H   0  0  0  0  0  0  0  0  0  0  0  0
    1.4728    3.0764   -0.4656 H   0  0  0  0  0  0  0  0  0  0  0  0
    2.2114    1.5289   -0.8890 H   0  0  0  0  0  0  0  0  0  0  0  0
    1.6823    1.8319    0.7754 H   0  0  0  0  0  0  0  0  0  0  0  0
    1.2675   -1.6815   -0.6826 C   0  0  0  0  0  0  0  0  0  0  0  0
    0.2917   -1.0834    0.3100 C   0  0  0  0  0  0  0  0  0  0  0  0
    0.7594   -0.9288    1.6491 C   0  0  0  0  0  0  0  0  0  0  0  0
    1.1496   -0.7280    2.7685 C   0  0  0  0  0  0  0  0  0  0  0  0
   -1.3424   -1.8099    0.1469 S   0  0  0  0  0  0  0  0  0  0  0  0
    1.4459   -2.7389   -0.4759 H   0  0  0  0  0  0  0  0  0  0  0  0
    0.8785   -1.5792   -1.6968 H   0  0  0  0  0  0  0  0  0  0  0  0
    2.2194   -1.1539   -0.6232 H   0  0  0  0  0  0  0  0  0  0  0  0
    1.4988   -0.5733    3.7609 H   0  0  0  0  0  0  0  0  0  0  0  0
   -1.8818   -1.2208    1.2212 H   0  0  0  0  0  0  0  0  0  0  0  0
  1  2  3  0
  1  6  1  0
  2  3  1  0
  3  4  1  0
  3  5  1  0
  4  8  1  0
  4  9  1  0
  4 10  1  0
  5 11  1  0
  5 12  1  0
  5 13  1  0
  7 15  1  0
 14 15  1  0
 14 19  1  0
 14 20  1  0
 14 21  1  0
 15 16  1  0
 15 18  1  0
 16 17  3  0
 17 22  1  0
 18 23  1  0
M  RAD  1   3   2
M  END
>  <reaction>  (4) 
rxn_1337

>  <mol_properties>  (4) 
{"1": {"label": "*4", "atom_type": "Ct"}, "2": {"label": "*3", "atom_type": "Cs"}, "6": {"label": "*2", "atom_type": "H0"}, "14": {"label": "*1", "atom_type": "Cs"}, "17": {"label": "*0", "atom_type": "S2s"}}

>  <type>  (4) 
ts

$$$$

     RDKit          3D

 23 21  0  0  0  0  0  0  0  0999 V2000
    0.2547    1.4375   -2.9818 C   0  0  0  0  0  0  0  0  0  0  0  0
    0.2547    1.4375   -1.7837 C   0  0  0  0  0  0  0  0  0  0  0  0
    0.2547    1.4615   -0.3199 C   0  0  0  0  0  3  0  0  0  0  0  0
   -1.0114    2.1379    0.2145 C   0  0  0  0  0  0  0  0  0  0  0  0
    1.5208    2.1379    0.2145 C   0  0  0  0  0  0  0  0  0  0  0  0
    0.2547    1.4375   -4.0451 H   0  0  0  0  0  0  0  0  0  0  0  0
    0.2547    0.2128    0.0880 H   0  0  0  0  0  0  0  0  0  0  0  0
   -1.9085    1.6386   -0.1515 H   0  0  0  0  0  0  0  0  0  0  0  0
   -1.0488    3.1814   -0.1030 H   0  0  0  0  0  0  0  0  0  0  0  0
   -1.0188    2.1099    1.3055 H   0  0  0  0  0  0  0  0  0  0  0  0
    1.5582    3.1814   -0.1030 H   0  0  0  0  0  0  0  0  0  0  0  0
    2.4179    1.6386   -0.1515 H   0  0  0  0  0  0  0  0  0  0  0  0
    1.5281    2.1099    1.3055 H   0  0  0  0  0  0  0  0  0  0  0  0
    1.5044   -1.2868    1.3370 C   0  0  0  0  0  0  0  0  0  0  0  0
    0.2546   -1.0336    0.4952 C   0  0  0  0  0  0  0  0  0  0  0  0
   -0.7987   -0.3858    1.2660 C   0  0  0  0  0  0  0  0  0  0  0  0
   -1.6456    0.1397    1.9295 C   0  0  0  0  0  0  0  0  0  0  0  0
   -0.3579   -2.5493   -0.3315 S   0  0  0  0  0  0  0  0  0  0  0  0
    1.2766   -1.9603    2.1637 H   0  0  0  0  0  0  0  0  0  0  0  0
    2.2836   -1.7380    0.7239 H   0  0  0  0  0  0  0  0  0  0  0  0
    1.8735   -0.3477    1.7528 H   0  0  0  0  0  0  0  0  0  0  0  0
   -2.3979    0.6064    2.5188 H   0  0  0  0  0  0  0  0  0  0  0  0
   -0.7222   -3.1844    0.7906 H   0  0  0  0  0  0  0  0  0  0  0  0
  1  2  3  0
  1  6  1  0
  2  3  1  0
  3  4  1  0
  3  5  1  0
  4  8  1  0
  4  9  1  0
  4 10  1  0
  5 11  1  0
  5 12  1  0
  5 13  1  0
  7 15  1  0
 14 15  1  0
 14 19  1  0
 14 20  1  0
 14 21  1  0
 15 16  1  0
 15 18  1  0
 16 17  3  0
 17 22  1  0
 18 23  1  0
M  RAD  1   3   2
M  END
>  <reaction>  (5) 
rxn_1337

>  <mol_properties>  (5) 
{"1": {"label": "*4", "atom_type": "Ct"}, "2": {"label": "*3", "atom_type": "Cs"}, "6": {"label": "*2", "atom_type": "H0"}, "14": {"label": "*1", "atom_type": "Cs"}, "17": {"label": "*0", "atom_type": "S2s"}}

>  <type>  (5) 
unop_1

>  <geom_source>  (5) 
Heuristics

$$$$

     RDKit          3D

 23 21  0  0  0  0  0  0  0  0999 V2000
    0.0664    1.4162   -3.1608 C   0  0  0  0  0  0  0  0  0  0  0  0
    0.0664    1.4162   -1.9627 C   0  0  0  0  0  0  0  0  0  0  0  0
    0.0664    1.4402   -0.4989 C   0  0  0  0  0  3  0  0  0  0  0  0
   -1.1997    2.1166    0.0355 C   0  0  0  0  0  0  0  0  0  0  0  0
    1.3325    2.1166    0.0355 C   0  0  0  0  0  0  0  0  0  0  0  0
    0.0664    1.4162   -4.2241 H   0  0  0  0  0  0  0  0  0  0  0  0
    0.0663    0.1915   -0.0910 H   0  0  0  0  0  0  0  0  0  0  0  0
   -2.0968    1.6173   -0.3305 H   0  0  0  0  0  0  0  0  0  0  0  0
   -1.2371    3.1601   -0.2821 H   0  0  0  0  0  0  0  0  0  0  0  0
   -1.2071    2.0886    1.1265 H   0  0  0  0  0  0  0  0  0  0  0  0
    1.3699    3.1601   -0.2821 H   0  0  0  0  0  0  0  0  0  0  0  0
    2.2295    1.6173   -0.3305 H   0  0  0  0  0  0  0  0  0  0  0  0
    1.3398    2.0886    1.1265 H   0  0  0  0  0  0  0  0  0  0  0  0
    0.7879   -1.9202   -0.7160 C   0  0  0  0  0  0  0  0  0  0  0  0
    0.0663   -1.0549    0.3161 C   0  0  0  0  0  0  0  0  0  0  0  0
    0.9099   -0.7650    1.4684 C   0  0  0  0  0  0  0  0  0  0  0  0
    1.6264   -0.5516    2.4038 C   0  0  0  0  0  0  0  0  0  0  0  0
   -1.5440   -1.7626    0.8279 S   0  0  0  0  0  0  0  0  0  0  0  0
    1.0532   -2.8859   -0.2846 H   0  0  0  0  0  0  0  0  0  0  0  0
    0.1446   -2.0885   -1.5788 H   0  0  0  0  0  0  0  0  0  0  0  0
    1.7055   -1.4281   -1.0428 H   0  0  0  0  0  0  0  0  0  0  0  0
    2.2627   -0.3621    3.2345 H   0  0  0  0  0  0  0  0  0  0  0  0
   -1.0354   -2.8338    1.4516 H   0  0  0  0  0  0  0  0  0  0  0  0
  1  2  3  0
  1  6  1  0
  2  3  1  0
  3  4  1  0
  3  5  1  0
  4  8  1  0
  4  9  1  0
  4 10  1  0
  5 11  1  0
  5 12  1  0
  5 13  1  0
  7 15  1  0
 14 15  1  0
 14 19  1  0
 14 20  1  0
 14 21  1  0
 15 16  1  0
 15 18  1  0
 16 17  3  0
 17 22  1  0
 18 23  1  0
M  RAD  1   3   2
M  END
>  <reaction>  (6) 
rxn_1337

>  <mol_properties>  (6) 
{"1": {"label": "*4", "atom_type": "Ct"}, "2": {"label": "*3", "atom_type": "Cs"}, "6": {"label": "*2", "atom_type": "H0"}, "14": {"label": "*1", "atom_type": "Cs"}, "17": {"label": "*0", "atom_type": "S2s"}}

>  <type>  (6) 
unop_2

>  <geom_source>  (6) 
Heuristics

$$$$

     RDKit          3D

 23 21  0  0  0  0  0  0  0  0999 V2000
    0.1921    1.5122   -2.8297 C   0  0  0  0  0  0  0  0  0  0  0  0
    0.1921    1.5122   -1.6316 C   0  0  0  0  0  0  0  0  0  0  0  0
    0.1921    1.5361   -0.1678 C   0  0  0  0  0  3  0  0  0  0  0  0
   -1.0740    2.2126    0.3665 C   0  0  0  0  0  0  0  0  0  0  0  0
    1.4582    2.2126    0.3665 C   0  0  0  0  0  0  0  0  0  0  0  0
    0.1921    1.5122   -3.8930 H   0  0  0  0  0  0  0  0  0  0  0  0
    0.1921    0.2875    0.2401 H   0  0  0  0  0  0  0  0  0  0  0  0
   -1.9711    1.7133    0.0006 H   0  0  0  0  0  0  0  0  0  0  0  0
   -1.1114    3.2561    0.0490 H   0  0  0  0  0  0  0  0  0  0  0  0
   -1.0813    2.1846    1.4576 H   0  0  0  0  0  0  0  0  0  0  0  0
    1.4956    3.2561    0.0490 H   0  0  0  0  0  0  0  0  0  0  0  0
    2.3553    1.7132    0.0006 H   0  0  0  0  0  0  0  0  0  0  0  0
    1.4656    2.1846    1.4576 H   0  0  0  0  0  0  0  0  0  0  0  0
    0.9136   -1.0481    1.9911 C   0  0  0  0  0  0  0  0  0  0  0  0
    0.1921   -0.9590    0.6472 C   0  0  0  0  0  0  0  0  0  0  0  0
   -1.2436   -0.7712    0.8117 C   0  0  0  0  0  0  0  0  0  0  0  0
   -2.4197   -0.6247    0.9819 C   0  0  0  0  0  0  0  0  0  0  0  0
    0.5590   -2.3822   -0.4462 S   0  0  0  0  0  0  0  0  0  0  0  0
    0.5587   -1.9097    2.5574 H   0  0  0  0  0  0  0  0  0  0  0  0
    1.9865   -1.1519    1.8338 H   0  0  0  0  0  0  0  0  0  0  0  0
    0.7224   -0.1495    2.5802 H   0  0  0  0  0  0  0  0  0  0  0  0
   -3.4643   -0.4946    1.1331 H   0  0  0  0  0  0  0  0  0  0  0  0
   -0.0580   -3.3020    0.3078 H   0  0  0  0  0  0  0  0  0  0  0  0
  1  2  3  0
  1  6  1  0
  2  3  1  0
  3  4  1  0
  3  5  1  0
  4  8  1  0
  4  9  1  0
  4 10  1  0
  5 11  1  0
  5 12  1  0
  5 13  1  0
  7 15  1  0
 14 15  1  0
 14 19  1  0
 14 20  1  0
 14 21  1  0
 15 16  1  0
 15 18  1  0
 16 17  3  0
 17 22  1  0
 18 23  1  0
M  RAD  1   3   2
M  END
>  <reaction>  (7) 
rxn_1337

>  <mol_properties>  (7) 
{"1": {"label": "*4", "atom_type": "Ct"}, "2": {"label": "*3", "atom_type": "Cs"}, "6": {"label": "*2", "atom_type": "H0"}, "14": {"label": "*1", "atom_type": "Cs"}, "17": {"label": "*0", "atom_type": "S2s"}}

>  <type>  (7) 
unop_3

>  <geom_source>  (7) 
Heuristics

$$$$

     RDKit          3D

 23 21  0  0  0  0  0  0  0  0999 V2000
   -0.0597    1.3271   -3.2027 C   0  0  0  0  0  0  0  0  0  0  0  0
   -0.0597    1.3271   -2.0046 C   0  0  0  0  0  0  0  0  0  0  0  0
   -0.0597    1.3511   -0.5408 C   0  0  0  0  0  3  0  0  0  0  0  0
   -1.3258    2.0275   -0.0064 C   0  0  0  0  0  0  0  0  0  0  0  0
    1.2065    2.0275   -0.0064 C   0  0  0  0  0  0  0  0  0  0  0  0
   -0.0597    1.3271   -4.2660 H   0  0  0  0  0  0  0  0  0  0  0  0
   -0.0597    0.1024   -0.1329 H   0  0  0  0  0  0  0  0  0  0  0  0
   -2.2228    1.5282   -0.3724 H   0  0  0  0  0  0  0  0  0  0  0  0
   -1.3631    3.0711   -0.3240 H   0  0  0  0  0  0  0  0  0  0  0  0
   -1.3331    1.9995    1.0846 H   0  0  0  0  0  0  0  0  0  0  0  0
    1.2438    3.0710   -0.3240 H   0  0  0  0  0  0  0  0  0  0  0  0
    2.1035    1.5282   -0.3724 H   0  0  0  0  0  0  0  0  0  0  0  0
    1.2138    1.9995    1.0846 H   0  0  0  0  0  0  0  0  0  0  0  0
   -1.3095   -1.8452   -0.2558 C   0  0  0  0  0  0  0  0  0  0  0  0
   -0.0597   -1.1440    0.2743 C   0  0  0  0  0  0  0  0  0  0  0  0
    1.0448   -2.0743    0.4695 C   0  0  0  0  0  0  0  0  0  0  0  0
    1.9293   -2.8661    0.6255 C   0  0  0  0  0  0  0  0  0  0  0  0
   -0.3875   -0.1682    1.7896 S   0  0  0  0  0  0  0  0  0  0  0  0
   -1.6623   -2.5877    0.4608 H   0  0  0  0  0  0  0  0  0  0  0  0
   -2.1032   -1.1186   -0.4245 H   0  0  0  0  0  0  0  0  0  0  0  0
   -1.0844   -2.3554   -1.1938 H   0  0  0  0  0  0  0  0  0  0  0  0
    2.7150   -3.5693    0.7641 H   0  0  0  0  0  0  0  0  0  0  0  0
   -0.6532   -1.2180    2.5786 H   0  0  0  0  0  0  0  0  0  0  0  0
  1  2  3  0
  1  6  1  0
  2  3  1  0
  3  4  1  0
  3  5  1  0
  4  8  1  0
  4  9  1  0
  4 10  1  0
  5 11  1  0
  5 12  1  0
  5 13  1  0
  7 15  1  0
 14 15  1  0
 14 19  1  0
 14 20  1  0
 14 21  1  0
 15 16  1  0
 15 18  1  0
 16 17  3  0
 17 22  1  0
 18 23  1  0
M  RAD  1   3   2
M  END
>  <reaction>  (8) 
rxn_1337

>  <mol_properties>  (8) 
{"1": {"label": "*4", "atom_type": "Ct"}, "2": {"label": "*3", "atom_type": "Cs"}, "6": {"label": "*2", "atom_type": "H0"}, "14": {"label": "*1", "atom_type": "Cs"}, "17": {"label": "*0", "atom_type": "S2s"}}

>  <type>  (8) 
unop_4

>  <geom_source>  (8) 
Heuristics

$$$$

     RDKit          3D

 23 21  0  0  0  0  0  0  0  0999 V2000
   -0.0532    1.5479   -2.7552 C   0  0  0  0  0  0  0  0  0  0  0  0
   -0.0532    1.5479   -1.5571 C   0  0  0  0  0  0  0  0  0  0  0  0
   -0.0532    1.5718   -0.0933 C   0  0  0  0  0  3  0  0  0  0  0  0
   -1.3193    2.2483    0.4410 C   0  0  0  0  0  0  0  0  0  0  0  0
    1.2130    2.2482    0.4410 C   0  0  0  0  0  0  0  0  0  0  0  0
   -0.0532    1.5479   -3.8185 H   0  0  0  0  0  0  0  0  0  0  0  0
   -0.0532    0.3232    0.3145 H   0  0  0  0  0  0  0  0  0  0  0  0
   -2.2163    1.7490    0.0751 H   0  0  0  0  0  0  0  0  0  0  0  0
   -1.3566    3.2918    0.1235 H   0  0  0  0  0  0  0  0  0  0  0  0
   -1.3266    2.2203    1.5321 H   0  0  0  0  0  0  0  0  0  0  0  0
    1.2503    3.2917    0.1235 H   0  0  0  0  0  0  0  0  0  0  0  0
    2.1100    1.7489    0.0751 H   0  0  0  0  0  0  0  0  0  0  0  0
    1.2203    2.2202    1.5321 H   0  0  0  0  0  0  0  0  0  0  0  0
   -0.0532   -0.9524    2.2494 C   0  0  0  0  0  0  0  0  0  0  0  0
   -0.0532   -0.9233    0.7217 C   0  0  0  0  0  0  0  0  0  0  0  0
   -1.2242   -1.5880    0.1647 C   0  0  0  0  0  0  0  0  0  0  0  0
   -2.1937   -2.1476   -0.2603 C   0  0  0  0  0  0  0  0  0  0  0  0
    1.4963   -1.5860    0.0036 S   0  0  0  0  0  0  0  0  0  0  0  0
   -0.0178   -1.9806    2.6106 H   0  0  0  0  0  0  0  0  0  0  0  0
    0.8143   -0.4175    2.6340 H   0  0  0  0  0  0  0  0  0  0  0  0
   -0.9620   -0.4861    2.6337 H   0  0  0  0  0  0  0  0  0  0  0  0
   -3.0548   -2.6447   -0.6377 H   0  0  0  0  0  0  0  0  0  0  0  0
    1.3082   -2.8504    0.4050 H   0  0  0  0  0  0  0  0  0  0  0  0
  1  2  3  0
  1  6  1  0
  2  3  1  0
  3  4  1  0
  3  5  1  0
  4  8  1  0
  4  9  1  0
  4 10  1  0
  5 11  1  0
  5 12  1  0
  5 13  1  0
  7 15  1  0
 14 15  1  0
 14 19  1  0
 14 20  1  0
 14 21  1  0
 15 16  1  0
 15 18  1  0
 16 17  3  0
 17 22  1  0
 18 23  1  0
M  RAD  1   3   2
M  END
>  <reaction>  (9) 
rxn_1337

>  <mol_properties>  (9) 
{"1": {"label": "*4", "atom_type": "Ct"}, "2": {"label": "*3", "atom_type": "Cs"}, "6": {"label": "*2", "atom_type": "H0"}, "14": {"label": "*1", "atom_type": "Cs"}, "17": {"label": "*0", "atom_type": "S2s"}}

>  <type>  (9) 
unop_5

>  <geom_source>  (9) 
Heuristics

$$$$

     RDKit          3D

 23 21  0  0  0  0  0  0  0  0999 V2000
   -0.1815    1.3135   -3.1577 C   0  0  0  0  0  0  0  0  0  0  0  0
   -0.1815    1.3135   -1.9596 C   0  0  0  0  0  0  0  0  0  0  0  0
   -0.1815    1.3375   -0.4958 C   0  0  0  0  0  3  0  0  0  0  0  0
   -1.4476    2.0139    0.0385 C   0  0  0  0  0  0  0  0  0  0  0  0
    1.0846    2.0139    0.0385 C   0  0  0  0  0  0  0  0  0  0  0  0
   -0.1815    1.3135   -4.2210 H   0  0  0  0  0  0  0  0  0  0  0  0
   -0.1815    0.0888   -0.0879 H   0  0  0  0  0  0  0  0  0  0  0  0
   -2.3446    1.5146   -0.3274 H   0  0  0  0  0  0  0  0  0  0  0  0
   -1.4849    3.0574   -0.2790 H   0  0  0  0  0  0  0  0  0  0  0  0
   -1.4549    1.9859    1.1296 H   0  0  0  0  0  0  0  0  0  0  0  0
    1.1220    3.0574   -0.2790 H   0  0  0  0  0  0  0  0  0  0  0  0
    1.9817    1.5146   -0.3274 H   0  0  0  0  0  0  0  0  0  0  0  0
    1.0920    1.9859    1.1296 H   0  0  0  0  0  0  0  0  0  0  0  0
   -1.6247   -1.6348    0.4751 C   0  0  0  0  0  0  0  0  0  0  0  0
   -0.1815   -1.1576    0.3192 C   0  0  0  0  0  0  0  0  0  0  0  0
    0.7468   -2.2710    0.1707 C   0  0  0  0  0  0  0  0  0  0  0  0
    1.4832   -3.2084    0.0585 C   0  0  0  0  0  0  0  0  0  0  0  0
    0.3378   -0.0295    1.6659 S   0  0  0  0  0  0  0  0  0  0  0  0
   -1.7306   -2.2393    1.3765 H   0  0  0  0  0  0  0  0  0  0  0  0
   -2.2958   -0.7799    0.5476 H   0  0  0  0  0  0  0  0  0  0  0  0
   -1.9127   -2.2458   -0.3820 H   0  0  0  0  0  0  0  0  0  0  0  0
    2.1373   -4.0410   -0.0411 H   0  0  0  0  0  0  0  0  0  0  0  0
    0.2960   -0.9465    2.6419 H   0  0  0  0  0  0  0  0  0  0  0  0
  1  2  3  0
  1  6  1  0
  2  3  1  0
  3  4  1  0
  3  5  1  0
  4  8  1  0
  4  9  1  0
  4 10  1  0
  5 11  1  0
  5 12  1  0
  5 13  1  0
  7 15  1  0
 14 15  1  0
 14 19  1  0
 14 20  1  0
 14 21  1  0
 15 16  1  0
 15 18  1  0
 16 17  3  0
 17 22  1  0
 18 23  1  0
M  RAD  1   3   2
M  END
>  <reaction>  (10) 
rxn_1337

>  <mol_properties>  (10) 
{"1": {"label": "*4", "atom_type": "Ct"}, "2": {"label": "*3", "atom_type": "Cs"}, "6": {"label": "*2", "atom_type": "H0"}, "14": {"label": "*1", "atom_type": "Cs"}, "17": {"label": "*0", "atom_type": "S2s"}}

>  <type>  (10) 
unop_6

>  <geom_source>  (10) 
Heuristics

$$$$

     RDKit          3D

 23 21  0  0  0  0  0  0  0  0999 V2000
   -0.2771    1.3519   -3.0408 C   0  0  0  0  0  0  0  0  0  0  0  0
   -0.2771    1.3519   -1.8427 C   0  0  0  0  0  0  0  0  0  0  0  0
   -0.2771    1.3758   -0.3789 C   0  0  0  0  0  3  0  0  0  0  0  0
   -1.5432    2.0523    0.1554 C   0  0  0  0  0  0  0  0  0  0  0  0
    0.9891    2.0523    0.1554 C   0  0  0  0  0  0  0  0  0  0  0  0
   -0.2771    1.3519   -4.1041 H   0  0  0  0  0  0  0  0  0  0  0  0
   -0.2771    0.1272    0.0290 H   0  0  0  0  0  0  0  0  0  0  0  0
   -2.4402    1.5530   -0.2105 H   0  0  0  0  0  0  0  0  0  0  0  0
   -1.5805    3.0958   -0.1621 H   0  0  0  0  0  0  0  0  0  0  0  0
   -1.5505    2.0243    1.2465 H   0  0  0  0  0  0  0  0  0  0  0  0
    1.0264    3.0958   -0.1621 H   0  0  0  0  0  0  0  0  0  0  0  0
    1.8861    1.5529   -0.2105 H   0  0  0  0  0  0  0  0  0  0  0  0
    0.9964    2.0243    1.2465 H   0  0  0  0  0  0  0  0  0  0  0  0
   -1.5269   -1.3724    1.2779 C   0  0  0  0  0  0  0  0  0  0  0  0
   -0.2771   -1.1193    0.4361 C   0  0  0  0  0  0  0  0  0  0  0  0
    0.2828   -2.3564   -0.0924 C   0  0  0  0  0  0  0  0  0  0  0  0
    0.7213   -3.3916   -0.5047 C   0  0  0  0  0  0  0  0  0  0  0  0
    0.9884   -0.1407    1.3288 S   0  0  0  0  0  0  0  0  0  0  0  0
   -1.2842   -1.9889    2.1440 H   0  0  0  0  0  0  0  0  0  0  0  0
   -1.9405   -0.4272    1.6274 H   0  0  0  0  0  0  0  0  0  0  0  0
   -2.2789   -1.8961    0.6854 H   0  0  0  0  0  0  0  0  0  0  0  0
    1.1107   -4.3109   -0.8708 H   0  0  0  0  0  0  0  0  0  0  0  0
    1.2734   -1.0786    2.2422 H   0  0  0  0  0  0  0  0  0  0  0  0
  1  2  3  0
  1  6  1  0
  2  3  1  0
  3  4  1  0
  3  5  1  0
  4  8  1  0
  4  9  1  0
  4 10  1  0
  5 11  1  0
  5 12  1  0
  5 13  1  0
  7 15  1  0
 14 15  1  0
 14 19  1  0
 14 20  1  0
 14 21  1  0
 15 16  1  0
 15 18  1  0
 16 17  3  0
 17 22  1  0
 18 23  1  0
M  RAD  1   3   2
M  END
>  <reaction>  (11) 
rxn_1337

>  <mol_properties>  (11) 
{"1": {"label": "*4", "atom_type": "Ct"}, "2": {"label": "*3", "atom_type": "Cs"}, "6": {"label": "*2", "atom_type": "H0"}, "14": {"label": "*1", "atom_type": "Cs"}, "17": {"label": "*0", "atom_type": "S2s"}}

>  <type>  (11) 
unop_7

>  <geom_source>  (11) 
Heuristics

$$$$

     RDKit          3D

 23 21  0  0  0  0  0  0  0  0999 V2000
    0.2035    1.3992   -3.0986 C   0  0  0  0  0  0  0  0  0  0  0  0
    0.2035    1.3992   -1.9005 C   0  0  0  0  0  0  0  0  0  0  0  0
    0.2035    1.4232   -0.4367 C   0  0  0  0  0  3  0  0  0  0  0  0
   -1.0626    2.0996    0.0976 C   0  0  0  0  0  0  0  0  0  0  0  0
    1.4696    2.0996    0.0976 C   0  0  0  0  0  0  0  0  0  0  0  0
    0.2035    1.3992   -4.1619 H   0  0  0  0  0  0  0  0  0  0  0  0
    0.2035    0.1745   -0.0288 H   0  0  0  0  0  0  0  0  0  0  0  0
   -1.9597    1.6003   -0.2683 H   0  0  0  0  0  0  0  0  0  0  0  0
   -1.1000    3.1432   -0.2199 H   0  0  0  0  0  0  0  0  0  0  0  0
   -1.0700    2.0716    1.1887 H   0  0  0  0  0  0  0  0  0  0  0  0
    1.5070    3.1431   -0.2199 H   0  0  0  0  0  0  0  0  0  0  0  0
    2.3667    1.6003   -0.2683 H   0  0  0  0  0  0  0  0  0  0  0  0
    1.4769    2.0716    1.1887 H   0  0  0  0  0  0  0  0  0  0  0  0
    1.6466   -1.5491    0.5342 C   0  0  0  0  0  0  0  0  0  0  0  0
    0.2034   -1.0719    0.3783 C   0  0  0  0  0  0  0  0  0  0  0  0
   -0.2415   -0.2985    1.5304 C   0  0  0  0  0  0  0  0  0  0  0  0
   -0.5777    0.3261    2.4950 C   0  0  0  0  0  0  0  0  0  0  0  0
   -0.9555   -2.4404    0.0040 S   0  0  0  0  0  0  0  0  0  0  0  0
    1.7378   -2.2107    1.3962 H   0  0  0  0  0  0  0  0  0  0  0  0
    1.9596   -2.0919   -0.3568 H   0  0  0  0  0  0  0  0  0  0  0  0
    2.3097   -0.6959    0.6864 H   0  0  0  0  0  0  0  0  0  0  0  0
   -0.8764    0.8809    3.3517 H   0  0  0  0  0  0  0  0  0  0  0  0
   -0.8360   -3.0543    1.1890 H   0  0  0  0  0  0  0  0  0  0  0  0
  1  2  3  0
  1  6  1  0
  2  3  1  0
  3  4  1  0
  3  5  1  0
  4  8  1  0
  4  9  1  0
  4 10  1  0
  5 11  1  0
  5 12  1  0
  5 13  1  0
  7 15  1  0
 14 15  1  0
 14 19  1  0
 14 20  1  0
 14 21  1  0
 15 16  1  0
 15 18  1  0
 16 17  3  0
 17 22  1  0
 18 23  1  0
M  RAD  1   3   2
M  END
>  <reaction>  (12) 
rxn_1337

>  <mol_properties>  (12) 
{"1": {"label": "*4", "atom_type": "Ct"}, "2": {"label": "*3", "atom_type": "Cs"}, "6": {"label": "*2", "atom_type": "H0"}, "14": {"label": "*1", "atom_type": "Cs"}, "17": {"label": "*0", "atom_type": "S2s"}}

>  <type>  (12) 
unop_8

>  <geom_source>  (12) 
Heuristics

$$$$

     RDKit          3D

 23 21  0  0  0  0  0  0  0  0999 V2000
    0.0267    1.3737   -3.1901 C   0  0  0  0  0  0  0  0  0  0  0  0
    0.0267    1.3737   -1.9920 C   0  0  0  0  0  0  0  0  0  0  0  0
    0.0267    1.3976   -0.5282 C   0  0  0  0  0  3  0  0  0  0  0  0
   -1.2394    2.0741    0.0061 C   0  0  0  0  0  0  0  0  0  0  0  0
    1.2928    2.0740    0.0061 C   0  0  0  0  0  0  0  0  0  0  0  0
    0.0267    1.3737   -4.2534 H   0  0  0  0  0  0  0  0  0  0  0  0
    0.0267    0.1489   -0.1204 H   0  0  0  0  0  0  0  0  0  0  0  0
   -2.1365    1.5748   -0.3598 H   0  0  0  0  0  0  0  0  0  0  0  0
   -1.2768    3.1176   -0.3114 H   0  0  0  0  0  0  0  0  0  0  0  0
   -1.2468    2.0461    1.0972 H   0  0  0  0  0  0  0  0  0  0  0  0
    1.3302    3.1175   -0.3114 H   0  0  0  0  0  0  0  0  0  0  0  0
    2.1899    1.5747   -0.3598 H   0  0  0  0  0  0  0  0  0  0  0  0
    1.3001    2.0460    1.0972 H   0  0  0  0  0  0  0  0  0  0  0  0
   -0.6949   -1.9628   -0.7453 C   0  0  0  0  0  0  0  0  0  0  0  0
    0.0266   -1.0975    0.2868 C   0  0  0  0  0  0  0  0  0  0  0  0
    1.2302   -1.7443    0.7933 C   0  0  0  0  0  0  0  0  0  0  0  0
    2.2084   -2.3066    1.1940 C   0  0  0  0  0  0  0  0  0  0  0  0
   -1.0717   -0.5656    1.6530 S   0  0  0  0  0  0  0  0  0  0  0  0
   -1.0222   -2.9001   -0.2944 H   0  0  0  0  0  0  0  0  0  0  0  0
   -1.5681   -1.4370   -1.1297 H   0  0  0  0  0  0  0  0  0  0  0  0
   -0.0239   -2.1976   -1.5733 H   0  0  0  0  0  0  0  0  0  0  0  0
    3.0773   -2.8059    1.5499 H   0  0  0  0  0  0  0  0  0  0  0  0
   -1.2516   -1.7872    2.1731 H   0  0  0  0  0  0  0  0  0  0  0  0
  1  2  3  0
  1  6  1  0
  2  3  1  0
  3  4  1  0
  3  5  1  0
  4  8  1  0
  4  9  1  0
  4 10  1  0
  5 11  1  0
  5 12  1  0
  5 13  1  0
  7 15  1  0
 14 15  1  0
 14 19  1  0
 14 20  1  0
 14 21  1  0
 15 16  1  0
 15 18  1  0
 16 17  3  0
 17 22  1  0
 18 23  1  0
M  RAD  1   3   2
M  END
>  <reaction>  (13) 
rxn_1337

>  <mol_properties>  (13) 
{"1": {"label": "*4", "atom_type": "Ct"}, "2": {"label": "*3", "atom_type": "Cs"}, "6": {"label": "*2", "atom_type": "H0"}, "14": {"label": "*1", "atom_type": "Cs"}, "17": {"label": "*0", "atom_type": "S2s"}}

>  <type>  (13) 
unop_9

>  <geom_source>  (13) 
Heuristics

$$$$

     RDKit          3D

 23 21  0  0  0  0  0  0  0  0999 V2000
    0.1209    1.3988   -3.1533 C   0  0  0  0  0  0  0  0  0  0  0  0
    0.1209    1.3988   -1.9552 C   0  0  0  0  0  0  0  0  0  0  0  0
    0.1209    1.4228   -0.4914 C   0  0  0  0  0  3  0  0  0  0  0  0
   -1.1452    2.0992    0.0430 C   0  0  0  0  0  0  0  0  0  0  0  0
    1.3870    2.0992    0.0430 C   0  0  0  0  0  0  0  0  0  0  0  0
    0.1209    1.3988   -4.2166 H   0  0  0  0  0  0  0  0  0  0  0  0
    0.1209    0.1741   -0.0835 H   0  0  0  0  0  0  0  0  0  0  0  0
   -2.0423    1.5999   -0.3230 H   0  0  0  0  0  0  0  0  0  0  0  0
   -1.1826    3.1427   -0.2745 H   0  0  0  0  0  0  0  0  0  0  0  0
   -1.1526    2.0712    1.1340 H   0  0  0  0  0  0  0  0  0  0  0  0
    1.4244    3.1427   -0.2745 H   0  0  0  0  0  0  0  0  0  0  0  0
    2.2841    1.5999   -0.3230 H   0  0  0  0  0  0  0  0  0  0  0  0
    1.3943    2.0712    1.1340 H   0  0  0  0  0  0  0  0  0  0  0  0
    1.3706   -1.7736   -0.2064 C   0  0  0  0  0  0  0  0  0  0  0  0
    0.1208   -1.0723    0.3237 C   0  0  0  0  0  0  0  0  0  0  0  0
    0.3628   -0.4249    1.6065 C   0  0  0  0  0  0  0  0  0  0  0  0
    0.5930    0.0896    2.6629 C   0  0  0  0  0  0  0  0  0  0  0  0
   -1.3331   -2.1842    0.3999 S   0  0  0  0  0  0  0  0  0  0  0  0
    1.6827   -2.5638    0.4773 H   0  0  0  0  0  0  0  0  0  0  0  0
    1.1669   -2.2157   -1.1808 H   0  0  0  0  0  0  0  0  0  0  0  0
    2.1904   -1.0594   -0.3004 H   0  0  0  0  0  0  0  0  0  0  0  0
    0.7974    0.5465    3.6012 H   0  0  0  0  0  0  0  0  0  0  0  0
   -0.8511   -2.9806    1.3636 H   0  0  0  0  0  0  0  0  0  0  0  0
  1  2  3  0
  1  6  1  0
  2  3  1  0
  3  4  1  0
  3  5  1  0
  4  8  1  0
  4  9  1  0
  4 10  1  0
  5 11  1  0
  5 12  1  0
  5 13  1  0
  7 15  1  0
 14 15  1  0
 14 19  1  0
 14 20  1  0
 14 21  1  0
 15 16  1  0
 15 18  1  0
 16 17  3  0
 17 22  1  0
 18 23  1  0
M  RAD  1   3   2
M  END
>  <reaction>  (14) 
rxn_1337

>  <mol_properties>  (14) 
{"1": {"label": "*4", "atom_type": "Ct"}, "2": {"label": "*3", "atom_type": "Cs"}, "6": {"label": "*2", "atom_type": "H0"}, "14": {"label": "*1", "atom_type": "Cs"}, "17": {"label": "*0", "atom_type": "S2s"}}

>  <type>  (14) 
unop_10

>  <geom_source>  (14) 
Heuristics

$$$$

     RDKit          3D

 23 21  0  0  0  0  0  0  0  0999 V2000
   -0.2656    1.4489   -2.8734 C   0  0  0  0  0  0  0  0  0  0  0  0
   -0.2656    1.4489   -1.6753 C   0  0  0  0  0  0  0  0  0  0  0  0
   -0.2656    1.4728   -0.2115 C   0  0  0  0  0  3  0  0  0  0  0  0
   -1.5317    2.1493    0.3229 C   0  0  0  0  0  0  0  0  0  0  0  0
    1.0006    2.1492    0.3229 C   0  0  0  0  0  0  0  0  0  0  0  0
   -0.2656    1.4489   -3.9367 H   0  0  0  0  0  0  0  0  0  0  0  0
   -0.2656    0.2241    0.1964 H   0  0  0  0  0  0  0  0  0  0  0  0
   -2.4287    1.6500   -0.0431 H   0  0  0  0  0  0  0  0  0  0  0  0
   -1.5690    3.1928    0.0053 H   0  0  0  0  0  0  0  0  0  0  0  0
   -1.5390    2.1213    1.4139 H   0  0  0  0  0  0  0  0  0  0  0  0
    1.0379    3.1927    0.0053 H   0  0  0  0  0  0  0  0  0  0  0  0
    1.8976    1.6499   -0.0431 H   0  0  0  0  0  0  0  0  0  0  0  0
    1.0079    2.1212    1.4139 H   0  0  0  0  0  0  0  0  0  0  0  0
   -0.9872   -1.1114    1.9475 C   0  0  0  0  0  0  0  0  0  0  0  0
   -0.2656   -1.0223    0.6036 C   0  0  0  0  0  0  0  0  0  0  0  0
   -0.4478   -2.2288   -0.1930 C   0  0  0  0  0  0  0  0  0  0  0  0
   -0.6111   -3.2367   -0.8186 C   0  0  0  0  0  0  0  0  0  0  0  0
    1.5082   -0.6007    0.7819 S   0  0  0  0  0  0  0  0  0  0  0  0
   -0.5834   -1.9309    2.5428 H   0  0  0  0  0  0  0  0  0  0  0  0
   -0.8615   -0.1823    2.5021 H   0  0  0  0  0  0  0  0  0  0  0  0
   -2.0514   -1.2948    1.7907 H   0  0  0  0  0  0  0  0  0  0  0  0
   -0.7561   -4.1318   -1.3741 H   0  0  0  0  0  0  0  0  0  0  0  0
    1.8653   -1.7444    1.3815 H   0  0  0  0  0  0  0  0  0  0  0  0
  1  2  3  0
  1  6  1  0
  2  3  1  0
  3  4  1  0
  3  5  1  0
  4  8  1  0
  4  9  1  0
  4 10  1  0
  5 11  1  0
  5 12  1  0
  5 13  1  0
  7 15  1  0
 14 15  1  0
 14 19  1  0
 14 20  1  0
 14 21  1  0
 15 16  1  0
 15 18  1  0
 16 17  3  0
 17 22  1  0
 18 23  1  0
M  RAD  1   3   2
M  END
>  <reaction>  (15) 
rxn_1337

>  <mol_properties>  (15) 
{"1": {"label": "*4", "atom_type": "Ct"}, "2": {"label": "*3", "atom_type": "Cs"}, "6": {"label": "*2", "atom_type": "H0"}, "14": {"label": "*1", "atom_type": "Cs"}, "17": {"label": "*0", "atom_type": "S2s"}}

>  <type>  (15) 
unop_11

>  <geom_source>  (15) 
Heuristics

$$$$

     RDKit          3D

 23 21  0  0  0  0  0  0  0  0999 V2000
    0.0532    1.4140   -3.1650 C   0  0  0  0  0  0  0  0  0  0  0  0
    0.0532    1.4140   -1.9669 C   0  0  0  0  0  0  0  0  0  0  0  0
    0.0532    1.4380   -0.5031 C   0  0  0  0  0  3  0  0  0  0  0  0
   -1.2129    2.1144    0.0313 C   0  0  0  0  0  0  0  0  0  0  0  0
    1.3194    2.1144    0.0313 C   0  0  0  0  0  0  0  0  0  0  0  0
    0.0532    1.4140   -4.2283 H   0  0  0  0  0  0  0  0  0  0  0  0
    0.0532    0.1893   -0.0952 H   0  0  0  0  0  0  0  0  0  0  0  0
   -2.1099    1.6151   -0.3347 H   0  0  0  0  0  0  0  0  0  0  0  0
   -1.2502    3.1579   -0.2862 H   0  0  0  0  0  0  0  0  0  0  0  0
   -1.2202    2.0864    1.1223 H   0  0  0  0  0  0  0  0  0  0  0  0
    1.3567    3.1579   -0.2862 H   0  0  0  0  0  0  0  0  0  0  0  0
    2.2164    1.6151   -0.3347 H   0  0  0  0  0  0  0  0  0  0  0  0
    1.3267    2.0864    1.1223 H   0  0  0  0  0  0  0  0  0  0  0  0
    0.0532   -1.9824   -0.9040 C   0  0  0  0  0  0  0  0  0  0  0  0
    0.0532   -1.0571    0.3120 C   0  0  0  0  0  0  0  0  0  0  0  0
    1.2242   -1.2649    1.1540 C   0  0  0  0  0  0  0  0  0  0  0  0
    2.1937   -1.4658    1.8274 C   0  0  0  0  0  0  0  0  0  0  0  0
   -1.4963   -1.1681    1.2828 S   0  0  0  0  0  0  0  0  0  0  0  0
    0.0177   -3.0257   -0.5885 H   0  0  0  0  0  0  0  0  0  0  0  0
   -0.8143   -1.7777   -1.5301 H   0  0  0  0  0  0  0  0  0  0  0  0
    0.9619   -1.8330   -1.4894 H   0  0  0  0  0  0  0  0  0  0  0  0
    3.0547   -1.6441    2.4255 H   0  0  0  0  0  0  0  0  0  0  0  0
   -1.3082   -2.4257    1.7052 H   0  0  0  0  0  0  0  0  0  0  0  0
  1  2  3  0
  1  6  1  0
  2  3  1  0
  3  4  1  0
  3  5  1  0
  4  8  1  0
  4  9  1  0
  4 10  1  0
  5 11  1  0
  5 12  1  0
  5 13  1  0
  7 15  1  0
 14 15  1  0
 14 19  1  0
 14 20  1  0
 14 21  1  0
 15 16  1  0
 15 18  1  0
 16 17  3  0
 17 22  1  0
 18 23  1  0
M  RAD  1   3   2
M  END
>  <reaction>  (16) 
rxn_1337

>  <mol_properties>  (16) 
{"1": {"label": "*4", "atom_type": "Ct"}, "2": {"label": "*3", "atom_type": "Cs"}, "6": {"label": "*2", "atom_type": "H0"}, "14": {"label": "*1", "atom_type": "Cs"}, "17": {"label": "*0", "atom_type": "S2s"}}

>  <type>  (16) 
unop_12

>  <geom_source>  (16) 
Heuristics

$$$$

     RDKit          3D

 23 21  0  0  0  0  0  0  0  0999 V2000
    0.7613   -1.6393   -1.4513 S   0  0  0  0  0  0  0  0  0  0  0  0
    1.2589   -0.3709   -0.2416 C   0  0  0  0  0  0  0  0  0  0  0  0
    2.1519    0.6760   -0.9008 C   0  0  0  0  0  0  0  0  0  0  0  0
   -1.4275    1.7879   -0.2722 C   0  0  0  0  0  0  0  0  0  0  0  0
   -1.7169    0.1426    1.6234 C   0  0  0  0  0  0  0  0  0  0  0  0
   -1.1807    0.3589    0.2092 C   0  0  0  0  0  3  0  0  0  0  0  0
    1.9543   -1.0077    0.8838 C   0  0  0  0  0  0  0  0  0  0  0  0
   -1.7758   -0.6104   -0.7230 C   0  0  0  0  0  0  0  0  0  0  0  0
    2.5248   -1.5301    1.8085 C   0  0  0  0  0  0  0  0  0  0  0  0
   -2.2629   -1.4055   -1.4875 C   0  0  0  0  0  0  0  0  0  0  0  0
    0.1635    0.2268    0.2184 H   0  0  0  0  0  0  0  0  0  0  0  0
    2.4161    1.4670   -0.1668 H   0  0  0  0  0  0  0  0  0  0  0  0
    1.6106    1.1519   -1.7456 H   0  0  0  0  0  0  0  0  0  0  0  0
    3.0861    0.2134   -1.2862 H   0  0  0  0  0  0  0  0  0  0  0  0
   -2.5164    2.0089   -0.3095 H   0  0  0  0  0  0  0  0  0  0  0  0
   -0.9939    1.9266   -1.2854 H   0  0  0  0  0  0  0  0  0  0  0  0
   -0.9355    2.5079    0.4152 H   0  0  0  0  0  0  0  0  0  0  0  0
   -2.8166    0.3021    1.6570 H   0  0  0  0  0  0  0  0  0  0  0  0
   -1.2270    0.8502    2.3251 H   0  0  0  0  0  0  0  0  0  0  0  0
   -1.4894   -0.8910    1.9608 H   0  0  0  0  0  0  0  0  0  0  0  0
    2.0798   -2.0733   -1.6932 H   0  0  0  0  0  0  0  0  0  0  0  0
    3.0257   -1.9888    2.6201 H   0  0  0  0  0  0  0  0  0  0  0  0
   -2.6906   -2.1032   -2.1584 H   0  0  0  0  0  0  0  0  0  0  0  0
  1  2  1  0
  1 21  1  0
  2  3  1  0
  2  7  1  0
  2 11  1  0
  3 12  1  0
  3 13  1  0
  3 14  1  0
  4  6  1  0
  4 15  1  0
  4 16  1  0
  4 17  1  0
  5  6  1  0
  5 18  1  0
  5 19  1  0
  5 20  1  0
  6  8  1  0
  7  9  3  0
  8 10  3  0
  9 22  1  0
 10 23  1  0
M  RAD  1   6   2
M  END
>  <reaction>  (17) 
rxn_1337

>  <mol_properties>  (17) 
{"1": {"label": "*4", "atom_type": "Ct"}, "2": {"label": "*3", "atom_type": "Cs"}, "6": {"label": "*2", "atom_type": "H0"}, "14": {"label": "*1", "atom_type": "Cs"}, "17": {"label": "*0", "atom_type": "S2s"}}

>  <type>  (17) 
unop_13

>  <geom_source>  (17) 
AutoTST

$$$$
