
     RDKit          3D

 22 23  0  0  0  0  0  0  0  0999 V2000
   -2.1093   -0.3263    0.3079 C   0  0  0  0  0  0  0  0  0  0  0  0
   -1.3270    0.9803    0.4115 C   0  0  0  0  0  0  0  0  0  0  0  0
   -0.1818    0.8289   -0.6044 C   0  0  0  0  0  0  0  0  0  0  0  0
    1.1682    1.3904   -0.1341 C   0  0  0  0  0  0  0  0  0  0  0  0
    1.8508    0.2041    0.5479 C   0  0  0  0  0  0  0  0  0  0  0  0
    1.4982   -0.9663   -0.3710 C   0  0  0  0  0  0  0  0  0  0  0  0
    0.0340   -0.7124   -0.7594 C   0  0  0  0  0  0  0  0  0  0  0  0
   -0.9986   -1.3650    0.1756 C   0  0  0  0  0  0  0  0  0  0  0  0
   -2.7686   -0.5042    1.1589 H   0  0  0  0  0  0  0  0  0  0  0  0
   -2.7285   -0.3223   -0.5943 H   0  0  0  0  0  0  0  0  0  0  0  0
   -1.9339    1.8682    0.2289 H   0  0  0  0  0  0  0  0  0  0  0  0
   -0.9144    1.0729    1.4218 H   0  0  0  0  0  0  0  0  0  0  0  0
   -0.4804    1.2763   -1.5535 H   0  0  0  0  0  0  0  0  0  0  0  0
    1.7667    1.7058   -0.9931 H   0  0  0  0  0  0  0  0  0  0  0  0
    1.0540    2.2578    0.5189 H   0  0  0  0  0  0  0  0  0  0  0  0
    1.4197    0.0438    1.5410 H   0  0  0  0  0  0  0  0  0  0  0  0
    2.9248    0.3413    0.6788 H   0  0  0  0  0  0  0  0  0  0  0  0
    2.1362   -0.9329   -1.2584 H   0  0  0  0  0  0  0  0  0  0  0  0
    1.6421   -1.9421    0.0966 H   0  0  0  0  0  0  0  0  0  0  0  0
   -0.1575   -1.0299   -1.7854 H   0  0  0  0  0  0  0  0  0  0  0  0
   -1.3459   -2.3310   -0.1933 H   0  0  0  0  0  0  0  0  0  0  0  0
   -0.5489   -1.5373    1.1593 H   0  0  0  0  0  0  0  0  0  0  0  0
  1  2  1  0
  1  8  1  0
  1  9  1  0
  1 10  1  0
  2  3  1  0
  2 11  1  0
  2 12  1  0
  3  4  1  0
  3  7  1  0
  3 13  1  0
  4  5  1  0
  4 14  1  0
  4 15  1  0
  5  6  1  0
  5 16  1  0
  5 17  1  0
  6  7  1  0
  6 18  1  0
  6 19  1  0
  7  8  1  0
  7 20  1  0
  8 21  1  0
  8 22  1  0
M  END
>  <reaction>  (1) 
rxn_572

>  <mol_properties>  (1) 
{"2": {"label": "donator", "atom_type": "Cs"}, "12": {"label": "d_hydrogen", "atom_type": "H0"}}

>  <type>  (1) 
r1h

$$$$

     RDKit          3D

  5  4  0  0  0  0  0  0  0  0999 V2000
    0.0397    0.7134    0.0000 C   0  0  0  0  0  3  0  0  0  0  0  0
    0.0458   -0.5870    0.0000 C   0  0  0  0  0  0  0  0  0  0  0  0
   -0.6871    1.5118    0.0000 H   0  0  0  0  0  0  0  0  0  0  0  0
   -0.8806   -1.1637    0.0000 H   0  0  0  0  0  0  0  0  0  0  0  0
    0.9690   -1.1600    0.0000 H   0  0  0  0  0  0  0  0  0  0  0  0
  1  2  2  3
  1  3  1  0
  2  4  1  0
  2  5  1  0
M  RAD  1   1   2
M  END
>  <reaction>  (2) 
rxn_572

>  <mol_properties>  (2) 
{"0": {"label": "acceptor", "atom_type": "Cd"}}

>  <type>  (2) 
r2

$$$$

     RDKit          3D

  6  5  0  0  0  0  0  0  0  0999 V2000
    0.6594    0.0438   -0.0050 C   0  0  0  0  0  0  0  0  0  0  0  0
   -0.6594   -0.0438    0.0050 C   0  0  0  0  0  0  0  0  0  0  0  0
    1.1706    0.8681   -0.4881 H   0  0  0  0  0  0  0  0  0  0  0  0
    1.2824   -0.7051    0.4696 H   0  0  0  0  0  0  0  0  0  0  0  0
   -1.2824    0.7051   -0.4696 H   0  0  0  0  0  0  0  0  0  0  0  0
   -1.1706   -0.8681    0.4881 H   0  0  0  0  0  0  0  0  0  0  0  0
  1  2  2  3
  1  3  1  0
  1  4  1  0
  2  5  1  0
  2  6  1  0
M  END
>  <reaction>  (3) 
rxn_572

>  <mol_properties>  (3) 
{"0": {"label": "acceptor", "atom_type": "Cd"}, "5": {"label": "a_hydrogen", "atom_type": "H0"}}

>  <type>  (3) 
r2h

$$$$

     RDKit          3D

 27 27  0  0  0  0  0  0  0  0999 V2000
   -2.3684   -0.9688    1.1162 C   0  0  0  0  0  3  0  0  0  0  0  0
   -3.1141   -1.1672    0.0549 C   0  0  0  0  0  0  0  0  0  0  0  0
   -2.6403   -1.0901    2.1586 H   0  0  0  0  0  0  0  0  0  0  0  0
   -4.1500   -1.4930    0.1254 H   0  0  0  0  0  0  0  0  0  0  0  0
   -2.7253   -1.0133   -0.9480 H   0  0  0  0  0  0  0  0  0  0  0  0
    0.6729   -1.3635   -1.5036 C   0  0  0  0  0  0  0  0  0  0  0  0
    0.8559   -1.4284    0.0128 C   0  0  0  0  0  0  0  0  0  0  0  0
    0.1377   -0.1876    0.5331 C   0  0  1  0  0  0  0  0  0  0  0  0
    0.7716    0.5679    1.6936 C   0  0  0  0  0  0  0  0  0  0  0  0
    1.5536    1.6924    1.0060 C   0  0  0  0  0  0  0  0  0  0  0  0
    0.6210    2.1214   -0.1296 C   0  0  0  0  0  0  0  0  0  0  0  0
    0.0229    0.8043   -0.6478 C   0  0  1  0  0  0  0  0  0  0  0  0
    0.7933    0.1313   -1.7950 C   0  0  0  0  0  0  0  0  0  0  0  0
    1.3944   -1.9710   -2.0514 H   0  0  0  0  0  0  0  0  0  0  0  0
   -0.3272   -1.7174   -1.7708 H   0  0  0  0  0  0  0  0  0  0  0  0
    0.4750   -2.3503    0.4564 H   0  0  0  0  0  0  0  0  0  0  0  0
    1.9226   -1.3671    0.2591 H   0  0  0  0  0  0  0  0  0  0  0  0
   -1.0021   -0.5401    0.8610 H   0  0  0  0  0  0  0  0  0  0  0  0
   -0.0034    1.0025    2.3330 H   0  0  0  0  0  0  0  0  0  0  0  0
    1.3934   -0.0719    2.3220 H   0  0  0  0  0  0  0  0  0  0  0  0
    2.4863    1.2949    0.5945 H   0  0  0  0  0  0  0  0  0  0  0  0
    1.8164    2.5092    1.6794 H   0  0  0  0  0  0  0  0  0  0  0  0
   -0.1698    2.7599    0.2724 H   0  0  0  0  0  0  0  0  0  0  0  0
    1.1292    2.6858   -0.9135 H   0  0  0  0  0  0  0  0  0  0  0  0
   -1.0200    0.9408   -0.9435 H   0  0  0  0  0  0  0  0  0  0  0  0
    0.4176    0.4159   -2.7788 H   0  0  0  0  0  0  0  0  0  0  0  0
    1.8478    0.4245   -1.7511 H   0  0  0  0  0  0  0  0  0  0  0  0
  1  2  2  3
  1  3  1  0
  2  4  1  0
  2  5  1  0
  6  7  1  0
  6 13  1  0
  6 14  1  0
  6 15  1  0
  7  8  1  0
  7 16  1  0
  7 17  1  0
  8  9  1  0
  8 12  1  0
  8 18  1  1
  9 10  1  0
  9 19  1  0
  9 20  1  0
 10 11  1  0
 10 21  1  0
 10 22  1  0
 11 12  1  0
 11 23  1  0
 11 24  1  0
 12 13  1  0
 12 25  1  6
 13 26  1  0
 13 27  1  0
M  RAD  1   1   2
M  END
>  <reaction>  (4) 
rxn_572

>  <mol_properties>  (4) 
{"0": {"label": "*3", "atom_type": "Cd"}, "1": {"label": "*4", "atom_type": "Cd"}, "7": {"label": "*1", "atom_type": "Cs"}, "11": {"label": "*0", "atom_type": "Cs"}, "17": {"label": "*2", "atom_type": "H0"}}

>  <type>  (4) 
ts

$$$$

     RDKit          3D

 27 27  0  0  0  0  0  0  0  0999 V2000
   -2.3575   -1.2315    0.6627 C   0  0  0  0  0  0  0  0  0  0  0  0
   -2.9696   -1.1198    1.8288 C   0  0  0  0  0  0  0  0  0  0  0  0
   -2.8707   -1.0298   -0.2702 H   0  0  0  0  0  0  0  0  0  0  0  0
   -4.0091   -0.8220    1.8990 H   0  0  0  0  0  0  0  0  0  0  0  0
   -2.4564   -1.3216    2.7617 H   0  0  0  0  0  0  0  0  0  0  0  0
    0.9878   -1.3769   -1.6481 C   0  0  0  0  0  0  0  0  0  0  0  0
    0.9878   -1.3769   -0.1217 C   0  0  0  0  0  0  0  0  0  0  0  0
    0.0245   -0.2422    0.2667 C   0  0  0  0  0  3  0  0  0  0  0  0
    0.4773    0.5964    1.4711 C   0  0  0  0  0  0  0  0  0  0  0  0
    1.2892    1.7346    0.8517 C   0  0  0  0  0  0  0  0  0  0  0  0
    0.4773    2.0942   -0.3932 C   0  0  0  0  0  0  0  0  0  0  0  0
    0.0245    0.7374   -0.9525 C   0  0  0  0  0  0  0  0  0  0  0  0
    0.9878    0.1136   -1.9770 C   0  0  0  0  0  0  0  0  0  0  0  0
    1.8327   -1.9151   -2.0805 H   0  0  0  0  0  0  0  0  0  0  0  0
    0.0720   -1.8438   -2.0232 H   0  0  0  0  0  0  0  0  0  0  0  0
    0.7035   -2.3353    0.3149 H   0  0  0  0  0  0  0  0  0  0  0  0
    1.9960   -1.1444    0.2376 H   0  0  0  0  0  0  0  0  0  0  0  0
   -1.1705   -0.7385    0.4654 H   0  0  0  0  0  0  0  0  0  0  0  0
   -0.3906    1.0132    1.9896 H   0  0  0  0  0  0  0  0  0  0  0  0
    1.0403    0.0096    2.1994 H   0  0  0  0  0  0  0  0  0  0  0  0
    2.2804    1.3727    0.5610 H   0  0  0  0  0  0  0  0  0  0  0  0
    1.4372    2.5769    1.5285 H   0  0  0  0  0  0  0  0  0  0  0  0
   -0.3906    2.6902   -0.0978 H   0  0  0  0  0  0  0  0  0  0  0  0
    1.0403    2.6789   -1.1230 H   0  0  0  0  0  0  0  0  0  0  0  0
   -0.9714    0.8099   -1.3921 H   0  0  0  0  0  0  0  0  0  0  0  0
    0.7035    0.3335   -3.0069 H   0  0  0  0  0  0  0  0  0  0  0  0
    1.9960    0.5146   -1.8273 H   0  0  0  0  0  0  0  0  0  0  0  0
  1  2  2  3
  1  3  1  0
  1 18  1  0
  2  4  1  0
  2  5  1  0
  6 13  1  0
  6  7  1  0
  6 14  1  0
  6 15  1  0
  7  8  1  0
  7 16  1  0
  7 17  1  0
  8  9  1  0
  8 12  1  0
  9 10  1  0
  9 19  1  0
  9 20  1  0
 10 11  1  0
 10 21  1  0
 10 22  1  0
 11 12  1  0
 11 23  1  0
 11 24  1  0
 12 13  1  0
 12 25  1  0
 13 26  1  0
 13 27  1  0
M  RAD  1   8   2
M  END
>  <reaction>  (5) 
rxn_572

>  <mol_properties>  (5) 
{"0": {"label": "*3", "atom_type": "Cd"}, "1": {"label": "*4", "atom_type": "Cd"}, "7": {"label": "*1", "atom_type": "Cs"}, "11": {"label": "*0", "atom_type": "Cs"}, "17": {"label": "*2", "atom_type": "H0"}}

>  <type>  (5) 
unop_1

>  <geom_source>  (5) 
Heuristics

$$$$

     RDKit          3D

 27 27  0  0  0  0  0  0  0  0999 V2000
   -2.4031   -1.0894    0.7343 C   0  0  0  0  0  0  0  0  0  0  0  0
   -2.5768   -2.3238    1.1735 C   0  0  0  0  0  0  0  0  0  0  0  0
   -3.1940   -0.3505    0.7875 H   0  0  0  0  0  0  0  0  0  0  0  0
   -3.5172   -2.6467    1.6044 H   0  0  0  0  0  0  0  0  0  0  0  0
   -1.7859   -3.0626    1.1204 H   0  0  0  0  0  0  0  0  0  0  0  0
    0.9423   -1.2348   -1.5765 C   0  0  0  0  0  0  0  0  0  0  0  0
    0.9423   -1.2348   -0.0500 C   0  0  0  0  0  0  0  0  0  0  0  0
   -0.0210   -0.1001    0.3383 C   0  0  0  0  0  3  0  0  0  0  0  0
    0.4317    0.7385    1.5428 C   0  0  0  0  0  0  0  0  0  0  0  0
    1.2437    1.8767    0.9234 C   0  0  0  0  0  0  0  0  0  0  0  0
    0.4317    2.2363   -0.3215 C   0  0  0  0  0  0  0  0  0  0  0  0
   -0.0210    0.8795   -0.8809 C   0  0  0  0  0  0  0  0  0  0  0  0
    0.9423    0.2558   -1.9053 C   0  0  0  0  0  0  0  0  0  0  0  0
    1.7872   -1.7730   -2.0089 H   0  0  0  0  0  0  0  0  0  0  0  0
    0.0265   -1.7016   -1.9515 H   0  0  0  0  0  0  0  0  0  0  0  0
    0.6580   -2.1932    0.3866 H   0  0  0  0  0  0  0  0  0  0  0  0
    1.9505   -1.0022    0.3093 H   0  0  0  0  0  0  0  0  0  0  0  0
   -1.2161   -0.5964    0.5370 H   0  0  0  0  0  0  0  0  0  0  0  0
   -0.4361    1.1553    2.0612 H   0  0  0  0  0  0  0  0  0  0  0  0
    0.9948    0.1518    2.2710 H   0  0  0  0  0  0  0  0  0  0  0  0
    2.2348    1.5149    0.6327 H   0  0  0  0  0  0  0  0  0  0  0  0
    1.3917    2.7190    1.6001 H   0  0  0  0  0  0  0  0  0  0  0  0
   -0.4361    2.8324   -0.0262 H   0  0  0  0  0  0  0  0  0  0  0  0
    0.9948    2.8211   -1.0514 H   0  0  0  0  0  0  0  0  0  0  0  0
   -1.0169    0.9521   -1.3205 H   0  0  0  0  0  0  0  0  0  0  0  0
    0.6580    0.4757   -2.9352 H   0  0  0  0  0  0  0  0  0  0  0  0
    1.9505    0.6567   -1.7556 H   0  0  0  0  0  0  0  0  0  0  0  0
  1  2  2  3
  1  3  1  0
  1 18  1  0
  2  4  1  0
  2  5  1  0
  6 13  1  0
  6  7  1  0
  6 14  1  0
  6 15  1  0
  7  8  1  0
  7 16  1  0
  7 17  1  0
  8  9  1  0
  8 12  1  0
  9 10  1  0
  9 19  1  0
  9 20  1  0
 10 11  1  0
 10 21  1  0
 10 22  1  0
 11 12  1  0
 11 23  1  0
 11 24  1  0
 12 13  1  0
 12 25  1  0
 13 26  1  0
 13 27  1  0
M  RAD  1   8   2
M  END
>  <reaction>  (6) 
rxn_572

>  <mol_properties>  (6) 
{"0": {"label": "*3", "atom_type": "Cd"}, "1": {"label": "*4", "atom_type": "Cd"}, "7": {"label": "*1", "atom_type": "Cs"}, "11": {"label": "*0", "atom_type": "Cs"}, "17": {"label": "*2", "atom_type": "H0"}}

>  <type>  (6) 
unop_2

>  <geom_source>  (6) 
Heuristics

$$$$

     RDKit          3D

 27 27  0  0  0  0  0  0  0  0999 V2000
   -2.3336   -1.2742    0.6963 C   0  0  0  0  0  0  0  0  0  0  0  0
   -3.1780   -0.7269    1.5533 C   0  0  0  0  0  0  0  0  0  0  0  0
   -2.6709   -1.6965   -0.2429 H   0  0  0  0  0  0  0  0  0  0  0  0
   -4.2415   -0.6784    1.3512 H   0  0  0  0  0  0  0  0  0  0  0  0
   -2.8407   -0.3046    2.4925 H   0  0  0  0  0  0  0  0  0  0  0  0
    1.0118   -1.4196   -1.6145 C   0  0  0  0  0  0  0  0  0  0  0  0
    1.0118   -1.4196   -0.0881 C   0  0  0  0  0  0  0  0  0  0  0  0
    0.0484   -0.2849    0.3003 C   0  0  0  0  0  3  0  0  0  0  0  0
    0.5012    0.5537    1.5047 C   0  0  0  0  0  0  0  0  0  0  0  0
    1.3132    1.6919    0.8853 C   0  0  0  0  0  0  0  0  0  0  0  0
    0.5012    2.0515   -0.3596 C   0  0  0  0  0  0  0  0  0  0  0  0
    0.0484    0.6947   -0.9189 C   0  0  0  0  0  0  0  0  0  0  0  0
    1.0118    0.0710   -1.9434 C   0  0  0  0  0  0  0  0  0  0  0  0
    1.8566   -1.9578   -2.0469 H   0  0  0  0  0  0  0  0  0  0  0  0
    0.0959   -1.8865   -1.9896 H   0  0  0  0  0  0  0  0  0  0  0  0
    0.7275   -2.3780    0.3485 H   0  0  0  0  0  0  0  0  0  0  0  0
    2.0199   -1.1871    0.2712 H   0  0  0  0  0  0  0  0  0  0  0  0
   -1.1466   -0.7812    0.4989 H   0  0  0  0  0  0  0  0  0  0  0  0
   -0.3666    0.9705    2.0231 H   0  0  0  0  0  0  0  0  0  0  0  0
    1.0643   -0.0330    2.2330 H   0  0  0  0  0  0  0  0  0  0  0  0
    2.3043    1.3300    0.5946 H   0  0  0  0  0  0  0  0  0  0  0  0
    1.4611    2.5342    1.5621 H   0  0  0  0  0  0  0  0  0  0  0  0
   -0.3666    2.6475   -0.0642 H   0  0  0  0  0  0  0  0  0  0  0  0
    1.0643    2.6362   -1.0894 H   0  0  0  0  0  0  0  0  0  0  0  0
   -0.9475    0.7672   -1.3585 H   0  0  0  0  0  0  0  0  0  0  0  0
    0.7275    0.2908   -2.9733 H   0  0  0  0  0  0  0  0  0  0  0  0
    2.0199    0.4719   -1.7937 H   0  0  0  0  0  0  0  0  0  0  0  0
  1  2  2  3
  1  3  1  0
  1 18  1  0
  2  4  1  0
  2  5  1  0
  6 13  1  0
  6  7  1  0
  6 14  1  0
  6 15  1  0
  7  8  1  0
  7 16  1  0
  7 17  1  0
  8  9  1  0
  8 12  1  0
  9 10  1  0
  9 19  1  0
  9 20  1  0
 10 11  1  0
 10 21  1  0
 10 22  1  0
 11 12  1  0
 11 23  1  0
 11 24  1  0
 12 13  1  0
 12 25  1  0
 13 26  1  0
 13 27  1  0
M  RAD  1   8   2
M  END
>  <reaction>  (7) 
rxn_572

>  <mol_properties>  (7) 
{"0": {"label": "*3", "atom_type": "Cd"}, "1": {"label": "*4", "atom_type": "Cd"}, "7": {"label": "*1", "atom_type": "Cs"}, "11": {"label": "*0", "atom_type": "Cs"}, "17": {"label": "*2", "atom_type": "H0"}}

>  <type>  (7) 
unop_3

>  <geom_source>  (7) 
Heuristics

$$$$

     RDKit          3D

 27 27  0  0  0  0  0  0  0  0999 V2000
   -2.3530   -1.1530    0.8806 C   0  0  0  0  0  0  0  0  0  0  0  0
   -3.0066   -1.7904   -0.0752 C   0  0  0  0  0  0  0  0  0  0  0  0
   -2.8715   -0.5687    1.6316 H   0  0  0  0  0  0  0  0  0  0  0  0
   -4.0873   -1.7543   -0.1462 H   0  0  0  0  0  0  0  0  0  0  0  0
   -2.4882   -2.3747   -0.8261 H   0  0  0  0  0  0  0  0  0  0  0  0
    0.9924   -1.2985   -1.4302 C   0  0  0  0  0  0  0  0  0  0  0  0
    0.9924   -1.2985    0.0962 C   0  0  0  0  0  0  0  0  0  0  0  0
    0.0291   -0.1637    0.4846 C   0  0  0  0  0  3  0  0  0  0  0  0
    0.4818    0.6749    1.6890 C   0  0  0  0  0  0  0  0  0  0  0  0
    1.2938    1.8130    1.0696 C   0  0  0  0  0  0  0  0  0  0  0  0
    0.4818    2.1727   -0.1753 C   0  0  0  0  0  0  0  0  0  0  0  0
    0.0291    0.8158   -0.7346 C   0  0  0  0  0  0  0  0  0  0  0  0
    0.9924    0.1921   -1.7591 C   0  0  0  0  0  0  0  0  0  0  0  0
    1.8373   -1.8367   -1.8626 H   0  0  0  0  0  0  0  0  0  0  0  0
    0.0766   -1.7653   -1.8053 H   0  0  0  0  0  0  0  0  0  0  0  0
    0.7081   -2.2568    0.5328 H   0  0  0  0  0  0  0  0  0  0  0  0
    2.0006   -1.0659    0.4555 H   0  0  0  0  0  0  0  0  0  0  0  0
   -1.1660   -0.6601    0.6833 H   0  0  0  0  0  0  0  0  0  0  0  0
   -0.3860    1.0917    2.2075 H   0  0  0  0  0  0  0  0  0  0  0  0
    1.0449    0.0881    2.4173 H   0  0  0  0  0  0  0  0  0  0  0  0
    2.2849    1.4512    0.7789 H   0  0  0  0  0  0  0  0  0  0  0  0
    1.4417    2.6554    1.7464 H   0  0  0  0  0  0  0  0  0  0  0  0
   -0.3860    2.7687    0.1201 H   0  0  0  0  0  0  0  0  0  0  0  0
    1.0449    2.7574   -0.9051 H   0  0  0  0  0  0  0  0  0  0  0  0
   -0.9668    0.8884   -1.1742 H   0  0  0  0  0  0  0  0  0  0  0  0
    0.7081    0.4120   -2.7890 H   0  0  0  0  0  0  0  0  0  0  0  0
    2.0006    0.5931   -1.6094 H   0  0  0  0  0  0  0  0  0  0  0  0
  1  2  2  3
  1  3  1  0
  1 18  1  0
  2  4  1  0
  2  5  1  0
  6 13  1  0
  6  7  1  0
  6 14  1  0
  6 15  1  0
  7  8  1  0
  7 16  1  0
  7 17  1  0
  8  9  1  0
  8 12  1  0
  9 10  1  0
  9 19  1  0
  9 20  1  0
 10 11  1  0
 10 21  1  0
 10 22  1  0
 11 12  1  0
 11 23  1  0
 11 24  1  0
 12 13  1  0
 12 25  1  0
 13 26  1  0
 13 27  1  0
M  RAD  1   8   2
M  END
>  <reaction>  (8) 
rxn_572

>  <mol_properties>  (8) 
{"0": {"label": "*3", "atom_type": "Cd"}, "1": {"label": "*4", "atom_type": "Cd"}, "7": {"label": "*1", "atom_type": "Cs"}, "11": {"label": "*0", "atom_type": "Cs"}, "17": {"label": "*2", "atom_type": "H0"}}

>  <type>  (8) 
unop_4

>  <geom_source>  (8) 
Heuristics

$$$$

     RDKit          3D

 27 27  0  0  0  0  0  0  0  0999 V2000
   -2.3162   -1.2932    0.7458 C   0  0  0  0  0  0  0  0  0  0  0  0
   -3.3362   -0.5273    1.0922 C   0  0  0  0  0  0  0  0  0  0  0  0
   -2.4281   -2.3627    0.6122 H   0  0  0  0  0  0  0  0  0  0  0  0
   -4.3253   -0.9381    1.2566 H   0  0  0  0  0  0  0  0  0  0  0  0
   -3.2243    0.5422    1.2257 H   0  0  0  0  0  0  0  0  0  0  0  0
    1.0292   -1.4386   -1.5650 C   0  0  0  0  0  0  0  0  0  0  0  0
    1.0292   -1.4386   -0.0386 C   0  0  0  0  0  0  0  0  0  0  0  0
    0.0658   -0.3039    0.3498 C   0  0  0  0  0  3  0  0  0  0  0  0
    0.5186    0.5347    1.5542 C   0  0  0  0  0  0  0  0  0  0  0  0
    1.3306    1.6729    0.9348 C   0  0  0  0  0  0  0  0  0  0  0  0
    0.5186    2.0325   -0.3101 C   0  0  0  0  0  0  0  0  0  0  0  0
    0.0658    0.6757   -0.8695 C   0  0  0  0  0  0  0  0  0  0  0  0
    1.0292    0.0520   -1.8939 C   0  0  0  0  0  0  0  0  0  0  0  0
    1.8740   -1.9768   -1.9974 H   0  0  0  0  0  0  0  0  0  0  0  0
    0.1133   -1.9054   -1.9401 H   0  0  0  0  0  0  0  0  0  0  0  0
    0.7449   -2.3970    0.3980 H   0  0  0  0  0  0  0  0  0  0  0  0
    2.0373   -1.2060    0.3207 H   0  0  0  0  0  0  0  0  0  0  0  0
   -1.1292   -0.8002    0.5484 H   0  0  0  0  0  0  0  0  0  0  0  0
   -0.3492    0.9515    2.0726 H   0  0  0  0  0  0  0  0  0  0  0  0
    1.0817   -0.0520    2.2825 H   0  0  0  0  0  0  0  0  0  0  0  0
    2.3217    1.3111    0.6441 H   0  0  0  0  0  0  0  0  0  0  0  0
    1.4785    2.5152    1.6116 H   0  0  0  0  0  0  0  0  0  0  0  0
   -0.3492    2.6286   -0.0147 H   0  0  0  0  0  0  0  0  0  0  0  0
    1.0817    2.6173   -1.0399 H   0  0  0  0  0  0  0  0  0  0  0  0
   -0.9300    0.7483   -1.3090 H   0  0  0  0  0  0  0  0  0  0  0  0
    0.7449    0.2719   -2.9238 H   0  0  0  0  0  0  0  0  0  0  0  0
    2.0373    0.4529   -1.7442 H   0  0  0  0  0  0  0  0  0  0  0  0
  1  2  2  3
  1  3  1  0
  1 18  1  0
  2  4  1  0
  2  5  1  0
  6 13  1  0
  6  7  1  0
  6 14  1  0
  6 15  1  0
  7  8  1  0
  7 16  1  0
  7 17  1  0
  8  9  1  0
  8 12  1  0
  9 10  1  0
  9 19  1  0
  9 20  1  0
 10 11  1  0
 10 21  1  0
 10 22  1  0
 11 12  1  0
 11 23  1  0
 11 24  1  0
 12 13  1  0
 12 25  1  0
 13 26  1  0
 13 27  1  0
M  RAD  1   8   2
M  END
>  <reaction>  (9) 
rxn_572

>  <mol_properties>  (9) 
{"0": {"label": "*3", "atom_type": "Cd"}, "1": {"label": "*4", "atom_type": "Cd"}, "7": {"label": "*1", "atom_type": "Cs"}, "11": {"label": "*0", "atom_type": "Cs"}, "17": {"label": "*2", "atom_type": "H0"}}

>  <type>  (9) 
unop_5

>  <geom_source>  (9) 
Heuristics

$$$$

     RDKit          3D

 27 27  0  0  0  0  0  0  0  0999 V2000
   -2.3301   -1.2094    0.8815 C   0  0  0  0  0  0  0  0  0  0  0  0
   -3.2105   -1.3108   -0.0991 C   0  0  0  0  0  0  0  0  0  0  0  0
   -2.6173   -0.8730    1.8708 H   0  0  0  0  0  0  0  0  0  0  0  0
   -4.2549   -1.0616    0.0468 H   0  0  0  0  0  0  0  0  0  0  0  0
   -2.9232   -1.6472   -1.0883 H   0  0  0  0  0  0  0  0  0  0  0  0
    1.0153   -1.3548   -1.4293 C   0  0  0  0  0  0  0  0  0  0  0  0
    1.0153   -1.3548    0.0972 C   0  0  0  0  0  0  0  0  0  0  0  0
    0.0520   -0.2201    0.4855 C   0  0  0  0  0  3  0  0  0  0  0  0
    0.5047    0.6185    1.6900 C   0  0  0  0  0  0  0  0  0  0  0  0
    1.3167    1.7567    1.0706 C   0  0  0  0  0  0  0  0  0  0  0  0
    0.5047    2.1163   -0.1743 C   0  0  0  0  0  0  0  0  0  0  0  0
    0.0520    0.7595   -0.7337 C   0  0  0  0  0  0  0  0  0  0  0  0
    1.0153    0.1358   -1.7581 C   0  0  0  0  0  0  0  0  0  0  0  0
    1.8602   -1.8930   -1.8617 H   0  0  0  0  0  0  0  0  0  0  0  0
    0.0995   -1.8216   -1.8043 H   0  0  0  0  0  0  0  0  0  0  0  0
    0.7310   -2.3132    0.5338 H   0  0  0  0  0  0  0  0  0  0  0  0
    2.0235   -1.1222    0.4565 H   0  0  0  0  0  0  0  0  0  0  0  0
   -1.1431   -0.7164    0.6842 H   0  0  0  0  0  0  0  0  0  0  0  0
   -0.3631    1.0353    2.2084 H   0  0  0  0  0  0  0  0  0  0  0  0
    1.0678    0.0318    2.4182 H   0  0  0  0  0  0  0  0  0  0  0  0
    2.3078    1.3949    0.7799 H   0  0  0  0  0  0  0  0  0  0  0  0
    1.4646    2.5990    1.7473 H   0  0  0  0  0  0  0  0  0  0  0  0
   -0.3631    2.7124    0.1210 H   0  0  0  0  0  0  0  0  0  0  0  0
    1.0678    2.7011   -0.9042 H   0  0  0  0  0  0  0  0  0  0  0  0
   -0.9439    0.8321   -1.1733 H   0  0  0  0  0  0  0  0  0  0  0  0
    0.7310    0.3557   -2.7880 H   0  0  0  0  0  0  0  0  0  0  0  0
    2.0235    0.5367   -1.6084 H   0  0  0  0  0  0  0  0  0  0  0  0
  1  2  2  3
  1  3  1  0
  1 18  1  0
  2  4  1  0
  2  5  1  0
  6 13  1  0
  6  7  1  0
  6 14  1  0
  6 15  1  0
  7  8  1  0
  7 16  1  0
  7 17  1  0
  8  9  1  0
  8 12  1  0
  9 10  1  0
  9 19  1  0
  9 20  1  0
 10 11  1  0
 10 21  1  0
 10 22  1  0
 11 12  1  0
 11 23  1  0
 11 24  1  0
 12 13  1  0
 12 25  1  0
 13 26  1  0
 13 27  1  0
M  RAD  1   8   2
M  END
>  <reaction>  (10) 
rxn_572

>  <mol_properties>  (10) 
{"0": {"label": "*3", "atom_type": "Cd"}, "1": {"label": "*4", "atom_type": "Cd"}, "7": {"label": "*1", "atom_type": "Cs"}, "11": {"label": "*0", "atom_type": "Cs"}, "17": {"label": "*2", "atom_type": "H0"}}

>  <type>  (10) 
unop_6

>  <geom_source>  (10) 
Heuristics

$$$$

     RDKit          3D

 27 27  0  0  0  0  0  0  0  0999 V2000
   -2.3144   -1.2597    0.8520 C   0  0  0  0  0  0  0  0  0  0  0  0
   -3.3552   -0.8683    0.1375 C   0  0  0  0  0  0  0  0  0  0  0  0
   -2.3691   -1.3569    1.9299 H   0  0  0  0  0  0  0  0  0  0  0  0
   -4.3051   -0.6290    0.6008 H   0  0  0  0  0  0  0  0  0  0  0  0
   -3.3005   -0.7711   -0.9404 H   0  0  0  0  0  0  0  0  0  0  0  0
    1.0310   -1.4051   -1.4588 C   0  0  0  0  0  0  0  0  0  0  0  0
    1.0310   -1.4051    0.0676 C   0  0  0  0  0  0  0  0  0  0  0  0
    0.0677   -0.2703    0.4560 C   0  0  0  0  0  3  0  0  0  0  0  0
    0.5204    0.5682    1.6604 C   0  0  0  0  0  0  0  0  0  0  0  0
    1.3324    1.7064    1.0411 C   0  0  0  0  0  0  0  0  0  0  0  0
    0.5204    2.0660   -0.2038 C   0  0  0  0  0  0  0  0  0  0  0  0
    0.0677    0.7092   -0.7632 C   0  0  0  0  0  0  0  0  0  0  0  0
    1.0310    0.0855   -1.7877 C   0  0  0  0  0  0  0  0  0  0  0  0
    1.8759   -1.9433   -1.8912 H   0  0  0  0  0  0  0  0  0  0  0  0
    0.1152   -1.8719   -1.8339 H   0  0  0  0  0  0  0  0  0  0  0  0
    0.7467   -2.3635    0.5042 H   0  0  0  0  0  0  0  0  0  0  0  0
    2.0392   -1.1725    0.4269 H   0  0  0  0  0  0  0  0  0  0  0  0
   -1.1274   -0.7667    0.6547 H   0  0  0  0  0  0  0  0  0  0  0  0
   -0.3474    0.9850    2.1789 H   0  0  0  0  0  0  0  0  0  0  0  0
    1.0835   -0.0185    2.3887 H   0  0  0  0  0  0  0  0  0  0  0  0
    2.3235    1.3446    0.7504 H   0  0  0  0  0  0  0  0  0  0  0  0
    1.4803    2.5487    1.7178 H   0  0  0  0  0  0  0  0  0  0  0  0
   -0.3474    2.6621    0.0915 H   0  0  0  0  0  0  0  0  0  0  0  0
    1.0835    2.6508   -0.9337 H   0  0  0  0  0  0  0  0  0  0  0  0
   -0.9282    0.7818   -1.2028 H   0  0  0  0  0  0  0  0  0  0  0  0
    0.7467    0.3054   -2.8176 H   0  0  0  0  0  0  0  0  0  0  0  0
    2.0392    0.4864   -1.6379 H   0  0  0  0  0  0  0  0  0  0  0  0
  1  2  2  3
  1  3  1  0
  1 18  1  0
  2  4  1  0
  2  5  1  0
  6 13  1  0
  6  7  1  0
  6 14  1  0
  6 15  1  0
  7  8  1  0
  7 16  1  0
  7 17  1  0
  8  9  1  0
  8 12  1  0
  9 10  1  0
  9 19  1  0
  9 20  1  0
 10 11  1  0
 10 21  1  0
 10 22  1  0
 11 12  1  0
 11 23  1  0
 11 24  1  0
 12 13  1  0
 12 25  1  0
 13 26  1  0
 13 27  1  0
M  RAD  1   8   2
M  END
>  <reaction>  (11) 
rxn_572

>  <mol_properties>  (11) 
{"0": {"label": "*3", "atom_type": "Cd"}, "1": {"label": "*4", "atom_type": "Cd"}, "7": {"label": "*1", "atom_type": "Cs"}, "11": {"label": "*0", "atom_type": "Cs"}, "17": {"label": "*2", "atom_type": "H0"}}

>  <type>  (11) 
unop_7

>  <geom_source>  (11) 
Heuristics

$$$$

     RDKit          3D

 27 27  0  0  0  0  0  0  0  0999 V2000
   -2.3811   -1.1761    0.6578 C   0  0  0  0  0  0  0  0  0  0  0  0
   -2.7664   -1.6004    1.8488 C   0  0  0  0  0  0  0  0  0  0  0  0
   -3.0392   -0.5978    0.0201 H   0  0  0  0  0  0  0  0  0  0  0  0
   -3.7559   -1.3870    2.2355 H   0  0  0  0  0  0  0  0  0  0  0  0
   -2.1082   -2.1787    2.4865 H   0  0  0  0  0  0  0  0  0  0  0  0
    0.9643   -1.3215   -1.6530 C   0  0  0  0  0  0  0  0  0  0  0  0
    0.9643   -1.3215   -0.1265 C   0  0  0  0  0  0  0  0  0  0  0  0
    0.0010   -0.1868    0.2618 C   0  0  0  0  0  3  0  0  0  0  0  0
    0.4537    0.6518    1.4663 C   0  0  0  0  0  0  0  0  0  0  0  0
    1.2657    1.7900    0.8469 C   0  0  0  0  0  0  0  0  0  0  0  0
    0.4537    2.1496   -0.3980 C   0  0  0  0  0  0  0  0  0  0  0  0
    0.0010    0.7928   -0.9574 C   0  0  0  0  0  0  0  0  0  0  0  0
    0.9643    0.1690   -1.9818 C   0  0  0  0  0  0  0  0  0  0  0  0
    1.8092   -1.8597   -2.0854 H   0  0  0  0  0  0  0  0  0  0  0  0
    0.0485   -1.7884   -2.0281 H   0  0  0  0  0  0  0  0  0  0  0  0
    0.6800   -2.2799    0.3100 H   0  0  0  0  0  0  0  0  0  0  0  0
    1.9725   -1.0890    0.2327 H   0  0  0  0  0  0  0  0  0  0  0  0
   -1.1941   -0.6831    0.4605 H   0  0  0  0  0  0  0  0  0  0  0  0
   -0.4141    1.0686    1.9847 H   0  0  0  0  0  0  0  0  0  0  0  0
    1.0168    0.0650    2.1945 H   0  0  0  0  0  0  0  0  0  0  0  0
    2.2568    1.4281    0.5562 H   0  0  0  0  0  0  0  0  0  0  0  0
    1.4136    2.6323    1.5236 H   0  0  0  0  0  0  0  0  0  0  0  0
   -0.4141    2.7456   -0.1027 H   0  0  0  0  0  0  0  0  0  0  0  0
    1.0168    2.7343   -1.1279 H   0  0  0  0  0  0  0  0  0  0  0  0
   -0.9949    0.8653   -1.3970 H   0  0  0  0  0  0  0  0  0  0  0  0
    0.6800    0.3889   -3.0118 H   0  0  0  0  0  0  0  0  0  0  0  0
    1.9725    0.5700   -1.8321 H   0  0  0  0  0  0  0  0  0  0  0  0
  1  2  2  3
  1  3  1  0
  1 18  1  0
  2  4  1  0
  2  5  1  0
  6 13  1  0
  6  7  1  0
  6 14  1  0
  6 15  1  0
  7  8  1  0
  7 16  1  0
  7 17  1  0
  8  9  1  0
  8 12  1  0
  9 10  1  0
  9 19  1  0
  9 20  1  0
 10 11  1  0
 10 21  1  0
 10 22  1  0
 11 12  1  0
 11 23  1  0
 11 24  1  0
 12 13  1  0
 12 25  1  0
 13 26  1  0
 13 27  1  0
M  RAD  1   8   2
M  END
>  <reaction>  (12) 
rxn_572

>  <mol_properties>  (12) 
{"0": {"label": "*3", "atom_type": "Cd"}, "1": {"label": "*4", "atom_type": "Cd"}, "7": {"label": "*1", "atom_type": "Cs"}, "11": {"label": "*0", "atom_type": "Cs"}, "17": {"label": "*2", "atom_type": "H0"}}

>  <type>  (12) 
unop_8

>  <geom_source>  (12) 
Heuristics

$$$$

     RDKit          3D

 27 27  0  0  0  0  0  0  0  0999 V2000
   -2.3769   -1.1064    0.8489 C   0  0  0  0  0  0  0  0  0  0  0  0
   -2.7983   -2.1794    0.2023 C   0  0  0  0  0  0  0  0  0  0  0  0
   -3.0672   -0.4332    1.3434 H   0  0  0  0  0  0  0  0  0  0  0  0
   -3.8509   -2.4291    0.1407 H   0  0  0  0  0  0  0  0  0  0  0  0
   -2.1080   -2.8526   -0.2922 H   0  0  0  0  0  0  0  0  0  0  0  0
    0.9685   -1.2518   -1.4619 C   0  0  0  0  0  0  0  0  0  0  0  0
    0.9685   -1.2518    0.0646 C   0  0  0  0  0  0  0  0  0  0  0  0
    0.0051   -0.1171    0.4529 C   0  0  0  0  0  3  0  0  0  0  0  0
    0.4579    0.7215    1.6574 C   0  0  0  0  0  0  0  0  0  0  0  0
    1.2699    1.8597    1.0380 C   0  0  0  0  0  0  0  0  0  0  0  0
    0.4579    2.2193   -0.2069 C   0  0  0  0  0  0  0  0  0  0  0  0
    0.0051    0.8625   -0.7663 C   0  0  0  0  0  0  0  0  0  0  0  0
    0.9685    0.2387   -1.7907 C   0  0  0  0  0  0  0  0  0  0  0  0
    1.8133   -1.7900   -1.8943 H   0  0  0  0  0  0  0  0  0  0  0  0
    0.0526   -1.7187   -1.8369 H   0  0  0  0  0  0  0  0  0  0  0  0
    0.6841   -2.2102    0.5012 H   0  0  0  0  0  0  0  0  0  0  0  0
    1.9766   -1.0193    0.4238 H   0  0  0  0  0  0  0  0  0  0  0  0
   -1.1899   -0.6134    0.6516 H   0  0  0  0  0  0  0  0  0  0  0  0
   -0.4100    1.1383    2.1758 H   0  0  0  0  0  0  0  0  0  0  0  0
    1.0209    0.1348    2.3856 H   0  0  0  0  0  0  0  0  0  0  0  0
    2.2610    1.4978    0.7473 H   0  0  0  0  0  0  0  0  0  0  0  0
    1.4178    2.7020    1.7147 H   0  0  0  0  0  0  0  0  0  0  0  0
   -0.4100    2.8153    0.0884 H   0  0  0  0  0  0  0  0  0  0  0  0
    1.0209    2.8040   -0.9368 H   0  0  0  0  0  0  0  0  0  0  0  0
   -0.9908    0.9350   -1.2059 H   0  0  0  0  0  0  0  0  0  0  0  0
    0.6841    0.4586   -2.8206 H   0  0  0  0  0  0  0  0  0  0  0  0
    1.9766    0.6397   -1.6410 H   0  0  0  0  0  0  0  0  0  0  0  0
  1  2  2  3
  1  3  1  0
  1 18  1  0
  2  4  1  0
  2  5  1  0
  6 13  1  0
  6  7  1  0
  6 14  1  0
  6 15  1  0
  7  8  1  0
  7 16  1  0
  7 17  1  0
  8  9  1  0
  8 12  1  0
  9 10  1  0
  9 19  1  0
  9 20  1  0
 10 11  1  0
 10 21  1  0
 10 22  1  0
 11 12  1  0
 11 23  1  0
 11 24  1  0
 12 13  1  0
 12 25  1  0
 13 26  1  0
 13 27  1  0
M  RAD  1   8   2
M  END
>  <reaction>  (13) 
rxn_572

>  <mol_properties>  (13) 
{"0": {"label": "*3", "atom_type": "Cd"}, "1": {"label": "*4", "atom_type": "Cd"}, "7": {"label": "*1", "atom_type": "Cs"}, "11": {"label": "*0", "atom_type": "Cs"}, "17": {"label": "*2", "atom_type": "H0"}}

>  <type>  (13) 
unop_9

>  <geom_source>  (13) 
Heuristics

$$$$

     RDKit          3D

 27 27  0  0  0  0  0  0  0  0999 V2000
   -2.3978   -1.1238    0.6840 C   0  0  0  0  0  0  0  0  0  0  0  0
   -2.6227   -2.0408    1.6089 C   0  0  0  0  0  0  0  0  0  0  0  0
   -3.1480   -0.3883    0.4185 H   0  0  0  0  0  0  0  0  0  0  0  0
   -3.5663   -2.0940    2.1389 H   0  0  0  0  0  0  0  0  0  0  0  0
   -1.8724   -2.7763    1.8744 H   0  0  0  0  0  0  0  0  0  0  0  0
    0.9476   -1.2692   -1.6268 C   0  0  0  0  0  0  0  0  0  0  0  0
    0.9476   -1.2692   -0.1004 C   0  0  0  0  0  0  0  0  0  0  0  0
   -0.0158   -0.1345    0.2880 C   0  0  0  0  0  3  0  0  0  0  0  0
    0.4370    0.7041    1.4924 C   0  0  0  0  0  0  0  0  0  0  0  0
    1.2490    1.8423    0.8730 C   0  0  0  0  0  0  0  0  0  0  0  0
    0.4370    2.2019   -0.3719 C   0  0  0  0  0  0  0  0  0  0  0  0
   -0.0158    0.8451   -0.9313 C   0  0  0  0  0  0  0  0  0  0  0  0
    0.9476    0.2214   -1.9557 C   0  0  0  0  0  0  0  0  0  0  0  0
    1.7924   -1.8074   -2.0592 H   0  0  0  0  0  0  0  0  0  0  0  0
    0.0317   -1.7361   -2.0019 H   0  0  0  0  0  0  0  0  0  0  0  0
    0.6633   -2.2276    0.3362 H   0  0  0  0  0  0  0  0  0  0  0  0
    1.9557   -1.0367    0.2589 H   0  0  0  0  0  0  0  0  0  0  0  0
   -1.2108   -0.6308    0.4866 H   0  0  0  0  0  0  0  0  0  0  0  0
   -0.4308    1.1209    2.0108 H   0  0  0  0  0  0  0  0  0  0  0  0
    1.0001    0.1174    2.2207 H   0  0  0  0  0  0  0  0  0  0  0  0
    2.2401    1.4804    0.5823 H   0  0  0  0  0  0  0  0  0  0  0  0
    1.3969    2.6846    1.5498 H   0  0  0  0  0  0  0  0  0  0  0  0
   -0.4308    2.7979   -0.0766 H   0  0  0  0  0  0  0  0  0  0  0  0
    1.0001    2.7867   -1.1017 H   0  0  0  0  0  0  0  0  0  0  0  0
   -1.0116    0.9176   -1.3708 H   0  0  0  0  0  0  0  0  0  0  0  0
    0.6633    0.4412   -2.9856 H   0  0  0  0  0  0  0  0  0  0  0  0
    1.9557    0.6223   -1.8060 H   0  0  0  0  0  0  0  0  0  0  0  0
  1  2  2  3
  1  3  1  0
  1 18  1  0
  2  4  1  0
  2  5  1  0
  6 13  1  0
  6  7  1  0
  6 14  1  0
  6 15  1  0
  7  8  1  0
  7 16  1  0
  7 17  1  0
  8  9  1  0
  8 12  1  0
  9 10  1  0
  9 19  1  0
  9 20  1  0
 10 11  1  0
 10 21  1  0
 10 22  1  0
 11 12  1  0
 11 23  1  0
 11 24  1  0
 12 13  1  0
 12 25  1  0
 13 26  1  0
 13 27  1  0
M  RAD  1   8   2
M  END
>  <reaction>  (14) 
rxn_572

>  <mol_properties>  (14) 
{"0": {"label": "*3", "atom_type": "Cd"}, "1": {"label": "*4", "atom_type": "Cd"}, "7": {"label": "*1", "atom_type": "Cs"}, "11": {"label": "*0", "atom_type": "Cs"}, "17": {"label": "*2", "atom_type": "H0"}}

>  <type>  (14) 
unop_10

>  <geom_source>  (14) 
Heuristics

$$$$

     RDKit          3D

 27 27  0  0  0  0  0  0  0  0999 V2000
   -2.3097   -1.2898    0.8011 C   0  0  0  0  0  0  0  0  0  0  0  0
   -3.4016   -0.5810    0.5723 C   0  0  0  0  0  0  0  0  0  0  0  0
   -2.2423   -1.9760    1.6370 H   0  0  0  0  0  0  0  0  0  0  0  0
   -4.2733   -0.6576    1.2114 H   0  0  0  0  0  0  0  0  0  0  0  0
   -3.4690    0.1052   -0.2636 H   0  0  0  0  0  0  0  0  0  0  0  0
    1.0357   -1.4352   -1.5097 C   0  0  0  0  0  0  0  0  0  0  0  0
    1.0357   -1.4352    0.0167 C   0  0  0  0  0  0  0  0  0  0  0  0
    0.0723   -0.3005    0.4051 C   0  0  0  0  0  3  0  0  0  0  0  0
    0.5251    0.5381    1.6095 C   0  0  0  0  0  0  0  0  0  0  0  0
    1.3371    1.6763    0.9901 C   0  0  0  0  0  0  0  0  0  0  0  0
    0.5251    2.0359   -0.2548 C   0  0  0  0  0  0  0  0  0  0  0  0
    0.0723    0.6791   -0.8142 C   0  0  0  0  0  0  0  0  0  0  0  0
    1.0357    0.0554   -1.8386 C   0  0  0  0  0  0  0  0  0  0  0  0
    1.8805   -1.9734   -1.9421 H   0  0  0  0  0  0  0  0  0  0  0  0
    0.1198   -1.9021   -1.8848 H   0  0  0  0  0  0  0  0  0  0  0  0
    0.7513   -2.3936    0.4533 H   0  0  0  0  0  0  0  0  0  0  0  0
    2.0438   -1.2026    0.3760 H   0  0  0  0  0  0  0  0  0  0  0  0
   -1.1227   -0.7968    0.6037 H   0  0  0  0  0  0  0  0  0  0  0  0
   -0.3427    0.9549    2.1279 H   0  0  0  0  0  0  0  0  0  0  0  0
    1.0882   -0.0486    2.3378 H   0  0  0  0  0  0  0  0  0  0  0  0
    2.3282    1.3144    0.6994 H   0  0  0  0  0  0  0  0  0  0  0  0
    1.4850    2.5186    1.6669 H   0  0  0  0  0  0  0  0  0  0  0  0
   -0.3427    2.6320    0.0406 H   0  0  0  0  0  0  0  0  0  0  0  0
    1.0881    2.6207   -0.9846 H   0  0  0  0  0  0  0  0  0  0  0  0
   -0.9236    0.7516   -1.2537 H   0  0  0  0  0  0  0  0  0  0  0  0
    0.7513    0.2752   -2.8685 H   0  0  0  0  0  0  0  0  0  0  0  0
    2.0438    0.4563   -1.6889 H   0  0  0  0  0  0  0  0  0  0  0  0
  1  2  2  3
  1  3  1  0
  1 18  1  0
  2  4  1  0
  2  5  1  0
  6 13  1  0
  6  7  1  0
  6 14  1  0
  6 15  1  0
  7  8  1  0
  7 16  1  0
  7 17  1  0
  8  9  1  0
  8 12  1  0
  9 10  1  0
  9 19  1  0
  9 20  1  0
 10 11  1  0
 10 21  1  0
 10 22  1  0
 11 12  1  0
 11 23  1  0
 11 24  1  0
 12 13  1  0
 12 25  1  0
 13 26  1  0
 13 27  1  0
M  RAD  1   8   2
M  END
>  <reaction>  (15) 
rxn_572

>  <mol_properties>  (15) 
{"0": {"label": "*3", "atom_type": "Cd"}, "1": {"label": "*4", "atom_type": "Cd"}, "7": {"label": "*1", "atom_type": "Cs"}, "11": {"label": "*0", "atom_type": "Cs"}, "17": {"label": "*2", "atom_type": "H0"}}

>  <type>  (15) 
unop_11

>  <geom_source>  (15) 
Heuristics

$$$$

     RDKit          3D

 27 27  0  0  0  0  0  0  0  0999 V2000
   -2.3953   -1.0829    0.7951 C   0  0  0  0  0  0  0  0  0  0  0  0
   -2.6410   -2.3744    0.6591 C   0  0  0  0  0  0  0  0  0  0  0  0
   -3.1732   -0.3829    1.0765 H   0  0  0  0  0  0  0  0  0  0  0  0
   -3.6302   -2.7853    0.8235 H   0  0  0  0  0  0  0  0  0  0  0  0
   -1.8632   -3.0744    0.3776 H   0  0  0  0  0  0  0  0  0  0  0  0
    0.9500   -1.2283   -1.5157 C   0  0  0  0  0  0  0  0  0  0  0  0
    0.9500   -1.2283    0.0107 C   0  0  0  0  0  0  0  0  0  0  0  0
   -0.0133   -0.0936    0.3991 C   0  0  0  0  0  3  0  0  0  0  0  0
    0.4394    0.7450    1.6035 C   0  0  0  0  0  0  0  0  0  0  0  0
    1.2514    1.8832    0.9841 C   0  0  0  0  0  0  0  0  0  0  0  0
    0.4394    2.2428   -0.2608 C   0  0  0  0  0  0  0  0  0  0  0  0
   -0.0133    0.8860   -0.8202 C   0  0  0  0  0  0  0  0  0  0  0  0
    0.9500    0.2623   -1.8446 C   0  0  0  0  0  0  0  0  0  0  0  0
    1.7949   -1.7665   -1.9481 H   0  0  0  0  0  0  0  0  0  0  0  0
    0.0342   -1.6952   -1.8908 H   0  0  0  0  0  0  0  0  0  0  0  0
    0.6657   -2.1867    0.4473 H   0  0  0  0  0  0  0  0  0  0  0  0
    1.9582   -0.9957    0.3700 H   0  0  0  0  0  0  0  0  0  0  0  0
   -1.2084   -0.5899    0.5977 H   0  0  0  0  0  0  0  0  0  0  0  0
   -0.4284    1.1618    2.1219 H   0  0  0  0  0  0  0  0  0  0  0  0
    1.0025    0.1583    2.3318 H   0  0  0  0  0  0  0  0  0  0  0  0
    2.2425    1.5213    0.6934 H   0  0  0  0  0  0  0  0  0  0  0  0
    1.3994    2.7255    1.6609 H   0  0  0  0  0  0  0  0  0  0  0  0
   -0.4284    2.8389    0.0346 H   0  0  0  0  0  0  0  0  0  0  0  0
    1.0025    2.8276   -0.9906 H   0  0  0  0  0  0  0  0  0  0  0  0
   -1.0092    0.9585   -1.2597 H   0  0  0  0  0  0  0  0  0  0  0  0
    0.6657    0.4821   -2.8745 H   0  0  0  0  0  0  0  0  0  0  0  0
    1.9582    0.6632   -1.6949 H   0  0  0  0  0  0  0  0  0  0  0  0
  1  2  2  3
  1  3  1  0
  1 18  1  0
  2  4  1  0
  2  5  1  0
  6 13  1  0
  6  7  1  0
  6 14  1  0
  6 15  1  0
  7  8  1  0
  7 16  1  0
  7 17  1  0
  8  9  1  0
  8 12  1  0
  9 10  1  0
  9 19  1  0
  9 20  1  0
 10 11  1  0
 10 21  1  0
 10 22  1  0
 11 12  1  0
 11 23  1  0
 11 24  1  0
 12 13  1  0
 12 25  1  0
 13 26  1  0
 13 27  1  0
M  RAD  1   8   2
M  END
>  <reaction>  (16) 
rxn_572

>  <mol_properties>  (16) 
{"0": {"label": "*3", "atom_type": "Cd"}, "1": {"label": "*4", "atom_type": "Cd"}, "7": {"label": "*1", "atom_type": "Cs"}, "11": {"label": "*0", "atom_type": "Cs"}, "17": {"label": "*2", "atom_type": "H0"}}

>  <type>  (16) 
unop_12

>  <geom_source>  (16) 
Heuristics

$$$$

     RDKit          3D

 27 27  0  0  0  0  0  0  0  0999 V2000
   -0.9865    0.4635    0.5324 C   0  0  0  0  0  0  0  0  0  0  0  0
   -0.3889    1.8524    0.4894 C   0  0  0  0  0  0  0  0  0  0  0  0
   -0.6172   -0.5636    1.5797 C   0  0  0  0  0  0  0  0  0  0  0  0
   -0.4265    2.1960   -1.0207 C   0  0  0  0  0  0  0  0  0  0  0  0
   -0.8140   -1.9049    0.8300 C   0  0  0  0  0  0  0  0  0  0  0  0
   -0.6646    0.8694   -1.7754 C   0  0  0  0  0  0  0  0  0  0  0  0
   -0.8949   -1.5681   -0.6754 C   0  0  0  0  0  0  0  0  0  0  0  0
   -0.4170   -0.1420   -0.6899 C   0  0  0  0  0  3  0  0  0  0  0  0
    3.0158   -0.9379    0.1130 C   0  0  0  0  0  0  0  0  0  0  0  0
    1.9329   -0.2108    0.3757 C   0  0  0  0  0  0  0  0  0  0  0  0
   -2.0998    0.5358    0.4596 H   0  0  0  0  0  0  0  0  0  0  0  0
   -0.9925    2.5686    1.0874 H   0  0  0  0  0  0  0  0  0  0  0  0
    0.6610    1.8421    0.8587 H   0  0  0  0  0  0  0  0  0  0  0  0
    0.5370    2.6553   -1.3315 H   0  0  0  0  0  0  0  0  0  0  0  0
   -1.2526    2.9082   -1.2359 H   0  0  0  0  0  0  0  0  0  0  0  0
   -1.2815   -0.4895    2.4675 H   0  0  0  0  0  0  0  0  0  0  0  0
    0.4448   -0.4457    1.8911 H   0  0  0  0  0  0  0  0  0  0  0  0
    0.0419   -2.5847    1.0332 H   0  0  0  0  0  0  0  0  0  0  0  0
   -1.7541   -2.3989    1.1591 H   0  0  0  0  0  0  0  0  0  0  0  0
   -1.7124    0.8033   -2.1431 H   0  0  0  0  0  0  0  0  0  0  0  0
    0.0541    0.7352   -2.6111 H   0  0  0  0  0  0  0  0  0  0  0  0
   -1.9429   -1.6356   -1.0424 H   0  0  0  0  0  0  0  0  0  0  0  0
   -0.2247   -2.2151   -1.2797 H   0  0  0  0  0  0  0  0  0  0  0  0
    2.9395   -1.8229   -0.5098 H   0  0  0  0  0  0  0  0  0  0  0  0
    3.9799   -0.6503    0.5197 H   0  0  0  0  0  0  0  0  0  0  0  0
    2.0063    0.6749    0.9984 H   0  0  0  0  0  0  0  0  0  0  0  0
    0.8570   -0.5346   -0.0800 H   0  0  0  0  0  0  0  0  0  0  0  0
  1  2  1  0
  1  3  1  0
  1  8  1  0
  1 11  1  0
  2  4  1  0
  2 12  1  0
  2 13  1  0
  3  5  1  0
  3 16  1  0
  3 17  1  0
  4  6  1  0
  4 14  1  0
  4 15  1  0
  5  7  1  0
  5 18  1  0
  5 19  1  0
  6  8  1  0
  6 20  1  0
  6 21  1  0
  7  8  1  0
  7 22  1  0
  7 23  1  0
  9 10  2  3
  9 24  1  0
  9 25  1  0
 10 26  1  0
 10 27  1  0
M  RAD  1   8   2
M  END
>  <reaction>  (17) 
rxn_572

>  <mol_properties>  (17) 
{"0": {"label": "*3", "atom_type": "Cd"}, "1": {"label": "*4", "atom_type": "Cd"}, "7": {"label": "*1", "atom_type": "Cs"}, "11": {"label": "*0", "atom_type": "Cs"}, "17": {"label": "*2", "atom_type": "H0"}}

>  <type>  (17) 
unop_13

>  <geom_source>  (17) 
AutoTST

$$$$
