
     RDKit          3D

 10  9  0  0  0  0  0  0  0  0999 V2000
   -1.1906   -0.0419   -0.0385 C   0  0  0  0  0  0  0  0  0  0  0  0
    0.2513    0.4500    0.0348 C   0  0  0  0  0  0  0  0  0  0  0  0
    1.2500   -0.5694    0.3278 N   0  0  0  0  0  0  0  0  0  0  0  0
   -1.4965   -0.4905    0.9100 H   0  0  0  0  0  0  0  0  0  0  0  0
   -1.3035   -0.7985   -0.8190 H   0  0  0  0  0  0  0  0  0  0  0  0
   -1.8789    0.7769   -0.2612 H   0  0  0  0  0  0  0  0  0  0  0  0
    0.3352    1.2278    0.7979 H   0  0  0  0  0  0  0  0  0  0  0  0
    0.5259    0.9233   -0.9113 H   0  0  0  0  0  0  0  0  0  0  0  0
    1.2298   -1.2971   -0.3752 H   0  0  0  0  0  0  0  0  0  0  0  0
    1.0523   -1.0138    1.2153 H   0  0  0  0  0  0  0  0  0  0  0  0
  1  2  1  0
  1  4  1  0
  1  5  1  0
  1  6  1  0
  2  3  1  0
  2  7  1  0
  2  8  1  0
  3  9  1  0
  3 10  1  0
M  END
>  <reaction>  (1) 
rxn_113

>  <mol_properties>  (1) 
{"2": {"label": "donator", "atom_type": "N3s"}, "8": {"label": "d_hydrogen", "atom_type": "H0"}}

>  <type>  (1) 
r1h

$$$$

     RDKit          3D

  1  0  0  0  0  0  0  0  0  0999 V2000
    0.0000    0.0000    0.0000 H   0  0  0  0  0 15  0  0  0  0  0  0
M  END
>  <reaction>  (2) 
rxn_113

>  <mol_properties>  (2) 
{"0": {"label": "acceptor", "atom_type": "H0"}}

>  <type>  (2) 
r2

$$$$

     RDKit          3D

  2  1  0  0  0  0  0  0  0  0999 V2000
    0.0000    0.0000    0.3721 H   0  0  0  0  0  0  0  0  0  0  0  0
    0.0000    0.0000   -0.3721 H   0  0  0  0  0  0  0  0  0  0  0  0
  1  2  1  0
M  END
>  <reaction>  (3) 
rxn_113

>  <mol_properties>  (3) 
{"0": {"label": "a_hydrogen", "atom_type": "H0"}, "1": {"label": "acceptor", "atom_type": "H0"}}

>  <type>  (3) 
r2h

$$$$

     RDKit          3D

 11  9  0  0  0  0  0  0  0  0999 V2000
    0.0454   -0.4819   -1.2096 C   0  0  0  0  0  0  0  0  0  0  0  0
    0.0330   -0.5081    0.3134 C   0  0  0  0  0  0  0  0  0  0  0  0
    0.1090    0.7829    0.9748 N   0  0  0  0  0  0  0  0  0  0  0  0
    0.9494    0.0052   -1.5835 H   0  0  0  0  0  0  0  0  0  0  0  0
   -0.8175    0.0689   -1.5881 H   0  0  0  0  0  0  0  0  0  0  0  0
    0.0147   -1.4938   -1.6180 H   0  0  0  0  0  0  0  0  0  0  0  0
    0.8888   -1.0897    0.6778 H   0  0  0  0  0  0  0  0  0  0  0  0
   -0.8617   -1.0175    0.6779 H   0  0  0  0  0  0  0  0  0  0  0  0
   -0.9398    1.3953    0.7095 H   0  0  0  0  0  0  0  0  0  0  0  0
    0.8014    1.3558    0.4894 H   0  0  0  0  0  0  0  0  0  0  0  0
   -1.6311    1.7994    0.2162 H   0  0  0  0  0 15  0  0  0  0  0  0
  1  2  1  0
  1  4  1  0
  1  5  1  0
  1  6  1  0
  2  3  1  0
  2  7  1  0
  2  8  1  0
  3  9  1  0
  3 10  1  0
M  END
>  <reaction>  (4) 
rxn_113

>  <mol_properties>  (4) 
{"1": {"label": "*4", "atom_type": "Cs"}, "2": {"label": "*3", "atom_type": "N3s"}, "8": {"label": "*2", "atom_type": "H0"}, "10": {"label": "*1", "atom_type": "H0"}}

>  <type>  (4) 
ts

$$$$

     RDKit          3D

 11  9  0  0  0  0  0  0  0  0999 V2000
    0.0406   -0.5116   -1.2239 C   0  0  0  0  0  0  0  0  0  0  0  0
    0.0406   -0.5116    0.3014 C   0  0  0  0  0  0  0  0  0  0  0  0
    0.0406    0.8022    0.9308 N   0  0  0  0  0  0  0  0  0  0  0  0
    0.9240    0.0015   -1.6121 H   0  0  0  0  0  0  0  0  0  0  0  0
   -0.8428    0.0015   -1.6121 H   0  0  0  0  0  0  0  0  0  0  0  0
    0.0406   -1.5294   -1.6212 H   0  0  0  0  0  0  0  0  0  0  0  0
    0.9139   -1.0568    0.6681 H   0  0  0  0  0  0  0  0  0  0  0  0
   -0.8327   -1.0568    0.6681 H   0  0  0  0  0  0  0  0  0  0  0  0
   -0.9345    1.4386    0.5857 H   0  0  0  0  0  0  0  0  0  0  0  0
    0.8532    1.3325    0.6432 H   0  0  0  0  0  0  0  0  0  0  0  0
   -1.6516    1.9065    0.3319 H   0  0  0  0  0 15  0  0  0  0  0  0
  1  2  1  0
  1  4  1  0
  1  5  1  0
  1  6  1  0
  2  3  1  0
  2  7  1  0
  2  8  1  0
  3  9  1  0
  3 10  1  0
M  END
>  <reaction>  (5) 
rxn_113

>  <mol_properties>  (5) 
{"1": {"label": "*4", "atom_type": "Cs"}, "2": {"label": "*3", "atom_type": "N3s"}, "8": {"label": "*2", "atom_type": "H0"}, "10": {"label": "*1", "atom_type": "H0"}}

>  <type>  (5) 
unop_1

>  <geom_source>  (5) 
Heuristics

$$$$
