
     RDKit          3D

  6  5  0  0  0  0  0  0  0  0999 V2000
   -0.3669    0.0060    0.0609 C   0  0  0  0  0  0  0  0  0  0  0  0
    0.9818   -0.0507    0.4695 O   0  0  0  0  0  0  0  0  0  0  0  0
   -0.6066    0.9462   -0.4488 H   0  0  0  0  0  0  0  0  0  0  0  0
   -0.5221   -0.8115   -0.6420 H   0  0  0  0  0  0  0  0  0  0  0  0
   -1.0602   -0.1268    0.8992 H   0  0  0  0  0  0  0  0  0  0  0  0
    1.1451    0.6595    1.0897 H   0  0  0  0  0  0  0  0  0  0  0  0
  1  2  1  0
  1  3  1  0
  1  4  1  0
  1  5  1  0
  2  6  1  0
M  END
>  <reaction>  (1) 
rxn_201

>  <mol_properties>  (1) 
{"0": {"label": "donator", "atom_type": "Cs"}, "2": {"label": "d_hydrogen", "atom_type": "H0"}}

>  <type>  (1) 
r1h

$$$$

     RDKit          3D

  4  3  0  0  0  0  0  0  0  0999 V2000
    0.0000    0.0000    0.0000 C   0  0  0  0  0  3  0  0  0  0  0  0
    1.0638   -0.1747    0.0540 H   0  0  0  0  0  0  0  0  0  0  0  0
   -0.6833   -0.8351   -0.0280 H   0  0  0  0  0  0  0  0  0  0  0  0
   -0.3805    1.0098   -0.0260 H   0  0  0  0  0  0  0  0  0  0  0  0
  1  2  1  0
  1  3  1  0
  1  4  1  0
M  RAD  1   1   2
M  END
>  <reaction>  (2) 
rxn_201

>  <mol_properties>  (2) 
{"0": {"label": "acceptor", "atom_type": "Cs"}}

>  <type>  (2) 
r2

$$$$

     RDKit          3D

  5  4  0  0  0  0  0  0  0  0999 V2000
    0.0000    0.0000    0.0000 C   0  0  0  0  0  0  0  0  0  0  0  0
   -0.6486   -0.7720   -0.4113 H   0  0  0  0  0  0  0  0  0  0  0  0
   -0.3482    0.9787   -0.3267 H   0  0  0  0  0  0  0  0  0  0  0  0
   -0.0223   -0.0487    1.0876 H   0  0  0  0  0  0  0  0  0  0  0  0
    1.0191   -0.1580   -0.3496 H   0  0  0  0  0  0  0  0  0  0  0  0
  1  2  1  0
  1  3  1  0
  1  4  1  0
  1  5  1  0
M  END
>  <reaction>  (3) 
rxn_201

>  <mol_properties>  (3) 
{"0": {"label": "a_hydrogen", "atom_type": "H0"}, "1": {"label": "acceptor", "atom_type": "Cs"}}

>  <type>  (3) 
r2h

$$$$

     RDKit          3D

 10  8  0  0  0  0  0  0  0  0999 V2000
   -0.0541   -0.8592    0.0932 C   0  0  0  0  0  0  0  0  0  0  0  0
    0.1728   -0.6961   -1.2654 O   0  0  0  0  0  0  0  0  0  0  0  0
   -0.0441    0.2887    0.6855 H   0  0  0  0  0  0  0  0  0  0  0  0
   -1.0572   -1.2527    0.2425 H   0  0  0  0  0  0  0  0  0  0  0  0
    0.7018   -1.4593    0.6091 H   0  0  0  0  0  0  0  0  0  0  0  0
    1.0822   -0.4283   -1.4022 H   0  0  0  0  0  0  0  0  0  0  0  0
   -0.0183    1.5966    1.2314 C   0  0  0  0  0  3  0  0  0  0  0  0
   -0.5499    2.1907    0.4944 H   0  0  0  0  0  0  0  0  0  0  0  0
    1.0352    1.8454    1.3220 H   0  0  0  0  0  0  0  0  0  0  0  0
   -0.5318    1.5124    2.1846 H   0  0  0  0  0  0  0  0  0  0  0  0
  1  2  1  0
  1  3  1  0
  1  4  1  0
  1  5  1  0
  2  6  1  0
  7  8  1  0
  7  9  1  0
  7 10  1  0
M  RAD  1   7   2
M  END
>  <reaction>  (4) 
rxn_201

>  <mol_properties>  (4) 
{"0": {"label": "*1", "atom_type": "Cs"}, "1": {"label": "*0", "atom_type": "O2s"}, "2": {"label": "*2", "atom_type": "H0"}, "6": {"label": "*3", "atom_type": "Cs"}, "7": {"label": "*4", "atom_type": "H0"}}

>  <type>  (4) 
ts

$$$$

     RDKit          3D

 10  8  0  0  0  0  0  0  0  0999 V2000
   -0.0187   -0.8007    0.1510 C   0  0  0  0  0  3  0  0  0  0  0  0
   -0.0187   -0.8007   -1.2594 O   0  0  0  0  0  0  0  0  0  0  0  0
   -0.0187    0.4166    0.6487 H   0  0  0  0  0  0  0  0  0  0  0  0
   -0.9332   -1.2990    0.4702 H   0  0  0  0  0  0  0  0  0  0  0  0
    0.8337   -1.3507    0.5658 H   0  0  0  0  0  0  0  0  0  0  0  0
    0.7772   -0.3671   -1.5666 H   0  0  0  0  0  0  0  0  0  0  0  0
   -0.0187    1.6261    1.1433 C   0  0  0  0  0  0  0  0  0  0  0  0
   -0.9078    1.7678    1.7558 H   0  0  0  0  0  0  0  0  0  0  0  0
    0.3715    2.5964    0.8399 H   0  0  0  0  0  0  0  0  0  0  0  0
    0.6204    1.1160    1.8623 H   0  0  0  0  0  0  0  0  0  0  0  0
  1  2  1  0
  1  4  1  0
  1  5  1  0
  2  6  1  0
  3  7  1  0
  7  8  1  0
  7  9  1  0
  7 10  1  0
M  RAD  1   1   2
M  END
>  <reaction>  (5) 
rxn_201

>  <mol_properties>  (5) 
{"0": {"label": "*1", "atom_type": "Cs"}, "1": {"label": "*0", "atom_type": "O2s"}, "2": {"label": "*2", "atom_type": "H0"}, "6": {"label": "*3", "atom_type": "Cs"}, "7": {"label": "*4", "atom_type": "H0"}}

>  <type>  (5) 
unop_1

>  <geom_source>  (5) 
Heuristics

$$$$

     RDKit          3D

 10  8  0  0  0  0  0  0  0  0999 V2000
   -0.0178   -0.7984    0.1620 C   0  0  0  0  0  3  0  0  0  0  0  0
   -0.0178   -0.7984   -1.2484 O   0  0  0  0  0  0  0  0  0  0  0  0
   -0.0178    0.4190    0.6597 H   0  0  0  0  0  0  0  0  0  0  0  0
   -0.9323   -1.2967    0.4811 H   0  0  0  0  0  0  0  0  0  0  0  0
    0.8346   -1.3484    0.5768 H   0  0  0  0  0  0  0  0  0  0  0  0
    0.7780   -0.3647   -1.5556 H   0  0  0  0  0  0  0  0  0  0  0  0
   -0.0178    1.6285    1.1542 C   0  0  0  0  0  0  0  0  0  0  0  0
   -0.5312    2.3009    0.4686 H   0  0  0  0  0  0  0  0  0  0  0  0
    0.8734    2.1181    1.5437 H   0  0  0  0  0  0  0  0  0  0  0  0
   -0.2970    0.9591    1.9665 H   0  0  0  0  0  0  0  0  0  0  0  0
  1  2  1  0
  1  4  1  0
  1  5  1  0
  2  6  1  0
  3  7  1  0
  7  8  1  0
  7  9  1  0
  7 10  1  0
M  RAD  1   1   2
M  END
>  <reaction>  (6) 
rxn_201

>  <mol_properties>  (6) 
{"0": {"label": "*1", "atom_type": "Cs"}, "1": {"label": "*0", "atom_type": "O2s"}, "2": {"label": "*2", "atom_type": "H0"}, "6": {"label": "*3", "atom_type": "Cs"}, "7": {"label": "*4", "atom_type": "H0"}}

>  <type>  (6) 
unop_2

>  <geom_source>  (6) 
Heuristics

$$$$

     RDKit          3D

 10  8  0  0  0  0  0  0  0  0999 V2000
   -0.0218   -0.8052    0.1522 C   0  0  0  0  0  3  0  0  0  0  0  0
   -0.0218   -0.8052   -1.2581 O   0  0  0  0  0  0  0  0  0  0  0  0
   -0.0218    0.4121    0.6500 H   0  0  0  0  0  0  0  0  0  0  0  0
   -0.9363   -1.3035    0.4714 H   0  0  0  0  0  0  0  0  0  0  0  0
    0.8306   -1.3552    0.5670 H   0  0  0  0  0  0  0  0  0  0  0  0
    0.7741   -0.3716   -1.5654 H   0  0  0  0  0  0  0  0  0  0  0  0
   -0.0218    1.6216    1.1445 C   0  0  0  0  0  0  0  0  0  0  0  0
   -0.5351    1.6211    2.1048 H   0  0  0  0  0  0  0  0  0  0  0  0
   -0.1778    2.5792    0.6500 H   0  0  0  0  0  0  0  0  0  0  0  0
    0.9318    1.4766    1.6499 H   0  0  0  0  0  0  0  0  0  0  0  0
  1  2  1  0
  1  4  1  0
  1  5  1  0
  2  6  1  0
  3  7  1  0
  7  8  1  0
  7  9  1  0
  7 10  1  0
M  RAD  1   1   2
M  END
>  <reaction>  (7) 
rxn_201

>  <mol_properties>  (7) 
{"0": {"label": "*1", "atom_type": "Cs"}, "1": {"label": "*0", "atom_type": "O2s"}, "2": {"label": "*2", "atom_type": "H0"}, "6": {"label": "*3", "atom_type": "Cs"}, "7": {"label": "*4", "atom_type": "H0"}}

>  <type>  (7) 
unop_3

>  <geom_source>  (7) 
Heuristics

$$$$

     RDKit          3D

 10  8  0  0  0  0  0  0  0  0999 V2000
   -0.0185   -0.7969    0.1570 C   0  0  0  0  0  3  0  0  0  0  0  0
   -0.0185   -0.7969   -1.2534 O   0  0  0  0  0  0  0  0  0  0  0  0
   -0.0185    0.4204    0.6547 H   0  0  0  0  0  0  0  0  0  0  0  0
   -0.9330   -1.2952    0.4762 H   0  0  0  0  0  0  0  0  0  0  0  0
    0.8339   -1.3469    0.5718 H   0  0  0  0  0  0  0  0  0  0  0  0
    0.7774   -0.3633   -1.5606 H   0  0  0  0  0  0  0  0  0  0  0  0
   -0.0185    1.6299    1.1493 C   0  0  0  0  0  0  0  0  0  0  0  0
    0.8706    2.1602    0.8115 H   0  0  0  0  0  0  0  0  0  0  0  0
    0.2073    1.0913    2.0683 H   0  0  0  0  0  0  0  0  0  0  0  0
   -1.0037    2.0625    1.3167 H   0  0  0  0  0  0  0  0  0  0  0  0
  1  2  1  0
  1  4  1  0
  1  5  1  0
  2  6  1  0
  3  7  1  0
  7  8  1  0
  7  9  1  0
  7 10  1  0
M  RAD  1   1   2
M  END
>  <reaction>  (8) 
rxn_201

>  <mol_properties>  (8) 
{"0": {"label": "*1", "atom_type": "Cs"}, "1": {"label": "*0", "atom_type": "O2s"}, "2": {"label": "*2", "atom_type": "H0"}, "6": {"label": "*3", "atom_type": "Cs"}, "7": {"label": "*4", "atom_type": "H0"}}

>  <type>  (8) 
unop_4

>  <geom_source>  (8) 
Heuristics

$$$$

     RDKit          3D

 10  8  0  0  0  0  0  0  0  0999 V2000
   -0.0166   -0.8099    0.1549 C   0  0  0  0  0  3  0  0  0  0  0  0
   -0.0166   -0.8099   -1.2555 O   0  0  0  0  0  0  0  0  0  0  0  0
   -0.0166    0.4074    0.6526 H   0  0  0  0  0  0  0  0  0  0  0  0
   -0.9311   -1.3082    0.4741 H   0  0  0  0  0  0  0  0  0  0  0  0
    0.8358   -1.3599    0.5697 H   0  0  0  0  0  0  0  0  0  0  0  0
    0.7792   -0.3763   -1.5627 H   0  0  0  0  0  0  0  0  0  0  0  0
   -0.0166    1.6169    1.1472 C   0  0  0  0  0  0  0  0  0  0  0  0
   -0.0166    1.5644    2.2348 H   0  0  0  0  0  0  0  0  0  0  0  0
   -0.9058    2.1472    0.8094 H   0  0  0  0  0  0  0  0  0  0  0  0
    0.9157    2.1713    1.2433 H   0  0  0  0  0  0  0  0  0  0  0  0
  1  2  1  0
  1  4  1  0
  1  5  1  0
  2  6  1  0
  3  7  1  0
  7  8  1  0
  7  9  1  0
  7 10  1  0
M  RAD  1   1   2
M  END
>  <reaction>  (9) 
rxn_201

>  <mol_properties>  (9) 
{"0": {"label": "*1", "atom_type": "Cs"}, "1": {"label": "*0", "atom_type": "O2s"}, "2": {"label": "*2", "atom_type": "H0"}, "6": {"label": "*3", "atom_type": "Cs"}, "7": {"label": "*4", "atom_type": "H0"}}

>  <type>  (9) 
unop_5

>  <geom_source>  (9) 
Heuristics

$$$$

     RDKit          3D

 10  8  0  0  0  0  0  0  0  0999 V2000
   -0.0164   -0.7991    0.1536 C   0  0  0  0  0  3  0  0  0  0  0  0
   -0.0164   -0.7991   -1.2568 O   0  0  0  0  0  0  0  0  0  0  0  0
   -0.0164    0.4182    0.6513 H   0  0  0  0  0  0  0  0  0  0  0  0
   -0.9309   -1.2974    0.4727 H   0  0  0  0  0  0  0  0  0  0  0  0
    0.8360   -1.3491    0.5683 H   0  0  0  0  0  0  0  0  0  0  0  0
    0.7795   -0.3654   -1.5641 H   0  0  0  0  0  0  0  0  0  0  0  0
   -0.0164    1.6278    1.1458 C   0  0  0  0  0  0  0  0  0  0  0  0
    1.0102    1.9638    1.2832 H   0  0  0  0  0  0  0  0  0  0  0  0
   -0.3047    0.9909    1.9807 H   0  0  0  0  0  0  0  0  0  0  0  0
   -0.7227    2.4542    1.0828 H   0  0  0  0  0  0  0  0  0  0  0  0
  1  2  1  0
  1  4  1  0
  1  5  1  0
  2  6  1  0
  3  7  1  0
  7  8  1  0
  7  9  1  0
  7 10  1  0
M  RAD  1   1   2
M  END
>  <reaction>  (10) 
rxn_201

>  <mol_properties>  (10) 
{"0": {"label": "*1", "atom_type": "Cs"}, "1": {"label": "*0", "atom_type": "O2s"}, "2": {"label": "*2", "atom_type": "H0"}, "6": {"label": "*3", "atom_type": "Cs"}, "7": {"label": "*4", "atom_type": "H0"}}

>  <type>  (10) 
unop_6

>  <geom_source>  (10) 
Heuristics

$$$$

     RDKit          3D

 10  8  0  0  0  0  0  0  0  0999 V2000
   -0.0130   -0.8018    0.1516 C   0  0  0  0  0  3  0  0  0  0  0  0
   -0.0130   -0.8018   -1.2587 O   0  0  0  0  0  0  0  0  0  0  0  0
   -0.0130    0.4156    0.6493 H   0  0  0  0  0  0  0  0  0  0  0  0
   -0.9274   -1.3000    0.4708 H   0  0  0  0  0  0  0  0  0  0  0  0
    0.8394   -1.3518    0.5664 H   0  0  0  0  0  0  0  0  0  0  0  0
    0.7829   -0.3681   -1.5660 H   0  0  0  0  0  0  0  0  0  0  0  0
   -0.0130    1.6251    1.1439 C   0  0  0  0  0  0  0  0  0  0  0  0
    0.8761    1.7668    1.7564 H   0  0  0  0  0  0  0  0  0  0  0  0
   -0.7693    1.0935    1.7194 H   0  0  0  0  0  0  0  0  0  0  0  0
   -0.2742    2.6654    0.9557 H   0  0  0  0  0  0  0  0  0  0  0  0
  1  2  1  0
  1  4  1  0
  1  5  1  0
  2  6  1  0
  3  7  1  0
  7  8  1  0
  7  9  1  0
  7 10  1  0
M  RAD  1   1   2
M  END
>  <reaction>  (11) 
rxn_201

>  <mol_properties>  (11) 
{"0": {"label": "*1", "atom_type": "Cs"}, "1": {"label": "*0", "atom_type": "O2s"}, "2": {"label": "*2", "atom_type": "H0"}, "6": {"label": "*3", "atom_type": "Cs"}, "7": {"label": "*4", "atom_type": "H0"}}

>  <type>  (11) 
unop_7

>  <geom_source>  (11) 
Heuristics

$$$$

     RDKit          3D

 10  8  0  0  0  0  0  0  0  0999 V2000
   -0.0151   -0.7995    0.1538 C   0  0  0  0  0  3  0  0  0  0  0  0
   -0.0151   -0.7995   -1.2565 O   0  0  0  0  0  0  0  0  0  0  0  0
   -0.0151    0.4178    0.6515 H   0  0  0  0  0  0  0  0  0  0  0  0
   -0.9296   -1.2978    0.4730 H   0  0  0  0  0  0  0  0  0  0  0  0
    0.8373   -1.3495    0.5686 H   0  0  0  0  0  0  0  0  0  0  0  0
    0.7807   -0.3659   -1.5638 H   0  0  0  0  0  0  0  0  0  0  0  0
   -0.0151    1.6273    1.1461 C   0  0  0  0  0  0  0  0  0  0  0  0
   -1.0418    1.9633    1.2834 H   0  0  0  0  0  0  0  0  0  0  0  0
    0.6467    2.4910    1.1029 H   0  0  0  0  0  0  0  0  0  0  0  0
    0.3228    0.9739    1.9490 H   0  0  0  0  0  0  0  0  0  0  0  0
  1  2  1  0
  1  4  1  0
  1  5  1  0
  2  6  1  0
  3  7  1  0
  7  8  1  0
  7  9  1  0
  7 10  1  0
M  RAD  1   1   2
M  END
>  <reaction>  (12) 
rxn_201

>  <mol_properties>  (12) 
{"0": {"label": "*1", "atom_type": "Cs"}, "1": {"label": "*0", "atom_type": "O2s"}, "2": {"label": "*2", "atom_type": "H0"}, "6": {"label": "*3", "atom_type": "Cs"}, "7": {"label": "*4", "atom_type": "H0"}}

>  <type>  (12) 
unop_8

>  <geom_source>  (12) 
Heuristics

$$$$

     RDKit          3D

 10  8  0  0  0  0  0  0  0  0999 V2000
   -0.0198   -0.7954    0.1602 C   0  0  0  0  0  3  0  0  0  0  0  0
   -0.0198   -0.7954   -1.2501 O   0  0  0  0  0  0  0  0  0  0  0  0
   -0.0198    0.4219    0.6580 H   0  0  0  0  0  0  0  0  0  0  0  0
   -0.9343   -1.2937    0.4794 H   0  0  0  0  0  0  0  0  0  0  0  0
    0.8326   -1.3454    0.5750 H   0  0  0  0  0  0  0  0  0  0  0  0
    0.7761   -0.3617   -1.5574 H   0  0  0  0  0  0  0  0  0  0  0  0
   -0.0198    1.6315    1.1525 C   0  0  0  0  0  0  0  0  0  0  0  0
    0.4935    2.3039    0.4669 H   0  0  0  0  0  0  0  0  0  0  0  0
    0.6444    1.3774    1.9771 H   0  0  0  0  0  0  0  0  0  0  0  0
   -1.0054    1.5668    1.6109 H   0  0  0  0  0  0  0  0  0  0  0  0
  1  2  1  0
  1  4  1  0
  1  5  1  0
  2  6  1  0
  3  7  1  0
  7  8  1  0
  7  9  1  0
  7 10  1  0
M  RAD  1   1   2
M  END
>  <reaction>  (13) 
rxn_201

>  <mol_properties>  (13) 
{"0": {"label": "*1", "atom_type": "Cs"}, "1": {"label": "*0", "atom_type": "O2s"}, "2": {"label": "*2", "atom_type": "H0"}, "6": {"label": "*3", "atom_type": "Cs"}, "7": {"label": "*4", "atom_type": "H0"}}

>  <type>  (13) 
unop_9

>  <geom_source>  (13) 
Heuristics

$$$$

     RDKit          3D

 10  8  0  0  0  0  0  0  0  0999 V2000
   -0.0150   -0.7995    0.1585 C   0  0  0  0  0  3  0  0  0  0  0  0
   -0.0150   -0.7995   -1.2519 O   0  0  0  0  0  0  0  0  0  0  0  0
   -0.0150    0.4179    0.6562 H   0  0  0  0  0  0  0  0  0  0  0  0
   -0.9295   -1.2977    0.4777 H   0  0  0  0  0  0  0  0  0  0  0  0
    0.8374   -1.3495    0.5733 H   0  0  0  0  0  0  0  0  0  0  0  0
    0.7809   -0.3658   -1.5591 H   0  0  0  0  0  0  0  0  0  0  0  0
   -0.0150    1.6274    1.1508 C   0  0  0  0  0  0  0  0  0  0  0  0
   -0.9041    2.1576    0.8130 H   0  0  0  0  0  0  0  0  0  0  0  0
    0.7853    2.3421    1.3363 H   0  0  0  0  0  0  0  0  0  0  0  0
    0.0418    0.9260    1.9818 H   0  0  0  0  0  0  0  0  0  0  0  0
  1  2  1  0
  1  4  1  0
  1  5  1  0
  2  6  1  0
  3  7  1  0
  7  8  1  0
  7  9  1  0
  7 10  1  0
M  RAD  1   1   2
M  END
>  <reaction>  (14) 
rxn_201

>  <mol_properties>  (14) 
{"0": {"label": "*1", "atom_type": "Cs"}, "1": {"label": "*0", "atom_type": "O2s"}, "2": {"label": "*2", "atom_type": "H0"}, "6": {"label": "*3", "atom_type": "Cs"}, "7": {"label": "*4", "atom_type": "H0"}}

>  <type>  (14) 
unop_10

>  <geom_source>  (14) 
Heuristics

$$$$

     RDKit          3D

 10  8  0  0  0  0  0  0  0  0999 V2000
   -0.0109   -0.8064    0.1529 C   0  0  0  0  0  3  0  0  0  0  0  0
   -0.0109   -0.8064   -1.2575 O   0  0  0  0  0  0  0  0  0  0  0  0
   -0.0109    0.4110    0.6506 H   0  0  0  0  0  0  0  0  0  0  0  0
   -0.9254   -1.3046    0.4721 H   0  0  0  0  0  0  0  0  0  0  0  0
    0.8415   -1.3564    0.5677 H   0  0  0  0  0  0  0  0  0  0  0  0
    0.7850   -0.3727   -1.5647 H   0  0  0  0  0  0  0  0  0  0  0  0
   -0.0109    1.6205    1.1452 C   0  0  0  0  0  0  0  0  0  0  0  0
    0.5024    1.6200    2.1055 H   0  0  0  0  0  0  0  0  0  0  0  0
   -1.0767    1.4630    1.3032 H   0  0  0  0  0  0  0  0  0  0  0  0
    0.3158    2.6438    0.9669 H   0  0  0  0  0  0  0  0  0  0  0  0
  1  2  1  0
  1  4  1  0
  1  5  1  0
  2  6  1  0
  3  7  1  0
  7  8  1  0
  7  9  1  0
  7 10  1  0
M  RAD  1   1   2
M  END
>  <reaction>  (15) 
rxn_201

>  <mol_properties>  (15) 
{"0": {"label": "*1", "atom_type": "Cs"}, "1": {"label": "*0", "atom_type": "O2s"}, "2": {"label": "*2", "atom_type": "H0"}, "6": {"label": "*3", "atom_type": "Cs"}, "7": {"label": "*4", "atom_type": "H0"}}

>  <type>  (15) 
unop_11

>  <geom_source>  (15) 
Heuristics

$$$$

     RDKit          3D

 10  8  0  0  0  0  0  0  0  0999 V2000
   -0.0201   -0.7962    0.1624 C   0  0  0  0  0  3  0  0  0  0  0  0
   -0.0201   -0.7962   -1.2480 O   0  0  0  0  0  0  0  0  0  0  0  0
   -0.0201    0.4212    0.6601 H   0  0  0  0  0  0  0  0  0  0  0  0
   -0.9346   -1.2945    0.4815 H   0  0  0  0  0  0  0  0  0  0  0  0
    0.8323   -1.3462    0.5771 H   0  0  0  0  0  0  0  0  0  0  0  0
    0.7758   -0.3625   -1.5553 H   0  0  0  0  0  0  0  0  0  0  0  0
   -0.0201    1.6307    1.1546 C   0  0  0  0  0  0  0  0  0  0  0  0
   -0.0201    2.3552    0.3417 H   0  0  0  0  0  0  0  0  0  0  0  0
    0.8690    1.7724    1.7671 H   0  0  0  0  0  0  0  0  0  0  0  0
   -0.7055    1.1543    1.8539 H   0  0  0  0  0  0  0  0  0  0  0  0
  1  2  1  0
  1  4  1  0
  1  5  1  0
  2  6  1  0
  3  7  1  0
  7  8  1  0
  7  9  1  0
  7 10  1  0
M  RAD  1   1   2
M  END
>  <reaction>  (16) 
rxn_201

>  <mol_properties>  (16) 
{"0": {"label": "*1", "atom_type": "Cs"}, "1": {"label": "*0", "atom_type": "O2s"}, "2": {"label": "*2", "atom_type": "H0"}, "6": {"label": "*3", "atom_type": "Cs"}, "7": {"label": "*4", "atom_type": "H0"}}

>  <type>  (16) 
unop_12

>  <geom_source>  (16) 
Heuristics

$$$$

     RDKit          3D

 10  8  0  0  0  0  0  0  0  0999 V2000
    2.2900   -0.3471    0.0267 O   0  0  0  0  0  0  0  0  0  0  0  0
   -1.5118   -0.1263   -0.0450 C   0  0  0  0  0  0  0  0  0  0  0  0
    1.0356    0.2524    0.1346 C   0  0  0  0  0  3  0  0  0  0  0  0
   -2.0333   -0.9310   -0.6029 H   0  0  0  0  0  0  0  0  0  0  0  0
   -1.8187    0.8611   -0.4471 H   0  0  0  0  0  0  0  0  0  0  0  0
   -1.7801   -0.1876    1.0297 H   0  0  0  0  0  0  0  0  0  0  0  0
   -0.2586   -0.2649   -0.1763 H   0  0  0  0  0  0  0  0  0  0  0  0
    0.7462    0.3136    1.2039 H   0  0  0  0  0  0  0  0  0  0  0  0
    1.0733    1.2754   -0.2949 H   0  0  0  0  0  0  0  0  0  0  0  0
    2.2574   -0.8456   -0.8288 H   0  0  0  0  0  0  0  0  0  0  0  0
  1  3  1  0
  1 10  1  0
  2  4  1  0
  2  5  1  0
  2  6  1  0
  2  7  1  0
  3  8  1  0
  3  9  1  0
M  RAD  1   3   2
M  END
>  <reaction>  (17) 
rxn_201

>  <mol_properties>  (17) 
{"0": {"label": "*1", "atom_type": "Cs"}, "1": {"label": "*0", "atom_type": "O2s"}, "2": {"label": "*2", "atom_type": "H0"}, "6": {"label": "*3", "atom_type": "Cs"}, "7": {"label": "*4", "atom_type": "H0"}}

>  <type>  (17) 
unop_13

>  <geom_source>  (17) 
AutoTST

$$$$
