
     RDKit          3D

  3  2  0  0  0  0  0  0  0  0999 V2000
   -0.0007    0.6157    0.0000 S   0  0  0  0  0  0  0  0  0  0  0  0
   -0.9686   -0.3090    0.0000 H   0  0  0  0  0  0  0  0  0  0  0  0
    0.9693   -0.3067    0.0000 H   0  0  0  0  0  0  0  0  0  0  0  0
  1  2  1  0
  1  3  1  0
M  END
>  <reaction>  (1) 
rxn_474

>  <mol_properties>  (1) 
{"0": {"label": "donator", "atom_type": "S2s"}, "1": {"label": "d_hydrogen", "atom_type": "H0"}}

>  <type>  (1) 
r1h

$$$$

     RDKit          3D

  5  4  0  0  0  0  0  0  0  0999 V2000
   -0.0419    0.0056   -0.0340 C   0  0  0  0  0  0  0  0  0  0  0  0
    1.3118    0.0049   -0.1263 O   0  0  0  0  0  1  0  0  0  0  0  0
   -0.2615   -0.1535    1.0387 H   0  0  0  0  0  0  0  0  0  0  0  0
   -0.4946    0.9694   -0.3042 H   0  0  0  0  0  0  0  0  0  0  0  0
   -0.5138   -0.8264   -0.5743 H   0  0  0  0  0  0  0  0  0  0  0  0
  1  2  1  0
  1  3  1  0
  1  4  1  0
  1  5  1  0
M  RAD  1   2   2
M  END
>  <reaction>  (2) 
rxn_474

>  <mol_properties>  (2) 
{"1": {"label": "acceptor", "atom_type": "O2s"}}

>  <type>  (2) 
r2

$$$$

     RDKit          3D

  6  5  0  0  0  0  0  0  0  0999 V2000
   -0.3669    0.0060    0.0609 C   0  0  0  0  0  0  0  0  0  0  0  0
    0.9818   -0.0507    0.4695 O   0  0  0  0  0  0  0  0  0  0  0  0
   -0.6066    0.9462   -0.4488 H   0  0  0  0  0  0  0  0  0  0  0  0
   -0.5221   -0.8115   -0.6420 H   0  0  0  0  0  0  0  0  0  0  0  0
   -1.0602   -0.1268    0.8992 H   0  0  0  0  0  0  0  0  0  0  0  0
    1.1451    0.6595    1.0897 H   0  0  0  0  0  0  0  0  0  0  0  0
  1  2  1  0
  1  3  1  0
  1  4  1  0
  1  5  1  0
  2  6  1  0
M  END
>  <reaction>  (3) 
rxn_474

>  <mol_properties>  (3) 
{"0": {"label": "a_hydrogen", "atom_type": "H0"}, "2": {"label": "acceptor", "atom_type": "O2s"}}

>  <type>  (3) 
r2h

$$$$

     RDKit          3D

  8  6  0  0  0  0  0  0  0  0999 V2000
   -0.3906   -1.3341   -0.4942 S   0  0  0  0  0  1  0  0  0  0  0  0
   -0.5566    0.1146   -0.4836 H   0  0  0  0  0  0  0  0  0  0  0  0
    0.7467   -1.2580   -1.1974 H   0  0  0  0  0  0  0  0  0  0  0  0
    0.0523    1.6413    1.0733 C   0  0  0  0  0  0  0  0  0  0  0  0
   -0.2891    1.3978   -0.2452 O   0  0  0  0  0  0  0  0  0  0  0  0
    0.0559    2.7370    1.1640 H   0  0  0  0  0  0  0  0  0  0  0  0
    1.0598    1.2889    1.3170 H   0  0  0  0  0  0  0  0  0  0  0  0
   -0.6783    1.2440    1.7845 H   0  0  0  0  0  0  0  0  0  0  0  0
  1  3  1  0
  2  5  1  0
  4  5  1  0
  4  6  1  0
  4  7  1  0
  4  8  1  0
M  RAD  1   1   2
M  END
>  <reaction>  (4) 
rxn_474

>  <mol_properties>  (4) 
{"0": {"label": "*3", "atom_type": "S2s"}, "1": {"label": "*2", "atom_type": "H0"}, "2": {"label": "*4", "atom_type": "H0"}, "3": {"label": "*0", "atom_type": "Cs"}, "4": {"label": "*1", "atom_type": "O2s"}}

>  <type>  (4) 
ts

$$$$

     RDKit          3D

  8  6  0  0  0  0  0  0  0  0999 V2000
    0.2813   -1.4410   -0.2120 S   0  0  0  0  0  1  0  0  0  0  0  0
    0.2813    0.1635   -0.1349 H   0  0  0  0  0  0  0  0  0  0  0  0
    0.2813   -1.4410   -1.5506 H   0  0  0  0  0  0  0  0  0  0  0  0
   -0.8754    1.7308    0.6090 C   0  0  0  0  0  0  0  0  0  0  0  0
    0.2813    1.3106   -0.0798 O   0  0  0  0  0  0  0  0  0  0  0  0
   -0.5701    2.5222    1.2924 H   0  0  0  0  0  0  0  0  0  0  0  0
   -1.3235    0.9230    1.1987 H   0  0  0  0  0  0  0  0  0  0  0  0
   -1.6363    2.1369   -0.0672 H   0  0  0  0  0  0  0  0  0  0  0  0
  1  3  1  0
  2  5  1  0
  4  5  1  0
  4  6  1  0
  4  7  1  0
  4  8  1  0
M  RAD  1   1   2
M  END
>  <reaction>  (5) 
rxn_474

>  <mol_properties>  (5) 
{"0": {"label": "*3", "atom_type": "S2s"}, "1": {"label": "*2", "atom_type": "H0"}, "2": {"label": "*4", "atom_type": "H0"}, "3": {"label": "*0", "atom_type": "Cs"}, "4": {"label": "*1", "atom_type": "O2s"}}

>  <type>  (5) 
unop_1

>  <geom_source>  (5) 
Heuristics

$$$$

     RDKit          3D

  8  6  0  0  0  0  0  0  0  0999 V2000
    0.1629   -1.4626    0.2323 S   0  0  0  0  0  1  0  0  0  0  0  0
    0.1629    0.1419    0.3094 H   0  0  0  0  0  0  0  0  0  0  0  0
    0.1629   -1.4626   -1.1063 H   0  0  0  0  0  0  0  0  0  0  0  0
   -0.5049    1.7968   -0.7692 C   0  0  0  0  0  0  0  0  0  0  0  0
    0.1629    1.2891    0.3645 O   0  0  0  0  0  0  0  0  0  0  0  0
   -0.8091    2.8152   -0.5309 H   0  0  0  0  0  0  0  0  0  0  0  0
   -1.4036    1.2194   -1.0145 H   0  0  0  0  0  0  0  0  0  0  0  0
    0.1436    1.8308   -1.6521 H   0  0  0  0  0  0  0  0  0  0  0  0
  1  3  1  0
  2  5  1  0
  4  5  1  0
  4  6  1  0
  4  7  1  0
  4  8  1  0
M  RAD  1   1   2
M  END
>  <reaction>  (6) 
rxn_474

>  <mol_properties>  (6) 
{"0": {"label": "*3", "atom_type": "S2s"}, "1": {"label": "*2", "atom_type": "H0"}, "2": {"label": "*4", "atom_type": "H0"}, "3": {"label": "*0", "atom_type": "Cs"}, "4": {"label": "*1", "atom_type": "O2s"}}

>  <type>  (6) 
unop_2

>  <geom_source>  (6) 
Heuristics

$$$$

     RDKit          3D

  8  6  0  0  0  0  0  0  0  0999 V2000
    0.1621   -1.4354   -0.3305 S   0  0  0  0  0  1  0  0  0  0  0  0
    0.1621    0.1691   -0.2534 H   0  0  0  0  0  0  0  0  0  0  0  0
    0.1621   -1.4354   -1.6691 H   0  0  0  0  0  0  0  0  0  0  0  0
   -0.5057    1.7130    0.9788 C   0  0  0  0  0  0  0  0  0  0  0  0
    0.1621    1.3162   -0.1983 O   0  0  0  0  0  0  0  0  0  0  0  0
   -0.0407    2.6396    1.3127 H   0  0  0  0  0  0  0  0  0  0  0  0
   -0.4081    0.9724    1.7808 H   0  0  0  0  0  0  0  0  0  0  0  0
   -1.5705    1.9068    0.8063 H   0  0  0  0  0  0  0  0  0  0  0  0
  1  3  1  0
  2  5  1  0
  4  5  1  0
  4  6  1  0
  4  7  1  0
  4  8  1  0
M  RAD  1   1   2
M  END
>  <reaction>  (7) 
rxn_474

>  <mol_properties>  (7) 
{"0": {"label": "*3", "atom_type": "S2s"}, "1": {"label": "*2", "atom_type": "H0"}, "2": {"label": "*4", "atom_type": "H0"}, "3": {"label": "*0", "atom_type": "Cs"}, "4": {"label": "*1", "atom_type": "O2s"}}

>  <type>  (7) 
unop_3

>  <geom_source>  (7) 
Heuristics

$$$$

     RDKit          3D

  8  6  0  0  0  0  0  0  0  0999 V2000
   -0.2820   -1.4567    0.1131 S   0  0  0  0  0  1  0  0  0  0  0  0
   -0.2820    0.1478    0.1901 H   0  0  0  0  0  0  0  0  0  0  0  0
   -0.2820   -1.4567   -1.2256 H   0  0  0  0  0  0  0  0  0  0  0  0
    0.8748    1.7792   -0.4001 C   0  0  0  0  0  0  0  0  0  0  0  0
   -0.2820    1.2949    0.2452 O   0  0  0  0  0  0  0  0  0  0  0  0
    1.1954    2.6670    0.1435 H   0  0  0  0  0  0  0  0  0  0  0  0
    0.6803    2.0659   -1.4399 H   0  0  0  0  0  0  0  0  0  0  0  0
    1.6946    1.0521   -0.3827 H   0  0  0  0  0  0  0  0  0  0  0  0
  1  3  1  0
  2  5  1  0
  4  5  1  0
  4  6  1  0
  4  7  1  0
  4  8  1  0
M  RAD  1   1   2
M  END
>  <reaction>  (8) 
rxn_474

>  <mol_properties>  (8) 
{"0": {"label": "*3", "atom_type": "S2s"}, "1": {"label": "*2", "atom_type": "H0"}, "2": {"label": "*4", "atom_type": "H0"}, "3": {"label": "*0", "atom_type": "Cs"}, "4": {"label": "*1", "atom_type": "O2s"}}

>  <type>  (8) 
unop_4

>  <geom_source>  (8) 
Heuristics

$$$$

     RDKit          3D

  8  6  0  0  0  0  0  0  0  0999 V2000
   -0.0000   -1.4335   -0.3737 S   0  0  0  0  0  1  0  0  0  0  0  0
   -0.0000    0.1710   -0.2966 H   0  0  0  0  0  0  0  0  0  0  0  0
   -0.0000   -1.4335   -1.7123 H   0  0  0  0  0  0  0  0  0  0  0  0
   -0.0000    1.7063    1.1144 C   0  0  0  0  0  0  0  0  0  0  0  0
   -0.0000    1.3181   -0.2415 O   0  0  0  0  0  0  0  0  0  0  0  0
    0.0000    2.7953    1.1346 H   0  0  0  0  0  0  0  0  0  0  0  0
    0.8908    1.3538    1.6467 H   0  0  0  0  0  0  0  0  0  0  0  0
   -0.8908    1.3538    1.6467 H   0  0  0  0  0  0  0  0  0  0  0  0
  1  3  1  0
  2  5  1  0
  4  5  1  0
  4  6  1  0
  4  7  1  0
  4  8  1  0
M  RAD  1   1   2
M  END
>  <reaction>  (9) 
rxn_474

>  <mol_properties>  (9) 
{"0": {"label": "*3", "atom_type": "S2s"}, "1": {"label": "*2", "atom_type": "H0"}, "2": {"label": "*4", "atom_type": "H0"}, "3": {"label": "*0", "atom_type": "Cs"}, "4": {"label": "*1", "atom_type": "O2s"}}

>  <type>  (9) 
unop_5

>  <geom_source>  (9) 
Heuristics

$$$$

     RDKit          3D

  8  6  0  0  0  0  0  0  0  0999 V2000
   -0.3253   -1.4488   -0.0496 S   0  0  0  0  0  1  0  0  0  0  0  0
   -0.3253    0.1557    0.0275 H   0  0  0  0  0  0  0  0  0  0  0  0
   -0.3253   -1.4488   -1.3882 H   0  0  0  0  0  0  0  0  0  0  0  0
    1.0104    1.7551    0.1043 C   0  0  0  0  0  0  0  0  0  0  0  0
   -0.3253    1.3028    0.0826 O   0  0  0  0  0  0  0  0  0  0  0  0
    1.0665    2.5488    0.8481 H   0  0  0  0  0  0  0  0  0  0  0  0
    1.3244    2.1677   -0.8613 H   0  0  0  0  0  0  0  0  0  0  0  0
    1.7115    0.9641    0.3940 H   0  0  0  0  0  0  0  0  0  0  0  0
  1  3  1  0
  2  5  1  0
  4  5  1  0
  4  6  1  0
  4  7  1  0
  4  8  1  0
M  RAD  1   1   2
M  END
>  <reaction>  (10) 
rxn_474

>  <mol_properties>  (10) 
{"0": {"label": "*3", "atom_type": "S2s"}, "1": {"label": "*2", "atom_type": "H0"}, "2": {"label": "*4", "atom_type": "H0"}, "3": {"label": "*0", "atom_type": "Cs"}, "4": {"label": "*1", "atom_type": "O2s"}}

>  <type>  (10) 
unop_6

>  <geom_source>  (10) 
Heuristics

$$$$

     RDKit          3D

  8  6  0  0  0  0  0  0  0  0999 V2000
   -0.2813   -1.4410   -0.2120 S   0  0  0  0  0  1  0  0  0  0  0  0
   -0.2813    0.1635   -0.1349 H   0  0  0  0  0  0  0  0  0  0  0  0
   -0.2813   -1.4410   -1.5506 H   0  0  0  0  0  0  0  0  0  0  0  0
    0.8754    1.7308    0.6090 C   0  0  0  0  0  0  0  0  0  0  0  0
   -0.2813    1.3106   -0.0798 O   0  0  0  0  0  0  0  0  0  0  0  0
    0.5701    2.5222    1.2924 H   0  0  0  0  0  0  0  0  0  0  0  0
    1.6363    2.1369   -0.0672 H   0  0  0  0  0  0  0  0  0  0  0  0
    1.3235    0.9230    1.1987 H   0  0  0  0  0  0  0  0  0  0  0  0
  1  3  1  0
  2  5  1  0
  4  5  1  0
  4  6  1  0
  4  7  1  0
  4  8  1  0
M  RAD  1   1   2
M  END
>  <reaction>  (11) 
rxn_474

>  <mol_properties>  (11) 
{"0": {"label": "*3", "atom_type": "S2s"}, "1": {"label": "*2", "atom_type": "H0"}, "2": {"label": "*4", "atom_type": "H0"}, "3": {"label": "*0", "atom_type": "Cs"}, "4": {"label": "*1", "atom_type": "O2s"}}

>  <type>  (11) 
unop_7

>  <geom_source>  (11) 
Heuristics

$$$$

     RDKit          3D

  8  6  0  0  0  0  0  0  0  0999 V2000
    0.3253   -1.4488   -0.0496 S   0  0  0  0  0  1  0  0  0  0  0  0
    0.3253    0.1557    0.0275 H   0  0  0  0  0  0  0  0  0  0  0  0
    0.3253   -1.4488   -1.3882 H   0  0  0  0  0  0  0  0  0  0  0  0
   -1.0104    1.7551    0.1043 C   0  0  0  0  0  0  0  0  0  0  0  0
    0.3253    1.3028    0.0826 O   0  0  0  0  0  0  0  0  0  0  0  0
   -1.0665    2.5488    0.8481 H   0  0  0  0  0  0  0  0  0  0  0  0
   -1.7115    0.9641    0.3939 H   0  0  0  0  0  0  0  0  0  0  0  0
   -1.3244    2.1677   -0.8613 H   0  0  0  0  0  0  0  0  0  0  0  0
  1  3  1  0
  2  5  1  0
  4  5  1  0
  4  6  1  0
  4  7  1  0
  4  8  1  0
M  RAD  1   1   2
M  END
>  <reaction>  (12) 
rxn_474

>  <mol_properties>  (12) 
{"0": {"label": "*3", "atom_type": "S2s"}, "1": {"label": "*2", "atom_type": "H0"}, "2": {"label": "*4", "atom_type": "H0"}, "3": {"label": "*0", "atom_type": "Cs"}, "4": {"label": "*1", "atom_type": "O2s"}}

>  <type>  (12) 
unop_8

>  <geom_source>  (12) 
Heuristics

$$$$

     RDKit          3D

  8  6  0  0  0  0  0  0  0  0999 V2000
   -0.1629   -1.4626    0.2323 S   0  0  0  0  0  1  0  0  0  0  0  0
   -0.1629    0.1419    0.3094 H   0  0  0  0  0  0  0  0  0  0  0  0
   -0.1629   -1.4626   -1.1063 H   0  0  0  0  0  0  0  0  0  0  0  0
    0.5049    1.7968   -0.7692 C   0  0  0  0  0  0  0  0  0  0  0  0
   -0.1629    1.2891    0.3645 O   0  0  0  0  0  0  0  0  0  0  0  0
    0.8091    2.8152   -0.5309 H   0  0  0  0  0  0  0  0  0  0  0  0
   -0.1436    1.8308   -1.6521 H   0  0  0  0  0  0  0  0  0  0  0  0
    1.4036    1.2194   -1.0145 H   0  0  0  0  0  0  0  0  0  0  0  0
  1  3  1  0
  2  5  1  0
  4  5  1  0
  4  6  1  0
  4  7  1  0
  4  8  1  0
M  RAD  1   1   2
M  END
>  <reaction>  (13) 
rxn_474

>  <mol_properties>  (13) 
{"0": {"label": "*3", "atom_type": "S2s"}, "1": {"label": "*2", "atom_type": "H0"}, "2": {"label": "*4", "atom_type": "H0"}, "3": {"label": "*0", "atom_type": "Cs"}, "4": {"label": "*1", "atom_type": "O2s"}}

>  <type>  (13) 
unop_9

>  <geom_source>  (13) 
Heuristics

$$$$

     RDKit          3D

  8  6  0  0  0  0  0  0  0  0999 V2000
    0.2820   -1.4567    0.1131 S   0  0  0  0  0  1  0  0  0  0  0  0
    0.2820    0.1478    0.1901 H   0  0  0  0  0  0  0  0  0  0  0  0
    0.2820   -1.4567   -1.2256 H   0  0  0  0  0  0  0  0  0  0  0  0
   -0.8748    1.7792   -0.4001 C   0  0  0  0  0  0  0  0  0  0  0  0
    0.2820    1.2949    0.2452 O   0  0  0  0  0  0  0  0  0  0  0  0
   -1.1955    2.6670    0.1435 H   0  0  0  0  0  0  0  0  0  0  0  0
   -1.6946    1.0521   -0.3827 H   0  0  0  0  0  0  0  0  0  0  0  0
   -0.6803    2.0659   -1.4399 H   0  0  0  0  0  0  0  0  0  0  0  0
  1  3  1  0
  2  5  1  0
  4  5  1  0
  4  6  1  0
  4  7  1  0
  4  8  1  0
M  RAD  1   1   2
M  END
>  <reaction>  (14) 
rxn_474

>  <mol_properties>  (14) 
{"0": {"label": "*3", "atom_type": "S2s"}, "1": {"label": "*2", "atom_type": "H0"}, "2": {"label": "*4", "atom_type": "H0"}, "3": {"label": "*0", "atom_type": "Cs"}, "4": {"label": "*1", "atom_type": "O2s"}}

>  <type>  (14) 
unop_10

>  <geom_source>  (14) 
Heuristics

$$$$

     RDKit          3D

  8  6  0  0  0  0  0  0  0  0999 V2000
   -0.1621   -1.4354   -0.3305 S   0  0  0  0  0  1  0  0  0  0  0  0
   -0.1621    0.1691   -0.2534 H   0  0  0  0  0  0  0  0  0  0  0  0
   -0.1621   -1.4354   -1.6691 H   0  0  0  0  0  0  0  0  0  0  0  0
    0.5057    1.7130    0.9788 C   0  0  0  0  0  0  0  0  0  0  0  0
   -0.1621    1.3162   -0.1983 O   0  0  0  0  0  0  0  0  0  0  0  0
    0.0407    2.6396    1.3127 H   0  0  0  0  0  0  0  0  0  0  0  0
    1.5705    1.9068    0.8063 H   0  0  0  0  0  0  0  0  0  0  0  0
    0.4081    0.9724    1.7808 H   0  0  0  0  0  0  0  0  0  0  0  0
  1  3  1  0
  2  5  1  0
  4  5  1  0
  4  6  1  0
  4  7  1  0
  4  8  1  0
M  RAD  1   1   2
M  END
>  <reaction>  (15) 
rxn_474

>  <mol_properties>  (15) 
{"0": {"label": "*3", "atom_type": "S2s"}, "1": {"label": "*2", "atom_type": "H0"}, "2": {"label": "*4", "atom_type": "H0"}, "3": {"label": "*0", "atom_type": "Cs"}, "4": {"label": "*1", "atom_type": "O2s"}}

>  <type>  (15) 
unop_11

>  <geom_source>  (15) 
Heuristics

$$$$

     RDKit          3D

  8  6  0  0  0  0  0  0  0  0999 V2000
    0.0000   -1.4647    0.2760 S   0  0  0  0  0  1  0  0  0  0  0  0
    0.0000    0.1398    0.3531 H   0  0  0  0  0  0  0  0  0  0  0  0
    0.0000   -1.4647   -1.0627 H   0  0  0  0  0  0  0  0  0  0  0  0
    0.0000    1.8033   -0.9043 C   0  0  0  0  0  0  0  0  0  0  0  0
    0.0000    1.2869    0.4082 O   0  0  0  0  0  0  0  0  0  0  0  0
   -0.0000    2.8892   -0.8200 H   0  0  0  0  0  0  0  0  0  0  0  0
   -0.8908    1.5035   -1.4680 H   0  0  0  0  0  0  0  0  0  0  0  0
    0.8908    1.5035   -1.4680 H   0  0  0  0  0  0  0  0  0  0  0  0
  1  3  1  0
  2  5  1  0
  4  5  1  0
  4  6  1  0
  4  7  1  0
  4  8  1  0
M  RAD  1   1   2
M  END
>  <reaction>  (16) 
rxn_474

>  <mol_properties>  (16) 
{"0": {"label": "*3", "atom_type": "S2s"}, "1": {"label": "*2", "atom_type": "H0"}, "2": {"label": "*4", "atom_type": "H0"}, "3": {"label": "*0", "atom_type": "Cs"}, "4": {"label": "*1", "atom_type": "O2s"}}

>  <type>  (16) 
unop_12

>  <geom_source>  (16) 
Heuristics

$$$$
