
     RDKit          3D

  9  8  0  0  0  0  0  0  0  0999 V2000
   -2.1022   -0.6873    0.3932 C   0  0  0  0  0  0  0  0  0  0  0  0
   -1.2072   -0.1086   -0.1482 C   0  0  0  0  0  0  0  0  0  0  0  0
   -0.1242    0.6105   -0.8193 C   0  0  0  0  0  0  0  0  0  0  0  0
    1.2067    0.1106   -0.4741 C   0  0  0  0  0  0  0  0  0  0  0  0
    2.3005   -0.2875   -0.2012 C   0  0  0  0  0  0  0  0  0  0  0  0
   -2.8942   -1.2059    0.8778 H   0  0  0  0  0  0  0  0  0  0  0  0
   -0.1862    1.6723   -0.5649 H   0  0  0  0  0  0  0  0  0  0  0  0
   -0.2641    0.5418   -1.9017 H   0  0  0  0  0  0  0  0  0  0  0  0
    3.2709   -0.6459    0.0455 H   0  0  0  0  0  0  0  0  0  0  0  0
  1  2  3  0
  1  6  1  0
  2  3  1  0
  3  4  1  0
  3  7  1  0
  3  8  1  0
  4  5  3  0
  5  9  1  0
M  END
>  <reaction>  (1) 
rxn_1347

>  <mol_properties>  (1) 
{"2": {"label": "donator", "atom_type": "Cs"}, "6": {"label": "d_hydrogen", "atom_type": "H0"}}

>  <type>  (1) 
r1h

$$$$

     RDKit          3D

  7  6  0  0  0  0  0  0  0  0999 V2000
   -0.6201    0.0189   -0.0017 C   0  0  0  0  0  0  0  0  0  0  0  0
    0.8589   -0.0553    0.0500 C   0  0  0  0  0  3  0  0  0  0  0  0
   -1.0738   -0.9730   -0.0559 H   0  0  0  0  0  0  0  0  0  0  0  0
   -0.9680    0.5706   -0.8872 H   0  0  0  0  0  0  0  0  0  0  0  0
   -1.0303    0.5369    0.8678 H   0  0  0  0  0  0  0  0  0  0  0  0
    1.3939   -0.8386   -0.4695 H   0  0  0  0  0  0  0  0  0  0  0  0
    1.4394    0.7404    0.4965 H   0  0  0  0  0  0  0  0  0  0  0  0
  1  2  1  0
  1  3  1  0
  1  4  1  0
  1  5  1  0
  2  6  1  0
  2  7  1  0
M  RAD  1   2   2
M  END
>  <reaction>  (2) 
rxn_1347

>  <mol_properties>  (2) 
{"1": {"label": "acceptor", "atom_type": "Cs"}}

>  <type>  (2) 
r2

$$$$

     RDKit          3D

  8  7  0  0  0  0  0  0  0  0999 V2000
    0.7610    0.0250    0.0051 C   0  0  0  0  0  0  0  0  0  0  0  0
   -0.7610   -0.0250   -0.0051 C   0  0  0  0  0  0  0  0  0  0  0  0
    1.1904   -0.9237   -0.3217 H   0  0  0  0  0  0  0  0  0  0  0  0
    1.1359    0.8041   -0.6609 H   0  0  0  0  0  0  0  0  0  0  0  0
    1.1435    0.2336    1.0058 H   0  0  0  0  0  0  0  0  0  0  0  0
   -1.1435   -0.2336   -1.0058 H   0  0  0  0  0  0  0  0  0  0  0  0
   -1.1904    0.9237    0.3216 H   0  0  0  0  0  0  0  0  0  0  0  0
   -1.1359   -0.8041    0.6609 H   0  0  0  0  0  0  0  0  0  0  0  0
  1  2  1  0
  1  3  1  0
  1  4  1  0
  1  5  1  0
  2  6  1  0
  2  7  1  0
  2  8  1  0
M  END
>  <reaction>  (3) 
rxn_1347

>  <mol_properties>  (3) 
{"0": {"label": "a_hydrogen", "atom_type": "H0"}, "2": {"label": "acceptor", "atom_type": "Cs"}}

>  <type>  (3) 
r2h

$$$$

     RDKit          3D

 16 14  0  0  0  0  0  0  0  0999 V2000
    0.2958   -0.9934   -2.4016 C   0  0  0  0  0  0  0  0  0  0  0  0
    0.0998   -0.9820   -1.2188 C   0  0  0  0  0  0  0  0  0  0  0  0
   -0.0701   -0.9325    0.2105 C   0  0  0  0  0  0  0  0  0  0  0  0
   -1.3086   -0.3721    0.6861 C   0  0  0  0  0  0  0  0  0  0  0  0
   -2.3065    0.1333    1.1178 C   0  0  0  0  0  0  0  0  0  0  0  0
    0.4499   -1.0156   -3.4535 H   0  0  0  0  0  0  0  0  0  0  0  0
    0.8474   -0.1616    0.6421 H   0  0  0  0  0  0  0  0  0  0  0  0
    0.1708   -1.8805    0.6921 H   0  0  0  0  0  0  0  0  0  0  0  0
   -3.2041    0.5665    1.4883 H   0  0  0  0  0  0  0  0  0  0  0  0
    1.3327    2.0573    0.2905 C   0  0  0  0  0  0  0  0  0  0  0  0
    1.8044    0.8436    1.0279 C   0  0  0  0  0  3  0  0  0  0  0  0
    1.9792    2.9184    0.4929 H   0  0  0  0  0  0  0  0  0  0  0  0
    0.3186    2.3294    0.5885 H   0  0  0  0  0  0  0  0  0  0  0  0
    1.3363    1.8887   -0.7878 H   0  0  0  0  0  0  0  0  0  0  0  0
    1.6877    0.8496    2.1085 H   0  0  0  0  0  0  0  0  0  0  0  0
    2.7358    0.3958    0.6911 H   0  0  0  0  0  0  0  0  0  0  0  0
  1  2  3  0
  1  6  1  0
  2  3  1  0
  3  4  1  0
  3  7  1  0
  3  8  1  0
  4  5  3  0
  5  9  1  0
 10 11  1  0
 10 12  1  0
 10 13  1  0
 10 14  1  0
 11 15  1  0
 11 16  1  0
M  RAD  1  11   2
M  END
>  <reaction>  (4) 
rxn_1347

>  <mol_properties>  (4) 
{"1": {"label": "*0", "atom_type": "Ct"}, "2": {"label": "*1", "atom_type": "Cs"}, "6": {"label": "*2", "atom_type": "H0"}, "9": {"label": "*4", "atom_type": "Cs"}, "10": {"label": "*3", "atom_type": "Cs"}}

>  <type>  (4) 
ts

$$$$

     RDKit          3D

 16 14  0  0  0  0  0  0  0  0999 V2000
    0.0696   -0.8384   -2.7379 C   0  0  0  0  0  0  0  0  0  0  0  0
    0.0696   -0.8384   -1.5424 C   0  0  0  0  0  0  0  0  0  0  0  0
    0.0696   -0.8384   -0.0794 C   0  0  0  0  0  3  0  0  0  0  0  0
   -1.2444   -0.5628    0.5017 C   0  0  0  0  0  0  0  0  0  0  0  0
   -2.3181   -0.3376    0.9766 C   0  0  0  0  0  0  0  0  0  0  0  0
    0.0696   -0.8384   -3.8014 H   0  0  0  0  0  0  0  0  0  0  0  0
    0.9278    0.0560    0.3516 H   0  0  0  0  0  0  0  0  0  0  0  0
    0.4250   -1.8083    0.2798 H   0  0  0  0  0  0  0  0  0  0  0  0
   -3.2733   -0.1372    1.3991 H   0  0  0  0  0  0  0  0  0  0  0  0
    1.0972    2.0077    1.6334 C   0  0  0  0  0  0  0  0  0  0  0  0
    1.7842    0.9486    0.7818 C   0  0  0  0  0  0  0  0  0  0  0  0
    1.7108    2.2839    2.4927 H   0  0  0  0  0  0  0  0  0  0  0  0
    0.1387    1.6497    2.0132 H   0  0  0  0  0  0  0  0  0  0  0  0
    0.9063    2.9155    1.0583 H   0  0  0  0  0  0  0  0  0  0  0  0
    1.9750    0.0408    1.3569 H   0  0  0  0  0  0  0  0  0  0  0  0
    2.7427    1.3067    0.4019 H   0  0  0  0  0  0  0  0  0  0  0  0
  1  2  3  0
  1  6  1  0
  2  3  1  0
  3  4  1  0
  3  8  1  0
  4  5  3  0
  5  9  1  0
  7 11  1  0
 10 11  1  0
 10 12  1  0
 10 13  1  0
 10 14  1  0
 11 15  1  0
 11 16  1  0
M  RAD  1   3   2
M  END
>  <reaction>  (5) 
rxn_1347

>  <mol_properties>  (5) 
{"1": {"label": "*0", "atom_type": "Ct"}, "2": {"label": "*1", "atom_type": "Cs"}, "6": {"label": "*2", "atom_type": "H0"}, "9": {"label": "*4", "atom_type": "Cs"}, "10": {"label": "*3", "atom_type": "Cs"}}

>  <type>  (5) 
unop_1

>  <geom_source>  (5) 
Heuristics

$$$$

     RDKit          3D

 16 14  0  0  0  0  0  0  0  0999 V2000
   -0.0602   -0.8610   -2.4382 C   0  0  0  0  0  0  0  0  0  0  0  0
   -0.0602   -0.8610   -1.2427 C   0  0  0  0  0  0  0  0  0  0  0  0
   -0.0602   -0.8610    0.2203 C   0  0  0  0  0  3  0  0  0  0  0  0
   -1.3742   -0.5854    0.8014 C   0  0  0  0  0  0  0  0  0  0  0  0
   -2.4480   -0.3602    1.2763 C   0  0  0  0  0  0  0  0  0  0  0  0
   -0.0602   -0.8610   -3.5017 H   0  0  0  0  0  0  0  0  0  0  0  0
    0.7979    0.0334    0.6513 H   0  0  0  0  0  0  0  0  0  0  0  0
    0.2951   -1.8308    0.5795 H   0  0  0  0  0  0  0  0  0  0  0  0
   -3.4032   -0.1598    1.6988 H   0  0  0  0  0  0  0  0  0  0  0  0
    1.7830    2.0850    0.1021 C   0  0  0  0  0  0  0  0  0  0  0  0
    1.6543    0.9260    1.0815 C   0  0  0  0  0  0  0  0  0  0  0  0
    2.2305    2.9586    0.5792 H   0  0  0  0  0  0  0  0  0  0  0  0
    0.8083    2.3842   -0.2873 H   0  0  0  0  0  0  0  0  0  0  0  0
    2.4105    1.8159   -0.7494 H   0  0  0  0  0  0  0  0  0  0  0  0
    1.0268    1.1951    1.9330 H   0  0  0  0  0  0  0  0  0  0  0  0
    2.6290    0.6268    1.4709 H   0  0  0  0  0  0  0  0  0  0  0  0
  1  2  3  0
  1  6  1  0
  2  3  1  0
  3  4  1  0
  3  8  1  0
  4  5  3  0
  5  9  1  0
  7 11  1  0
 10 11  1  0
 10 12  1  0
 10 13  1  0
 10 14  1  0
 11 15  1  0
 11 16  1  0
M  RAD  1   3   2
M  END
>  <reaction>  (6) 
rxn_1347

>  <mol_properties>  (6) 
{"1": {"label": "*0", "atom_type": "Ct"}, "2": {"label": "*1", "atom_type": "Cs"}, "6": {"label": "*2", "atom_type": "H0"}, "9": {"label": "*4", "atom_type": "Cs"}, "10": {"label": "*3", "atom_type": "Cs"}}

>  <type>  (6) 
unop_2

>  <geom_source>  (6) 
Heuristics

$$$$

     RDKit          3D

 16 14  0  0  0  0  0  0  0  0999 V2000
    0.0255   -0.7609   -2.8142 C   0  0  0  0  0  0  0  0  0  0  0  0
    0.0255   -0.7609   -1.6187 C   0  0  0  0  0  0  0  0  0  0  0  0
    0.0255   -0.7609   -0.1557 C   0  0  0  0  0  3  0  0  0  0  0  0
   -1.2885   -0.4853    0.4255 C   0  0  0  0  0  0  0  0  0  0  0  0
   -2.3623   -0.2601    0.9004 C   0  0  0  0  0  0  0  0  0  0  0  0
    0.0255   -0.7609   -3.8777 H   0  0  0  0  0  0  0  0  0  0  0  0
    0.8836    0.1335    0.2753 H   0  0  0  0  0  0  0  0  0  0  0  0
    0.3809   -1.7308    0.2035 H   0  0  0  0  0  0  0  0  0  0  0  0
   -3.3175   -0.0598    1.3228 H   0  0  0  0  0  0  0  0  0  0  0  0
    1.3098    1.6025    2.0477 C   0  0  0  0  0  0  0  0  0  0  0  0
    1.7401    1.0261    0.7055 C   0  0  0  0  0  0  0  0  0  0  0  0
    2.1719    1.9197    2.6370 H   0  0  0  0  0  0  0  0  0  0  0  0
    0.7599    0.8663    2.6367 H   0  0  0  0  0  0  0  0  0  0  0  0
    0.6619    2.4709    1.9162 H   0  0  0  0  0  0  0  0  0  0  0  0
    2.3879    0.1576    0.8370 H   0  0  0  0  0  0  0  0  0  0  0  0
    2.2900    1.7623    0.1166 H   0  0  0  0  0  0  0  0  0  0  0  0
  1  2  3  0
  1  6  1  0
  2  3  1  0
  3  4  1  0
  3  8  1  0
  4  5  3  0
  5  9  1  0
  7 11  1  0
 10 11  1  0
 10 12  1  0
 10 13  1  0
 10 14  1  0
 11 15  1  0
 11 16  1  0
M  RAD  1   3   2
M  END
>  <reaction>  (7) 
rxn_1347

>  <mol_properties>  (7) 
{"1": {"label": "*0", "atom_type": "Ct"}, "2": {"label": "*1", "atom_type": "Cs"}, "6": {"label": "*2", "atom_type": "H0"}, "9": {"label": "*4", "atom_type": "Cs"}, "10": {"label": "*3", "atom_type": "Cs"}}

>  <type>  (7) 
unop_3

>  <geom_source>  (7) 
Heuristics

$$$$

     RDKit          3D

 16 14  0  0  0  0  0  0  0  0999 V2000
   -0.2702   -0.6186   -2.5201 C   0  0  0  0  0  0  0  0  0  0  0  0
   -0.2702   -0.6186   -1.3246 C   0  0  0  0  0  0  0  0  0  0  0  0
   -0.2702   -0.6186    0.1384 C   0  0  0  0  0  3  0  0  0  0  0  0
   -1.5842   -0.3429    0.7196 C   0  0  0  0  0  0  0  0  0  0  0  0
   -2.6580   -0.1177    1.1945 C   0  0  0  0  0  0  0  0  0  0  0  0
   -0.2702   -0.6186   -3.5836 H   0  0  0  0  0  0  0  0  0  0  0  0
    0.5879    0.2758    0.5694 H   0  0  0  0  0  0  0  0  0  0  0  0
    0.0851   -1.5884    0.4976 H   0  0  0  0  0  0  0  0  0  0  0  0
   -3.6132    0.0826    1.6169 H   0  0  0  0  0  0  0  0  0  0  0  0
    2.8537    0.8622    0.5108 C   0  0  0  0  0  0  0  0  0  0  0  0
    1.4443    1.1685    0.9996 C   0  0  0  0  0  0  0  0  0  0  0  0
    3.6031    1.1884    1.2341 H   0  0  0  0  0  0  0  0  0  0  0  0
    3.0638    1.3677   -0.4334 H   0  0  0  0  0  0  0  0  0  0  0  0
    2.9932   -0.2083    0.3506 H   0  0  0  0  0  0  0  0  0  0  0  0
    1.3048    2.2390    1.1599 H   0  0  0  0  0  0  0  0  0  0  0  0
    1.2342    0.6630    1.9438 H   0  0  0  0  0  0  0  0  0  0  0  0
  1  2  3  0
  1  6  1  0
  2  3  1  0
  3  4  1  0
  3  8  1  0
  4  5  3  0
  5  9  1  0
  7 11  1  0
 10 11  1  0
 10 12  1  0
 10 13  1  0
 10 14  1  0
 11 15  1  0
 11 16  1  0
M  RAD  1   3   2
M  END
>  <reaction>  (8) 
rxn_1347

>  <mol_properties>  (8) 
{"1": {"label": "*0", "atom_type": "Ct"}, "2": {"label": "*1", "atom_type": "Cs"}, "6": {"label": "*2", "atom_type": "H0"}, "9": {"label": "*4", "atom_type": "Cs"}, "10": {"label": "*3", "atom_type": "Cs"}}

>  <type>  (8) 
unop_4

>  <geom_source>  (8) 
Heuristics

$$$$

     RDKit          3D

 16 14  0  0  0  0  0  0  0  0999 V2000
   -0.0485   -0.6790   -2.8407 C   0  0  0  0  0  0  0  0  0  0  0  0
   -0.0485   -0.6790   -1.6452 C   0  0  0  0  0  0  0  0  0  0  0  0
   -0.0485   -0.6790   -0.1822 C   0  0  0  0  0  3  0  0  0  0  0  0
   -1.3626   -0.4034    0.3990 C   0  0  0  0  0  0  0  0  0  0  0  0
   -2.4363   -0.1782    0.8739 C   0  0  0  0  0  0  0  0  0  0  0  0
   -0.0485   -0.6790   -3.9042 H   0  0  0  0  0  0  0  0  0  0  0  0
    0.8096    0.2154    0.2488 H   0  0  0  0  0  0  0  0  0  0  0  0
    0.3068   -1.6488    0.1770 H   0  0  0  0  0  0  0  0  0  0  0  0
   -3.3915    0.0222    1.2963 H   0  0  0  0  0  0  0  0  0  0  0  0
    1.7045    1.1481    2.2008 C   0  0  0  0  0  0  0  0  0  0  0  0
    1.6660    1.1080    0.6790 C   0  0  0  0  0  0  0  0  0  0  0  0
    2.4182    1.8920    2.5593 H   0  0  0  0  0  0  0  0  0  0  0  0
    1.9982    0.1820    2.6149 H   0  0  0  0  0  0  0  0  0  0  0  0
    0.7270    1.4016    2.6149 H   0  0  0  0  0  0  0  0  0  0  0  0
    2.6435    0.8545    0.2649 H   0  0  0  0  0  0  0  0  0  0  0  0
    1.3723    2.0742    0.2649 H   0  0  0  0  0  0  0  0  0  0  0  0
  1  2  3  0
  1  6  1  0
  2  3  1  0
  3  4  1  0
  3  8  1  0
  4  5  3  0
  5  9  1  0
  7 11  1  0
 10 11  1  0
 10 12  1  0
 10 13  1  0
 10 14  1  0
 11 15  1  0
 11 16  1  0
M  RAD  1   3   2
M  END
>  <reaction>  (9) 
rxn_1347

>  <mol_properties>  (9) 
{"1": {"label": "*0", "atom_type": "Ct"}, "2": {"label": "*1", "atom_type": "Cs"}, "6": {"label": "*2", "atom_type": "H0"}, "9": {"label": "*4", "atom_type": "Cs"}, "10": {"label": "*3", "atom_type": "Cs"}}

>  <type>  (9) 
unop_5

>  <geom_source>  (9) 
Heuristics

$$$$

     RDKit          3D

 16 14  0  0  0  0  0  0  0  0999 V2000
   -0.2635   -0.5708   -2.6302 C   0  0  0  0  0  0  0  0  0  0  0  0
   -0.2635   -0.5708   -1.4347 C   0  0  0  0  0  0  0  0  0  0  0  0
   -0.2635   -0.5708    0.0283 C   0  0  0  0  0  3  0  0  0  0  0  0
   -1.5775   -0.2952    0.6095 C   0  0  0  0  0  0  0  0  0  0  0  0
   -2.6513   -0.0700    1.0844 C   0  0  0  0  0  0  0  0  0  0  0  0
   -0.2635   -0.5708   -3.6936 H   0  0  0  0  0  0  0  0  0  0  0  0
    0.5946    0.3236    0.4594 H   0  0  0  0  0  0  0  0  0  0  0  0
    0.0919   -1.5407    0.3875 H   0  0  0  0  0  0  0  0  0  0  0  0
   -3.6065    0.1303    1.5069 H   0  0  0  0  0  0  0  0  0  0  0  0
    2.8362    0.6101    1.0710 C   0  0  0  0  0  0  0  0  0  0  0  0
    1.4511    1.2162    0.8896 C   0  0  0  0  0  0  0  0  0  0  0  0
    3.3233    0.9971    1.9678 H   0  0  0  0  0  0  0  0  0  0  0  0
    3.4819    0.8366    0.2206 H   0  0  0  0  0  0  0  0  0  0  0  0
    2.7838   -0.4759    1.1660 H   0  0  0  0  0  0  0  0  0  0  0  0
    1.5035    2.3022    0.7946 H   0  0  0  0  0  0  0  0  0  0  0  0
    0.8055    0.9898    1.7399 H   0  0  0  0  0  0  0  0  0  0  0  0
  1  2  3  0
  1  6  1  0
  2  3  1  0
  3  4  1  0
  3  8  1  0
  4  5  3  0
  5  9  1  0
  7 11  1  0
 10 11  1  0
 10 12  1  0
 10 13  1  0
 10 14  1  0
 11 15  1  0
 11 16  1  0
M  RAD  1   3   2
M  END
>  <reaction>  (10) 
rxn_1347

>  <mol_properties>  (10) 
{"1": {"label": "*0", "atom_type": "Ct"}, "2": {"label": "*1", "atom_type": "Cs"}, "6": {"label": "*2", "atom_type": "H0"}, "9": {"label": "*4", "atom_type": "Cs"}, "10": {"label": "*3", "atom_type": "Cs"}}

>  <type>  (10) 
unop_6

>  <geom_source>  (10) 
Heuristics

$$$$

     RDKit          3D

 16 14  0  0  0  0  0  0  0  0999 V2000
   -0.2127   -0.5675   -2.7379 C   0  0  0  0  0  0  0  0  0  0  0  0
   -0.2127   -0.5675   -1.5424 C   0  0  0  0  0  0  0  0  0  0  0  0
   -0.2127   -0.5675   -0.0794 C   0  0  0  0  0  3  0  0  0  0  0  0
   -1.5268   -0.2919    0.5017 C   0  0  0  0  0  0  0  0  0  0  0  0
   -2.6005   -0.0667    0.9766 C   0  0  0  0  0  0  0  0  0  0  0  0
   -0.2127   -0.5675   -3.8014 H   0  0  0  0  0  0  0  0  0  0  0  0
    0.6454    0.3269    0.3516 H   0  0  0  0  0  0  0  0  0  0  0  0
    0.1426   -1.5373    0.2798 H   0  0  0  0  0  0  0  0  0  0  0  0
   -3.5557    0.1337    1.3991 H   0  0  0  0  0  0  0  0  0  0  0  0
    2.5885    0.5769    1.6334 C   0  0  0  0  0  0  0  0  0  0  0  0
    1.5018    1.2195    0.7818 C   0  0  0  0  0  0  0  0  0  0  0  0
    2.8390    1.2014    2.4927 H   0  0  0  0  0  0  0  0  0  0  0  0
    3.5033    0.4238    1.0583 H   0  0  0  0  0  0  0  0  0  0  0  0
    2.2704   -0.3956    2.0132 H   0  0  0  0  0  0  0  0  0  0  0  0
    1.8199    2.1920    0.4019 H   0  0  0  0  0  0  0  0  0  0  0  0
    0.5869    1.3727    1.3569 H   0  0  0  0  0  0  0  0  0  0  0  0
  1  2  3  0
  1  6  1  0
  2  3  1  0
  3  4  1  0
  3  8  1  0
  4  5  3  0
  5  9  1  0
  7 11  1  0
 10 11  1  0
 10 12  1  0
 10 13  1  0
 10 14  1  0
 11 15  1  0
 11 16  1  0
M  RAD  1   3   2
M  END
>  <reaction>  (11) 
rxn_1347

>  <mol_properties>  (11) 
{"1": {"label": "*0", "atom_type": "Ct"}, "2": {"label": "*1", "atom_type": "Cs"}, "6": {"label": "*2", "atom_type": "H0"}, "9": {"label": "*4", "atom_type": "Cs"}, "10": {"label": "*3", "atom_type": "Cs"}}

>  <type>  (11) 
unop_7

>  <geom_source>  (11) 
Heuristics

$$$$

     RDKit          3D

 16 14  0  0  0  0  0  0  0  0999 V2000
    0.0684   -0.8893   -2.6302 C   0  0  0  0  0  0  0  0  0  0  0  0
    0.0684   -0.8893   -1.4347 C   0  0  0  0  0  0  0  0  0  0  0  0
    0.0684   -0.8893    0.0283 C   0  0  0  0  0  3  0  0  0  0  0  0
   -1.2456   -0.6137    0.6095 C   0  0  0  0  0  0  0  0  0  0  0  0
   -2.3194   -0.3884    1.0844 C   0  0  0  0  0  0  0  0  0  0  0  0
    0.0684   -0.8893   -3.6936 H   0  0  0  0  0  0  0  0  0  0  0  0
    0.9265    0.0051    0.4594 H   0  0  0  0  0  0  0  0  0  0  0  0
    0.4238   -1.8591    0.3875 H   0  0  0  0  0  0  0  0  0  0  0  0
   -3.2746   -0.1881    1.5069 H   0  0  0  0  0  0  0  0  0  0  0  0
    1.1201    2.2567    1.0710 C   0  0  0  0  0  0  0  0  0  0  0  0
    1.7830    0.8978    0.8896 C   0  0  0  0  0  0  0  0  0  0  0  0
    1.4866    2.7593    1.9678 H   0  0  0  0  0  0  0  0  0  0  0  0
    0.0372    2.1593    1.1660 H   0  0  0  0  0  0  0  0  0  0  0  0
    1.3197    2.9111    0.2206 H   0  0  0  0  0  0  0  0  0  0  0  0
    1.5834    0.2433    1.7399 H   0  0  0  0  0  0  0  0  0  0  0  0
    2.8659    0.9951    0.7946 H   0  0  0  0  0  0  0  0  0  0  0  0
  1  2  3  0
  1  6  1  0
  2  3  1  0
  3  4  1  0
  3  8  1  0
  4  5  3  0
  5  9  1  0
  7 11  1  0
 10 11  1  0
 10 12  1  0
 10 13  1  0
 10 14  1  0
 11 15  1  0
 11 16  1  0
M  RAD  1   3   2
M  END
>  <reaction>  (12) 
rxn_1347

>  <mol_properties>  (12) 
{"1": {"label": "*0", "atom_type": "Ct"}, "2": {"label": "*1", "atom_type": "Cs"}, "6": {"label": "*2", "atom_type": "H0"}, "9": {"label": "*4", "atom_type": "Cs"}, "10": {"label": "*3", "atom_type": "Cs"}}

>  <type>  (12) 
unop_8

>  <geom_source>  (12) 
Heuristics

$$$$

     RDKit          3D

 16 14  0  0  0  0  0  0  0  0999 V2000
   -0.2299   -0.6982   -2.4382 C   0  0  0  0  0  0  0  0  0  0  0  0
   -0.2299   -0.6982   -1.2427 C   0  0  0  0  0  0  0  0  0  0  0  0
   -0.2299   -0.6982    0.2203 C   0  0  0  0  0  3  0  0  0  0  0  0
   -1.5439   -0.4226    0.8014 C   0  0  0  0  0  0  0  0  0  0  0  0
   -2.6177   -0.1974    1.2763 C   0  0  0  0  0  0  0  0  0  0  0  0
   -0.2299   -0.6982   -3.5017 H   0  0  0  0  0  0  0  0  0  0  0  0
    0.6282    0.1962    0.6513 H   0  0  0  0  0  0  0  0  0  0  0  0
    0.1254   -1.6680    0.5795 H   0  0  0  0  0  0  0  0  0  0  0  0
   -3.5729    0.0030    1.6988 H   0  0  0  0  0  0  0  0  0  0  0  0
    2.6373    1.2653    0.1021 C   0  0  0  0  0  0  0  0  0  0  0  0
    1.4846    1.0889    1.0815 C   0  0  0  0  0  0  0  0  0  0  0  0
    3.4917    1.7486    0.5792 H   0  0  0  0  0  0  0  0  0  0  0  0
    2.3424    1.8811   -0.7494 H   0  0  0  0  0  0  0  0  0  0  0  0
    2.9766    0.3038   -0.2873 H   0  0  0  0  0  0  0  0  0  0  0  0
    1.1453    2.0503    1.4709 H   0  0  0  0  0  0  0  0  0  0  0  0
    1.7795    0.4730    1.9330 H   0  0  0  0  0  0  0  0  0  0  0  0
  1  2  3  0
  1  6  1  0
  2  3  1  0
  3  4  1  0
  3  8  1  0
  4  5  3  0
  5  9  1  0
  7 11  1  0
 10 11  1  0
 10 12  1  0
 10 13  1  0
 10 14  1  0
 11 15  1  0
 11 16  1  0
M  RAD  1   3   2
M  END
>  <reaction>  (13) 
rxn_1347

>  <mol_properties>  (13) 
{"1": {"label": "*0", "atom_type": "Ct"}, "2": {"label": "*1", "atom_type": "Cs"}, "6": {"label": "*2", "atom_type": "H0"}, "9": {"label": "*4", "atom_type": "Cs"}, "10": {"label": "*3", "atom_type": "Cs"}}

>  <type>  (13) 
unop_9

>  <geom_source>  (13) 
Heuristics

$$$$

     RDKit          3D

 16 14  0  0  0  0  0  0  0  0999 V2000
    0.0210   -0.8980   -2.5201 C   0  0  0  0  0  0  0  0  0  0  0  0
    0.0210   -0.8980   -1.3246 C   0  0  0  0  0  0  0  0  0  0  0  0
    0.0210   -0.8980    0.1384 C   0  0  0  0  0  3  0  0  0  0  0  0
   -1.2930   -0.6224    0.7196 C   0  0  0  0  0  0  0  0  0  0  0  0
   -2.3668   -0.3971    1.1945 C   0  0  0  0  0  0  0  0  0  0  0  0
    0.0210   -0.8980   -3.5836 H   0  0  0  0  0  0  0  0  0  0  0  0
    0.8791   -0.0036    0.5694 H   0  0  0  0  0  0  0  0  0  0  0  0
    0.3764   -1.8678    0.4976 H   0  0  0  0  0  0  0  0  0  0  0  0
   -3.3220   -0.1968    1.6169 H   0  0  0  0  0  0  0  0  0  0  0  0
    1.3713    2.2845    0.5108 C   0  0  0  0  0  0  0  0  0  0  0  0
    1.7356    0.8891    0.9996 C   0  0  0  0  0  0  0  0  0  0  0  0
    1.6662    3.0468    1.2341 H   0  0  0  0  0  0  0  0  0  0  0  0
    0.2958    2.3796    0.3506 H   0  0  0  0  0  0  0  0  0  0  0  0
    1.8676    2.5153   -0.4334 H   0  0  0  0  0  0  0  0  0  0  0  0
    1.2392    0.6582    1.9438 H   0  0  0  0  0  0  0  0  0  0  0  0
    2.8110    0.7940    1.1599 H   0  0  0  0  0  0  0  0  0  0  0  0
  1  2  3  0
  1  6  1  0
  2  3  1  0
  3  4  1  0
  3  8  1  0
  4  5  3  0
  5  9  1  0
  7 11  1  0
 10 11  1  0
 10 12  1  0
 10 13  1  0
 10 14  1  0
 11 15  1  0
 11 16  1  0
M  RAD  1   3   2
M  END
>  <reaction>  (14) 
rxn_1347

>  <mol_properties>  (14) 
{"1": {"label": "*0", "atom_type": "Ct"}, "2": {"label": "*1", "atom_type": "Cs"}, "6": {"label": "*2", "atom_type": "H0"}, "9": {"label": "*4", "atom_type": "Cs"}, "10": {"label": "*3", "atom_type": "Cs"}}

>  <type>  (14) 
unop_10

>  <geom_source>  (14) 
Heuristics

$$$$

     RDKit          3D

 16 14  0  0  0  0  0  0  0  0999 V2000
   -0.1335   -0.6084   -2.8142 C   0  0  0  0  0  0  0  0  0  0  0  0
   -0.1335   -0.6084   -1.6187 C   0  0  0  0  0  0  0  0  0  0  0  0
   -0.1335   -0.6084   -0.1557 C   0  0  0  0  0  3  0  0  0  0  0  0
   -1.4475   -0.3328    0.4255 C   0  0  0  0  0  0  0  0  0  0  0  0
   -2.5213   -0.1076    0.9004 C   0  0  0  0  0  0  0  0  0  0  0  0
   -0.1335   -0.6084   -3.8777 H   0  0  0  0  0  0  0  0  0  0  0  0
    0.7246    0.2860    0.2753 H   0  0  0  0  0  0  0  0  0  0  0  0
    0.2219   -1.5782    0.2035 H   0  0  0  0  0  0  0  0  0  0  0  0
   -3.4765    0.0928    1.3228 H   0  0  0  0  0  0  0  0  0  0  0  0
    2.1748    0.7726    2.0477 C   0  0  0  0  0  0  0  0  0  0  0  0
    1.5811    1.1787    0.7055 C   0  0  0  0  0  0  0  0  0  0  0  0
    2.4560    1.6471    2.6370 H   0  0  0  0  0  0  0  0  0  0  0  0
    3.0693    0.1612    1.9162 H   0  0  0  0  0  0  0  0  0  0  0  0
    1.4620    0.1927    2.6367 H   0  0  0  0  0  0  0  0  0  0  0  0
    2.2939    1.7585    0.1166 H   0  0  0  0  0  0  0  0  0  0  0  0
    0.6866    1.7900    0.8370 H   0  0  0  0  0  0  0  0  0  0  0  0
  1  2  3  0
  1  6  1  0
  2  3  1  0
  3  4  1  0
  3  8  1  0
  4  5  3  0
  5  9  1  0
  7 11  1  0
 10 11  1  0
 10 12  1  0
 10 13  1  0
 10 14  1  0
 11 15  1  0
 11 16  1  0
M  RAD  1   3   2
M  END
>  <reaction>  (15) 
rxn_1347

>  <mol_properties>  (15) 
{"1": {"label": "*0", "atom_type": "Ct"}, "2": {"label": "*1", "atom_type": "Cs"}, "6": {"label": "*2", "atom_type": "H0"}, "9": {"label": "*4", "atom_type": "Cs"}, "10": {"label": "*3", "atom_type": "Cs"}}

>  <type>  (15) 
unop_11

>  <geom_source>  (15) 
Heuristics

$$$$

     RDKit          3D

 16 14  0  0  0  0  0  0  0  0999 V2000
   -0.1527   -0.7876   -2.4080 C   0  0  0  0  0  0  0  0  0  0  0  0
   -0.1527   -0.7876   -1.2125 C   0  0  0  0  0  0  0  0  0  0  0  0
   -0.1527   -0.7876    0.2505 C   0  0  0  0  0  3  0  0  0  0  0  0
   -1.4668   -0.5120    0.8317 C   0  0  0  0  0  0  0  0  0  0  0  0
   -2.5405   -0.2867    1.3066 C   0  0  0  0  0  0  0  0  0  0  0  0
   -0.1527   -0.7876   -3.4714 H   0  0  0  0  0  0  0  0  0  0  0  0
    0.7054    0.1068    0.6816 H   0  0  0  0  0  0  0  0  0  0  0  0
    0.2026   -1.7574    0.6097 H   0  0  0  0  0  0  0  0  0  0  0  0
   -3.4957   -0.0864    1.7291 H   0  0  0  0  0  0  0  0  0  0  0  0
    2.2457    1.7122   -0.0472 C   0  0  0  0  0  0  0  0  0  0  0  0
    1.5618    0.9995    1.1117 C   0  0  0  0  0  0  0  0  0  0  0  0
    2.9594    2.4561    0.3113 H   0  0  0  0  0  0  0  0  0  0  0  0
    1.5199    2.2280   -0.6784 H   0  0  0  0  0  0  0  0  0  0  0  0
    2.7911    1.0084   -0.6784 H   0  0  0  0  0  0  0  0  0  0  0  0
    1.0164    1.7033    1.7429 H   0  0  0  0  0  0  0  0  0  0  0  0
    2.2876    0.4836    1.7429 H   0  0  0  0  0  0  0  0  0  0  0  0
  1  2  3  0
  1  6  1  0
  2  3  1  0
  3  4  1  0
  3  8  1  0
  4  5  3  0
  5  9  1  0
  7 11  1  0
 10 11  1  0
 10 12  1  0
 10 13  1  0
 10 14  1  0
 11 15  1  0
 11 16  1  0
M  RAD  1   3   2
M  END
>  <reaction>  (16) 
rxn_1347

>  <mol_properties>  (16) 
{"1": {"label": "*0", "atom_type": "Ct"}, "2": {"label": "*1", "atom_type": "Cs"}, "6": {"label": "*2", "atom_type": "H0"}, "9": {"label": "*4", "atom_type": "Cs"}, "10": {"label": "*3", "atom_type": "Cs"}}

>  <type>  (16) 
unop_12

>  <geom_source>  (16) 
Heuristics

$$$$

     RDKit          3D

 16 14  0  0  0  0  0  0  0  0999 V2000
   -1.1991    0.5868    0.3597 C   0  0  0  0  0  0  0  0  0  0  0  0
   -2.5559   -0.0363    0.0829 C   0  0  0  0  0  0  0  0  0  0  0  0
    0.9809   -0.2752   -0.7921 C   0  0  0  0  0  3  0  0  0  0  0  0
    1.6904    0.9342   -0.3705 C   0  0  0  0  0  0  0  0  0  0  0  0
    1.5740   -1.4476   -0.1460 C   0  0  0  0  0  0  0  0  0  0  0  0
    2.2733    1.9312   -0.0242 C   0  0  0  0  0  0  0  0  0  0  0  0
    2.0610   -2.4143    0.3853 C   0  0  0  0  0  0  0  0  0  0  0  0
   -1.1446    1.5935   -0.1055 H   0  0  0  0  0  0  0  0  0  0  0  0
   -1.0448    0.6827    1.4552 H   0  0  0  0  0  0  0  0  0  0  0  0
   -0.2907   -0.1430   -0.1242 H   0  0  0  0  0  0  0  0  0  0  0  0
   -2.6075   -1.0433    0.5473 H   0  0  0  0  0  0  0  0  0  0  0  0
   -3.3583    0.6032    0.5074 H   0  0  0  0  0  0  0  0  0  0  0  0
   -2.7072   -0.1329   -1.0126 H   0  0  0  0  0  0  0  0  0  0  0  0
    1.0547   -0.3827   -1.8940 H   0  0  0  0  0  0  0  0  0  0  0  0
    2.7851    2.8063    0.2798 H   0  0  0  0  0  0  0  0  0  0  0  0
    2.4886   -3.2626    0.8517 H   0  0  0  0  0  0  0  0  0  0  0  0
  1  2  1  0
  1  8  1  0
  1  9  1  0
  1 10  1  0
  2 11  1  0
  2 12  1  0
  2 13  1  0
  3  4  1  0
  3  5  1  0
  3 14  1  0
  4  6  3  0
  5  7  3  0
  6 15  1  0
  7 16  1  0
M  RAD  1   3   2
M  END
>  <reaction>  (17) 
rxn_1347

>  <mol_properties>  (17) 
{"1": {"label": "*0", "atom_type": "Ct"}, "2": {"label": "*1", "atom_type": "Cs"}, "6": {"label": "*2", "atom_type": "H0"}, "9": {"label": "*4", "atom_type": "Cs"}, "10": {"label": "*3", "atom_type": "Cs"}}

>  <type>  (17) 
unop_13

>  <geom_source>  (17) 
AutoTST

$$$$
