
     RDKit          3D

  9  8  0  0  0  0  0  0  0  0999 V2000
   -0.8818   -0.3578    0.1297 C   0  0  0  0  0  0  0  0  0  0  0  0
    0.6153   -0.3021   -0.1188 C   0  0  0  0  0  0  0  0  0  0  0  0
    1.5354   -1.7170    0.5545 S   0  0  0  0  0  0  0  0  0  0  0  0
   -1.1018   -0.3317    1.1984 H   0  0  0  0  0  0  0  0  0  0  0  0
   -1.3114   -1.2723   -0.2799 H   0  0  0  0  0  0  0  0  0  0  0  0
   -1.3767    0.4976   -0.3363 H   0  0  0  0  0  0  0  0  0  0  0  0
    1.0467    0.6194    0.2718 H   0  0  0  0  0  0  0  0  0  0  0  0
    0.8295   -0.3275   -1.1882 H   0  0  0  0  0  0  0  0  0  0  0  0
    1.2306   -1.5077    1.8423 H   0  0  0  0  0  0  0  0  0  0  0  0
  1  2  1  0
  1  4  1  0
  1  5  1  0
  1  6  1  0
  2  3  1  0
  2  7  1  0
  2  8  1  0
  3  9  1  0
M  END
>  <reaction>  (1) 
rxn_1888

>  <mol_properties>  (1) 
{"1": {"label": "donator", "atom_type": "Cs"}, "6": {"label": "d_hydrogen", "atom_type": "H0"}}

>  <type>  (1) 
r1h

$$$$

     RDKit          3D

  6  5  0  0  0  0  0  0  0  0999 V2000
   -0.7309   -0.0987    0.0327 C   0  0  0  0  0  0  0  0  0  0  0  0
    0.6208    0.0065   -0.0096 C   0  0  0  0  0  0  0  0  0  0  0  0
    1.6572   -1.2972    0.2837 S   0  0  0  0  0  1  0  0  0  0  0  0
   -1.3651    0.7588   -0.1608 H   0  0  0  0  0  0  0  0  0  0  0  0
   -1.2044   -1.0453    0.2616 H   0  0  0  0  0  0  0  0  0  0  0  0
    1.0609    0.9725   -0.2426 H   0  0  0  0  0  0  0  0  0  0  0  0
  1  2  2  3
  1  4  1  0
  1  5  1  0
  2  3  1  0
  2  6  1  0
M  RAD  1   3   2
M  END
>  <reaction>  (2) 
rxn_1888

>  <mol_properties>  (2) 
{"0": {"label": "acceptor", "atom_type": "Cs"}}

>  <type>  (2) 
r2

$$$$

     RDKit          3D

  7  6  0  0  0  0  0  0  0  0999 V2000
   -0.6782    0.0507    0.0301 C   0  0  0  0  0  0  0  0  0  0  0  0
    0.8092    0.0996    0.0213 C   0  0  0  0  0  0  0  0  0  0  0  0
    1.7473    0.7521    1.1507 S   0  0  0  0  0  0  0  0  0  0  0  0
   -1.0667    0.5456   -0.8653 H   0  0  0  0  0  0  0  0  0  0  0  0
   -1.0112   -0.9904   -0.0239 H   0  0  0  0  0  0  0  0  0  0  0  0
   -1.0920    0.5225    0.9188 H   0  0  0  0  0  0  0  0  0  0  0  0
    1.2740   -0.3620   -0.8520 H   0  0  0  0  0  0  0  0  0  0  0  0
  1  2  1  0
  1  4  1  0
  1  5  1  0
  1  6  1  0
  2  3  2  0
  2  7  1  0
M  END
>  <reaction>  (3) 
rxn_1888

>  <mol_properties>  (3) 
{"0": {"label": "a_hydrogen", "atom_type": "H0"}, "1": {"label": "acceptor", "atom_type": "Cs"}}

>  <type>  (3) 
r2h

$$$$

     RDKit          3D

 15 13  0  0  0  0  0  0  0  0999 V2000
   -1.8023    0.4202   -1.1795 C   0  0  0  0  0  0  0  0  0  0  0  0
   -1.2872    1.0688    0.0725 C   0  0  0  0  0  3  0  0  0  0  0  0
   -0.3273    2.5271   -0.0431 S   0  0  0  0  0  0  0  0  0  0  0  0
   -0.9786    0.1715   -1.8521 H   0  0  0  0  0  0  0  0  0  0  0  0
   -2.4930    1.0813   -1.7099 H   0  0  0  0  0  0  0  0  0  0  0  0
   -2.3308   -0.5029   -0.9364 H   0  0  0  0  0  0  0  0  0  0  0  0
   -0.3730    0.0890    0.5704 H   0  0  0  0  0  0  0  0  0  0  0  0
   -1.9974    1.1625    0.8910 H   0  0  0  0  0  0  0  0  0  0  0  0
    0.3607    2.1858   -1.1428 H   0  0  0  0  0  0  0  0  0  0  0  0
    0.4846   -0.8374    0.7943 C   0  0  0  0  0  0  0  0  0  0  0  0
    1.7031   -0.3206    0.2424 C   0  0  0  0  0  0  0  0  0  0  0  0
    2.1641   -0.4551   -1.3238 S   0  0  0  0  0  0  0  0  0  0  0  0
    0.4544   -0.9384    1.8771 H   0  0  0  0  0  0  0  0  0  0  0  0
    0.0425   -1.6702    0.2531 H   0  0  0  0  0  0  0  0  0  0  0  0
    2.3274    0.2587    0.9218 H   0  0  0  0  0  0  0  0  0  0  0  0
  1  2  1  0
  1  4  1  0
  1  5  1  0
  1  6  1  0
  2  3  1  0
  2  8  1  0
  3  9  1  0
  7 10  1  0
 10 11  1  0
 10 13  1  0
 10 14  1  0
 11 12  2  0
 11 15  1  0
M  RAD  1   2   2
M  END
>  <reaction>  (4) 
rxn_1888

>  <mol_properties>  (4) 
{"1": {"label": "*3", "atom_type": "Cs"}, "2": {"label": "*4", "atom_type": "S2s"}, "6": {"label": "*2", "atom_type": "H0"}, "9": {"label": "*1", "atom_type": "Cs"}, "10": {"label": "*0", "atom_type": "CS"}}

>  <type>  (4) 
ts

$$$$

     RDKit          3D

 15 13  0  0  0  0  0  0  0  0999 V2000
   -1.7130   -0.0413   -2.4149 C   0  0  0  0  0  0  0  0  0  0  0  0
   -1.7130   -0.0413   -0.8962 C   0  0  0  0  0  0  0  0  0  0  0  0
   -1.7130    1.6160   -0.1513 S   0  0  0  0  0  0  0  0  0  0  0  0
   -0.8063    0.4241   -2.8057 H   0  0  0  0  0  0  0  0  0  0  0  0
   -2.5689    0.5099   -2.8050 H   0  0  0  0  0  0  0  0  0  0  0  0
   -1.7560   -1.0647   -2.7952 H   0  0  0  0  0  0  0  0  0  0  0  0
   -0.7010   -0.7207   -0.4221 H   0  0  0  0  0  0  0  0  0  0  0  0
   -2.6206   -0.5084   -0.5111 H   0  0  0  0  0  0  0  0  0  0  0  0
   -0.5382    2.0177   -0.6548 H   0  0  0  0  0  0  0  0  0  0  0  0
    0.3151   -1.4029    0.0540 C   0  0  0  0  0  0  0  0  0  0  0  0
    1.1668   -0.5122    0.8882 C   0  0  0  0  0  0  0  0  0  0  0  0
    2.6961   -0.7739    1.3054 S   0  0  0  0  0  1  0  0  0  0  0  0
   -0.5767   -1.6917    0.6187 H   0  0  0  0  0  0  0  0  0  0  0  0
    0.8529   -2.2938   -0.2632 H   0  0  0  0  0  0  0  0  0  0  0  0
    0.6719    0.3980    1.2325 H   0  0  0  0  0  0  0  0  0  0  0  0
  1  2  1  0
  1  4  1  0
  1  5  1  0
  1  6  1  0
  2  3  1  0
  2  7  1  0
  2  8  1  0
  3  9  1  0
 10 11  2  3
 10 13  1  0
 10 14  1  0
 11 12  1  0
 11 15  1  0
M  RAD  1  12   2
M  END
>  <reaction>  (5) 
rxn_1888

>  <mol_properties>  (5) 
{"1": {"label": "*3", "atom_type": "Cs"}, "2": {"label": "*4", "atom_type": "S2s"}, "6": {"label": "*2", "atom_type": "H0"}, "9": {"label": "*1", "atom_type": "Cs"}, "10": {"label": "*0", "atom_type": "CS"}}

>  <type>  (5) 
unop_1

>  <geom_source>  (5) 
Heuristics

$$$$

     RDKit          3D

 15 13  0  0  0  0  0  0  0  0999 V2000
   -1.6890    0.4999   -1.5396 C   0  0  0  0  0  0  0  0  0  0  0  0
   -1.6890    0.4999   -0.0209 C   0  0  0  0  0  0  0  0  0  0  0  0
   -1.6890    2.1573    0.7241 S   0  0  0  0  0  0  0  0  0  0  0  0
   -0.7823    0.9653   -1.9303 H   0  0  0  0  0  0  0  0  0  0  0  0
   -2.5449    1.0511   -1.9297 H   0  0  0  0  0  0  0  0  0  0  0  0
   -1.7320   -0.5234   -1.9199 H   0  0  0  0  0  0  0  0  0  0  0  0
   -0.6770   -0.1794    0.4532 H   0  0  0  0  0  0  0  0  0  0  0  0
   -2.5966    0.0329    0.3642 H   0  0  0  0  0  0  0  0  0  0  0  0
   -0.5141    2.5590    0.2205 H   0  0  0  0  0  0  0  0  0  0  0  0
    0.3391   -0.8616    0.9293 C   0  0  0  0  0  0  0  0  0  0  0  0
    1.4813   -0.7840   -0.0215 C   0  0  0  0  0  0  0  0  0  0  0  0
    2.4786   -1.9816   -0.4119 S   0  0  0  0  0  1  0  0  0  0  0  0
    0.4776   -0.1281    1.7296 H   0  0  0  0  0  0  0  0  0  0  0  0
    0.2376   -1.8567    1.3574 H   0  0  0  0  0  0  0  0  0  0  0  0
    1.6258    0.1965   -0.4792 H   0  0  0  0  0  0  0  0  0  0  0  0
  1  2  1  0
  1  4  1  0
  1  5  1  0
  1  6  1  0
  2  3  1  0
  2  7  1  0
  2  8  1  0
  3  9  1  0
 10 11  2  3
 10 13  1  0
 10 14  1  0
 11 12  1  0
 11 15  1  0
M  RAD  1  12   2
M  END
>  <reaction>  (6) 
rxn_1888

>  <mol_properties>  (6) 
{"1": {"label": "*3", "atom_type": "Cs"}, "2": {"label": "*4", "atom_type": "S2s"}, "6": {"label": "*2", "atom_type": "H0"}, "9": {"label": "*1", "atom_type": "Cs"}, "10": {"label": "*0", "atom_type": "CS"}}

>  <type>  (6) 
unop_2

>  <geom_source>  (6) 
Heuristics

$$$$

     RDKit          3D

 15 13  0  0  0  0  0  0  0  0999 V2000
   -1.5382    0.0132   -2.6416 C   0  0  0  0  0  0  0  0  0  0  0  0
   -1.5382    0.0132   -1.1229 C   0  0  0  0  0  0  0  0  0  0  0  0
   -1.5382    1.6705   -0.3779 S   0  0  0  0  0  0  0  0  0  0  0  0
   -0.6316    0.4786   -3.0323 H   0  0  0  0  0  0  0  0  0  0  0  0
   -2.3942    0.5644   -3.0317 H   0  0  0  0  0  0  0  0  0  0  0  0
   -1.5813   -1.0102   -3.0219 H   0  0  0  0  0  0  0  0  0  0  0  0
   -0.5263   -0.6662   -0.6488 H   0  0  0  0  0  0  0  0  0  0  0  0
   -2.4458   -0.4539   -0.7378 H   0  0  0  0  0  0  0  0  0  0  0  0
   -0.3634    2.0722   -0.8815 H   0  0  0  0  0  0  0  0  0  0  0  0
    0.4898   -1.3484   -0.1727 C   0  0  0  0  0  0  0  0  0  0  0  0
    0.9010   -0.7800    1.1398 C   0  0  0  0  0  0  0  0  0  0  0  0
    2.3854   -0.7795    1.7545 S   0  0  0  0  0  1  0  0  0  0  0  0
   -0.2833   -2.1073   -0.0177 H   0  0  0  0  0  0  0  0  0  0  0  0
    1.3321   -1.7861   -0.7043 H   0  0  0  0  0  0  0  0  0  0  0  0
    0.0897   -0.3278    1.7134 H   0  0  0  0  0  0  0  0  0  0  0  0
  1  2  1  0
  1  4  1  0
  1  5  1  0
  1  6  1  0
  2  3  1  0
  2  7  1  0
  2  8  1  0
  3  9  1  0
 10 11  2  3
 10 13  1  0
 10 14  1  0
 11 12  1  0
 11 15  1  0
M  RAD  1  12   2
M  END
>  <reaction>  (7) 
rxn_1888

>  <mol_properties>  (7) 
{"1": {"label": "*3", "atom_type": "Cs"}, "2": {"label": "*4", "atom_type": "S2s"}, "6": {"label": "*2", "atom_type": "H0"}, "9": {"label": "*1", "atom_type": "Cs"}, "10": {"label": "*0", "atom_type": "CS"}}

>  <type>  (7) 
unop_3

>  <geom_source>  (7) 
Heuristics

$$$$

     RDKit          3D

 15 13  0  0  0  0  0  0  0  0999 V2000
   -0.7813    1.0606   -2.0115 C   0  0  0  0  0  0  0  0  0  0  0  0
   -0.7813    1.0606   -0.4928 C   0  0  0  0  0  0  0  0  0  0  0  0
   -0.7813    2.7179    0.2522 S   0  0  0  0  0  0  0  0  0  0  0  0
    0.1253    1.5260   -2.4022 H   0  0  0  0  0  0  0  0  0  0  0  0
   -1.6373    1.6118   -2.4016 H   0  0  0  0  0  0  0  0  0  0  0  0
   -0.8244    0.0372   -2.3918 H   0  0  0  0  0  0  0  0  0  0  0  0
    0.2306    0.3812   -0.0187 H   0  0  0  0  0  0  0  0  0  0  0  0
   -1.6889    0.5935   -0.1077 H   0  0  0  0  0  0  0  0  0  0  0  0
    0.3935    3.1196   -0.2514 H   0  0  0  0  0  0  0  0  0  0  0  0
    1.2468   -0.3010    0.4574 C   0  0  0  0  0  0  0  0  0  0  0  0
    1.1669   -1.7099   -0.0151 C   0  0  0  0  0  0  0  0  0  0  0  0
    0.4210   -2.9231    0.7287 S   0  0  0  0  0  1  0  0  0  0  0  0
    2.2960   -0.0103    0.5684 H   0  0  0  0  0  0  0  0  0  0  0  0
    0.7259   -0.1624    1.4025 H   0  0  0  0  0  0  0  0  0  0  0  0
    1.6754   -1.9012   -0.9619 H   0  0  0  0  0  0  0  0  0  0  0  0
  1  2  1  0
  1  4  1  0
  1  5  1  0
  1  6  1  0
  2  3  1  0
  2  7  1  0
  2  8  1  0
  3  9  1  0
 10 11  2  3
 10 13  1  0
 10 14  1  0
 11 12  1  0
 11 15  1  0
M  RAD  1  12   2
M  END
>  <reaction>  (8) 
rxn_1888

>  <mol_properties>  (8) 
{"1": {"label": "*3", "atom_type": "Cs"}, "2": {"label": "*4", "atom_type": "S2s"}, "6": {"label": "*2", "atom_type": "H0"}, "9": {"label": "*1", "atom_type": "Cs"}, "10": {"label": "*0", "atom_type": "CS"}}

>  <type>  (8) 
unop_4

>  <geom_source>  (8) 
Heuristics

$$$$

     RDKit          3D

 15 13  0  0  0  0  0  0  0  0999 V2000
   -1.2904    0.0730   -2.7969 C   0  0  0  0  0  0  0  0  0  0  0  0
   -1.2904    0.0730   -1.2782 C   0  0  0  0  0  0  0  0  0  0  0  0
   -1.2904    1.7303   -0.5332 S   0  0  0  0  0  0  0  0  0  0  0  0
   -0.3838    0.5384   -3.1876 H   0  0  0  0  0  0  0  0  0  0  0  0
   -2.1464    0.6242   -3.1870 H   0  0  0  0  0  0  0  0  0  0  0  0
   -1.3335   -0.9504   -3.1772 H   0  0  0  0  0  0  0  0  0  0  0  0
   -0.2785   -0.6064   -0.8041 H   0  0  0  0  0  0  0  0  0  0  0  0
   -2.1980   -0.3941   -0.8931 H   0  0  0  0  0  0  0  0  0  0  0  0
   -0.1156    2.1320   -1.0368 H   0  0  0  0  0  0  0  0  0  0  0  0
    0.7376   -1.2886   -0.3280 C   0  0  0  0  0  0  0  0  0  0  0  0
    0.7015   -1.2643    1.1595 C   0  0  0  0  0  0  0  0  0  0  0  0
    1.8573   -0.7160    2.1315 S   0  0  0  0  0  1  0  0  0  0  0  0
    0.6116   -2.3167   -0.6812 H   0  0  0  0  0  0  0  0  0  0  0  0
    1.6681   -0.8791   -0.7155 H   0  0  0  0  0  0  0  0  0  0  0  0
   -0.2139   -1.6656    1.5985 H   0  0  0  0  0  0  0  0  0  0  0  0
  1  2  1  0
  1  4  1  0
  1  5  1  0
  1  6  1  0
  2  3  1  0
  2  7  1  0
  2  8  1  0
  3  9  1  0
 10 11  2  3
 10 13  1  0
 10 14  1  0
 11 12  1  0
 11 15  1  0
M  RAD  1  12   2
M  END
>  <reaction>  (9) 
rxn_1888

>  <mol_properties>  (9) 
{"1": {"label": "*3", "atom_type": "Cs"}, "2": {"label": "*4", "atom_type": "S2s"}, "6": {"label": "*2", "atom_type": "H0"}, "9": {"label": "*1", "atom_type": "Cs"}, "10": {"label": "*0", "atom_type": "CS"}}

>  <type>  (9) 
unop_5

>  <geom_source>  (9) 
Heuristics

$$$$

     RDKit          3D

 15 13  0  0  0  0  0  0  0  0999 V2000
   -0.6534    0.9103   -2.3883 C   0  0  0  0  0  0  0  0  0  0  0  0
   -0.6534    0.9103   -0.8696 C   0  0  0  0  0  0  0  0  0  0  0  0
   -0.6534    2.5676   -0.1246 S   0  0  0  0  0  0  0  0  0  0  0  0
    0.2533    1.3757   -2.7790 H   0  0  0  0  0  0  0  0  0  0  0  0
   -1.5094    1.4615   -2.7784 H   0  0  0  0  0  0  0  0  0  0  0  0
   -0.6965   -0.1131   -2.7686 H   0  0  0  0  0  0  0  0  0  0  0  0
    0.3585    0.2309   -0.3955 H   0  0  0  0  0  0  0  0  0  0  0  0
   -1.5610    0.4432   -0.4845 H   0  0  0  0  0  0  0  0  0  0  0  0
    0.5214    2.9693   -0.6282 H   0  0  0  0  0  0  0  0  0  0  0  0
    1.3747   -0.4512    0.0807 C   0  0  0  0  0  0  0  0  0  0  0  0
    0.9791   -1.8744    0.2615 C   0  0  0  0  0  0  0  0  0  0  0  0
    0.1924   -2.4919    1.5189 S   0  0  0  0  0  1  0  0  0  0  0  0
    2.4598   -0.3854   -0.0453 H   0  0  0  0  0  0  0  0  0  0  0  0
    1.0653    0.1635    0.9233 H   0  0  0  0  0  0  0  0  0  0  0  0
    1.2675   -2.5341   -0.5591 H   0  0  0  0  0  0  0  0  0  0  0  0
  1  2  1  0
  1  4  1  0
  1  5  1  0
  1  6  1  0
  2  3  1  0
  2  7  1  0
  2  8  1  0
  3  9  1  0
 10 11  2  3
 10 13  1  0
 10 14  1  0
 11 12  1  0
 11 15  1  0
M  RAD  1  12   2
M  END
>  <reaction>  (10) 
rxn_1888

>  <mol_properties>  (10) 
{"1": {"label": "*3", "atom_type": "Cs"}, "2": {"label": "*4", "atom_type": "S2s"}, "6": {"label": "*2", "atom_type": "H0"}, "9": {"label": "*1", "atom_type": "Cs"}, "10": {"label": "*0", "atom_type": "CS"}}

>  <type>  (10) 
unop_6

>  <geom_source>  (10) 
Heuristics

$$$$

     RDKit          3D

 15 13  0  0  0  0  0  0  0  0999 V2000
   -0.7021    0.6170   -2.7038 C   0  0  0  0  0  0  0  0  0  0  0  0
   -0.7021    0.6170   -1.1852 C   0  0  0  0  0  0  0  0  0  0  0  0
   -0.7021    2.2744   -0.4402 S   0  0  0  0  0  0  0  0  0  0  0  0
    0.2046    1.0825   -3.0946 H   0  0  0  0  0  0  0  0  0  0  0  0
   -1.5580    1.1682   -3.0939 H   0  0  0  0  0  0  0  0  0  0  0  0
   -0.7451   -0.4063   -3.0841 H   0  0  0  0  0  0  0  0  0  0  0  0
    0.3099   -0.0623   -0.7110 H   0  0  0  0  0  0  0  0  0  0  0  0
   -1.6097    0.1500   -0.8000 H   0  0  0  0  0  0  0  0  0  0  0  0
    0.4727    2.6761   -0.9437 H   0  0  0  0  0  0  0  0  0  0  0  0
    1.3260   -0.7445   -0.2349 C   0  0  0  0  0  0  0  0  0  0  0  0
    0.8241   -1.8700    0.5992 C   0  0  0  0  0  0  0  0  0  0  0  0
    0.3739   -1.7872    2.1393 S   0  0  0  0  0  1  0  0  0  0  0  0
    2.3241   -0.9854   -0.6138 H   0  0  0  0  0  0  0  0  0  0  0  0
    1.3613    0.1878    0.3248 H   0  0  0  0  0  0  0  0  0  0  0  0
    0.7697   -2.8299    0.0821 H   0  0  0  0  0  0  0  0  0  0  0  0
  1  2  1  0
  1  4  1  0
  1  5  1  0
  1  6  1  0
  2  3  1  0
  2  7  1  0
  2  8  1  0
  3  9  1  0
 10 11  2  3
 10 13  1  0
 10 14  1  0
 11 12  1  0
 11 15  1  0
M  RAD  1  12   2
M  END
>  <reaction>  (11) 
rxn_1888

>  <mol_properties>  (11) 
{"1": {"label": "*3", "atom_type": "Cs"}, "2": {"label": "*4", "atom_type": "S2s"}, "6": {"label": "*2", "atom_type": "H0"}, "9": {"label": "*1", "atom_type": "Cs"}, "10": {"label": "*0", "atom_type": "CS"}}

>  <type>  (11) 
unop_7

>  <geom_source>  (11) 
Heuristics

$$$$

     RDKit          3D

 15 13  0  0  0  0  0  0  0  0999 V2000
   -1.8341   -0.0020   -2.0996 C   0  0  0  0  0  0  0  0  0  0  0  0
   -1.8341   -0.0020   -0.5810 C   0  0  0  0  0  0  0  0  0  0  0  0
   -1.8341    1.6554    0.1640 S   0  0  0  0  0  0  0  0  0  0  0  0
   -0.9275    0.4635   -2.4904 H   0  0  0  0  0  0  0  0  0  0  0  0
   -2.6901    0.5493   -2.4897 H   0  0  0  0  0  0  0  0  0  0  0  0
   -1.8772   -1.0253   -2.4799 H   0  0  0  0  0  0  0  0  0  0  0  0
   -0.8222   -0.6813   -0.1068 H   0  0  0  0  0  0  0  0  0  0  0  0
   -2.7417   -0.4690   -0.1958 H   0  0  0  0  0  0  0  0  0  0  0  0
   -0.6593    2.0571   -0.3395 H   0  0  0  0  0  0  0  0  0  0  0  0
    0.1939   -1.3635    0.3693 C   0  0  0  0  0  0  0  0  0  0  0  0
    1.3613   -0.4585    0.5501 C   0  0  0  0  0  0  0  0  0  0  0  0
    2.8992   -0.9032    0.6858 S   0  0  0  0  0  1  0  0  0  0  0  0
   -0.5185   -1.2107    1.1859 H   0  0  0  0  0  0  0  0  0  0  0  0
    0.4951   -2.4084    0.3359 H   0  0  0  0  0  0  0  0  0  0  0  0
    1.1113    0.6034    0.5900 H   0  0  0  0  0  0  0  0  0  0  0  0
  1  2  1  0
  1  4  1  0
  1  5  1  0
  1  6  1  0
  2  3  1  0
  2  7  1  0
  2  8  1  0
  3  9  1  0
 10 11  2  3
 10 13  1  0
 10 14  1  0
 11 12  1  0
 11 15  1  0
M  RAD  1  12   2
M  END
>  <reaction>  (12) 
rxn_1888

>  <mol_properties>  (12) 
{"1": {"label": "*3", "atom_type": "Cs"}, "2": {"label": "*4", "atom_type": "S2s"}, "6": {"label": "*2", "atom_type": "H0"}, "9": {"label": "*1", "atom_type": "Cs"}, "10": {"label": "*0", "atom_type": "CS"}}

>  <type>  (12) 
unop_8

>  <geom_source>  (12) 
Heuristics

$$$$

     RDKit          3D

 15 13  0  0  0  0  0  0  0  0999 V2000
   -1.0512    1.0309   -1.6824 C   0  0  0  0  0  0  0  0  0  0  0  0
   -1.0512    1.0309   -0.1638 C   0  0  0  0  0  0  0  0  0  0  0  0
   -1.0512    2.6883    0.5812 S   0  0  0  0  0  0  0  0  0  0  0  0
   -0.1446    1.4963   -2.0732 H   0  0  0  0  0  0  0  0  0  0  0  0
   -1.9072    1.5821   -2.0725 H   0  0  0  0  0  0  0  0  0  0  0  0
   -1.0943    0.0075   -2.0627 H   0  0  0  0  0  0  0  0  0  0  0  0
   -0.0393    0.3516    0.3104 H   0  0  0  0  0  0  0  0  0  0  0  0
   -1.9588    0.5639    0.2214 H   0  0  0  0  0  0  0  0  0  0  0  0
    0.1236    3.0899    0.0777 H   0  0  0  0  0  0  0  0  0  0  0  0
    0.9768   -0.3306    0.7865 C   0  0  0  0  0  0  0  0  0  0  0  0
    1.3375   -1.4171   -0.1643 C   0  0  0  0  0  0  0  0  0  0  0  0
    0.9974   -2.9787    0.0004 S   0  0  0  0  0  1  0  0  0  0  0  0
    1.8849    0.1810    1.1203 H   0  0  0  0  0  0  0  0  0  0  0  0
    0.4333   -0.7126    1.6481 H   0  0  0  0  0  0  0  0  0  0  0  0
    1.8856   -1.0845   -1.0479 H   0  0  0  0  0  0  0  0  0  0  0  0
  1  2  1  0
  1  4  1  0
  1  5  1  0
  1  6  1  0
  2  3  1  0
  2  7  1  0
  2  8  1  0
  3  9  1  0
 10 11  2  3
 10 13  1  0
 10 14  1  0
 11 12  1  0
 11 15  1  0
M  RAD  1  12   2
M  END
>  <reaction>  (13) 
rxn_1888

>  <mol_properties>  (13) 
{"1": {"label": "*3", "atom_type": "Cs"}, "2": {"label": "*4", "atom_type": "S2s"}, "6": {"label": "*2", "atom_type": "H0"}, "9": {"label": "*1", "atom_type": "Cs"}, "10": {"label": "*0", "atom_type": "CS"}}

>  <type>  (13) 
unop_9

>  <geom_source>  (13) 
Heuristics

$$$$

     RDKit          3D

 15 13  0  0  0  0  0  0  0  0999 V2000
   -1.8411    0.1886   -1.7705 C   0  0  0  0  0  0  0  0  0  0  0  0
   -1.8411    0.1886   -0.2519 C   0  0  0  0  0  0  0  0  0  0  0  0
   -1.8411    1.8460    0.4931 S   0  0  0  0  0  0  0  0  0  0  0  0
   -0.9345    0.6541   -2.1613 H   0  0  0  0  0  0  0  0  0  0  0  0
   -2.6971    0.7398   -2.1606 H   0  0  0  0  0  0  0  0  0  0  0  0
   -1.8842   -0.8347   -2.1508 H   0  0  0  0  0  0  0  0  0  0  0  0
   -0.8292   -0.4907    0.2223 H   0  0  0  0  0  0  0  0  0  0  0  0
   -2.7487   -0.2784    0.1333 H   0  0  0  0  0  0  0  0  0  0  0  0
   -0.6663    2.2477   -0.0104 H   0  0  0  0  0  0  0  0  0  0  0  0
    0.1870   -1.1729    0.6984 C   0  0  0  0  0  0  0  0  0  0  0  0
    1.4607   -0.5655    0.2259 C   0  0  0  0  0  0  0  0  0  0  0  0
    2.8638   -1.3242    0.0332 S   0  0  0  0  0  1  0  0  0  0  0  0
   -0.1576   -0.6505    1.5962 H   0  0  0  0  0  0  0  0  0  0  0  0
    0.3009   -2.2336    0.9122 H   0  0  0  0  0  0  0  0  0  0  0  0
    1.3987    0.5002   -0.0026 H   0  0  0  0  0  0  0  0  0  0  0  0
  1  2  1  0
  1  4  1  0
  1  5  1  0
  1  6  1  0
  2  3  1  0
  2  7  1  0
  2  8  1  0
  3  9  1  0
 10 11  2  3
 10 13  1  0
 10 14  1  0
 11 12  1  0
 11 15  1  0
M  RAD  1  12   2
M  END
>  <reaction>  (14) 
rxn_1888

>  <mol_properties>  (14) 
{"1": {"label": "*3", "atom_type": "Cs"}, "2": {"label": "*4", "atom_type": "S2s"}, "6": {"label": "*2", "atom_type": "H0"}, "9": {"label": "*1", "atom_type": "Cs"}, "10": {"label": "*0", "atom_type": "CS"}}

>  <type>  (14) 
unop_10

>  <geom_source>  (14) 
Heuristics

$$$$

     RDKit          3D

 15 13  0  0  0  0  0  0  0  0999 V2000
   -0.9394    0.2764   -2.8560 C   0  0  0  0  0  0  0  0  0  0  0  0
   -0.9394    0.2764   -1.3373 C   0  0  0  0  0  0  0  0  0  0  0  0
   -0.9394    1.9337   -0.5923 S   0  0  0  0  0  0  0  0  0  0  0  0
   -0.0328    0.7418   -3.2467 H   0  0  0  0  0  0  0  0  0  0  0  0
   -1.7954    0.8276   -3.2461 H   0  0  0  0  0  0  0  0  0  0  0  0
   -0.9825   -0.7470   -3.2363 H   0  0  0  0  0  0  0  0  0  0  0  0
    0.0725   -0.4030   -0.8632 H   0  0  0  0  0  0  0  0  0  0  0  0
   -1.8470   -0.1907   -0.9522 H   0  0  0  0  0  0  0  0  0  0  0  0
    0.2354    2.3354   -1.0959 H   0  0  0  0  0  0  0  0  0  0  0  0
    1.0886   -1.0852   -0.3870 C   0  0  0  0  0  0  0  0  0  0  0  0
    0.7183   -1.6809    0.9254 C   0  0  0  0  0  0  0  0  0  0  0  0
    0.9919   -1.0405    2.3733 S   0  0  0  0  0  1  0  0  0  0  0  0
    1.7403   -1.7750   -0.9322 H   0  0  0  0  0  0  0  0  0  0  0  0
    1.5878   -0.1258   -0.2680 H   0  0  0  0  0  0  0  0  0  0  0  0
    0.2135   -2.6466    0.8599 H   0  0  0  0  0  0  0  0  0  0  0  0
  1  2  1  0
  1  4  1  0
  1  5  1  0
  1  6  1  0
  2  3  1  0
  2  7  1  0
  2  8  1  0
  3  9  1  0
 10 11  2  3
 10 13  1  0
 10 14  1  0
 11 12  1  0
 11 15  1  0
M  RAD  1  12   2
M  END
>  <reaction>  (15) 
rxn_1888

>  <mol_properties>  (15) 
{"1": {"label": "*3", "atom_type": "Cs"}, "2": {"label": "*4", "atom_type": "S2s"}, "6": {"label": "*2", "atom_type": "H0"}, "9": {"label": "*1", "atom_type": "Cs"}, "10": {"label": "*0", "atom_type": "CS"}}

>  <type>  (15) 
unop_11

>  <geom_source>  (15) 
Heuristics

$$$$

     RDKit          3D

 15 13  0  0  0  0  0  0  0  0999 V2000
   -1.3929    0.8232   -1.5032 C   0  0  0  0  0  0  0  0  0  0  0  0
   -1.3929    0.8232    0.0154 C   0  0  0  0  0  0  0  0  0  0  0  0
   -1.3929    2.4806    0.7604 S   0  0  0  0  0  0  0  0  0  0  0  0
   -0.4862    1.2887   -1.8940 H   0  0  0  0  0  0  0  0  0  0  0  0
   -2.2488    1.3744   -1.8933 H   0  0  0  0  0  0  0  0  0  0  0  0
   -1.4359   -0.2001   -1.8835 H   0  0  0  0  0  0  0  0  0  0  0  0
   -0.3810    0.1439    0.4896 H   0  0  0  0  0  0  0  0  0  0  0  0
   -2.3005    0.3562    0.4006 H   0  0  0  0  0  0  0  0  0  0  0  0
   -0.2181    2.8823    0.2569 H   0  0  0  0  0  0  0  0  0  0  0  0
    0.6352   -0.5383    0.9657 C   0  0  0  0  0  0  0  0  0  0  0  0
    1.4431   -1.0807   -0.1602 C   0  0  0  0  0  0  0  0  0  0  0  0
    1.7759   -2.6284   -0.4347 S   0  0  0  0  0  1  0  0  0  0  0  0
    1.2386    0.1693    1.5426 H   0  0  0  0  0  0  0  0  0  0  0  0
    0.2723   -1.3288    1.6192 H   0  0  0  0  0  0  0  0  0  0  0  0
    1.8313   -0.3254   -0.8462 H   0  0  0  0  0  0  0  0  0  0  0  0
  1  2  1  0
  1  4  1  0
  1  5  1  0
  1  6  1  0
  2  3  1  0
  2  7  1  0
  2  8  1  0
  3  9  1  0
 10 11  2  3
 10 13  1  0
 10 14  1  0
 11 12  1  0
 11 15  1  0
M  RAD  1  12   2
M  END
>  <reaction>  (16) 
rxn_1888

>  <mol_properties>  (16) 
{"1": {"label": "*3", "atom_type": "Cs"}, "2": {"label": "*4", "atom_type": "S2s"}, "6": {"label": "*2", "atom_type": "H0"}, "9": {"label": "*1", "atom_type": "Cs"}, "10": {"label": "*0", "atom_type": "CS"}}

>  <type>  (16) 
unop_12

>  <geom_source>  (16) 
Heuristics

$$$$

     RDKit          3D

 15 13  0  0  0  0  0  0  0  0999 V2000
   -2.5577    1.0759   -0.9912 S   0  0  0  0  0  0  0  0  0  0  0  0
    2.1838    1.5851    1.2323 S   0  0  0  0  0  0  0  0  0  0  0  0
   -1.2972   -0.7205    0.6676 C   0  0  0  0  0  0  0  0  0  0  0  0
    1.4530    0.0091   -0.6284 C   0  0  0  0  0  0  0  0  0  0  0  0
   -1.1672   -0.0581   -0.6947 C   0  0  0  0  0  3  0  0  0  0  0  0
    2.2186    0.2843    0.6266 C   0  0  0  0  0  0  0  0  0  0  0  0
    1.8244    0.6529   -1.4543 H   0  0  0  0  0  0  0  0  0  0  0  0
    1.5849   -1.0540   -0.9194 H   0  0  0  0  0  0  0  0  0  0  0  0
    0.1923    0.2351   -0.4381 H   0  0  0  0  0  0  0  0  0  0  0  0
   -2.2432   -1.2996    0.7244 H   0  0  0  0  0  0  0  0  0  0  0  0
   -1.2853    0.0492    1.4674 H   0  0  0  0  0  0  0  0  0  0  0  0
   -0.4418   -1.4100    0.8246 H   0  0  0  0  0  0  0  0  0  0  0  0
   -1.1514   -0.8336   -1.4893 H   0  0  0  0  0  0  0  0  0  0  0  0
    2.7937   -0.5080    1.0947 H   0  0  0  0  0  0  0  0  0  0  0  0
   -2.1069    1.9922   -0.0221 H   0  0  0  0  0  0  0  0  0  0  0  0
  1  5  1  0
  1 15  1  0
  2  6  2  0
  3  5  1  0
  3 10  1  0
  3 11  1  0
  3 12  1  0
  4  6  1  0
  4  7  1  0
  4  8  1  0
  4  9  1  0
  5 13  1  0
  6 14  1  0
M  RAD  1   5   2
M  END
>  <reaction>  (17) 
rxn_1888

>  <mol_properties>  (17) 
{"1": {"label": "*3", "atom_type": "Cs"}, "2": {"label": "*4", "atom_type": "S2s"}, "6": {"label": "*2", "atom_type": "H0"}, "9": {"label": "*1", "atom_type": "Cs"}, "10": {"label": "*0", "atom_type": "CS"}}

>  <type>  (17) 
unop_13

>  <geom_source>  (17) 
AutoTST

$$$$
