
     RDKit          3D

 12 11  0  0  0  0  0  0  0  0999 V2000
    1.2394   -0.3763   -0.3020 C   0  0  0  0  0  0  0  0  0  0  0  0
    0.1007    0.3024    0.4464 C   0  0  0  0  0  0  0  0  0  0  0  0
   -0.1187    2.0399   -0.0725 S   0  0  0  0  0  0  0  0  0  0  0  0
   -1.1974   -0.4877    0.3552 C   0  0  0  0  0  0  0  0  0  0  0  0
    2.1681    0.1850   -0.2048 H   0  0  0  0  0  0  0  0  0  0  0  0
    1.0030   -0.4604   -1.3656 H   0  0  0  0  0  0  0  0  0  0  0  0
    1.3993   -1.3856    0.0859 H   0  0  0  0  0  0  0  0  0  0  0  0
    0.3797    0.4050    1.4982 H   0  0  0  0  0  0  0  0  0  0  0  0
   -0.4500    1.7774   -1.3452 H   0  0  0  0  0  0  0  0  0  0  0  0
   -1.0545   -1.4977    0.7478 H   0  0  0  0  0  0  0  0  0  0  0  0
   -1.5206   -0.5758   -0.6849 H   0  0  0  0  0  0  0  0  0  0  0  0
   -1.9957   -0.0054    0.9183 H   0  0  0  0  0  0  0  0  0  0  0  0
  1  2  1  0
  1  5  1  0
  1  6  1  0
  1  7  1  0
  2  4  1  0
  2  3  1  0
  2  8  1  0
  3  9  1  0
  4 10  1  0
  4 11  1  0
  4 12  1  0
M  END
>  <reaction>  (1) 
rxn_1948

>  <mol_properties>  (1) 
{"1": {"label": "donator", "atom_type": "Cs"}, "7": {"label": "d_hydrogen", "atom_type": "H0"}}

>  <type>  (1) 
r1h

$$$$

     RDKit          3D

  7  6  0  0  0  0  0  0  0  0999 V2000
   -0.6904   -0.9066   -0.0346 C   0  0  0  0  0  0  0  0  0  0  0  0
    0.1413    0.0254   -0.6161 C   0  0  0  0  0  0  0  0  0  0  0  0
    0.4603    0.1105   -1.9267 C   0  0  0  0  0  3  0  0  0  0  0  0
    0.8318    0.2180   -3.4201 S   0  0  0  0  0  0  0  0  0  0  0  0
   -0.8731   -0.8770    1.0287 H   0  0  0  0  0  0  0  0  0  0  0  0
   -1.1718   -1.6767   -0.6199 H   0  0  0  0  0  0  0  0  0  0  0  0
    0.6090    0.7866    0.0044 H   0  0  0  0  0  0  0  0  0  0  0  0
  1  2  2  3
  1  5  1  0
  1  6  1  0
  2  3  1  0
  2  7  1  0
  3  4  2  0
M  RAD  1   3   2
M  END
>  <reaction>  (2) 
rxn_1948

>  <mol_properties>  (2) 
{"2": {"label": "acceptor", "atom_type": "CS"}}

>  <type>  (2) 
r2

$$$$

     RDKit          3D

  8  7  0  0  0  0  0  0  0  0999 V2000
   -1.1617    0.0338    0.5053 C   0  0  0  0  0  0  0  0  0  0  0  0
   -0.1023    0.4503   -0.1863 C   0  0  0  0  0  0  0  0  0  0  0  0
    1.0978   -0.3557   -0.3104 C   0  0  0  0  0  0  0  0  0  0  0  0
    2.4251    0.0667   -1.1256 S   0  0  0  0  0  0  0  0  0  0  0  0
   -1.1653   -0.9292    1.0039 H   0  0  0  0  0  0  0  0  0  0  0  0
   -2.0546    0.6389    0.5948 H   0  0  0  0  0  0  0  0  0  0  0  0
   -0.0991    1.4132   -0.6847 H   0  0  0  0  0  0  0  0  0  0  0  0
    1.0601   -1.3180    0.2032 H   0  0  0  0  0  0  0  0  0  0  0  0
  1  2  2  3
  1  5  1  0
  1  6  1  0
  2  3  1  0
  2  7  1  0
  3  4  2  0
  3  8  1  0
M  END
>  <reaction>  (3) 
rxn_1948

>  <mol_properties>  (3) 
{"0": {"label": "a_hydrogen", "atom_type": "H0"}, "3": {"label": "acceptor", "atom_type": "CS"}}

>  <type>  (3) 
r2h

$$$$

     RDKit          3D

 19 17  0  0  0  0  0  0  0  0999 V2000
    0.9875    0.0826   -1.5498 C   0  0  0  0  0  0  0  0  0  0  0  0
    1.0524    1.1199   -0.4541 C   0  0  0  0  0  0  0  0  0  0  0  0
    2.5161    0.8823    0.5515 S   0  0  0  0  0  0  0  0  0  0  0  0
    0.8089    2.5363   -0.9086 C   0  0  0  0  0  0  0  0  0  0  0  0
    1.1005   -0.9293   -1.1567 H   0  0  0  0  0  0  0  0  0  0  0  0
    1.7675    0.2462   -2.3001 H   0  0  0  0  0  0  0  0  0  0  0  0
    0.0206    0.1452   -2.0532 H   0  0  0  0  0  0  0  0  0  0  0  0
   -0.0214    0.8556    0.3104 H   0  0  0  0  0  0  0  0  0  0  0  0
    2.2912    1.8832    1.4135 H   0  0  0  0  0  0  0  0  0  0  0  0
   -0.1521    2.6024   -1.4231 H   0  0  0  0  0  0  0  0  0  0  0  0
    1.5946    2.8643   -1.5964 H   0  0  0  0  0  0  0  0  0  0  0  0
    0.7820    3.2297   -0.0666 H   0  0  0  0  0  0  0  0  0  0  0  0
   -0.2480   -1.3800    1.8348 C   0  0  0  0  0  0  0  0  0  0  0  0
   -1.3279   -0.6435    1.5736 C   0  0  0  0  0  0  0  0  0  0  0  0
   -1.2537    0.6115    0.8568 C   0  0  0  0  0  3  0  0  0  0  0  0
   -2.4341    1.6335    0.5255 S   0  0  0  0  0  0  0  0  0  0  0  0
   -0.3286   -2.3134    2.3778 H   0  0  0  0  0  0  0  0  0  0  0  0
    0.7418   -1.0611    1.5283 H   0  0  0  0  0  0  0  0  0  0  0  0
   -2.3121   -0.9651    1.9043 H   0  0  0  0  0  0  0  0  0  0  0  0
  1  2  1  0
  1  5  1  0
  1  6  1  0
  1  7  1  0
  2  4  1  0
  2  3  1  0
  2  8  1  0
  3  9  1  0
  4 10  1  0
  4 11  1  0
  4 12  1  0
 13 14  2  3
 13 17  1  0
 13 18  1  0
 14 15  1  0
 14 19  1  0
 15 16  2  0
M  RAD  1  15   2
M  END
>  <reaction>  (4) 
rxn_1948

>  <mol_properties>  (4) 
{"1": {"label": "*1", "atom_type": "Cs"}, "2": {"label": "*0", "atom_type": "S2s"}, "7": {"label": "*2", "atom_type": "H0"}, "14": {"label": "*3", "atom_type": "CS"}, "15": {"label": "*4", "atom_type": "S2d"}}

>  <type>  (4) 
ts

$$$$

     RDKit          3D

 19 17  0  0  0  0  0  0  0  0999 V2000
    0.8346    0.7499   -2.1713 C   0  0  0  0  0  0  0  0  0  0  0  0
    0.8346    0.7499   -0.6489 C   0  0  0  0  0  3  0  0  0  0  0  0
    2.1897   -0.2664    0.0346 S   0  0  0  0  0  0  0  0  0  0  0  0
    0.8346    2.1599   -0.0750 C   0  0  0  0  0  0  0  0  0  0  0  0
    0.8060   -0.2644   -2.5680 H   0  0  0  0  0  0  0  0  0  0  0  0
    1.7330    1.2396   -2.5549 H   0  0  0  0  0  0  0  0  0  0  0  0
   -0.0324    1.2973   -2.5501 H   0  0  0  0  0  0  0  0  0  0  0  0
   -0.2333    0.1180   -0.2239 H   0  0  0  0  0  0  0  0  0  0  0  0
    3.1956    0.4694   -0.4603 H   0  0  0  0  0  0  0  0  0  0  0  0
   -0.0324    2.7172   -0.4392 H   0  0  0  0  0  0  0  0  0  0  0  0
    1.7330    2.6998   -0.3839 H   0  0  0  0  0  0  0  0  0  0  0  0
    0.8060    2.1448    1.0140 H   0  0  0  0  0  0  0  0  0  0  0  0
   -0.0620   -2.5418    0.7246 C   0  0  0  0  0  0  0  0  0  0  0  0
   -1.0331   -1.6796    1.0210 C   0  0  0  0  0  0  0  0  0  0  0  0
   -1.2998   -0.5130    0.2005 C   0  0  0  0  0  0  0  0  0  0  0  0
   -2.4516    0.5819    0.4818 S   0  0  0  0  0  0  0  0  0  0  0  0
    0.1328   -3.4105    1.3400 H   0  0  0  0  0  0  0  0  0  0  0  0
    0.5685   -2.4018   -0.1465 H   0  0  0  0  0  0  0  0  0  0  0  0
   -1.6633   -1.8199    1.8920 H   0  0  0  0  0  0  0  0  0  0  0  0
  1  2  1  0
  1  5  1  0
  1  6  1  0
  1  7  1  0
  2  4  1  0
  2  3  1  0
  3  9  1  0
  4 10  1  0
  4 11  1  0
  4 12  1  0
  8 15  1  0
 13 14  2  3
 13 17  1  0
 13 18  1  0
 14 15  1  0
 14 19  1  0
 15 16  2  0
M  RAD  1   2   2
M  END
>  <reaction>  (5) 
rxn_1948

>  <mol_properties>  (5) 
{"1": {"label": "*1", "atom_type": "Cs"}, "2": {"label": "*0", "atom_type": "S2s"}, "7": {"label": "*2", "atom_type": "H0"}, "14": {"label": "*3", "atom_type": "CS"}, "15": {"label": "*4", "atom_type": "S2d"}}

>  <type>  (5) 
unop_1

>  <geom_source>  (5) 
Heuristics

$$$$

     RDKit          3D

 19 17  0  0  0  0  0  0  0  0999 V2000
    0.8675    0.8550   -2.0339 C   0  0  0  0  0  0  0  0  0  0  0  0
    0.8675    0.8550   -0.5116 C   0  0  0  0  0  3  0  0  0  0  0  0
    2.2226   -0.1613    0.1720 S   0  0  0  0  0  0  0  0  0  0  0  0
    0.8675    2.2650    0.0624 C   0  0  0  0  0  0  0  0  0  0  0  0
    0.8390   -0.1593   -2.4306 H   0  0  0  0  0  0  0  0  0  0  0  0
    1.7659    1.3447   -2.4175 H   0  0  0  0  0  0  0  0  0  0  0  0
    0.0006    1.4024   -2.4128 H   0  0  0  0  0  0  0  0  0  0  0  0
   -0.2004    0.2231   -0.0866 H   0  0  0  0  0  0  0  0  0  0  0  0
    3.2285    0.5745   -0.3229 H   0  0  0  0  0  0  0  0  0  0  0  0
    0.0006    2.8222   -0.3018 H   0  0  0  0  0  0  0  0  0  0  0  0
    1.7659    2.8049   -0.2466 H   0  0  0  0  0  0  0  0  0  0  0  0
    0.8390    2.2499    1.1514 H   0  0  0  0  0  0  0  0  0  0  0  0
   -1.3802   -1.5252   -1.8212 C   0  0  0  0  0  0  0  0  0  0  0  0
   -1.7469   -1.4566   -0.5426 C   0  0  0  0  0  0  0  0  0  0  0  0
   -1.2668   -0.4079    0.3378 C   0  0  0  0  0  0  0  0  0  0  0  0
   -1.6565   -0.2465    1.8957 S   0  0  0  0  0  0  0  0  0  0  0  0
   -1.7412   -2.3095   -2.4737 H   0  0  0  0  0  0  0  0  0  0  0  0
   -0.7051   -0.7947   -2.2531 H   0  0  0  0  0  0  0  0  0  0  0  0
   -2.4219   -2.1872   -0.1110 H   0  0  0  0  0  0  0  0  0  0  0  0
  1  2  1  0
  1  5  1  0
  1  6  1  0
  1  7  1  0
  2  4  1  0
  2  3  1  0
  3  9  1  0
  4 10  1  0
  4 11  1  0
  4 12  1  0
  8 15  1  0
 13 14  2  3
 13 17  1  0
 13 18  1  0
 14 15  1  0
 14 19  1  0
 15 16  2  0
M  RAD  1   2   2
M  END
>  <reaction>  (6) 
rxn_1948

>  <mol_properties>  (6) 
{"1": {"label": "*1", "atom_type": "Cs"}, "2": {"label": "*0", "atom_type": "S2s"}, "7": {"label": "*2", "atom_type": "H0"}, "14": {"label": "*3", "atom_type": "CS"}, "15": {"label": "*4", "atom_type": "S2d"}}

>  <type>  (6) 
unop_2

>  <geom_source>  (6) 
Heuristics

$$$$

     RDKit          3D

 19 17  0  0  0  0  0  0  0  0999 V2000
    0.8848    0.7210   -2.1411 C   0  0  0  0  0  0  0  0  0  0  0  0
    0.8848    0.7210   -0.6188 C   0  0  0  0  0  3  0  0  0  0  0  0
    2.2399   -0.2952    0.0648 S   0  0  0  0  0  0  0  0  0  0  0  0
    0.8848    2.1310   -0.0448 C   0  0  0  0  0  0  0  0  0  0  0  0
    0.8562   -0.2932   -2.5378 H   0  0  0  0  0  0  0  0  0  0  0  0
    1.7832    1.2108   -2.5247 H   0  0  0  0  0  0  0  0  0  0  0  0
    0.0178    1.2685   -2.5200 H   0  0  0  0  0  0  0  0  0  0  0  0
   -0.1831    0.0892   -0.1938 H   0  0  0  0  0  0  0  0  0  0  0  0
    3.2458    0.4406   -0.4301 H   0  0  0  0  0  0  0  0  0  0  0  0
    0.0178    2.6883   -0.4090 H   0  0  0  0  0  0  0  0  0  0  0  0
    1.7832    2.6709   -0.3537 H   0  0  0  0  0  0  0  0  0  0  0  0
    0.8562    2.1160    1.0442 H   0  0  0  0  0  0  0  0  0  0  0  0
    0.0743   -1.7210    1.8979 C   0  0  0  0  0  0  0  0  0  0  0  0
   -1.0939   -1.2144    1.5069 C   0  0  0  0  0  0  0  0  0  0  0  0
   -1.2496   -0.5419    0.2307 C   0  0  0  0  0  0  0  0  0  0  0  0
   -2.6222    0.1006   -0.3240 S   0  0  0  0  0  0  0  0  0  0  0  0
    0.1851   -2.2218    2.8509 H   0  0  0  0  0  0  0  0  0  0  0  0
    0.9569   -1.6486    1.2721 H   0  0  0  0  0  0  0  0  0  0  0  0
   -1.9762   -1.2870    2.1328 H   0  0  0  0  0  0  0  0  0  0  0  0
  1  2  1  0
  1  5  1  0
  1  6  1  0
  1  7  1  0
  2  4  1  0
  2  3  1  0
  3  9  1  0
  4 10  1  0
  4 11  1  0
  4 12  1  0
  8 15  1  0
 13 14  2  3
 13 17  1  0
 13 18  1  0
 14 15  1  0
 14 19  1  0
 15 16  2  0
M  RAD  1   2   2
M  END
>  <reaction>  (7) 
rxn_1948

>  <mol_properties>  (7) 
{"1": {"label": "*1", "atom_type": "Cs"}, "2": {"label": "*0", "atom_type": "S2s"}, "7": {"label": "*2", "atom_type": "H0"}, "14": {"label": "*3", "atom_type": "CS"}, "15": {"label": "*4", "atom_type": "S2d"}}

>  <type>  (7) 
unop_3

>  <geom_source>  (7) 
Heuristics

$$$$

     RDKit          3D

 19 17  0  0  0  0  0  0  0  0999 V2000
    0.9235    0.6851   -2.0948 C   0  0  0  0  0  0  0  0  0  0  0  0
    0.9235    0.6851   -0.5724 C   0  0  0  0  0  3  0  0  0  0  0  0
    2.2787   -0.3312    0.1111 S   0  0  0  0  0  0  0  0  0  0  0  0
    0.9235    2.0951    0.0015 C   0  0  0  0  0  0  0  0  0  0  0  0
    0.8950   -0.3291   -2.4915 H   0  0  0  0  0  0  0  0  0  0  0  0
    1.8220    1.1749   -2.4784 H   0  0  0  0  0  0  0  0  0  0  0  0
    0.0566    1.2326   -2.4736 H   0  0  0  0  0  0  0  0  0  0  0  0
   -0.1443    0.0532   -0.1474 H   0  0  0  0  0  0  0  0  0  0  0  0
    3.2846    0.4047   -0.3838 H   0  0  0  0  0  0  0  0  0  0  0  0
    0.0566    2.6524   -0.3627 H   0  0  0  0  0  0  0  0  0  0  0  0
    1.8220    2.6350   -0.3074 H   0  0  0  0  0  0  0  0  0  0  0  0
    0.8950    2.0801    1.0905 H   0  0  0  0  0  0  0  0  0  0  0  0
   -2.6012    0.6279   -1.3154 C   0  0  0  0  0  0  0  0  0  0  0  0
   -2.4720    0.0003   -0.1477 C   0  0  0  0  0  0  0  0  0  0  0  0
   -1.2108   -0.5778    0.2770 C   0  0  0  0  0  0  0  0  0  0  0  0
   -0.9622   -1.3538    1.6701 S   0  0  0  0  0  0  0  0  0  0  0  0
   -3.5443    1.0575   -1.6274 H   0  0  0  0  0  0  0  0  0  0  0  0
   -1.7626    0.7301   -1.9952 H   0  0  0  0  0  0  0  0  0  0  0  0
   -3.3107   -0.1016    0.5319 H   0  0  0  0  0  0  0  0  0  0  0  0
  1  2  1  0
  1  5  1  0
  1  6  1  0
  1  7  1  0
  2  4  1  0
  2  3  1  0
  3  9  1  0
  4 10  1  0
  4 11  1  0
  4 12  1  0
  8 15  1  0
 13 14  2  3
 13 17  1  0
 13 18  1  0
 14 15  1  0
 14 19  1  0
 15 16  2  0
M  RAD  1   2   2
M  END
>  <reaction>  (8) 
rxn_1948

>  <mol_properties>  (8) 
{"1": {"label": "*1", "atom_type": "Cs"}, "2": {"label": "*0", "atom_type": "S2s"}, "7": {"label": "*2", "atom_type": "H0"}, "14": {"label": "*3", "atom_type": "CS"}, "15": {"label": "*4", "atom_type": "S2d"}}

>  <type>  (8) 
unop_4

>  <geom_source>  (8) 
Heuristics

$$$$

     RDKit          3D

 19 17  0  0  0  0  0  0  0  0999 V2000
    0.8923    0.7832   -2.1023 C   0  0  0  0  0  0  0  0  0  0  0  0
    0.8923    0.7832   -0.5800 C   0  0  0  0  0  3  0  0  0  0  0  0
    2.2474   -0.2331    0.1036 S   0  0  0  0  0  0  0  0  0  0  0  0
    0.8923    2.1932   -0.0060 C   0  0  0  0  0  0  0  0  0  0  0  0
    0.8638   -0.2310   -2.4990 H   0  0  0  0  0  0  0  0  0  0  0  0
    1.7907    1.2730   -2.4859 H   0  0  0  0  0  0  0  0  0  0  0  0
    0.0254    1.3307   -2.4812 H   0  0  0  0  0  0  0  0  0  0  0  0
   -0.1756    0.1513   -0.1550 H   0  0  0  0  0  0  0  0  0  0  0  0
    3.2533    0.5028   -0.3913 H   0  0  0  0  0  0  0  0  0  0  0  0
    0.0254    2.7505   -0.3702 H   0  0  0  0  0  0  0  0  0  0  0  0
    1.7907    2.7331   -0.3149 H   0  0  0  0  0  0  0  0  0  0  0  0
    0.8638    2.1782    1.0830 H   0  0  0  0  0  0  0  0  0  0  0  0
   -0.4677   -0.0215    2.5307 C   0  0  0  0  0  0  0  0  0  0  0  0
   -1.3723   -0.5567    1.7125 C   0  0  0  0  0  0  0  0  0  0  0  0
   -1.2420   -0.4797    0.2695 C   0  0  0  0  0  0  0  0  0  0  0  0
   -2.2854   -1.0971   -0.7958 S   0  0  0  0  0  0  0  0  0  0  0  0
   -0.5696   -0.0818    3.6065 H   0  0  0  0  0  0  0  0  0  0  0  0
    0.4045    0.4946    2.1450 H   0  0  0  0  0  0  0  0  0  0  0  0
   -2.2443   -1.0727    2.0985 H   0  0  0  0  0  0  0  0  0  0  0  0
  1  2  1  0
  1  5  1  0
  1  6  1  0
  1  7  1  0
  2  4  1  0
  2  3  1  0
  3  9  1  0
  4 10  1  0
  4 11  1  0
  4 12  1  0
  8 15  1  0
 13 14  2  3
 13 17  1  0
 13 18  1  0
 14 15  1  0
 14 19  1  0
 15 16  2  0
M  RAD  1   2   2
M  END
>  <reaction>  (9) 
rxn_1948

>  <mol_properties>  (9) 
{"1": {"label": "*1", "atom_type": "Cs"}, "2": {"label": "*0", "atom_type": "S2s"}, "7": {"label": "*2", "atom_type": "H0"}, "14": {"label": "*3", "atom_type": "CS"}, "15": {"label": "*4", "atom_type": "S2d"}}

>  <type>  (9) 
unop_5

>  <geom_source>  (9) 
Heuristics

$$$$

     RDKit          3D

 19 17  0  0  0  0  0  0  0  0999 V2000
    0.8779    0.6957   -2.1512 C   0  0  0  0  0  0  0  0  0  0  0  0
    0.8779    0.6957   -0.6289 C   0  0  0  0  0  3  0  0  0  0  0  0
    2.2330   -0.3206    0.0547 S   0  0  0  0  0  0  0  0  0  0  0  0
    0.8779    2.1057   -0.0549 C   0  0  0  0  0  0  0  0  0  0  0  0
    0.8493   -0.3185   -2.5479 H   0  0  0  0  0  0  0  0  0  0  0  0
    1.7763    1.1855   -2.5348 H   0  0  0  0  0  0  0  0  0  0  0  0
    0.0109    1.2432   -2.5301 H   0  0  0  0  0  0  0  0  0  0  0  0
   -0.1900    0.0638   -0.2039 H   0  0  0  0  0  0  0  0  0  0  0  0
    3.2389    0.4153   -0.4402 H   0  0  0  0  0  0  0  0  0  0  0  0
    0.0109    2.6630   -0.4191 H   0  0  0  0  0  0  0  0  0  0  0  0
    1.7763    2.6456   -0.3639 H   0  0  0  0  0  0  0  0  0  0  0  0
    0.8493    2.0907    1.0341 H   0  0  0  0  0  0  0  0  0  0  0  0
   -2.7401    1.2494   -0.4285 C   0  0  0  0  0  0  0  0  0  0  0  0
   -2.4240    0.2713    0.4185 C   0  0  0  0  0  0  0  0  0  0  0  0
   -1.2564   -0.5672    0.2206 C   0  0  0  0  0  0  0  0  0  0  0  0
   -0.7974   -1.7717    1.1917 S   0  0  0  0  0  0  0  0  0  0  0  0
   -3.6122    1.8720   -0.2763 H   0  0  0  0  0  0  0  0  0  0  0  0
   -2.1321    1.4556   -1.3024 H   0  0  0  0  0  0  0  0  0  0  0  0
   -3.0321    0.0653    1.2922 H   0  0  0  0  0  0  0  0  0  0  0  0
  1  2  1  0
  1  5  1  0
  1  6  1  0
  1  7  1  0
  2  4  1  0
  2  3  1  0
  3  9  1  0
  4 10  1  0
  4 11  1  0
  4 12  1  0
  8 15  1  0
 13 14  2  3
 13 17  1  0
 13 18  1  0
 14 15  1  0
 14 19  1  0
 15 16  2  0
M  RAD  1   2   2
M  END
>  <reaction>  (10) 
rxn_1948

>  <mol_properties>  (10) 
{"1": {"label": "*1", "atom_type": "Cs"}, "2": {"label": "*0", "atom_type": "S2s"}, "7": {"label": "*2", "atom_type": "H0"}, "14": {"label": "*3", "atom_type": "CS"}, "15": {"label": "*4", "atom_type": "S2d"}}

>  <type>  (10) 
unop_6

>  <geom_source>  (10) 
Heuristics

$$$$

     RDKit          3D

 19 17  0  0  0  0  0  0  0  0999 V2000
    0.8353    0.7486   -2.1713 C   0  0  0  0  0  0  0  0  0  0  0  0
    0.8353    0.7486   -0.6489 C   0  0  0  0  0  3  0  0  0  0  0  0
    2.1904   -0.2676    0.0346 S   0  0  0  0  0  0  0  0  0  0  0  0
    0.8353    2.1586   -0.0750 C   0  0  0  0  0  0  0  0  0  0  0  0
    0.8067   -0.2656   -2.5680 H   0  0  0  0  0  0  0  0  0  0  0  0
    1.7337    1.2384   -2.5549 H   0  0  0  0  0  0  0  0  0  0  0  0
   -0.0317    1.2961   -2.5501 H   0  0  0  0  0  0  0  0  0  0  0  0
   -0.2326    0.1168   -0.2239 H   0  0  0  0  0  0  0  0  0  0  0  0
    3.1963    0.4682   -0.4603 H   0  0  0  0  0  0  0  0  0  0  0  0
   -0.0317    2.7159   -0.4392 H   0  0  0  0  0  0  0  0  0  0  0  0
    1.7337    2.6986   -0.3839 H   0  0  0  0  0  0  0  0  0  0  0  0
    0.8067    2.1436    1.0140 H   0  0  0  0  0  0  0  0  0  0  0  0
   -2.4815    1.5472    0.7246 C   0  0  0  0  0  0  0  0  0  0  0  0
   -2.1933    0.2810    1.0210 C   0  0  0  0  0  0  0  0  0  0  0  0
   -1.2990   -0.5142    0.2005 C   0  0  0  0  0  0  0  0  0  0  0  0
   -0.8937   -2.0509    0.4818 S   0  0  0  0  0  0  0  0  0  0  0  0
   -3.1492    2.1361    1.3400 H   0  0  0  0  0  0  0  0  0  0  0  0
   -2.0553    2.0325   -0.1465 H   0  0  0  0  0  0  0  0  0  0  0  0
   -2.6196   -0.2038    1.8920 H   0  0  0  0  0  0  0  0  0  0  0  0
  1  2  1  0
  1  5  1  0
  1  6  1  0
  1  7  1  0
  2  4  1  0
  2  3  1  0
  3  9  1  0
  4 10  1  0
  4 11  1  0
  4 12  1  0
  8 15  1  0
 13 14  2  3
 13 17  1  0
 13 18  1  0
 14 15  1  0
 14 19  1  0
 15 16  2  0
M  RAD  1   2   2
M  END
>  <reaction>  (11) 
rxn_1948

>  <mol_properties>  (11) 
{"1": {"label": "*1", "atom_type": "Cs"}, "2": {"label": "*0", "atom_type": "S2s"}, "7": {"label": "*2", "atom_type": "H0"}, "14": {"label": "*3", "atom_type": "CS"}, "15": {"label": "*4", "atom_type": "S2d"}}

>  <type>  (11) 
unop_7

>  <geom_source>  (11) 
Heuristics

$$$$

     RDKit          3D

 19 17  0  0  0  0  0  0  0  0999 V2000
    0.8087    0.8127   -2.1512 C   0  0  0  0  0  0  0  0  0  0  0  0
    0.8087    0.8127   -0.6289 C   0  0  0  0  0  3  0  0  0  0  0  0
    2.1638   -0.2036    0.0547 S   0  0  0  0  0  0  0  0  0  0  0  0
    0.8087    2.2227   -0.0549 C   0  0  0  0  0  0  0  0  0  0  0  0
    0.7801   -0.2016   -2.5479 H   0  0  0  0  0  0  0  0  0  0  0  0
    1.7071    1.3024   -2.5348 H   0  0  0  0  0  0  0  0  0  0  0  0
   -0.0583    1.3601   -2.5301 H   0  0  0  0  0  0  0  0  0  0  0  0
   -0.2592    0.1808   -0.2039 H   0  0  0  0  0  0  0  0  0  0  0  0
    3.1697    0.5322   -0.4402 H   0  0  0  0  0  0  0  0  0  0  0  0
   -0.0583    2.7800   -0.4191 H   0  0  0  0  0  0  0  0  0  0  0  0
    1.7071    2.7626   -0.3639 H   0  0  0  0  0  0  0  0  0  0  0  0
    0.7801    2.2077    1.0341 H   0  0  0  0  0  0  0  0  0  0  0  0
   -0.4475   -2.6251   -0.4285 C   0  0  0  0  0  0  0  0  0  0  0  0
   -1.1527   -1.8772    0.4185 C   0  0  0  0  0  0  0  0  0  0  0  0
   -1.3257   -0.4502    0.2206 C   0  0  0  0  0  0  0  0  0  0  0  0
   -2.1605    0.5320    1.1917 S   0  0  0  0  0  0  0  0  0  0  0  0
   -0.3216   -3.6892   -0.2763 H   0  0  0  0  0  0  0  0  0  0  0  0
    0.0259   -2.1914   -1.3024 H   0  0  0  0  0  0  0  0  0  0  0  0
   -1.6260   -2.3111    1.2922 H   0  0  0  0  0  0  0  0  0  0  0  0
  1  2  1  0
  1  5  1  0
  1  6  1  0
  1  7  1  0
  2  4  1  0
  2  3  1  0
  3  9  1  0
  4 10  1  0
  4 11  1  0
  4 12  1  0
  8 15  1  0
 13 14  2  3
 13 17  1  0
 13 18  1  0
 14 15  1  0
 14 19  1  0
 15 16  2  0
M  RAD  1   2   2
M  END
>  <reaction>  (12) 
rxn_1948

>  <mol_properties>  (12) 
{"1": {"label": "*1", "atom_type": "Cs"}, "2": {"label": "*0", "atom_type": "S2s"}, "7": {"label": "*2", "atom_type": "H0"}, "14": {"label": "*3", "atom_type": "CS"}, "15": {"label": "*4", "atom_type": "S2d"}}

>  <type>  (12) 
unop_8

>  <geom_source>  (12) 
Heuristics

$$$$

     RDKit          3D

 19 17  0  0  0  0  0  0  0  0999 V2000
    0.9432    0.7269   -2.0339 C   0  0  0  0  0  0  0  0  0  0  0  0
    0.9432    0.7269   -0.5116 C   0  0  0  0  0  3  0  0  0  0  0  0
    2.2984   -0.2893    0.1720 S   0  0  0  0  0  0  0  0  0  0  0  0
    0.9432    2.1369    0.0624 C   0  0  0  0  0  0  0  0  0  0  0  0
    0.9147   -0.2873   -2.4306 H   0  0  0  0  0  0  0  0  0  0  0  0
    1.8417    1.2167   -2.4175 H   0  0  0  0  0  0  0  0  0  0  0  0
    0.0763    1.2744   -2.4128 H   0  0  0  0  0  0  0  0  0  0  0  0
   -0.1246    0.0951   -0.0866 H   0  0  0  0  0  0  0  0  0  0  0  0
    3.3043    0.4465   -0.3229 H   0  0  0  0  0  0  0  0  0  0  0  0
    0.0763    2.6942   -0.3018 H   0  0  0  0  0  0  0  0  0  0  0  0
    1.8417    2.6768   -0.2466 H   0  0  0  0  0  0  0  0  0  0  0  0
    0.9147    2.1219    1.1514 H   0  0  0  0  0  0  0  0  0  0  0  0
   -2.2249   -0.0976   -1.8212 C   0  0  0  0  0  0  0  0  0  0  0  0
   -2.3413   -0.4519   -0.5426 C   0  0  0  0  0  0  0  0  0  0  0  0
   -1.1911   -0.5360    0.3378 C   0  0  0  0  0  0  0  0  0  0  0  0
   -1.2372   -0.9553    1.8957 S   0  0  0  0  0  0  0  0  0  0  0  0
   -3.0862   -0.0364   -2.4737 H   0  0  0  0  0  0  0  0  0  0  0  0
   -1.2597    0.1425   -2.2531 H   0  0  0  0  0  0  0  0  0  0  0  0
   -3.3066   -0.6919   -0.1110 H   0  0  0  0  0  0  0  0  0  0  0  0
  1  2  1  0
  1  5  1  0
  1  6  1  0
  1  7  1  0
  2  4  1  0
  2  3  1  0
  3  9  1  0
  4 10  1  0
  4 11  1  0
  4 12  1  0
  8 15  1  0
 13 14  2  3
 13 17  1  0
 13 18  1  0
 14 15  1  0
 14 19  1  0
 15 16  2  0
M  RAD  1   2   2
M  END
>  <reaction>  (13) 
rxn_1948

>  <mol_properties>  (13) 
{"1": {"label": "*1", "atom_type": "Cs"}, "2": {"label": "*0", "atom_type": "S2s"}, "7": {"label": "*2", "atom_type": "H0"}, "14": {"label": "*3", "atom_type": "CS"}, "15": {"label": "*4", "atom_type": "S2d"}}

>  <type>  (13) 
unop_9

>  <geom_source>  (13) 
Heuristics

$$$$

     RDKit          3D

 19 17  0  0  0  0  0  0  0  0999 V2000
    0.8214    0.8578   -2.0948 C   0  0  0  0  0  0  0  0  0  0  0  0
    0.8214    0.8578   -0.5724 C   0  0  0  0  0  3  0  0  0  0  0  0
    2.1765   -0.1585    0.1111 S   0  0  0  0  0  0  0  0  0  0  0  0
    0.8214    2.2678    0.0015 C   0  0  0  0  0  0  0  0  0  0  0  0
    0.7928   -0.1564   -2.4915 H   0  0  0  0  0  0  0  0  0  0  0  0
    1.7198    1.3476   -2.4784 H   0  0  0  0  0  0  0  0  0  0  0  0
   -0.0456    1.4052   -2.4736 H   0  0  0  0  0  0  0  0  0  0  0  0
   -0.2465    0.2259   -0.1474 H   0  0  0  0  0  0  0  0  0  0  0  0
    3.1824    0.5773   -0.3838 H   0  0  0  0  0  0  0  0  0  0  0  0
   -0.0456    2.8251   -0.3627 H   0  0  0  0  0  0  0  0  0  0  0  0
    1.7198    2.8077   -0.3074 H   0  0  0  0  0  0  0  0  0  0  0  0
    0.7928    2.2528    1.0905 H   0  0  0  0  0  0  0  0  0  0  0  0
   -0.9254   -2.2042   -1.3154 C   0  0  0  0  0  0  0  0  0  0  0  0
   -1.4133   -1.7889   -0.1477 C   0  0  0  0  0  0  0  0  0  0  0  0
   -1.3130   -0.4051    0.2770 C   0  0  0  0  0  0  0  0  0  0  0  0
   -1.8735    0.1863    1.6701 S   0  0  0  0  0  0  0  0  0  0  0  0
   -1.0029   -3.2376   -1.6274 H   0  0  0  0  0  0  0  0  0  0  0  0
   -0.4322   -1.5183   -1.9952 H   0  0  0  0  0  0  0  0  0  0  0  0
   -1.9064   -2.4749    0.5319 H   0  0  0  0  0  0  0  0  0  0  0  0
  1  2  1  0
  1  5  1  0
  1  6  1  0
  1  7  1  0
  2  4  1  0
  2  3  1  0
  3  9  1  0
  4 10  1  0
  4 11  1  0
  4 12  1  0
  8 15  1  0
 13 14  2  3
 13 17  1  0
 13 18  1  0
 14 15  1  0
 14 19  1  0
 15 16  2  0
M  RAD  1   2   2
M  END
>  <reaction>  (14) 
rxn_1948

>  <mol_properties>  (14) 
{"1": {"label": "*1", "atom_type": "Cs"}, "2": {"label": "*0", "atom_type": "S2s"}, "7": {"label": "*2", "atom_type": "H0"}, "14": {"label": "*3", "atom_type": "CS"}, "15": {"label": "*4", "atom_type": "S2d"}}

>  <type>  (14) 
unop_10

>  <geom_source>  (14) 
Heuristics

$$$$

     RDKit          3D

 19 17  0  0  0  0  0  0  0  0999 V2000
    0.8342    0.8065   -2.1411 C   0  0  0  0  0  0  0  0  0  0  0  0
    0.8342    0.8065   -0.6188 C   0  0  0  0  0  3  0  0  0  0  0  0
    2.1893   -0.2097    0.0648 S   0  0  0  0  0  0  0  0  0  0  0  0
    0.8342    2.2165   -0.0448 C   0  0  0  0  0  0  0  0  0  0  0  0
    0.8056   -0.2077   -2.5378 H   0  0  0  0  0  0  0  0  0  0  0  0
    1.7326    1.2963   -2.5247 H   0  0  0  0  0  0  0  0  0  0  0  0
   -0.0328    1.3540   -2.5200 H   0  0  0  0  0  0  0  0  0  0  0  0
   -0.2337    0.1747   -0.1938 H   0  0  0  0  0  0  0  0  0  0  0  0
    3.1952    0.5261   -0.4301 H   0  0  0  0  0  0  0  0  0  0  0  0
   -0.0328    2.7738   -0.4090 H   0  0  0  0  0  0  0  0  0  0  0  0
    1.7326    2.7564   -0.3537 H   0  0  0  0  0  0  0  0  0  0  0  0
    0.8056    2.2015    1.0442 H   0  0  0  0  0  0  0  0  0  0  0  0
   -1.6965    1.2716    1.8979 C   0  0  0  0  0  0  0  0  0  0  0  0
   -1.8147    0.0038    1.5069 C   0  0  0  0  0  0  0  0  0  0  0  0
   -1.3001   -0.4564    0.2307 C   0  0  0  0  0  0  0  0  0  0  0  0
   -1.3977   -1.9688   -0.3240 S   0  0  0  0  0  0  0  0  0  0  0  0
   -2.0821    1.6098    2.8509 H   0  0  0  0  0  0  0  0  0  0  0  0
   -1.2082    2.0104    1.2721 H   0  0  0  0  0  0  0  0  0  0  0  0
   -2.3030   -0.7346    2.1328 H   0  0  0  0  0  0  0  0  0  0  0  0
  1  2  1  0
  1  5  1  0
  1  6  1  0
  1  7  1  0
  2  4  1  0
  2  3  1  0
  3  9  1  0
  4 10  1  0
  4 11  1  0
  4 12  1  0
  8 15  1  0
 13 14  2  3
 13 17  1  0
 13 18  1  0
 14 15  1  0
 14 19  1  0
 15 16  2  0
M  RAD  1   2   2
M  END
>  <reaction>  (15) 
rxn_1948

>  <mol_properties>  (15) 
{"1": {"label": "*1", "atom_type": "Cs"}, "2": {"label": "*0", "atom_type": "S2s"}, "7": {"label": "*2", "atom_type": "H0"}, "14": {"label": "*3", "atom_type": "CS"}, "15": {"label": "*4", "atom_type": "S2d"}}

>  <type>  (15) 
unop_11

>  <geom_source>  (15) 
Heuristics

$$$$

     RDKit          3D

 19 17  0  0  0  0  0  0  0  0999 V2000
    0.9204    0.7998   -2.0071 C   0  0  0  0  0  0  0  0  0  0  0  0
    0.9204    0.7998   -0.4848 C   0  0  0  0  0  3  0  0  0  0  0  0
    2.2755   -0.2165    0.1988 S   0  0  0  0  0  0  0  0  0  0  0  0
    0.9204    2.2098    0.0892 C   0  0  0  0  0  0  0  0  0  0  0  0
    0.8918   -0.2144   -2.4038 H   0  0  0  0  0  0  0  0  0  0  0  0
    1.8188    1.2896   -2.3907 H   0  0  0  0  0  0  0  0  0  0  0  0
    0.0534    1.3473   -2.3860 H   0  0  0  0  0  0  0  0  0  0  0  0
   -0.1475    0.1679   -0.0598 H   0  0  0  0  0  0  0  0  0  0  0  0
    3.2814    0.5194   -0.2962 H   0  0  0  0  0  0  0  0  0  0  0  0
    0.0534    2.7671   -0.2750 H   0  0  0  0  0  0  0  0  0  0  0  0
    1.8188    2.7497   -0.2198 H   0  0  0  0  0  0  0  0  0  0  0  0
    0.8918    2.1948    1.1781 H   0  0  0  0  0  0  0  0  0  0  0  0
   -1.7954   -0.8071   -1.9733 C   0  0  0  0  0  0  0  0  0  0  0  0
   -2.0783   -0.9745   -0.6826 C   0  0  0  0  0  0  0  0  0  0  0  0
   -1.2140   -0.4631    0.3646 C   0  0  0  0  0  0  0  0  0  0  0  0
   -1.4762   -0.6182    1.9495 S   0  0  0  0  0  0  0  0  0  0  0  0
   -2.4435   -1.1906   -2.7506 H   0  0  0  0  0  0  0  0  0  0  0  0
   -0.9028   -0.2790   -2.2901 H   0  0  0  0  0  0  0  0  0  0  0  0
   -2.9708   -1.5026   -0.3663 H   0  0  0  0  0  0  0  0  0  0  0  0
  1  2  1  0
  1  5  1  0
  1  6  1  0
  1  7  1  0
  2  4  1  0
  2  3  1  0
  3  9  1  0
  4 10  1  0
  4 11  1  0
  4 12  1  0
  8 15  1  0
 13 14  2  3
 13 17  1  0
 13 18  1  0
 14 15  1  0
 14 19  1  0
 15 16  2  0
M  RAD  1   2   2
M  END
>  <reaction>  (16) 
rxn_1948

>  <mol_properties>  (16) 
{"1": {"label": "*1", "atom_type": "Cs"}, "2": {"label": "*0", "atom_type": "S2s"}, "7": {"label": "*2", "atom_type": "H0"}, "14": {"label": "*3", "atom_type": "CS"}, "15": {"label": "*4", "atom_type": "S2d"}}

>  <type>  (16) 
unop_12

>  <geom_source>  (16) 
Heuristics

$$$$

     RDKit          3D

 19 17  0  0  0  0  0  0  0  0999 V2000
   -2.4696   -1.1192    1.0213 S   0  0  0  0  0  0  0  0  0  0  0  0
    0.9432   -0.2320    2.3906 S   0  0  0  0  0  0  0  0  0  0  0  0
   -1.3488    1.1657   -0.0369 C   0  0  0  0  0  0  0  0  0  0  0  0
   -1.7509   -0.7651   -1.6095 C   0  0  0  0  0  0  0  0  0  0  0  0
   -1.3512   -0.3527   -0.1960 C   0  0  0  0  0  3  0  0  0  0  0  0
    2.3340   -0.0226    0.0364 C   0  0  0  0  0  0  0  0  0  0  0  0
    3.4945    0.2363    0.6392 C   0  0  0  0  0  0  0  0  0  0  0  0
    1.0687   -0.2597    0.7560 C   0  0  0  0  0  0  0  0  0  0  0  0
   -1.0148    1.4358    0.9867 H   0  0  0  0  0  0  0  0  0  0  0  0
   -2.3663    1.5781   -0.2074 H   0  0  0  0  0  0  0  0  0  0  0  0
   -0.6438    1.6221   -0.7633 H   0  0  0  0  0  0  0  0  0  0  0  0
   -1.7121   -1.8708   -1.7011 H   0  0  0  0  0  0  0  0  0  0  0  0
   -1.0431   -0.3299   -2.3461 H   0  0  0  0  0  0  0  0  0  0  0  0
   -2.7802   -0.4174   -1.8423 H   0  0  0  0  0  0  0  0  0  0  0  0
    2.3111   -0.0627   -1.0450 H   0  0  0  0  0  0  0  0  0  0  0  0
    3.5826    0.2898    1.7160 H   0  0  0  0  0  0  0  0  0  0  0  0
    4.3835    0.4000    0.0440 H   0  0  0  0  0  0  0  0  0  0  0  0
   -0.0069   -0.5043    0.0548 H   0  0  0  0  0  0  0  0  0  0  0  0
   -1.6298   -0.7915    2.1024 H   0  0  0  0  0  0  0  0  0  0  0  0
  1  5  1  0
  1 19  1  0
  2  8  2  0
  3  5  1  0
  3  9  1  0
  3 10  1  0
  3 11  1  0
  4  5  1  0
  4 12  1  0
  4 13  1  0
  4 14  1  0
  6  7  2  3
  6  8  1  0
  6 15  1  0
  7 16  1  0
  7 17  1  0
  8 18  1  0
M  RAD  1   5   2
M  END
>  <reaction>  (17) 
rxn_1948

>  <mol_properties>  (17) 
{"1": {"label": "*1", "atom_type": "Cs"}, "2": {"label": "*0", "atom_type": "S2s"}, "7": {"label": "*2", "atom_type": "H0"}, "14": {"label": "*3", "atom_type": "CS"}, "15": {"label": "*4", "atom_type": "S2d"}}

>  <type>  (17) 
unop_13

>  <geom_source>  (17) 
AutoTST

$$$$
