
     RDKit          3D

 12 11  0  0  0  0  0  0  0  0999 V2000
    1.2394   -0.3763   -0.3020 C   0  0  0  0  0  0  0  0  0  0  0  0
    0.1007    0.3023    0.4464 C   0  0  0  0  0  0  0  0  0  0  0  0
   -0.1187    2.0399   -0.0725 S   0  0  0  0  0  0  0  0  0  0  0  0
   -1.1974   -0.4877    0.3552 C   0  0  0  0  0  0  0  0  0  0  0  0
    2.1681    0.1849   -0.2048 H   0  0  0  0  0  0  0  0  0  0  0  0
    1.0031   -0.4606   -1.3656 H   0  0  0  0  0  0  0  0  0  0  0  0
    1.3994   -1.3856    0.0860 H   0  0  0  0  0  0  0  0  0  0  0  0
    0.3796    0.4050    1.4981 H   0  0  0  0  0  0  0  0  0  0  0  0
   -0.4500    1.7779   -1.3452 H   0  0  0  0  0  0  0  0  0  0  0  0
   -1.0545   -1.4978    0.7479 H   0  0  0  0  0  0  0  0  0  0  0  0
   -1.5206   -0.5759   -0.6849 H   0  0  0  0  0  0  0  0  0  0  0  0
   -1.9957   -0.0054    0.9183 H   0  0  0  0  0  0  0  0  0  0  0  0
  1  2  1  0
  1  5  1  0
  1  6  1  0
  1  7  1  0
  2  4  1  0
  2  3  1  0
  2  8  1  0
  3  9  1  0
  4 10  1  0
  4 11  1  0
  4 12  1  0
M  END
>  <reaction>  (1) 
rxn_1908

>  <mol_properties>  (1) 
{"1": {"label": "donator", "atom_type": "Cs"}, "7": {"label": "d_hydrogen", "atom_type": "H0"}}

>  <type>  (1) 
r1h

$$$$

     RDKit          3D

  7  6  0  0  0  0  0  0  0  0999 V2000
   -0.6201    0.0189   -0.0017 C   0  0  0  0  0  0  0  0  0  0  0  0
    0.8589   -0.0553    0.0500 C   0  0  0  0  0  3  0  0  0  0  0  0
   -1.0738   -0.9730   -0.0559 H   0  0  0  0  0  0  0  0  0  0  0  0
   -0.9680    0.5706   -0.8872 H   0  0  0  0  0  0  0  0  0  0  0  0
   -1.0303    0.5369    0.8678 H   0  0  0  0  0  0  0  0  0  0  0  0
    1.3939   -0.8386   -0.4695 H   0  0  0  0  0  0  0  0  0  0  0  0
    1.4394    0.7404    0.4965 H   0  0  0  0  0  0  0  0  0  0  0  0
  1  2  1  0
  1  3  1  0
  1  4  1  0
  1  5  1  0
  2  6  1  0
  2  7  1  0
M  RAD  1   2   2
M  END
>  <reaction>  (2) 
rxn_1908

>  <mol_properties>  (2) 
{"1": {"label": "acceptor", "atom_type": "Cs"}}

>  <type>  (2) 
r2

$$$$

     RDKit          3D

  8  7  0  0  0  0  0  0  0  0999 V2000
    0.7610    0.0250    0.0051 C   0  0  0  0  0  0  0  0  0  0  0  0
   -0.7610   -0.0250   -0.0051 C   0  0  0  0  0  0  0  0  0  0  0  0
    1.1904   -0.9237   -0.3217 H   0  0  0  0  0  0  0  0  0  0  0  0
    1.1359    0.8041   -0.6609 H   0  0  0  0  0  0  0  0  0  0  0  0
    1.1435    0.2336    1.0058 H   0  0  0  0  0  0  0  0  0  0  0  0
   -1.1359   -0.8041    0.6609 H   0  0  0  0  0  0  0  0  0  0  0  0
   -1.1435   -0.2336   -1.0058 H   0  0  0  0  0  0  0  0  0  0  0  0
   -1.1904    0.9237    0.3217 H   0  0  0  0  0  0  0  0  0  0  0  0
  1  2  1  0
  1  3  1  0
  1  4  1  0
  1  5  1  0
  2  6  1  0
  2  7  1  0
  2  8  1  0
M  END
>  <reaction>  (3) 
rxn_1908

>  <mol_properties>  (3) 
{"0": {"label": "a_hydrogen", "atom_type": "H0"}, "2": {"label": "acceptor", "atom_type": "Cs"}}

>  <type>  (3) 
r2h

$$$$

     RDKit          3D

 19 17  0  0  0  0  0  0  0  0999 V2000
    0.6482    0.1136   -1.5901 C   0  0  0  0  0  0  0  0  0  0  0  0
    0.3938    0.5283   -0.1617 C   0  0  0  0  0  0  0  0  0  0  0  0
    1.7756    0.2431    0.9567 S   0  0  0  0  0  0  0  0  0  0  0  0
   -0.2741    1.8719   -0.0017 C   0  0  0  0  0  0  0  0  0  0  0  0
    1.0271   -0.9069   -1.6441 H   0  0  0  0  0  0  0  0  0  0  0  0
    1.3858    0.7712   -2.0634 H   0  0  0  0  0  0  0  0  0  0  0  0
   -0.2735    0.1768   -2.1749 H   0  0  0  0  0  0  0  0  0  0  0  0
   -0.4766   -0.3467    0.2997 H   0  0  0  0  0  0  0  0  0  0  0  0
    2.6172    1.1510    0.4334 H   0  0  0  0  0  0  0  0  0  0  0  0
   -1.1817    1.9208   -0.6093 H   0  0  0  0  0  0  0  0  0  0  0  0
    0.3885    2.6802   -0.3304 H   0  0  0  0  0  0  0  0  0  0  0  0
   -0.5395    2.0601    1.0387 H   0  0  0  0  0  0  0  0  0  0  0  0
   -2.6860   -0.8631   -0.1059 C   0  0  0  0  0  0  0  0  0  0  0  0
   -1.4616   -1.2179    0.6909 C   0  0  0  0  0  3  0  0  0  0  0  0
   -3.5253   -1.5251    0.1311 H   0  0  0  0  0  0  0  0  0  0  0  0
   -2.5006   -0.9485   -1.1788 H   0  0  0  0  0  0  0  0  0  0  0  0
   -3.0114    0.1586    0.0993 H   0  0  0  0  0  0  0  0  0  0  0  0
   -1.0228   -2.1881    0.4672 H   0  0  0  0  0  0  0  0  0  0  0  0
   -1.5311   -1.0377    1.7616 H   0  0  0  0  0  0  0  0  0  0  0  0
  1  2  1  0
  1  5  1  0
  1  6  1  0
  1  7  1  0
  2  4  1  0
  2  3  1  0
  2  8  1  0
  3  9  1  0
  4 10  1  0
  4 11  1  0
  4 12  1  0
 13 14  1  0
 13 15  1  0
 13 16  1  0
 13 17  1  0
 14 18  1  0
 14 19  1  0
M  RAD  1  14   2
M  END
>  <reaction>  (4) 
rxn_1908

>  <mol_properties>  (4) 
{"1": {"label": "*1", "atom_type": "Cs"}, "2": {"label": "*0", "atom_type": "S2s"}, "7": {"label": "*2", "atom_type": "H0"}, "12": {"label": "*4", "atom_type": "Cs"}, "13": {"label": "*3", "atom_type": "Cs"}}

>  <type>  (4) 
ts

$$$$

     RDKit          3D

 19 17  0  0  0  0  0  0  0  0999 V2000
    0.1180    0.6284   -1.9580 C   0  0  0  0  0  0  0  0  0  0  0  0
    0.1180    0.6284   -0.4357 C   0  0  0  0  0  3  0  0  0  0  0  0
    1.4730   -0.3881    0.2479 S   0  0  0  0  0  0  0  0  0  0  0  0
    0.1180    2.0383    0.1383 C   0  0  0  0  0  0  0  0  0  0  0  0
    0.0894   -0.3859   -2.3547 H   0  0  0  0  0  0  0  0  0  0  0  0
    1.0164    1.1181   -2.3416 H   0  0  0  0  0  0  0  0  0  0  0  0
   -0.7490    1.1758   -2.3368 H   0  0  0  0  0  0  0  0  0  0  0  0
   -0.9499   -0.0035   -0.0107 H   0  0  0  0  0  0  0  0  0  0  0  0
    2.4793    0.3474   -0.2468 H   0  0  0  0  0  0  0  0  0  0  0  0
   -0.7490    2.5956   -0.2258 H   0  0  0  0  0  0  0  0  0  0  0  0
    1.0164    2.5783   -0.1706 H   0  0  0  0  0  0  0  0  0  0  0  0
    0.0894    2.0233    1.2273 H   0  0  0  0  0  0  0  0  0  0  0  0
   -1.6422   -1.8412    1.2639 C   0  0  0  0  0  0  0  0  0  0  0  0
   -2.0162   -0.6345    0.4137 C   0  0  0  0  0  0  0  0  0  0  0  0
   -2.3109   -1.9446    2.1203 H   0  0  0  0  0  0  0  0  0  0  0  0
   -0.6243   -1.7545    1.6481 H   0  0  0  0  0  0  0  0  0  0  0  0
   -1.6998   -2.7655    0.6864 H   0  0  0  0  0  0  0  0  0  0  0  0
   -1.9587    0.2898    0.9912 H   0  0  0  0  0  0  0  0  0  0  0  0
   -3.0341   -0.7211    0.0295 H   0  0  0  0  0  0  0  0  0  0  0  0
  1  2  1  0
  1  5  1  0
  1  6  1  0
  1  7  1  0
  2  4  1  0
  2  3  1  0
  3  9  1  0
  4 10  1  0
  4 11  1  0
  4 12  1  0
  8 14  1  0
 13 14  1  0
 13 15  1  0
 13 16  1  0
 13 17  1  0
 14 18  1  0
 14 19  1  0
M  RAD  1   2   2
M  END
>  <reaction>  (5) 
rxn_1908

>  <mol_properties>  (5) 
{"1": {"label": "*1", "atom_type": "Cs"}, "2": {"label": "*0", "atom_type": "S2s"}, "7": {"label": "*2", "atom_type": "H0"}, "12": {"label": "*4", "atom_type": "Cs"}, "13": {"label": "*3", "atom_type": "Cs"}}

>  <type>  (5) 
unop_1

>  <geom_source>  (5) 
Heuristics

$$$$

     RDKit          3D

 19 17  0  0  0  0  0  0  0  0999 V2000
    0.2331    0.6161   -1.6921 C   0  0  0  0  0  0  0  0  0  0  0  0
    0.2331    0.6161   -0.1698 C   0  0  0  0  0  3  0  0  0  0  0  0
    1.5881   -0.4003    0.5138 S   0  0  0  0  0  0  0  0  0  0  0  0
    0.2331    2.0261    0.4042 C   0  0  0  0  0  0  0  0  0  0  0  0
    0.2045   -0.3981   -2.0888 H   0  0  0  0  0  0  0  0  0  0  0  0
    1.1315    1.1059   -2.0757 H   0  0  0  0  0  0  0  0  0  0  0  0
   -0.6339    1.1636   -2.0709 H   0  0  0  0  0  0  0  0  0  0  0  0
   -0.8348   -0.0157    0.2552 H   0  0  0  0  0  0  0  0  0  0  0  0
    2.5944    0.3352    0.0191 H   0  0  0  0  0  0  0  0  0  0  0  0
   -0.6339    2.5834    0.0401 H   0  0  0  0  0  0  0  0  0  0  0  0
    1.1315    2.5660    0.0953 H   0  0  0  0  0  0  0  0  0  0  0  0
    0.2045    2.0110    1.4932 H   0  0  0  0  0  0  0  0  0  0  0  0
   -2.3322   -1.7262   -0.3042 C   0  0  0  0  0  0  0  0  0  0  0  0
   -1.9011   -0.6467    0.6796 C   0  0  0  0  0  0  0  0  0  0  0  0
   -2.9998   -2.4488    0.1686 H   0  0  0  0  0  0  0  0  0  0  0  0
   -1.4721   -2.2752   -0.6914 H   0  0  0  0  0  0  0  0  0  0  0  0
   -2.8610   -1.2965   -1.1568 H   0  0  0  0  0  0  0  0  0  0  0  0
   -1.3724   -1.0764    1.5322 H   0  0  0  0  0  0  0  0  0  0  0  0
   -2.7613   -0.0977    1.0668 H   0  0  0  0  0  0  0  0  0  0  0  0
  1  2  1  0
  1  5  1  0
  1  6  1  0
  1  7  1  0
  2  4  1  0
  2  3  1  0
  3  9  1  0
  4 10  1  0
  4 11  1  0
  4 12  1  0
  8 14  1  0
 13 14  1  0
 13 15  1  0
 13 16  1  0
 13 17  1  0
 14 18  1  0
 14 19  1  0
M  RAD  1   2   2
M  END
>  <reaction>  (6) 
rxn_1908

>  <mol_properties>  (6) 
{"1": {"label": "*1", "atom_type": "Cs"}, "2": {"label": "*0", "atom_type": "S2s"}, "7": {"label": "*2", "atom_type": "H0"}, "12": {"label": "*4", "atom_type": "Cs"}, "13": {"label": "*3", "atom_type": "Cs"}}

>  <type>  (6) 
unop_2

>  <geom_source>  (6) 
Heuristics

$$$$

     RDKit          3D

 19 17  0  0  0  0  0  0  0  0999 V2000
    0.1375    0.5519   -2.0257 C   0  0  0  0  0  0  0  0  0  0  0  0
    0.1375    0.5519   -0.5034 C   0  0  0  0  0  3  0  0  0  0  0  0
    1.4925   -0.4645    0.1803 S   0  0  0  0  0  0  0  0  0  0  0  0
    0.1375    1.9619    0.0707 C   0  0  0  0  0  0  0  0  0  0  0  0
    0.1089   -0.4623   -2.4224 H   0  0  0  0  0  0  0  0  0  0  0  0
    1.0359    1.0417   -2.4093 H   0  0  0  0  0  0  0  0  0  0  0  0
   -0.7295    1.0994   -2.4045 H   0  0  0  0  0  0  0  0  0  0  0  0
   -0.9304   -0.0799   -0.0784 H   0  0  0  0  0  0  0  0  0  0  0  0
    2.4988    0.2710   -0.3144 H   0  0  0  0  0  0  0  0  0  0  0  0
   -0.7295    2.5192   -0.2935 H   0  0  0  0  0  0  0  0  0  0  0  0
    1.0359    2.5019   -0.2382 H   0  0  0  0  0  0  0  0  0  0  0  0
    0.1089    1.9468    1.1596 H   0  0  0  0  0  0  0  0  0  0  0  0
   -1.7424   -1.3849    1.6876 C   0  0  0  0  0  0  0  0  0  0  0  0
   -1.9967   -0.7109    0.3460 C   0  0  0  0  0  0  0  0  0  0  0  0
   -2.6604   -1.4604    2.2731 H   0  0  0  0  0  0  0  0  0  0  0  0
   -1.0174   -0.8248    2.2809 H   0  0  0  0  0  0  0  0  0  0  0  0
   -1.3509   -2.3951    1.5553 H   0  0  0  0  0  0  0  0  0  0  0  0
   -2.3882    0.2993    0.4784 H   0  0  0  0  0  0  0  0  0  0  0  0
   -2.7217   -1.2710   -0.2472 H   0  0  0  0  0  0  0  0  0  0  0  0
  1  2  1  0
  1  5  1  0
  1  6  1  0
  1  7  1  0
  2  4  1  0
  2  3  1  0
  3  9  1  0
  4 10  1  0
  4 11  1  0
  4 12  1  0
  8 14  1  0
 13 14  1  0
 13 15  1  0
 13 16  1  0
 13 17  1  0
 14 18  1  0
 14 19  1  0
M  RAD  1   2   2
M  END
>  <reaction>  (7) 
rxn_1908

>  <mol_properties>  (7) 
{"1": {"label": "*1", "atom_type": "Cs"}, "2": {"label": "*0", "atom_type": "S2s"}, "7": {"label": "*2", "atom_type": "H0"}, "12": {"label": "*4", "atom_type": "Cs"}, "13": {"label": "*3", "atom_type": "Cs"}}

>  <type>  (7) 
unop_3

>  <geom_source>  (7) 
Heuristics

$$$$

     RDKit          3D

 19 17  0  0  0  0  0  0  0  0999 V2000
    0.3549    0.3595   -1.7648 C   0  0  0  0  0  0  0  0  0  0  0  0
    0.3549    0.3595   -0.2424 C   0  0  0  0  0  3  0  0  0  0  0  0
    1.7100   -0.6569    0.4412 S   0  0  0  0  0  0  0  0  0  0  0  0
    0.3549    1.7695    0.3316 C   0  0  0  0  0  0  0  0  0  0  0  0
    0.3263   -0.6547   -2.1614 H   0  0  0  0  0  0  0  0  0  0  0  0
    1.2534    0.8492   -2.1484 H   0  0  0  0  0  0  0  0  0  0  0  0
   -0.5120    0.9069   -2.1436 H   0  0  0  0  0  0  0  0  0  0  0  0
   -0.7130   -0.2724    0.1825 H   0  0  0  0  0  0  0  0  0  0  0  0
    2.7162    0.0786   -0.0535 H   0  0  0  0  0  0  0  0  0  0  0  0
   -0.5120    2.3267   -0.0326 H   0  0  0  0  0  0  0  0  0  0  0  0
    1.2534    2.3094    0.0227 H   0  0  0  0  0  0  0  0  0  0  0  0
    0.3263    1.7544    1.4206 H   0  0  0  0  0  0  0  0  0  0  0  0
   -3.0527   -0.2288    0.1146 C   0  0  0  0  0  0  0  0  0  0  0  0
   -1.7793   -0.9033    0.6069 C   0  0  0  0  0  0  0  0  0  0  0  0
   -3.8651   -0.3436    0.8344 H   0  0  0  0  0  0  0  0  0  0  0  0
   -3.3870   -0.6571   -0.8320 H   0  0  0  0  0  0  0  0  0  0  0  0
   -2.8991    0.8403   -0.0425 H   0  0  0  0  0  0  0  0  0  0  0  0
   -1.9330   -1.9724    0.7640 H   0  0  0  0  0  0  0  0  0  0  0  0
   -1.4450   -0.4751    1.5535 H   0  0  0  0  0  0  0  0  0  0  0  0
  1  2  1  0
  1  5  1  0
  1  6  1  0
  1  7  1  0
  2  4  1  0
  2  3  1  0
  3  9  1  0
  4 10  1  0
  4 11  1  0
  4 12  1  0
  8 14  1  0
 13 14  1  0
 13 15  1  0
 13 16  1  0
 13 17  1  0
 14 18  1  0
 14 19  1  0
M  RAD  1   2   2
M  END
>  <reaction>  (8) 
rxn_1908

>  <mol_properties>  (8) 
{"1": {"label": "*1", "atom_type": "Cs"}, "2": {"label": "*0", "atom_type": "S2s"}, "7": {"label": "*2", "atom_type": "H0"}, "12": {"label": "*4", "atom_type": "Cs"}, "13": {"label": "*3", "atom_type": "Cs"}}

>  <type>  (8) 
unop_4

>  <geom_source>  (8) 
Heuristics

$$$$

     RDKit          3D

 19 17  0  0  0  0  0  0  0  0999 V2000
    0.1813    0.4645   -2.0492 C   0  0  0  0  0  0  0  0  0  0  0  0
    0.1813    0.4645   -0.5269 C   0  0  0  0  0  3  0  0  0  0  0  0
    1.5363   -0.5520    0.1568 S   0  0  0  0  0  0  0  0  0  0  0  0
    0.1813    1.8744    0.0472 C   0  0  0  0  0  0  0  0  0  0  0  0
    0.1527   -0.5498   -2.4459 H   0  0  0  0  0  0  0  0  0  0  0  0
    1.0797    0.9542   -2.4328 H   0  0  0  0  0  0  0  0  0  0  0  0
   -0.6857    1.0119   -2.4280 H   0  0  0  0  0  0  0  0  0  0  0  0
   -0.8866   -0.1674   -0.1019 H   0  0  0  0  0  0  0  0  0  0  0  0
    2.5426    0.1835   -0.3379 H   0  0  0  0  0  0  0  0  0  0  0  0
   -0.6857    2.4317   -0.3170 H   0  0  0  0  0  0  0  0  0  0  0  0
    1.0797    2.4144   -0.2617 H   0  0  0  0  0  0  0  0  0  0  0  0
    0.1527    1.8593    1.1361 H   0  0  0  0  0  0  0  0  0  0  0  0
   -2.0069   -0.8303    1.8440 C   0  0  0  0  0  0  0  0  0  0  0  0
   -1.9529   -0.7984    0.3225 C   0  0  0  0  0  0  0  0  0  0  0  0
   -2.8955   -1.3561    2.1976 H   0  0  0  0  0  0  0  0  0  0  0  0
   -2.0322    0.1782    2.2605 H   0  0  0  0  0  0  0  0  0  0  0  0
   -1.1351   -1.3379    2.2605 H   0  0  0  0  0  0  0  0  0  0  0  0
   -2.8248   -0.2908   -0.0940 H   0  0  0  0  0  0  0  0  0  0  0  0
   -1.9277   -1.8069   -0.0940 H   0  0  0  0  0  0  0  0  0  0  0  0
  1  2  1  0
  1  5  1  0
  1  6  1  0
  1  7  1  0
  2  4  1  0
  2  3  1  0
  3  9  1  0
  4 10  1  0
  4 11  1  0
  4 12  1  0
  8 14  1  0
 13 14  1  0
 13 15  1  0
 13 16  1  0
 13 17  1  0
 14 18  1  0
 14 19  1  0
M  RAD  1   2   2
M  END
>  <reaction>  (9) 
rxn_1908

>  <mol_properties>  (9) 
{"1": {"label": "*1", "atom_type": "Cs"}, "2": {"label": "*0", "atom_type": "S2s"}, "7": {"label": "*2", "atom_type": "H0"}, "12": {"label": "*4", "atom_type": "Cs"}, "13": {"label": "*3", "atom_type": "Cs"}}

>  <type>  (9) 
unop_5

>  <geom_source>  (9) 
Heuristics

$$$$

     RDKit          3D

 19 17  0  0  0  0  0  0  0  0999 V2000
    0.3382    0.3206   -1.8624 C   0  0  0  0  0  0  0  0  0  0  0  0
    0.3382    0.3206   -0.3401 C   0  0  0  0  0  3  0  0  0  0  0  0
    1.6932   -0.6958    0.3435 S   0  0  0  0  0  0  0  0  0  0  0  0
    0.3382    1.7306    0.2340 C   0  0  0  0  0  0  0  0  0  0  0  0
    0.3096   -0.6936   -2.2591 H   0  0  0  0  0  0  0  0  0  0  0  0
    1.2366    0.8103   -2.2460 H   0  0  0  0  0  0  0  0  0  0  0  0
   -0.5287    0.8680   -2.2412 H   0  0  0  0  0  0  0  0  0  0  0  0
   -0.7297   -0.3113    0.0849 H   0  0  0  0  0  0  0  0  0  0  0  0
    2.6995    0.0397   -0.1511 H   0  0  0  0  0  0  0  0  0  0  0  0
   -0.5287    2.2878   -0.1302 H   0  0  0  0  0  0  0  0  0  0  0  0
    1.2366    2.2705   -0.0750 H   0  0  0  0  0  0  0  0  0  0  0  0
    0.3096    1.7155    1.3229 H   0  0  0  0  0  0  0  0  0  0  0  0
   -2.9684    0.0130    0.6882 C   0  0  0  0  0  0  0  0  0  0  0  0
   -1.7960   -0.9422    0.5093 C   0  0  0  0  0  0  0  0  0  0  0  0
   -3.5450   -0.2311    1.5822 H   0  0  0  0  0  0  0  0  0  0  0  0
   -3.6477   -0.0298   -0.1650 H   0  0  0  0  0  0  0  0  0  0  0  0
   -2.6267    1.0448    0.7871 H   0  0  0  0  0  0  0  0  0  0  0  0
   -2.1377   -1.9741    0.4104 H   0  0  0  0  0  0  0  0  0  0  0  0
   -1.1167   -0.8995    1.3625 H   0  0  0  0  0  0  0  0  0  0  0  0
  1  2  1  0
  1  5  1  0
  1  6  1  0
  1  7  1  0
  2  4  1  0
  2  3  1  0
  3  9  1  0
  4 10  1  0
  4 11  1  0
  4 12  1  0
  8 14  1  0
 13 14  1  0
 13 15  1  0
 13 16  1  0
 13 17  1  0
 14 18  1  0
 14 19  1  0
M  RAD  1   2   2
M  END
>  <reaction>  (10) 
rxn_1908

>  <mol_properties>  (10) 
{"1": {"label": "*1", "atom_type": "Cs"}, "2": {"label": "*0", "atom_type": "S2s"}, "7": {"label": "*2", "atom_type": "H0"}, "12": {"label": "*4", "atom_type": "Cs"}, "13": {"label": "*3", "atom_type": "Cs"}}

>  <type>  (10) 
unop_6

>  <geom_source>  (10) 
Heuristics

$$$$

     RDKit          3D

 19 17  0  0  0  0  0  0  0  0999 V2000
    0.2945    0.3301   -1.9580 C   0  0  0  0  0  0  0  0  0  0  0  0
    0.2945    0.3301   -0.4357 C   0  0  0  0  0  3  0  0  0  0  0  0
    1.6495   -0.6864    0.2479 S   0  0  0  0  0  0  0  0  0  0  0  0
    0.2945    1.7400    0.1383 C   0  0  0  0  0  0  0  0  0  0  0  0
    0.2659   -0.6842   -2.3547 H   0  0  0  0  0  0  0  0  0  0  0  0
    1.1929    0.8198   -2.3416 H   0  0  0  0  0  0  0  0  0  0  0  0
   -0.5725    0.8775   -2.3368 H   0  0  0  0  0  0  0  0  0  0  0  0
   -0.7734   -0.3018   -0.0107 H   0  0  0  0  0  0  0  0  0  0  0  0
    2.6558    0.0491   -0.2468 H   0  0  0  0  0  0  0  0  0  0  0  0
   -0.5725    2.2973   -0.2258 H   0  0  0  0  0  0  0  0  0  0  0  0
    1.1929    2.2800   -0.1706 H   0  0  0  0  0  0  0  0  0  0  0  0
    0.2659    1.7250    1.2273 H   0  0  0  0  0  0  0  0  0  0  0  0
   -2.7174   -0.0241    1.2639 C   0  0  0  0  0  0  0  0  0  0  0  0
   -1.8397   -0.9328    0.4137 C   0  0  0  0  0  0  0  0  0  0  0  0
   -3.1299   -0.5604    2.1203 H   0  0  0  0  0  0  0  0  0  0  0  0
   -3.5553    0.3704    0.6864 H   0  0  0  0  0  0  0  0  0  0  0  0
   -2.1515    0.8264    1.6481 H   0  0  0  0  0  0  0  0  0  0  0  0
   -2.4057   -1.7833    0.0295 H   0  0  0  0  0  0  0  0  0  0  0  0
   -1.0018   -1.3273    0.9912 H   0  0  0  0  0  0  0  0  0  0  0  0
  1  2  1  0
  1  5  1  0
  1  6  1  0
  1  7  1  0
  2  4  1  0
  2  3  1  0
  3  9  1  0
  4 10  1  0
  4 11  1  0
  4 12  1  0
  8 14  1  0
 13 14  1  0
 13 15  1  0
 13 16  1  0
 13 17  1  0
 14 18  1  0
 14 19  1  0
M  RAD  1   2   2
M  END
>  <reaction>  (11) 
rxn_1908

>  <mol_properties>  (11) 
{"1": {"label": "*1", "atom_type": "Cs"}, "2": {"label": "*0", "atom_type": "S2s"}, "7": {"label": "*2", "atom_type": "H0"}, "12": {"label": "*4", "atom_type": "Cs"}, "13": {"label": "*3", "atom_type": "Cs"}}

>  <type>  (11) 
unop_7

>  <geom_source>  (11) 
Heuristics

$$$$

     RDKit          3D

 19 17  0  0  0  0  0  0  0  0999 V2000
    0.1308    0.6712   -1.8624 C   0  0  0  0  0  0  0  0  0  0  0  0
    0.1308    0.6712   -0.3401 C   0  0  0  0  0  3  0  0  0  0  0  0
    1.4858   -0.3452    0.3435 S   0  0  0  0  0  0  0  0  0  0  0  0
    0.1308    2.0812    0.2340 C   0  0  0  0  0  0  0  0  0  0  0  0
    0.1022   -0.3430   -2.2591 H   0  0  0  0  0  0  0  0  0  0  0  0
    1.0292    1.1610   -2.2460 H   0  0  0  0  0  0  0  0  0  0  0  0
   -0.7362    1.2187   -2.2412 H   0  0  0  0  0  0  0  0  0  0  0  0
   -0.9371    0.0394    0.0849 H   0  0  0  0  0  0  0  0  0  0  0  0
    2.4920    0.3903   -0.1511 H   0  0  0  0  0  0  0  0  0  0  0  0
   -0.7362    2.6385   -0.1302 H   0  0  0  0  0  0  0  0  0  0  0  0
    1.0292    2.6212   -0.0750 H   0  0  0  0  0  0  0  0  0  0  0  0
    0.1022    2.0661    1.3229 H   0  0  0  0  0  0  0  0  0  0  0  0
   -1.7305   -2.0790    0.6882 C   0  0  0  0  0  0  0  0  0  0  0  0
   -2.0035   -0.5916    0.5093 C   0  0  0  0  0  0  0  0  0  0  0  0
   -2.2221   -2.4669    1.5822 H   0  0  0  0  0  0  0  0  0  0  0  0
   -0.6616   -2.2762    0.7871 H   0  0  0  0  0  0  0  0  0  0  0  0
   -2.0950   -2.6538   -0.1650 H   0  0  0  0  0  0  0  0  0  0  0  0
   -1.6390   -0.0168    1.3625 H   0  0  0  0  0  0  0  0  0  0  0  0
   -3.0724   -0.3944    0.4104 H   0  0  0  0  0  0  0  0  0  0  0  0
  1  2  1  0
  1  5  1  0
  1  6  1  0
  1  7  1  0
  2  4  1  0
  2  3  1  0
  3  9  1  0
  4 10  1  0
  4 11  1  0
  4 12  1  0
  8 14  1  0
 13 14  1  0
 13 15  1  0
 13 16  1  0
 13 17  1  0
 14 18  1  0
 14 19  1  0
M  RAD  1   2   2
M  END
>  <reaction>  (12) 
rxn_1908

>  <mol_properties>  (12) 
{"1": {"label": "*1", "atom_type": "Cs"}, "2": {"label": "*0", "atom_type": "S2s"}, "7": {"label": "*2", "atom_type": "H0"}, "12": {"label": "*4", "atom_type": "Cs"}, "13": {"label": "*3", "atom_type": "Cs"}}

>  <type>  (12) 
unop_8

>  <geom_source>  (12) 
Heuristics

$$$$

     RDKit          3D

 19 17  0  0  0  0  0  0  0  0999 V2000
    0.3392    0.4369   -1.6921 C   0  0  0  0  0  0  0  0  0  0  0  0
    0.3392    0.4369   -0.1698 C   0  0  0  0  0  3  0  0  0  0  0  0
    1.6942   -0.5796    0.5138 S   0  0  0  0  0  0  0  0  0  0  0  0
    0.3392    1.8468    0.4042 C   0  0  0  0  0  0  0  0  0  0  0  0
    0.3106   -0.5774   -2.0888 H   0  0  0  0  0  0  0  0  0  0  0  0
    1.2376    0.9266   -2.0757 H   0  0  0  0  0  0  0  0  0  0  0  0
   -0.5278    0.9843   -2.0709 H   0  0  0  0  0  0  0  0  0  0  0  0
   -0.7287   -0.1950    0.2552 H   0  0  0  0  0  0  0  0  0  0  0  0
    2.7005    0.1559    0.0191 H   0  0  0  0  0  0  0  0  0  0  0  0
   -0.5278    2.4041    0.0401 H   0  0  0  0  0  0  0  0  0  0  0  0
    1.2376    2.3868    0.0953 H   0  0  0  0  0  0  0  0  0  0  0  0
    0.3106    1.8317    1.4932 H   0  0  0  0  0  0  0  0  0  0  0  0
   -2.9488   -0.6842   -0.3042 C   0  0  0  0  0  0  0  0  0  0  0  0
   -1.7951   -0.8260    0.6796 C   0  0  0  0  0  0  0  0  0  0  0  0
   -3.9035   -0.9215    0.1686 H   0  0  0  0  0  0  0  0  0  0  0  0
   -2.8267   -1.3545   -1.1568 H   0  0  0  0  0  0  0  0  0  0  0  0
   -3.0160    0.3340   -0.6914 H   0  0  0  0  0  0  0  0  0  0  0  0
   -1.7279   -1.8442    1.0668 H   0  0  0  0  0  0  0  0  0  0  0  0
   -1.9172   -0.1557    1.5322 H   0  0  0  0  0  0  0  0  0  0  0  0
  1  2  1  0
  1  5  1  0
  1  6  1  0
  1  7  1  0
  2  4  1  0
  2  3  1  0
  3  9  1  0
  4 10  1  0
  4 11  1  0
  4 12  1  0
  8 14  1  0
 13 14  1  0
 13 15  1  0
 13 16  1  0
 13 17  1  0
 14 18  1  0
 14 19  1  0
M  RAD  1   2   2
M  END
>  <reaction>  (13) 
rxn_1908

>  <mol_properties>  (13) 
{"1": {"label": "*1", "atom_type": "Cs"}, "2": {"label": "*0", "atom_type": "S2s"}, "7": {"label": "*2", "atom_type": "H0"}, "12": {"label": "*4", "atom_type": "Cs"}, "13": {"label": "*3", "atom_type": "Cs"}}

>  <type>  (13) 
unop_9

>  <geom_source>  (13) 
Heuristics

$$$$

     RDKit          3D

 19 17  0  0  0  0  0  0  0  0999 V2000
    0.1729    0.6672   -1.7648 C   0  0  0  0  0  0  0  0  0  0  0  0
    0.1729    0.6672   -0.2424 C   0  0  0  0  0  3  0  0  0  0  0  0
    1.5279   -0.3493    0.4412 S   0  0  0  0  0  0  0  0  0  0  0  0
    0.1729    2.0771    0.3316 C   0  0  0  0  0  0  0  0  0  0  0  0
    0.1443   -0.3471   -2.1614 H   0  0  0  0  0  0  0  0  0  0  0  0
    1.0713    1.1569   -2.1484 H   0  0  0  0  0  0  0  0  0  0  0  0
   -0.6941    1.2146   -2.1436 H   0  0  0  0  0  0  0  0  0  0  0  0
   -0.8950    0.0353    0.1825 H   0  0  0  0  0  0  0  0  0  0  0  0
    2.5342    0.3862   -0.0535 H   0  0  0  0  0  0  0  0  0  0  0  0
   -0.6941    2.6344   -0.0326 H   0  0  0  0  0  0  0  0  0  0  0  0
    1.0713    2.6171    0.0227 H   0  0  0  0  0  0  0  0  0  0  0  0
    0.1443    2.0621    1.4206 H   0  0  0  0  0  0  0  0  0  0  0  0
   -1.9831   -2.0365    0.1146 C   0  0  0  0  0  0  0  0  0  0  0  0
   -1.9614   -0.5957    0.6069 C   0  0  0  0  0  0  0  0  0  0  0  0
   -2.4747   -2.6934    0.8344 H   0  0  0  0  0  0  0  0  0  0  0  0
   -0.9720   -2.4165   -0.0425 H   0  0  0  0  0  0  0  0  0  0  0  0
   -2.5194   -2.1234   -0.8320 H   0  0  0  0  0  0  0  0  0  0  0  0
   -1.4250   -0.5088    1.5535 H   0  0  0  0  0  0  0  0  0  0  0  0
   -2.9724   -0.2158    0.7640 H   0  0  0  0  0  0  0  0  0  0  0  0
  1  2  1  0
  1  5  1  0
  1  6  1  0
  1  7  1  0
  2  4  1  0
  2  3  1  0
  3  9  1  0
  4 10  1  0
  4 11  1  0
  4 12  1  0
  8 14  1  0
 13 14  1  0
 13 15  1  0
 13 16  1  0
 13 17  1  0
 14 18  1  0
 14 19  1  0
M  RAD  1   2   2
M  END
>  <reaction>  (14) 
rxn_1908

>  <mol_properties>  (14) 
{"1": {"label": "*1", "atom_type": "Cs"}, "2": {"label": "*0", "atom_type": "S2s"}, "7": {"label": "*2", "atom_type": "H0"}, "12": {"label": "*4", "atom_type": "Cs"}, "13": {"label": "*3", "atom_type": "Cs"}}

>  <type>  (14) 
unop_10

>  <geom_source>  (14) 
Heuristics

$$$$

     RDKit          3D

 19 17  0  0  0  0  0  0  0  0999 V2000
    0.2369    0.3840   -2.0257 C   0  0  0  0  0  0  0  0  0  0  0  0
    0.2369    0.3840   -0.5034 C   0  0  0  0  0  3  0  0  0  0  0  0
    1.5919   -0.6325    0.1803 S   0  0  0  0  0  0  0  0  0  0  0  0
    0.2369    1.7939    0.0707 C   0  0  0  0  0  0  0  0  0  0  0  0
    0.2083   -0.6303   -2.4224 H   0  0  0  0  0  0  0  0  0  0  0  0
    1.1353    0.8737   -2.4093 H   0  0  0  0  0  0  0  0  0  0  0  0
   -0.6301    0.9314   -2.4045 H   0  0  0  0  0  0  0  0  0  0  0  0
   -0.8310   -0.2479   -0.0784 H   0  0  0  0  0  0  0  0  0  0  0  0
    2.5982    0.1030   -0.3144 H   0  0  0  0  0  0  0  0  0  0  0  0
   -0.6301    2.3512   -0.2935 H   0  0  0  0  0  0  0  0  0  0  0  0
    1.1353    2.3339   -0.2382 H   0  0  0  0  0  0  0  0  0  0  0  0
    0.2083    1.7788    1.1596 H   0  0  0  0  0  0  0  0  0  0  0  0
   -2.3657   -0.3315    1.6876 C   0  0  0  0  0  0  0  0  0  0  0  0
   -1.8973   -0.8789    0.3460 C   0  0  0  0  0  0  0  0  0  0  0  0
   -2.8737   -1.0999    2.2731 H   0  0  0  0  0  0  0  0  0  0  0  0
   -3.0627    0.4978    1.5553 H   0  0  0  0  0  0  0  0  0  0  0  0
   -1.5257    0.0343    2.2809 H   0  0  0  0  0  0  0  0  0  0  0  0
   -2.7373   -1.2447   -0.2472 H   0  0  0  0  0  0  0  0  0  0  0  0
   -1.2003   -1.7083    0.4784 H   0  0  0  0  0  0  0  0  0  0  0  0
  1  2  1  0
  1  5  1  0
  1  6  1  0
  1  7  1  0
  2  4  1  0
  2  3  1  0
  3  9  1  0
  4 10  1  0
  4 11  1  0
  4 12  1  0
  8 14  1  0
 13 14  1  0
 13 15  1  0
 13 16  1  0
 13 17  1  0
 14 18  1  0
 14 19  1  0
M  RAD  1   2   2
M  END
>  <reaction>  (15) 
rxn_1908

>  <mol_properties>  (15) 
{"1": {"label": "*1", "atom_type": "Cs"}, "2": {"label": "*0", "atom_type": "S2s"}, "7": {"label": "*2", "atom_type": "H0"}, "12": {"label": "*4", "atom_type": "Cs"}, "13": {"label": "*3", "atom_type": "Cs"}}

>  <type>  (15) 
unop_11

>  <geom_source>  (15) 
Heuristics

$$$$

     RDKit          3D

 19 17  0  0  0  0  0  0  0  0999 V2000
    0.2945    0.5314   -1.6653 C   0  0  0  0  0  0  0  0  0  0  0  0
    0.2945    0.5314   -0.1429 C   0  0  0  0  0  3  0  0  0  0  0  0
    1.6495   -0.4850    0.5407 S   0  0  0  0  0  0  0  0  0  0  0  0
    0.2945    1.9414    0.4311 C   0  0  0  0  0  0  0  0  0  0  0  0
    0.2659   -0.4828   -2.0619 H   0  0  0  0  0  0  0  0  0  0  0  0
    1.1929    1.0211   -2.0489 H   0  0  0  0  0  0  0  0  0  0  0  0
   -0.5725    1.0788   -2.0441 H   0  0  0  0  0  0  0  0  0  0  0  0
   -0.7734   -0.1005    0.2820 H   0  0  0  0  0  0  0  0  0  0  0  0
    2.6558    0.2505    0.0460 H   0  0  0  0  0  0  0  0  0  0  0  0
   -0.5725    2.4986    0.0669 H   0  0  0  0  0  0  0  0  0  0  0  0
    1.1929    2.4813    0.1222 H   0  0  0  0  0  0  0  0  0  0  0  0
    0.2659    1.9263    1.5200 H   0  0  0  0  0  0  0  0  0  0  0  0
   -2.6852   -1.2317   -0.4572 C   0  0  0  0  0  0  0  0  0  0  0  0
   -1.8398   -0.7314    0.7064 C   0  0  0  0  0  0  0  0  0  0  0  0
   -3.5738   -1.7575   -0.1035 H   0  0  0  0  0  0  0  0  0  0  0  0
   -2.1220   -1.9219   -1.0877 H   0  0  0  0  0  0  0  0  0  0  0  0
   -3.0191   -0.4058   -1.0877 H   0  0  0  0  0  0  0  0  0  0  0  0
   -1.5059   -1.5574    1.3370 H   0  0  0  0  0  0  0  0  0  0  0  0
   -2.4030   -0.0412    1.3370 H   0  0  0  0  0  0  0  0  0  0  0  0
  1  2  1  0
  1  5  1  0
  1  6  1  0
  1  7  1  0
  2  4  1  0
  2  3  1  0
  3  9  1  0
  4 10  1  0
  4 11  1  0
  4 12  1  0
  8 14  1  0
 13 14  1  0
 13 15  1  0
 13 16  1  0
 13 17  1  0
 14 18  1  0
 14 19  1  0
M  RAD  1   2   2
M  END
>  <reaction>  (16) 
rxn_1908

>  <mol_properties>  (16) 
{"1": {"label": "*1", "atom_type": "Cs"}, "2": {"label": "*0", "atom_type": "S2s"}, "7": {"label": "*2", "atom_type": "H0"}, "12": {"label": "*4", "atom_type": "Cs"}, "13": {"label": "*3", "atom_type": "Cs"}}

>  <type>  (16) 
unop_12

>  <geom_source>  (16) 
Heuristics

$$$$

     RDKit          3D

 19 17  0  0  0  0  0  0  0  0999 V2000
   -1.0117    1.6281   -1.5191 S   0  0  0  0  0  0  0  0  0  0  0  0
    1.3769   -0.4133    0.6153 C   0  0  0  0  0  0  0  0  0  0  0  0
    2.6598   -0.2185   -0.1732 C   0  0  0  0  0  0  0  0  0  0  0  0
   -1.5281   -0.9973   -0.8839 C   0  0  0  0  0  0  0  0  0  0  0  0
   -1.7037    0.6934    0.9798 C   0  0  0  0  0  0  0  0  0  0  0  0
   -0.9570    0.2858   -0.2880 C   0  0  0  0  0  3  0  0  0  0  0  0
    1.3708    0.2608    1.4977 H   0  0  0  0  0  0  0  0  0  0  0  0
    1.3027   -1.4661    0.9604 H   0  0  0  0  0  0  0  0  0  0  0  0
    0.3720   -0.1428   -0.1264 H   0  0  0  0  0  0  0  0  0  0  0  0
    2.7308    0.8341   -0.5188 H   0  0  0  0  0  0  0  0  0  0  0  0
    2.6627   -0.8918   -1.0558 H   0  0  0  0  0  0  0  0  0  0  0  0
    3.5358   -0.4524    0.4676 H   0  0  0  0  0  0  0  0  0  0  0  0
   -0.9446   -1.2832   -1.7840 H   0  0  0  0  0  0  0  0  0  0  0  0
   -1.4557   -1.8235   -0.1455 H   0  0  0  0  0  0  0  0  0  0  0  0
   -2.5922   -0.8558   -1.1708 H   0  0  0  0  0  0  0  0  0  0  0  0
   -2.7717    0.9011    0.7546 H   0  0  0  0  0  0  0  0  0  0  0  0
   -1.2404    1.6047    1.4123 H   0  0  0  0  0  0  0  0  0  0  0  0
   -1.6412   -0.1187    1.7345 H   0  0  0  0  0  0  0  0  0  0  0  0
   -0.1653    2.4553   -0.7568 H   0  0  0  0  0  0  0  0  0  0  0  0
  1  6  1  0
  1 19  1  0
  2  3  1  0
  2  7  1  0
  2  8  1  0
  2  9  1  0
  3 10  1  0
  3 11  1  0
  3 12  1  0
  4  6  1  0
  4 13  1  0
  4 14  1  0
  4 15  1  0
  5  6  1  0
  5 16  1  0
  5 17  1  0
  5 18  1  0
M  RAD  1   6   2
M  END
>  <reaction>  (17) 
rxn_1908

>  <mol_properties>  (17) 
{"1": {"label": "*1", "atom_type": "Cs"}, "2": {"label": "*0", "atom_type": "S2s"}, "7": {"label": "*2", "atom_type": "H0"}, "12": {"label": "*4", "atom_type": "Cs"}, "13": {"label": "*3", "atom_type": "Cs"}}

>  <type>  (17) 
unop_13

>  <geom_source>  (17) 
AutoTST

$$$$
