
     RDKit          3D

  9  8  0  0  0  0  0  0  0  0999 V2000
    1.1303   -0.2933   -0.7510 C   0  0  0  0  0  0  0  0  0  0  0  0
    0.2866    0.4560   -0.0588 C   0  0  0  0  0  0  0  0  0  0  0  0
   -0.9719   -0.0331    0.5823 C   0  0  0  0  0  0  0  0  0  0  0  0
    2.0274    0.1230   -1.1916 H   0  0  0  0  0  0  0  0  0  0  0  0
    0.9532   -1.3530   -0.9023 H   0  0  0  0  0  0  0  0  0  0  0  0
    0.5065    1.5132    0.0659 H   0  0  0  0  0  0  0  0  0  0  0  0
   -0.9526    0.1426    1.6610 H   0  0  0  0  0  0  0  0  0  0  0  0
   -1.1182   -1.1002    0.4106 H   0  0  0  0  0  0  0  0  0  0  0  0
   -1.8412    0.5010    0.1901 H   0  0  0  0  0  0  0  0  0  0  0  0
  1  2  2  3
  1  4  1  0
  1  5  1  0
  2  3  1  0
  2  6  1  0
  3  7  1  0
  3  8  1  0
  3  9  1  0
M  END
>  <reaction>  (1) 
rxn_175

>  <mol_properties>  (1) 
{"1": {"label": "donator", "atom_type": "Cd"}, "5": {"label": "d_hydrogen", "atom_type": "H0"}}

>  <type>  (1) 
r1h

$$$$

     RDKit          3D

 11 11  0  0  0  0  0  0  0  0999 V2000
    0.1524   -1.5397    0.0698 C   0  0  0  0  0  3  0  0  0  0  0  0
   -1.1218   -1.0406    0.0516 C   0  0  0  0  0  0  0  0  0  0  0  0
   -1.2464    0.3470   -0.0114 C   0  0  0  0  0  0  0  0  0  0  0  0
   -0.1137    1.1487   -0.0521 C   0  0  0  0  0  0  0  0  0  0  0  0
    1.1542    0.5837   -0.0308 C   0  0  0  0  0  0  0  0  0  0  0  0
    1.3041   -0.8014    0.0319 C   0  0  0  0  0  0  0  0  0  0  0  0
   -1.9955   -1.6793    0.0840 H   0  0  0  0  0  0  0  0  0  0  0  0
   -2.2319    0.7966   -0.0284 H   0  0  0  0  0  0  0  0  0  0  0  0
   -0.2203    2.2248   -0.1009 H   0  0  0  0  0  0  0  0  0  0  0  0
    2.0325    1.2173   -0.0630 H   0  0  0  0  0  0  0  0  0  0  0  0
    2.2862   -1.2570    0.0492 H   0  0  0  0  0  0  0  0  0  0  0  0
  1  2  2  0
  1  6  1  0
  2  3  1  0
  2  7  1  0
  3  4  2  0
  3  8  1  0
  4  5  1  0
  4  9  1  0
  5  6  2  0
  5 10  1  0
  6 11  1  0
M  RAD  1   1   2
M  END
>  <reaction>  (2) 
rxn_175

>  <mol_properties>  (2) 
{"0": {"label": "acceptor", "atom_type": "Cd"}}

>  <type>  (2) 
r2

$$$$

     RDKit          3D

 12 12  0  0  0  0  0  0  0  0999 V2000
   -1.2385    0.6248   -0.0199 C   0  0  0  0  0  0  0  0  0  0  0  0
   -0.0779    1.3848   -0.0298 C   0  0  0  0  0  0  0  0  0  0  0  0
    1.1605    0.7600   -0.0100 C   0  0  0  0  0  0  0  0  0  0  0  0
    1.2385   -0.6248    0.0199 C   0  0  0  0  0  0  0  0  0  0  0  0
    0.0779   -1.3848    0.0298 C   0  0  0  0  0  0  0  0  0  0  0  0
   -1.1606   -0.7600    0.0100 C   0  0  0  0  0  0  0  0  0  0  0  0
   -2.2052    1.1125   -0.0354 H   0  0  0  0  0  0  0  0  0  0  0  0
   -0.1387    2.4657   -0.0531 H   0  0  0  0  0  0  0  0  0  0  0  0
    2.0664    1.3532   -0.0177 H   0  0  0  0  0  0  0  0  0  0  0  0
    2.2052   -1.1125    0.0354 H   0  0  0  0  0  0  0  0  0  0  0  0
    0.1387   -2.4657    0.0531 H   0  0  0  0  0  0  0  0  0  0  0  0
   -2.0664   -1.3532    0.0177 H   0  0  0  0  0  0  0  0  0  0  0  0
  1  2  2  0
  1  6  1  0
  1  7  1  0
  2  3  1  0
  2  8  1  0
  3  4  2  0
  3  9  1  0
  4  5  1  0
  4 10  1  0
  5  6  2  0
  5 11  1  0
  6 12  1  0
M  END
>  <reaction>  (3) 
rxn_175

>  <mol_properties>  (3) 
{"0": {"label": "a_hydrogen", "atom_type": "H0"}, "1": {"label": "acceptor", "atom_type": "Cd"}}

>  <type>  (3) 
r2h

$$$$

     RDKit          3D

 20 19  0  0  0  0  0  0  0  0999 V2000
    0.3740    1.4574   -2.8492 C   0  0  0  0  0  0  0  0  0  0  0  0
    0.2161    1.8518   -1.6038 C   0  0  0  0  0  0  0  0  0  0  0  0
    0.1556    3.2171   -1.0257 C   0  0  0  0  0  0  0  0  0  0  0  0
    0.3966    0.4054   -3.1099 H   0  0  0  0  0  0  0  0  0  0  0  0
    0.4877    2.1713   -3.6621 H   0  0  0  0  0  0  0  0  0  0  0  0
    0.0928    0.9064   -0.7363 H   0  0  0  0  0  0  0  0  0  0  0  0
   -0.7952    3.3790   -0.5127 H   0  0  0  0  0  0  0  0  0  0  0  0
    0.2649    3.9797   -1.8014 H   0  0  0  0  0  0  0  0  0  0  0  0
    0.9464    3.3601   -0.2857 H   0  0  0  0  0  0  0  0  0  0  0  0
   -0.0352   -0.1228    0.1608 C   0  0  0  0  0  3  0  0  0  0  0  0
    1.1018   -0.6316    0.7497 C   0  0  0  0  0  0  0  0  0  0  0  0
    0.9672   -1.6739    1.6603 C   0  0  0  0  0  0  0  0  0  0  0  0
   -0.2916   -2.1781    1.9574 C   0  0  0  0  0  0  0  0  0  0  0  0
   -1.4212   -1.6480    1.3493 C   0  0  0  0  0  0  0  0  0  0  0  0
   -1.2958   -0.6055    0.4375 C   0  0  0  0  0  0  0  0  0  0  0  0
    2.0796   -0.2317    0.5082 H   0  0  0  0  0  0  0  0  0  0  0  0
    1.8452   -2.0927    2.1371 H   0  0  0  0  0  0  0  0  0  0  0  0
   -0.3928   -2.9899    2.6667 H   0  0  0  0  0  0  0  0  0  0  0  0
   -2.4008   -2.0465    1.5842 H   0  0  0  0  0  0  0  0  0  0  0  0
   -2.1704   -0.1856   -0.0453 H   0  0  0  0  0  0  0  0  0  0  0  0
  1  2  2  3
  1  4  1  0
  1  5  1  0
  2  3  1  0
  2  6  1  0
  3  7  1  0
  3  8  1  0
  3  9  1  0
 10 11  2  0
 10 15  1  0
 11 12  1  0
 11 16  1  0
 12 13  2  0
 12 17  1  0
 13 14  1  0
 13 18  1  0
 14 15  2  0
 14 19  1  0
 15 20  1  0
M  RAD  1  10   2
M  END
>  <reaction>  (4) 
rxn_175

>  <mol_properties>  (4) 
{"0": {"label": "*0", "atom_type": "Cd"}, "1": {"label": "*1", "atom_type": "Cd"}, "5": {"label": "*2", "atom_type": "H0"}, "9": {"label": "*3", "atom_type": "Cd"}, "10": {"label": "*4", "atom_type": "Cd"}}

>  <type>  (4) 
ts

$$$$

     RDKit          3D

 20 19  0  0  0  0  0  0  0  0999 V2000
    0.1801    1.6930   -2.9108 C   0  0  0  0  0  0  0  0  0  0  0  0
    0.1801    1.6930   -1.5870 C   0  0  0  0  0  3  0  0  0  0  0  0
    0.1801    2.9152   -0.7265 C   0  0  0  0  0  0  0  0  0  0  0  0
    0.1801    0.7703   -3.4772 H   0  0  0  0  0  0  0  0  0  0  0  0
    0.1801    2.6186   -3.4768 H   0  0  0  0  0  0  0  0  0  0  0  0
    0.1801    0.5499   -0.9588 H   0  0  0  0  0  0  0  0  0  0  0  0
   -0.6976    2.9323   -0.0753 H   0  0  0  0  0  0  0  0  0  0  0  0
    0.1801    3.8257   -1.3271 H   0  0  0  0  0  0  0  0  0  0  0  0
    1.0578    2.9323   -0.0753 H   0  0  0  0  0  0  0  0  0  0  0  0
    0.1801   -0.5889   -0.3330 C   0  0  0  0  0  0  0  0  0  0  0  0
    1.2206   -0.9075    0.5276 C   0  0  0  0  0  0  0  0  0  0  0  0
    0.9485   -1.4654    1.7682 C   0  0  0  0  0  0  0  0  0  0  0  0
   -0.3641   -1.7047    2.1484 C   0  0  0  0  0  0  0  0  0  0  0  0
   -1.4045   -1.3861    1.2878 C   0  0  0  0  0  0  0  0  0  0  0  0
   -1.1324   -0.8282    0.0472 C   0  0  0  0  0  0  0  0  0  0  0  0
    2.2451   -0.7207    0.2308 H   0  0  0  0  0  0  0  0  0  0  0  0
    1.7606   -1.7140    2.4399 H   0  0  0  0  0  0  0  0  0  0  0  0
   -0.5764   -2.1402    3.1168 H   0  0  0  0  0  0  0  0  0  0  0  0
   -2.4290   -1.5730    1.5846 H   0  0  0  0  0  0  0  0  0  0  0  0
   -1.9446   -0.5796   -0.6245 H   0  0  0  0  0  0  0  0  0  0  0  0
  1  2  2  3
  1  4  1  0
  1  5  1  0
  2  3  1  0
  3  7  1  0
  3  8  1  0
  3  9  1  0
  6 10  1  0
 10 11  2  0
 10 15  1  0
 11 12  1  0
 11 16  1  0
 12 13  2  0
 12 17  1  0
 13 14  1  0
 13 18  1  0
 14 15  2  0
 14 19  1  0
 15 20  1  0
M  RAD  1   2   2
M  END
>  <reaction>  (5) 
rxn_175

>  <mol_properties>  (5) 
{"0": {"label": "*0", "atom_type": "Cd"}, "1": {"label": "*1", "atom_type": "Cd"}, "5": {"label": "*2", "atom_type": "H0"}, "9": {"label": "*3", "atom_type": "Cd"}, "10": {"label": "*4", "atom_type": "Cd"}}

>  <type>  (5) 
unop_1

>  <geom_source>  (5) 
Heuristics

$$$$

     RDKit          3D

 20 19  0  0  0  0  0  0  0  0999 V2000
   -0.2199    2.0491   -2.6079 C   0  0  0  0  0  0  0  0  0  0  0  0
   -0.2199    2.0491   -1.2842 C   0  0  0  0  0  3  0  0  0  0  0  0
   -0.2199    3.2713   -0.4237 C   0  0  0  0  0  0  0  0  0  0  0  0
   -0.2199    1.1264   -3.1744 H   0  0  0  0  0  0  0  0  0  0  0  0
   -0.2199    2.9747   -3.1739 H   0  0  0  0  0  0  0  0  0  0  0  0
   -0.2199    0.9059   -0.6560 H   0  0  0  0  0  0  0  0  0  0  0  0
   -1.0976    3.2884    0.2275 H   0  0  0  0  0  0  0  0  0  0  0  0
   -0.2199    4.1817   -1.0243 H   0  0  0  0  0  0  0  0  0  0  0  0
    0.6578    3.2884    0.2275 H   0  0  0  0  0  0  0  0  0  0  0  0
   -0.2199   -0.2329   -0.0301 C   0  0  0  0  0  0  0  0  0  0  0  0
    0.3808   -1.3418   -0.6079 C   0  0  0  0  0  0  0  0  0  0  0  0
    0.7130   -2.4376    0.1753 C   0  0  0  0  0  0  0  0  0  0  0  0
    0.4445   -2.4244    1.5363 C   0  0  0  0  0  0  0  0  0  0  0  0
   -0.1562   -1.3154    2.1141 C   0  0  0  0  0  0  0  0  0  0  0  0
   -0.4884   -0.2196    1.3309 C   0  0  0  0  0  0  0  0  0  0  0  0
    0.5903   -1.3522   -1.6703 H   0  0  0  0  0  0  0  0  0  0  0  0
    1.1819   -3.3033   -0.2757 H   0  0  0  0  0  0  0  0  0  0  0  0
    0.7039   -3.2797    2.1477 H   0  0  0  0  0  0  0  0  0  0  0  0
   -0.3657   -1.3051    3.1764 H   0  0  0  0  0  0  0  0  0  0  0  0
   -0.9573    0.6460    1.7818 H   0  0  0  0  0  0  0  0  0  0  0  0
  1  2  2  3
  1  4  1  0
  1  5  1  0
  2  3  1  0
  3  7  1  0
  3  8  1  0
  3  9  1  0
  6 10  1  0
 10 11  2  0
 10 15  1  0
 11 12  1  0
 11 16  1  0
 12 13  2  0
 12 17  1  0
 13 14  1  0
 13 18  1  0
 14 15  2  0
 14 19  1  0
 15 20  1  0
M  RAD  1   2   2
M  END
>  <reaction>  (6) 
rxn_175

>  <mol_properties>  (6) 
{"0": {"label": "*0", "atom_type": "Cd"}, "1": {"label": "*1", "atom_type": "Cd"}, "5": {"label": "*2", "atom_type": "H0"}, "9": {"label": "*3", "atom_type": "Cd"}, "10": {"label": "*4", "atom_type": "Cd"}}

>  <type>  (6) 
unop_2

>  <geom_source>  (6) 
Heuristics

$$$$

     RDKit          3D

 20 19  0  0  0  0  0  0  0  0999 V2000
    0.3656    1.8707   -2.7301 C   0  0  0  0  0  0  0  0  0  0  0  0
    0.3656    1.8707   -1.4064 C   0  0  0  0  0  3  0  0  0  0  0  0
    0.3656    3.0929   -0.5459 C   0  0  0  0  0  0  0  0  0  0  0  0
    0.3656    0.9480   -3.2966 H   0  0  0  0  0  0  0  0  0  0  0  0
    0.3656    2.7963   -3.2961 H   0  0  0  0  0  0  0  0  0  0  0  0
    0.3656    0.7276   -0.7782 H   0  0  0  0  0  0  0  0  0  0  0  0
   -0.5121    3.1100    0.1054 H   0  0  0  0  0  0  0  0  0  0  0  0
    0.3656    4.0034   -1.1465 H   0  0  0  0  0  0  0  0  0  0  0  0
    1.2433    3.1100    0.1054 H   0  0  0  0  0  0  0  0  0  0  0  0
    0.3656   -0.4112   -0.1523 C   0  0  0  0  0  0  0  0  0  0  0  0
    0.9663   -0.5180    1.0936 C   0  0  0  0  0  0  0  0  0  0  0  0
    0.4140   -1.3443    2.0614 C   0  0  0  0  0  0  0  0  0  0  0  0
   -0.7390   -2.0639    1.7833 C   0  0  0  0  0  0  0  0  0  0  0  0
   -1.3397   -1.9571    0.5374 C   0  0  0  0  0  0  0  0  0  0  0  0
   -0.7874   -1.1308   -0.4305 C   0  0  0  0  0  0  0  0  0  0  0  0
    1.8663    0.0437    1.3107 H   0  0  0  0  0  0  0  0  0  0  0  0
    0.8829   -1.4277    3.0339 H   0  0  0  0  0  0  0  0  0  0  0  0
   -1.1701   -2.7089    2.5387 H   0  0  0  0  0  0  0  0  0  0  0  0
   -2.2397   -2.5188    0.3203 H   0  0  0  0  0  0  0  0  0  0  0  0
   -1.2563   -1.0474   -1.4030 H   0  0  0  0  0  0  0  0  0  0  0  0
  1  2  2  3
  1  4  1  0
  1  5  1  0
  2  3  1  0
  3  7  1  0
  3  8  1  0
  3  9  1  0
  6 10  1  0
 10 11  2  0
 10 15  1  0
 11 12  1  0
 11 16  1  0
 12 13  2  0
 12 17  1  0
 13 14  1  0
 13 18  1  0
 14 15  2  0
 14 19  1  0
 15 20  1  0
M  RAD  1   2   2
M  END
>  <reaction>  (7) 
rxn_175

>  <mol_properties>  (7) 
{"0": {"label": "*0", "atom_type": "Cd"}, "1": {"label": "*1", "atom_type": "Cd"}, "5": {"label": "*2", "atom_type": "H0"}, "9": {"label": "*3", "atom_type": "Cd"}, "10": {"label": "*4", "atom_type": "Cd"}}

>  <type>  (7) 
unop_3

>  <geom_source>  (7) 
Heuristics

$$$$

     RDKit          3D

 20 19  0  0  0  0  0  0  0  0999 V2000
    0.2649    1.8737   -2.7756 C   0  0  0  0  0  0  0  0  0  0  0  0
    0.2649    1.8737   -1.4518 C   0  0  0  0  0  3  0  0  0  0  0  0
    0.2649    3.0959   -0.5913 C   0  0  0  0  0  0  0  0  0  0  0  0
    0.2649    0.9510   -3.3421 H   0  0  0  0  0  0  0  0  0  0  0  0
    0.2649    2.7993   -3.3416 H   0  0  0  0  0  0  0  0  0  0  0  0
    0.2649    0.7305   -0.8236 H   0  0  0  0  0  0  0  0  0  0  0  0
   -0.6129    3.1130    0.0599 H   0  0  0  0  0  0  0  0  0  0  0  0
    0.2649    4.0063   -1.1919 H   0  0  0  0  0  0  0  0  0  0  0  0
    1.1426    3.1130    0.0599 H   0  0  0  0  0  0  0  0  0  0  0  0
    0.2649   -0.4083   -0.1978 C   0  0  0  0  0  0  0  0  0  0  0  0
   -0.7756   -1.3055   -0.3902 C   0  0  0  0  0  0  0  0  0  0  0  0
   -1.1757   -2.1363    0.6463 C   0  0  0  0  0  0  0  0  0  0  0  0
   -0.5353   -2.0699    1.8752 C   0  0  0  0  0  0  0  0  0  0  0  0
    0.5051   -1.1726    2.0675 C   0  0  0  0  0  0  0  0  0  0  0  0
    0.9053   -0.3418    1.0311 C   0  0  0  0  0  0  0  0  0  0  0  0
   -1.2755   -1.3573   -1.3494 H   0  0  0  0  0  0  0  0  0  0  0  0
   -1.9878   -2.8366    0.4961 H   0  0  0  0  0  0  0  0  0  0  0  0
   -0.8476   -2.7183    2.6842 H   0  0  0  0  0  0  0  0  0  0  0  0
    1.0050   -1.1208    3.0267 H   0  0  0  0  0  0  0  0  0  0  0  0
    1.7174    0.3585    1.1812 H   0  0  0  0  0  0  0  0  0  0  0  0
  1  2  2  3
  1  4  1  0
  1  5  1  0
  2  3  1  0
  3  7  1  0
  3  8  1  0
  3  9  1  0
  6 10  1  0
 10 11  2  0
 10 15  1  0
 11 12  1  0
 11 16  1  0
 12 13  2  0
 12 17  1  0
 13 14  1  0
 13 18  1  0
 14 15  2  0
 14 19  1  0
 15 20  1  0
M  RAD  1   2   2
M  END
>  <reaction>  (8) 
rxn_175

>  <mol_properties>  (8) 
{"0": {"label": "*0", "atom_type": "Cd"}, "1": {"label": "*1", "atom_type": "Cd"}, "5": {"label": "*2", "atom_type": "H0"}, "9": {"label": "*3", "atom_type": "Cd"}, "10": {"label": "*4", "atom_type": "Cd"}}

>  <type>  (8) 
unop_4

>  <geom_source>  (8) 
Heuristics

$$$$

     RDKit          3D

 20 19  0  0  0  0  0  0  0  0999 V2000
   -0.0000    2.1285   -2.5318 C   0  0  0  0  0  0  0  0  0  0  0  0
   -0.0000    2.1285   -1.2080 C   0  0  0  0  0  3  0  0  0  0  0  0
   -0.0000    3.3507   -0.3475 C   0  0  0  0  0  0  0  0  0  0  0  0
   -0.0000    1.2058   -3.0982 H   0  0  0  0  0  0  0  0  0  0  0  0
   -0.0000    3.0541   -3.0978 H   0  0  0  0  0  0  0  0  0  0  0  0
   -0.0000    0.9854   -0.5798 H   0  0  0  0  0  0  0  0  0  0  0  0
   -0.8777    3.3678    0.3037 H   0  0  0  0  0  0  0  0  0  0  0  0
   -0.0000    4.2612   -0.9481 H   0  0  0  0  0  0  0  0  0  0  0  0
    0.8777    3.3678    0.3037 H   0  0  0  0  0  0  0  0  0  0  0  0
    0.0000   -0.1534    0.0460 C   0  0  0  0  0  0  0  0  0  0  0  0
    0.0000   -0.1827    1.4330 C   0  0  0  0  0  0  0  0  0  0  0  0
    0.0000   -1.3985    2.1012 C   0  0  0  0  0  0  0  0  0  0  0  0
    0.0000   -2.5850    1.3823 C   0  0  0  0  0  0  0  0  0  0  0  0
    0.0000   -2.5557   -0.0046 C   0  0  0  0  0  0  0  0  0  0  0  0
    0.0000   -1.3399   -0.6728 C   0  0  0  0  0  0  0  0  0  0  0  0
    0.0000    0.7435    1.9941 H   0  0  0  0  0  0  0  0  0  0  0  0
    0.0000   -1.4213    3.1838 H   0  0  0  0  0  0  0  0  0  0  0  0
    0.0000   -3.5340    1.9039 H   0  0  0  0  0  0  0  0  0  0  0  0
    0.0000   -3.4819   -0.5657 H   0  0  0  0  0  0  0  0  0  0  0  0
    0.0000   -1.3171   -1.7554 H   0  0  0  0  0  0  0  0  0  0  0  0
  1  2  2  3
  1  4  1  0
  1  5  1  0
  2  3  1  0
  3  7  1  0
  3  8  1  0
  3  9  1  0
  6 10  1  0
 10 11  2  0
 10 15  1  0
 11 12  1  0
 11 16  1  0
 12 13  2  0
 12 17  1  0
 13 14  1  0
 13 18  1  0
 14 15  2  0
 14 19  1  0
 15 20  1  0
M  RAD  1   2   2
M  END
>  <reaction>  (9) 
rxn_175

>  <mol_properties>  (9) 
{"0": {"label": "*0", "atom_type": "Cd"}, "1": {"label": "*1", "atom_type": "Cd"}, "5": {"label": "*2", "atom_type": "H0"}, "9": {"label": "*3", "atom_type": "Cd"}, "10": {"label": "*4", "atom_type": "Cd"}}

>  <type>  (9) 
unop_5

>  <geom_source>  (9) 
Heuristics

$$$$

     RDKit          3D

 20 19  0  0  0  0  0  0  0  0999 V2000
    0.1004    1.7217   -2.9110 C   0  0  0  0  0  0  0  0  0  0  0  0
    0.1004    1.7217   -1.5872 C   0  0  0  0  0  3  0  0  0  0  0  0
    0.1004    2.9439   -0.7267 C   0  0  0  0  0  0  0  0  0  0  0  0
    0.1004    0.7990   -3.4775 H   0  0  0  0  0  0  0  0  0  0  0  0
    0.1004    2.6473   -3.4770 H   0  0  0  0  0  0  0  0  0  0  0  0
    0.1004    0.5785   -0.9590 H   0  0  0  0  0  0  0  0  0  0  0  0
   -0.7773    2.9610   -0.0755 H   0  0  0  0  0  0  0  0  0  0  0  0
    0.1004    3.8543   -1.3273 H   0  0  0  0  0  0  0  0  0  0  0  0
    0.9781    2.9610   -0.0755 H   0  0  0  0  0  0  0  0  0  0  0  0
    0.1004   -0.5603   -0.3332 C   0  0  0  0  0  0  0  0  0  0  0  0
   -1.1010   -1.1681    0.0009 C   0  0  0  0  0  0  0  0  0  0  0  0
   -1.2527   -1.7693    1.2419 C   0  0  0  0  0  0  0  0  0  0  0  0
   -0.2029   -1.7627    2.1488 C   0  0  0  0  0  0  0  0  0  0  0  0
    0.9985   -1.1548    1.8147 C   0  0  0  0  0  0  0  0  0  0  0  0
    1.1502   -0.5536    0.5737 C   0  0  0  0  0  0  0  0  0  0  0  0
   -1.9204   -1.1734   -0.7070 H   0  0  0  0  0  0  0  0  0  0  0  0
   -2.1905   -2.2438    1.5027 H   0  0  0  0  0  0  0  0  0  0  0  0
   -0.3213   -2.2319    3.1175 H   0  0  0  0  0  0  0  0  0  0  0  0
    1.8179   -1.1496    2.5227 H   0  0  0  0  0  0  0  0  0  0  0  0
    2.0880   -0.0791    0.3130 H   0  0  0  0  0  0  0  0  0  0  0  0
  1  2  2  3
  1  4  1  0
  1  5  1  0
  2  3  1  0
  3  7  1  0
  3  8  1  0
  3  9  1  0
  6 10  1  0
 10 11  2  0
 10 15  1  0
 11 12  1  0
 11 16  1  0
 12 13  2  0
 12 17  1  0
 13 14  1  0
 13 18  1  0
 14 15  2  0
 14 19  1  0
 15 20  1  0
M  RAD  1   2   2
M  END
>  <reaction>  (10) 
rxn_175

>  <mol_properties>  (10) 
{"0": {"label": "*0", "atom_type": "Cd"}, "1": {"label": "*1", "atom_type": "Cd"}, "5": {"label": "*2", "atom_type": "H0"}, "9": {"label": "*3", "atom_type": "Cd"}, "10": {"label": "*4", "atom_type": "Cd"}}

>  <type>  (10) 
unop_6

>  <geom_source>  (10) 
Heuristics

$$$$

     RDKit          3D

 20 19  0  0  0  0  0  0  0  0999 V2000
   -0.1801    1.6930   -2.9108 C   0  0  0  0  0  0  0  0  0  0  0  0
   -0.1801    1.6930   -1.5870 C   0  0  0  0  0  3  0  0  0  0  0  0
   -0.1801    2.9152   -0.7265 C   0  0  0  0  0  0  0  0  0  0  0  0
   -0.1801    0.7703   -3.4772 H   0  0  0  0  0  0  0  0  0  0  0  0
   -0.1801    2.6186   -3.4768 H   0  0  0  0  0  0  0  0  0  0  0  0
   -0.1801    0.5499   -0.9588 H   0  0  0  0  0  0  0  0  0  0  0  0
   -1.0578    2.9323   -0.0753 H   0  0  0  0  0  0  0  0  0  0  0  0
   -0.1801    3.8257   -1.3271 H   0  0  0  0  0  0  0  0  0  0  0  0
    0.6976    2.9323   -0.0753 H   0  0  0  0  0  0  0  0  0  0  0  0
   -0.1801   -0.5889   -0.3330 C   0  0  0  0  0  0  0  0  0  0  0  0
   -1.2206   -0.9075    0.5276 C   0  0  0  0  0  0  0  0  0  0  0  0
   -0.9485   -1.4654    1.7682 C   0  0  0  0  0  0  0  0  0  0  0  0
    0.3641   -1.7047    2.1484 C   0  0  0  0  0  0  0  0  0  0  0  0
    1.4045   -1.3861    1.2878 C   0  0  0  0  0  0  0  0  0  0  0  0
    1.1324   -0.8282    0.0472 C   0  0  0  0  0  0  0  0  0  0  0  0
   -2.2451   -0.7207    0.2308 H   0  0  0  0  0  0  0  0  0  0  0  0
   -1.7606   -1.7140    2.4399 H   0  0  0  0  0  0  0  0  0  0  0  0
    0.5764   -2.1402    3.1168 H   0  0  0  0  0  0  0  0  0  0  0  0
    2.4290   -1.5730    1.5846 H   0  0  0  0  0  0  0  0  0  0  0  0
    1.9446   -0.5796   -0.6245 H   0  0  0  0  0  0  0  0  0  0  0  0
  1  2  2  3
  1  4  1  0
  1  5  1  0
  2  3  1  0
  3  7  1  0
  3  8  1  0
  3  9  1  0
  6 10  1  0
 10 11  2  0
 10 15  1  0
 11 12  1  0
 11 16  1  0
 12 13  2  0
 12 17  1  0
 13 14  1  0
 13 18  1  0
 14 15  2  0
 14 19  1  0
 15 20  1  0
M  RAD  1   2   2
M  END
>  <reaction>  (11) 
rxn_175

>  <mol_properties>  (11) 
{"0": {"label": "*0", "atom_type": "Cd"}, "1": {"label": "*1", "atom_type": "Cd"}, "5": {"label": "*2", "atom_type": "H0"}, "9": {"label": "*3", "atom_type": "Cd"}, "10": {"label": "*4", "atom_type": "Cd"}}

>  <type>  (11) 
unop_7

>  <geom_source>  (11) 
Heuristics

$$$$

     RDKit          3D

 20 19  0  0  0  0  0  0  0  0999 V2000
   -0.1004    1.7217   -2.9110 C   0  0  0  0  0  0  0  0  0  0  0  0
   -0.1004    1.7217   -1.5872 C   0  0  0  0  0  3  0  0  0  0  0  0
   -0.1004    2.9439   -0.7267 C   0  0  0  0  0  0  0  0  0  0  0  0
   -0.1004    0.7990   -3.4775 H   0  0  0  0  0  0  0  0  0  0  0  0
   -0.1004    2.6473   -3.4770 H   0  0  0  0  0  0  0  0  0  0  0  0
   -0.1004    0.5785   -0.9590 H   0  0  0  0  0  0  0  0  0  0  0  0
   -0.9781    2.9610   -0.0755 H   0  0  0  0  0  0  0  0  0  0  0  0
   -0.1004    3.8543   -1.3273 H   0  0  0  0  0  0  0  0  0  0  0  0
    0.7773    2.9610   -0.0755 H   0  0  0  0  0  0  0  0  0  0  0  0
   -0.1004   -0.5603   -0.3332 C   0  0  0  0  0  0  0  0  0  0  0  0
    1.1010   -1.1681    0.0009 C   0  0  0  0  0  0  0  0  0  0  0  0
    1.2527   -1.7693    1.2419 C   0  0  0  0  0  0  0  0  0  0  0  0
    0.2029   -1.7627    2.1489 C   0  0  0  0  0  0  0  0  0  0  0  0
   -0.9985   -1.1548    1.8147 C   0  0  0  0  0  0  0  0  0  0  0  0
   -1.1502   -0.5536    0.5737 C   0  0  0  0  0  0  0  0  0  0  0  0
    1.9204   -1.1734   -0.7070 H   0  0  0  0  0  0  0  0  0  0  0  0
    2.1905   -2.2438    1.5027 H   0  0  0  0  0  0  0  0  0  0  0  0
    0.3213   -2.2319    3.1175 H   0  0  0  0  0  0  0  0  0  0  0  0
   -1.8179   -1.1496    2.5227 H   0  0  0  0  0  0  0  0  0  0  0  0
   -2.0880   -0.0791    0.3130 H   0  0  0  0  0  0  0  0  0  0  0  0
  1  2  2  3
  1  4  1  0
  1  5  1  0
  2  3  1  0
  3  7  1  0
  3  8  1  0
  3  9  1  0
  6 10  1  0
 10 11  2  0
 10 15  1  0
 11 12  1  0
 11 16  1  0
 12 13  2  0
 12 17  1  0
 13 14  1  0
 13 18  1  0
 14 15  2  0
 14 19  1  0
 15 20  1  0
M  RAD  1   2   2
M  END
>  <reaction>  (12) 
rxn_175

>  <mol_properties>  (12) 
{"0": {"label": "*0", "atom_type": "Cd"}, "1": {"label": "*1", "atom_type": "Cd"}, "5": {"label": "*2", "atom_type": "H0"}, "9": {"label": "*3", "atom_type": "Cd"}, "10": {"label": "*4", "atom_type": "Cd"}}

>  <type>  (12) 
unop_8

>  <geom_source>  (12) 
Heuristics

$$$$

     RDKit          3D

 20 19  0  0  0  0  0  0  0  0999 V2000
    0.2199    2.0491   -2.6079 C   0  0  0  0  0  0  0  0  0  0  0  0
    0.2199    2.0491   -1.2842 C   0  0  0  0  0  3  0  0  0  0  0  0
    0.2199    3.2713   -0.4237 C   0  0  0  0  0  0  0  0  0  0  0  0
    0.2199    1.1264   -3.1744 H   0  0  0  0  0  0  0  0  0  0  0  0
    0.2199    2.9747   -3.1739 H   0  0  0  0  0  0  0  0  0  0  0  0
    0.2199    0.9059   -0.6560 H   0  0  0  0  0  0  0  0  0  0  0  0
   -0.6578    3.2884    0.2275 H   0  0  0  0  0  0  0  0  0  0  0  0
    0.2199    4.1817   -1.0243 H   0  0  0  0  0  0  0  0  0  0  0  0
    1.0976    3.2884    0.2275 H   0  0  0  0  0  0  0  0  0  0  0  0
    0.2199   -0.2329   -0.0301 C   0  0  0  0  0  0  0  0  0  0  0  0
   -0.3808   -1.3418   -0.6079 C   0  0  0  0  0  0  0  0  0  0  0  0
   -0.7130   -2.4376    0.1753 C   0  0  0  0  0  0  0  0  0  0  0  0
   -0.4445   -2.4244    1.5363 C   0  0  0  0  0  0  0  0  0  0  0  0
    0.1562   -1.3154    2.1141 C   0  0  0  0  0  0  0  0  0  0  0  0
    0.4884   -0.2196    1.3309 C   0  0  0  0  0  0  0  0  0  0  0  0
   -0.5903   -1.3522   -1.6703 H   0  0  0  0  0  0  0  0  0  0  0  0
   -1.1819   -3.3033   -0.2757 H   0  0  0  0  0  0  0  0  0  0  0  0
   -0.7039   -3.2798    2.1477 H   0  0  0  0  0  0  0  0  0  0  0  0
    0.3657   -1.3051    3.1764 H   0  0  0  0  0  0  0  0  0  0  0  0
    0.9573    0.6460    1.7818 H   0  0  0  0  0  0  0  0  0  0  0  0
  1  2  2  3
  1  4  1  0
  1  5  1  0
  2  3  1  0
  3  7  1  0
  3  8  1  0
  3  9  1  0
  6 10  1  0
 10 11  2  0
 10 15  1  0
 11 12  1  0
 11 16  1  0
 12 13  2  0
 12 17  1  0
 13 14  1  0
 13 18  1  0
 14 15  2  0
 14 19  1  0
 15 20  1  0
M  RAD  1   2   2
M  END
>  <reaction>  (13) 
rxn_175

>  <mol_properties>  (13) 
{"0": {"label": "*0", "atom_type": "Cd"}, "1": {"label": "*1", "atom_type": "Cd"}, "5": {"label": "*2", "atom_type": "H0"}, "9": {"label": "*3", "atom_type": "Cd"}, "10": {"label": "*4", "atom_type": "Cd"}}

>  <type>  (13) 
unop_9

>  <geom_source>  (13) 
Heuristics

$$$$

     RDKit          3D

 20 19  0  0  0  0  0  0  0  0999 V2000
   -0.2649    1.8737   -2.7756 C   0  0  0  0  0  0  0  0  0  0  0  0
   -0.2649    1.8737   -1.4518 C   0  0  0  0  0  3  0  0  0  0  0  0
   -0.2649    3.0959   -0.5913 C   0  0  0  0  0  0  0  0  0  0  0  0
   -0.2649    0.9510   -3.3421 H   0  0  0  0  0  0  0  0  0  0  0  0
   -0.2649    2.7993   -3.3416 H   0  0  0  0  0  0  0  0  0  0  0  0
   -0.2649    0.7305   -0.8236 H   0  0  0  0  0  0  0  0  0  0  0  0
   -1.1426    3.1130    0.0599 H   0  0  0  0  0  0  0  0  0  0  0  0
   -0.2649    4.0063   -1.1919 H   0  0  0  0  0  0  0  0  0  0  0  0
    0.6129    3.1130    0.0599 H   0  0  0  0  0  0  0  0  0  0  0  0
   -0.2649   -0.4083   -0.1978 C   0  0  0  0  0  0  0  0  0  0  0  0
    0.7756   -1.3055   -0.3902 C   0  0  0  0  0  0  0  0  0  0  0  0
    1.1757   -2.1363    0.6463 C   0  0  0  0  0  0  0  0  0  0  0  0
    0.5353   -2.0699    1.8752 C   0  0  0  0  0  0  0  0  0  0  0  0
   -0.5051   -1.1726    2.0675 C   0  0  0  0  0  0  0  0  0  0  0  0
   -0.9052   -0.3418    1.0311 C   0  0  0  0  0  0  0  0  0  0  0  0
    1.2755   -1.3573   -1.3494 H   0  0  0  0  0  0  0  0  0  0  0  0
    1.9878   -2.8366    0.4961 H   0  0  0  0  0  0  0  0  0  0  0  0
    0.8476   -2.7183    2.6842 H   0  0  0  0  0  0  0  0  0  0  0  0
   -1.0050   -1.1208    3.0267 H   0  0  0  0  0  0  0  0  0  0  0  0
   -1.7174    0.3585    1.1812 H   0  0  0  0  0  0  0  0  0  0  0  0
  1  2  2  3
  1  4  1  0
  1  5  1  0
  2  3  1  0
  3  7  1  0
  3  8  1  0
  3  9  1  0
  6 10  1  0
 10 11  2  0
 10 15  1  0
 11 12  1  0
 11 16  1  0
 12 13  2  0
 12 17  1  0
 13 14  1  0
 13 18  1  0
 14 15  2  0
 14 19  1  0
 15 20  1  0
M  RAD  1   2   2
M  END
>  <reaction>  (14) 
rxn_175

>  <mol_properties>  (14) 
{"0": {"label": "*0", "atom_type": "Cd"}, "1": {"label": "*1", "atom_type": "Cd"}, "5": {"label": "*2", "atom_type": "H0"}, "9": {"label": "*3", "atom_type": "Cd"}, "10": {"label": "*4", "atom_type": "Cd"}}

>  <type>  (14) 
unop_10

>  <geom_source>  (14) 
Heuristics

$$$$

     RDKit          3D

 20 19  0  0  0  0  0  0  0  0999 V2000
   -0.3656    1.8707   -2.7301 C   0  0  0  0  0  0  0  0  0  0  0  0
   -0.3656    1.8707   -1.4064 C   0  0  0  0  0  3  0  0  0  0  0  0
   -0.3656    3.0929   -0.5459 C   0  0  0  0  0  0  0  0  0  0  0  0
   -0.3656    0.9480   -3.2966 H   0  0  0  0  0  0  0  0  0  0  0  0
   -0.3656    2.7963   -3.2961 H   0  0  0  0  0  0  0  0  0  0  0  0
   -0.3656    0.7276   -0.7782 H   0  0  0  0  0  0  0  0  0  0  0  0
   -1.2433    3.1100    0.1054 H   0  0  0  0  0  0  0  0  0  0  0  0
   -0.3656    4.0034   -1.1465 H   0  0  0  0  0  0  0  0  0  0  0  0
    0.5121    3.1100    0.1054 H   0  0  0  0  0  0  0  0  0  0  0  0
   -0.3656   -0.4112   -0.1523 C   0  0  0  0  0  0  0  0  0  0  0  0
   -0.9663   -0.5180    1.0936 C   0  0  0  0  0  0  0  0  0  0  0  0
   -0.4140   -1.3443    2.0614 C   0  0  0  0  0  0  0  0  0  0  0  0
    0.7390   -2.0639    1.7833 C   0  0  0  0  0  0  0  0  0  0  0  0
    1.3397   -1.9571    0.5374 C   0  0  0  0  0  0  0  0  0  0  0  0
    0.7874   -1.1308   -0.4305 C   0  0  0  0  0  0  0  0  0  0  0  0
   -1.8663    0.0437    1.3107 H   0  0  0  0  0  0  0  0  0  0  0  0
   -0.8829   -1.4277    3.0339 H   0  0  0  0  0  0  0  0  0  0  0  0
    1.1701   -2.7089    2.5387 H   0  0  0  0  0  0  0  0  0  0  0  0
    2.2397   -2.5188    0.3203 H   0  0  0  0  0  0  0  0  0  0  0  0
    1.2563   -1.0474   -1.4030 H   0  0  0  0  0  0  0  0  0  0  0  0
  1  2  2  3
  1  4  1  0
  1  5  1  0
  2  3  1  0
  3  7  1  0
  3  8  1  0
  3  9  1  0
  6 10  1  0
 10 11  2  0
 10 15  1  0
 11 12  1  0
 11 16  1  0
 12 13  2  0
 12 17  1  0
 13 14  1  0
 13 18  1  0
 14 15  2  0
 14 19  1  0
 15 20  1  0
M  RAD  1   2   2
M  END
>  <reaction>  (15) 
rxn_175

>  <mol_properties>  (15) 
{"0": {"label": "*0", "atom_type": "Cd"}, "1": {"label": "*1", "atom_type": "Cd"}, "5": {"label": "*2", "atom_type": "H0"}, "9": {"label": "*3", "atom_type": "Cd"}, "10": {"label": "*4", "atom_type": "Cd"}}

>  <type>  (15) 
unop_11

>  <geom_source>  (15) 
Heuristics

$$$$

     RDKit          3D

 20 19  0  0  0  0  0  0  0  0999 V2000
   -0.0000    2.1285   -2.5318 C   0  0  0  0  0  0  0  0  0  0  0  0
   -0.0000    2.1285   -1.2080 C   0  0  0  0  0  3  0  0  0  0  0  0
   -0.0000    3.3507   -0.3475 C   0  0  0  0  0  0  0  0  0  0  0  0
   -0.0000    1.2058   -3.0982 H   0  0  0  0  0  0  0  0  0  0  0  0
   -0.0000    3.0541   -3.0978 H   0  0  0  0  0  0  0  0  0  0  0  0
   -0.0000    0.9854   -0.5798 H   0  0  0  0  0  0  0  0  0  0  0  0
   -0.8777    3.3678    0.3037 H   0  0  0  0  0  0  0  0  0  0  0  0
   -0.0000    4.2612   -0.9481 H   0  0  0  0  0  0  0  0  0  0  0  0
    0.8777    3.3678    0.3037 H   0  0  0  0  0  0  0  0  0  0  0  0
   -0.0000   -0.1534    0.0460 C   0  0  0  0  0  0  0  0  0  0  0  0
    0.0000   -1.3399   -0.6728 C   0  0  0  0  0  0  0  0  0  0  0  0
    0.0000   -2.5557   -0.0046 C   0  0  0  0  0  0  0  0  0  0  0  0
    0.0000   -2.5850    1.3823 C   0  0  0  0  0  0  0  0  0  0  0  0
    0.0000   -1.3985    2.1012 C   0  0  0  0  0  0  0  0  0  0  0  0
    0.0000   -0.1827    1.4330 C   0  0  0  0  0  0  0  0  0  0  0  0
   -0.0000   -1.3171   -1.7554 H   0  0  0  0  0  0  0  0  0  0  0  0
    0.0000   -3.4819   -0.5657 H   0  0  0  0  0  0  0  0  0  0  0  0
    0.0000   -3.5340    1.9039 H   0  0  0  0  0  0  0  0  0  0  0  0
    0.0000   -1.4213    3.1838 H   0  0  0  0  0  0  0  0  0  0  0  0
    0.0000    0.7435    1.9941 H   0  0  0  0  0  0  0  0  0  0  0  0
  1  2  2  3
  1  4  1  0
  1  5  1  0
  2  3  1  0
  3  7  1  0
  3  8  1  0
  3  9  1  0
  6 10  1  0
 10 11  2  0
 10 15  1  0
 11 12  1  0
 11 16  1  0
 12 13  2  0
 12 17  1  0
 13 14  1  0
 13 18  1  0
 14 15  2  0
 14 19  1  0
 15 20  1  0
M  RAD  1   2   2
M  END
>  <reaction>  (16) 
rxn_175

>  <mol_properties>  (16) 
{"0": {"label": "*0", "atom_type": "Cd"}, "1": {"label": "*1", "atom_type": "Cd"}, "5": {"label": "*2", "atom_type": "H0"}, "9": {"label": "*3", "atom_type": "Cd"}, "10": {"label": "*4", "atom_type": "Cd"}}

>  <type>  (16) 
unop_12

>  <geom_source>  (16) 
Heuristics

$$$$

     RDKit          3D

 20 19  0  0  0  0  0  0  0  0999 V2000
    1.9942    0.0028   -0.6762 C   0  0  0  0  0  0  0  0  0  0  0  0
   -1.1119    1.4809   -0.1625 C   0  0  0  0  0  0  0  0  0  0  0  0
   -2.3933    1.2628   -0.6799 C   0  0  0  0  0  0  0  0  0  0  0  0
   -0.3647    0.4066    0.3309 C   0  0  0  0  0  0  0  0  0  0  0  0
   -2.9271   -0.0303   -0.7036 C   0  0  0  0  0  0  0  0  0  0  0  0
   -0.8980   -0.8860    0.3074 C   0  0  0  0  0  0  0  0  0  0  0  0
   -2.1793   -1.1049   -0.2099 C   0  0  0  0  0  0  0  0  0  0  0  0
    2.9605   -0.5802    1.5223 C   0  0  0  0  0  0  0  0  0  0  0  0
    2.1430    0.1868    0.8002 C   0  0  0  0  0  3  0  0  0  0  0  0
    1.6195   -1.0192   -0.8962 H   0  0  0  0  0  0  0  0  0  0  0  0
    2.9723    0.1564   -1.1791 H   0  0  0  0  0  0  0  0  0  0  0  0
    1.2674    0.7456   -1.0645 H   0  0  0  0  0  0  0  0  0  0  0  0
   -0.6974    2.4802   -0.1433 H   0  0  0  0  0  0  0  0  0  0  0  0
   -2.9716    2.0942   -1.0618 H   0  0  0  0  0  0  0  0  0  0  0  0
    0.8251    0.6095    0.8113 H   0  0  0  0  0  0  0  0  0  0  0  0
   -3.9184   -0.1994   -1.1039 H   0  0  0  0  0  0  0  0  0  0  0  0
   -0.3182   -1.7157    0.6896 H   0  0  0  0  0  0  0  0  0  0  0  0
   -2.5920   -2.1053   -0.2282 H   0  0  0  0  0  0  0  0  0  0  0  0
    3.5466   -1.3667    1.0562 H   0  0  0  0  0  0  0  0  0  0  0  0
    3.0433   -0.4182    2.5912 H   0  0  0  0  0  0  0  0  0  0  0  0
  1  9  1  0
  1 10  1  0
  1 11  1  0
  1 12  1  0
  2  3  2  0
  2  4  1  0
  2 13  1  0
  3  5  1  0
  3 14  1  0
  4  6  2  0
  4 15  1  0
  5  7  2  0
  5 16  1  0
  6  7  1  0
  6 17  1  0
  7 18  1  0
  8  9  2  3
  8 19  1  0
  8 20  1  0
M  RAD  1   9   2
M  END
>  <reaction>  (17) 
rxn_175

>  <mol_properties>  (17) 
{"0": {"label": "*0", "atom_type": "Cd"}, "1": {"label": "*1", "atom_type": "Cd"}, "5": {"label": "*2", "atom_type": "H0"}, "9": {"label": "*3", "atom_type": "Cd"}, "10": {"label": "*4", "atom_type": "Cd"}}

>  <type>  (17) 
unop_13

>  <geom_source>  (17) 
AutoTST

$$$$
