
     RDKit          3D

 12 11  0  0  0  0  0  0  0  0999 V2000
    1.2394   -0.3763   -0.3020 C   0  0  0  0  0  0  0  0  0  0  0  0
    0.1007    0.3023    0.4464 C   0  0  0  0  0  0  0  0  0  0  0  0
   -0.1187    2.0399   -0.0725 S   0  0  0  0  0  0  0  0  0  0  0  0
   -1.1974   -0.4877    0.3552 C   0  0  0  0  0  0  0  0  0  0  0  0
    2.1681    0.1849   -0.2048 H   0  0  0  0  0  0  0  0  0  0  0  0
    1.0031   -0.4606   -1.3656 H   0  0  0  0  0  0  0  0  0  0  0  0
    1.3994   -1.3856    0.0860 H   0  0  0  0  0  0  0  0  0  0  0  0
    0.3796    0.4050    1.4981 H   0  0  0  0  0  0  0  0  0  0  0  0
   -0.4500    1.7779   -1.3452 H   0  0  0  0  0  0  0  0  0  0  0  0
   -1.0545   -1.4978    0.7479 H   0  0  0  0  0  0  0  0  0  0  0  0
   -1.5206   -0.5759   -0.6849 H   0  0  0  0  0  0  0  0  0  0  0  0
   -1.9957   -0.0054    0.9183 H   0  0  0  0  0  0  0  0  0  0  0  0
  1  2  1  0
  1  5  1  0
  1  6  1  0
  1  7  1  0
  2  4  1  0
  2  3  1  0
  2  8  1  0
  3  9  1  0
  4 10  1  0
  4 11  1  0
  4 12  1  0
M  END
>  <reaction>  (1) 
rxn_1941

>  <mol_properties>  (1) 
{"1": {"label": "donator", "atom_type": "Cs"}, "7": {"label": "d_hydrogen", "atom_type": "H0"}}

>  <type>  (1) 
r1h

$$$$

     RDKit          3D

  7  6  0  0  0  0  0  0  0  0999 V2000
   -2.0652    0.3855   -0.2963 S   0  0  0  0  0  0  0  0  0  0  0  0
   -0.7169   -0.5853    0.1792 C   0  0  0  0  0  3  0  0  0  0  0  0
    0.5987   -0.2168    0.0254 C   0  0  0  0  0  0  0  0  0  0  0  0
    1.7547    0.1211   -0.1163 C   0  0  0  0  0  0  0  0  0  0  0  0
   -1.3643    1.4227   -0.7731 H   0  0  0  0  0  0  0  0  0  0  0  0
   -0.9781   -1.5363    0.6220 H   0  0  0  0  0  0  0  0  0  0  0  0
    2.7711    0.4089   -0.2366 H   0  0  0  0  0  0  0  0  0  0  0  0
  1  2  1  0
  1  5  1  0
  2  3  1  0
  2  6  1  0
  3  4  3  0
  4  7  1  0
M  RAD  1   2   2
M  END
>  <reaction>  (2) 
rxn_1941

>  <mol_properties>  (2) 
{"1": {"label": "acceptor", "atom_type": "Cs"}}

>  <type>  (2) 
r2

$$$$

     RDKit          3D

  8  7  0  0  0  0  0  0  0  0999 V2000
   -0.7014    1.0753    1.5530 S   0  0  0  0  0  0  0  0  0  0  0  0
   -0.3105   -0.4583    0.6462 C   0  0  0  0  0  0  0  0  0  0  0  0
    0.0935   -0.2424   -0.7319 C   0  0  0  0  0  0  0  0  0  0  0  0
    0.4431   -0.0604   -1.8621 C   0  0  0  0  0  0  0  0  0  0  0  0
    0.4994    1.6466    1.3970 H   0  0  0  0  0  0  0  0  0  0  0  0
   -1.2277   -1.0477    0.6819 H   0  0  0  0  0  0  0  0  0  0  0  0
    0.4563   -1.0151    1.1841 H   0  0  0  0  0  0  0  0  0  0  0  0
    0.7474    0.1020   -2.8681 H   0  0  0  0  0  0  0  0  0  0  0  0
  1  2  1  0
  1  5  1  0
  2  3  1  0
  2  6  1  0
  2  7  1  0
  3  4  3  0
  4  8  1  0
M  END
>  <reaction>  (3) 
rxn_1941

>  <mol_properties>  (3) 
{"1": {"label": "acceptor", "atom_type": "Cs"}, "7": {"label": "a_hydrogen", "atom_type": "H0"}}

>  <type>  (3) 
r2h

$$$$

     RDKit          3D

 19 17  0  0  0  0  0  0  0  0999 V2000
   -1.7022   -0.1011    1.7659 S   0  0  0  0  0  0  0  0  0  0  0  0
   -1.3550   -0.5361    0.0663 C   0  0  0  0  0  0  0  0  0  0  0  0
   -0.8211   -1.8331   -0.1893 C   0  0  0  0  0  0  0  0  0  0  0  0
   -0.2888   -2.8864   -0.4206 C   0  0  0  0  0  0  0  0  0  0  0  0
   -0.4430   -0.2497    2.2047 H   0  0  0  0  0  0  0  0  0  0  0  0
   -2.2109   -0.2777   -0.5533 H   0  0  0  0  0  0  0  0  0  0  0  0
    0.1456   -3.8371   -0.6160 H   0  0  0  0  0  0  0  0  0  0  0  0
    0.8724    0.7224   -2.1411 C   0  0  0  0  0  0  0  0  0  0  0  0
    0.6515    1.0847   -0.6952 C   0  0  0  0  0  3  0  0  0  0  0  0
    1.9432    0.5999    0.4330 S   0  0  0  0  0  0  0  0  0  0  0  0
    0.1896    2.4951   -0.4313 C   0  0  0  0  0  0  0  0  0  0  0  0
    1.0596   -0.3462   -2.2586 H   0  0  0  0  0  0  0  0  0  0  0  0
    1.7253    1.2671   -2.5575 H   0  0  0  0  0  0  0  0  0  0  0  0
   -0.0131    0.9773   -2.7283 H   0  0  0  0  0  0  0  0  0  0  0  0
   -0.4012    0.3034   -0.3291 H   0  0  0  0  0  0  0  0  0  0  0  0
    2.0960   -0.6492   -0.0291 H   0  0  0  0  0  0  0  0  0  0  0  0
   -0.7016    2.7080   -1.0249 H   0  0  0  0  0  0  0  0  0  0  0  0
    0.9578    3.2241   -0.7102 H   0  0  0  0  0  0  0  0  0  0  0  0
   -0.0603    2.6436    0.6201 H   0  0  0  0  0  0  0  0  0  0  0  0
  1  2  1  0
  1  5  1  0
  2  3  1  0
  2  6  1  0
  2 15  1  0
  3  4  3  0
  4  7  1  0
  8  9  1  0
  8 12  1  0
  8 13  1  0
  8 14  1  0
  9 11  1  0
  9 10  1  0
 10 16  1  0
 11 17  1  0
 11 18  1  0
 11 19  1  0
M  RAD  1   9   2
M  END
>  <reaction>  (4) 
rxn_1941

>  <mol_properties>  (4) 
{"0": {"label": "*0", "atom_type": "S2s"}, "1": {"label": "*1", "atom_type": "Cs"}, "8": {"label": "*3", "atom_type": "Cs"}, "9": {"label": "*4", "atom_type": "S2s"}, "14": {"label": "*2", "atom_type": "H0"}}

>  <type>  (4) 
ts

$$$$

     RDKit          3D

 19 17  0  0  0  0  0  0  0  0999 V2000
   -0.5689   -1.6169    1.2647 S   0  0  0  0  0  0  0  0  0  0  0  0
   -1.2090   -0.2222    0.2787 C   0  0  0  0  0  0  0  0  0  0  0  0
   -2.5612   -0.4185   -0.2131 C   0  0  0  0  0  0  0  0  0  0  0  0
   -3.6758   -0.5803   -0.6185 C   0  0  0  0  0  0  0  0  0  0  0  0
   -1.5293   -1.5885    2.1971 H   0  0  0  0  0  0  0  0  0  0  0  0
   -1.1533    0.6949    0.8644 H   0  0  0  0  0  0  0  0  0  0  0  0
   -4.6660   -0.7241   -0.9787 H   0  0  0  0  0  0  0  0  0  0  0  0
    0.9248    1.0403   -2.0928 C   0  0  0  0  0  0  0  0  0  0  0  0
    0.9248    1.0403   -0.5705 C   0  0  0  0  0  3  0  0  0  0  0  0
    2.2798    0.0239    0.1131 S   0  0  0  0  0  0  0  0  0  0  0  0
    0.9248    2.4503    0.0035 C   0  0  0  0  0  0  0  0  0  0  0  0
    0.8962    0.0261   -2.4895 H   0  0  0  0  0  0  0  0  0  0  0  0
    1.8232    1.5300   -2.4764 H   0  0  0  0  0  0  0  0  0  0  0  0
    0.0578    1.5877   -2.4716 H   0  0  0  0  0  0  0  0  0  0  0  0
   -0.1431    0.4084   -0.1455 H   0  0  0  0  0  0  0  0  0  0  0  0
    3.2861    0.7594   -0.3815 H   0  0  0  0  0  0  0  0  0  0  0  0
    0.0578    3.0075   -0.3606 H   0  0  0  0  0  0  0  0  0  0  0  0
    1.8232    2.9902   -0.3054 H   0  0  0  0  0  0  0  0  0  0  0  0
    0.8962    2.4352    1.0925 H   0  0  0  0  0  0  0  0  0  0  0  0
  1  2  1  0
  1  5  1  0
  2  3  1  0
  2  6  1  0
  2 15  1  0
  3  4  3  0
  4  7  1  0
  8  9  1  0
  8 12  1  0
  8 13  1  0
  8 14  1  0
  9 11  1  0
  9 10  1  0
 10 16  1  0
 11 17  1  0
 11 18  1  0
 11 19  1  0
M  RAD  1   9   2
M  END
>  <reaction>  (5) 
rxn_1941

>  <mol_properties>  (5) 
{"0": {"label": "*0", "atom_type": "S2s"}, "1": {"label": "*1", "atom_type": "Cs"}, "8": {"label": "*3", "atom_type": "Cs"}, "9": {"label": "*4", "atom_type": "S2s"}, "14": {"label": "*2", "atom_type": "H0"}}

>  <type>  (5) 
unop_1

>  <geom_source>  (5) 
Heuristics

$$$$

     RDKit          3D

 19 17  0  0  0  0  0  0  0  0999 V2000
   -1.3917   -1.6907   -0.7569 S   0  0  0  0  0  0  0  0  0  0  0  0
   -1.0320   -0.4539    0.5346 C   0  0  0  0  0  0  0  0  0  0  0  0
   -2.2124    0.2015    1.0694 C   0  0  0  0  0  0  0  0  0  0  0  0
   -3.1853    0.7418    1.5102 C   0  0  0  0  0  0  0  0  0  0  0  0
   -2.1852   -2.4616   -0.0028 H   0  0  0  0  0  0  0  0  0  0  0  0
   -0.4662   -0.9212    1.3402 H   0  0  0  0  0  0  0  0  0  0  0  0
   -4.0497    1.2218    1.9018 H   0  0  0  0  0  0  0  0  0  0  0  0
    1.1018    0.8086   -1.8369 C   0  0  0  0  0  0  0  0  0  0  0  0
    1.1018    0.8086   -0.3145 C   0  0  0  0  0  3  0  0  0  0  0  0
    2.4568   -0.2078    0.3691 S   0  0  0  0  0  0  0  0  0  0  0  0
    1.1018    2.2186    0.2595 C   0  0  0  0  0  0  0  0  0  0  0  0
    1.0732   -0.2057   -2.2335 H   0  0  0  0  0  0  0  0  0  0  0  0
    2.0002    1.2983   -2.2205 H   0  0  0  0  0  0  0  0  0  0  0  0
    0.2348    1.3560   -2.2157 H   0  0  0  0  0  0  0  0  0  0  0  0
    0.0339    0.1767    0.1105 H   0  0  0  0  0  0  0  0  0  0  0  0
    3.4631    0.5277   -0.1256 H   0  0  0  0  0  0  0  0  0  0  0  0
    0.2348    2.7758   -0.1047 H   0  0  0  0  0  0  0  0  0  0  0  0
    2.0002    2.7585   -0.0494 H   0  0  0  0  0  0  0  0  0  0  0  0
    1.0732    2.2035    1.3485 H   0  0  0  0  0  0  0  0  0  0  0  0
  1  2  1  0
  1  5  1  0
  2  3  1  0
  2  6  1  0
  2 15  1  0
  3  4  3  0
  4  7  1  0
  8  9  1  0
  8 12  1  0
  8 13  1  0
  8 14  1  0
  9 11  1  0
  9 10  1  0
 10 16  1  0
 11 17  1  0
 11 18  1  0
 11 19  1  0
M  RAD  1   9   2
M  END
>  <reaction>  (6) 
rxn_1941

>  <mol_properties>  (6) 
{"0": {"label": "*0", "atom_type": "S2s"}, "1": {"label": "*1", "atom_type": "Cs"}, "8": {"label": "*3", "atom_type": "Cs"}, "9": {"label": "*4", "atom_type": "S2s"}, "14": {"label": "*2", "atom_type": "H0"}}

>  <type>  (6) 
unop_2

>  <geom_source>  (6) 
Heuristics

$$$$

     RDKit          3D

 19 17  0  0  0  0  0  0  0  0999 V2000
   -0.7798   -0.9528    1.8084 S   0  0  0  0  0  0  0  0  0  0  0  0
   -1.2712   -0.2197    0.2122 C   0  0  0  0  0  0  0  0  0  0  0  0
   -2.2177   -1.0241   -0.5403 C   0  0  0  0  0  0  0  0  0  0  0  0
   -2.9977   -1.6870   -1.1605 C   0  0  0  0  0  0  0  0  0  0  0  0
   -2.0138   -1.0202    2.3235 H   0  0  0  0  0  0  0  0  0  0  0  0
   -1.6769    0.7779    0.3780 H   0  0  0  0  0  0  0  0  0  0  0  0
   -3.6908   -2.2761   -1.7116 H   0  0  0  0  0  0  0  0  0  0  0  0
    0.8625    1.0428   -2.1593 C   0  0  0  0  0  0  0  0  0  0  0  0
    0.8625    1.0428   -0.6370 C   0  0  0  0  0  3  0  0  0  0  0  0
    2.2175    0.0264    0.0466 S   0  0  0  0  0  0  0  0  0  0  0  0
    0.8625    2.4528   -0.0629 C   0  0  0  0  0  0  0  0  0  0  0  0
    0.8339    0.0286   -2.5560 H   0  0  0  0  0  0  0  0  0  0  0  0
    1.7609    1.5326   -2.5429 H   0  0  0  0  0  0  0  0  0  0  0  0
   -0.0045    1.5903   -2.5381 H   0  0  0  0  0  0  0  0  0  0  0  0
   -0.2054    0.4110   -0.2120 H   0  0  0  0  0  0  0  0  0  0  0  0
    3.2238    0.7619   -0.4480 H   0  0  0  0  0  0  0  0  0  0  0  0
   -0.0045    3.0101   -0.4271 H   0  0  0  0  0  0  0  0  0  0  0  0
    1.7609    2.9928   -0.3719 H   0  0  0  0  0  0  0  0  0  0  0  0
    0.8339    2.4377    1.0260 H   0  0  0  0  0  0  0  0  0  0  0  0
  1  2  1  0
  1  5  1  0
  2  3  1  0
  2  6  1  0
  2 15  1  0
  3  4  3  0
  4  7  1  0
  8  9  1  0
  8 12  1  0
  8 13  1  0
  8 14  1  0
  9 11  1  0
  9 10  1  0
 10 16  1  0
 11 17  1  0
 11 18  1  0
 11 19  1  0
M  RAD  1   9   2
M  END
>  <reaction>  (7) 
rxn_1941

>  <mol_properties>  (7) 
{"0": {"label": "*0", "atom_type": "S2s"}, "1": {"label": "*1", "atom_type": "Cs"}, "8": {"label": "*3", "atom_type": "Cs"}, "9": {"label": "*4", "atom_type": "S2s"}, "14": {"label": "*2", "atom_type": "H0"}}

>  <type>  (7) 
unop_3

>  <geom_source>  (7) 
Heuristics

$$$$

     RDKit          3D

 19 17  0  0  0  0  0  0  0  0999 V2000
   -2.6029    0.0444   -0.4688 S   0  0  0  0  0  0  0  0  0  0  0  0
   -1.1971   -0.8971    0.2124 C   0  0  0  0  0  0  0  0  0  0  0  0
   -0.7417   -0.4236    1.5076 C   0  0  0  0  0  0  0  0  0  0  0  0
   -0.3664   -0.0333    2.5751 C   0  0  0  0  0  0  0  0  0  0  0  0
   -3.4385   -0.1827    0.5524 H   0  0  0  0  0  0  0  0  0  0  0  0
   -1.4590   -1.9532    0.2711 H   0  0  0  0  0  0  0  0  0  0  0  0
   -0.0329    0.3135    3.5235 H   0  0  0  0  0  0  0  0  0  0  0  0
    0.9367    0.3654   -2.1591 C   0  0  0  0  0  0  0  0  0  0  0  0
    0.9367    0.3654   -0.6367 C   0  0  0  0  0  3  0  0  0  0  0  0
    2.2917   -0.6510    0.0469 S   0  0  0  0  0  0  0  0  0  0  0  0
    0.9367    1.7754   -0.0627 C   0  0  0  0  0  0  0  0  0  0  0  0
    0.9081   -0.6488   -2.5557 H   0  0  0  0  0  0  0  0  0  0  0  0
    1.8351    0.8552   -2.5427 H   0  0  0  0  0  0  0  0  0  0  0  0
    0.0697    0.9128   -2.5379 H   0  0  0  0  0  0  0  0  0  0  0  0
   -0.1312   -0.2664   -0.2117 H   0  0  0  0  0  0  0  0  0  0  0  0
    3.2979    0.0845   -0.4478 H   0  0  0  0  0  0  0  0  0  0  0  0
    0.0697    2.3327   -0.4268 H   0  0  0  0  0  0  0  0  0  0  0  0
    1.8351    2.3153   -0.3716 H   0  0  0  0  0  0  0  0  0  0  0  0
    0.9081    1.7603    1.0263 H   0  0  0  0  0  0  0  0  0  0  0  0
  1  2  1  0
  1  5  1  0
  2  3  1  0
  2  6  1  0
  2 15  1  0
  3  4  3  0
  4  7  1  0
  8  9  1  0
  8 12  1  0
  8 13  1  0
  8 14  1  0
  9 11  1  0
  9 10  1  0
 10 16  1  0
 11 17  1  0
 11 18  1  0
 11 19  1  0
M  RAD  1   9   2
M  END
>  <reaction>  (8) 
rxn_1941

>  <mol_properties>  (8) 
{"0": {"label": "*0", "atom_type": "S2s"}, "1": {"label": "*1", "atom_type": "Cs"}, "8": {"label": "*3", "atom_type": "Cs"}, "9": {"label": "*4", "atom_type": "S2s"}, "14": {"label": "*2", "atom_type": "H0"}}

>  <type>  (8) 
unop_4

>  <geom_source>  (8) 
Heuristics

$$$$

     RDKit          3D

 19 17  0  0  0  0  0  0  0  0999 V2000
   -1.3005   -0.1925    1.9349 S   0  0  0  0  0  0  0  0  0  0  0  0
   -1.4091   -0.2568    0.1152 C   0  0  0  0  0  0  0  0  0  0  0  0
   -1.4436   -1.6036   -0.4269 C   0  0  0  0  0  0  0  0  0  0  0  0
   -1.4720   -2.7137   -0.8737 C   0  0  0  0  0  0  0  0  0  0  0  0
   -2.4255   -0.8787    2.1719 H   0  0  0  0  0  0  0  0  0  0  0  0
   -2.2821    0.3033   -0.2185 H   0  0  0  0  0  0  0  0  0  0  0  0
   -1.4973   -3.7000   -1.2706 H   0  0  0  0  0  0  0  0  0  0  0  0
    0.7247    1.0058   -2.2563 C   0  0  0  0  0  0  0  0  0  0  0  0
    0.7247    1.0058   -0.7339 C   0  0  0  0  0  3  0  0  0  0  0  0
    2.0797   -0.0106   -0.0503 S   0  0  0  0  0  0  0  0  0  0  0  0
    0.7247    2.4157   -0.1599 C   0  0  0  0  0  0  0  0  0  0  0  0
    0.6961   -0.0085   -2.6529 H   0  0  0  0  0  0  0  0  0  0  0  0
    1.6231    1.4955   -2.6399 H   0  0  0  0  0  0  0  0  0  0  0  0
   -0.1423    1.5532   -2.6351 H   0  0  0  0  0  0  0  0  0  0  0  0
   -0.3432    0.3739   -0.3090 H   0  0  0  0  0  0  0  0  0  0  0  0
    3.0859    0.7248   -0.5450 H   0  0  0  0  0  0  0  0  0  0  0  0
   -0.1423    2.9730   -0.5241 H   0  0  0  0  0  0  0  0  0  0  0  0
    1.6231    2.9557   -0.4688 H   0  0  0  0  0  0  0  0  0  0  0  0
    0.6961    2.4007    0.9291 H   0  0  0  0  0  0  0  0  0  0  0  0
  1  2  1  0
  1  5  1  0
  2  3  1  0
  2  6  1  0
  2 15  1  0
  3  4  3  0
  4  7  1  0
  8  9  1  0
  8 12  1  0
  8 13  1  0
  8 14  1  0
  9 11  1  0
  9 10  1  0
 10 16  1  0
 11 17  1  0
 11 18  1  0
 11 19  1  0
M  RAD  1   9   2
M  END
>  <reaction>  (9) 
rxn_1941

>  <mol_properties>  (9) 
{"0": {"label": "*0", "atom_type": "S2s"}, "1": {"label": "*1", "atom_type": "Cs"}, "8": {"label": "*3", "atom_type": "Cs"}, "9": {"label": "*4", "atom_type": "S2s"}, "14": {"label": "*2", "atom_type": "H0"}}

>  <type>  (9) 
unop_5

>  <geom_source>  (9) 
Heuristics

$$$$

     RDKit          3D

 19 17  0  0  0  0  0  0  0  0999 V2000
   -2.6157    0.4528    0.2173 S   0  0  0  0  0  0  0  0  0  0  0  0
   -1.3354   -0.8373    0.0650 C   0  0  0  0  0  0  0  0  0  0  0  0
   -0.4381   -0.9159    1.2041 C   0  0  0  0  0  0  0  0  0  0  0  0
    0.3015   -0.9807    2.1430 C   0  0  0  0  0  0  0  0  0  0  0  0
   -3.1607   -0.0160    1.3469 H   0  0  0  0  0  0  0  0  0  0  0  0
   -1.8092   -1.8036   -0.1054 H   0  0  0  0  0  0  0  0  0  0  0  0
    0.9586   -1.0382    2.9773 H   0  0  0  0  0  0  0  0  0  0  0  0
    0.7984    0.4252   -2.3065 C   0  0  0  0  0  0  0  0  0  0  0  0
    0.7984    0.4252   -0.7842 C   0  0  0  0  0  3  0  0  0  0  0  0
    2.1534   -0.5912   -0.1006 S   0  0  0  0  0  0  0  0  0  0  0  0
    0.7984    1.8352   -0.2102 C   0  0  0  0  0  0  0  0  0  0  0  0
    0.7698   -0.5890   -2.7032 H   0  0  0  0  0  0  0  0  0  0  0  0
    1.6968    0.9149   -2.6901 H   0  0  0  0  0  0  0  0  0  0  0  0
   -0.0686    0.9726   -2.6853 H   0  0  0  0  0  0  0  0  0  0  0  0
   -0.2695   -0.2067   -0.3592 H   0  0  0  0  0  0  0  0  0  0  0  0
    3.1597    0.1443   -0.5952 H   0  0  0  0  0  0  0  0  0  0  0  0
   -0.0686    2.3924   -0.5743 H   0  0  0  0  0  0  0  0  0  0  0  0
    1.6968    2.3751   -0.5191 H   0  0  0  0  0  0  0  0  0  0  0  0
    0.7698    1.8201    0.8788 H   0  0  0  0  0  0  0  0  0  0  0  0
  1  2  1  0
  1  5  1  0
  2  3  1  0
  2  6  1  0
  2 15  1  0
  3  4  3  0
  4  7  1  0
  8  9  1  0
  8 12  1  0
  8 13  1  0
  8 14  1  0
  9 11  1  0
  9 10  1  0
 10 16  1  0
 11 17  1  0
 11 18  1  0
 11 19  1  0
M  RAD  1   9   2
M  END
>  <reaction>  (10) 
rxn_1941

>  <mol_properties>  (10) 
{"0": {"label": "*0", "atom_type": "S2s"}, "1": {"label": "*1", "atom_type": "Cs"}, "8": {"label": "*3", "atom_type": "Cs"}, "9": {"label": "*4", "atom_type": "S2s"}, "14": {"label": "*2", "atom_type": "H0"}}

>  <type>  (10) 
unop_6

>  <geom_source>  (10) 
Heuristics

$$$$

     RDKit          3D

 19 17  0  0  0  0  0  0  0  0999 V2000
   -2.3714    0.5564    0.9680 S   0  0  0  0  0  0  0  0  0  0  0  0
   -1.4570   -0.6760   -0.0180 C   0  0  0  0  0  0  0  0  0  0  0  0
   -0.3979   -1.3488    0.7132 C   0  0  0  0  0  0  0  0  0  0  0  0
    0.4750   -1.9034    1.3158 C   0  0  0  0  0  0  0  0  0  0  0  0
   -2.7796   -0.2926    1.9194 H   0  0  0  0  0  0  0  0  0  0  0  0
   -2.1540   -1.4079   -0.4250 H   0  0  0  0  0  0  0  0  0  0  0  0
    1.2506   -2.3962    1.8513 H   0  0  0  0  0  0  0  0  0  0  0  0
    0.6767    0.5866   -2.3895 C   0  0  0  0  0  0  0  0  0  0  0  0
    0.6767    0.5866   -0.8672 C   0  0  0  0  0  3  0  0  0  0  0  0
    2.0318   -0.4299   -0.1835 S   0  0  0  0  0  0  0  0  0  0  0  0
    0.6767    1.9965   -0.2931 C   0  0  0  0  0  0  0  0  0  0  0  0
    0.6482   -0.4277   -2.7861 H   0  0  0  0  0  0  0  0  0  0  0  0
    1.5752    1.0763   -2.7731 H   0  0  0  0  0  0  0  0  0  0  0  0
   -0.1902    1.1340   -2.7683 H   0  0  0  0  0  0  0  0  0  0  0  0
   -0.3911   -0.0453   -0.4422 H   0  0  0  0  0  0  0  0  0  0  0  0
    3.0380    0.3056   -0.6782 H   0  0  0  0  0  0  0  0  0  0  0  0
   -0.1902    2.5538   -0.6573 H   0  0  0  0  0  0  0  0  0  0  0  0
    1.5752    2.5365   -0.6020 H   0  0  0  0  0  0  0  0  0  0  0  0
    0.6482    1.9815    0.7958 H   0  0  0  0  0  0  0  0  0  0  0  0
  1  2  1  0
  1  5  1  0
  2  3  1  0
  2  6  1  0
  2 15  1  0
  3  4  3  0
  4  7  1  0
  8  9  1  0
  8 12  1  0
  8 13  1  0
  8 14  1  0
  9 11  1  0
  9 10  1  0
 10 16  1  0
 11 17  1  0
 11 18  1  0
 11 19  1  0
M  RAD  1   9   2
M  END
>  <reaction>  (11) 
rxn_1941

>  <mol_properties>  (11) 
{"0": {"label": "*0", "atom_type": "S2s"}, "1": {"label": "*1", "atom_type": "Cs"}, "8": {"label": "*3", "atom_type": "Cs"}, "9": {"label": "*4", "atom_type": "S2s"}, "14": {"label": "*2", "atom_type": "H0"}}

>  <type>  (11) 
unop_7

>  <geom_source>  (11) 
Heuristics

$$$$

     RDKit          3D

 19 17  0  0  0  0  0  0  0  0999 V2000
   -0.6495   -1.9772    0.5208 S   0  0  0  0  0  0  0  0  0  0  0  0
   -1.1640   -0.2340    0.3684 C   0  0  0  0  0  0  0  0  0  0  0  0
   -2.6002   -0.0501    0.2565 C   0  0  0  0  0  0  0  0  0  0  0  0
   -3.7840    0.1015    0.1643 C   0  0  0  0  0  0  0  0  0  0  0  0
   -1.3506   -2.2392    1.6309 H   0  0  0  0  0  0  0  0  0  0  0  0
   -0.7786    0.3357    1.2135 H   0  0  0  0  0  0  0  0  0  0  0  0
   -4.8357    0.2362    0.0824 H   0  0  0  0  0  0  0  0  0  0  0  0
    0.9697    1.0286   -2.0031 C   0  0  0  0  0  0  0  0  0  0  0  0
    0.9697    1.0286   -0.4807 C   0  0  0  0  0  3  0  0  0  0  0  0
    2.3247    0.0122    0.2029 S   0  0  0  0  0  0  0  0  0  0  0  0
    0.9697    2.4386    0.0933 C   0  0  0  0  0  0  0  0  0  0  0  0
    0.9411    0.0143   -2.3997 H   0  0  0  0  0  0  0  0  0  0  0  0
    1.8681    1.5183   -2.3867 H   0  0  0  0  0  0  0  0  0  0  0  0
    0.1027    1.5760   -2.3819 H   0  0  0  0  0  0  0  0  0  0  0  0
   -0.0982    0.3967   -0.0557 H   0  0  0  0  0  0  0  0  0  0  0  0
    3.3310    0.7477   -0.2918 H   0  0  0  0  0  0  0  0  0  0  0  0
    0.1027    2.9958   -0.2709 H   0  0  0  0  0  0  0  0  0  0  0  0
    1.8681    2.9785   -0.2156 H   0  0  0  0  0  0  0  0  0  0  0  0
    0.9411    2.4235    1.1823 H   0  0  0  0  0  0  0  0  0  0  0  0
  1  2  1  0
  1  5  1  0
  2  3  1  0
  2  6  1  0
  2 15  1  0
  3  4  3  0
  4  7  1  0
  8  9  1  0
  8 12  1  0
  8 13  1  0
  8 14  1  0
  9 11  1  0
  9 10  1  0
 10 16  1  0
 11 17  1  0
 11 18  1  0
 11 19  1  0
M  RAD  1   9   2
M  END
>  <reaction>  (12) 
rxn_1941

>  <mol_properties>  (12) 
{"0": {"label": "*0", "atom_type": "S2s"}, "1": {"label": "*1", "atom_type": "Cs"}, "8": {"label": "*3", "atom_type": "Cs"}, "9": {"label": "*4", "atom_type": "S2s"}, "14": {"label": "*2", "atom_type": "H0"}}

>  <type>  (12) 
unop_8

>  <geom_source>  (12) 
Heuristics

$$$$

     RDKit          3D

 19 17  0  0  0  0  0  0  0  0999 V2000
   -2.3335   -0.5577   -0.9127 S   0  0  0  0  0  0  0  0  0  0  0  0
   -1.0762   -0.8377    0.3788 C   0  0  0  0  0  0  0  0  0  0  0  0
   -1.2435   -0.0039    1.5560 C   0  0  0  0  0  0  0  0  0  0  0  0
   -1.3814    0.6833    2.5263 C   0  0  0  0  0  0  0  0  0  0  0  0
   -3.3939   -0.8483   -0.1487 H   0  0  0  0  0  0  0  0  0  0  0  0
   -1.0725   -1.8896    0.6628 H   0  0  0  0  0  0  0  0  0  0  0  0
   -1.5040    1.2939    3.3884 H   0  0  0  0  0  0  0  0  0  0  0  0
    1.0575    0.4249   -1.9927 C   0  0  0  0  0  0  0  0  0  0  0  0
    1.0575    0.4249   -0.4704 C   0  0  0  0  0  3  0  0  0  0  0  0
    2.4125   -0.5915    0.2133 S   0  0  0  0  0  0  0  0  0  0  0  0
    1.0575    1.8349    0.1037 C   0  0  0  0  0  0  0  0  0  0  0  0
    1.0289   -0.5894   -2.3894 H   0  0  0  0  0  0  0  0  0  0  0  0
    1.9559    0.9146   -2.3763 H   0  0  0  0  0  0  0  0  0  0  0  0
    0.1905    0.9723   -2.3715 H   0  0  0  0  0  0  0  0  0  0  0  0
   -0.0104   -0.2070   -0.0454 H   0  0  0  0  0  0  0  0  0  0  0  0
    3.4188    0.1440   -0.2814 H   0  0  0  0  0  0  0  0  0  0  0  0
    0.1905    2.3921   -0.2605 H   0  0  0  0  0  0  0  0  0  0  0  0
    1.9559    2.3748   -0.2052 H   0  0  0  0  0  0  0  0  0  0  0  0
    1.0289    1.8198    1.1926 H   0  0  0  0  0  0  0  0  0  0  0  0
  1  2  1  0
  1  5  1  0
  2  3  1  0
  2  6  1  0
  2 15  1  0
  3  4  3  0
  4  7  1  0
  8  9  1  0
  8 12  1  0
  8 13  1  0
  8 14  1  0
  9 11  1  0
  9 10  1  0
 10 16  1  0
 11 17  1  0
 11 18  1  0
 11 19  1  0
M  RAD  1   9   2
M  END
>  <reaction>  (13) 
rxn_1941

>  <mol_properties>  (13) 
{"0": {"label": "*0", "atom_type": "S2s"}, "1": {"label": "*1", "atom_type": "Cs"}, "8": {"label": "*3", "atom_type": "Cs"}, "9": {"label": "*4", "atom_type": "S2s"}, "14": {"label": "*2", "atom_type": "H0"}}

>  <type>  (13) 
unop_9

>  <geom_source>  (13) 
Heuristics

$$$$

     RDKit          3D

 19 17  0  0  0  0  0  0  0  0999 V2000
   -0.9517   -1.9863   -0.2106 S   0  0  0  0  0  0  0  0  0  0  0  0
   -1.1003   -0.3008    0.4707 C   0  0  0  0  0  0  0  0  0  0  0  0
   -2.4697    0.1240    0.7012 C   0  0  0  0  0  0  0  0  0  0  0  0
   -3.5984    0.4742    0.8912 C   0  0  0  0  0  0  0  0  0  0  0  0
   -1.5840   -2.6054    0.7941 H   0  0  0  0  0  0  0  0  0  0  0  0
   -0.5256   -0.2280    1.3936 H   0  0  0  0  0  0  0  0  0  0  0  0
   -4.6013    0.7853    1.0600 H   0  0  0  0  0  0  0  0  0  0  0  0
    1.0335    0.9617   -1.9008 C   0  0  0  0  0  0  0  0  0  0  0  0
    1.0335    0.9617   -0.3785 C   0  0  0  0  0  3  0  0  0  0  0  0
    2.3885   -0.0547    0.3051 S   0  0  0  0  0  0  0  0  0  0  0  0
    1.0335    2.3717    0.1956 C   0  0  0  0  0  0  0  0  0  0  0  0
    1.0049   -0.0525   -2.2975 H   0  0  0  0  0  0  0  0  0  0  0  0
    1.9319    1.4514   -2.2844 H   0  0  0  0  0  0  0  0  0  0  0  0
    0.1665    1.5091   -2.2796 H   0  0  0  0  0  0  0  0  0  0  0  0
   -0.0344    0.3298    0.0465 H   0  0  0  0  0  0  0  0  0  0  0  0
    3.3947    0.6808   -0.1895 H   0  0  0  0  0  0  0  0  0  0  0  0
    0.1665    2.9289   -0.1686 H   0  0  0  0  0  0  0  0  0  0  0  0
    1.9319    2.9116   -0.1134 H   0  0  0  0  0  0  0  0  0  0  0  0
    1.0049    2.3566    1.2845 H   0  0  0  0  0  0  0  0  0  0  0  0
  1  2  1  0
  1  5  1  0
  2  3  1  0
  2  6  1  0
  2 15  1  0
  3  4  3  0
  4  7  1  0
  8  9  1  0
  8 12  1  0
  8 13  1  0
  8 14  1  0
  9 11  1  0
  9 10  1  0
 10 16  1  0
 11 17  1  0
 11 18  1  0
 11 19  1  0
M  RAD  1   9   2
M  END
>  <reaction>  (14) 
rxn_1941

>  <mol_properties>  (14) 
{"0": {"label": "*0", "atom_type": "S2s"}, "1": {"label": "*1", "atom_type": "Cs"}, "8": {"label": "*3", "atom_type": "Cs"}, "9": {"label": "*4", "atom_type": "S2s"}, "14": {"label": "*2", "atom_type": "H0"}}

>  <type>  (14) 
unop_10

>  <geom_source>  (14) 
Heuristics

$$$$

     RDKit          3D

 19 17  0  0  0  0  0  0  0  0999 V2000
   -1.9118    0.3372    1.5967 S   0  0  0  0  0  0  0  0  0  0  0  0
   -1.5058   -0.4465    0.0004 C   0  0  0  0  0  0  0  0  0  0  0  0
   -0.6978   -1.6472    0.1209 C   0  0  0  0  0  0  0  0  0  0  0  0
   -0.0318   -2.6368    0.2202 C   0  0  0  0  0  0  0  0  0  0  0  0
   -2.5343   -0.7238    2.1252 H   0  0  0  0  0  0  0  0  0  0  0  0
   -2.4245   -0.6667   -0.5424 H   0  0  0  0  0  0  0  0  0  0  0  0
    0.5599   -3.5160    0.3084 H   0  0  0  0  0  0  0  0  0  0  0  0
    0.6280    0.8161   -2.3711 C   0  0  0  0  0  0  0  0  0  0  0  0
    0.6280    0.8161   -0.8487 C   0  0  0  0  0  3  0  0  0  0  0  0
    1.9830   -0.2003   -0.1651 S   0  0  0  0  0  0  0  0  0  0  0  0
    0.6280    2.2260   -0.2747 C   0  0  0  0  0  0  0  0  0  0  0  0
    0.5994   -0.1982   -2.7677 H   0  0  0  0  0  0  0  0  0  0  0  0
    1.5264    1.3058   -2.7547 H   0  0  0  0  0  0  0  0  0  0  0  0
   -0.2390    1.3635   -2.7499 H   0  0  0  0  0  0  0  0  0  0  0  0
   -0.4399    0.1842   -0.4238 H   0  0  0  0  0  0  0  0  0  0  0  0
    2.9893    0.5352   -0.6598 H   0  0  0  0  0  0  0  0  0  0  0  0
   -0.2390    2.7833   -0.6389 H   0  0  0  0  0  0  0  0  0  0  0  0
    1.5264    2.7660   -0.5836 H   0  0  0  0  0  0  0  0  0  0  0  0
    0.5994    2.2110    0.8143 H   0  0  0  0  0  0  0  0  0  0  0  0
  1  2  1  0
  1  5  1  0
  2  3  1  0
  2  6  1  0
  2 15  1  0
  3  4  3  0
  4  7  1  0
  8  9  1  0
  8 12  1  0
  8 13  1  0
  8 14  1  0
  9 11  1  0
  9 10  1  0
 10 16  1  0
 11 17  1  0
 11 18  1  0
 11 19  1  0
M  RAD  1   9   2
M  END
>  <reaction>  (15) 
rxn_1941

>  <mol_properties>  (15) 
{"0": {"label": "*0", "atom_type": "S2s"}, "1": {"label": "*1", "atom_type": "Cs"}, "8": {"label": "*3", "atom_type": "Cs"}, "9": {"label": "*4", "atom_type": "S2s"}, "14": {"label": "*2", "atom_type": "H0"}}

>  <type>  (15) 
unop_11

>  <geom_source>  (15) 
Heuristics

$$$$

     RDKit          3D

 19 17  0  0  0  0  0  0  0  0999 V2000
   -1.8865   -1.1828   -1.0099 S   0  0  0  0  0  0  0  0  0  0  0  0
   -1.0122   -0.6654    0.5050 C   0  0  0  0  0  0  0  0  0  0  0  0
   -1.7940    0.1984    1.3720 C   0  0  0  0  0  0  0  0  0  0  0  0
   -2.4384    0.9104    2.0865 C   0  0  0  0  0  0  0  0  0  0  0  0
   -2.9164   -1.7716   -0.3893 H   0  0  0  0  0  0  0  0  0  0  0  0
   -0.6812   -1.5462    1.0544 H   0  0  0  0  0  0  0  0  0  0  0  0
   -3.0109    1.5429    2.7214 H   0  0  0  0  0  0  0  0  0  0  0  0
    1.1216    0.5972   -1.8665 C   0  0  0  0  0  0  0  0  0  0  0  0
    1.1216    0.5972   -0.3441 C   0  0  0  0  0  3  0  0  0  0  0  0
    2.4766   -0.4193    0.3395 S   0  0  0  0  0  0  0  0  0  0  0  0
    1.1216    2.0071    0.2299 C   0  0  0  0  0  0  0  0  0  0  0  0
    1.0930   -0.4171   -2.2631 H   0  0  0  0  0  0  0  0  0  0  0  0
    2.0200    1.0869   -2.2501 H   0  0  0  0  0  0  0  0  0  0  0  0
    0.2546    1.1446   -2.2453 H   0  0  0  0  0  0  0  0  0  0  0  0
    0.0537   -0.0347    0.0808 H   0  0  0  0  0  0  0  0  0  0  0  0
    3.4829    0.3162   -0.1552 H   0  0  0  0  0  0  0  0  0  0  0  0
    0.2546    2.5644   -0.1343 H   0  0  0  0  0  0  0  0  0  0  0  0
    2.0200    2.5471   -0.0790 H   0  0  0  0  0  0  0  0  0  0  0  0
    1.0930    1.9920    1.3189 H   0  0  0  0  0  0  0  0  0  0  0  0
  1  2  1  0
  1  5  1  0
  2  3  1  0
  2  6  1  0
  2 15  1  0
  3  4  3  0
  4  7  1  0
  8  9  1  0
  8 12  1  0
  8 13  1  0
  8 14  1  0
  9 11  1  0
  9 10  1  0
 10 16  1  0
 11 17  1  0
 11 18  1  0
 11 19  1  0
M  RAD  1   9   2
M  END
>  <reaction>  (16) 
rxn_1941

>  <mol_properties>  (16) 
{"0": {"label": "*0", "atom_type": "S2s"}, "1": {"label": "*1", "atom_type": "Cs"}, "8": {"label": "*3", "atom_type": "Cs"}, "9": {"label": "*4", "atom_type": "S2s"}, "14": {"label": "*2", "atom_type": "H0"}}

>  <type>  (16) 
unop_12

>  <geom_source>  (16) 
Heuristics

$$$$

     RDKit          3D

 19 17  0  0  0  0  0  0  0  0999 V2000
    2.0056   -1.7517   -0.6562 S   0  0  0  0  0  0  0  0  0  0  0  0
   -1.5034    1.3651    1.4101 S   0  0  0  0  0  0  0  0  0  0  0  0
   -1.8012    0.5435   -1.1974 C   0  0  0  0  0  0  0  0  0  0  0  0
   -1.3916   -1.2455    0.5330 C   0  0  0  0  0  0  0  0  0  0  0  0
    1.4181   -0.0342   -0.5995 C   0  0  0  0  0  3  0  0  0  0  0  0
   -1.0728    0.1814    0.0934 C   0  0  0  0  0  0  0  0  0  0  0  0
    2.4305    0.8160    0.0297 C   0  0  0  0  0  0  0  0  0  0  0  0
    3.2632    1.5169    0.5481 C   0  0  0  0  0  0  0  0  0  0  0  0
    1.2301    0.3232   -1.6328 H   0  0  0  0  0  0  0  0  0  0  0  0
    0.2612    0.0294    0.1164 H   0  0  0  0  0  0  0  0  0  0  0  0
   -2.9018    0.4913   -1.0536 H   0  0  0  0  0  0  0  0  0  0  0  0
   -1.5054   -0.1546   -2.0086 H   0  0  0  0  0  0  0  0  0  0  0  0
   -1.5242    1.5732   -1.5064 H   0  0  0  0  0  0  0  0  0  0  0  0
   -0.8166   -1.4937    1.4495 H   0  0  0  0  0  0  0  0  0  0  0  0
   -1.1002   -1.9619   -0.2637 H   0  0  0  0  0  0  0  0  0  0  0  0
   -2.4768   -1.3561    0.7443 H   0  0  0  0  0  0  0  0  0  0  0  0
    1.9531   -1.8937    0.7439 H   0  0  0  0  0  0  0  0  0  0  0  0
   -0.4623    0.9195    2.2464 H   0  0  0  0  0  0  0  0  0  0  0  0
    3.9943    2.1319    1.0033 H   0  0  0  0  0  0  0  0  0  0  0  0
  1  5  1  0
  1 17  1  0
  2  6  1  0
  2 18  1  0
  3  6  1  0
  3 11  1  0
  3 12  1  0
  3 13  1  0
  4  6  1  0
  4 14  1  0
  4 15  1  0
  4 16  1  0
  5  7  1  0
  5  9  1  0
  6 10  1  0
  7  8  3  0
  8 19  1  0
M  RAD  1   5   2
M  END
>  <reaction>  (17) 
rxn_1941

>  <mol_properties>  (17) 
{"0": {"label": "*0", "atom_type": "S2s"}, "1": {"label": "*1", "atom_type": "Cs"}, "8": {"label": "*3", "atom_type": "Cs"}, "9": {"label": "*4", "atom_type": "S2s"}, "14": {"label": "*2", "atom_type": "H0"}}

>  <type>  (17) 
unop_13

>  <geom_source>  (17) 
AutoTST

$$$$
