
     RDKit          3D

 10  9  0  0  0  0  0  0  0  0999 V2000
   -1.1508    0.0666    0.2839 C   0  0  0  0  0  0  0  0  0  0  0  0
    0.1022   -0.3749   -0.4771 C   0  0  0  0  0  0  0  0  0  0  0  0
    1.3428    0.1620    0.1542 C   0  0  0  0  0  0  0  0  0  0  0  0
    2.5613   -0.6971    0.7526 S   0  0  0  0  0  0  0  0  0  0  0  0
   -1.2137    1.1546    0.3481 H   0  0  0  0  0  0  0  0  0  0  0  0
   -2.0472   -0.2935   -0.2212 H   0  0  0  0  0  0  0  0  0  0  0  0
   -1.1467   -0.3334    1.2987 H   0  0  0  0  0  0  0  0  0  0  0  0
    0.1602   -1.4616   -0.5369 H   0  0  0  0  0  0  0  0  0  0  0  0
    0.0536    0.0174   -1.4997 H   0  0  0  0  0  0  0  0  0  0  0  0
    1.3824    1.2528    0.2110 H   0  0  0  0  0  0  0  0  0  0  0  0
  1  2  1  0
  1  5  1  0
  1  6  1  0
  1  7  1  0
  2  3  1  0
  2  8  1  0
  2  9  1  0
  3  4  2  0
  3 10  1  0
M  END
>  <reaction>  (1) 
rxn_1995

>  <mol_properties>  (1) 
{"1": {"label": "donator", "atom_type": "Cs"}, "7": {"label": "d_hydrogen", "atom_type": "H0"}}

>  <type>  (1) 
r1h

$$$$

     RDKit          3D

  4  3  0  0  0  0  0  0  0  0999 V2000
    0.0000    0.0000    0.0000 C   0  0  0  0  0  3  0  0  0  0  0  0
    1.0638   -0.1747    0.0540 H   0  0  0  0  0  0  0  0  0  0  0  0
   -0.6833   -0.8351   -0.0280 H   0  0  0  0  0  0  0  0  0  0  0  0
   -0.3805    1.0098   -0.0260 H   0  0  0  0  0  0  0  0  0  0  0  0
  1  2  1  0
  1  3  1  0
  1  4  1  0
M  RAD  1   1   2
M  END
>  <reaction>  (2) 
rxn_1995

>  <mol_properties>  (2) 
{"0": {"label": "acceptor", "atom_type": "Cs"}}

>  <type>  (2) 
r2

$$$$

     RDKit          3D

  5  4  0  0  0  0  0  0  0  0999 V2000
    0.0000    0.0000    0.0000 C   0  0  0  0  0  0  0  0  0  0  0  0
   -0.6486   -0.7720   -0.4113 H   0  0  0  0  0  0  0  0  0  0  0  0
   -0.3482    0.9787   -0.3267 H   0  0  0  0  0  0  0  0  0  0  0  0
   -0.0223   -0.0487    1.0876 H   0  0  0  0  0  0  0  0  0  0  0  0
    1.0191   -0.1580   -0.3496 H   0  0  0  0  0  0  0  0  0  0  0  0
  1  2  1  0
  1  3  1  0
  1  4  1  0
  1  5  1  0
M  END
>  <reaction>  (3) 
rxn_1995

>  <mol_properties>  (3) 
{"0": {"label": "acceptor", "atom_type": "Cs"}, "4": {"label": "a_hydrogen", "atom_type": "H0"}}

>  <type>  (3) 
r2h

$$$$

     RDKit          3D

 14 12  0  0  0  0  0  0  0  0999 V2000
   -1.4193   -2.0352    0.2881 C   0  0  0  0  0  3  0  0  0  0  0  0
   -2.2009   -1.3033    0.1215 H   0  0  0  0  0  0  0  0  0  0  0  0
   -1.1420   -2.2142    1.3199 H   0  0  0  0  0  0  0  0  0  0  0  0
   -1.4284   -2.9003   -0.3637 H   0  0  0  0  0  0  0  0  0  0  0  0
    0.4285   -0.2611   -2.0269 C   0  0  0  0  0  0  0  0  0  0  0  0
    0.8172   -0.7401   -0.6420 C   0  0  0  0  0  0  0  0  0  0  0  0
    1.1644    0.2849    0.3367 C   0  0  0  0  0  0  0  0  0  0  0  0
    2.1531    0.0976    1.6058 S   0  0  0  0  0  0  0  0  0  0  0  0
    1.2919    0.1417   -2.5603 H   0  0  0  0  0  0  0  0  0  0  0  0
    0.0229   -1.0825   -2.6186 H   0  0  0  0  0  0  0  0  0  0  0  0
   -0.3297    0.5228   -1.9744 H   0  0  0  0  0  0  0  0  0  0  0  0
   -0.1836   -1.2701   -0.1796 H   0  0  0  0  0  0  0  0  0  0  0  0
    1.5302   -1.5641   -0.6412 H   0  0  0  0  0  0  0  0  0  0  0  0
    0.6557    1.2422    0.1998 H   0  0  0  0  0  0  0  0  0  0  0  0
  1  2  1  0
  1  3  1  0
  1  4  1  0
  5  6  1  0
  5  9  1  0
  5 10  1  0
  5 11  1  0
  6  7  1  0
  6 12  1  0
  6 13  1  0
  7  8  2  0
  7 14  1  0
M  RAD  1   1   2
M  END
>  <reaction>  (4) 
rxn_1995

>  <mol_properties>  (4) 
{"0": {"label": "*3", "atom_type": "Cs"}, "1": {"label": "*4", "atom_type": "H0"}, "5": {"label": "*1", "atom_type": "Cs"}, "6": {"label": "*0", "atom_type": "CS"}, "11": {"label": "*2", "atom_type": "H0"}}

>  <type>  (4) 
ts

$$$$

     RDKit          3D

 14 12  0  0  0  0  0  0  0  0999 V2000
   -1.3073   -2.0236    0.4166 C   0  0  0  0  0  0  0  0  0  0  0  0
   -0.9576   -2.8556    1.0259 H   0  0  0  0  0  0  0  0  0  0  0  0
   -2.3290   -2.2155    0.0923 H   0  0  0  0  0  0  0  0  0  0  0  0
   -1.2363   -1.2187    1.1466 H   0  0  0  0  0  0  0  0  0  0  0  0
    0.7471   -0.7055   -2.0514 C   0  0  0  0  0  0  0  0  0  0  0  0
    0.7471   -0.7055   -0.5203 C   0  0  0  0  0  0  0  0  0  0  0  0
    0.7471    0.6827    0.0264 C   0  0  0  0  0  0  0  0  0  0  0  0
   -0.3724    1.3384    0.9739 S   0  0  0  0  0  1  0  0  0  0  0  0
    1.6023   -0.1553   -2.4485 H   0  0  0  0  0  0  0  0  0  0  0  0
    0.7979   -1.7264   -2.4300 H   0  0  0  0  0  0  0  0  0  0  0  0
   -0.1624   -0.2431   -2.4370 H   0  0  0  0  0  0  0  0  0  0  0  0
   -0.2806   -1.3648   -0.0516 H   0  0  0  0  0  0  0  0  0  0  0  0
    1.6575   -1.2022   -0.1649 H   0  0  0  0  0  0  0  0  0  0  0  0
    1.6026    1.2880   -0.2839 H   0  0  0  0  0  0  0  0  0  0  0  0
  1  2  1  0
  1  3  1  0
  1  4  1  0
  1 12  1  0
  5  6  1  0
  5  9  1  0
  5 10  1  0
  5 11  1  0
  6  7  2  3
  6 13  1  0
  7  8  1  0
  7 14  1  0
M  RAD  1   8   2
M  END
>  <reaction>  (5) 
rxn_1995

>  <mol_properties>  (5) 
{"0": {"label": "*3", "atom_type": "Cs"}, "1": {"label": "*4", "atom_type": "H0"}, "5": {"label": "*1", "atom_type": "Cs"}, "6": {"label": "*0", "atom_type": "CS"}, "11": {"label": "*2", "atom_type": "H0"}}

>  <type>  (5) 
unop_1

>  <geom_source>  (5) 
Heuristics

$$$$

     RDKit          3D

 14 12  0  0  0  0  0  0  0  0999 V2000
   -1.3087   -2.0240    0.4224 C   0  0  0  0  0  0  0  0  0  0  0  0
   -1.5849   -2.8111   -0.2776 H   0  0  0  0  0  0  0  0  0  0  0  0
   -2.2091   -1.5427    0.8011 H   0  0  0  0  0  0  0  0  0  0  0  0
   -0.6095   -1.9070    1.2489 H   0  0  0  0  0  0  0  0  0  0  0  0
    0.7457   -0.7058   -2.0456 C   0  0  0  0  0  0  0  0  0  0  0  0
    0.7457   -0.7058   -0.5145 C   0  0  0  0  0  0  0  0  0  0  0  0
    0.7457    0.6824    0.0322 C   0  0  0  0  0  0  0  0  0  0  0  0
   -0.3738    1.3381    0.9797 S   0  0  0  0  0  1  0  0  0  0  0  0
    1.6009   -0.1556   -2.4427 H   0  0  0  0  0  0  0  0  0  0  0  0
    0.7965   -1.7267   -2.4243 H   0  0  0  0  0  0  0  0  0  0  0  0
   -0.1638   -0.2434   -2.4312 H   0  0  0  0  0  0  0  0  0  0  0  0
   -0.2820   -1.3652   -0.0459 H   0  0  0  0  0  0  0  0  0  0  0  0
    1.6561   -1.2025   -0.1591 H   0  0  0  0  0  0  0  0  0  0  0  0
    1.6012    1.2876   -0.2782 H   0  0  0  0  0  0  0  0  0  0  0  0
  1  2  1  0
  1  3  1  0
  1  4  1  0
  1 12  1  0
  5  6  1  0
  5  9  1  0
  5 10  1  0
  5 11  1  0
  6  7  2  3
  6 13  1  0
  7  8  1  0
  7 14  1  0
M  RAD  1   8   2
M  END
>  <reaction>  (6) 
rxn_1995

>  <mol_properties>  (6) 
{"0": {"label": "*3", "atom_type": "Cs"}, "1": {"label": "*4", "atom_type": "H0"}, "5": {"label": "*1", "atom_type": "Cs"}, "6": {"label": "*0", "atom_type": "CS"}, "11": {"label": "*2", "atom_type": "H0"}}

>  <type>  (6) 
unop_2

>  <geom_source>  (6) 
Heuristics

$$$$

     RDKit          3D

 14 12  0  0  0  0  0  0  0  0999 V2000
   -1.3045   -2.0237    0.4173 C   0  0  0  0  0  0  0  0  0  0  0  0
   -1.0443   -2.4667    1.3774 H   0  0  0  0  0  0  0  0  0  0  0  0
   -2.0169   -2.6662   -0.0978 H   0  0  0  0  0  0  0  0  0  0  0  0
   -1.7066   -1.1488    0.9258 H   0  0  0  0  0  0  0  0  0  0  0  0
    0.7500   -0.7056   -2.0507 C   0  0  0  0  0  0  0  0  0  0  0  0
    0.7500   -0.7056   -0.5196 C   0  0  0  0  0  0  0  0  0  0  0  0
    0.7500    0.6826    0.0271 C   0  0  0  0  0  0  0  0  0  0  0  0
   -0.3696    1.3383    0.9746 S   0  0  0  0  0  1  0  0  0  0  0  0
    1.6052   -0.1554   -2.4478 H   0  0  0  0  0  0  0  0  0  0  0  0
    0.8008   -1.7265   -2.4293 H   0  0  0  0  0  0  0  0  0  0  0  0
   -0.1595   -0.2432   -2.4363 H   0  0  0  0  0  0  0  0  0  0  0  0
   -0.2777   -1.3649   -0.0509 H   0  0  0  0  0  0  0  0  0  0  0  0
    1.6603   -1.2023   -0.1642 H   0  0  0  0  0  0  0  0  0  0  0  0
    1.6054    1.2879   -0.2832 H   0  0  0  0  0  0  0  0  0  0  0  0
  1  2  1  0
  1  3  1  0
  1  4  1  0
  1 12  1  0
  5  6  1  0
  5  9  1  0
  5 10  1  0
  5 11  1  0
  6  7  2  3
  6 13  1  0
  7  8  1  0
  7 14  1  0
M  RAD  1   8   2
M  END
>  <reaction>  (7) 
rxn_1995

>  <mol_properties>  (7) 
{"0": {"label": "*3", "atom_type": "Cs"}, "1": {"label": "*4", "atom_type": "H0"}, "5": {"label": "*1", "atom_type": "Cs"}, "6": {"label": "*0", "atom_type": "CS"}, "11": {"label": "*2", "atom_type": "H0"}}

>  <type>  (7) 
unop_3

>  <geom_source>  (7) 
Heuristics

$$$$

     RDKit          3D

 14 12  0  0  0  0  0  0  0  0999 V2000
   -1.3091   -2.0246    0.4197 C   0  0  0  0  0  0  0  0  0  0  0  0
   -2.2293   -1.5587    0.0706 H   0  0  0  0  0  0  0  0  0  0  0  0
   -0.9946   -1.5545    1.3502 H   0  0  0  0  0  0  0  0  0  0  0  0
   -1.1442   -3.0893    0.5777 H   0  0  0  0  0  0  0  0  0  0  0  0
    0.7453   -0.7065   -2.0482 C   0  0  0  0  0  0  0  0  0  0  0  0
    0.7453   -0.7065   -0.5172 C   0  0  0  0  0  0  0  0  0  0  0  0
    0.7453    0.6817    0.0295 C   0  0  0  0  0  0  0  0  0  0  0  0
   -0.3743    1.3374    0.9770 S   0  0  0  0  0  1  0  0  0  0  0  0
    1.6005   -0.1563   -2.4454 H   0  0  0  0  0  0  0  0  0  0  0  0
    0.7961   -1.7274   -2.4269 H   0  0  0  0  0  0  0  0  0  0  0  0
   -0.1642   -0.2441   -2.4339 H   0  0  0  0  0  0  0  0  0  0  0  0
   -0.2824   -1.3659   -0.0485 H   0  0  0  0  0  0  0  0  0  0  0  0
    1.6556   -1.2032   -0.1617 H   0  0  0  0  0  0  0  0  0  0  0  0
    1.6007    1.2870   -0.2808 H   0  0  0  0  0  0  0  0  0  0  0  0
  1  2  1  0
  1  3  1  0
  1  4  1  0
  1 12  1  0
  5  6  1  0
  5  9  1  0
  5 10  1  0
  5 11  1  0
  6  7  2  3
  6 13  1  0
  7  8  1  0
  7 14  1  0
M  RAD  1   8   2
M  END
>  <reaction>  (8) 
rxn_1995

>  <mol_properties>  (8) 
{"0": {"label": "*3", "atom_type": "Cs"}, "1": {"label": "*4", "atom_type": "H0"}, "5": {"label": "*1", "atom_type": "Cs"}, "6": {"label": "*0", "atom_type": "CS"}, "11": {"label": "*2", "atom_type": "H0"}}

>  <type>  (8) 
unop_4

>  <geom_source>  (8) 
Heuristics

$$$$

     RDKit          3D

 14 12  0  0  0  0  0  0  0  0999 V2000
   -1.3039   -2.0201    0.4188 C   0  0  0  0  0  0  0  0  0  0  0  0
   -1.2794   -2.0044    1.5073 H   0  0  0  0  0  0  0  0  0  0  0  0
   -1.2638   -3.0507    0.0696 H   0  0  0  0  0  0  0  0  0  0  0  0
   -2.2755   -1.5358    0.5029 H   0  0  0  0  0  0  0  0  0  0  0  0
    0.7506   -0.7019   -2.0492 C   0  0  0  0  0  0  0  0  0  0  0  0
    0.7506   -0.7019   -0.5181 C   0  0  0  0  0  0  0  0  0  0  0  0
    0.7506    0.6862    0.0286 C   0  0  0  0  0  0  0  0  0  0  0  0
   -0.3690    1.3419    0.9761 S   0  0  0  0  0  1  0  0  0  0  0  0
    1.6058   -0.1518   -2.4463 H   0  0  0  0  0  0  0  0  0  0  0  0
    0.8014   -1.7229   -2.4279 H   0  0  0  0  0  0  0  0  0  0  0  0
   -0.1589   -0.2396   -2.4348 H   0  0  0  0  0  0  0  0  0  0  0  0
   -0.2771   -1.3613   -0.0495 H   0  0  0  0  0  0  0  0  0  0  0  0
    1.6609   -1.1986   -0.1627 H   0  0  0  0  0  0  0  0  0  0  0  0
    1.6060    1.2915   -0.2818 H   0  0  0  0  0  0  0  0  0  0  0  0
  1  2  1  0
  1  3  1  0
  1  4  1  0
  1 12  1  0
  5  6  1  0
  5  9  1  0
  5 10  1  0
  5 11  1  0
  6  7  2  3
  6 13  1  0
  7  8  1  0
  7 14  1  0
M  RAD  1   8   2
M  END
>  <reaction>  (9) 
rxn_1995

>  <mol_properties>  (9) 
{"0": {"label": "*3", "atom_type": "Cs"}, "1": {"label": "*4", "atom_type": "H0"}, "5": {"label": "*1", "atom_type": "Cs"}, "6": {"label": "*0", "atom_type": "CS"}, "11": {"label": "*2", "atom_type": "H0"}}

>  <type>  (9) 
unop_5

>  <geom_source>  (9) 
Heuristics

$$$$

     RDKit          3D

 14 12  0  0  0  0  0  0  0  0999 V2000
   -1.3087   -2.0231    0.4179 C   0  0  0  0  0  0  0  0  0  0  0  0
   -2.1484   -1.3420    0.5480 H   0  0  0  0  0  0  0  0  0  0  0  0
   -0.6324   -1.9316    1.2664 H   0  0  0  0  0  0  0  0  0  0  0  0
   -1.6216   -3.0630    0.3370 H   0  0  0  0  0  0  0  0  0  0  0  0
    0.7457   -0.7049   -2.0500 C   0  0  0  0  0  0  0  0  0  0  0  0
    0.7457   -0.7049   -0.5190 C   0  0  0  0  0  0  0  0  0  0  0  0
    0.7457    0.6833    0.0277 C   0  0  0  0  0  0  0  0  0  0  0  0
   -0.3739    1.3390    0.9753 S   0  0  0  0  0  1  0  0  0  0  0  0
    1.6009   -0.1548   -2.4471 H   0  0  0  0  0  0  0  0  0  0  0  0
    0.7965   -1.7258   -2.4287 H   0  0  0  0  0  0  0  0  0  0  0  0
   -0.1638   -0.2425   -2.4357 H   0  0  0  0  0  0  0  0  0  0  0  0
   -0.2820   -1.3643   -0.0503 H   0  0  0  0  0  0  0  0  0  0  0  0
    1.6560   -1.2016   -0.1635 H   0  0  0  0  0  0  0  0  0  0  0  0
    1.6011    1.2885   -0.2826 H   0  0  0  0  0  0  0  0  0  0  0  0
  1  2  1  0
  1  3  1  0
  1  4  1  0
  1 12  1  0
  5  6  1  0
  5  9  1  0
  5 10  1  0
  5 11  1  0
  6  7  2  3
  6 13  1  0
  7  8  1  0
  7 14  1  0
M  RAD  1   8   2
M  END
>  <reaction>  (10) 
rxn_1995

>  <mol_properties>  (10) 
{"0": {"label": "*3", "atom_type": "Cs"}, "1": {"label": "*4", "atom_type": "H0"}, "5": {"label": "*1", "atom_type": "Cs"}, "6": {"label": "*0", "atom_type": "CS"}, "11": {"label": "*2", "atom_type": "H0"}}

>  <type>  (10) 
unop_6

>  <geom_source>  (10) 
Heuristics

$$$$

     RDKit          3D

 14 12  0  0  0  0  0  0  0  0999 V2000
   -1.3085   -2.0208    0.4169 C   0  0  0  0  0  0  0  0  0  0  0  0
   -1.9190   -1.3561    1.0263 H   0  0  0  0  0  0  0  0  0  0  0  0
   -0.4633   -2.3771    1.0038 H   0  0  0  0  0  0  0  0  0  0  0  0
   -2.0394   -2.8000    0.2063 H   0  0  0  0  0  0  0  0  0  0  0  0
    0.7459   -0.7026   -2.0510 C   0  0  0  0  0  0  0  0  0  0  0  0
    0.7459   -0.7026   -0.5200 C   0  0  0  0  0  0  0  0  0  0  0  0
    0.7459    0.6856    0.0267 C   0  0  0  0  0  0  0  0  0  0  0  0
   -0.3736    1.3413    0.9743 S   0  0  0  0  0  1  0  0  0  0  0  0
    1.6011   -0.1525   -2.4481 H   0  0  0  0  0  0  0  0  0  0  0  0
    0.7967   -1.7235   -2.4297 H   0  0  0  0  0  0  0  0  0  0  0  0
   -0.1636   -0.2402   -2.4367 H   0  0  0  0  0  0  0  0  0  0  0  0
   -0.2817   -1.3620   -0.0513 H   0  0  0  0  0  0  0  0  0  0  0  0
    1.6563   -1.1993   -0.1645 H   0  0  0  0  0  0  0  0  0  0  0  0
    1.6014    1.2908   -0.2836 H   0  0  0  0  0  0  0  0  0  0  0  0
  1  2  1  0
  1  3  1  0
  1  4  1  0
  1 12  1  0
  5  6  1  0
  5  9  1  0
  5 10  1  0
  5 11  1  0
  6  7  2  3
  6 13  1  0
  7  8  1  0
  7 14  1  0
M  RAD  1   8   2
M  END
>  <reaction>  (11) 
rxn_1995

>  <mol_properties>  (11) 
{"0": {"label": "*3", "atom_type": "Cs"}, "1": {"label": "*4", "atom_type": "H0"}, "5": {"label": "*1", "atom_type": "Cs"}, "6": {"label": "*0", "atom_type": "CS"}, "11": {"label": "*2", "atom_type": "H0"}}

>  <type>  (11) 
unop_7

>  <geom_source>  (11) 
Heuristics

$$$$

     RDKit          3D

 14 12  0  0  0  0  0  0  0  0999 V2000
   -1.3089   -2.0224    0.4181 C   0  0  0  0  0  0  0  0  0  0  0  0
   -1.0397   -3.0695    0.5482 H   0  0  0  0  0  0  0  0  0  0  0  0
   -2.3922   -1.9311    0.3562 H   0  0  0  0  0  0  0  0  0  0  0  0
   -0.9562   -1.3946    1.2350 H   0  0  0  0  0  0  0  0  0  0  0  0
    0.7455   -0.7042   -2.0499 C   0  0  0  0  0  0  0  0  0  0  0  0
    0.7455   -0.7042   -0.5188 C   0  0  0  0  0  0  0  0  0  0  0  0
    0.7455    0.6839    0.0279 C   0  0  0  0  0  0  0  0  0  0  0  0
   -0.3740    1.3396    0.9754 S   0  0  0  0  0  1  0  0  0  0  0  0
    1.6007   -0.1541   -2.4470 H   0  0  0  0  0  0  0  0  0  0  0  0
    0.7964   -1.7251   -2.4286 H   0  0  0  0  0  0  0  0  0  0  0  0
   -0.1640   -0.2419   -2.4355 H   0  0  0  0  0  0  0  0  0  0  0  0
   -0.2821   -1.3636   -0.0502 H   0  0  0  0  0  0  0  0  0  0  0  0
    1.6559   -1.2009   -0.1634 H   0  0  0  0  0  0  0  0  0  0  0  0
    1.6010    1.2892   -0.2825 H   0  0  0  0  0  0  0  0  0  0  0  0
  1  2  1  0
  1  3  1  0
  1  4  1  0
  1 12  1  0
  5  6  1  0
  5  9  1  0
  5 10  1  0
  5 11  1  0
  6  7  2  3
  6 13  1  0
  7  8  1  0
  7 14  1  0
M  RAD  1   8   2
M  END
>  <reaction>  (12) 
rxn_1995

>  <mol_properties>  (12) 
{"0": {"label": "*3", "atom_type": "Cs"}, "1": {"label": "*4", "atom_type": "H0"}, "5": {"label": "*1", "atom_type": "Cs"}, "6": {"label": "*0", "atom_type": "CS"}, "11": {"label": "*2", "atom_type": "H0"}}

>  <type>  (12) 
unop_8

>  <geom_source>  (12) 
Heuristics

$$$$

     RDKit          3D

 14 12  0  0  0  0  0  0  0  0999 V2000
   -1.3095   -2.0257    0.4214 C   0  0  0  0  0  0  0  0  0  0  0  0
   -2.1400   -1.9487   -0.2786 H   0  0  0  0  0  0  0  0  0  0  0  0
   -1.4694   -1.3391    1.2514 H   0  0  0  0  0  0  0  0  0  0  0  0
   -0.7311   -2.8257    0.8811 H   0  0  0  0  0  0  0  0  0  0  0  0
    0.7450   -0.7075   -2.0466 C   0  0  0  0  0  0  0  0  0  0  0  0
    0.7450   -0.7075   -0.5155 C   0  0  0  0  0  0  0  0  0  0  0  0
    0.7450    0.6806    0.0312 C   0  0  0  0  0  0  0  0  0  0  0  0
   -0.3746    1.3363    0.9787 S   0  0  0  0  0  1  0  0  0  0  0  0
    1.6002   -0.1574   -2.4437 H   0  0  0  0  0  0  0  0  0  0  0  0
    0.7958   -1.7285   -2.4252 H   0  0  0  0  0  0  0  0  0  0  0  0
   -0.1645   -0.2452   -2.4322 H   0  0  0  0  0  0  0  0  0  0  0  0
   -0.2827   -1.3669   -0.0468 H   0  0  0  0  0  0  0  0  0  0  0  0
    1.6553   -1.2042   -0.1601 H   0  0  0  0  0  0  0  0  0  0  0  0
    1.6004    1.2859   -0.2791 H   0  0  0  0  0  0  0  0  0  0  0  0
  1  2  1  0
  1  3  1  0
  1  4  1  0
  1 12  1  0
  5  6  1  0
  5  9  1  0
  5 10  1  0
  5 11  1  0
  6  7  2  3
  6 13  1  0
  7  8  1  0
  7 14  1  0
M  RAD  1   8   2
M  END
>  <reaction>  (13) 
rxn_1995

>  <mol_properties>  (13) 
{"0": {"label": "*3", "atom_type": "Cs"}, "1": {"label": "*4", "atom_type": "H0"}, "5": {"label": "*1", "atom_type": "Cs"}, "6": {"label": "*0", "atom_type": "CS"}, "11": {"label": "*2", "atom_type": "H0"}}

>  <type>  (13) 
unop_9

>  <geom_source>  (13) 
Heuristics

$$$$

     RDKit          3D

 14 12  0  0  0  0  0  0  0  0999 V2000
   -1.3090   -2.0224    0.4206 C   0  0  0  0  0  0  0  0  0  0  0  0
   -1.2689   -3.0530    0.0714 H   0  0  0  0  0  0  0  0  0  0  0  0
   -2.3460   -1.7368    0.5906 H   0  0  0  0  0  0  0  0  0  0  0  0
   -0.7646   -1.6056    1.2665 H   0  0  0  0  0  0  0  0  0  0  0  0
    0.7454   -0.7042   -2.0474 C   0  0  0  0  0  0  0  0  0  0  0  0
    0.7454   -0.7042   -0.5164 C   0  0  0  0  0  0  0  0  0  0  0  0
    0.7454    0.6840    0.0303 C   0  0  0  0  0  0  0  0  0  0  0  0
   -0.3741    1.3396    0.9779 S   0  0  0  0  0  1  0  0  0  0  0  0
    1.6006   -0.1541   -2.4445 H   0  0  0  0  0  0  0  0  0  0  0  0
    0.7963   -1.7251   -2.4261 H   0  0  0  0  0  0  0  0  0  0  0  0
   -0.1641   -0.2419   -2.4331 H   0  0  0  0  0  0  0  0  0  0  0  0
   -0.2822   -1.3636   -0.0477 H   0  0  0  0  0  0  0  0  0  0  0  0
    1.6558   -1.2009   -0.1609 H   0  0  0  0  0  0  0  0  0  0  0  0
    1.6009    1.2892   -0.2800 H   0  0  0  0  0  0  0  0  0  0  0  0
  1  2  1  0
  1  3  1  0
  1  4  1  0
  1 12  1  0
  5  6  1  0
  5  9  1  0
  5 10  1  0
  5 11  1  0
  6  7  2  3
  6 13  1  0
  7  8  1  0
  7 14  1  0
M  RAD  1   8   2
M  END
>  <reaction>  (14) 
rxn_1995

>  <mol_properties>  (14) 
{"0": {"label": "*3", "atom_type": "Cs"}, "1": {"label": "*4", "atom_type": "H0"}, "5": {"label": "*1", "atom_type": "Cs"}, "6": {"label": "*0", "atom_type": "CS"}, "11": {"label": "*2", "atom_type": "H0"}}

>  <type>  (14) 
unop_10

>  <geom_source>  (14) 
Heuristics

$$$$

     RDKit          3D

 14 12  0  0  0  0  0  0  0  0999 V2000
   -1.3071   -2.0185    0.4177 C   0  0  0  0  0  0  0  0  0  0  0  0
   -1.6013   -1.5974    1.3778 H   0  0  0  0  0  0  0  0  0  0  0  0
   -0.6019   -2.8324    0.5791 H   0  0  0  0  0  0  0  0  0  0  0  0
   -2.3414   -2.2940    0.2173 H   0  0  0  0  0  0  0  0  0  0  0  0
    0.7474   -0.7004   -2.0503 C   0  0  0  0  0  0  0  0  0  0  0  0
    0.7474   -0.7004   -0.5192 C   0  0  0  0  0  0  0  0  0  0  0  0
    0.7474    0.6878    0.0275 C   0  0  0  0  0  0  0  0  0  0  0  0
   -0.3722    1.3435    0.9750 S   0  0  0  0  0  1  0  0  0  0  0  0
    1.6026   -0.1502   -2.4474 H   0  0  0  0  0  0  0  0  0  0  0  0
    0.7982   -1.7213   -2.4290 H   0  0  0  0  0  0  0  0  0  0  0  0
   -0.1621   -0.2380   -2.4360 H   0  0  0  0  0  0  0  0  0  0  0  0
   -0.2803   -1.3597   -0.0506 H   0  0  0  0  0  0  0  0  0  0  0  0
    1.6577   -1.1971   -0.1638 H   0  0  0  0  0  0  0  0  0  0  0  0
    1.6028    1.2931   -0.2829 H   0  0  0  0  0  0  0  0  0  0  0  0
  1  2  1  0
  1  3  1  0
  1  4  1  0
  1 12  1  0
  5  6  1  0
  5  9  1  0
  5 10  1  0
  5 11  1  0
  6  7  2  3
  6 13  1  0
  7  8  1  0
  7 14  1  0
M  RAD  1   8   2
M  END
>  <reaction>  (15) 
rxn_1995

>  <mol_properties>  (15) 
{"0": {"label": "*3", "atom_type": "Cs"}, "1": {"label": "*4", "atom_type": "H0"}, "5": {"label": "*1", "atom_type": "Cs"}, "6": {"label": "*0", "atom_type": "CS"}, "11": {"label": "*2", "atom_type": "H0"}}

>  <type>  (15) 
unop_11

>  <geom_source>  (15) 
Heuristics

$$$$

     RDKit          3D

 14 12  0  0  0  0  0  0  0  0999 V2000
   -1.3091   -2.0256    0.4225 C   0  0  0  0  0  0  0  0  0  0  0  0
   -1.9039   -2.4073   -0.4059 H   0  0  0  0  0  0  0  0  0  0  0  0
   -1.9196   -1.3609    1.0319 H   0  0  0  0  0  0  0  0  0  0  0  0
   -0.5508   -2.3534    1.1320 H   0  0  0  0  0  0  0  0  0  0  0  0
    0.7454   -0.7074   -2.0454 C   0  0  0  0  0  0  0  0  0  0  0  0
    0.7454   -0.7074   -0.5144 C   0  0  0  0  0  0  0  0  0  0  0  0
    0.7454    0.6807    0.0323 C   0  0  0  0  0  0  0  0  0  0  0  0
   -0.3742    1.3364    0.9799 S   0  0  0  0  0  1  0  0  0  0  0  0
    1.6006   -0.1573   -2.4425 H   0  0  0  0  0  0  0  0  0  0  0  0
    0.7962   -1.7284   -2.4241 H   0  0  0  0  0  0  0  0  0  0  0  0
   -0.1641   -0.2451   -2.4311 H   0  0  0  0  0  0  0  0  0  0  0  0
   -0.2823   -1.3668   -0.0457 H   0  0  0  0  0  0  0  0  0  0  0  0
    1.6557   -1.2041   -0.1589 H   0  0  0  0  0  0  0  0  0  0  0  0
    1.6008    1.2860   -0.2780 H   0  0  0  0  0  0  0  0  0  0  0  0
  1  2  1  0
  1  3  1  0
  1  4  1  0
  1 12  1  0
  5  6  1  0
  5  9  1  0
  5 10  1  0
  5 11  1  0
  6  7  2  3
  6 13  1  0
  7  8  1  0
  7 14  1  0
M  RAD  1   8   2
M  END
>  <reaction>  (16) 
rxn_1995

>  <mol_properties>  (16) 
{"0": {"label": "*3", "atom_type": "Cs"}, "1": {"label": "*4", "atom_type": "H0"}, "5": {"label": "*1", "atom_type": "Cs"}, "6": {"label": "*0", "atom_type": "CS"}, "11": {"label": "*2", "atom_type": "H0"}}

>  <type>  (16) 
unop_12

>  <geom_source>  (16) 
Heuristics

$$$$

     RDKit          3D

 14 12  0  0  0  0  0  0  0  0999 V2000
   -0.6027   -2.3687   -0.7662 S   0  0  0  0  0  1  0  0  0  0  0  0
   -1.4078    0.8371    0.8022 C   0  0  0  0  0  0  0  0  0  0  0  0
    2.1537   -0.0997    0.0102 C   0  0  0  0  0  0  0  0  0  0  0  0
   -0.4655    0.0786   -0.1218 C   0  0  0  0  0  0  0  0  0  0  0  0
   -1.1716   -1.0532   -0.7962 C   0  0  0  0  0  0  0  0  0  0  0  0
   -2.2477    1.2769    0.2229 H   0  0  0  0  0  0  0  0  0  0  0  0
   -0.8500    1.6553    1.3033 H   0  0  0  0  0  0  0  0  0  0  0  0
   -1.8113    0.1542    1.5797 H   0  0  0  0  0  0  0  0  0  0  0  0
    2.7175   -0.1612    0.9637 H   0  0  0  0  0  0  0  0  0  0  0  0
    2.3238   -1.0233   -0.5803 H   0  0  0  0  0  0  0  0  0  0  0  0
    2.5026    0.7795   -0.5697 H   0  0  0  0  0  0  0  0  0  0  0  0
    0.9488    0.0184    0.2515 H   0  0  0  0  0  0  0  0  0  0  0  0
   -0.0461    0.7665   -0.8867 H   0  0  0  0  0  0  0  0  0  0  0  0
   -2.0439   -0.8604   -1.4126 H   0  0  0  0  0  0  0  0  0  0  0  0
  1  5  1  0
  2  4  1  0
  2  6  1  0
  2  7  1  0
  2  8  1  0
  3  9  1  0
  3 10  1  0
  3 11  1  0
  3 12  1  0
  4  5  2  3
  4 13  1  0
  5 14  1  0
M  RAD  1   1   2
M  END
>  <reaction>  (17) 
rxn_1995

>  <mol_properties>  (17) 
{"0": {"label": "*3", "atom_type": "Cs"}, "1": {"label": "*4", "atom_type": "H0"}, "5": {"label": "*1", "atom_type": "Cs"}, "6": {"label": "*0", "atom_type": "CS"}, "11": {"label": "*2", "atom_type": "H0"}}

>  <type>  (17) 
unop_13

>  <geom_source>  (17) 
AutoTST

$$$$
