
     RDKit          3D

 11 10  0  0  0  0  0  0  0  0999 V2000
   -1.2710    0.1907   -0.2084 C   0  0  0  0  0  0  0  0  0  0  0  0
    0.0202   -0.6130   -0.2928 C   0  0  0  0  0  0  0  0  0  0  0  0
    0.1086   -1.6953    0.7756 C   0  0  0  0  0  0  0  0  0  0  0  0
   -1.3607    0.6851    0.7620 H   0  0  0  0  0  0  0  0  0  0  0  0
   -2.1429   -0.4567   -0.3299 H   0  0  0  0  0  0  0  0  0  0  0  0
   -1.3158    0.9602   -0.9809 H   0  0  0  0  0  0  0  0  0  0  0  0
    0.8757    0.0616   -0.1992 H   0  0  0  0  0  0  0  0  0  0  0  0
    0.0997   -1.0712   -1.2825 H   0  0  0  0  0  0  0  0  0  0  0  0
   -0.7198   -2.4022    0.6850 H   0  0  0  0  0  0  0  0  0  0  0  0
    1.0395   -2.2596    0.6989 H   0  0  0  0  0  0  0  0  0  0  0  0
    0.0624   -1.2603    1.7770 H   0  0  0  0  0  0  0  0  0  0  0  0
  1  2  1  0
  1  4  1  0
  1  5  1  0
  1  6  1  0
  2  3  1  0
  2  7  1  0
  2  8  1  0
  3  9  1  0
  3 10  1  0
  3 11  1  0
M  END
>  <reaction>  (1) 
rxn_52

>  <mol_properties>  (1) 
{"0": {"label": "donator", "atom_type": "Cs"}, "3": {"label": "d_hydrogen", "atom_type": "H0"}}

>  <type>  (1) 
r1h

$$$$

     RDKit          3D

  2  1  0  0  0  0  0  0  0  0999 V2000
    0.0000    0.0000    0.6715 S   0  0  0  0  0  1  0  0  0  0  0  0
    0.0000    0.0000   -0.6715 H   0  0  0  0  0  0  0  0  0  0  0  0
  1  2  1  0
M  RAD  1   1   2
M  END
>  <reaction>  (2) 
rxn_52

>  <mol_properties>  (2) 
{"0": {"label": "acceptor", "atom_type": "S2s"}}

>  <type>  (2) 
r2

$$$$

     RDKit          3D

  3  2  0  0  0  0  0  0  0  0999 V2000
   -0.0007    0.6157    0.0000 S   0  0  0  0  0  0  0  0  0  0  0  0
   -0.9686   -0.3090    0.0000 H   0  0  0  0  0  0  0  0  0  0  0  0
    0.9693   -0.3067    0.0000 H   0  0  0  0  0  0  0  0  0  0  0  0
  1  2  1  0
  1  3  1  0
M  END
>  <reaction>  (3) 
rxn_52

>  <mol_properties>  (3) 
{"0": {"label": "a_hydrogen", "atom_type": "H0"}, "1": {"label": "acceptor", "atom_type": "S2s"}}

>  <type>  (3) 
r2h

$$$$

     RDKit          3D

 13 11  0  0  0  0  0  0  0  0999 V2000
    1.0952   -0.1348    0.8883 C   0  0  0  0  0  3  0  0  0  0  0  0
    1.1047   -1.5317    0.3606 C   0  0  0  0  0  0  0  0  0  0  0  0
    0.9416   -1.6135   -1.1518 C   0  0  0  0  0  0  0  0  0  0  0  0
   -0.3437    0.3692    0.6423 H   0  0  0  0  0  0  0  0  0  0  0  0
    1.6455    0.6179    0.3297 H   0  0  0  0  0  0  0  0  0  0  0  0
    1.1132    0.0025    1.9652 H   0  0  0  0  0  0  0  0  0  0  0  0
    0.3230   -2.1149    0.8555 H   0  0  0  0  0  0  0  0  0  0  0  0
    2.0542   -2.0015    0.6535 H   0  0  0  0  0  0  0  0  0  0  0  0
    1.7281   -1.0513   -1.6603 H   0  0  0  0  0  0  0  0  0  0  0  0
    0.9912   -2.6468   -1.4962 H   0  0  0  0  0  0  0  0  0  0  0  0
   -0.0220   -1.2015   -1.4564 H   0  0  0  0  0  0  0  0  0  0  0  0
   -1.7089    0.8178    0.3394 S   0  0  0  0  0  0  0  0  0  0  0  0
   -1.2975    1.4077   -0.7904 H   0  0  0  0  0  0  0  0  0  0  0  0
  1  2  1  0
  1  5  1  0
  1  6  1  0
  2  3  1  0
  2  7  1  0
  2  8  1  0
  3  9  1  0
  3 10  1  0
  3 11  1  0
  4 12  1  0
 12 13  1  0
M  RAD  1   1   2
M  END
>  <reaction>  (4) 
rxn_52

>  <mol_properties>  (4) 
{"0": {"label": "*3", "atom_type": "Cs"}, "1": {"label": "*4", "atom_type": "Cs"}, "3": {"label": "*2", "atom_type": "H0"}, "11": {"label": "*1", "atom_type": "S2s"}, "12": {"label": "*0", "atom_type": "H0"}}

>  <type>  (4) 
ts

$$$$

     RDKit          3D

 13 11  0  0  0  0  0  0  0  0999 V2000
    1.0154   -0.1126    0.8733 C   0  0  0  0  0  0  0  0  0  0  0  0
    1.0154   -1.5184    0.2865 C   0  0  0  0  0  0  0  0  0  0  0  0
    1.0154   -1.5184   -1.2368 C   0  0  0  0  0  0  0  0  0  0  0  0
   -0.0423    0.5577    0.4843 H   0  0  0  0  0  0  0  0  0  0  0  0
    1.8969    0.4460    0.5491 H   0  0  0  0  0  0  0  0  0  0  0  0
    1.0154   -0.1332    1.9644 H   0  0  0  0  0  0  0  0  0  0  0  0
    0.1409   -2.0647    0.6505 H   0  0  0  0  0  0  0  0  0  0  0  0
    1.8899   -2.0647    0.6505 H   0  0  0  0  0  0  0  0  0  0  0  0
    1.8969   -1.0041   -1.6274 H   0  0  0  0  0  0  0  0  0  0  0  0
    1.0154   -2.5333   -1.6379 H   0  0  0  0  0  0  0  0  0  0  0  0
    0.1339   -1.0041   -1.6274 H   0  0  0  0  0  0  0  0  0  0  0  0
   -1.3381    1.3788    0.0078 S   0  0  0  0  0  1  0  0  0  0  0  0
   -1.7670    1.5563    1.2634 H   0  0  0  0  0  0  0  0  0  0  0  0
  1  2  1  0
  1  4  1  0
  1  5  1  0
  1  6  1  0
  2  3  1  0
  2  7  1  0
  2  8  1  0
  3  9  1  0
  3 10  1  0
  3 11  1  0
 12 13  1  0
M  RAD  1  12   2
M  END
>  <reaction>  (5) 
rxn_52

>  <mol_properties>  (5) 
{"0": {"label": "*3", "atom_type": "Cs"}, "1": {"label": "*4", "atom_type": "Cs"}, "3": {"label": "*2", "atom_type": "H0"}, "11": {"label": "*1", "atom_type": "S2s"}, "12": {"label": "*0", "atom_type": "H0"}}

>  <type>  (5) 
unop_1

>  <geom_source>  (5) 
Heuristics

$$$$

     RDKit          3D

 13 11  0  0  0  0  0  0  0  0999 V2000
    1.0196   -0.0958    0.8909 C   0  0  0  0  0  0  0  0  0  0  0  0
    1.0196   -1.5016    0.3042 C   0  0  0  0  0  0  0  0  0  0  0  0
    1.0196   -1.5016   -1.2191 C   0  0  0  0  0  0  0  0  0  0  0  0
   -0.0382    0.5745    0.5020 H   0  0  0  0  0  0  0  0  0  0  0  0
    1.9010    0.4628    0.5668 H   0  0  0  0  0  0  0  0  0  0  0  0
    1.0195   -0.1164    1.9820 H   0  0  0  0  0  0  0  0  0  0  0  0
    0.1450   -2.0479    0.6682 H   0  0  0  0  0  0  0  0  0  0  0  0
    1.8941   -2.0479    0.6682 H   0  0  0  0  0  0  0  0  0  0  0  0
    1.9010   -0.9873   -1.6098 H   0  0  0  0  0  0  0  0  0  0  0  0
    1.0196   -2.5165   -1.6203 H   0  0  0  0  0  0  0  0  0  0  0  0
    0.1381   -0.9873   -1.6098 H   0  0  0  0  0  0  0  0  0  0  0  0
   -1.3340    1.3957    0.0255 S   0  0  0  0  0  1  0  0  0  0  0  0
   -2.0802    0.2884   -0.0697 H   0  0  0  0  0  0  0  0  0  0  0  0
  1  2  1  0
  1  4  1  0
  1  5  1  0
  1  6  1  0
  2  3  1  0
  2  7  1  0
  2  8  1  0
  3  9  1  0
  3 10  1  0
  3 11  1  0
 12 13  1  0
M  RAD  1  12   2
M  END
>  <reaction>  (6) 
rxn_52

>  <mol_properties>  (6) 
{"0": {"label": "*3", "atom_type": "Cs"}, "1": {"label": "*4", "atom_type": "Cs"}, "3": {"label": "*2", "atom_type": "H0"}, "11": {"label": "*1", "atom_type": "S2s"}, "12": {"label": "*0", "atom_type": "H0"}}

>  <type>  (6) 
unop_2

>  <geom_source>  (6) 
Heuristics

$$$$

     RDKit          3D

 13 11  0  0  0  0  0  0  0  0999 V2000
    1.0102   -0.1198    0.8750 C   0  0  0  0  0  0  0  0  0  0  0  0
    1.0102   -1.5256    0.2883 C   0  0  0  0  0  0  0  0  0  0  0  0
    1.0102   -1.5256   -1.2351 C   0  0  0  0  0  0  0  0  0  0  0  0
   -0.0475    0.5505    0.4860 H   0  0  0  0  0  0  0  0  0  0  0  0
    1.8917    0.4388    0.5509 H   0  0  0  0  0  0  0  0  0  0  0  0
    1.0102   -0.1404    1.9661 H   0  0  0  0  0  0  0  0  0  0  0  0
    0.1357   -2.0719    0.6523 H   0  0  0  0  0  0  0  0  0  0  0  0
    1.8847   -2.0719    0.6523 H   0  0  0  0  0  0  0  0  0  0  0  0
    1.8916   -1.0113   -1.6257 H   0  0  0  0  0  0  0  0  0  0  0  0
    1.0102   -2.5405   -1.6362 H   0  0  0  0  0  0  0  0  0  0  0  0
    0.1287   -1.0113   -1.6257 H   0  0  0  0  0  0  0  0  0  0  0  0
   -1.3433    1.3716    0.0095 S   0  0  0  0  0  1  0  0  0  0  0  0
   -1.3745    2.0997    1.1324 H   0  0  0  0  0  0  0  0  0  0  0  0
  1  2  1  0
  1  4  1  0
  1  5  1  0
  1  6  1  0
  2  3  1  0
  2  7  1  0
  2  8  1  0
  3  9  1  0
  3 10  1  0
  3 11  1  0
 12 13  1  0
M  RAD  1  12   2
M  END
>  <reaction>  (7) 
rxn_52

>  <mol_properties>  (7) 
{"0": {"label": "*3", "atom_type": "Cs"}, "1": {"label": "*4", "atom_type": "Cs"}, "3": {"label": "*2", "atom_type": "H0"}, "11": {"label": "*1", "atom_type": "S2s"}, "12": {"label": "*0", "atom_type": "H0"}}

>  <type>  (7) 
unop_3

>  <geom_source>  (7) 
Heuristics

$$$$

     RDKit          3D

 13 11  0  0  0  0  0  0  0  0999 V2000
    1.0055   -0.1088    0.9066 C   0  0  0  0  0  0  0  0  0  0  0  0
    1.0055   -1.5146    0.3199 C   0  0  0  0  0  0  0  0  0  0  0  0
    1.0055   -1.5146   -1.2034 C   0  0  0  0  0  0  0  0  0  0  0  0
   -0.0522    0.5615    0.5176 H   0  0  0  0  0  0  0  0  0  0  0  0
    1.8870    0.4498    0.5825 H   0  0  0  0  0  0  0  0  0  0  0  0
    1.0055   -0.1295    1.9977 H   0  0  0  0  0  0  0  0  0  0  0  0
    0.1310   -2.0609    0.6839 H   0  0  0  0  0  0  0  0  0  0  0  0
    1.8801   -2.0609    0.6839 H   0  0  0  0  0  0  0  0  0  0  0  0
    1.8870   -1.0003   -1.5941 H   0  0  0  0  0  0  0  0  0  0  0  0
    1.0055   -2.5295   -1.6046 H   0  0  0  0  0  0  0  0  0  0  0  0
    0.1241   -1.0003   -1.5941 H   0  0  0  0  0  0  0  0  0  0  0  0
   -1.3480    1.3826    0.0411 S   0  0  0  0  0  1  0  0  0  0  0  0
   -1.0227    1.2709   -1.2525 H   0  0  0  0  0  0  0  0  0  0  0  0
  1  2  1  0
  1  4  1  0
  1  5  1  0
  1  6  1  0
  2  3  1  0
  2  7  1  0
  2  8  1  0
  3  9  1  0
  3 10  1  0
  3 11  1  0
 12 13  1  0
M  RAD  1  12   2
M  END
>  <reaction>  (8) 
rxn_52

>  <mol_properties>  (8) 
{"0": {"label": "*3", "atom_type": "Cs"}, "1": {"label": "*4", "atom_type": "Cs"}, "3": {"label": "*2", "atom_type": "H0"}, "11": {"label": "*1", "atom_type": "S2s"}, "12": {"label": "*0", "atom_type": "H0"}}

>  <type>  (8) 
unop_4

>  <geom_source>  (8) 
Heuristics

$$$$

     RDKit          3D

 13 11  0  0  0  0  0  0  0  0999 V2000
    1.0051   -0.1245    0.8807 C   0  0  0  0  0  0  0  0  0  0  0  0
    1.0051   -1.5303    0.2940 C   0  0  0  0  0  0  0  0  0  0  0  0
    1.0051   -1.5303   -1.2293 C   0  0  0  0  0  0  0  0  0  0  0  0
   -0.0527    0.5458    0.4918 H   0  0  0  0  0  0  0  0  0  0  0  0
    1.8865    0.4340    0.5566 H   0  0  0  0  0  0  0  0  0  0  0  0
    1.0051   -0.1452    1.9718 H   0  0  0  0  0  0  0  0  0  0  0  0
    0.1305   -2.0767    0.6580 H   0  0  0  0  0  0  0  0  0  0  0  0
    1.8796   -2.0767    0.6580 H   0  0  0  0  0  0  0  0  0  0  0  0
    1.8865   -1.0161   -1.6199 H   0  0  0  0  0  0  0  0  0  0  0  0
    1.0051   -2.5452   -1.6305 H   0  0  0  0  0  0  0  0  0  0  0  0
    0.1236   -1.0161   -1.6199 H   0  0  0  0  0  0  0  0  0  0  0  0
   -1.3485    1.3669    0.0153 S   0  0  0  0  0  1  0  0  0  0  0  0
   -0.9874    2.4593    0.6995 H   0  0  0  0  0  0  0  0  0  0  0  0
  1  2  1  0
  1  4  1  0
  1  5  1  0
  1  6  1  0
  2  3  1  0
  2  7  1  0
  2  8  1  0
  3  9  1  0
  3 10  1  0
  3 11  1  0
 12 13  1  0
M  RAD  1  12   2
M  END
>  <reaction>  (9) 
rxn_52

>  <mol_properties>  (9) 
{"0": {"label": "*3", "atom_type": "Cs"}, "1": {"label": "*4", "atom_type": "Cs"}, "3": {"label": "*2", "atom_type": "H0"}, "11": {"label": "*1", "atom_type": "S2s"}, "12": {"label": "*0", "atom_type": "H0"}}

>  <type>  (9) 
unop_5

>  <geom_source>  (9) 
Heuristics

$$$$

     RDKit          3D

 13 11  0  0  0  0  0  0  0  0999 V2000
    1.0017   -0.1165    0.9039 C   0  0  0  0  0  0  0  0  0  0  0  0
    1.0017   -1.5223    0.3172 C   0  0  0  0  0  0  0  0  0  0  0  0
    1.0017   -1.5223   -1.2062 C   0  0  0  0  0  0  0  0  0  0  0  0
   -0.0561    0.5538    0.5149 H   0  0  0  0  0  0  0  0  0  0  0  0
    1.8831    0.4421    0.5797 H   0  0  0  0  0  0  0  0  0  0  0  0
    1.0016   -0.1372    1.9950 H   0  0  0  0  0  0  0  0  0  0  0  0
    0.1271   -2.0686    0.6812 H   0  0  0  0  0  0  0  0  0  0  0  0
    1.8762   -2.0686    0.6812 H   0  0  0  0  0  0  0  0  0  0  0  0
    1.8831   -1.0080   -1.5968 H   0  0  0  0  0  0  0  0  0  0  0  0
    1.0017   -2.5372   -1.6073 H   0  0  0  0  0  0  0  0  0  0  0  0
    0.1202   -1.0080   -1.5968 H   0  0  0  0  0  0  0  0  0  0  0  0
   -1.3519    1.3749    0.0384 S   0  0  0  0  0  1  0  0  0  0  0  0
   -0.7299    1.8526   -1.0464 H   0  0  0  0  0  0  0  0  0  0  0  0
  1  2  1  0
  1  4  1  0
  1  5  1  0
  1  6  1  0
  2  3  1  0
  2  7  1  0
  2  8  1  0
  3  9  1  0
  3 10  1  0
  3 11  1  0
 12 13  1  0
M  RAD  1  12   2
M  END
>  <reaction>  (10) 
rxn_52

>  <mol_properties>  (10) 
{"0": {"label": "*3", "atom_type": "Cs"}, "1": {"label": "*4", "atom_type": "Cs"}, "3": {"label": "*2", "atom_type": "H0"}, "11": {"label": "*1", "atom_type": "S2s"}, "12": {"label": "*0", "atom_type": "H0"}}

>  <type>  (10) 
unop_6

>  <geom_source>  (10) 
Heuristics

$$$$

     RDKit          3D

 13 11  0  0  0  0  0  0  0  0999 V2000
    1.0001   -0.1226    0.8974 C   0  0  0  0  0  0  0  0  0  0  0  0
    1.0001   -1.5285    0.3107 C   0  0  0  0  0  0  0  0  0  0  0  0
    1.0001   -1.5285   -1.2126 C   0  0  0  0  0  0  0  0  0  0  0  0
   -0.0576    0.5476    0.5084 H   0  0  0  0  0  0  0  0  0  0  0  0
    1.8816    0.4359    0.5733 H   0  0  0  0  0  0  0  0  0  0  0  0
    1.0001   -0.1433    1.9885 H   0  0  0  0  0  0  0  0  0  0  0  0
    0.1256   -2.0748    0.6747 H   0  0  0  0  0  0  0  0  0  0  0  0
    1.8747   -2.0748    0.6747 H   0  0  0  0  0  0  0  0  0  0  0  0
    1.8816   -1.0142   -1.6033 H   0  0  0  0  0  0  0  0  0  0  0  0
    1.0001   -2.5433   -1.6138 H   0  0  0  0  0  0  0  0  0  0  0  0
    0.1187   -1.0142   -1.6033 H   0  0  0  0  0  0  0  0  0  0  0  0
   -1.3534    1.3688    0.0319 S   0  0  0  0  0  1  0  0  0  0  0  0
   -0.6152    2.3166   -0.5585 H   0  0  0  0  0  0  0  0  0  0  0  0
  1  2  1  0
  1  4  1  0
  1  5  1  0
  1  6  1  0
  2  3  1  0
  2  7  1  0
  2  8  1  0
  3  9  1  0
  3 10  1  0
  3 11  1  0
 12 13  1  0
M  RAD  1  12   2
M  END
>  <reaction>  (11) 
rxn_52

>  <mol_properties>  (11) 
{"0": {"label": "*3", "atom_type": "Cs"}, "1": {"label": "*4", "atom_type": "Cs"}, "3": {"label": "*2", "atom_type": "H0"}, "11": {"label": "*1", "atom_type": "S2s"}, "12": {"label": "*0", "atom_type": "H0"}}

>  <type>  (11) 
unop_7

>  <geom_source>  (11) 
Heuristics

$$$$

     RDKit          3D

 13 11  0  0  0  0  0  0  0  0999 V2000
    1.0193   -0.1048    0.8760 C   0  0  0  0  0  0  0  0  0  0  0  0
    1.0193   -1.5107    0.2893 C   0  0  0  0  0  0  0  0  0  0  0  0
    1.0193   -1.5107   -1.2341 C   0  0  0  0  0  0  0  0  0  0  0  0
   -0.0385    0.5654    0.4870 H   0  0  0  0  0  0  0  0  0  0  0  0
    1.9007    0.4537    0.5519 H   0  0  0  0  0  0  0  0  0  0  0  0
    1.0193   -0.1255    1.9671 H   0  0  0  0  0  0  0  0  0  0  0  0
    0.1447   -2.0570    0.6533 H   0  0  0  0  0  0  0  0  0  0  0  0
    1.8938   -2.0570    0.6533 H   0  0  0  0  0  0  0  0  0  0  0  0
    1.9007   -0.9964   -1.6247 H   0  0  0  0  0  0  0  0  0  0  0  0
    1.0193   -2.5256   -1.6352 H   0  0  0  0  0  0  0  0  0  0  0  0
    0.1378   -0.9964   -1.6247 H   0  0  0  0  0  0  0  0  0  0  0  0
   -1.3342    1.3866    0.0105 S   0  0  0  0  0  1  0  0  0  0  0  0
   -2.0599    0.9746    1.0573 H   0  0  0  0  0  0  0  0  0  0  0  0
  1  2  1  0
  1  4  1  0
  1  5  1  0
  1  6  1  0
  2  3  1  0
  2  7  1  0
  2  8  1  0
  3  9  1  0
  3 10  1  0
  3 11  1  0
 12 13  1  0
M  RAD  1  12   2
M  END
>  <reaction>  (12) 
rxn_52

>  <mol_properties>  (12) 
{"0": {"label": "*3", "atom_type": "Cs"}, "1": {"label": "*4", "atom_type": "Cs"}, "3": {"label": "*2", "atom_type": "H0"}, "11": {"label": "*1", "atom_type": "S2s"}, "12": {"label": "*0", "atom_type": "H0"}}

>  <type>  (12) 
unop_8

>  <geom_source>  (12) 
Heuristics

$$$$

     RDKit          3D

 13 11  0  0  0  0  0  0  0  0999 V2000
    1.0107   -0.1016    0.9049 C   0  0  0  0  0  0  0  0  0  0  0  0
    1.0107   -1.5074    0.3182 C   0  0  0  0  0  0  0  0  0  0  0  0
    1.0107   -1.5074   -1.2052 C   0  0  0  0  0  0  0  0  0  0  0  0
   -0.0470    0.5687    0.5159 H   0  0  0  0  0  0  0  0  0  0  0  0
    1.8922    0.4570    0.5807 H   0  0  0  0  0  0  0  0  0  0  0  0
    1.0107   -0.1223    1.9960 H   0  0  0  0  0  0  0  0  0  0  0  0
    0.1362   -2.0537    0.6822 H   0  0  0  0  0  0  0  0  0  0  0  0
    1.8853   -2.0537    0.6822 H   0  0  0  0  0  0  0  0  0  0  0  0
    1.8922   -0.9931   -1.5958 H   0  0  0  0  0  0  0  0  0  0  0  0
    1.0107   -2.5223   -1.6063 H   0  0  0  0  0  0  0  0  0  0  0  0
    0.1293   -0.9931   -1.5958 H   0  0  0  0  0  0  0  0  0  0  0  0
   -1.3428    1.3898    0.0394 S   0  0  0  0  0  1  0  0  0  0  0  0
   -1.4153    0.7274   -1.1216 H   0  0  0  0  0  0  0  0  0  0  0  0
  1  2  1  0
  1  4  1  0
  1  5  1  0
  1  6  1  0
  2  3  1  0
  2  7  1  0
  2  8  1  0
  3  9  1  0
  3 10  1  0
  3 11  1  0
 12 13  1  0
M  RAD  1  12   2
M  END
>  <reaction>  (13) 
rxn_52

>  <mol_properties>  (13) 
{"0": {"label": "*3", "atom_type": "Cs"}, "1": {"label": "*4", "atom_type": "Cs"}, "3": {"label": "*2", "atom_type": "H0"}, "11": {"label": "*1", "atom_type": "S2s"}, "12": {"label": "*0", "atom_type": "H0"}}

>  <type>  (13) 
unop_9

>  <geom_source>  (13) 
Heuristics

$$$$

     RDKit          3D

 13 11  0  0  0  0  0  0  0  0999 V2000
    1.0208   -0.0987    0.8825 C   0  0  0  0  0  0  0  0  0  0  0  0
    1.0208   -1.5045    0.2957 C   0  0  0  0  0  0  0  0  0  0  0  0
    1.0208   -1.5045   -1.2276 C   0  0  0  0  0  0  0  0  0  0  0  0
   -0.0369    0.5716    0.4935 H   0  0  0  0  0  0  0  0  0  0  0  0
    1.9023    0.4599    0.5583 H   0  0  0  0  0  0  0  0  0  0  0  0
    1.0208   -0.1194    1.9736 H   0  0  0  0  0  0  0  0  0  0  0  0
    0.1463   -2.0509    0.6597 H   0  0  0  0  0  0  0  0  0  0  0  0
    1.8953   -2.0509    0.6597 H   0  0  0  0  0  0  0  0  0  0  0  0
    1.9023   -0.9902   -1.6182 H   0  0  0  0  0  0  0  0  0  0  0  0
    1.0208   -2.5194   -1.6287 H   0  0  0  0  0  0  0  0  0  0  0  0
    0.1393   -0.9902   -1.6182 H   0  0  0  0  0  0  0  0  0  0  0  0
   -1.3327    1.3927    0.0170 S   0  0  0  0  0  1  0  0  0  0  0  0
   -2.1745    0.5105    0.5693 H   0  0  0  0  0  0  0  0  0  0  0  0
  1  2  1  0
  1  4  1  0
  1  5  1  0
  1  6  1  0
  2  3  1  0
  2  7  1  0
  2  8  1  0
  3  9  1  0
  3 10  1  0
  3 11  1  0
 12 13  1  0
M  RAD  1  12   2
M  END
>  <reaction>  (14) 
rxn_52

>  <mol_properties>  (14) 
{"0": {"label": "*3", "atom_type": "Cs"}, "1": {"label": "*4", "atom_type": "Cs"}, "3": {"label": "*2", "atom_type": "H0"}, "11": {"label": "*1", "atom_type": "S2s"}, "12": {"label": "*0", "atom_type": "H0"}}

>  <type>  (14) 
unop_10

>  <geom_source>  (14) 
Heuristics

$$$$

     RDKit          3D

 13 11  0  0  0  0  0  0  0  0999 V2000
    1.0014   -0.1256    0.8889 C   0  0  0  0  0  0  0  0  0  0  0  0
    1.0014   -1.5314    0.3022 C   0  0  0  0  0  0  0  0  0  0  0  0
    1.0014   -1.5314   -1.2211 C   0  0  0  0  0  0  0  0  0  0  0  0
   -0.0564    0.5447    0.5000 H   0  0  0  0  0  0  0  0  0  0  0  0
    1.8828    0.4330    0.5648 H   0  0  0  0  0  0  0  0  0  0  0  0
    1.0014   -0.1463    1.9800 H   0  0  0  0  0  0  0  0  0  0  0  0
    0.1268   -2.0777    0.6662 H   0  0  0  0  0  0  0  0  0  0  0  0
    1.8759   -2.0777    0.6662 H   0  0  0  0  0  0  0  0  0  0  0  0
    1.8828   -1.0171   -1.6117 H   0  0  0  0  0  0  0  0  0  0  0  0
    1.0014   -2.5463   -1.6223 H   0  0  0  0  0  0  0  0  0  0  0  0
    0.1199   -1.0171   -1.6117 H   0  0  0  0  0  0  0  0  0  0  0  0
   -1.3521    1.3658    0.0235 S   0  0  0  0  0  1  0  0  0  0  0  0
   -0.7095    2.5387    0.0805 H   0  0  0  0  0  0  0  0  0  0  0  0
  1  2  1  0
  1  4  1  0
  1  5  1  0
  1  6  1  0
  2  3  1  0
  2  7  1  0
  2  8  1  0
  3  9  1  0
  3 10  1  0
  3 11  1  0
 12 13  1  0
M  RAD  1  12   2
M  END
>  <reaction>  (15) 
rxn_52

>  <mol_properties>  (15) 
{"0": {"label": "*3", "atom_type": "Cs"}, "1": {"label": "*4", "atom_type": "Cs"}, "3": {"label": "*2", "atom_type": "H0"}, "11": {"label": "*1", "atom_type": "S2s"}, "12": {"label": "*0", "atom_type": "H0"}}

>  <type>  (15) 
unop_11

>  <geom_source>  (15) 
Heuristics

$$$$

     RDKit          3D

 13 11  0  0  0  0  0  0  0  0999 V2000
    1.0159   -0.0968    0.8991 C   0  0  0  0  0  0  0  0  0  0  0  0
    1.0159   -1.5026    0.3124 C   0  0  0  0  0  0  0  0  0  0  0  0
    1.0159   -1.5026   -1.2109 C   0  0  0  0  0  0  0  0  0  0  0  0
   -0.0419    0.5735    0.5102 H   0  0  0  0  0  0  0  0  0  0  0  0
    1.8973    0.4618    0.5750 H   0  0  0  0  0  0  0  0  0  0  0  0
    1.0159   -0.1175    1.9902 H   0  0  0  0  0  0  0  0  0  0  0  0
    0.1413   -2.0490    0.6764 H   0  0  0  0  0  0  0  0  0  0  0  0
    1.8904   -2.0490    0.6764 H   0  0  0  0  0  0  0  0  0  0  0  0
    1.8973   -0.9884   -1.6015 H   0  0  0  0  0  0  0  0  0  0  0  0
    1.0159   -2.5175   -1.6121 H   0  0  0  0  0  0  0  0  0  0  0  0
    0.1344   -0.9884   -1.6015 H   0  0  0  0  0  0  0  0  0  0  0  0
   -1.3377    1.3946    0.0337 S   0  0  0  0  0  1  0  0  0  0  0  0
   -1.8023    0.3678   -0.6886 H   0  0  0  0  0  0  0  0  0  0  0  0
  1  2  1  0
  1  4  1  0
  1  5  1  0
  1  6  1  0
  2  3  1  0
  2  7  1  0
  2  8  1  0
  3  9  1  0
  3 10  1  0
  3 11  1  0
 12 13  1  0
M  RAD  1  12   2
M  END
>  <reaction>  (16) 
rxn_52

>  <mol_properties>  (16) 
{"0": {"label": "*3", "atom_type": "Cs"}, "1": {"label": "*4", "atom_type": "Cs"}, "3": {"label": "*2", "atom_type": "H0"}, "11": {"label": "*1", "atom_type": "S2s"}, "12": {"label": "*0", "atom_type": "H0"}}

>  <type>  (16) 
unop_12

>  <geom_source>  (16) 
Heuristics

$$$$
