
     RDKit          3D

  7  6  0  0  0  0  0  0  0  0999 V2000
    1.6964   -0.0938    0.0583 C   0  0  0  0  0  0  0  0  0  0  0  0
    0.5019   -0.0278    0.0173 C   0  0  0  0  0  0  0  0  0  0  0  0
   -0.9505    0.0525   -0.0327 C   0  0  0  0  0  0  0  0  0  0  0  0
    2.7574   -0.1524    0.0947 H   0  0  0  0  0  0  0  0  0  0  0  0
   -1.2692    0.9972   -0.4754 H   0  0  0  0  0  0  0  0  0  0  0  0
   -1.3749   -0.0147    0.9700 H   0  0  0  0  0  0  0  0  0  0  0  0
   -1.3610   -0.7611   -0.6323 H   0  0  0  0  0  0  0  0  0  0  0  0
  1  2  3  0
  1  4  1  0
  2  3  1  0
  3  5  1  0
  3  6  1  0
  3  7  1  0
M  END
>  <reaction>  (1) 
rxn_1214

>  <mol_properties>  (1) 
{"2": {"label": "donator", "atom_type": "Cs"}, "4": {"label": "d_hydrogen", "atom_type": "H0"}}

>  <type>  (1) 
r1h

$$$$

     RDKit          3D

  4  3  0  0  0  0  0  0  0  0999 V2000
    0.0000    0.0000    0.0000 C   0  0  0  0  0  3  0  0  0  0  0  0
    1.0638   -0.1747    0.0540 H   0  0  0  0  0  0  0  0  0  0  0  0
   -0.6833   -0.8351   -0.0280 H   0  0  0  0  0  0  0  0  0  0  0  0
   -0.3805    1.0098   -0.0260 H   0  0  0  0  0  0  0  0  0  0  0  0
  1  2  1  0
  1  3  1  0
  1  4  1  0
M  RAD  1   1   2
M  END
>  <reaction>  (2) 
rxn_1214

>  <mol_properties>  (2) 
{"0": {"label": "acceptor", "atom_type": "Cs"}}

>  <type>  (2) 
r2

$$$$

     RDKit          3D

  5  4  0  0  0  0  0  0  0  0999 V2000
    0.0000    0.0000    0.0000 C   0  0  0  0  0  0  0  0  0  0  0  0
   -0.6486   -0.7720   -0.4113 H   0  0  0  0  0  0  0  0  0  0  0  0
   -0.3482    0.9787   -0.3267 H   0  0  0  0  0  0  0  0  0  0  0  0
   -0.0223   -0.0487    1.0876 H   0  0  0  0  0  0  0  0  0  0  0  0
    1.0191   -0.1580   -0.3496 H   0  0  0  0  0  0  0  0  0  0  0  0
  1  2  1  0
  1  3  1  0
  1  4  1  0
  1  5  1  0
M  END
>  <reaction>  (3) 
rxn_1214

>  <mol_properties>  (3) 
{"0": {"label": "a_hydrogen", "atom_type": "H0"}, "1": {"label": "acceptor", "atom_type": "Cs"}}

>  <type>  (3) 
r2h

$$$$

     RDKit          3D

 11  9  0  0  0  0  0  0  0  0999 V2000
   -1.1234   -0.7686   -1.5322 C   0  0  0  0  0  0  0  0  0  0  0  0
   -0.3067   -0.7218   -0.6526 C   0  0  0  0  0  0  0  0  0  0  0  0
    0.6390   -0.6090    0.4126 C   0  0  0  0  0  0  0  0  0  0  0  0
   -1.8393   -0.8256   -2.3161 H   0  0  0  0  0  0  0  0  0  0  0  0
    0.4060    0.4844    1.0432 H   0  0  0  0  0  0  0  0  0  0  0  0
    1.6696   -0.5054    0.0788 H   0  0  0  0  0  0  0  0  0  0  0  0
    0.5385   -1.3787    1.1754 H   0  0  0  0  0  0  0  0  0  0  0  0
    0.1417    1.6890    1.7300 C   0  0  0  0  0  3  0  0  0  0  0  0
    0.8833    1.7227    2.5215 H   0  0  0  0  0  0  0  0  0  0  0  0
   -0.8801    1.5568    2.0698 H   0  0  0  0  0  0  0  0  0  0  0  0
    0.2659    2.4418    0.9585 H   0  0  0  0  0  0  0  0  0  0  0  0
  1  2  3  0
  1  4  1  0
  2  3  1  0
  3  5  1  0
  3  6  1  0
  3  7  1  0
  8  9  1  0
  8 10  1  0
  8 11  1  0
M  RAD  1   8   2
M  END
>  <reaction>  (4) 
rxn_1214

>  <mol_properties>  (4) 
{"1": {"label": "*0", "atom_type": "Ct"}, "2": {"label": "*1", "atom_type": "Cs"}, "4": {"label": "*2", "atom_type": "H0"}, "7": {"label": "*3", "atom_type": "Cs"}, "8": {"label": "*4", "atom_type": "H0"}}

>  <type>  (4) 
ts

$$$$

     RDKit          3D

 11  9  0  0  0  0  0  0  0  0999 V2000
   -0.0647   -0.6800   -1.9823 C   0  0  0  0  0  0  0  0  0  0  0  0
   -0.0647   -0.6800   -0.7853 C   0  0  0  0  0  0  0  0  0  0  0  0
   -0.0647   -0.6800    0.6701 C   0  0  0  0  0  3  0  0  0  0  0  0
   -0.0647   -0.6800   -3.0456 H   0  0  0  0  0  0  0  0  0  0  0  0
    0.0467    0.5396    1.1326 H   0  0  0  0  0  0  0  0  0  0  0  0
    0.7690   -1.2685    1.0555 H   0  0  0  0  0  0  0  0  0  0  0  0
   -0.9913   -1.1077    1.0555 H   0  0  0  0  0  0  0  0  0  0  0  0
    0.1580    1.7570    1.5942 C   0  0  0  0  0  0  0  0  0  0  0  0
   -0.7130    1.9955    2.2026 H   0  0  0  0  0  0  0  0  0  0  0  0
    0.6341    2.6792    1.2646 H   0  0  0  0  0  0  0  0  0  0  0  0
    0.7498    1.2104    2.3268 H   0  0  0  0  0  0  0  0  0  0  0  0
  1  2  3  0
  1  4  1  0
  2  3  1  0
  3  6  1  0
  3  7  1  0
  5  8  1  0
  8  9  1  0
  8 10  1  0
  8 11  1  0
M  RAD  1   3   2
M  END
>  <reaction>  (5) 
rxn_1214

>  <mol_properties>  (5) 
{"1": {"label": "*0", "atom_type": "Ct"}, "2": {"label": "*1", "atom_type": "Cs"}, "4": {"label": "*2", "atom_type": "H0"}, "7": {"label": "*3", "atom_type": "Cs"}, "8": {"label": "*4", "atom_type": "H0"}}

>  <type>  (5) 
unop_1

>  <geom_source>  (5) 
Heuristics

$$$$

     RDKit          3D

 11  9  0  0  0  0  0  0  0  0999 V2000
   -0.0638   -0.6778   -1.9730 C   0  0  0  0  0  0  0  0  0  0  0  0
   -0.0638   -0.6778   -0.7760 C   0  0  0  0  0  0  0  0  0  0  0  0
   -0.0638   -0.6778    0.6795 C   0  0  0  0  0  3  0  0  0  0  0  0
   -0.0638   -0.6778   -3.0363 H   0  0  0  0  0  0  0  0  0  0  0  0
    0.0477    0.5418    1.1419 H   0  0  0  0  0  0  0  0  0  0  0  0
    0.7699   -1.2664    1.0648 H   0  0  0  0  0  0  0  0  0  0  0  0
   -0.9904   -1.1055    1.0648 H   0  0  0  0  0  0  0  0  0  0  0  0
    0.1590    1.7592    1.6035 C   0  0  0  0  0  0  0  0  0  0  0  0
   -0.2927    2.4568    0.8999 H   0  0  0  0  0  0  0  0  0  0  0  0
    1.0920    2.1760    1.9795 H   0  0  0  0  0  0  0  0  0  0  0  0
   -0.1779    1.1401    2.4336 H   0  0  0  0  0  0  0  0  0  0  0  0
  1  2  3  0
  1  4  1  0
  2  3  1  0
  3  6  1  0
  3  7  1  0
  5  8  1  0
  8  9  1  0
  8 10  1  0
  8 11  1  0
M  RAD  1   3   2
M  END
>  <reaction>  (6) 
rxn_1214

>  <mol_properties>  (6) 
{"1": {"label": "*0", "atom_type": "Ct"}, "2": {"label": "*1", "atom_type": "Cs"}, "4": {"label": "*2", "atom_type": "H0"}, "7": {"label": "*3", "atom_type": "Cs"}, "8": {"label": "*4", "atom_type": "H0"}}

>  <type>  (6) 
unop_2

>  <geom_source>  (6) 
Heuristics

$$$$

     RDKit          3D

 11  9  0  0  0  0  0  0  0  0999 V2000
   -0.0677   -0.6835   -1.9812 C   0  0  0  0  0  0  0  0  0  0  0  0
   -0.0677   -0.6835   -0.7841 C   0  0  0  0  0  0  0  0  0  0  0  0
   -0.0677   -0.6835    0.6713 C   0  0  0  0  0  3  0  0  0  0  0  0
   -0.0677   -0.6835   -3.0444 H   0  0  0  0  0  0  0  0  0  0  0  0
    0.0438    0.5360    1.1337 H   0  0  0  0  0  0  0  0  0  0  0  0
    0.7660   -1.2721    1.0567 H   0  0  0  0  0  0  0  0  0  0  0  0
   -0.9943   -1.1112    1.0567 H   0  0  0  0  0  0  0  0  0  0  0  0
    0.1550    1.7534    1.5953 C   0  0  0  0  0  0  0  0  0  0  0  0
   -0.3539    1.8255    2.5553 H   0  0  0  0  0  0  0  0  0  0  0  0
    0.0855    2.7075    1.0751 H   0  0  0  0  0  0  0  0  0  0  0  0
    1.0927    1.5359    2.1045 H   0  0  0  0  0  0  0  0  0  0  0  0
  1  2  3  0
  1  4  1  0
  2  3  1  0
  3  6  1  0
  3  7  1  0
  5  8  1  0
  8  9  1  0
  8 10  1  0
  8 11  1  0
M  RAD  1   3   2
M  END
>  <reaction>  (7) 
rxn_1214

>  <mol_properties>  (7) 
{"1": {"label": "*0", "atom_type": "Ct"}, "2": {"label": "*1", "atom_type": "Cs"}, "4": {"label": "*2", "atom_type": "H0"}, "7": {"label": "*3", "atom_type": "Cs"}, "8": {"label": "*4", "atom_type": "H0"}}

>  <type>  (7) 
unop_3

>  <geom_source>  (7) 
Heuristics

$$$$

     RDKit          3D

 11  9  0  0  0  0  0  0  0  0999 V2000
   -0.0642   -0.6766   -1.9773 C   0  0  0  0  0  0  0  0  0  0  0  0
   -0.0642   -0.6766   -0.7802 C   0  0  0  0  0  0  0  0  0  0  0  0
   -0.0642   -0.6766    0.6752 C   0  0  0  0  0  3  0  0  0  0  0  0
   -0.0642   -0.6766   -3.0406 H   0  0  0  0  0  0  0  0  0  0  0  0
    0.0472    0.5430    1.1376 H   0  0  0  0  0  0  0  0  0  0  0  0
    0.7695   -1.2652    1.0606 H   0  0  0  0  0  0  0  0  0  0  0  0
   -0.9908   -1.1043    1.0605 H   0  0  0  0  0  0  0  0  0  0  0  0
    0.1585    1.7604    1.5992 C   0  0  0  0  0  0  0  0  0  0  0  0
    1.0913    2.1982    1.2472 H   0  0  0  0  0  0  0  0  0  0  0  0
    0.3367    1.2283    2.5325 H   0  0  0  0  0  0  0  0  0  0  0  0
   -0.7828    2.2852    1.7549 H   0  0  0  0  0  0  0  0  0  0  0  0
  1  2  3  0
  1  4  1  0
  2  3  1  0
  3  6  1  0
  3  7  1  0
  5  8  1  0
  8  9  1  0
  8 10  1  0
  8 11  1  0
M  RAD  1   3   2
M  END
>  <reaction>  (8) 
rxn_1214

>  <mol_properties>  (8) 
{"1": {"label": "*0", "atom_type": "Ct"}, "2": {"label": "*1", "atom_type": "Cs"}, "4": {"label": "*2", "atom_type": "H0"}, "7": {"label": "*3", "atom_type": "Cs"}, "8": {"label": "*4", "atom_type": "H0"}}

>  <type>  (8) 
unop_4

>  <geom_source>  (8) 
Heuristics

$$$$

     RDKit          3D

 11  9  0  0  0  0  0  0  0  0999 V2000
   -0.0637   -0.6879   -1.9788 C   0  0  0  0  0  0  0  0  0  0  0  0
   -0.0637   -0.6879   -0.7817 C   0  0  0  0  0  0  0  0  0  0  0  0
   -0.0637   -0.6879    0.6737 C   0  0  0  0  0  3  0  0  0  0  0  0
   -0.0637   -0.6879   -3.0420 H   0  0  0  0  0  0  0  0  0  0  0  0
    0.0478    0.5317    1.1361 H   0  0  0  0  0  0  0  0  0  0  0  0
    0.7700   -1.2765    1.0591 H   0  0  0  0  0  0  0  0  0  0  0  0
   -0.9903   -1.1156    1.0591 H   0  0  0  0  0  0  0  0  0  0  0  0
    0.1591    1.7491    1.5977 C   0  0  0  0  0  0  0  0  0  0  0  0
    0.1570    1.7261    2.6864 H   0  0  0  0  0  0  0  0  0  0  0  0
   -0.6789    2.3488    1.2457 H   0  0  0  0  0  0  0  0  0  0  0  0
    1.1382    2.2187    1.6788 H   0  0  0  0  0  0  0  0  0  0  0  0
  1  2  3  0
  1  4  1  0
  2  3  1  0
  3  6  1  0
  3  7  1  0
  5  8  1  0
  8  9  1  0
  8 10  1  0
  8 11  1  0
M  RAD  1   3   2
M  END
>  <reaction>  (9) 
rxn_1214

>  <mol_properties>  (9) 
{"1": {"label": "*0", "atom_type": "Ct"}, "2": {"label": "*1", "atom_type": "Cs"}, "4": {"label": "*2", "atom_type": "H0"}, "7": {"label": "*3", "atom_type": "Cs"}, "8": {"label": "*4", "atom_type": "H0"}}

>  <type>  (9) 
unop_5

>  <geom_source>  (9) 
Heuristics

$$$$

     RDKit          3D

 11  9  0  0  0  0  0  0  0  0999 V2000
   -0.0626   -0.6787   -1.9802 C   0  0  0  0  0  0  0  0  0  0  0  0
   -0.0626   -0.6787   -0.7831 C   0  0  0  0  0  0  0  0  0  0  0  0
   -0.0626   -0.6787    0.6723 C   0  0  0  0  0  3  0  0  0  0  0  0
   -0.0626   -0.6787   -3.0434 H   0  0  0  0  0  0  0  0  0  0  0  0
    0.0488    0.5409    1.1347 H   0  0  0  0  0  0  0  0  0  0  0  0
    0.7711   -1.2673    1.0577 H   0  0  0  0  0  0  0  0  0  0  0  0
   -0.9892   -1.1064    1.0577 H   0  0  0  0  0  0  0  0  0  0  0  0
    0.1601    1.7583    1.5963 C   0  0  0  0  0  0  0  0  0  0  0  0
    1.2134    2.0030    1.7245 H   0  0  0  0  0  0  0  0  0  0  0  0
   -0.1829    1.1730    2.4482 H   0  0  0  0  0  0  0  0  0  0  0  0
   -0.4682    2.6435    1.5109 H   0  0  0  0  0  0  0  0  0  0  0  0
  1  2  3  0
  1  4  1  0
  2  3  1  0
  3  6  1  0
  3  7  1  0
  5  8  1  0
  8  9  1  0
  8 10  1  0
  8 11  1  0
M  RAD  1   3   2
M  END
>  <reaction>  (10) 
rxn_1214

>  <mol_properties>  (10) 
{"1": {"label": "*0", "atom_type": "Ct"}, "2": {"label": "*1", "atom_type": "Cs"}, "4": {"label": "*2", "atom_type": "H0"}, "7": {"label": "*3", "atom_type": "Cs"}, "8": {"label": "*4", "atom_type": "H0"}}

>  <type>  (10) 
unop_6

>  <geom_source>  (10) 
Heuristics

$$$$

     RDKit          3D

 11  9  0  0  0  0  0  0  0  0999 V2000
   -0.0599   -0.6813   -1.9818 C   0  0  0  0  0  0  0  0  0  0  0  0
   -0.0599   -0.6813   -0.7847 C   0  0  0  0  0  0  0  0  0  0  0  0
   -0.0599   -0.6813    0.6707 C   0  0  0  0  0  3  0  0  0  0  0  0
   -0.0599   -0.6813   -3.0450 H   0  0  0  0  0  0  0  0  0  0  0  0
    0.0516    0.5383    1.1331 H   0  0  0  0  0  0  0  0  0  0  0  0
    0.7738   -1.2699    1.0561 H   0  0  0  0  0  0  0  0  0  0  0  0
   -0.9865   -1.1090    1.0561 H   0  0  0  0  0  0  0  0  0  0  0  0
    0.1628    1.7557    1.5947 C   0  0  0  0  0  0  0  0  0  0  0  0
    1.0626    1.8323    2.2032 H   0  0  0  0  0  0  0  0  0  0  0  0
   -0.6373    1.3109    2.1844 H   0  0  0  0  0  0  0  0  0  0  0  0
   -0.0031    2.8099    1.3784 H   0  0  0  0  0  0  0  0  0  0  0  0
  1  2  3  0
  1  4  1  0
  2  3  1  0
  3  6  1  0
  3  7  1  0
  5  8  1  0
  8  9  1  0
  8 10  1  0
  8 11  1  0
M  RAD  1   3   2
M  END
>  <reaction>  (11) 
rxn_1214

>  <mol_properties>  (11) 
{"1": {"label": "*0", "atom_type": "Ct"}, "2": {"label": "*1", "atom_type": "Cs"}, "4": {"label": "*2", "atom_type": "H0"}, "7": {"label": "*3", "atom_type": "Cs"}, "8": {"label": "*4", "atom_type": "H0"}}

>  <type>  (11) 
unop_7

>  <geom_source>  (11) 
Heuristics

$$$$

     RDKit          3D

 11  9  0  0  0  0  0  0  0  0999 V2000
   -0.0616   -0.6792   -1.9799 C   0  0  0  0  0  0  0  0  0  0  0  0
   -0.0616   -0.6792   -0.7829 C   0  0  0  0  0  0  0  0  0  0  0  0
   -0.0616   -0.6792    0.6725 C   0  0  0  0  0  3  0  0  0  0  0  0
   -0.0616   -0.6792   -3.0432 H   0  0  0  0  0  0  0  0  0  0  0  0
    0.0499    0.5404    1.1349 H   0  0  0  0  0  0  0  0  0  0  0  0
    0.7721   -1.2677    1.0579 H   0  0  0  0  0  0  0  0  0  0  0  0
   -0.9882   -1.1069    1.0579 H   0  0  0  0  0  0  0  0  0  0  0  0
    0.1611    1.7578    1.5966 C   0  0  0  0  0  0  0  0  0  0  0  0
   -0.8303    2.1894    1.7248 H   0  0  0  0  0  0  0  0  0  0  0  0
    0.8987    2.5561    1.5300 H   0  0  0  0  0  0  0  0  0  0  0  0
    0.4402    1.0983    2.4169 H   0  0  0  0  0  0  0  0  0  0  0  0
  1  2  3  0
  1  4  1  0
  2  3  1  0
  3  6  1  0
  3  7  1  0
  5  8  1  0
  8  9  1  0
  8 10  1  0
  8 11  1  0
M  RAD  1   3   2
M  END
>  <reaction>  (12) 
rxn_1214

>  <mol_properties>  (12) 
{"1": {"label": "*0", "atom_type": "Ct"}, "2": {"label": "*1", "atom_type": "Cs"}, "4": {"label": "*2", "atom_type": "H0"}, "7": {"label": "*3", "atom_type": "Cs"}, "8": {"label": "*4", "atom_type": "H0"}}

>  <type>  (12) 
unop_8

>  <geom_source>  (12) 
Heuristics

$$$$

     RDKit          3D

 11  9  0  0  0  0  0  0  0  0999 V2000
   -0.0652   -0.6751   -1.9745 C   0  0  0  0  0  0  0  0  0  0  0  0
   -0.0652   -0.6751   -0.7775 C   0  0  0  0  0  0  0  0  0  0  0  0
   -0.0652   -0.6751    0.6779 C   0  0  0  0  0  3  0  0  0  0  0  0
   -0.0652   -0.6751   -3.0378 H   0  0  0  0  0  0  0  0  0  0  0  0
    0.0462    0.5444    1.1403 H   0  0  0  0  0  0  0  0  0  0  0  0
    0.7685   -1.2637    1.0633 H   0  0  0  0  0  0  0  0  0  0  0  0
   -0.9918   -1.1028    1.0633 H   0  0  0  0  0  0  0  0  0  0  0  0
    0.1575    1.7618    1.6019 C   0  0  0  0  0  0  0  0  0  0  0  0
    0.7282    2.3660    0.8984 H   0  0  0  0  0  0  0  0  0  0  0  0
    0.7979    1.4707    2.4332 H   0  0  0  0  0  0  0  0  0  0  0  0
   -0.8288    1.7995    2.0619 H   0  0  0  0  0  0  0  0  0  0  0  0
  1  2  3  0
  1  4  1  0
  2  3  1  0
  3  6  1  0
  3  7  1  0
  5  8  1  0
  8  9  1  0
  8 10  1  0
  8 11  1  0
M  RAD  1   3   2
M  END
>  <reaction>  (13) 
rxn_1214

>  <mol_properties>  (13) 
{"1": {"label": "*0", "atom_type": "Ct"}, "2": {"label": "*1", "atom_type": "Cs"}, "4": {"label": "*2", "atom_type": "H0"}, "7": {"label": "*3", "atom_type": "Cs"}, "8": {"label": "*4", "atom_type": "H0"}}

>  <type>  (13) 
unop_9

>  <geom_source>  (13) 
Heuristics

$$$$

     RDKit          3D

 11  9  0  0  0  0  0  0  0  0999 V2000
   -0.0615   -0.6790   -1.9759 C   0  0  0  0  0  0  0  0  0  0  0  0
   -0.0615   -0.6790   -0.7789 C   0  0  0  0  0  0  0  0  0  0  0  0
   -0.0615   -0.6790    0.6765 C   0  0  0  0  0  3  0  0  0  0  0  0
   -0.0615   -0.6790   -3.0392 H   0  0  0  0  0  0  0  0  0  0  0  0
    0.0500    0.5405    1.1389 H   0  0  0  0  0  0  0  0  0  0  0  0
    0.7722   -1.2676    1.0619 H   0  0  0  0  0  0  0  0  0  0  0  0
   -0.9881   -1.1067    1.0619 H   0  0  0  0  0  0  0  0  0  0  0  0
    0.1613    1.7579    1.6005 C   0  0  0  0  0  0  0  0  0  0  0  0
   -0.6768    2.3576    1.2485 H   0  0  0  0  0  0  0  0  0  0  0  0
    1.0237    2.4016    1.7667 H   0  0  0  0  0  0  0  0  0  0  0  0
    0.1561    1.0770    2.4502 H   0  0  0  0  0  0  0  0  0  0  0  0
  1  2  3  0
  1  4  1  0
  2  3  1  0
  3  6  1  0
  3  7  1  0
  5  8  1  0
  8  9  1  0
  8 10  1  0
  8 11  1  0
M  RAD  1   3   2
M  END
>  <reaction>  (14) 
rxn_1214

>  <mol_properties>  (14) 
{"1": {"label": "*0", "atom_type": "Ct"}, "2": {"label": "*1", "atom_type": "Cs"}, "4": {"label": "*2", "atom_type": "H0"}, "7": {"label": "*3", "atom_type": "Cs"}, "8": {"label": "*4", "atom_type": "H0"}}

>  <type>  (14) 
unop_10

>  <geom_source>  (14) 
Heuristics

$$$$

     RDKit          3D

 11  9  0  0  0  0  0  0  0  0999 V2000
   -0.0585   -0.6853   -1.9806 C   0  0  0  0  0  0  0  0  0  0  0  0
   -0.0585   -0.6853   -0.7835 C   0  0  0  0  0  0  0  0  0  0  0  0
   -0.0585   -0.6853    0.6719 C   0  0  0  0  0  3  0  0  0  0  0  0
   -0.0585   -0.6853   -3.0438 H   0  0  0  0  0  0  0  0  0  0  0  0
    0.0530    0.5342    1.1343 H   0  0  0  0  0  0  0  0  0  0  0  0
    0.7752   -1.2739    1.0573 H   0  0  0  0  0  0  0  0  0  0  0  0
   -0.9851   -1.1130    1.0573 H   0  0  0  0  0  0  0  0  0  0  0  0
    0.1642    1.7516    1.5959 C   0  0  0  0  0  0  0  0  0  0  0  0
    0.6778    1.7303    2.5559 H   0  0  0  0  0  0  0  0  0  0  0  0
   -0.9111    1.6961    1.7582 H   0  0  0  0  0  0  0  0  0  0  0  0
    0.5823    2.7358    1.3900 H   0  0  0  0  0  0  0  0  0  0  0  0
  1  2  3  0
  1  4  1  0
  2  3  1  0
  3  6  1  0
  3  7  1  0
  5  8  1  0
  8  9  1  0
  8 10  1  0
  8 11  1  0
M  RAD  1   3   2
M  END
>  <reaction>  (15) 
rxn_1214

>  <mol_properties>  (15) 
{"1": {"label": "*0", "atom_type": "Ct"}, "2": {"label": "*1", "atom_type": "Cs"}, "4": {"label": "*2", "atom_type": "H0"}, "7": {"label": "*3", "atom_type": "Cs"}, "8": {"label": "*4", "atom_type": "H0"}}

>  <type>  (15) 
unop_11

>  <geom_source>  (15) 
Heuristics

$$$$

     RDKit          3D

 11  9  0  0  0  0  0  0  0  0999 V2000
   -0.0655   -0.6757   -1.9727 C   0  0  0  0  0  0  0  0  0  0  0  0
   -0.0655   -0.6757   -0.7757 C   0  0  0  0  0  0  0  0  0  0  0  0
   -0.0655   -0.6757    0.6797 C   0  0  0  0  0  3  0  0  0  0  0  0
   -0.0655   -0.6757   -3.0360 H   0  0  0  0  0  0  0  0  0  0  0  0
    0.0460    0.5438    1.1422 H   0  0  0  0  0  0  0  0  0  0  0  0
    0.7682   -1.2643    1.0651 H   0  0  0  0  0  0  0  0  0  0  0  0
   -0.9921   -1.1034    1.0651 H   0  0  0  0  0  0  0  0  0  0  0  0
    0.1572    1.7612    1.6038 C   0  0  0  0  0  0  0  0  0  0  0  0
    0.2211    2.4606    0.7715 H   0  0  0  0  0  0  0  0  0  0  0  0
    1.0570    1.8379    2.2122 H   0  0  0  0  0  0  0  0  0  0  0  0
   -0.5669    1.3682    2.3157 H   0  0  0  0  0  0  0  0  0  0  0  0
  1  2  3  0
  1  4  1  0
  2  3  1  0
  3  6  1  0
  3  7  1  0
  5  8  1  0
  8  9  1  0
  8 10  1  0
  8 11  1  0
M  RAD  1   3   2
M  END
>  <reaction>  (16) 
rxn_1214

>  <mol_properties>  (16) 
{"1": {"label": "*0", "atom_type": "Ct"}, "2": {"label": "*1", "atom_type": "Cs"}, "4": {"label": "*2", "atom_type": "H0"}, "7": {"label": "*3", "atom_type": "Cs"}, "8": {"label": "*4", "atom_type": "H0"}}

>  <type>  (16) 
unop_12

>  <geom_source>  (16) 
Heuristics

$$$$

     RDKit          3D

 11  9  0  0  0  0  0  0  0  0999 V2000
   -1.6586    0.3365    0.0087 C   0  0  0  0  0  0  0  0  0  0  0  0
    0.5206   -1.1128   -0.0346 C   0  0  0  0  0  3  0  0  0  0  0  0
    1.3878    0.0655   -0.0203 C   0  0  0  0  0  0  0  0  0  0  0  0
    2.1021    1.0365   -0.0086 C   0  0  0  0  0  0  0  0  0  0  0  0
   -2.6504   -0.0733   -0.2727 H   0  0  0  0  0  0  0  0  0  0  0  0
   -1.7071    0.7485    1.0376 H   0  0  0  0  0  0  0  0  0  0  0  0
   -1.3772    1.1426   -0.6995 H   0  0  0  0  0  0  0  0  0  0  0  0
   -0.7863   -0.5928   -0.0365 H   0  0  0  0  0  0  0  0  0  0  0  0
    0.7953   -1.7644   -0.8895 H   0  0  0  0  0  0  0  0  0  0  0  0
    0.6445   -1.6752    0.9137 H   0  0  0  0  0  0  0  0  0  0  0  0
    2.7293    1.8889    0.0017 H   0  0  0  0  0  0  0  0  0  0  0  0
  1  5  1  0
  1  6  1  0
  1  7  1  0
  1  8  1  0
  2  3  1  0
  2  9  1  0
  2 10  1  0
  3  4  3  0
  4 11  1  0
M  RAD  1   2   2
M  END
>  <reaction>  (17) 
rxn_1214

>  <mol_properties>  (17) 
{"1": {"label": "*0", "atom_type": "Ct"}, "2": {"label": "*1", "atom_type": "Cs"}, "4": {"label": "*2", "atom_type": "H0"}, "7": {"label": "*3", "atom_type": "Cs"}, "8": {"label": "*4", "atom_type": "H0"}}

>  <type>  (17) 
unop_13

>  <geom_source>  (17) 
AutoTST

$$$$
