
     RDKit          3D

 11 10  0  0  0  0  0  0  0  0999 V2000
   -1.2710    0.1907   -0.2084 C   0  0  0  0  0  0  0  0  0  0  0  0
    0.0202   -0.6130   -0.2928 C   0  0  0  0  0  0  0  0  0  0  0  0
    0.1086   -1.6953    0.7756 C   0  0  0  0  0  0  0  0  0  0  0  0
   -1.3607    0.6851    0.7620 H   0  0  0  0  0  0  0  0  0  0  0  0
   -2.1429   -0.4567   -0.3299 H   0  0  0  0  0  0  0  0  0  0  0  0
   -1.3158    0.9602   -0.9809 H   0  0  0  0  0  0  0  0  0  0  0  0
    0.8757    0.0616   -0.1992 H   0  0  0  0  0  0  0  0  0  0  0  0
    0.0997   -1.0712   -1.2825 H   0  0  0  0  0  0  0  0  0  0  0  0
   -0.7198   -2.4022    0.6850 H   0  0  0  0  0  0  0  0  0  0  0  0
    1.0395   -2.2596    0.6989 H   0  0  0  0  0  0  0  0  0  0  0  0
    0.0624   -1.2603    1.7770 H   0  0  0  0  0  0  0  0  0  0  0  0
  1  2  1  0
  1  4  1  0
  1  5  1  0
  1  6  1  0
  2  3  1  0
  2  7  1  0
  2  8  1  0
  3  9  1  0
  3 10  1  0
  3 11  1  0
M  END
>  <reaction>  (1) 
rxn_944

>  <mol_properties>  (1) 
{"1": {"label": "donator", "atom_type": "Cs"}, "6": {"label": "d_hydrogen", "atom_type": "H0"}}

>  <type>  (1) 
r1h

$$$$

     RDKit          3D

 10  9  0  0  0  0  0  0  0  0999 V2000
   -1.2648    0.1959    0.8197 C   0  0  0  0  0  0  0  0  0  0  0  0
   -0.2805    0.0995   -0.3030 C   0  0  0  0  0  3  0  0  0  0  0  0
   -0.0444    1.1347   -1.1797 C   0  0  0  0  0  0  0  0  0  0  0  0
    0.1640    2.0467   -1.9525 C   0  0  0  0  0  0  0  0  0  0  0  0
    0.5686   -1.4168   -0.4488 S   0  0  0  0  0  0  0  0  0  0  0  0
   -2.0466   -0.5638    0.7258 H   0  0  0  0  0  0  0  0  0  0  0  0
   -0.7765    0.0454    1.7871 H   0  0  0  0  0  0  0  0  0  0  0  0
   -1.7371    1.1762    0.8222 H   0  0  0  0  0  0  0  0  0  0  0  0
    0.3433    2.8484   -2.6273 H   0  0  0  0  0  0  0  0  0  0  0  0
    1.3075   -1.0953   -1.5176 H   0  0  0  0  0  0  0  0  0  0  0  0
  1  2  1  0
  1  6  1  0
  1  7  1  0
  1  8  1  0
  2  3  1  0
  2  5  1  0
  3  4  3  0
  4  9  1  0
  5 10  1  0
M  RAD  1   2   2
M  END
>  <reaction>  (2) 
rxn_944

>  <mol_properties>  (2) 
{"1": {"label": "acceptor", "atom_type": "Cs"}}

>  <type>  (2) 
r2

$$$$

     RDKit          3D

 11 10  0  0  0  0  0  0  0  0999 V2000
   -1.2582   -0.5130    0.2160 C   0  0  0  0  0  0  0  0  0  0  0  0
   -0.1109    0.0509   -0.6210 C   0  0  0  0  0  0  0  0  0  0  0  0
    1.1862   -0.2025   -0.0072 C   0  0  0  0  0  0  0  0  0  0  0  0
    2.2351   -0.4206    0.5274 C   0  0  0  0  0  0  0  0  0  0  0  0
   -0.3298    1.8272   -1.0120 S   0  0  0  0  0  0  0  0  0  0  0  0
   -1.2875   -0.0327    1.1945 H   0  0  0  0  0  0  0  0  0  0  0  0
   -2.2088   -0.3391   -0.2866 H   0  0  0  0  0  0  0  0  0  0  0  0
   -1.1220   -1.5854    0.3655 H   0  0  0  0  0  0  0  0  0  0  0  0
   -0.1222   -0.4181   -1.6078 H   0  0  0  0  0  0  0  0  0  0  0  0
    3.1729   -0.6098    0.9920 H   0  0  0  0  0  0  0  0  0  0  0  0
   -0.1942    2.2663    0.2466 H   0  0  0  0  0  0  0  0  0  0  0  0
  1  2  1  0
  1  6  1  0
  1  7  1  0
  1  8  1  0
  2  3  1  0
  2  5  1  0
  2  9  1  0
  3  4  3  0
  4 10  1  0
  5 11  1  0
M  END
>  <reaction>  (3) 
rxn_944

>  <mol_properties>  (3) 
{"1": {"label": "acceptor", "atom_type": "Cs"}, "10": {"label": "a_hydrogen", "atom_type": "H0"}}

>  <type>  (3) 
r2h

$$$$

     RDKit          3D

 21 19  0  0  0  0  0  0  0  0999 V2000
    0.2865   -0.3437    2.1554 C   0  0  0  0  0  0  0  0  0  0  0  0
    0.4252   -0.4644    0.6489 C   0  0  0  0  0  0  0  0  0  0  0  0
    0.3818   -1.8005    0.1336 C   0  0  0  0  0  0  0  0  0  0  0  0
    0.2830   -2.9037   -0.3314 C   0  0  0  0  0  0  0  0  0  0  0  0
    1.8255    0.5146    0.0606 S   0  0  0  0  0  0  0  0  0  0  0  0
    1.1279   -0.8094    2.6724 H   0  0  0  0  0  0  0  0  0  0  0  0
    0.2363    0.7068    2.4463 H   0  0  0  0  0  0  0  0  0  0  0  0
   -0.6307   -0.8368    2.4784 H   0  0  0  0  0  0  0  0  0  0  0  0
    0.2127   -3.8863   -0.7316 H   0  0  0  0  0  0  0  0  0  0  0  0
    1.7467    0.1411   -1.2227 H   0  0  0  0  0  0  0  0  0  0  0  0
   -1.5057    0.7551   -1.8095 C   0  0  0  0  0  0  0  0  0  0  0  0
   -1.7535    0.7891   -0.3294 C   0  0  0  0  0  3  0  0  0  0  0  0
   -1.7270    2.1342    0.3365 C   0  0  0  0  0  0  0  0  0  0  0  0
   -0.6021    1.3150   -2.0643 H   0  0  0  0  0  0  0  0  0  0  0  0
   -2.3363    1.2104   -2.3618 H   0  0  0  0  0  0  0  0  0  0  0  0
   -1.3895   -0.2683   -2.1709 H   0  0  0  0  0  0  0  0  0  0  0  0
   -0.6305    0.1113    0.1861 H   0  0  0  0  0  0  0  0  0  0  0  0
   -2.5579    0.1334    0.0031 H   0  0  0  0  0  0  0  0  0  0  0  0
   -2.5143    2.7873   -0.0591 H   0  0  0  0  0  0  0  0  0  0  0  0
   -1.8779    2.0547    1.4142 H   0  0  0  0  0  0  0  0  0  0  0  0
   -0.7708    2.6343    0.1606 H   0  0  0  0  0  0  0  0  0  0  0  0
  1  2  1  0
  1  6  1  0
  1  7  1  0
  1  8  1  0
  2  3  1  0
  2  5  1  0
  2 17  1  0
  3  4  3  0
  4  9  1  0
  5 10  1  0
 11 12  1  0
 11 14  1  0
 11 15  1  0
 11 16  1  0
 12 13  1  0
 12 18  1  0
 13 19  1  0
 13 20  1  0
 13 21  1  0
M  RAD  1  12   2
M  END
>  <reaction>  (4) 
rxn_944

>  <mol_properties>  (4) 
{"1": {"label": "*1", "atom_type": "Cs"}, "4": {"label": "*0", "atom_type": "S2s"}, "10": {"label": "*4", "atom_type": "Cs"}, "11": {"label": "*3", "atom_type": "Cs"}, "16": {"label": "*2", "atom_type": "H0"}}

>  <type>  (4) 
ts

$$$$

     RDKit          3D

 21 19  0  0  0  0  0  0  0  0999 V2000
    1.5329    0.7083    1.1273 C   0  0  0  0  0  0  0  0  0  0  0  0
    0.6730   -0.2281    0.2798 C   0  0  0  0  0  0  0  0  0  0  0  0
   -0.4499   -0.7686    1.0351 C   0  0  0  0  0  0  0  0  0  0  0  0
   -1.3574   -1.2003    1.6860 C   0  0  0  0  0  0  0  0  0  0  0  0
    1.6500   -1.5608   -0.5109 S   0  0  0  0  0  0  0  0  0  0  0  0
    1.9667    0.1687    1.9697 H   0  0  0  0  0  0  0  0  0  0  0  0
    2.3406    1.1224    0.5250 H   0  0  0  0  0  0  0  0  0  0  0  0
    0.9239    1.5239    1.5208 H   0  0  0  0  0  0  0  0  0  0  0  0
   -2.1635   -1.5837    2.2641 H   0  0  0  0  0  0  0  0  0  0  0  0
    1.9731   -2.1921    0.6259 H   0  0  0  0  0  0  0  0  0  0  0  0
   -1.4251    1.0827   -2.1169 C   0  0  0  0  0  0  0  0  0  0  0  0
   -1.4251    1.0827   -0.5935 C   0  0  0  0  0  3  0  0  0  0  0  0
   -1.4251    2.4885   -0.0068 C   0  0  0  0  0  0  0  0  0  0  0  0
   -0.5437    1.5969   -2.5075 H   0  0  0  0  0  0  0  0  0  0  0  0
   -2.3066    1.5969   -2.5075 H   0  0  0  0  0  0  0  0  0  0  0  0
   -1.4251    0.0678   -2.5180 H   0  0  0  0  0  0  0  0  0  0  0  0
   -0.3757    0.4270   -0.1567 H   0  0  0  0  0  0  0  0  0  0  0  0
   -2.2997    0.5363   -0.2295 H   0  0  0  0  0  0  0  0  0  0  0  0
   -2.3066    3.0471   -0.3310 H   0  0  0  0  0  0  0  0  0  0  0  0
   -1.4251    2.4678    1.0843 H   0  0  0  0  0  0  0  0  0  0  0  0
   -0.5437    3.0470   -0.3310 H   0  0  0  0  0  0  0  0  0  0  0  0
  1  2  1  0
  1  6  1  0
  1  7  1  0
  1  8  1  0
  2  3  1  0
  2  5  1  0
  2 17  1  0
  3  4  3  0
  4  9  1  0
  5 10  1  0
 11 12  1  0
 11 14  1  0
 11 15  1  0
 11 16  1  0
 12 13  1  0
 12 18  1  0
 13 19  1  0
 13 20  1  0
 13 21  1  0
M  RAD  1  12   2
M  END
>  <reaction>  (5) 
rxn_944

>  <mol_properties>  (5) 
{"1": {"label": "*1", "atom_type": "Cs"}, "4": {"label": "*0", "atom_type": "S2s"}, "10": {"label": "*4", "atom_type": "Cs"}, "11": {"label": "*3", "atom_type": "Cs"}, "16": {"label": "*2", "atom_type": "H0"}}

>  <type>  (5) 
unop_1

>  <geom_source>  (5) 
Heuristics

$$$$

     RDKit          3D

 21 19  0  0  0  0  0  0  0  0999 V2000
    1.7169   -0.2928   -0.9433 C   0  0  0  0  0  0  0  0  0  0  0  0
    0.5803   -0.4335    0.0681 C   0  0  0  0  0  0  0  0  0  0  0  0
    0.7583    0.4499    1.2132 C   0  0  0  0  0  0  0  0  0  0  0  0
    0.9383    1.1822    2.1432 C   0  0  0  0  0  0  0  0  0  0  0  0
    0.3169   -2.1677    0.5964 S   0  0  0  0  0  0  0  0  0  0  0  0
    2.6676   -0.5739   -0.4893 H   0  0  0  0  0  0  0  0  0  0  0  0
    1.5360   -0.9383   -1.8019 H   0  0  0  0  0  0  0  0  0  0  0  0
    1.7924    0.7420   -1.2817 H   0  0  0  0  0  0  0  0  0  0  0  0
    1.0982    1.8327    2.9693 H   0  0  0  0  0  0  0  0  0  0  0  0
    1.4821   -2.2959    1.2453 H   0  0  0  0  0  0  0  0  0  0  0  0
   -1.5178    0.8772   -2.3285 C   0  0  0  0  0  0  0  0  0  0  0  0
   -1.5178    0.8772   -0.8052 C   0  0  0  0  0  3  0  0  0  0  0  0
   -1.5178    2.2830   -0.2185 C   0  0  0  0  0  0  0  0  0  0  0  0
   -0.6363    1.3915   -2.7192 H   0  0  0  0  0  0  0  0  0  0  0  0
   -2.3992    1.3915   -2.7192 H   0  0  0  0  0  0  0  0  0  0  0  0
   -1.5178   -0.1377   -2.7297 H   0  0  0  0  0  0  0  0  0  0  0  0
   -0.4683    0.2216   -0.3684 H   0  0  0  0  0  0  0  0  0  0  0  0
   -2.3923    0.3309   -0.4412 H   0  0  0  0  0  0  0  0  0  0  0  0
   -2.3992    2.8416   -0.5426 H   0  0  0  0  0  0  0  0  0  0  0  0
   -1.5178    2.2623    0.8726 H   0  0  0  0  0  0  0  0  0  0  0  0
   -0.6363    2.8416   -0.5426 H   0  0  0  0  0  0  0  0  0  0  0  0
  1  2  1  0
  1  6  1  0
  1  7  1  0
  1  8  1  0
  2  3  1  0
  2  5  1  0
  2 17  1  0
  3  4  3  0
  4  9  1  0
  5 10  1  0
 11 12  1  0
 11 14  1  0
 11 15  1  0
 11 16  1  0
 12 13  1  0
 12 18  1  0
 13 19  1  0
 13 20  1  0
 13 21  1  0
M  RAD  1  12   2
M  END
>  <reaction>  (6) 
rxn_944

>  <mol_properties>  (6) 
{"1": {"label": "*1", "atom_type": "Cs"}, "4": {"label": "*0", "atom_type": "S2s"}, "10": {"label": "*4", "atom_type": "Cs"}, "11": {"label": "*3", "atom_type": "Cs"}, "16": {"label": "*2", "atom_type": "H0"}}

>  <type>  (6) 
unop_2

>  <geom_source>  (6) 
Heuristics

$$$$

     RDKit          3D

 21 19  0  0  0  0  0  0  0  0999 V2000
    0.9859    0.3397    1.8036 C   0  0  0  0  0  0  0  0  0  0  0  0
    0.5549   -0.2419    0.4579 C   0  0  0  0  0  0  0  0  0  0  0  0
   -0.3682   -1.3579    0.6180 C   0  0  0  0  0  0  0  0  0  0  0  0
   -1.1189   -2.2757    0.7846 C   0  0  0  0  0  0  0  0  0  0  0  0
    1.9780   -0.6982   -0.6016 S   0  0  0  0  0  0  0  0  0  0  0  0
    1.5171   -0.4106    2.3900 H   0  0  0  0  0  0  0  0  0  0  0  0
    1.6455    1.1926    1.6487 H   0  0  0  0  0  0  0  0  0  0  0  0
    0.1109    0.6608    2.3712 H   0  0  0  0  0  0  0  0  0  0  0  0
   -1.7857   -3.0908    0.9327 H   0  0  0  0  0  0  0  0  0  0  0  0
    2.4158   -1.6992    0.1740 H   0  0  0  0  0  0  0  0  0  0  0  0
   -1.5432    1.0689   -1.9387 C   0  0  0  0  0  0  0  0  0  0  0  0
   -1.5432    1.0689   -0.4154 C   0  0  0  0  0  3  0  0  0  0  0  0
   -1.5432    2.4747    0.1714 C   0  0  0  0  0  0  0  0  0  0  0  0
   -0.6617    1.5832   -2.3293 H   0  0  0  0  0  0  0  0  0  0  0  0
   -2.4246    1.5832   -2.3293 H   0  0  0  0  0  0  0  0  0  0  0  0
   -1.5432    0.0540   -2.3399 H   0  0  0  0  0  0  0  0  0  0  0  0
   -0.4937    0.4133    0.0214 H   0  0  0  0  0  0  0  0  0  0  0  0
   -2.4177    0.5225   -0.0514 H   0  0  0  0  0  0  0  0  0  0  0  0
   -2.4246    3.0333   -0.1528 H   0  0  0  0  0  0  0  0  0  0  0  0
   -1.5432    2.4540    1.2625 H   0  0  0  0  0  0  0  0  0  0  0  0
   -0.6617    3.0333   -0.1528 H   0  0  0  0  0  0  0  0  0  0  0  0
  1  2  1  0
  1  6  1  0
  1  7  1  0
  1  8  1  0
  2  3  1  0
  2  5  1  0
  2 17  1  0
  3  4  3  0
  4  9  1  0
  5 10  1  0
 11 12  1  0
 11 14  1  0
 11 15  1  0
 11 16  1  0
 12 13  1  0
 12 18  1  0
 13 19  1  0
 13 20  1  0
 13 21  1  0
M  RAD  1  12   2
M  END
>  <reaction>  (7) 
rxn_944

>  <mol_properties>  (7) 
{"1": {"label": "*1", "atom_type": "Cs"}, "4": {"label": "*0", "atom_type": "S2s"}, "10": {"label": "*4", "atom_type": "Cs"}, "11": {"label": "*3", "atom_type": "Cs"}, "16": {"label": "*2", "atom_type": "H0"}}

>  <type>  (7) 
unop_3

>  <geom_source>  (7) 
Heuristics

$$$$

     RDKit          3D

 21 19  0  0  0  0  0  0  0  0999 V2000
    0.5347   -2.0549   -0.4924 C   0  0  0  0  0  0  0  0  0  0  0  0
    0.5917   -0.6169    0.0209 C   0  0  0  0  0  0  0  0  0  0  0  0
    1.9617   -0.1704    0.2381 C   0  0  0  0  0  0  0  0  0  0  0  0
    3.0986    0.1623    0.4128 C   0  0  0  0  0  0  0  0  0  0  0  0
   -0.4397   -0.3590    1.5128 S   0  0  0  0  0  0  0  0  0  0  0  0
    0.9629   -2.7384    0.2415 H   0  0  0  0  0  0  0  0  0  0  0  0
   -0.4986   -2.3453   -0.6783 H   0  0  0  0  0  0  0  0  0  0  0  0
    1.1053   -2.1459   -1.4181 H   0  0  0  0  0  0  0  0  0  0  0  0
    4.1083    0.4579    0.5679 H   0  0  0  0  0  0  0  0  0  0  0  0
    0.2939   -1.1306    2.3263 H   0  0  0  0  0  0  0  0  0  0  0  0
   -1.5064    0.6939   -2.3757 C   0  0  0  0  0  0  0  0  0  0  0  0
   -1.5064    0.6939   -0.8524 C   0  0  0  0  0  3  0  0  0  0  0  0
   -1.5064    2.0997   -0.2656 C   0  0  0  0  0  0  0  0  0  0  0  0
   -0.6250    1.2081   -2.7663 H   0  0  0  0  0  0  0  0  0  0  0  0
   -2.3879    1.2081   -2.7663 H   0  0  0  0  0  0  0  0  0  0  0  0
   -1.5064   -0.3210   -2.7768 H   0  0  0  0  0  0  0  0  0  0  0  0
   -0.4570    0.0383   -0.4156 H   0  0  0  0  0  0  0  0  0  0  0  0
   -2.3809    0.1475   -0.4884 H   0  0  0  0  0  0  0  0  0  0  0  0
   -2.3879    2.6583   -0.5898 H   0  0  0  0  0  0  0  0  0  0  0  0
   -1.5064    2.0790    0.8255 H   0  0  0  0  0  0  0  0  0  0  0  0
   -0.6250    2.6583   -0.5898 H   0  0  0  0  0  0  0  0  0  0  0  0
  1  2  1  0
  1  6  1  0
  1  7  1  0
  1  8  1  0
  2  3  1  0
  2  5  1  0
  2 17  1  0
  3  4  3  0
  4  9  1  0
  5 10  1  0
 11 12  1  0
 11 14  1  0
 11 15  1  0
 11 16  1  0
 12 13  1  0
 12 18  1  0
 13 19  1  0
 13 20  1  0
 13 21  1  0
M  RAD  1  12   2
M  END
>  <reaction>  (8) 
rxn_944

>  <mol_properties>  (8) 
{"1": {"label": "*1", "atom_type": "Cs"}, "4": {"label": "*0", "atom_type": "S2s"}, "10": {"label": "*4", "atom_type": "Cs"}, "11": {"label": "*3", "atom_type": "Cs"}, "16": {"label": "*2", "atom_type": "H0"}}

>  <type>  (8) 
unop_4

>  <geom_source>  (8) 
Heuristics

$$$$

     RDKit          3D

 21 19  0  0  0  0  0  0  0  0999 V2000
    0.3572   -0.4613    2.0732 C   0  0  0  0  0  0  0  0  0  0  0  0
    0.3632   -0.4651    0.5452 C   0  0  0  0  0  0  0  0  0  0  0  0
    0.3175   -1.8173    0.0041 C   0  0  0  0  0  0  0  0  0  0  0  0
    0.2869   -2.9412   -0.4076 C   0  0  0  0  0  0  0  0  0  0  0  0
    1.7605    0.4891   -0.1570 S   0  0  0  0  0  0  0  0  0  0  0  0
    1.2406   -0.9714    2.4586 H   0  0  0  0  0  0  0  0  0  0  0  0
    0.3556    0.5625    2.4450 H   0  0  0  0  0  0  0  0  0  0  0  0
   -0.5272   -0.9803    2.4464 H   0  0  0  0  0  0  0  0  0  0  0  0
    0.2596   -3.9395   -0.7732 H   0  0  0  0  0  0  0  0  0  0  0  0
    2.7248   -0.3352    0.2742 H   0  0  0  0  0  0  0  0  0  0  0  0
   -1.7349    0.8457   -1.8514 C   0  0  0  0  0  0  0  0  0  0  0  0
   -1.7349    0.8457   -0.3280 C   0  0  0  0  0  3  0  0  0  0  0  0
   -1.7349    2.2515    0.2587 C   0  0  0  0  0  0  0  0  0  0  0  0
   -0.8535    1.3600   -2.2420 H   0  0  0  0  0  0  0  0  0  0  0  0
   -2.6164    1.3600   -2.2420 H   0  0  0  0  0  0  0  0  0  0  0  0
   -1.7349   -0.1692   -2.2525 H   0  0  0  0  0  0  0  0  0  0  0  0
   -0.6855    0.1901    0.1088 H   0  0  0  0  0  0  0  0  0  0  0  0
   -2.6094    0.2993    0.0360 H   0  0  0  0  0  0  0  0  0  0  0  0
   -2.6164    2.8101   -0.0655 H   0  0  0  0  0  0  0  0  0  0  0  0
   -1.7349    2.2308    1.3498 H   0  0  0  0  0  0  0  0  0  0  0  0
   -0.8535    2.8101   -0.0655 H   0  0  0  0  0  0  0  0  0  0  0  0
  1  2  1  0
  1  6  1  0
  1  7  1  0
  1  8  1  0
  2  3  1  0
  2  5  1  0
  2 17  1  0
  3  4  3  0
  4  9  1  0
  5 10  1  0
 11 12  1  0
 11 14  1  0
 11 15  1  0
 11 16  1  0
 12 13  1  0
 12 18  1  0
 13 19  1  0
 13 20  1  0
 13 21  1  0
M  RAD  1  12   2
M  END
>  <reaction>  (9) 
rxn_944

>  <mol_properties>  (9) 
{"1": {"label": "*1", "atom_type": "Cs"}, "4": {"label": "*0", "atom_type": "S2s"}, "10": {"label": "*4", "atom_type": "Cs"}, "11": {"label": "*3", "atom_type": "Cs"}, "16": {"label": "*2", "atom_type": "H0"}}

>  <type>  (9) 
unop_5

>  <geom_source>  (9) 
Heuristics

$$$$

     RDKit          3D

 21 19  0  0  0  0  0  0  0  0999 V2000
    0.1646   -2.2220    0.2417 C   0  0  0  0  0  0  0  0  0  0  0  0
    0.5278   -0.7473    0.0746 C   0  0  0  0  0  0  0  0  0  0  0  0
    1.9666   -0.5516   -0.0476 C   0  0  0  0  0  0  0  0  0  0  0  0
    3.1538   -0.4249   -0.1376 C   0  0  0  0  0  0  0  0  0  0  0  0
   -0.1805    0.3075    1.3943 S   0  0  0  0  0  0  0  0  0  0  0  0
    0.6030   -2.6207    1.1571 H   0  0  0  0  0  0  0  0  0  0  0  0
   -0.9173   -2.3375    0.2940 H   0  0  0  0  0  0  0  0  0  0  0  0
    0.5472   -2.8006   -0.6008 H   0  0  0  0  0  0  0  0  0  0  0  0
    4.2083   -0.3124   -0.2175 H   0  0  0  0  0  0  0  0  0  0  0  0
    0.5552   -0.2015    2.3917 H   0  0  0  0  0  0  0  0  0  0  0  0
   -1.5703    0.5635   -2.3220 C   0  0  0  0  0  0  0  0  0  0  0  0
   -1.5703    0.5635   -0.7987 C   0  0  0  0  0  3  0  0  0  0  0  0
   -1.5703    1.9693   -0.2120 C   0  0  0  0  0  0  0  0  0  0  0  0
   -0.6889    1.0777   -2.7126 H   0  0  0  0  0  0  0  0  0  0  0  0
   -2.4518    1.0777   -2.7126 H   0  0  0  0  0  0  0  0  0  0  0  0
   -1.5703   -0.4514   -2.7232 H   0  0  0  0  0  0  0  0  0  0  0  0
   -0.5209   -0.0922   -0.3619 H   0  0  0  0  0  0  0  0  0  0  0  0
   -2.4449    0.0171   -0.4347 H   0  0  0  0  0  0  0  0  0  0  0  0
   -2.4518    2.5278   -0.5361 H   0  0  0  0  0  0  0  0  0  0  0  0
   -1.5703    1.9486    0.8792 H   0  0  0  0  0  0  0  0  0  0  0  0
   -0.6889    2.5278   -0.5361 H   0  0  0  0  0  0  0  0  0  0  0  0
  1  2  1  0
  1  6  1  0
  1  7  1  0
  1  8  1  0
  2  3  1  0
  2  5  1  0
  2 17  1  0
  3  4  3  0
  4  9  1  0
  5 10  1  0
 11 12  1  0
 11 14  1  0
 11 15  1  0
 11 16  1  0
 12 13  1  0
 12 18  1  0
 13 19  1  0
 13 20  1  0
 13 21  1  0
M  RAD  1  12   2
M  END
>  <reaction>  (10) 
rxn_944

>  <mol_properties>  (10) 
{"1": {"label": "*1", "atom_type": "Cs"}, "4": {"label": "*0", "atom_type": "S2s"}, "10": {"label": "*4", "atom_type": "Cs"}, "11": {"label": "*3", "atom_type": "Cs"}, "16": {"label": "*2", "atom_type": "H0"}}

>  <type>  (10) 
unop_6

>  <geom_source>  (10) 
Heuristics

$$$$

     RDKit          3D

 21 19  0  0  0  0  0  0  0  0999 V2000
   -0.0381   -2.0011    1.0597 C   0  0  0  0  0  0  0  0  0  0  0  0
    0.4264   -0.8176    0.2122 C   0  0  0  0  0  0  0  0  0  0  0  0
    1.7825   -1.0046   -0.2870 C   0  0  0  0  0  0  0  0  0  0  0  0
    2.9008   -1.1862   -0.6747 C   0  0  0  0  0  0  0  0  0  0  0  0
    0.2492    0.7852    1.0815 S   0  0  0  0  0  0  0  0  0  0  0  0
    0.5959   -2.1110    1.9401 H   0  0  0  0  0  0  0  0  0  0  0  0
   -1.0656   -1.8469    1.3868 H   0  0  0  0  0  0  0  0  0  0  0  0
    0.0195   -2.9237    0.4797 H   0  0  0  0  0  0  0  0  0  0  0  0
    3.8939   -1.3475   -1.0191 H   0  0  0  0  0  0  0  0  0  0  0  0
    1.1772    0.5415    2.0168 H   0  0  0  0  0  0  0  0  0  0  0  0
   -1.6717    0.4932   -2.1845 C   0  0  0  0  0  0  0  0  0  0  0  0
   -1.6717    0.4932   -0.6611 C   0  0  0  0  0  3  0  0  0  0  0  0
   -1.6717    1.8990   -0.0744 C   0  0  0  0  0  0  0  0  0  0  0  0
   -0.7903    1.0074   -2.5751 H   0  0  0  0  0  0  0  0  0  0  0  0
   -2.5532    1.0074   -2.5751 H   0  0  0  0  0  0  0  0  0  0  0  0
   -1.6717   -0.5217   -2.5856 H   0  0  0  0  0  0  0  0  0  0  0  0
   -0.6223   -0.1624   -0.2243 H   0  0  0  0  0  0  0  0  0  0  0  0
   -2.5463   -0.0532   -0.2971 H   0  0  0  0  0  0  0  0  0  0  0  0
   -2.5532    2.4576   -0.3985 H   0  0  0  0  0  0  0  0  0  0  0  0
   -1.6717    1.8783    1.0167 H   0  0  0  0  0  0  0  0  0  0  0  0
   -0.7903    2.4576   -0.3985 H   0  0  0  0  0  0  0  0  0  0  0  0
  1  2  1  0
  1  6  1  0
  1  7  1  0
  1  8  1  0
  2  3  1  0
  2  5  1  0
  2 17  1  0
  3  4  3  0
  4  9  1  0
  5 10  1  0
 11 12  1  0
 11 14  1  0
 11 15  1  0
 11 16  1  0
 12 13  1  0
 12 18  1  0
 13 19  1  0
 13 20  1  0
 13 21  1  0
M  RAD  1  12   2
M  END
>  <reaction>  (11) 
rxn_944

>  <mol_properties>  (11) 
{"1": {"label": "*1", "atom_type": "Cs"}, "4": {"label": "*0", "atom_type": "S2s"}, "10": {"label": "*4", "atom_type": "Cs"}, "11": {"label": "*3", "atom_type": "Cs"}, "16": {"label": "*2", "atom_type": "H0"}}

>  <type>  (11) 
unop_7

>  <geom_source>  (11) 
Heuristics

$$$$

     RDKit          3D

 21 19  0  0  0  0  0  0  0  0999 V2000
    1.8482    0.6678    0.3094 C   0  0  0  0  0  0  0  0  0  0  0  0
    0.6821   -0.3054    0.1423 C   0  0  0  0  0  0  0  0  0  0  0  0
   -0.2325   -0.2586    1.2758 C   0  0  0  0  0  0  0  0  0  0  0  0
   -0.9596   -0.2009    2.2254 C   0  0  0  0  0  0  0  0  0  0  0  0
    1.2358   -2.0178   -0.1996 S   0  0  0  0  0  0  0  0  0  0  0  0
    2.4402    0.4055    1.1868 H   0  0  0  0  0  0  0  0  0  0  0  0
    2.4921    0.6346   -0.5686 H   0  0  0  0  0  0  0  0  0  0  0  0
    1.4730    1.6840    0.4414 H   0  0  0  0  0  0  0  0  0  0  0  0
   -1.6054   -0.1496    3.0687 H   0  0  0  0  0  0  0  0  0  0  0  0
    1.7959   -2.2268    0.9995 H   0  0  0  0  0  0  0  0  0  0  0  0
   -1.4160    1.0054   -2.2543 C   0  0  0  0  0  0  0  0  0  0  0  0
   -1.4160    1.0054   -0.7310 C   0  0  0  0  0  3  0  0  0  0  0  0
   -1.4160    2.4112   -0.1443 C   0  0  0  0  0  0  0  0  0  0  0  0
   -0.5346    1.5197   -2.6450 H   0  0  0  0  0  0  0  0  0  0  0  0
   -2.2975    1.5197   -2.6450 H   0  0  0  0  0  0  0  0  0  0  0  0
   -1.4160   -0.0095   -2.6555 H   0  0  0  0  0  0  0  0  0  0  0  0
   -0.3666    0.3498   -0.2942 H   0  0  0  0  0  0  0  0  0  0  0  0
   -2.2906    0.4590   -0.3670 H   0  0  0  0  0  0  0  0  0  0  0  0
   -2.2975    2.9698   -0.4684 H   0  0  0  0  0  0  0  0  0  0  0  0
   -1.4160    2.3905    0.9468 H   0  0  0  0  0  0  0  0  0  0  0  0
   -0.5346    2.9698   -0.4684 H   0  0  0  0  0  0  0  0  0  0  0  0
  1  2  1  0
  1  6  1  0
  1  7  1  0
  1  8  1  0
  2  3  1  0
  2  5  1  0
  2 17  1  0
  3  4  3  0
  4  9  1  0
  5 10  1  0
 11 12  1  0
 11 14  1  0
 11 15  1  0
 11 16  1  0
 12 13  1  0
 12 18  1  0
 13 19  1  0
 13 20  1  0
 13 21  1  0
M  RAD  1  12   2
M  END
>  <reaction>  (12) 
rxn_944

>  <mol_properties>  (12) 
{"1": {"label": "*1", "atom_type": "Cs"}, "4": {"label": "*0", "atom_type": "S2s"}, "10": {"label": "*4", "atom_type": "Cs"}, "11": {"label": "*3", "atom_type": "Cs"}, "16": {"label": "*2", "atom_type": "H0"}}

>  <type>  (12) 
unop_8

>  <geom_source>  (12) 
Heuristics

$$$$

     RDKit          3D

 21 19  0  0  0  0  0  0  0  0999 V2000
    0.9709   -1.5838   -0.9769 C   0  0  0  0  0  0  0  0  0  0  0  0
    0.5989   -0.5006    0.0345 C   0  0  0  0  0  0  0  0  0  0  0  0
    1.7748    0.1838    0.5561 C   0  0  0  0  0  0  0  0  0  0  0  0
    2.7618    0.7207    0.9700 C   0  0  0  0  0  0  0  0  0  0  0  0
   -0.4614   -1.1333    1.3878 S   0  0  0  0  0  0  0  0  0  0  0  0
    1.5832   -2.3522   -0.5040 H   0  0  0  0  0  0  0  0  0  0  0  0
    0.0702   -2.0507   -1.3736 H   0  0  0  0  0  0  0  0  0  0  0  0
    1.5421   -1.1495   -1.7991 H   0  0  0  0  0  0  0  0  0  0  0  0
    3.6384    1.1976    1.3376 H   0  0  0  0  0  0  0  0  0  0  0  0
    0.4687   -1.9264    1.9365 H   0  0  0  0  0  0  0  0  0  0  0  0
   -1.4992    0.8101   -2.3621 C   0  0  0  0  0  0  0  0  0  0  0  0
   -1.4992    0.8101   -0.8388 C   0  0  0  0  0  3  0  0  0  0  0  0
   -1.4992    2.2159   -0.2521 C   0  0  0  0  0  0  0  0  0  0  0  0
   -0.6178    1.3244   -2.7528 H   0  0  0  0  0  0  0  0  0  0  0  0
   -2.3807    1.3244   -2.7528 H   0  0  0  0  0  0  0  0  0  0  0  0
   -1.4992   -0.2048   -2.7633 H   0  0  0  0  0  0  0  0  0  0  0  0
   -0.4498    0.1545   -0.4020 H   0  0  0  0  0  0  0  0  0  0  0  0
   -2.3738    0.2638   -0.4748 H   0  0  0  0  0  0  0  0  0  0  0  0
   -2.3807    2.7745   -0.5762 H   0  0  0  0  0  0  0  0  0  0  0  0
   -1.4992    2.1953    0.8390 H   0  0  0  0  0  0  0  0  0  0  0  0
   -0.6178    2.7745   -0.5762 H   0  0  0  0  0  0  0  0  0  0  0  0
  1  2  1  0
  1  6  1  0
  1  7  1  0
  1  8  1  0
  2  3  1  0
  2  5  1  0
  2 17  1  0
  3  4  3  0
  4  9  1  0
  5 10  1  0
 11 12  1  0
 11 14  1  0
 11 15  1  0
 11 16  1  0
 12 13  1  0
 12 18  1  0
 13 19  1  0
 13 20  1  0
 13 21  1  0
M  RAD  1  12   2
M  END
>  <reaction>  (13) 
rxn_944

>  <mol_properties>  (13) 
{"1": {"label": "*1", "atom_type": "Cs"}, "4": {"label": "*0", "atom_type": "S2s"}, "10": {"label": "*4", "atom_type": "Cs"}, "11": {"label": "*3", "atom_type": "Cs"}, "16": {"label": "*2", "atom_type": "H0"}}

>  <type>  (13) 
unop_9

>  <geom_source>  (13) 
Heuristics

$$$$

     RDKit          3D

 21 19  0  0  0  0  0  0  0  0999 V2000
    1.8993    0.2924   -0.4358 C   0  0  0  0  0  0  0  0  0  0  0  0
    0.6319   -0.3895    0.0775 C   0  0  0  0  0  0  0  0  0  0  0  0
    0.1854    0.1747    1.3447 C   0  0  0  0  0  0  0  0  0  0  0  0
   -0.1500    0.6556    2.3887 C   0  0  0  0  0  0  0  0  0  0  0  0
    0.8027   -2.2106    0.1799 S   0  0  0  0  0  0  0  0  0  0  0  0
    2.7208    0.1470    0.2663 H   0  0  0  0  0  0  0  0  0  0  0  0
    2.1857   -0.1268   -1.3996 H   0  0  0  0  0  0  0  0  0  0  0  0
    1.7299    1.3647   -0.5467 H   0  0  0  0  0  0  0  0  0  0  0  0
   -0.4478    1.0828    3.3159 H   0  0  0  0  0  0  0  0  0  0  0  0
    1.7140   -2.2116    1.1622 H   0  0  0  0  0  0  0  0  0  0  0  0
   -1.4662    0.9212   -2.3191 C   0  0  0  0  0  0  0  0  0  0  0  0
   -1.4662    0.9212   -0.7958 C   0  0  0  0  0  3  0  0  0  0  0  0
   -1.4662    2.3270   -0.2091 C   0  0  0  0  0  0  0  0  0  0  0  0
   -0.5848    1.4355   -2.7097 H   0  0  0  0  0  0  0  0  0  0  0  0
   -2.3477    1.4355   -2.7097 H   0  0  0  0  0  0  0  0  0  0  0  0
   -1.4662   -0.0937   -2.7203 H   0  0  0  0  0  0  0  0  0  0  0  0
   -0.4168    0.2656   -0.3590 H   0  0  0  0  0  0  0  0  0  0  0  0
   -2.3407    0.3749   -0.4318 H   0  0  0  0  0  0  0  0  0  0  0  0
   -2.3477    2.8856   -0.5332 H   0  0  0  0  0  0  0  0  0  0  0  0
   -1.4662    2.3064    0.8820 H   0  0  0  0  0  0  0  0  0  0  0  0
   -0.5848    2.8856   -0.5332 H   0  0  0  0  0  0  0  0  0  0  0  0
  1  2  1  0
  1  6  1  0
  1  7  1  0
  1  8  1  0
  2  3  1  0
  2  5  1  0
  2 17  1  0
  3  4  3  0
  4  9  1  0
  5 10  1  0
 11 12  1  0
 11 14  1  0
 11 15  1  0
 11 16  1  0
 12 13  1  0
 12 18  1  0
 13 19  1  0
 13 20  1  0
 13 21  1  0
M  RAD  1  12   2
M  END
>  <reaction>  (14) 
rxn_944

>  <mol_properties>  (14) 
{"1": {"label": "*1", "atom_type": "Cs"}, "4": {"label": "*0", "atom_type": "S2s"}, "10": {"label": "*4", "atom_type": "Cs"}, "11": {"label": "*3", "atom_type": "Cs"}, "16": {"label": "*2", "atom_type": "H0"}}

>  <type>  (14) 
unop_10

>  <geom_source>  (14) 
Heuristics

$$$$

     RDKit          3D

 21 19  0  0  0  0  0  0  0  0999 V2000
   -0.0016   -1.3850    1.7536 C   0  0  0  0  0  0  0  0  0  0  0  0
    0.3321   -0.7426    0.4079 C   0  0  0  0  0  0  0  0  0  0  0  0
    1.2745   -1.5462   -0.3599 C   0  0  0  0  0  0  0  0  0  0  0  0
    2.0550   -2.2263   -0.9615 C   0  0  0  0  0  0  0  0  0  0  0  0
    0.9109    0.9873    0.5763 S   0  0  0  0  0  0  0  0  0  0  0  0
    0.8953   -1.4691    2.3681 H   0  0  0  0  0  0  0  0  0  0  0  0
   -0.7338   -0.7794    2.2861 H   0  0  0  0  0  0  0  0  0  0  0  0
   -0.4068   -2.3867    1.6011 H   0  0  0  0  0  0  0  0  0  0  0  0
    2.7482   -2.8304   -1.4958 H   0  0  0  0  0  0  0  0  0  0  0  0
    2.0578    0.6919    1.2027 H   0  0  0  0  0  0  0  0  0  0  0  0
   -1.7660    0.5681   -1.9887 C   0  0  0  0  0  0  0  0  0  0  0  0
   -1.7660    0.5681   -0.4654 C   0  0  0  0  0  3  0  0  0  0  0  0
   -1.7660    1.9740    0.1214 C   0  0  0  0  0  0  0  0  0  0  0  0
   -0.8845    1.0824   -2.3793 H   0  0  0  0  0  0  0  0  0  0  0  0
   -2.6475    1.0824   -2.3793 H   0  0  0  0  0  0  0  0  0  0  0  0
   -1.7660   -0.4468   -2.3898 H   0  0  0  0  0  0  0  0  0  0  0  0
   -0.7166   -0.0875   -0.0285 H   0  0  0  0  0  0  0  0  0  0  0  0
   -2.6405    0.0218   -0.1014 H   0  0  0  0  0  0  0  0  0  0  0  0
   -2.6475    2.5325   -0.2028 H   0  0  0  0  0  0  0  0  0  0  0  0
   -1.7660    1.9533    1.2125 H   0  0  0  0  0  0  0  0  0  0  0  0
   -0.8845    2.5325   -0.2028 H   0  0  0  0  0  0  0  0  0  0  0  0
  1  2  1  0
  1  6  1  0
  1  7  1  0
  1  8  1  0
  2  3  1  0
  2  5  1  0
  2 17  1  0
  3  4  3  0
  4  9  1  0
  5 10  1  0
 11 12  1  0
 11 14  1  0
 11 15  1  0
 11 16  1  0
 12 13  1  0
 12 18  1  0
 13 19  1  0
 13 20  1  0
 13 21  1  0
M  RAD  1  12   2
M  END
>  <reaction>  (15) 
rxn_944

>  <mol_properties>  (15) 
{"1": {"label": "*1", "atom_type": "Cs"}, "4": {"label": "*0", "atom_type": "S2s"}, "10": {"label": "*4", "atom_type": "Cs"}, "11": {"label": "*3", "atom_type": "Cs"}, "16": {"label": "*2", "atom_type": "H0"}}

>  <type>  (15) 
unop_11

>  <geom_source>  (15) 
Heuristics

$$$$

     RDKit          3D

 21 19  0  0  0  0  0  0  0  0999 V2000
    1.3832   -0.9535   -1.1305 C   0  0  0  0  0  0  0  0  0  0  0  0
    0.5744   -0.4482    0.0632 C   0  0  0  0  0  0  0  0  0  0  0  0
    1.3541    0.4454    0.9099 C   0  0  0  0  0  0  0  0  0  0  0  0
    2.0246    1.1697    1.5878 C   0  0  0  0  0  0  0  0  0  0  0  0
   -0.1719   -1.8090    1.0364 S   0  0  0  0  0  0  0  0  0  0  0  0
    2.2427   -1.5322   -0.7906 H   0  0  0  0  0  0  0  0  0  0  0  0
    0.7626   -1.5886   -1.7614 H   0  0  0  0  0  0  0  0  0  0  0  0
    1.7497   -0.1110   -1.7194 H   0  0  0  0  0  0  0  0  0  0  0  0
    2.6200    1.8130    2.1900 H   0  0  0  0  0  0  0  0  0  0  0  0
    0.9855   -2.3103    1.4884 H   0  0  0  0  0  0  0  0  0  0  0  0
   -1.5237    0.8626   -2.3334 C   0  0  0  0  0  0  0  0  0  0  0  0
   -1.5237    0.8626   -0.8101 C   0  0  0  0  0  3  0  0  0  0  0  0
   -1.5237    2.2684   -0.2234 C   0  0  0  0  0  0  0  0  0  0  0  0
   -0.6423    1.3768   -2.7240 H   0  0  0  0  0  0  0  0  0  0  0  0
   -2.4052    1.3768   -2.7240 H   0  0  0  0  0  0  0  0  0  0  0  0
   -1.5237   -0.1523   -2.7346 H   0  0  0  0  0  0  0  0  0  0  0  0
   -0.4743    0.2069   -0.3733 H   0  0  0  0  0  0  0  0  0  0  0  0
   -2.3983    0.3162   -0.4461 H   0  0  0  0  0  0  0  0  0  0  0  0
   -2.4052    2.8269   -0.5475 H   0  0  0  0  0  0  0  0  0  0  0  0
   -1.5237    2.2477    0.8677 H   0  0  0  0  0  0  0  0  0  0  0  0
   -0.6423    2.8269   -0.5475 H   0  0  0  0  0  0  0  0  0  0  0  0
  1  2  1  0
  1  6  1  0
  1  7  1  0
  1  8  1  0
  2  3  1  0
  2  5  1  0
  2 17  1  0
  3  4  3  0
  4  9  1  0
  5 10  1  0
 11 12  1  0
 11 14  1  0
 11 15  1  0
 11 16  1  0
 12 13  1  0
 12 18  1  0
 13 19  1  0
 13 20  1  0
 13 21  1  0
M  RAD  1  12   2
M  END
>  <reaction>  (16) 
rxn_944

>  <mol_properties>  (16) 
{"1": {"label": "*1", "atom_type": "Cs"}, "4": {"label": "*0", "atom_type": "S2s"}, "10": {"label": "*4", "atom_type": "Cs"}, "11": {"label": "*3", "atom_type": "Cs"}, "16": {"label": "*2", "atom_type": "H0"}}

>  <type>  (16) 
unop_12

>  <geom_source>  (16) 
Heuristics

$$$$

     RDKit          3D

 21 19  0  0  0  0  0  0  0  0999 V2000
   -0.8508   -1.8053    0.7854 S   0  0  0  0  0  0  0  0  0  0  0  0
   -1.1299   -0.1185    0.1554 C   0  0  0  0  0  3  0  0  0  0  0  0
   -1.7820   -0.1633   -1.2231 C   0  0  0  0  0  0  0  0  0  0  0  0
    2.0465    0.7129   -1.2222 C   0  0  0  0  0  0  0  0  0  0  0  0
    1.9104   -0.8245    0.7713 C   0  0  0  0  0  0  0  0  0  0  0  0
    1.3882    0.4538    0.1273 C   0  0  0  0  0  0  0  0  0  0  0  0
   -1.9698    0.6286    1.0998 C   0  0  0  0  0  0  0  0  0  0  0  0
   -2.6590    1.2429    1.8753 C   0  0  0  0  0  0  0  0  0  0  0  0
    0.0676    0.5062    0.0527 H   0  0  0  0  0  0  0  0  0  0  0  0
   -1.1328   -0.7262   -1.9264 H   0  0  0  0  0  0  0  0  0  0  0  0
   -1.9100    0.8677   -1.6167 H   0  0  0  0  0  0  0  0  0  0  0  0
   -2.7759   -0.6583   -1.1751 H   0  0  0  0  0  0  0  0  0  0  0  0
    1.6270    1.6412   -1.6626 H   0  0  0  0  0  0  0  0  0  0  0  0
    3.1437    0.8370   -1.0999 H   0  0  0  0  0  0  0  0  0  0  0  0
    1.8440   -0.1311   -1.9148 H   0  0  0  0  0  0  0  0  0  0  0  0
    3.0034   -0.7470    0.9541 H   0  0  0  0  0  0  0  0  0  0  0  0
    1.3946   -0.9838    1.7410 H   0  0  0  0  0  0  0  0  0  0  0  0
    1.7055   -1.6954    0.1136 H   0  0  0  0  0  0  0  0  0  0  0  0
    1.5636    1.3169    0.8049 H   0  0  0  0  0  0  0  0  0  0  0  0
   -2.2203   -2.1359    0.8039 H   0  0  0  0  0  0  0  0  0  0  0  0
   -3.2640    1.7820    2.5560 H   0  0  0  0  0  0  0  0  0  0  0  0
  1  2  1  0
  1 20  1  0
  2  3  1  0
  2  7  1  0
  3 10  1  0
  3 11  1  0
  3 12  1  0
  4  6  1  0
  4 13  1  0
  4 14  1  0
  4 15  1  0
  5  6  1  0
  5 16  1  0
  5 17  1  0
  5 18  1  0
  6  9  1  0
  6 19  1  0
  7  8  3  0
  8 21  1  0
M  RAD  1   2   2
M  END
>  <reaction>  (17) 
rxn_944

>  <mol_properties>  (17) 
{"1": {"label": "*1", "atom_type": "Cs"}, "4": {"label": "*0", "atom_type": "S2s"}, "10": {"label": "*4", "atom_type": "Cs"}, "11": {"label": "*3", "atom_type": "Cs"}, "16": {"label": "*2", "atom_type": "H0"}}

>  <type>  (17) 
unop_13

>  <geom_source>  (17) 
AutoTST

$$$$

     RDKit          3D

 21 19  0  0  0  0  0  0  0  0999 V2000
    1.7169   -0.2928   -0.9433 C   0  0  0  0  0  0  0  0  0  0  0  0
    0.5803   -0.4335    0.0681 C   0  0  0  0  0  0  0  0  0  0  0  0
    0.7583    0.4499    1.2132 C   0  0  0  0  0  0  0  0  0  0  0  0
    0.9383    1.1823    2.1432 C   0  0  0  0  0  0  0  0  0  0  0  0
    0.3169   -2.1677    0.5964 S   0  0  0  0  0  0  0  0  0  0  0  0
    2.6676   -0.5739   -0.4893 H   0  0  0  0  0  0  0  0  0  0  0  0
    1.5360   -0.9383   -1.8019 H   0  0  0  0  0  0  0  0  0  0  0  0
    1.7924    0.7420   -1.2816 H   0  0  0  0  0  0  0  0  0  0  0  0
    1.0982    1.8327    2.9693 H   0  0  0  0  0  0  0  0  0  0  0  0
    1.4821   -2.2959    1.2453 H   0  0  0  0  0  0  0  0  0  0  0  0
   -1.5178    0.8772   -2.3285 C   0  0  0  0  0  0  0  0  0  0  0  0
   -1.5178    0.8772   -0.8052 C   0  0  0  0  0  3  0  0  0  0  0  0
   -1.5178    2.2830   -0.2185 C   0  0  0  0  0  0  0  0  0  0  0  0
   -0.6363    1.3915   -2.7192 H   0  0  0  0  0  0  0  0  0  0  0  0
   -2.3992    1.3915   -2.7192 H   0  0  0  0  0  0  0  0  0  0  0  0
   -1.5178   -0.1377   -2.7297 H   0  0  0  0  0  0  0  0  0  0  0  0
   -0.4683    0.2216   -0.3684 H   0  0  0  0  0  0  0  0  0  0  0  0
   -2.3923    0.3309   -0.4412 H   0  0  0  0  0  0  0  0  0  0  0  0
   -2.3992    2.8416   -0.5426 H   0  0  0  0  0  0  0  0  0  0  0  0
   -1.5178    2.2624    0.8726 H   0  0  0  0  0  0  0  0  0  0  0  0
   -0.6363    2.8416   -0.5426 H   0  0  0  0  0  0  0  0  0  0  0  0
  1  2  1  0
  1  6  1  0
  1  7  1  0
  1  8  1  0
  2  3  1  0
  2  5  1  0
  2 17  1  0
  3  4  3  0
  4  9  1  0
  5 10  1  0
 11 12  1  0
 11 14  1  0
 11 15  1  0
 11 16  1  0
 12 13  1  0
 12 18  1  0
 13 19  1  0
 13 20  1  0
 13 21  1  0
M  RAD  1  12   2
M  END
>  <reaction>  (18) 
rxn_944

>  <mol_properties>  (18) 
{"1": {"label": "*1", "atom_type": "Cs"}, "4": {"label": "*0", "atom_type": "S2s"}, "10": {"label": "*4", "atom_type": "Cs"}, "11": {"label": "*3", "atom_type": "Cs"}, "16": {"label": "*2", "atom_type": "H0"}}

>  <type>  (18) 
unop_14

>  <geom_source>  (18) 
gaussian_log

$$$$
