
     RDKit          3D

 12 11  0  0  0  0  0  0  0  0999 V2000
    1.9877    0.1011    0.4814 C   0  0  0  0  0  0  0  0  0  0  0  0
    0.8179    0.5502    0.0525 C   0  0  0  0  0  0  0  0  0  0  0  0
   -0.2939   -0.2692   -0.5320 C   0  0  0  0  0  0  0  0  0  0  0  0
   -0.0292   -1.7631   -0.6328 C   0  0  0  0  0  0  0  0  0  0  0  0
    2.2522   -0.9490    0.4436 H   0  0  0  0  0  0  0  0  0  0  0  0
    2.7295    0.7757    0.8896 H   0  0  0  0  0  0  0  0  0  0  0  0
    0.6162    1.6164    0.1190 H   0  0  0  0  0  0  0  0  0  0  0  0
   -0.5268    0.1319   -1.5245 H   0  0  0  0  0  0  0  0  0  0  0  0
   -1.1959   -0.0938    0.0644 H   0  0  0  0  0  0  0  0  0  0  0  0
    0.1590   -2.1992    0.3502 H   0  0  0  0  0  0  0  0  0  0  0  0
    0.8382   -1.9701   -1.2626 H   0  0  0  0  0  0  0  0  0  0  0  0
   -0.8879   -2.2759   -1.0672 H   0  0  0  0  0  0  0  0  0  0  0  0
  1  2  2  3
  1  5  1  0
  1  6  1  0
  2  3  1  0
  2  7  1  0
  3  4  1  0
  3  8  1  0
  3  9  1  0
  4 10  1  0
  4 11  1  0
  4 12  1  0
M  END
>  <reaction>  (1) 
rxn_1063

>  <mol_properties>  (1) 
{"2": {"label": "donator", "atom_type": "Cs"}, "7": {"label": "d_hydrogen", "atom_type": "H0"}}

>  <type>  (1) 
r1h

$$$$

     RDKit          3D

  9  8  0  0  0  0  0  0  0  0999 V2000
   -1.2704   -0.1236    0.1096 C   0  0  0  0  0  0  0  0  0  0  0  0
    0.0713   -0.5323    0.5887 C   0  0  0  0  0  0  0  0  0  0  0  0
    0.9521   -1.3639   -0.0464 C   0  0  0  0  0  0  0  0  0  0  0  0
    0.6900   -2.1109   -1.5335 S   0  0  0  0  0  1  0  0  0  0  0  0
   -1.3201    0.9657    0.0241 H   0  0  0  0  0  0  0  0  0  0  0  0
   -1.5103   -0.5706   -0.8526 H   0  0  0  0  0  0  0  0  0  0  0  0
   -2.0312   -0.4112    0.8411 H   0  0  0  0  0  0  0  0  0  0  0  0
    0.3863   -0.1265    1.5468 H   0  0  0  0  0  0  0  0  0  0  0  0
    1.8971   -1.5543    0.4552 H   0  0  0  0  0  0  0  0  0  0  0  0
  1  2  1  0
  1  5  1  0
  1  6  1  0
  1  7  1  0
  2  3  2  3
  2  8  1  0
  3  4  1  0
  3  9  1  0
M  RAD  1   4   2
M  END
>  <reaction>  (2) 
rxn_1063

>  <mol_properties>  (2) 
{"1": {"label": "acceptor", "atom_type": "Cs"}}

>  <type>  (2) 
r2

$$$$

     RDKit          3D

 10  9  0  0  0  0  0  0  0  0999 V2000
   -1.1508    0.0666    0.2839 C   0  0  0  0  0  0  0  0  0  0  0  0
    0.1022   -0.3749   -0.4771 C   0  0  0  0  0  0  0  0  0  0  0  0
    1.3428    0.1620    0.1542 C   0  0  0  0  0  0  0  0  0  0  0  0
    2.5613   -0.6971    0.7526 S   0  0  0  0  0  0  0  0  0  0  0  0
   -1.2137    1.1546    0.3481 H   0  0  0  0  0  0  0  0  0  0  0  0
   -2.0472   -0.2935   -0.2212 H   0  0  0  0  0  0  0  0  0  0  0  0
   -1.1467   -0.3334    1.2987 H   0  0  0  0  0  0  0  0  0  0  0  0
    0.1602   -1.4616   -0.5369 H   0  0  0  0  0  0  0  0  0  0  0  0
    0.0536    0.0174   -1.4997 H   0  0  0  0  0  0  0  0  0  0  0  0
    1.3824    1.2528    0.2110 H   0  0  0  0  0  0  0  0  0  0  0  0
  1  2  1  0
  1  5  1  0
  1  6  1  0
  1  7  1  0
  2  3  1  0
  2  8  1  0
  2  9  1  0
  3  4  2  0
  3 10  1  0
M  END
>  <reaction>  (3) 
rxn_1063

>  <mol_properties>  (3) 
{"1": {"label": "acceptor", "atom_type": "Cs"}, "9": {"label": "a_hydrogen", "atom_type": "H0"}}

>  <type>  (3) 
r2h

$$$$

     RDKit          3D

 21 19  0  0  0  0  0  0  0  0999 V2000
    0.0536    0.1524    2.0255 C   0  0  0  0  0  0  0  0  0  0  0  0
    0.5421    1.2472    1.1147 C   0  0  0  0  0  0  0  0  0  0  0  0
    1.6580    1.0230    0.2390 C   0  0  0  0  0  0  0  0  0  0  0  0
    2.2736   -0.4255   -0.2098 S   0  0  0  0  0  0  0  0  0  0  0  0
   -0.1197   -0.7666    1.4656 H   0  0  0  0  0  0  0  0  0  0  0  0
    0.7966   -0.0674    2.7953 H   0  0  0  0  0  0  0  0  0  0  0  0
   -0.8742    0.4485    2.5172 H   0  0  0  0  0  0  0  0  0  0  0  0
    0.5296    2.2473    1.5485 H   0  0  0  0  0  0  0  0  0  0  0  0
    2.0862    1.9262   -0.1965 H   0  0  0  0  0  0  0  0  0  0  0  0
   -1.5220   -0.8985   -1.5502 C   0  0  0  0  0  0  0  0  0  0  0  0
   -1.9478    0.0342   -0.6868 C   0  0  0  0  0  0  0  0  0  0  0  0
   -1.5016    1.4092   -0.6496 C   0  0  0  0  0  3  0  0  0  0  0  0
   -0.7871    2.0099   -1.8268 C   0  0  0  0  0  0  0  0  0  0  0  0
   -0.8110   -0.6743   -2.3353 H   0  0  0  0  0  0  0  0  0  0  0  0
   -1.8772   -1.9182   -1.4881 H   0  0  0  0  0  0  0  0  0  0  0  0
   -2.6513   -0.2604    0.0859 H   0  0  0  0  0  0  0  0  0  0  0  0
   -0.4512    1.3718    0.2715 H   0  0  0  0  0  0  0  0  0  0  0  0
   -2.1659    2.0860   -0.1171 H   0  0  0  0  0  0  0  0  0  0  0  0
   -1.4351    2.0297   -2.7072 H   0  0  0  0  0  0  0  0  0  0  0  0
    0.1047    1.4348   -2.0867 H   0  0  0  0  0  0  0  0  0  0  0  0
   -0.4754    3.0323   -1.6118 H   0  0  0  0  0  0  0  0  0  0  0  0
  1  2  1  0
  1  5  1  0
  1  6  1  0
  1  7  1  0
  2  3  1  0
  2  8  1  0
  2 17  1  0
  3  4  2  0
  3  9  1  0
 10 11  2  3
 10 14  1  0
 10 15  1  0
 11 12  1  0
 11 16  1  0
 12 13  1  0
 12 18  1  0
 13 19  1  0
 13 20  1  0
 13 21  1  0
M  RAD  1  12   2
M  END
>  <reaction>  (4) 
rxn_1063

>  <mol_properties>  (4) 
{"1": {"label": "*1", "atom_type": "Cs"}, "2": {"label": "*0", "atom_type": "CS"}, "10": {"label": "*4", "atom_type": "Cd"}, "11": {"label": "*3", "atom_type": "Cs"}, "16": {"label": "*2", "atom_type": "H0"}}

>  <type>  (4) 
ts

$$$$

     RDKit          3D

 21 19  0  0  0  0  0  0  0  0999 V2000
    2.4938    0.9818    0.6856 C   0  0  0  0  0  0  0  0  0  0  0  0
    1.5625   -0.2183    0.8771 C   0  0  0  0  0  0  0  0  0  0  0  0
    0.4363    0.1055    1.8005 C   0  0  0  0  0  0  0  0  0  0  0  0
   -1.1313    0.0575    1.4520 S   0  0  0  0  0  0  0  0  0  0  0  0
    1.9632    1.8104    0.2147 H   0  0  0  0  0  0  0  0  0  0  0  0
    2.8916    1.3321    1.6400 H   0  0  0  0  0  0  0  0  0  0  0  0
    3.3358    0.7099    0.0490 H   0  0  0  0  0  0  0  0  0  0  0  0
    2.1316   -1.0420    1.3237 H   0  0  0  0  0  0  0  0  0  0  0  0
    0.7499    0.4175    2.7998 H   0  0  0  0  0  0  0  0  0  0  0  0
   -0.5186   -1.2601   -2.9281 C   0  0  0  0  0  0  0  0  0  0  0  0
   -0.5186   -1.2601   -1.6038 C   0  0  0  0  0  0  0  0  0  0  0  0
   -0.5186   -0.0556   -0.7103 C   0  0  0  0  0  3  0  0  0  0  0  0
   -0.5186    1.2902   -1.4180 C   0  0  0  0  0  0  0  0  0  0  0  0
   -0.5186   -0.3432   -3.5055 H   0  0  0  0  0  0  0  0  0  0  0  0
   -0.5186   -2.1874   -3.4868 H   0  0  0  0  0  0  0  0  0  0  0  0
   -0.5186   -2.2158   -1.0856 H   0  0  0  0  0  0  0  0  0  0  0  0
    0.5247   -0.1372    0.0855 H   0  0  0  0  0  0  0  0  0  0  0  0
   -1.3880   -0.1236   -0.0472 H   0  0  0  0  0  0  0  0  0  0  0  0
   -1.4010    1.4052   -2.0504 H   0  0  0  0  0  0  0  0  0  0  0  0
    0.3638    1.4052   -2.0504 H   0  0  0  0  0  0  0  0  0  0  0  0
   -0.5186    2.1045   -0.6927 H   0  0  0  0  0  0  0  0  0  0  0  0
  1  2  1  0
  1  5  1  0
  1  6  1  0
  1  7  1  0
  2  3  1  0
  2  8  1  0
  2 17  1  0
  3  4  2  0
  3  9  1  0
 10 11  2  3
 10 14  1  0
 10 15  1  0
 11 12  1  0
 11 16  1  0
 12 13  1  0
 12 18  1  0
 13 19  1  0
 13 20  1  0
 13 21  1  0
M  RAD  1  12   2
M  END
>  <reaction>  (5) 
rxn_1063

>  <mol_properties>  (5) 
{"1": {"label": "*1", "atom_type": "Cs"}, "2": {"label": "*0", "atom_type": "CS"}, "10": {"label": "*4", "atom_type": "Cd"}, "11": {"label": "*3", "atom_type": "Cs"}, "16": {"label": "*2", "atom_type": "H0"}}

>  <type>  (5) 
unop_1

>  <geom_source>  (5) 
Heuristics

$$$$

     RDKit          3D

 21 19  0  0  0  0  0  0  0  0999 V2000
    2.0429   -1.4277    0.6456 C   0  0  0  0  0  0  0  0  0  0  0  0
    0.8930   -0.6780    1.3237 C   0  0  0  0  0  0  0  0  0  0  0  0
    1.1450    0.7921    1.3602 C   0  0  0  0  0  0  0  0  0  0  0  0
    0.2356    1.9360    0.6927 S   0  0  0  0  0  0  0  0  0  0  0  0
    2.1384   -1.1250   -0.3979 H   0  0  0  0  0  0  0  0  0  0  0  0
    2.9939   -1.2312    1.1445 H   0  0  0  0  0  0  0  0  0  0  0  0
    1.8632   -2.5025    0.6741 H   0  0  0  0  0  0  0  0  0  0  0  0
    0.8042   -1.0253    2.3597 H   0  0  0  0  0  0  0  0  0  0  0  0
    2.0572    1.0787    1.8895 H   0  0  0  0  0  0  0  0  0  0  0  0
   -1.1882   -1.7198   -2.4815 C   0  0  0  0  0  0  0  0  0  0  0  0
   -1.1882   -1.7198   -1.1571 C   0  0  0  0  0  0  0  0  0  0  0  0
   -1.1882   -0.5153   -0.2637 C   0  0  0  0  0  3  0  0  0  0  0  0
   -1.1882    0.8305   -0.9714 C   0  0  0  0  0  0  0  0  0  0  0  0
   -1.1882   -0.8029   -3.0589 H   0  0  0  0  0  0  0  0  0  0  0  0
   -1.1882   -2.6471   -3.0402 H   0  0  0  0  0  0  0  0  0  0  0  0
   -1.1882   -2.6755   -0.6390 H   0  0  0  0  0  0  0  0  0  0  0  0
   -0.1449   -0.5969    0.5321 H   0  0  0  0  0  0  0  0  0  0  0  0
   -2.0576   -0.5833    0.3995 H   0  0  0  0  0  0  0  0  0  0  0  0
   -2.0706    0.9455   -1.6038 H   0  0  0  0  0  0  0  0  0  0  0  0
   -0.3057    0.9455   -1.6038 H   0  0  0  0  0  0  0  0  0  0  0  0
   -1.1882    1.6448   -0.2461 H   0  0  0  0  0  0  0  0  0  0  0  0
  1  2  1  0
  1  5  1  0
  1  6  1  0
  1  7  1  0
  2  3  1  0
  2  8  1  0
  2 17  1  0
  3  4  2  0
  3  9  1  0
 10 11  2  3
 10 14  1  0
 10 15  1  0
 11 12  1  0
 11 16  1  0
 12 13  1  0
 12 18  1  0
 13 19  1  0
 13 20  1  0
 13 21  1  0
M  RAD  1  12   2
M  END
>  <reaction>  (6) 
rxn_1063

>  <mol_properties>  (6) 
{"1": {"label": "*1", "atom_type": "Cs"}, "2": {"label": "*0", "atom_type": "CS"}, "10": {"label": "*4", "atom_type": "Cd"}, "11": {"label": "*3", "atom_type": "Cs"}, "16": {"label": "*2", "atom_type": "H0"}}

>  <type>  (6) 
unop_2

>  <geom_source>  (6) 
Heuristics

$$$$

     RDKit          3D

 21 19  0  0  0  0  0  0  0  0999 V2000
    2.0495    1.5426    1.1371 C   0  0  0  0  0  0  0  0  0  0  0  0
    1.5420    0.1500    0.7533 C   0  0  0  0  0  0  0  0  0  0  0  0
    0.5895   -0.3840    1.7699 C   0  0  0  0  0  0  0  0  0  0  0  0
   -0.9426   -0.7989    1.5214 S   0  0  0  0  0  0  0  0  0  0  0  0
    1.2270    2.2583    1.1664 H   0  0  0  0  0  0  0  0  0  0  0  0
    2.5276    1.5345    2.1185 H   0  0  0  0  0  0  0  0  0  0  0  0
    2.7810    1.8930    0.4088 H   0  0  0  0  0  0  0  0  0  0  0  0
    2.3943   -0.5377    0.7035 H   0  0  0  0  0  0  0  0  0  0  0  0
    1.0084   -0.4726    2.7755 H   0  0  0  0  0  0  0  0  0  0  0  0
   -0.5392   -0.8918   -3.0519 C   0  0  0  0  0  0  0  0  0  0  0  0
   -0.5392   -0.8918   -1.7275 C   0  0  0  0  0  0  0  0  0  0  0  0
   -0.5392    0.3127   -0.8341 C   0  0  0  0  0  3  0  0  0  0  0  0
   -0.5392    1.6585   -1.5418 C   0  0  0  0  0  0  0  0  0  0  0  0
   -0.5392    0.0251   -3.6293 H   0  0  0  0  0  0  0  0  0  0  0  0
   -0.5392   -1.8191   -3.6106 H   0  0  0  0  0  0  0  0  0  0  0  0
   -0.5392   -1.8475   -1.2094 H   0  0  0  0  0  0  0  0  0  0  0  0
    0.5041    0.2312   -0.0383 H   0  0  0  0  0  0  0  0  0  0  0  0
   -1.4086    0.2448   -0.1710 H   0  0  0  0  0  0  0  0  0  0  0  0
   -1.4216    1.7735   -2.1742 H   0  0  0  0  0  0  0  0  0  0  0  0
    0.3433    1.7735   -2.1742 H   0  0  0  0  0  0  0  0  0  0  0  0
   -0.5392    2.4728   -0.8165 H   0  0  0  0  0  0  0  0  0  0  0  0
  1  2  1  0
  1  5  1  0
  1  6  1  0
  1  7  1  0
  2  3  1  0
  2  8  1  0
  2 17  1  0
  3  4  2  0
  3  9  1  0
 10 11  2  3
 10 14  1  0
 10 15  1  0
 11 12  1  0
 11 16  1  0
 12 13  1  0
 12 18  1  0
 13 19  1  0
 13 20  1  0
 13 21  1  0
M  RAD  1  12   2
M  END
>  <reaction>  (7) 
rxn_1063

>  <mol_properties>  (7) 
{"1": {"label": "*1", "atom_type": "Cs"}, "2": {"label": "*0", "atom_type": "CS"}, "10": {"label": "*4", "atom_type": "Cd"}, "11": {"label": "*3", "atom_type": "Cs"}, "16": {"label": "*2", "atom_type": "H0"}}

>  <type>  (7) 
unop_3

>  <geom_source>  (7) 
Heuristics

$$$$

     RDKit          3D

 21 19  0  0  0  0  0  0  0  0999 V2000
    0.1678   -1.2994    2.2508 C   0  0  0  0  0  0  0  0  0  0  0  0
    0.2283   -0.0312    1.3951 C   0  0  0  0  0  0  0  0  0  0  0  0
    1.6328    0.4364    1.2093 C   0  0  0  0  0  0  0  0  0  0  0  0
    2.4101    0.6011   -0.1871 S   0  0  0  0  0  0  0  0  0  0  0  0
    0.6836   -2.1234    1.7561 H   0  0  0  0  0  0  0  0  0  0  0  0
    0.6340   -1.1434    3.2255 H   0  0  0  0  0  0  0  0  0  0  0  0
   -0.8681   -1.5955    2.4163 H   0  0  0  0  0  0  0  0  0  0  0  0
   -0.3230    0.7678    1.9045 H   0  0  0  0  0  0  0  0  0  0  0  0
    2.1573    0.6650    2.1404 H   0  0  0  0  0  0  0  0  0  0  0  0
   -1.8529   -1.0730   -2.4101 C   0  0  0  0  0  0  0  0  0  0  0  0
   -1.8529   -1.0730   -1.0857 C   0  0  0  0  0  0  0  0  0  0  0  0
   -1.8529    0.1315   -0.1923 C   0  0  0  0  0  3  0  0  0  0  0  0
   -1.8529    1.4772   -0.9000 C   0  0  0  0  0  0  0  0  0  0  0  0
   -1.8529   -0.1561   -2.9875 H   0  0  0  0  0  0  0  0  0  0  0  0
   -1.8529   -2.0003   -2.9688 H   0  0  0  0  0  0  0  0  0  0  0  0
   -1.8529   -2.0287   -0.5675 H   0  0  0  0  0  0  0  0  0  0  0  0
   -0.8096    0.0499    0.6035 H   0  0  0  0  0  0  0  0  0  0  0  0
   -2.7223    0.0635    0.4709 H   0  0  0  0  0  0  0  0  0  0  0  0
   -2.7353    1.5923   -1.5324 H   0  0  0  0  0  0  0  0  0  0  0  0
   -0.9704    1.5923   -1.5324 H   0  0  0  0  0  0  0  0  0  0  0  0
   -1.8529    2.2916   -0.1747 H   0  0  0  0  0  0  0  0  0  0  0  0
  1  2  1  0
  1  5  1  0
  1  6  1  0
  1  7  1  0
  2  3  1  0
  2  8  1  0
  2 17  1  0
  3  4  2  0
  3  9  1  0
 10 11  2  3
 10 14  1  0
 10 15  1  0
 11 12  1  0
 11 16  1  0
 12 13  1  0
 12 18  1  0
 13 19  1  0
 13 20  1  0
 13 21  1  0
M  RAD  1  12   2
M  END
>  <reaction>  (8) 
rxn_1063

>  <mol_properties>  (8) 
{"1": {"label": "*1", "atom_type": "Cs"}, "2": {"label": "*0", "atom_type": "CS"}, "10": {"label": "*4", "atom_type": "Cd"}, "11": {"label": "*3", "atom_type": "Cs"}, "16": {"label": "*2", "atom_type": "H0"}}

>  <type>  (8) 
unop_4

>  <geom_source>  (8) 
Heuristics

$$$$

     RDKit          3D

 21 19  0  0  0  0  0  0  0  0999 V2000
    1.2488    1.8040    1.6795 C   0  0  0  0  0  0  0  0  0  0  0  0
    1.1843    0.6012    0.7344 C   0  0  0  0  0  0  0  0  0  0  0  0
    1.1433   -0.6853    1.4888 C   0  0  0  0  0  0  0  0  0  0  0  0
   -0.0235   -1.7885    1.4374 S   0  0  0  0  0  0  0  0  0  0  0  0
    0.3504    1.8589    2.2957 H   0  0  0  0  0  0  0  0  0  0  0  0
    2.1128    1.7412    2.3439 H   0  0  0  0  0  0  0  0  0  0  0  0
    1.3287    2.7297    1.1095 H   0  0  0  0  0  0  0  0  0  0  0  0
    2.0852    0.5912    0.1099 H   0  0  0  0  0  0  0  0  0  0  0  0
    2.0032   -0.8503    2.1429 H   0  0  0  0  0  0  0  0  0  0  0  0
   -0.8969   -0.4406   -3.0708 C   0  0  0  0  0  0  0  0  0  0  0  0
   -0.8969   -0.4406   -1.7464 C   0  0  0  0  0  0  0  0  0  0  0  0
   -0.8969    0.7639   -0.8530 C   0  0  0  0  0  3  0  0  0  0  0  0
   -0.8969    2.1097   -1.5607 C   0  0  0  0  0  0  0  0  0  0  0  0
   -0.8969    0.4763   -3.6482 H   0  0  0  0  0  0  0  0  0  0  0  0
   -0.8969   -1.3679   -3.6295 H   0  0  0  0  0  0  0  0  0  0  0  0
   -0.8969   -1.3963   -1.2283 H   0  0  0  0  0  0  0  0  0  0  0  0
    0.1464    0.6823   -0.0572 H   0  0  0  0  0  0  0  0  0  0  0  0
   -1.7663    0.6959   -0.1899 H   0  0  0  0  0  0  0  0  0  0  0  0
   -1.7793    2.2247   -2.1931 H   0  0  0  0  0  0  0  0  0  0  0  0
   -0.0144    2.2247   -2.1931 H   0  0  0  0  0  0  0  0  0  0  0  0
   -0.8969    2.9240   -0.8354 H   0  0  0  0  0  0  0  0  0  0  0  0
  1  2  1  0
  1  5  1  0
  1  6  1  0
  1  7  1  0
  2  3  1  0
  2  8  1  0
  2 17  1  0
  3  4  2  0
  3  9  1  0
 10 11  2  3
 10 14  1  0
 10 15  1  0
 11 12  1  0
 11 16  1  0
 12 13  1  0
 12 18  1  0
 13 19  1  0
 13 20  1  0
 13 21  1  0
M  RAD  1  12   2
M  END
>  <reaction>  (9) 
rxn_1063

>  <mol_properties>  (9) 
{"1": {"label": "*1", "atom_type": "Cs"}, "2": {"label": "*0", "atom_type": "CS"}, "10": {"label": "*4", "atom_type": "Cd"}, "11": {"label": "*3", "atom_type": "Cs"}, "16": {"label": "*2", "atom_type": "H0"}}

>  <type>  (9) 
unop_5

>  <geom_source>  (9) 
Heuristics

$$$$

     RDKit          3D

 21 19  0  0  0  0  0  0  0  0999 V2000
   -0.1211   -0.5099    2.6117 C   0  0  0  0  0  0  0  0  0  0  0  0
    0.2302    0.2351    1.3211 C   0  0  0  0  0  0  0  0  0  0  0  0
    1.7054    0.2888    1.1051 C   0  0  0  0  0  0  0  0  0  0  0  0
    2.5122   -0.3133   -0.1470 S   0  0  0  0  0  0  0  0  0  0  0  0
    0.2008   -1.5506    2.5561 H   0  0  0  0  0  0  0  0  0  0  0  0
    0.3595   -0.0517    3.4781 H   0  0  0  0  0  0  0  0  0  0  0  0
   -1.1985   -0.4944    2.7766 H   0  0  0  0  0  0  0  0  0  0  0  0
   -0.1320    1.2670    1.3965 H   0  0  0  0  0  0  0  0  0  0  0  0
    2.2596    0.7810    1.9083 H   0  0  0  0  0  0  0  0  0  0  0  0
   -1.8510   -0.8067   -2.4841 C   0  0  0  0  0  0  0  0  0  0  0  0
   -1.8510   -0.8067   -1.1598 C   0  0  0  0  0  0  0  0  0  0  0  0
   -1.8510    0.3978   -0.2663 C   0  0  0  0  0  3  0  0  0  0  0  0
   -1.8510    1.7436   -0.9740 C   0  0  0  0  0  0  0  0  0  0  0  0
   -1.8510    0.1102   -3.0616 H   0  0  0  0  0  0  0  0  0  0  0  0
   -1.8510   -1.7340   -3.0428 H   0  0  0  0  0  0  0  0  0  0  0  0
   -1.8510   -1.7624   -0.6416 H   0  0  0  0  0  0  0  0  0  0  0  0
   -0.8077    0.3162    0.5294 H   0  0  0  0  0  0  0  0  0  0  0  0
   -2.7204    0.3298    0.3968 H   0  0  0  0  0  0  0  0  0  0  0  0
   -2.7334    1.8586   -1.6065 H   0  0  0  0  0  0  0  0  0  0  0  0
   -0.9685    1.8586   -1.6065 H   0  0  0  0  0  0  0  0  0  0  0  0
   -1.8510    2.5579   -0.2487 H   0  0  0  0  0  0  0  0  0  0  0  0
  1  2  1  0
  1  5  1  0
  1  6  1  0
  1  7  1  0
  2  3  1  0
  2  8  1  0
  2 17  1  0
  3  4  2  0
  3  9  1  0
 10 11  2  3
 10 14  1  0
 10 15  1  0
 11 12  1  0
 11 16  1  0
 12 13  1  0
 12 18  1  0
 13 19  1  0
 13 20  1  0
 13 21  1  0
M  RAD  1  12   2
M  END
>  <reaction>  (10) 
rxn_1063

>  <mol_properties>  (10) 
{"1": {"label": "*1", "atom_type": "Cs"}, "2": {"label": "*0", "atom_type": "CS"}, "10": {"label": "*4", "atom_type": "Cd"}, "11": {"label": "*3", "atom_type": "Cs"}, "16": {"label": "*2", "atom_type": "H0"}}

>  <type>  (10) 
unop_6

>  <geom_source>  (10) 
Heuristics

$$$$

     RDKit          3D

 21 19  0  0  0  0  0  0  0  0999 V2000
   -0.0880    0.4664    2.6633 C   0  0  0  0  0  0  0  0  0  0  0  0
    0.3433    0.4978    1.1946 C   0  0  0  0  0  0  0  0  0  0  0  0
    1.7442    0.0130    1.0258 C   0  0  0  0  0  0  0  0  0  0  0  0
    2.2222   -1.2473    0.1515 S   0  0  0  0  0  0  0  0  0  0  0  0
   -0.0884   -0.5559    3.0434 H   0  0  0  0  0  0  0  0  0  0  0  0
    0.5829    1.0603    3.2870 H   0  0  0  0  0  0  0  0  0  0  0  0
   -1.0945    0.8709    2.7711 H   0  0  0  0  0  0  0  0  0  0  0  0
    0.3046    1.5326    0.8348 H   0  0  0  0  0  0  0  0  0  0  0  0
    2.4891    0.5891    1.5804 H   0  0  0  0  0  0  0  0  0  0  0  0
   -1.7378   -0.5440   -2.6106 C   0  0  0  0  0  0  0  0  0  0  0  0
   -1.7378   -0.5440   -1.2863 C   0  0  0  0  0  0  0  0  0  0  0  0
   -1.7378    0.6605   -0.3928 C   0  0  0  0  0  3  0  0  0  0  0  0
   -1.7378    2.0063   -1.1005 C   0  0  0  0  0  0  0  0  0  0  0  0
   -1.7378    0.3729   -3.1880 H   0  0  0  0  0  0  0  0  0  0  0  0
   -1.7378   -1.4713   -3.1693 H   0  0  0  0  0  0  0  0  0  0  0  0
   -1.7378   -1.4997   -0.7681 H   0  0  0  0  0  0  0  0  0  0  0  0
   -0.6946    0.5790    0.4030 H   0  0  0  0  0  0  0  0  0  0  0  0
   -2.6072    0.5925    0.2703 H   0  0  0  0  0  0  0  0  0  0  0  0
   -2.6203    2.1213   -1.7329 H   0  0  0  0  0  0  0  0  0  0  0  0
   -0.8554    2.1213   -1.7329 H   0  0  0  0  0  0  0  0  0  0  0  0
   -1.7378    2.8206   -0.3752 H   0  0  0  0  0  0  0  0  0  0  0  0
  1  2  1  0
  1  5  1  0
  1  6  1  0
  1  7  1  0
  2  3  1  0
  2  8  1  0
  2 17  1  0
  3  4  2  0
  3  9  1  0
 10 11  2  3
 10 14  1  0
 10 15  1  0
 11 12  1  0
 11 16  1  0
 12 13  1  0
 12 18  1  0
 13 19  1  0
 13 20  1  0
 13 21  1  0
M  RAD  1  12   2
M  END
>  <reaction>  (11) 
rxn_1063

>  <mol_properties>  (11) 
{"1": {"label": "*1", "atom_type": "Cs"}, "2": {"label": "*0", "atom_type": "CS"}, "10": {"label": "*4", "atom_type": "Cd"}, "11": {"label": "*3", "atom_type": "Cs"}, "16": {"label": "*2", "atom_type": "H0"}}

>  <type>  (11) 
unop_7

>  <geom_source>  (11) 
Heuristics

$$$$

     RDKit          3D

 21 19  0  0  0  0  0  0  0  0999 V2000
    2.6567    0.1985    0.3849 C   0  0  0  0  0  0  0  0  0  0  0  0
    1.4346   -0.4784    1.0113 C   0  0  0  0  0  0  0  0  0  0  0  0
    0.5533    0.5109    1.6973 C   0  0  0  0  0  0  0  0  0  0  0  0
   -0.9842    0.8241    1.3522 S   0  0  0  0  0  0  0  0  0  0  0  0
    2.3524    0.9015   -0.3916 H   0  0  0  0  0  0  0  0  0  0  0  0
    3.2335    0.7469    1.1322 H   0  0  0  0  0  0  0  0  0  0  0  0
    3.3121   -0.5462   -0.0668 H   0  0  0  0  0  0  0  0  0  0  0  0
    1.7744   -1.1986    1.7647 H   0  0  0  0  0  0  0  0  0  0  0  0
    1.0433    1.0696    2.4986 H   0  0  0  0  0  0  0  0  0  0  0  0
   -0.6466   -1.5202   -2.7939 C   0  0  0  0  0  0  0  0  0  0  0  0
   -0.6466   -1.5202   -1.4695 C   0  0  0  0  0  0  0  0  0  0  0  0
   -0.6466   -0.3157   -0.5761 C   0  0  0  0  0  3  0  0  0  0  0  0
   -0.6466    1.0301   -1.2838 C   0  0  0  0  0  0  0  0  0  0  0  0
   -0.6466   -0.6033   -3.3713 H   0  0  0  0  0  0  0  0  0  0  0  0
   -0.6466   -2.4475   -3.3525 H   0  0  0  0  0  0  0  0  0  0  0  0
   -0.6466   -2.4759   -0.9513 H   0  0  0  0  0  0  0  0  0  0  0  0
    0.3967   -0.3973    0.2197 H   0  0  0  0  0  0  0  0  0  0  0  0
   -1.5160   -0.3837    0.0871 H   0  0  0  0  0  0  0  0  0  0  0  0
   -1.5290    1.1451   -1.9162 H   0  0  0  0  0  0  0  0  0  0  0  0
    0.2359    1.1451   -1.9162 H   0  0  0  0  0  0  0  0  0  0  0  0
   -0.6466    1.8444   -0.5585 H   0  0  0  0  0  0  0  0  0  0  0  0
  1  2  1  0
  1  5  1  0
  1  6  1  0
  1  7  1  0
  2  3  1  0
  2  8  1  0
  2 17  1  0
  3  4  2  0
  3  9  1  0
 10 11  2  3
 10 14  1  0
 10 15  1  0
 11 12  1  0
 11 16  1  0
 12 13  1  0
 12 18  1  0
 13 19  1  0
 13 20  1  0
 13 21  1  0
M  RAD  1  12   2
M  END
>  <reaction>  (12) 
rxn_1063

>  <mol_properties>  (12) 
{"1": {"label": "*1", "atom_type": "Cs"}, "2": {"label": "*0", "atom_type": "CS"}, "10": {"label": "*4", "atom_type": "Cd"}, "11": {"label": "*3", "atom_type": "Cs"}, "16": {"label": "*2", "atom_type": "H0"}}

>  <type>  (12) 
unop_8

>  <geom_source>  (12) 
Heuristics

$$$$

     RDKit          3D

 21 19  0  0  0  0  0  0  0  0999 V2000
    0.6966   -1.7617    1.7188 C   0  0  0  0  0  0  0  0  0  0  0  0
    0.3334   -0.3010    1.4384 C   0  0  0  0  0  0  0  0  0  0  0  0
    1.5522    0.5412    1.2617 C   0  0  0  0  0  0  0  0  0  0  0  0
    1.9527    1.3827   -0.0469 S   0  0  0  0  0  0  0  0  0  0  0  0
    1.2279   -2.1965    0.8713 H   0  0  0  0  0  0  0  0  0  0  0  0
    1.3341   -1.8501    2.6006 H   0  0  0  0  0  0  0  0  0  0  0  0
   -0.2047   -2.3490    1.8944 H   0  0  0  0  0  0  0  0  0  0  0  0
   -0.2240    0.0973    2.2942 H   0  0  0  0  0  0  0  0  0  0  0  0
    2.2226    0.5483    2.1248 H   0  0  0  0  0  0  0  0  0  0  0  0
   -1.7478   -1.3428   -2.3668 C   0  0  0  0  0  0  0  0  0  0  0  0
   -1.7478   -1.3428   -1.0425 C   0  0  0  0  0  0  0  0  0  0  0  0
   -1.7478   -0.1383   -0.1490 C   0  0  0  0  0  3  0  0  0  0  0  0
   -1.7478    1.2075   -0.8567 C   0  0  0  0  0  0  0  0  0  0  0  0
   -1.7478   -0.4259   -2.9442 H   0  0  0  0  0  0  0  0  0  0  0  0
   -1.7478   -2.2701   -2.9255 H   0  0  0  0  0  0  0  0  0  0  0  0
   -1.7478   -2.2985   -0.5243 H   0  0  0  0  0  0  0  0  0  0  0  0
   -0.7045   -0.2199    0.6467 H   0  0  0  0  0  0  0  0  0  0  0  0
   -2.6172   -0.2063    0.5141 H   0  0  0  0  0  0  0  0  0  0  0  0
   -2.6302    1.3225   -1.4891 H   0  0  0  0  0  0  0  0  0  0  0  0
   -0.8653    1.3225   -1.4891 H   0  0  0  0  0  0  0  0  0  0  0  0
   -1.7478    2.0218   -0.1314 H   0  0  0  0  0  0  0  0  0  0  0  0
  1  2  1  0
  1  5  1  0
  1  6  1  0
  1  7  1  0
  2  3  1  0
  2  8  1  0
  2 17  1  0
  3  4  2  0
  3  9  1  0
 10 11  2  3
 10 14  1  0
 10 15  1  0
 11 12  1  0
 11 16  1  0
 12 13  1  0
 12 18  1  0
 13 19  1  0
 13 20  1  0
 13 21  1  0
M  RAD  1  12   2
M  END
>  <reaction>  (13) 
rxn_1063

>  <mol_properties>  (13) 
{"1": {"label": "*1", "atom_type": "Cs"}, "2": {"label": "*0", "atom_type": "CS"}, "10": {"label": "*4", "atom_type": "Cd"}, "11": {"label": "*3", "atom_type": "Cs"}, "16": {"label": "*2", "atom_type": "H0"}}

>  <type>  (13) 
unop_9

>  <geom_source>  (13) 
Heuristics

$$$$

     RDKit          3D

 21 19  0  0  0  0  0  0  0  0999 V2000
    2.5069   -0.6815    0.3620 C   0  0  0  0  0  0  0  0  0  0  0  0
    1.2047   -0.6447    1.1665 C   0  0  0  0  0  0  0  0  0  0  0  0
    0.8219    0.7524    1.5235 C   0  0  0  0  0  0  0  0  0  0  0  0
   -0.5304    1.5114    1.1034 S   0  0  0  0  0  0  0  0  0  0  0  0
    2.3868   -0.1626   -0.5899 H   0  0  0  0  0  0  0  0  0  0  0  0
    3.3241   -0.2055    0.9073 H   0  0  0  0  0  0  0  0  0  0  0  0
    2.7951   -1.7121    0.1550 H   0  0  0  0  0  0  0  0  0  0  0  0
    1.3489   -1.1986    2.1016 H   0  0  0  0  0  0  0  0  0  0  0  0
    1.5687    1.2853    2.1173 H   0  0  0  0  0  0  0  0  0  0  0  0
   -0.8764   -1.6865   -2.6387 C   0  0  0  0  0  0  0  0  0  0  0  0
   -0.8764   -1.6865   -1.3143 C   0  0  0  0  0  0  0  0  0  0  0  0
   -0.8764   -0.4820   -0.4209 C   0  0  0  0  0  3  0  0  0  0  0  0
   -0.8764    0.8637   -1.1286 C   0  0  0  0  0  0  0  0  0  0  0  0
   -0.8764   -0.7696   -3.2161 H   0  0  0  0  0  0  0  0  0  0  0  0
   -0.8764   -2.6139   -3.1974 H   0  0  0  0  0  0  0  0  0  0  0  0
   -0.8764   -2.6422   -0.7962 H   0  0  0  0  0  0  0  0  0  0  0  0
    0.1669   -0.5636    0.3749 H   0  0  0  0  0  0  0  0  0  0  0  0
   -1.7458   -0.5500    0.2423 H   0  0  0  0  0  0  0  0  0  0  0  0
   -1.7588    0.9788   -1.7610 H   0  0  0  0  0  0  0  0  0  0  0  0
    0.0060    0.9788   -1.7610 H   0  0  0  0  0  0  0  0  0  0  0  0
   -0.8764    1.6781   -0.4033 H   0  0  0  0  0  0  0  0  0  0  0  0
  1  2  1  0
  1  5  1  0
  1  6  1  0
  1  7  1  0
  2  3  1  0
  2  8  1  0
  2 17  1  0
  3  4  2  0
  3  9  1  0
 10 11  2  3
 10 14  1  0
 10 15  1  0
 11 12  1  0
 11 16  1  0
 12 13  1  0
 12 18  1  0
 13 19  1  0
 13 20  1  0
 13 21  1  0
M  RAD  1  12   2
M  END
>  <reaction>  (14) 
rxn_1063

>  <mol_properties>  (14) 
{"1": {"label": "*1", "atom_type": "Cs"}, "2": {"label": "*0", "atom_type": "CS"}, "10": {"label": "*4", "atom_type": "Cd"}, "11": {"label": "*3", "atom_type": "Cs"}, "16": {"label": "*2", "atom_type": "H0"}}

>  <type>  (14) 
unop_10

>  <geom_source>  (14) 
Heuristics

$$$$

     RDKit          3D

 21 19  0  0  0  0  0  0  0  0999 V2000
    0.3606    1.3849    2.3155 C   0  0  0  0  0  0  0  0  0  0  0  0
    0.6397    0.7033    0.9733 C   0  0  0  0  0  0  0  0  0  0  0  0
    1.6312   -0.4022    1.1173 C   0  0  0  0  0  0  0  0  0  0  0  0
    1.3918   -1.9534    0.7744 S   0  0  0  0  0  0  0  0  0  0  0  0
   -0.0897    0.6828    3.0183 H   0  0  0  0  0  0  0  0  0  0  0  0
    1.2782    1.7716    2.7630 H   0  0  0  0  0  0  0  0  0  0  0  0
   -0.3265    2.2203    2.1803 H   0  0  0  0  0  0  0  0  0  0  0  0
    1.0631    1.4408    0.2814 H   0  0  0  0  0  0  0  0  0  0  0  0
    2.6002   -0.0882    1.5133 H   0  0  0  0  0  0  0  0  0  0  0  0
   -1.4414   -0.3385   -2.8319 C   0  0  0  0  0  0  0  0  0  0  0  0
   -1.4414   -0.3385   -1.5076 C   0  0  0  0  0  0  0  0  0  0  0  0
   -1.4414    0.8660   -0.6141 C   0  0  0  0  0  3  0  0  0  0  0  0
   -1.4414    2.2118   -1.3218 C   0  0  0  0  0  0  0  0  0  0  0  0
   -1.4414    0.5784   -3.4094 H   0  0  0  0  0  0  0  0  0  0  0  0
   -1.4414   -1.2658   -3.3906 H   0  0  0  0  0  0  0  0  0  0  0  0
   -1.4414   -1.2942   -0.9894 H   0  0  0  0  0  0  0  0  0  0  0  0
   -0.3982    0.7845    0.1816 H   0  0  0  0  0  0  0  0  0  0  0  0
   -2.3108    0.7981    0.0490 H   0  0  0  0  0  0  0  0  0  0  0  0
   -2.3239    2.3268   -1.9543 H   0  0  0  0  0  0  0  0  0  0  0  0
   -0.5590    2.3268   -1.9543 H   0  0  0  0  0  0  0  0  0  0  0  0
   -1.4414    3.0262   -0.5965 H   0  0  0  0  0  0  0  0  0  0  0  0
  1  2  1  0
  1  5  1  0
  1  6  1  0
  1  7  1  0
  2  3  1  0
  2  8  1  0
  2 17  1  0
  3  4  2  0
  3  9  1  0
 10 11  2  3
 10 14  1  0
 10 15  1  0
 11 12  1  0
 11 16  1  0
 12 13  1  0
 12 18  1  0
 13 19  1  0
 13 20  1  0
 13 21  1  0
M  RAD  1  12   2
M  END
>  <reaction>  (15) 
rxn_1063

>  <mol_properties>  (15) 
{"1": {"label": "*1", "atom_type": "Cs"}, "2": {"label": "*0", "atom_type": "CS"}, "10": {"label": "*4", "atom_type": "Cd"}, "11": {"label": "*3", "atom_type": "Cs"}, "16": {"label": "*2", "atom_type": "H0"}}

>  <type>  (15) 
unop_11

>  <geom_source>  (15) 
Heuristics

$$$$

     RDKit          3D

 21 19  0  0  0  0  0  0  0  0999 V2000
    1.3737   -1.8171    1.1446 C   0  0  0  0  0  0  0  0  0  0  0  0
    0.5674   -0.5462    1.4255 C   0  0  0  0  0  0  0  0  0  0  0  0
    1.4083    0.6778    1.2812 C   0  0  0  0  0  0  0  0  0  0  0  0
    1.1647    1.8912    0.2568 S   0  0  0  0  0  0  0  0  0  0  0  0
    1.7271   -1.8294    0.1128 H   0  0  0  0  0  0  0  0  0  0  0  0
    2.2423   -1.8897    1.8018 H   0  0  0  0  0  0  0  0  0  0  0  0
    0.7556   -2.7007    1.3042 H   0  0  0  0  0  0  0  0  0  0  0  0
    0.2022   -0.5781    2.4587 H   0  0  0  0  0  0  0  0  0  0  0  0
    2.2760    0.7077    1.9449 H   0  0  0  0  0  0  0  0  0  0  0  0
   -1.5137   -1.5880   -2.3797 C   0  0  0  0  0  0  0  0  0  0  0  0
   -1.5137   -1.5880   -1.0553 C   0  0  0  0  0  0  0  0  0  0  0  0
   -1.5137   -0.3835   -0.1619 C   0  0  0  0  0  3  0  0  0  0  0  0
   -1.5137    0.9623   -0.8696 C   0  0  0  0  0  0  0  0  0  0  0  0
   -1.5137   -0.6711   -2.9571 H   0  0  0  0  0  0  0  0  0  0  0  0
   -1.5137   -2.5153   -2.9384 H   0  0  0  0  0  0  0  0  0  0  0  0
   -1.5137   -2.5437   -0.5371 H   0  0  0  0  0  0  0  0  0  0  0  0
   -0.4705   -0.4650    0.6339 H   0  0  0  0  0  0  0  0  0  0  0  0
   -2.3831   -0.4514    0.5013 H   0  0  0  0  0  0  0  0  0  0  0  0
   -2.3962    1.0773   -1.5020 H   0  0  0  0  0  0  0  0  0  0  0  0
   -0.6313    1.0773   -1.5020 H   0  0  0  0  0  0  0  0  0  0  0  0
   -1.5137    1.7767   -0.1443 H   0  0  0  0  0  0  0  0  0  0  0  0
  1  2  1  0
  1  5  1  0
  1  6  1  0
  1  7  1  0
  2  3  1  0
  2  8  1  0
  2 17  1  0
  3  4  2  0
  3  9  1  0
 10 11  2  3
 10 14  1  0
 10 15  1  0
 11 12  1  0
 11 16  1  0
 12 13  1  0
 12 18  1  0
 13 19  1  0
 13 20  1  0
 13 21  1  0
M  RAD  1  12   2
M  END
>  <reaction>  (16) 
rxn_1063

>  <mol_properties>  (16) 
{"1": {"label": "*1", "atom_type": "Cs"}, "2": {"label": "*0", "atom_type": "CS"}, "10": {"label": "*4", "atom_type": "Cd"}, "11": {"label": "*3", "atom_type": "Cs"}, "16": {"label": "*2", "atom_type": "H0"}}

>  <type>  (16) 
unop_12

>  <geom_source>  (16) 
Heuristics

$$$$

     RDKit          3D

 21 19  0  0  0  0  0  0  0  0999 V2000
    2.6952   -2.1466    0.6520 S   0  0  0  0  0  0  0  0  0  0  0  0
    1.6255   -0.0818   -0.3899 C   0  0  0  0  0  0  0  0  0  0  0  0
    1.8505    1.4207   -0.5137 C   0  0  0  0  0  0  0  0  0  0  0  0
   -1.8767   -1.7618    0.4068 C   0  0  0  0  0  0  0  0  0  0  0  0
   -0.8878   -0.6334    0.1406 C   0  0  0  0  0  3  0  0  0  0  0  0
   -1.5444    0.5437   -0.5203 C   0  0  0  0  0  0  0  0  0  0  0  0
    2.7358   -0.7376    0.3811 C   0  0  0  0  0  0  0  0  0  0  0  0
   -2.3925    1.3385    0.1385 C   0  0  0  0  0  0  0  0  0  0  0  0
    1.5654   -0.5232   -1.4089 H   0  0  0  0  0  0  0  0  0  0  0  0
    0.4639   -0.2911    0.2369 H   0  0  0  0  0  0  0  0  0  0  0  0
    1.8883    1.8868    0.4939 H   0  0  0  0  0  0  0  0  0  0  0  0
    2.8004    1.6262   -1.0521 H   0  0  0  0  0  0  0  0  0  0  0  0
    1.0121    1.8739   -1.0830 H   0  0  0  0  0  0  0  0  0  0  0  0
   -1.3337   -2.6308    0.8328 H   0  0  0  0  0  0  0  0  0  0  0  0
   -2.6541   -1.4365    1.1302 H   0  0  0  0  0  0  0  0  0  0  0  0
   -2.3614   -2.0761   -0.5418 H   0  0  0  0  0  0  0  0  0  0  0  0
   -0.3797   -0.3241    1.0795 H   0  0  0  0  0  0  0  0  0  0  0  0
   -1.2955    0.7674   -1.5526 H   0  0  0  0  0  0  0  0  0  0  0  0
    3.5714   -0.1537    0.7558 H   0  0  0  0  0  0  0  0  0  0  0  0
   -2.8396    2.1902   -0.3637 H   0  0  0  0  0  0  0  0  0  0  0  0
   -2.6432    1.1491    1.1778 H   0  0  0  0  0  0  0  0  0  0  0  0
  1  7  2  0
  2  3  1  0
  2  7  1  0
  2  9  1  0
  2 10  1  0
  3 11  1  0
  3 12  1  0
  3 13  1  0
  4  5  1  0
  4 14  1  0
  4 15  1  0
  4 16  1  0
  5  6  1  0
  5 17  1  0
  6  8  2  3
  6 18  1  0
  7 19  1  0
  8 20  1  0
  8 21  1  0
M  RAD  1   5   2
M  END
>  <reaction>  (17) 
rxn_1063

>  <mol_properties>  (17) 
{"1": {"label": "*1", "atom_type": "Cs"}, "2": {"label": "*0", "atom_type": "CS"}, "10": {"label": "*4", "atom_type": "Cd"}, "11": {"label": "*3", "atom_type": "Cs"}, "16": {"label": "*2", "atom_type": "H0"}}

>  <type>  (17) 
unop_13

>  <geom_source>  (17) 
AutoTST

$$$$

     RDKit          3D

 21 19  0  0  0  0  0  0  0  0999 V2000
    2.0429   -1.4277    0.6456 C   0  0  0  0  0  0  0  0  0  0  0  0
    0.8930   -0.6780    1.3237 C   0  0  0  0  0  0  0  0  0  0  0  0
    1.1450    0.7921    1.3602 C   0  0  0  0  0  0  0  0  0  0  0  0
    0.2356    1.9360    0.6927 S   0  0  0  0  0  0  0  0  0  0  0  0
    2.1384   -1.1250   -0.3979 H   0  0  0  0  0  0  0  0  0  0  0  0
    2.9939   -1.2312    1.1445 H   0  0  0  0  0  0  0  0  0  0  0  0
    1.8632   -2.5025    0.6742 H   0  0  0  0  0  0  0  0  0  0  0  0
    0.8042   -1.0253    2.3597 H   0  0  0  0  0  0  0  0  0  0  0  0
    2.0572    1.0787    1.8895 H   0  0  0  0  0  0  0  0  0  0  0  0
   -1.1882   -1.7198   -2.4815 C   0  0  0  0  0  0  0  0  0  0  0  0
   -1.1882   -1.7198   -1.1571 C   0  0  0  0  0  0  0  0  0  0  0  0
   -1.1882   -0.5153   -0.2637 C   0  0  0  0  0  3  0  0  0  0  0  0
   -1.1882    0.8305   -0.9714 C   0  0  0  0  0  0  0  0  0  0  0  0
   -1.1882   -0.8029   -3.0589 H   0  0  0  0  0  0  0  0  0  0  0  0
   -1.1882   -2.6471   -3.0402 H   0  0  0  0  0  0  0  0  0  0  0  0
   -1.1882   -2.6755   -0.6390 H   0  0  0  0  0  0  0  0  0  0  0  0
   -0.1449   -0.5969    0.5321 H   0  0  0  0  0  0  0  0  0  0  0  0
   -2.0576   -0.5833    0.3995 H   0  0  0  0  0  0  0  0  0  0  0  0
   -2.0706    0.9455   -1.6038 H   0  0  0  0  0  0  0  0  0  0  0  0
   -0.3057    0.9455   -1.6038 H   0  0  0  0  0  0  0  0  0  0  0  0
   -1.1882    1.6448   -0.2461 H   0  0  0  0  0  0  0  0  0  0  0  0
  1  2  1  0
  1  5  1  0
  1  6  1  0
  1  7  1  0
  2  3  1  0
  2  8  1  0
  2 17  1  0
  3  4  2  0
  3  9  1  0
 10 11  2  3
 10 14  1  0
 10 15  1  0
 11 12  1  0
 11 16  1  0
 12 13  1  0
 12 18  1  0
 13 19  1  0
 13 20  1  0
 13 21  1  0
M  RAD  1  12   2
M  END
>  <reaction>  (18) 
rxn_1063

>  <mol_properties>  (18) 
{"1": {"label": "*1", "atom_type": "Cs"}, "2": {"label": "*0", "atom_type": "CS"}, "10": {"label": "*4", "atom_type": "Cd"}, "11": {"label": "*3", "atom_type": "Cs"}, "16": {"label": "*2", "atom_type": "H0"}}

>  <type>  (18) 
unop_14

>  <geom_source>  (18) 
gaussian_log

$$$$
