
     RDKit          3D

  6  5  0  0  0  0  0  0  0  0999 V2000
    0.6594    0.0438   -0.0050 C   0  0  0  0  0  0  0  0  0  0  0  0
   -0.6594   -0.0438    0.0050 C   0  0  0  0  0  0  0  0  0  0  0  0
    1.1706    0.8681   -0.4881 H   0  0  0  0  0  0  0  0  0  0  0  0
    1.2824   -0.7051    0.4696 H   0  0  0  0  0  0  0  0  0  0  0  0
   -1.2824    0.7051   -0.4696 H   0  0  0  0  0  0  0  0  0  0  0  0
   -1.1706   -0.8681    0.4881 H   0  0  0  0  0  0  0  0  0  0  0  0
  1  2  2  3
  1  3  1  0
  1  4  1  0
  2  5  1  0
  2  6  1  0
M  END
>  <reaction>  (1) 
rxn_1586

>  <mol_properties>  (1) 
{"1": {"label": "donator", "atom_type": "Cd"}, "4": {"label": "d_hydrogen", "atom_type": "H0"}}

>  <type>  (1) 
r1h

$$$$

     RDKit          3D

  5  4  0  0  0  0  0  0  0  0999 V2000
   -0.5642    0.0794    0.0348 C   0  0  0  0  0  3  0  0  0  0  0  0
    1.0624    0.5420    0.2853 S   0  0  0  0  0  0  0  0  0  0  0  0
   -1.3257    0.7631    0.3741 H   0  0  0  0  0  0  0  0  0  0  0  0
   -0.8236   -0.8519   -0.4401 H   0  0  0  0  0  0  0  0  0  0  0  0
    1.6511   -0.5325   -0.2540 H   0  0  0  0  0  0  0  0  0  0  0  0
  1  2  1  0
  1  3  1  0
  1  4  1  0
  2  5  1  0
M  RAD  1   1   2
M  END
>  <reaction>  (2) 
rxn_1586

>  <mol_properties>  (2) 
{"0": {"label": "acceptor", "atom_type": "Cs"}}

>  <type>  (2) 
r2

$$$$

     RDKit          3D

  6  5  0  0  0  0  0  0  0  0999 V2000
   -0.5072   -0.0291   -0.0097 C   0  0  0  0  0  0  0  0  0  0  0  0
    1.1321   -0.1527   -0.7687 S   0  0  0  0  0  0  0  0  0  0  0  0
   -0.6174   -0.7330    0.8127 H   0  0  0  0  0  0  0  0  0  0  0  0
   -0.5863    0.9827    0.3845 H   0  0  0  0  0  0  0  0  0  0  0  0
   -1.2962   -0.1800   -0.7434 H   0  0  0  0  0  0  0  0  0  0  0  0
    1.0312   -1.4237   -1.1764 H   0  0  0  0  0  0  0  0  0  0  0  0
  1  2  1  0
  1  3  1  0
  1  4  1  0
  1  5  1  0
  2  6  1  0
M  END
>  <reaction>  (3) 
rxn_1586

>  <mol_properties>  (3) 
{"0": {"label": "acceptor", "atom_type": "Cs"}, "5": {"label": "a_hydrogen", "atom_type": "H0"}}

>  <type>  (3) 
r2h

$$$$

     RDKit          3D

 11  9  0  0  0  0  0  0  0  0999 V2000
    0.7369    0.7258    0.3709 C   0  0  0  0  0  0  0  0  0  0  0  0
   -0.6182    0.9630    1.4975 S   0  0  0  0  0  0  0  0  0  0  0  0
    1.6521    0.5909    0.9430 H   0  0  0  0  0  0  0  0  0  0  0  0
    0.8428    1.5190   -0.3660 H   0  0  0  0  0  0  0  0  0  0  0  0
   -1.5692    1.1635    0.5762 H   0  0  0  0  0  0  0  0  0  0  0  0
    0.7271   -1.4131   -2.3604 C   0  0  0  0  0  0  0  0  0  0  0  0
    0.4216   -1.5098   -1.0890 C   0  0  0  0  0  3  0  0  0  0  0  0
    1.0979   -0.4867   -2.7895 H   0  0  0  0  0  0  0  0  0  0  0  0
    0.6238   -2.2537   -3.0434 H   0  0  0  0  0  0  0  0  0  0  0  0
    0.5848   -0.3407   -0.2818 H   0  0  0  0  0  0  0  0  0  0  0  0
    0.0453   -2.3659   -0.5411 H   0  0  0  0  0  0  0  0  0  0  0  0
  1  2  1  0
  1  3  1  0
  1  4  1  0
  1 10  1  0
  2  5  1  0
  6  7  2  3
  6  8  1  0
  6  9  1  0
  7 11  1  0
M  RAD  1   7   2
M  END
>  <reaction>  (4) 
rxn_1586

>  <mol_properties>  (4) 
{"0": {"label": "*1", "atom_type": "Cs"}, "1": {"label": "*0", "atom_type": "S2s"}, "5": {"label": "*4", "atom_type": "Cd"}, "6": {"label": "*3", "atom_type": "Cd"}, "9": {"label": "*2", "atom_type": "H0"}}

>  <type>  (4) 
ts

$$$$

     RDKit          3D

 11  9  0  0  0  0  0  0  0  0999 V2000
    0.6355    0.7587    0.2936 C   0  0  0  0  0  3  0  0  0  0  0  0
   -0.8247    0.8782    1.3575 S   0  0  0  0  0  0  0  0  0  0  0  0
    1.3267    0.0849    0.7974 H   0  0  0  0  0  0  0  0  0  0  0  0
    1.1181    1.7262    0.1725 H   0  0  0  0  0  0  0  0  0  0  0  0
   -1.5239    1.7199    0.5865 H   0  0  0  0  0  0  0  0  0  0  0  0
    0.6355   -1.4600   -2.3950 C   0  0  0  0  0  0  0  0  0  0  0  0
    0.6355   -1.4600   -1.0733 C   0  0  0  0  0  0  0  0  0  0  0  0
    0.6355   -0.5374   -2.9634 H   0  0  0  0  0  0  0  0  0  0  0  0
    0.6355   -2.3826   -2.9634 H   0  0  0  0  0  0  0  0  0  0  0  0
    0.6355   -0.3529   -0.3912 H   0  0  0  0  0  0  0  0  0  0  0  0
    0.6355   -2.3826   -0.5049 H   0  0  0  0  0  0  0  0  0  0  0  0
  1  2  1  0
  1  3  1  0
  1  4  1  0
  2  5  1  0
  6  7  2  3
  6  8  1  0
  6  9  1  0
  7 10  1  0
  7 11  1  0
M  RAD  1   1   2
M  END
>  <reaction>  (5) 
rxn_1586

>  <mol_properties>  (5) 
{"0": {"label": "*1", "atom_type": "Cs"}, "1": {"label": "*0", "atom_type": "S2s"}, "5": {"label": "*4", "atom_type": "Cd"}, "6": {"label": "*3", "atom_type": "Cd"}, "9": {"label": "*2", "atom_type": "H0"}}

>  <type>  (5) 
unop_1

>  <geom_source>  (5) 
Heuristics

$$$$

     RDKit          3D

 11  9  0  0  0  0  0  0  0  0999 V2000
    0.3549    0.2386    1.1445 C   0  0  0  0  0  3  0  0  0  0  0  0
   -0.4882    1.5663    0.2473 S   0  0  0  0  0  0  0  0  0  0  0  0
   -0.3599   -0.1400    1.8733 H   0  0  0  0  0  0  0  0  0  0  0  0
    1.2288    0.6112    1.6747 H   0  0  0  0  0  0  0  0  0  0  0  0
    0.5240    1.8845   -0.5688 H   0  0  0  0  0  0  0  0  0  0  0  0
    0.3549   -1.9800   -1.5441 C   0  0  0  0  0  0  0  0  0  0  0  0
    0.3549   -1.9800   -0.2224 C   0  0  0  0  0  0  0  0  0  0  0  0
    0.3549   -1.0575   -2.1125 H   0  0  0  0  0  0  0  0  0  0  0  0
    0.3549   -2.9026   -2.1125 H   0  0  0  0  0  0  0  0  0  0  0  0
    0.3549   -0.8729    0.4597 H   0  0  0  0  0  0  0  0  0  0  0  0
    0.3549   -2.9026    0.3460 H   0  0  0  0  0  0  0  0  0  0  0  0
  1  2  1  0
  1  3  1  0
  1  4  1  0
  2  5  1  0
  6  7  2  3
  6  8  1  0
  6  9  1  0
  7 10  1  0
  7 11  1  0
M  RAD  1   1   2
M  END
>  <reaction>  (6) 
rxn_1586

>  <mol_properties>  (6) 
{"0": {"label": "*1", "atom_type": "Cs"}, "1": {"label": "*0", "atom_type": "S2s"}, "5": {"label": "*4", "atom_type": "Cd"}, "6": {"label": "*3", "atom_type": "Cd"}, "9": {"label": "*2", "atom_type": "H0"}}

>  <type>  (6) 
unop_2

>  <geom_source>  (6) 
Heuristics

$$$$

     RDKit          3D

 11  9  0  0  0  0  0  0  0  0999 V2000
    0.3737    0.9011    0.0654 C   0  0  0  0  0  3  0  0  0  0  0  0
   -0.4693    0.6970    1.6547 S   0  0  0  0  0  0  0  0  0  0  0  0
    1.4183    0.6472    0.2383 H   0  0  0  0  0  0  0  0  0  0  0  0
    0.3185    1.9302   -0.2834 H   0  0  0  0  0  0  0  0  0  0  0  0
   -1.6935    1.0448    1.2396 H   0  0  0  0  0  0  0  0  0  0  0  0
    0.3737   -1.3176   -2.6232 C   0  0  0  0  0  0  0  0  0  0  0  0
    0.3737   -1.3176   -1.3015 C   0  0  0  0  0  0  0  0  0  0  0  0
    0.3737   -0.3950   -3.1916 H   0  0  0  0  0  0  0  0  0  0  0  0
    0.3737   -2.2401   -3.1916 H   0  0  0  0  0  0  0  0  0  0  0  0
    0.3737   -0.2105   -0.6194 H   0  0  0  0  0  0  0  0  0  0  0  0
    0.3737   -2.2401   -0.7331 H   0  0  0  0  0  0  0  0  0  0  0  0
  1  2  1  0
  1  3  1  0
  1  4  1  0
  2  5  1  0
  6  7  2  3
  6  8  1  0
  6  9  1  0
  7 10  1  0
  7 11  1  0
M  RAD  1   1   2
M  END
>  <reaction>  (7) 
rxn_1586

>  <mol_properties>  (7) 
{"0": {"label": "*1", "atom_type": "Cs"}, "1": {"label": "*0", "atom_type": "S2s"}, "5": {"label": "*4", "atom_type": "Cd"}, "6": {"label": "*3", "atom_type": "Cd"}, "9": {"label": "*2", "atom_type": "H0"}}

>  <type>  (7) 
unop_3

>  <geom_source>  (7) 
Heuristics

$$$$

     RDKit          3D

 11  9  0  0  0  0  0  0  0  0999 V2000
   -0.6447    0.3982    0.9084 C   0  0  0  0  0  3  0  0  0  0  0  0
    0.8155    1.4022    0.5367 S   0  0  0  0  0  0  0  0  0  0  0  0
   -1.4383    1.0968    1.1684 H   0  0  0  0  0  0  0  0  0  0  0  0
   -0.4681   -0.2598    1.7567 H   0  0  0  0  0  0  0  0  0  0  0  0
    1.6448    0.3907    0.2519 H   0  0  0  0  0  0  0  0  0  0  0  0
   -0.6447   -1.8205   -1.7802 C   0  0  0  0  0  0  0  0  0  0  0  0
   -0.6447   -1.8205   -0.4585 C   0  0  0  0  0  0  0  0  0  0  0  0
   -0.6447   -0.8979   -2.3486 H   0  0  0  0  0  0  0  0  0  0  0  0
   -0.6447   -2.7431   -2.3486 H   0  0  0  0  0  0  0  0  0  0  0  0
   -0.6447   -0.7134    0.2236 H   0  0  0  0  0  0  0  0  0  0  0  0
   -0.6447   -2.7431    0.1099 H   0  0  0  0  0  0  0  0  0  0  0  0
  1  2  1  0
  1  3  1  0
  1  4  1  0
  2  5  1  0
  6  7  2  3
  6  8  1  0
  6  9  1  0
  7 10  1  0
  7 11  1  0
M  RAD  1   1   2
M  END
>  <reaction>  (8) 
rxn_1586

>  <mol_properties>  (8) 
{"0": {"label": "*1", "atom_type": "Cs"}, "1": {"label": "*0", "atom_type": "S2s"}, "5": {"label": "*4", "atom_type": "Cd"}, "6": {"label": "*3", "atom_type": "Cd"}, "9": {"label": "*2", "atom_type": "H0"}}

>  <type>  (8) 
unop_4

>  <geom_source>  (8) 
Heuristics

$$$$

     RDKit          3D

 11  9  0  0  0  0  0  0  0  0999 V2000
    0.0147    0.9614   -0.0210 C   0  0  0  0  0  3  0  0  0  0  0  0
    0.0147    0.6387    1.7606 S   0  0  0  0  0  0  0  0  0  0  0  0
    0.9354    1.5021   -0.2340 H   0  0  0  0  0  0  0  0  0  0  0  0
   -0.8297    1.5831   -0.3114 H   0  0  0  0  0  0  0  0  0  0  0  0
   -1.1556   -0.0090    1.8124 H   0  0  0  0  0  0  0  0  0  0  0  0
    0.0147   -1.2573   -2.7096 C   0  0  0  0  0  0  0  0  0  0  0  0
    0.0147   -1.2573   -1.3879 C   0  0  0  0  0  0  0  0  0  0  0  0
    0.0147   -0.3347   -3.2780 H   0  0  0  0  0  0  0  0  0  0  0  0
    0.0147   -2.1799   -3.2780 H   0  0  0  0  0  0  0  0  0  0  0  0
    0.0147   -0.1502   -0.7059 H   0  0  0  0  0  0  0  0  0  0  0  0
    0.0147   -2.1799   -0.8195 H   0  0  0  0  0  0  0  0  0  0  0  0
  1  2  1  0
  1  3  1  0
  1  4  1  0
  2  5  1  0
  6  7  2  3
  6  8  1  0
  6  9  1  0
  7 10  1  0
  7 11  1  0
M  RAD  1   1   2
M  END
>  <reaction>  (9) 
rxn_1586

>  <mol_properties>  (9) 
{"0": {"label": "*1", "atom_type": "Cs"}, "1": {"label": "*0", "atom_type": "S2s"}, "5": {"label": "*4", "atom_type": "Cd"}, "6": {"label": "*3", "atom_type": "Cd"}, "9": {"label": "*2", "atom_type": "H0"}}

>  <type>  (9) 
unop_5

>  <geom_source>  (9) 
Heuristics

$$$$

     RDKit          3D

 11  9  0  0  0  0  0  0  0  0999 V2000
   -0.7363    0.5935    0.5950 C   0  0  0  0  0  3  0  0  0  0  0  0
    0.9499    1.1553    0.9411 S   0  0  0  0  0  0  0  0  0  0  0  0
   -1.3734    1.4732    0.6704 H   0  0  0  0  0  0  0  0  0  0  0  0
   -1.0676   -0.1405    1.3265 H   0  0  0  0  0  0  0  0  0  0  0  0
    1.5525   -0.0319    0.8026 H   0  0  0  0  0  0  0  0  0  0  0  0
   -0.7363   -1.6252   -2.0937 C   0  0  0  0  0  0  0  0  0  0  0  0
   -0.7363   -1.6252   -0.7719 C   0  0  0  0  0  0  0  0  0  0  0  0
   -0.7363   -0.7026   -2.6621 H   0  0  0  0  0  0  0  0  0  0  0  0
   -0.7363   -2.5478   -2.6620 H   0  0  0  0  0  0  0  0  0  0  0  0
   -0.7363   -0.5181   -0.0899 H   0  0  0  0  0  0  0  0  0  0  0  0
   -0.7363   -2.5478   -0.2035 H   0  0  0  0  0  0  0  0  0  0  0  0
  1  2  1  0
  1  3  1  0
  1  4  1  0
  2  5  1  0
  6  7  2  3
  6  8  1  0
  6  9  1  0
  7 10  1  0
  7 11  1  0
M  RAD  1   1   2
M  END
>  <reaction>  (10) 
rxn_1586

>  <mol_properties>  (10) 
{"0": {"label": "*1", "atom_type": "Cs"}, "1": {"label": "*0", "atom_type": "S2s"}, "5": {"label": "*4", "atom_type": "Cd"}, "6": {"label": "*3", "atom_type": "Cd"}, "9": {"label": "*2", "atom_type": "H0"}}

>  <type>  (10) 
unop_6

>  <geom_source>  (10) 
Heuristics

$$$$

     RDKit          3D

 11  9  0  0  0  0  0  0  0  0999 V2000
   -0.6302    0.7857    0.2833 C   0  0  0  0  0  3  0  0  0  0  0  0
    0.8300    0.9052    1.3472 S   0  0  0  0  0  0  0  0  0  0  0  0
   -0.9889    1.8037    0.1406 H   0  0  0  0  0  0  0  0  0  0  0  0
   -1.4177    0.2017    0.7551 H   0  0  0  0  0  0  0  0  0  0  0  0
    1.1066   -0.4035    1.3979 H   0  0  0  0  0  0  0  0  0  0  0  0
   -0.6302   -1.4330   -2.4053 C   0  0  0  0  0  0  0  0  0  0  0  0
   -0.6302   -1.4330   -1.0836 C   0  0  0  0  0  0  0  0  0  0  0  0
   -0.6302   -0.5104   -2.9737 H   0  0  0  0  0  0  0  0  0  0  0  0
   -0.6302   -2.3556   -2.9737 H   0  0  0  0  0  0  0  0  0  0  0  0
   -0.6302   -0.3259   -0.4015 H   0  0  0  0  0  0  0  0  0  0  0  0
   -0.6302   -2.3556   -0.5152 H   0  0  0  0  0  0  0  0  0  0  0  0
  1  2  1  0
  1  3  1  0
  1  4  1  0
  2  5  1  0
  6  7  2  3
  6  8  1  0
  6  9  1  0
  7 10  1  0
  7 11  1  0
M  RAD  1   1   2
M  END
>  <reaction>  (11) 
rxn_1586

>  <mol_properties>  (11) 
{"0": {"label": "*1", "atom_type": "Cs"}, "1": {"label": "*0", "atom_type": "S2s"}, "5": {"label": "*4", "atom_type": "Cd"}, "6": {"label": "*3", "atom_type": "Cd"}, "9": {"label": "*2", "atom_type": "H0"}}

>  <type>  (11) 
unop_7

>  <geom_source>  (11) 
Heuristics

$$$$

     RDKit          3D

 11  9  0  0  0  0  0  0  0  0999 V2000
    0.7295    0.5668    0.6052 C   0  0  0  0  0  3  0  0  0  0  0  0
   -0.9567    1.1286    0.9513 S   0  0  0  0  0  0  0  0  0  0  0  0
    0.9403   -0.2268    1.3201 H   0  0  0  0  0  0  0  0  0  0  0  0
    1.4518    1.3674    0.7503 H   0  0  0  0  0  0  0  0  0  0  0  0
   -1.0175    2.0684   -0.0000 H   0  0  0  0  0  0  0  0  0  0  0  0
    0.7295   -1.6519   -2.0835 C   0  0  0  0  0  0  0  0  0  0  0  0
    0.7295   -1.6519   -0.7617 C   0  0  0  0  0  0  0  0  0  0  0  0
    0.7295   -0.7293   -2.6518 H   0  0  0  0  0  0  0  0  0  0  0  0
    0.7295   -2.5745   -2.6518 H   0  0  0  0  0  0  0  0  0  0  0  0
    0.7295   -0.5448   -0.0797 H   0  0  0  0  0  0  0  0  0  0  0  0
    0.7295   -2.5745   -0.1933 H   0  0  0  0  0  0  0  0  0  0  0  0
  1  2  1  0
  1  3  1  0
  1  4  1  0
  2  5  1  0
  6  7  2  3
  6  8  1  0
  6  9  1  0
  7 10  1  0
  7 11  1  0
M  RAD  1   1   2
M  END
>  <reaction>  (12) 
rxn_1586

>  <mol_properties>  (12) 
{"0": {"label": "*1", "atom_type": "Cs"}, "1": {"label": "*0", "atom_type": "S2s"}, "5": {"label": "*4", "atom_type": "Cd"}, "6": {"label": "*3", "atom_type": "Cd"}, "9": {"label": "*2", "atom_type": "H0"}}

>  <type>  (12) 
unop_8

>  <geom_source>  (12) 
Heuristics

$$$$

     RDKit          3D

 11  9  0  0  0  0  0  0  0  0999 V2000
   -0.3807    0.2517    1.1395 C   0  0  0  0  0  3  0  0  0  0  0  0
    0.4624    1.5794    0.2424 S   0  0  0  0  0  0  0  0  0  0  0  0
   -1.2860    0.6906    1.5558 H   0  0  0  0  0  0  0  0  0  0  0  0
    0.2311   -0.1256    1.9563 H   0  0  0  0  0  0  0  0  0  0  0  0
    1.5094    0.8583   -0.1766 H   0  0  0  0  0  0  0  0  0  0  0  0
   -0.3807   -1.9670   -1.5491 C   0  0  0  0  0  0  0  0  0  0  0  0
   -0.3807   -1.9670   -0.2274 C   0  0  0  0  0  0  0  0  0  0  0  0
   -0.3807   -1.0444   -2.1175 H   0  0  0  0  0  0  0  0  0  0  0  0
   -0.3807   -2.8896   -2.1175 H   0  0  0  0  0  0  0  0  0  0  0  0
   -0.3807   -0.8599    0.4547 H   0  0  0  0  0  0  0  0  0  0  0  0
   -0.3807   -2.8896    0.3410 H   0  0  0  0  0  0  0  0  0  0  0  0
  1  2  1  0
  1  3  1  0
  1  4  1  0
  2  5  1  0
  6  7  2  3
  6  8  1  0
  6  9  1  0
  7 10  1  0
  7 11  1  0
M  RAD  1   1   2
M  END
>  <reaction>  (13) 
rxn_1586

>  <mol_properties>  (13) 
{"0": {"label": "*1", "atom_type": "Cs"}, "1": {"label": "*0", "atom_type": "S2s"}, "5": {"label": "*4", "atom_type": "Cd"}, "6": {"label": "*3", "atom_type": "Cd"}, "9": {"label": "*2", "atom_type": "H0"}}

>  <type>  (13) 
unop_9

>  <geom_source>  (13) 
Heuristics

$$$$

     RDKit          3D

 11  9  0  0  0  0  0  0  0  0999 V2000
    0.6274    0.3760    0.9169 C   0  0  0  0  0  3  0  0  0  0  0  0
   -0.8329    1.3800    0.5452 S   0  0  0  0  0  0  0  0  0  0  0  0
    0.3322   -0.3125    1.7069 H   0  0  0  0  0  0  0  0  0  0  0  0
    1.4491    0.9903    1.2790 H   0  0  0  0  0  0  0  0  0  0  0  0
   -0.2783    2.1319   -0.4135 H   0  0  0  0  0  0  0  0  0  0  0  0
    0.6274   -1.8427   -1.7718 C   0  0  0  0  0  0  0  0  0  0  0  0
    0.6274   -1.8427   -0.4500 C   0  0  0  0  0  0  0  0  0  0  0  0
    0.6274   -0.9201   -2.3402 H   0  0  0  0  0  0  0  0  0  0  0  0
    0.6274   -2.7652   -2.3402 H   0  0  0  0  0  0  0  0  0  0  0  0
    0.6274   -0.7355    0.2320 H   0  0  0  0  0  0  0  0  0  0  0  0
    0.6274   -2.7652    0.1184 H   0  0  0  0  0  0  0  0  0  0  0  0
  1  2  1  0
  1  3  1  0
  1  4  1  0
  2  5  1  0
  6  7  2  3
  6  8  1  0
  6  9  1  0
  7 10  1  0
  7 11  1  0
M  RAD  1   1   2
M  END
>  <reaction>  (14) 
rxn_1586

>  <mol_properties>  (14) 
{"0": {"label": "*1", "atom_type": "Cs"}, "1": {"label": "*0", "atom_type": "S2s"}, "5": {"label": "*4", "atom_type": "Cd"}, "6": {"label": "*3", "atom_type": "Cd"}, "9": {"label": "*2", "atom_type": "H0"}}

>  <type>  (14) 
unop_10

>  <geom_source>  (14) 
Heuristics

$$$$

     RDKit          3D

 11  9  0  0  0  0  0  0  0  0999 V2000
   -0.3541    0.9215    0.0576 C   0  0  0  0  0  3  0  0  0  0  0  0
    0.4890    0.7174    1.6469 S   0  0  0  0  0  0  0  0  0  0  0  0
   -0.1675    1.9466   -0.2583 H   0  0  0  0  0  0  0  0  0  0  0  0
   -1.4279    0.7776    0.1570 H   0  0  0  0  0  0  0  0  0  0  0  0
    0.1481   -0.5606    1.8531 H   0  0  0  0  0  0  0  0  0  0  0  0
   -0.3541   -1.2971   -2.6310 C   0  0  0  0  0  0  0  0  0  0  0  0
   -0.3541   -1.2971   -1.3093 C   0  0  0  0  0  0  0  0  0  0  0  0
   -0.3541   -0.3746   -3.1994 H   0  0  0  0  0  0  0  0  0  0  0  0
   -0.3541   -2.2197   -3.1994 H   0  0  0  0  0  0  0  0  0  0  0  0
   -0.3541   -0.1900   -0.6272 H   0  0  0  0  0  0  0  0  0  0  0  0
   -0.3541   -2.2197   -0.7409 H   0  0  0  0  0  0  0  0  0  0  0  0
  1  2  1  0
  1  3  1  0
  1  4  1  0
  2  5  1  0
  6  7  2  3
  6  8  1  0
  6  9  1  0
  7 10  1  0
  7 11  1  0
M  RAD  1   1   2
M  END
>  <reaction>  (15) 
rxn_1586

>  <mol_properties>  (15) 
{"0": {"label": "*1", "atom_type": "Cs"}, "1": {"label": "*0", "atom_type": "S2s"}, "5": {"label": "*4", "atom_type": "Cd"}, "6": {"label": "*3", "atom_type": "Cd"}, "9": {"label": "*2", "atom_type": "H0"}}

>  <type>  (15) 
unop_11

>  <geom_source>  (15) 
Heuristics

$$$$

     RDKit          3D

 11  9  0  0  0  0  0  0  0  0999 V2000
   -0.0147    0.1931    1.2261 C   0  0  0  0  0  3  0  0  0  0  0  0
   -0.0147    1.6393    0.1366 S   0  0  0  0  0  0  0  0  0  0  0  0
   -0.9354    0.2460    1.8049 H   0  0  0  0  0  0  0  0  0  0  0  0
    0.8297    0.2133    1.9119 H   0  0  0  0  0  0  0  0  0  0  0  0
    1.1556    1.3942   -0.4652 H   0  0  0  0  0  0  0  0  0  0  0  0
   -0.0147   -2.0256   -1.4625 C   0  0  0  0  0  0  0  0  0  0  0  0
   -0.0147   -2.0256   -0.1408 C   0  0  0  0  0  0  0  0  0  0  0  0
   -0.0147   -1.1030   -2.0309 H   0  0  0  0  0  0  0  0  0  0  0  0
   -0.0147   -2.9482   -2.0309 H   0  0  0  0  0  0  0  0  0  0  0  0
   -0.0147   -0.9185    0.5412 H   0  0  0  0  0  0  0  0  0  0  0  0
   -0.0147   -2.9482    0.4276 H   0  0  0  0  0  0  0  0  0  0  0  0
  1  2  1  0
  1  3  1  0
  1  4  1  0
  2  5  1  0
  6  7  2  3
  6  8  1  0
  6  9  1  0
  7 10  1  0
  7 11  1  0
M  RAD  1   1   2
M  END
>  <reaction>  (16) 
rxn_1586

>  <mol_properties>  (16) 
{"0": {"label": "*1", "atom_type": "Cs"}, "1": {"label": "*0", "atom_type": "S2s"}, "5": {"label": "*4", "atom_type": "Cd"}, "6": {"label": "*3", "atom_type": "Cd"}, "9": {"label": "*2", "atom_type": "H0"}}

>  <type>  (16) 
unop_12

>  <geom_source>  (16) 
Heuristics

$$$$

     RDKit          3D

 11  9  0  0  0  0  0  0  0  0999 V2000
    2.0170    1.2160    0.9149 S   0  0  0  0  0  0  0  0  0  0  0  0
    1.3644   -0.3757    0.3380 C   0  0  0  0  0  3  0  0  0  0  0  0
   -2.0150   -0.0024    0.0770 C   0  0  0  0  0  0  0  0  0  0  0  0
   -1.0475   -0.6476   -0.5684 C   0  0  0  0  0  0  0  0  0  0  0  0
    1.2846   -1.0742    1.1962 H   0  0  0  0  0  0  0  0  0  0  0  0
    2.0483   -0.8046   -0.4233 H   0  0  0  0  0  0  0  0  0  0  0  0
    0.0750   -0.1820   -0.2360 H   0  0  0  0  0  0  0  0  0  0  0  0
   -2.2101   -0.2252    1.1201 H   0  0  0  0  0  0  0  0  0  0  0  0
   -2.6109    0.7464   -0.4346 H   0  0  0  0  0  0  0  0  0  0  0  0
    1.9380    1.7820   -0.3716 H   0  0  0  0  0  0  0  0  0  0  0  0
   -0.8438   -0.4325   -1.6123 H   0  0  0  0  0  0  0  0  0  0  0  0
  1  2  1  0
  1 10  1  0
  2  5  1  0
  2  6  1  0
  3  4  2  3
  3  8  1  0
  3  9  1  0
  4  7  1  0
  4 11  1  0
M  RAD  1   2   2
M  END
>  <reaction>  (17) 
rxn_1586

>  <mol_properties>  (17) 
{"0": {"label": "*1", "atom_type": "Cs"}, "1": {"label": "*0", "atom_type": "S2s"}, "5": {"label": "*4", "atom_type": "Cd"}, "6": {"label": "*3", "atom_type": "Cd"}, "9": {"label": "*2", "atom_type": "H0"}}

>  <type>  (17) 
unop_13

>  <geom_source>  (17) 
AutoTST

$$$$
