
     RDKit          3D

  7  6  0  0  0  0  0  0  0  0999 V2000
    1.6964   -0.0938    0.0583 C   0  0  0  0  0  0  0  0  0  0  0  0
    0.5019   -0.0278    0.0173 C   0  0  0  0  0  0  0  0  0  0  0  0
   -0.9505    0.0525   -0.0327 C   0  0  0  0  0  0  0  0  0  0  0  0
    2.7574   -0.1524    0.0947 H   0  0  0  0  0  0  0  0  0  0  0  0
   -1.2692    0.9972   -0.4754 H   0  0  0  0  0  0  0  0  0  0  0  0
   -1.3749   -0.0147    0.9700 H   0  0  0  0  0  0  0  0  0  0  0  0
   -1.3610   -0.7611   -0.6323 H   0  0  0  0  0  0  0  0  0  0  0  0
  1  2  3  0
  1  4  1  0
  2  3  1  0
  3  5  1  0
  3  6  1  0
  3  7  1  0
M  END
>  <reaction>  (1) 
rxn_1216

>  <mol_properties>  (1) 
{"2": {"label": "donator", "atom_type": "Cs"}, "4": {"label": "d_hydrogen", "atom_type": "H0"}}

>  <type>  (1) 
r1h

$$$$

     RDKit          3D

 10  9  0  0  0  0  0  0  0  0999 V2000
    1.2930    0.1441    0.3288 C   0  0  0  0  0  0  0  0  0  0  0  0
   -0.0374   -0.1647    0.9100 C   0  0  0  0  0  3  0  0  0  0  0  0
   -1.2664    0.4569    0.3567 C   0  0  0  0  0  0  0  0  0  0  0  0
    1.4384    1.2242    0.2174 H   0  0  0  0  0  0  0  0  0  0  0  0
    2.1077   -0.2477    0.9385 H   0  0  0  0  0  0  0  0  0  0  0  0
    1.4057   -0.2836   -0.6789 H   0  0  0  0  0  0  0  0  0  0  0  0
   -0.1309   -0.9912    1.6030 H   0  0  0  0  0  0  0  0  0  0  0  0
   -1.5005    0.0716   -0.6471 H   0  0  0  0  0  0  0  0  0  0  0  0
   -2.1382    0.2713    0.9849 H   0  0  0  0  0  0  0  0  0  0  0  0
   -1.1497    1.5406    0.2456 H   0  0  0  0  0  0  0  0  0  0  0  0
  1  2  1  0
  1  4  1  0
  1  5  1  0
  1  6  1  0
  2  3  1  0
  2  7  1  0
  3  8  1  0
  3  9  1  0
  3 10  1  0
M  RAD  1   2   2
M  END
>  <reaction>  (2) 
rxn_1216

>  <mol_properties>  (2) 
{"1": {"label": "acceptor", "atom_type": "Cs"}}

>  <type>  (2) 
r2

$$$$

     RDKit          3D

 11 10  0  0  0  0  0  0  0  0999 V2000
   -1.2710    0.1907   -0.2084 C   0  0  0  0  0  0  0  0  0  0  0  0
    0.0202   -0.6130   -0.2928 C   0  0  0  0  0  0  0  0  0  0  0  0
    0.1086   -1.6953    0.7756 C   0  0  0  0  0  0  0  0  0  0  0  0
   -1.3607    0.6851    0.7620 H   0  0  0  0  0  0  0  0  0  0  0  0
   -2.1429   -0.4567   -0.3299 H   0  0  0  0  0  0  0  0  0  0  0  0
   -1.3158    0.9602   -0.9809 H   0  0  0  0  0  0  0  0  0  0  0  0
    0.8757    0.0616   -0.1992 H   0  0  0  0  0  0  0  0  0  0  0  0
    0.0997   -1.0712   -1.2825 H   0  0  0  0  0  0  0  0  0  0  0  0
   -0.7198   -2.4022    0.6850 H   0  0  0  0  0  0  0  0  0  0  0  0
    1.0395   -2.2596    0.6989 H   0  0  0  0  0  0  0  0  0  0  0  0
    0.0624   -1.2603    1.7770 H   0  0  0  0  0  0  0  0  0  0  0  0
  1  2  1  0
  1  4  1  0
  1  5  1  0
  1  6  1  0
  2  3  1  0
  2  7  1  0
  2  8  1  0
  3  9  1  0
  3 10  1  0
  3 11  1  0
M  END
>  <reaction>  (3) 
rxn_1216

>  <mol_properties>  (3) 
{"0": {"label": "a_hydrogen", "atom_type": "H0"}, "2": {"label": "acceptor", "atom_type": "Cs"}}

>  <type>  (3) 
r2h

$$$$

     RDKit          3D

 17 15  0  0  0  0  0  0  0  0999 V2000
    0.7161   -1.4040   -1.9690 C   0  0  0  0  0  0  0  0  0  0  0  0
    0.0249   -1.4258   -0.9843 C   0  0  0  0  0  0  0  0  0  0  0  0
   -0.7629   -1.3750    0.2001 C   0  0  0  0  0  0  0  0  0  0  0  0
    1.3171   -1.4104   -2.8459 H   0  0  0  0  0  0  0  0  0  0  0  0
   -0.5089   -0.2048    0.7826 H   0  0  0  0  0  0  0  0  0  0  0  0
   -0.4847   -2.1031    0.9586 H   0  0  0  0  0  0  0  0  0  0  0  0
   -1.8363   -1.3459    0.0271 H   0  0  0  0  0  0  0  0  0  0  0  0
   -0.5707    1.9521    0.1386 C   0  0  0  0  0  0  0  0  0  0  0  0
   -0.1364    1.0213    1.2365 C   0  0  0  0  0  3  0  0  0  0  0  0
    1.3459    0.8856    1.4476 C   0  0  0  0  0  0  0  0  0  0  0  0
   -0.1175    1.6618   -0.8127 H   0  0  0  0  0  0  0  0  0  0  0  0
   -1.6546    1.9504    0.0134 H   0  0  0  0  0  0  0  0  0  0  0  0
   -0.2615    2.9819    0.3502 H   0  0  0  0  0  0  0  0  0  0  0  0
   -0.7106    1.1203    2.1580 H   0  0  0  0  0  0  0  0  0  0  0  0
    1.7894    1.8404    1.7516 H   0  0  0  0  0  0  0  0  0  0  0  0
    1.5777    0.1512    2.2205 H   0  0  0  0  0  0  0  0  0  0  0  0
    1.8386    0.5739    0.5230 H   0  0  0  0  0  0  0  0  0  0  0  0
  1  2  3  0
  1  4  1  0
  2  3  1  0
  3  5  1  0
  3  6  1  0
  3  7  1  0
  8  9  1  0
  8 11  1  0
  8 12  1  0
  8 13  1  0
  9 10  1  0
  9 14  1  0
 10 15  1  0
 10 16  1  0
 10 17  1  0
M  RAD  1   9   2
M  END
>  <reaction>  (4) 
rxn_1216

>  <mol_properties>  (4) 
{"1": {"label": "*0", "atom_type": "Ct"}, "2": {"label": "*1", "atom_type": "Cs"}, "4": {"label": "*2", "atom_type": "H0"}, "7": {"label": "*4", "atom_type": "Cs"}, "8": {"label": "*3", "atom_type": "Cs"}}

>  <type>  (4) 
ts

$$$$

     RDKit          3D

 17 15  0  0  0  0  0  0  0  0999 V2000
   -0.0347   -1.5602   -2.5895 C   0  0  0  0  0  0  0  0  0  0  0  0
   -0.0347   -1.5602   -1.3925 C   0  0  0  0  0  0  0  0  0  0  0  0
   -0.0347   -1.5602    0.0629 C   0  0  0  0  0  0  0  0  0  0  0  0
   -0.0347   -1.5602   -3.6528 H   0  0  0  0  0  0  0  0  0  0  0  0
    0.0768   -0.3406    0.5253 H   0  0  0  0  0  0  0  0  0  0  0  0
    0.7990   -2.1488    0.4483 H   0  0  0  0  0  0  0  0  0  0  0  0
   -0.9613   -1.9879    0.4483 H   0  0  0  0  0  0  0  0  0  0  0  0
   -1.0302    1.2149    1.8399 C   0  0  0  0  0  0  0  0  0  0  0  0
    0.1885    0.8819    0.9889 C   0  0  0  0  0  3  0  0  0  0  0  0
    0.9376    2.1247    0.5252 C   0  0  0  0  0  0  0  0  0  0  0  0
   -1.7394    1.8316    1.2824 H   0  0  0  0  0  0  0  0  0  0  0  0
   -1.5531    0.3128    2.1622 H   0  0  0  0  0  0  0  0  0  0  0  0
   -0.7416    1.7720    2.7345 H   0  0  0  0  0  0  0  0  0  0  0  0
    0.8660    0.2400    1.5587 H   0  0  0  0  0  0  0  0  0  0  0  0
    1.2882    2.7105    1.3784 H   0  0  0  0  0  0  0  0  0  0  0  0
    1.8064    1.8660   -0.0824 H   0  0  0  0  0  0  0  0  0  0  0  0
    0.2905    2.7700   -0.0738 H   0  0  0  0  0  0  0  0  0  0  0  0
  1  2  3  0
  1  4  1  0
  2  3  1  0
  3  5  1  0
  3  6  1  0
  3  7  1  0
  8  9  1  0
  8 11  1  0
  8 12  1  0
  8 13  1  0
  9 10  1  0
  9 14  1  0
 10 15  1  0
 10 16  1  0
 10 17  1  0
M  RAD  1   9   2
M  END
>  <reaction>  (5) 
rxn_1216

>  <mol_properties>  (5) 
{"1": {"label": "*0", "atom_type": "Ct"}, "2": {"label": "*1", "atom_type": "Cs"}, "4": {"label": "*2", "atom_type": "H0"}, "7": {"label": "*4", "atom_type": "Cs"}, "8": {"label": "*3", "atom_type": "Cs"}}

>  <type>  (5) 
unop_1

>  <geom_source>  (5) 
Heuristics

$$$$

     RDKit          3D

 17 15  0  0  0  0  0  0  0  0999 V2000
   -0.2326   -1.5526   -2.4469 C   0  0  0  0  0  0  0  0  0  0  0  0
   -0.2326   -1.5526   -1.2499 C   0  0  0  0  0  0  0  0  0  0  0  0
   -0.2326   -1.5526    0.2056 C   0  0  0  0  0  0  0  0  0  0  0  0
   -0.2326   -1.5526   -3.5102 H   0  0  0  0  0  0  0  0  0  0  0  0
   -0.1211   -0.3330    0.6680 H   0  0  0  0  0  0  0  0  0  0  0  0
    0.6011   -2.1412    0.5909 H   0  0  0  0  0  0  0  0  0  0  0  0
   -1.1592   -1.9803    0.5909 H   0  0  0  0  0  0  0  0  0  0  0  0
   -0.6415    1.8649    0.1469 C   0  0  0  0  0  0  0  0  0  0  0  0
   -0.0094    0.8895    1.1315 C   0  0  0  0  0  3  0  0  0  0  0  0
    1.2811    1.4235    1.7398 C   0  0  0  0  0  0  0  0  0  0  0  0
    0.0401    2.0830   -0.6789 H   0  0  0  0  0  0  0  0  0  0  0  0
   -1.5638    1.4650   -0.2778 H   0  0  0  0  0  0  0  0  0  0  0  0
   -0.8812    2.8126    0.6352 H   0  0  0  0  0  0  0  0  0  0  0  0
   -0.7223    0.6648    1.9297 H   0  0  0  0  0  0  0  0  0  0  0  0
    1.1020    2.3573    2.2783 H   0  0  0  0  0  0  0  0  0  0  0  0
    1.7184    0.7115    2.4417 H   0  0  0  0  0  0  0  0  0  0  0  0
    2.0233    1.6277    0.9642 H   0  0  0  0  0  0  0  0  0  0  0  0
  1  2  3  0
  1  4  1  0
  2  3  1  0
  3  5  1  0
  3  6  1  0
  3  7  1  0
  8  9  1  0
  8 11  1  0
  8 12  1  0
  8 13  1  0
  9 10  1  0
  9 14  1  0
 10 15  1  0
 10 16  1  0
 10 17  1  0
M  RAD  1   9   2
M  END
>  <reaction>  (6) 
rxn_1216

>  <mol_properties>  (6) 
{"1": {"label": "*0", "atom_type": "Ct"}, "2": {"label": "*1", "atom_type": "Cs"}, "4": {"label": "*2", "atom_type": "H0"}, "7": {"label": "*4", "atom_type": "Cs"}, "8": {"label": "*3", "atom_type": "Cs"}}

>  <type>  (6) 
unop_2

>  <geom_source>  (6) 
Heuristics

$$$$

     RDKit          3D

 17 15  0  0  0  0  0  0  0  0999 V2000
    0.0099   -1.5333   -2.6197 C   0  0  0  0  0  0  0  0  0  0  0  0
    0.0099   -1.5333   -1.4226 C   0  0  0  0  0  0  0  0  0  0  0  0
    0.0099   -1.5333    0.0328 C   0  0  0  0  0  0  0  0  0  0  0  0
    0.0099   -1.5333   -3.6829 H   0  0  0  0  0  0  0  0  0  0  0  0
    0.1214   -0.3137    0.4952 H   0  0  0  0  0  0  0  0  0  0  0  0
    0.8436   -2.1219    0.4182 H   0  0  0  0  0  0  0  0  0  0  0  0
   -0.9167   -1.9610    0.4182 H   0  0  0  0  0  0  0  0  0  0  0  0
   -0.4790    1.0090    2.3017 C   0  0  0  0  0  0  0  0  0  0  0  0
    0.2331    0.9088    0.9588 C   0  0  0  0  0  3  0  0  0  0  0  0
    0.2185    2.2224    0.1875 C   0  0  0  0  0  0  0  0  0  0  0  0
   -1.5251    1.2952    2.1688 H   0  0  0  0  0  0  0  0  0  0  0  0
   -0.4580    0.0592    2.8387 H   0  0  0  0  0  0  0  0  0  0  0  0
   -0.0093    1.7634    2.9376 H   0  0  0  0  0  0  0  0  0  0  0  0
    1.2675    0.5917    1.1180 H   0  0  0  0  0  0  0  0  0  0  0  0
    0.7101    3.0151    0.7568 H   0  0  0  0  0  0  0  0  0  0  0  0
    0.7328    2.1308   -0.7706 H   0  0  0  0  0  0  0  0  0  0  0  0
   -0.8056    2.5469   -0.0120 H   0  0  0  0  0  0  0  0  0  0  0  0
  1  2  3  0
  1  4  1  0
  2  3  1  0
  3  5  1  0
  3  6  1  0
  3  7  1  0
  8  9  1  0
  8 11  1  0
  8 12  1  0
  8 13  1  0
  9 10  1  0
  9 14  1  0
 10 15  1  0
 10 16  1  0
 10 17  1  0
M  RAD  1   9   2
M  END
>  <reaction>  (7) 
rxn_1216

>  <mol_properties>  (7) 
{"1": {"label": "*0", "atom_type": "Ct"}, "2": {"label": "*1", "atom_type": "Cs"}, "4": {"label": "*2", "atom_type": "H0"}, "7": {"label": "*4", "atom_type": "Cs"}, "8": {"label": "*3", "atom_type": "Cs"}}

>  <type>  (7) 
unop_3

>  <geom_source>  (7) 
Heuristics

$$$$

     RDKit          3D

 17 15  0  0  0  0  0  0  0  0999 V2000
   -0.3850   -1.2566   -2.6700 C   0  0  0  0  0  0  0  0  0  0  0  0
   -0.3850   -1.2566   -1.4729 C   0  0  0  0  0  0  0  0  0  0  0  0
   -0.3850   -1.2566   -0.0175 C   0  0  0  0  0  0  0  0  0  0  0  0
   -0.3850   -1.2566   -3.7332 H   0  0  0  0  0  0  0  0  0  0  0  0
   -0.2735   -0.0371    0.4449 H   0  0  0  0  0  0  0  0  0  0  0  0
    0.4487   -1.8452    0.3679 H   0  0  0  0  0  0  0  0  0  0  0  0
   -1.3116   -1.6843    0.3679 H   0  0  0  0  0  0  0  0  0  0  0  0
    1.1433    1.7973    0.4157 C   0  0  0  0  0  0  0  0  0  0  0  0
   -0.1618    1.1855    0.9085 C   0  0  0  0  0  3  0  0  0  0  0  0
   -0.0053    0.4643    2.2411 C   0  0  0  0  0  0  0  0  0  0  0  0
    1.9084    1.0290    0.2805 H   0  0  0  0  0  0  0  0  0  0  0  0
    1.0111    2.3090   -0.5392 H   0  0  0  0  0  0  0  0  0  0  0  0
    1.5298    2.5242    1.1342 H   0  0  0  0  0  0  0  0  0  0  0  0
   -0.9177    1.9697    1.0055 H   0  0  0  0  0  0  0  0  0  0  0  0
    0.3450    1.1492    3.0172 H   0  0  0  0  0  0  0  0  0  0  0  0
   -0.9498    0.0332    2.5773 H   0  0  0  0  0  0  0  0  0  0  0  0
    0.7236   -0.3461    2.1635 H   0  0  0  0  0  0  0  0  0  0  0  0
  1  2  3  0
  1  4  1  0
  2  3  1  0
  3  5  1  0
  3  6  1  0
  3  7  1  0
  8  9  1  0
  8 11  1  0
  8 12  1  0
  8 13  1  0
  9 10  1  0
  9 14  1  0
 10 15  1  0
 10 16  1  0
 10 17  1  0
M  RAD  1   9   2
M  END
>  <reaction>  (8) 
rxn_1216

>  <mol_properties>  (8) 
{"1": {"label": "*0", "atom_type": "Ct"}, "2": {"label": "*1", "atom_type": "Cs"}, "4": {"label": "*2", "atom_type": "H0"}, "7": {"label": "*4", "atom_type": "Cs"}, "8": {"label": "*3", "atom_type": "Cs"}}

>  <type>  (8) 
unop_4

>  <geom_source>  (8) 
Heuristics

$$$$

     RDKit          3D

 17 15  0  0  0  0  0  0  0  0999 V2000
    0.0859   -1.4305   -2.6860 C   0  0  0  0  0  0  0  0  0  0  0  0
    0.0859   -1.4305   -1.4889 C   0  0  0  0  0  0  0  0  0  0  0  0
    0.0859   -1.4305   -0.0335 C   0  0  0  0  0  0  0  0  0  0  0  0
    0.0859   -1.4305   -3.7492 H   0  0  0  0  0  0  0  0  0  0  0  0
    0.1974   -0.2109    0.4289 H   0  0  0  0  0  0  0  0  0  0  0  0
    0.9196   -2.0191    0.3519 H   0  0  0  0  0  0  0  0  0  0  0  0
   -0.8407   -1.8582    0.3519 H   0  0  0  0  0  0  0  0  0  0  0  0
    0.3061    0.9787    2.4155 C   0  0  0  0  0  0  0  0  0  0  0  0
    0.3091    1.0116    0.8925 C   0  0  0  0  0  3  0  0  0  0  0  0
   -0.8093    1.8744    0.3221 C   0  0  0  0  0  0  0  0  0  0  0  0
   -0.6373    0.5795    2.7957 H   0  0  0  0  0  0  0  0  0  0  0  0
    1.1135    0.3563    2.8049 H   0  0  0  0  0  0  0  0  0  0  0  0
    0.4289    1.9830    2.8281 H   0  0  0  0  0  0  0  0  0  0  0  0
    1.2739    1.3854    0.5384 H   0  0  0  0  0  0  0  0  0  0  0  0
   -0.7216    2.9069    0.6688 H   0  0  0  0  0  0  0  0  0  0  0  0
   -0.7906    1.8855   -0.7690 H   0  0  0  0  0  0  0  0  0  0  0  0
   -1.7878    1.5034    0.6363 H   0  0  0  0  0  0  0  0  0  0  0  0
  1  2  3  0
  1  4  1  0
  2  3  1  0
  3  5  1  0
  3  6  1  0
  3  7  1  0
  8  9  1  0
  8 11  1  0
  8 12  1  0
  8 13  1  0
  9 10  1  0
  9 14  1  0
 10 15  1  0
 10 16  1  0
 10 17  1  0
M  RAD  1   9   2
M  END
>  <reaction>  (9) 
rxn_1216

>  <mol_properties>  (9) 
{"1": {"label": "*0", "atom_type": "Ct"}, "2": {"label": "*1", "atom_type": "Cs"}, "4": {"label": "*2", "atom_type": "H0"}, "7": {"label": "*4", "atom_type": "Cs"}, "8": {"label": "*3", "atom_type": "Cs"}}

>  <type>  (9) 
unop_5

>  <geom_source>  (9) 
Heuristics

$$$$

     RDKit          3D

 17 15  0  0  0  0  0  0  0  0999 V2000
   -0.2810   -1.1962   -2.7659 C   0  0  0  0  0  0  0  0  0  0  0  0
   -0.2810   -1.1962   -1.5689 C   0  0  0  0  0  0  0  0  0  0  0  0
   -0.2810   -1.1962   -0.1135 C   0  0  0  0  0  0  0  0  0  0  0  0
   -0.2810   -1.1962   -3.8292 H   0  0  0  0  0  0  0  0  0  0  0  0
   -0.1696    0.0233    0.3489 H   0  0  0  0  0  0  0  0  0  0  0  0
    0.5527   -1.7848    0.2719 H   0  0  0  0  0  0  0  0  0  0  0  0
   -1.2076   -1.6239    0.2719 H   0  0  0  0  0  0  0  0  0  0  0  0
    1.4158    1.5876    0.9916 C   0  0  0  0  0  0  0  0  0  0  0  0
   -0.0579    1.2459    0.8125 C   0  0  0  0  0  3  0  0  0  0  0  0
   -0.6276    0.4688    1.9924 C   0  0  0  0  0  0  0  0  0  0  0  0
    2.0162    0.6814    1.1032 H   0  0  0  0  0  0  0  0  0  0  0  0
    1.8055    2.1435    0.1372 H   0  0  0  0  0  0  0  0  0  0  0  0
    1.5697    2.1967    1.8856 H   0  0  0  0  0  0  0  0  0  0  0  0
   -0.6306    2.1668    0.6725 H   0  0  0  0  0  0  0  0  0  0  0  0
   -0.5381    1.0427    2.9179 H   0  0  0  0  0  0  0  0  0  0  0  0
   -1.6831    0.2336    1.8457 H   0  0  0  0  0  0  0  0  0  0  0  0
   -0.0916   -0.4726    2.1355 H   0  0  0  0  0  0  0  0  0  0  0  0
  1  2  3  0
  1  4  1  0
  2  3  1  0
  3  5  1  0
  3  6  1  0
  3  7  1  0
  8  9  1  0
  8 11  1  0
  8 12  1  0
  8 13  1  0
  9 10  1  0
  9 14  1  0
 10 15  1  0
 10 16  1  0
 10 17  1  0
M  RAD  1   9   2
M  END
>  <reaction>  (10) 
rxn_1216

>  <mol_properties>  (10) 
{"1": {"label": "*0", "atom_type": "Ct"}, "2": {"label": "*1", "atom_type": "Cs"}, "4": {"label": "*2", "atom_type": "H0"}, "7": {"label": "*4", "atom_type": "Cs"}, "8": {"label": "*3", "atom_type": "Cs"}}

>  <type>  (10) 
unop_6

>  <geom_source>  (10) 
Heuristics

$$$$

     RDKit          3D

 17 15  0  0  0  0  0  0  0  0999 V2000
   -0.1270   -1.1923   -2.8133 C   0  0  0  0  0  0  0  0  0  0  0  0
   -0.1270   -1.1923   -1.6162 C   0  0  0  0  0  0  0  0  0  0  0  0
   -0.1270   -1.1923   -0.1608 C   0  0  0  0  0  0  0  0  0  0  0  0
   -0.1270   -1.1923   -3.8765 H   0  0  0  0  0  0  0  0  0  0  0  0
   -0.0155    0.0273    0.3016 H   0  0  0  0  0  0  0  0  0  0  0  0
    0.7068   -1.7809    0.2246 H   0  0  0  0  0  0  0  0  0  0  0  0
   -1.0536   -1.6200    0.2246 H   0  0  0  0  0  0  0  0  0  0  0  0
    1.3552    1.3564    1.6162 C   0  0  0  0  0  0  0  0  0  0  0  0
    0.0962    1.2498    0.7652 C   0  0  0  0  0  3  0  0  0  0  0  0
   -1.0880    0.6829    1.5377 C   0  0  0  0  0  0  0  0  0  0  0  0
    1.6546    0.3762    1.9951 H   0  0  0  0  0  0  0  0  0  0  0  0
    2.1916    1.7640    1.0460 H   0  0  0  0  0  0  0  0  0  0  0  0
    1.1897    2.0064    2.4788 H   0  0  0  0  0  0  0  0  0  0  0  0
   -0.1634    2.2375    0.3741 H   0  0  0  0  0  0  0  0  0  0  0  0
   -1.3304    1.3118    2.3978 H   0  0  0  0  0  0  0  0  0  0  0  0
   -1.9794    0.6144    0.9119 H   0  0  0  0  0  0  0  0  0  0  0  0
   -0.8655   -0.3185    1.9141 H   0  0  0  0  0  0  0  0  0  0  0  0
  1  2  3  0
  1  4  1  0
  2  3  1  0
  3  5  1  0
  3  6  1  0
  3  7  1  0
  8  9  1  0
  8 11  1  0
  8 12  1  0
  8 13  1  0
  9 10  1  0
  9 14  1  0
 10 15  1  0
 10 16  1  0
 10 17  1  0
M  RAD  1   9   2
M  END
>  <reaction>  (11) 
rxn_1216

>  <mol_properties>  (11) 
{"1": {"label": "*0", "atom_type": "Ct"}, "2": {"label": "*1", "atom_type": "Cs"}, "4": {"label": "*2", "atom_type": "H0"}, "7": {"label": "*4", "atom_type": "Cs"}, "8": {"label": "*3", "atom_type": "Cs"}}

>  <type>  (11) 
unop_7

>  <geom_source>  (11) 
Heuristics

$$$$

     RDKit          3D

 17 15  0  0  0  0  0  0  0  0999 V2000
   -0.0629   -1.5755   -2.5423 C   0  0  0  0  0  0  0  0  0  0  0  0
   -0.0629   -1.5755   -1.3453 C   0  0  0  0  0  0  0  0  0  0  0  0
   -0.0629   -1.5755    0.1102 C   0  0  0  0  0  0  0  0  0  0  0  0
   -0.0629   -1.5755   -3.6056 H   0  0  0  0  0  0  0  0  0  0  0  0
    0.0485   -0.3559    0.5726 H   0  0  0  0  0  0  0  0  0  0  0  0
    0.7708   -2.1641    0.4955 H   0  0  0  0  0  0  0  0  0  0  0  0
   -0.9895   -2.0032    0.4955 H   0  0  0  0  0  0  0  0  0  0  0  0
   -1.2271    1.4698    1.2153 C   0  0  0  0  0  0  0  0  0  0  0  0
    0.1603    0.8666    1.0361 C   0  0  0  0  0  3  0  0  0  0  0  0
    1.2565    1.9229    0.9802 C   0  0  0  0  0  0  0  0  0  0  0  0
   -1.4690    2.1447    0.3907 H   0  0  0  0  0  0  0  0  0  0  0  0
   -1.9981    0.6983    1.2530 H   0  0  0  0  0  0  0  0  0  0  0  0
   -1.2855    2.0469    2.1413 H   0  0  0  0  0  0  0  0  0  0  0  0
    0.3644    0.1732    1.8567 H   0  0  0  0  0  0  0  0  0  0  0  0
    1.2763    2.5143    1.8988 H   0  0  0  0  0  0  0  0  0  0  0  0
    2.2419    1.4719    0.8517 H   0  0  0  0  0  0  0  0  0  0  0  0
    1.0928    2.6121    0.1482 H   0  0  0  0  0  0  0  0  0  0  0  0
  1  2  3  0
  1  4  1  0
  2  3  1  0
  3  5  1  0
  3  6  1  0
  3  7  1  0
  8  9  1  0
  8 11  1  0
  8 12  1  0
  8 13  1  0
  9 10  1  0
  9 14  1  0
 10 15  1  0
 10 16  1  0
 10 17  1  0
M  RAD  1   9   2
M  END
>  <reaction>  (12) 
rxn_1216

>  <mol_properties>  (12) 
{"1": {"label": "*0", "atom_type": "Ct"}, "2": {"label": "*1", "atom_type": "Cs"}, "4": {"label": "*2", "atom_type": "H0"}, "7": {"label": "*4", "atom_type": "Cs"}, "8": {"label": "*3", "atom_type": "Cs"}}

>  <type>  (12) 
unop_8

>  <geom_source>  (12) 
Heuristics

$$$$

     RDKit          3D

 17 15  0  0  0  0  0  0  0  0999 V2000
   -0.4125   -1.3581   -2.5577 C   0  0  0  0  0  0  0  0  0  0  0  0
   -0.4125   -1.3581   -1.3607 C   0  0  0  0  0  0  0  0  0  0  0  0
   -0.4125   -1.3581    0.0947 C   0  0  0  0  0  0  0  0  0  0  0  0
   -0.4125   -1.3581   -3.6210 H   0  0  0  0  0  0  0  0  0  0  0  0
   -0.3010   -0.1386    0.5572 H   0  0  0  0  0  0  0  0  0  0  0  0
    0.4212   -1.9467    0.4801 H   0  0  0  0  0  0  0  0  0  0  0  0
   -1.3391   -1.7858    0.4801 H   0  0  0  0  0  0  0  0  0  0  0  0
    0.6091    1.9286    0.0360 C   0  0  0  0  0  0  0  0  0  0  0  0
   -0.1893    1.0840    1.0207 C   0  0  0  0  0  3  0  0  0  0  0  0
    0.6265    0.6776    2.2413 C   0  0  0  0  0  0  0  0  0  0  0  0
    1.4844    1.3838   -0.3259 H   0  0  0  0  0  0  0  0  0  0  0  0
    0.0084    2.2096   -0.8306 H   0  0  0  0  0  0  0  0  0  0  0  0
    0.9652    2.8474    0.5085 H   0  0  0  0  0  0  0  0  0  0  0  0
   -1.0743    1.6397    1.3430 H   0  0  0  0  0  0  0  0  0  0  0  0
    0.9831    1.5569    2.7833 H   0  0  0  0  0  0  0  0  0  0  0  0
    0.0381    0.0738    2.9342 H   0  0  0  0  0  0  0  0  0  0  0  0
    1.5024    0.0933    1.9489 H   0  0  0  0  0  0  0  0  0  0  0  0
  1  2  3  0
  1  4  1  0
  2  3  1  0
  3  5  1  0
  3  6  1  0
  3  7  1  0
  8  9  1  0
  8 11  1  0
  8 12  1  0
  8 13  1  0
  9 10  1  0
  9 14  1  0
 10 15  1  0
 10 16  1  0
 10 17  1  0
M  RAD  1   9   2
M  END
>  <reaction>  (13) 
rxn_1216

>  <mol_properties>  (13) 
{"1": {"label": "*0", "atom_type": "Ct"}, "2": {"label": "*1", "atom_type": "Cs"}, "4": {"label": "*2", "atom_type": "H0"}, "7": {"label": "*4", "atom_type": "Cs"}, "8": {"label": "*3", "atom_type": "Cs"}}

>  <type>  (13) 
unop_9

>  <geom_source>  (13) 
Heuristics

$$$$

     RDKit          3D

 17 15  0  0  0  0  0  0  0  0999 V2000
   -0.1243   -1.5806   -2.4832 C   0  0  0  0  0  0  0  0  0  0  0  0
   -0.1243   -1.5806   -1.2861 C   0  0  0  0  0  0  0  0  0  0  0  0
   -0.1243   -1.5806    0.1693 C   0  0  0  0  0  0  0  0  0  0  0  0
   -0.1243   -1.5806   -3.5464 H   0  0  0  0  0  0  0  0  0  0  0  0
   -0.0128   -0.3611    0.6317 H   0  0  0  0  0  0  0  0  0  0  0  0
    0.7094   -2.1692    0.5547 H   0  0  0  0  0  0  0  0  0  0  0  0
   -1.0509   -2.0083    0.5547 H   0  0  0  0  0  0  0  0  0  0  0  0
   -1.0737    1.6998    0.6025 C   0  0  0  0  0  0  0  0  0  0  0  0
    0.0989    0.8615    1.0953 C   0  0  0  0  0  3  0  0  0  0  0  0
    1.3345    1.7003    1.3957 C   0  0  0  0  0  0  0  0  0  0  0  0
   -0.8138    2.2340   -0.3146 H   0  0  0  0  0  0  0  0  0  0  0  0
   -1.9485    1.0819    0.3929 H   0  0  0  0  0  0  0  0  0  0  0  0
   -1.3614    2.4453    1.3477 H   0  0  0  0  0  0  0  0  0  0  0  0
   -0.1972    0.3145    1.9947 H   0  0  0  0  0  0  0  0  0  0  0  0
    1.1227    2.4458    2.1659 H   0  0  0  0  0  0  0  0  0  0  0  0
    2.1629    1.0827    1.7470 H   0  0  0  0  0  0  0  0  0  0  0  0
    1.6703    2.2345    0.5036 H   0  0  0  0  0  0  0  0  0  0  0  0
  1  2  3  0
  1  4  1  0
  2  3  1  0
  3  5  1  0
  3  6  1  0
  3  7  1  0
  8  9  1  0
  8 11  1  0
  8 12  1  0
  8 13  1  0
  9 10  1  0
  9 14  1  0
 10 15  1  0
 10 16  1  0
 10 17  1  0
M  RAD  1   9   2
M  END
>  <reaction>  (14) 
rxn_1216

>  <mol_properties>  (14) 
{"1": {"label": "*0", "atom_type": "Ct"}, "2": {"label": "*1", "atom_type": "Cs"}, "4": {"label": "*2", "atom_type": "H0"}, "7": {"label": "*4", "atom_type": "Cs"}, "8": {"label": "*3", "atom_type": "Cs"}}

>  <type>  (14) 
unop_10

>  <geom_source>  (14) 
Heuristics

$$$$

     RDKit          3D

 17 15  0  0  0  0  0  0  0  0999 V2000
    0.0324   -1.2689   -2.7855 C   0  0  0  0  0  0  0  0  0  0  0  0
    0.0324   -1.2689   -1.5885 C   0  0  0  0  0  0  0  0  0  0  0  0
    0.0324   -1.2689   -0.1330 C   0  0  0  0  0  0  0  0  0  0  0  0
    0.0324   -1.2689   -3.8488 H   0  0  0  0  0  0  0  0  0  0  0  0
    0.1438   -0.0493    0.3294 H   0  0  0  0  0  0  0  0  0  0  0  0
    0.8661   -1.8575    0.2523 H   0  0  0  0  0  0  0  0  0  0  0  0
   -0.8942   -1.6966    0.2523 H   0  0  0  0  0  0  0  0  0  0  0  0
    0.9740    1.1426    2.1359 C   0  0  0  0  0  0  0  0  0  0  0  0
    0.2556    1.1732    0.7929 C   0  0  0  0  0  3  0  0  0  0  0  0
   -1.2607    1.1517    0.9381 C   0  0  0  0  0  0  0  0  0  0  0  0
    0.7149    0.2416    2.6971 H   0  0  0  0  0  0  0  0  0  0  0  0
    2.0581    1.1586    2.0113 H   0  0  0  0  0  0  0  0  0  0  0  0
    0.6947    2.0036    2.7480 H   0  0  0  0  0  0  0  0  0  0  0  0
    0.5556    2.0676    0.2399 H   0  0  0  0  0  0  0  0  0  0  0  0
   -1.6104    2.0130    1.5124 H   0  0  0  0  0  0  0  0  0  0  0  0
   -1.7570    1.1741   -0.0336 H   0  0  0  0  0  0  0  0  0  0  0  0
   -1.5902    0.2509    1.4615 H   0  0  0  0  0  0  0  0  0  0  0  0
  1  2  3  0
  1  4  1  0
  2  3  1  0
  3  5  1  0
  3  6  1  0
  3  7  1  0
  8  9  1  0
  8 11  1  0
  8 12  1  0
  8 13  1  0
  9 10  1  0
  9 14  1  0
 10 15  1  0
 10 16  1  0
 10 17  1  0
M  RAD  1   9   2
M  END
>  <reaction>  (15) 
rxn_1216

>  <mol_properties>  (15) 
{"1": {"label": "*0", "atom_type": "Ct"}, "2": {"label": "*1", "atom_type": "Cs"}, "4": {"label": "*2", "atom_type": "H0"}, "7": {"label": "*4", "atom_type": "Cs"}, "8": {"label": "*3", "atom_type": "Cs"}}

>  <type>  (15) 
unop_11

>  <geom_source>  (15) 
Heuristics

$$$$

     RDKit          3D

 17 15  0  0  0  0  0  0  0  0999 V2000
   -0.3512   -1.4721   -2.4709 C   0  0  0  0  0  0  0  0  0  0  0  0
   -0.3512   -1.4721   -1.2738 C   0  0  0  0  0  0  0  0  0  0  0  0
   -0.3512   -1.4721    0.1816 C   0  0  0  0  0  0  0  0  0  0  0  0
   -0.3512   -1.4721   -3.5341 H   0  0  0  0  0  0  0  0  0  0  0  0
   -0.2397   -0.2525    0.6440 H   0  0  0  0  0  0  0  0  0  0  0  0
    0.4825   -2.0607    0.5670 H   0  0  0  0  0  0  0  0  0  0  0  0
   -1.2778   -1.8998    0.5670 H   0  0  0  0  0  0  0  0  0  0  0  0
   -0.0387    1.9477   -0.0571 C   0  0  0  0  0  0  0  0  0  0  0  0
   -0.1280    0.9700    1.1076 C   0  0  0  0  0  3  0  0  0  0  0  0
    1.0767    1.0521    2.0362 C   0  0  0  0  0  0  0  0  0  0  0  0
    0.8506    1.7545   -0.6620 H   0  0  0  0  0  0  0  0  0  0  0  0
   -0.9097    1.8741   -0.7104 H   0  0  0  0  0  0  0  0  0  0  0  0
    0.0245    2.9780    0.3016 H   0  0  0  0  0  0  0  0  0  0  0  0
   -1.0408    1.1650    1.6774 H   0  0  0  0  0  0  0  0  0  0  0  0
    1.1750    2.0540    2.4610 H   0  0  0  0  0  0  0  0  0  0  0  0
    0.9945    0.3450    2.8634 H   0  0  0  0  0  0  0  0  0  0  0  0
    2.0012    0.8306    1.4973 H   0  0  0  0  0  0  0  0  0  0  0  0
  1  2  3  0
  1  4  1  0
  2  3  1  0
  3  5  1  0
  3  6  1  0
  3  7  1  0
  8  9  1  0
  8 11  1  0
  8 12  1  0
  8 13  1  0
  9 10  1  0
  9 14  1  0
 10 15  1  0
 10 16  1  0
 10 17  1  0
M  RAD  1   9   2
M  END
>  <reaction>  (16) 
rxn_1216

>  <mol_properties>  (16) 
{"1": {"label": "*0", "atom_type": "Ct"}, "2": {"label": "*1", "atom_type": "Cs"}, "4": {"label": "*2", "atom_type": "H0"}, "7": {"label": "*4", "atom_type": "Cs"}, "8": {"label": "*3", "atom_type": "Cs"}}

>  <type>  (16) 
unop_12

>  <geom_source>  (16) 
Heuristics

$$$$

     RDKit          3D

 17 15  0  0  0  0  0  0  0  0999 V2000
   -0.7192    0.2891   -0.2244 C   0  0  0  0  0  0  0  0  0  0  0  0
   -1.6419   -0.5367   -1.1139 C   0  0  0  0  0  0  0  0  0  0  0  0
   -1.4919    0.9613    0.9051 C   0  0  0  0  0  0  0  0  0  0  0  0
    1.4305   -1.0854    0.3047 C   0  0  0  0  0  3  0  0  0  0  0  0
    2.5007   -0.0895    0.2457 C   0  0  0  0  0  0  0  0  0  0  0  0
    3.3823    0.7312    0.1971 C   0  0  0  0  0  0  0  0  0  0  0  0
   -0.2144    1.0659   -0.8383 H   0  0  0  0  0  0  0  0  0  0  0  0
    0.2086   -0.5065    0.2970 H   0  0  0  0  0  0  0  0  0  0  0  0
   -1.0469   -1.0132   -1.9209 H   0  0  0  0  0  0  0  0  0  0  0  0
   -2.1359   -1.3340   -0.5192 H   0  0  0  0  0  0  0  0  0  0  0  0
   -2.4161    0.1121   -1.5763 H   0  0  0  0  0  0  0  0  0  0  0  0
   -1.9828    0.1960    1.5429 H   0  0  0  0  0  0  0  0  0  0  0  0
   -0.7904    1.5494    1.5329 H   0  0  0  0  0  0  0  0  0  0  0  0
   -2.2624    1.6469    0.4921 H   0  0  0  0  0  0  0  0  0  0  0  0
    1.4154   -1.6689   -0.6388 H   0  0  0  0  0  0  0  0  0  0  0  0
    1.6081   -1.7695    1.1599 H   0  0  0  0  0  0  0  0  0  0  0  0
    4.1563    1.4517    0.1545 H   0  0  0  0  0  0  0  0  0  0  0  0
  1  2  1  0
  1  3  1  0
  1  7  1  0
  1  8  1  0
  2  9  1  0
  2 10  1  0
  2 11  1  0
  3 12  1  0
  3 13  1  0
  3 14  1  0
  4  5  1  0
  4 15  1  0
  4 16  1  0
  5  6  3  0
  6 17  1  0
M  RAD  1   4   2
M  END
>  <reaction>  (17) 
rxn_1216

>  <mol_properties>  (17) 
{"1": {"label": "*0", "atom_type": "Ct"}, "2": {"label": "*1", "atom_type": "Cs"}, "4": {"label": "*2", "atom_type": "H0"}, "7": {"label": "*4", "atom_type": "Cs"}, "8": {"label": "*3", "atom_type": "Cs"}}

>  <type>  (17) 
unop_13

>  <geom_source>  (17) 
AutoTST

$$$$

     RDKit          3D

 17 15  0  0  0  0  0  0  0  0999 V2000
   -0.2326   -1.5526   -2.4469 C   0  0  0  0  0  0  0  0  0  0  0  0
   -0.2326   -1.5526   -1.2499 C   0  0  0  0  0  0  0  0  0  0  0  0
   -0.2326   -1.5526    0.2056 C   0  0  0  0  0  0  0  0  0  0  0  0
   -0.2326   -1.5526   -3.5102 H   0  0  0  0  0  0  0  0  0  0  0  0
   -0.1211   -0.3331    0.6680 H   0  0  0  0  0  0  0  0  0  0  0  0
    0.6011   -2.1412    0.5909 H   0  0  0  0  0  0  0  0  0  0  0  0
   -1.1592   -1.9803    0.5909 H   0  0  0  0  0  0  0  0  0  0  0  0
   -0.6415    1.8649    0.1469 C   0  0  0  0  0  0  0  0  0  0  0  0
   -0.0094    0.8895    1.1315 C   0  0  0  0  0  3  0  0  0  0  0  0
    1.2811    1.4235    1.7398 C   0  0  0  0  0  0  0  0  0  0  0  0
    0.0401    2.0830   -0.6789 H   0  0  0  0  0  0  0  0  0  0  0  0
   -1.5638    1.4650   -0.2778 H   0  0  0  0  0  0  0  0  0  0  0  0
   -0.8812    2.8126    0.6352 H   0  0  0  0  0  0  0  0  0  0  0  0
   -0.7223    0.6648    1.9297 H   0  0  0  0  0  0  0  0  0  0  0  0
    1.1020    2.3573    2.2783 H   0  0  0  0  0  0  0  0  0  0  0  0
    1.7184    0.7115    2.4417 H   0  0  0  0  0  0  0  0  0  0  0  0
    2.0233    1.6277    0.9643 H   0  0  0  0  0  0  0  0  0  0  0  0
  1  2  3  0
  1  4  1  0
  2  3  1  0
  3  5  1  0
  3  6  1  0
  3  7  1  0
  8  9  1  0
  8 11  1  0
  8 12  1  0
  8 13  1  0
  9 10  1  0
  9 14  1  0
 10 15  1  0
 10 16  1  0
 10 17  1  0
M  RAD  1   9   2
M  END
>  <reaction>  (18) 
rxn_1216

>  <mol_properties>  (18) 
{"1": {"label": "*0", "atom_type": "Ct"}, "2": {"label": "*1", "atom_type": "Cs"}, "4": {"label": "*2", "atom_type": "H0"}, "7": {"label": "*4", "atom_type": "Cs"}, "8": {"label": "*3", "atom_type": "Cs"}}

>  <type>  (18) 
unop_14

>  <geom_source>  (18) 
gaussian_log

$$$$
