
     RDKit          3D

  9  8  0  0  0  0  0  0  0  0999 V2000
    1.1303   -0.2933   -0.7510 C   0  0  0  0  0  0  0  0  0  0  0  0
    0.2866    0.4560   -0.0588 C   0  0  0  0  0  0  0  0  0  0  0  0
   -0.9719   -0.0331    0.5823 C   0  0  0  0  0  0  0  0  0  0  0  0
    2.0274    0.1230   -1.1916 H   0  0  0  0  0  0  0  0  0  0  0  0
    0.9532   -1.3530   -0.9023 H   0  0  0  0  0  0  0  0  0  0  0  0
    0.5065    1.5132    0.0659 H   0  0  0  0  0  0  0  0  0  0  0  0
   -0.9526    0.1426    1.6610 H   0  0  0  0  0  0  0  0  0  0  0  0
   -1.1182   -1.1002    0.4106 H   0  0  0  0  0  0  0  0  0  0  0  0
   -1.8412    0.5010    0.1901 H   0  0  0  0  0  0  0  0  0  0  0  0
  1  2  2  3
  1  4  1  0
  1  5  1  0
  2  3  1  0
  2  6  1  0
  3  7  1  0
  3  8  1  0
  3  9  1  0
M  END
>  <reaction>  (1) 
rxn_1621

>  <mol_properties>  (1) 
{"1": {"label": "donator", "atom_type": "Cd"}, "5": {"label": "d_hydrogen", "atom_type": "H0"}}

>  <type>  (1) 
r1h

$$$$

     RDKit          3D

  9  8  0  0  0  0  0  0  0  0999 V2000
    1.8963   -0.1405   -0.2150 C   0  0  0  0  0  0  0  0  0  0  0  0
    0.6340    0.1486   -0.2254 C   0  0  0  0  0  3  0  0  0  0  0  0
   -0.6770    0.4501   -0.2373 C   0  0  0  0  0  0  0  0  0  0  0  0
   -1.6600   -0.2303    0.4662 C   0  0  0  0  0  0  0  0  0  0  0  0
    2.3274   -0.8354   -0.9313 H   0  0  0  0  0  0  0  0  0  0  0  0
    2.5751    0.2988    0.5117 H   0  0  0  0  0  0  0  0  0  0  0  0
   -0.9723    1.2966   -0.8520 H   0  0  0  0  0  0  0  0  0  0  0  0
   -2.6934    0.0777    0.4015 H   0  0  0  0  0  0  0  0  0  0  0  0
   -1.4140   -1.0782    1.0904 H   0  0  0  0  0  0  0  0  0  0  0  0
  1  2  2  3
  1  5  1  0
  1  6  1  0
  2  3  1  0
  3  4  2  3
  3  7  1  0
  4  8  1  0
  4  9  1  0
M  RAD  1   2   2
M  END
>  <reaction>  (2) 
rxn_1621

>  <mol_properties>  (2) 
{"1": {"label": "acceptor", "atom_type": "Cd"}}

>  <type>  (2) 
r2

$$$$

     RDKit          3D

 10  9  0  0  0  0  0  0  0  0999 V2000
    1.8334    0.0847   -0.1062 C   0  0  0  0  0  0  0  0  0  0  0  0
    0.5993   -0.4071   -0.0750 C   0  0  0  0  0  0  0  0  0  0  0  0
   -0.5993    0.4071    0.0750 C   0  0  0  0  0  0  0  0  0  0  0  0
   -1.8334   -0.0847    0.1062 C   0  0  0  0  0  0  0  0  0  0  0  0
    2.0179    1.1498   -0.0189 H   0  0  0  0  0  0  0  0  0  0  0  0
    2.6972   -0.5572   -0.2194 H   0  0  0  0  0  0  0  0  0  0  0  0
    0.4465   -1.4793   -0.1649 H   0  0  0  0  0  0  0  0  0  0  0  0
   -0.4465    1.4793    0.1649 H   0  0  0  0  0  0  0  0  0  0  0  0
   -2.0179   -1.1498    0.0189 H   0  0  0  0  0  0  0  0  0  0  0  0
   -2.6972    0.5572    0.2194 H   0  0  0  0  0  0  0  0  0  0  0  0
  1  2  2  3
  1  5  1  0
  1  6  1  0
  2  3  1  0
  2  7  1  0
  3  4  2  3
  3  8  1  0
  4  9  1  0
  4 10  1  0
M  END
>  <reaction>  (3) 
rxn_1621

>  <mol_properties>  (3) 
{"1": {"label": "acceptor", "atom_type": "Cd"}, "9": {"label": "a_hydrogen", "atom_type": "H0"}}

>  <type>  (3) 
r2h

$$$$

     RDKit          3D

 18 16  0  0  0  0  0  0  0  0999 V2000
    1.5596   -1.7231    0.2518 C   0  0  0  0  0  0  0  0  0  0  0  0
    0.4412   -1.0549    0.4652 C   0  0  0  0  0  3  0  0  0  0  0  0
   -0.6436   -1.3459    1.3784 C   0  0  0  0  0  0  0  0  0  0  0  0
   -1.7644   -0.6357    1.4604 C   0  0  0  0  0  0  0  0  0  0  0  0
    2.2934   -1.3838   -0.4703 H   0  0  0  0  0  0  0  0  0  0  0  0
    1.7847   -2.6423    0.7890 H   0  0  0  0  0  0  0  0  0  0  0  0
   -0.5056   -2.2095    2.0286 H   0  0  0  0  0  0  0  0  0  0  0  0
   -2.5465   -0.8975    2.1608 H   0  0  0  0  0  0  0  0  0  0  0  0
   -1.9314    0.2239    0.8214 H   0  0  0  0  0  0  0  0  0  0  0  0
   -0.4510    1.0439   -2.1111 C   0  0  0  0  0  0  0  0  0  0  0  0
    0.1449    1.1844   -0.9469 C   0  0  0  0  0  0  0  0  0  0  0  0
    0.6832    2.3874   -0.2680 C   0  0  0  0  0  0  0  0  0  0  0  0
   -0.7927    0.0749   -2.4575 H   0  0  0  0  0  0  0  0  0  0  0  0
   -0.6211    1.8929   -2.7702 H   0  0  0  0  0  0  0  0  0  0  0  0
    0.2834    0.0756   -0.2479 H   0  0  0  0  0  0  0  0  0  0  0  0
    0.1973    2.5343    0.6996 H   0  0  0  0  0  0  0  0  0  0  0  0
    0.5308    3.2856   -0.8728 H   0  0  0  0  0  0  0  0  0  0  0  0
    1.7527    2.2768   -0.0747 H   0  0  0  0  0  0  0  0  0  0  0  0
  1  2  2  3
  1  5  1  0
  1  6  1  0
  2  3  1  0
  3  4  2  3
  3  7  1  0
  4  8  1  0
  4  9  1  0
 10 11  2  3
 10 13  1  0
 10 14  1  0
 11 12  1  0
 11 15  1  0
 12 16  1  0
 12 17  1  0
 12 18  1  0
M  RAD  1   2   2
M  END
>  <reaction>  (4) 
rxn_1621

>  <mol_properties>  (4) 
{"1": {"label": "*3", "atom_type": "Cd"}, "2": {"label": "*4", "atom_type": "Cd"}, "9": {"label": "*0", "atom_type": "Cd"}, "10": {"label": "*1", "atom_type": "Cd"}, "14": {"label": "*2", "atom_type": "H0"}}

>  <type>  (4) 
ts

$$$$

     RDKit          3D

 18 16  0  0  0  0  0  0  0  0999 V2000
   -1.5802   -1.4106    0.6569 C   0  0  0  0  0  0  0  0  0  0  0  0
   -0.3188   -1.1252    0.3513 C   0  0  0  0  0  0  0  0  0  0  0  0
    0.8115   -1.3782    1.2349 C   0  0  0  0  0  0  0  0  0  0  0  0
    2.0729   -1.0927    0.9292 C   0  0  0  0  0  0  0  0  0  0  0  0
   -2.3906   -1.2057   -0.0302 H   0  0  0  0  0  0  0  0  0  0  0  0
   -1.8414   -1.8602    1.6086 H   0  0  0  0  0  0  0  0  0  0  0  0
    0.5811   -1.8285    2.1967 H   0  0  0  0  0  0  0  0  0  0  0  0
    2.8833   -1.2977    1.6164 H   0  0  0  0  0  0  0  0  0  0  0  0
    2.3341   -0.6432   -0.0224 H   0  0  0  0  0  0  0  0  0  0  0  0
   -0.3188    1.1607   -2.2287 C   0  0  0  0  0  0  0  0  0  0  0  0
   -0.3188    1.1607   -0.9050 C   0  0  0  0  0  3  0  0  0  0  0  0
   -0.3188    2.3829   -0.0445 C   0  0  0  0  0  0  0  0  0  0  0  0
   -0.3188    0.2380   -2.7952 H   0  0  0  0  0  0  0  0  0  0  0  0
   -0.3188    2.0863   -2.7948 H   0  0  0  0  0  0  0  0  0  0  0  0
   -0.3188    0.0176   -0.2768 H   0  0  0  0  0  0  0  0  0  0  0  0
   -1.1965    2.4000    0.6067 H   0  0  0  0  0  0  0  0  0  0  0  0
   -0.3188    3.2934   -0.6451 H   0  0  0  0  0  0  0  0  0  0  0  0
    0.5589    2.4000    0.6067 H   0  0  0  0  0  0  0  0  0  0  0  0
  1  2  2  3
  1  5  1  0
  1  6  1  0
  2  3  1  0
  2 15  1  0
  3  4  2  3
  3  7  1  0
  4  8  1  0
  4  9  1  0
 10 11  2  3
 10 13  1  0
 10 14  1  0
 11 12  1  0
 12 16  1  0
 12 17  1  0
 12 18  1  0
M  RAD  1  11   2
M  END
>  <reaction>  (5) 
rxn_1621

>  <mol_properties>  (5) 
{"1": {"label": "*3", "atom_type": "Cd"}, "2": {"label": "*4", "atom_type": "Cd"}, "9": {"label": "*0", "atom_type": "Cd"}, "10": {"label": "*1", "atom_type": "Cd"}, "14": {"label": "*2", "atom_type": "H0"}}

>  <type>  (5) 
unop_1

>  <geom_source>  (5) 
Heuristics

$$$$

     RDKit          3D

 18 16  0  0  0  0  0  0  0  0999 V2000
   -0.4620   -0.8570    2.0992 C   0  0  0  0  0  0  0  0  0  0  0  0
   -0.1883   -0.8769    0.7990 C   0  0  0  0  0  0  0  0  0  0  0  0
    0.4643   -1.9885    0.1201 C   0  0  0  0  0  0  0  0  0  0  0  0
    0.7380   -2.0085   -1.1801 C   0  0  0  0  0  0  0  0  0  0  0  0
   -0.9488   -0.0093    2.5634 H   0  0  0  0  0  0  0  0  0  0  0  0
   -0.2061   -1.6923    2.7417 H   0  0  0  0  0  0  0  0  0  0  0  0
    0.7330   -2.8409    0.7382 H   0  0  0  0  0  0  0  0  0  0  0  0
    1.2247   -2.8561   -1.6443 H   0  0  0  0  0  0  0  0  0  0  0  0
    0.4821   -1.1732   -1.8227 H   0  0  0  0  0  0  0  0  0  0  0  0
   -0.1883    1.4090   -1.7811 C   0  0  0  0  0  0  0  0  0  0  0  0
   -0.1883    1.4090   -0.4573 C   0  0  0  0  0  3  0  0  0  0  0  0
   -0.1883    2.6312    0.4032 C   0  0  0  0  0  0  0  0  0  0  0  0
   -0.1883    0.4863   -2.3475 H   0  0  0  0  0  0  0  0  0  0  0  0
   -0.1883    2.3346   -2.3471 H   0  0  0  0  0  0  0  0  0  0  0  0
   -0.1883    0.2659    0.1709 H   0  0  0  0  0  0  0  0  0  0  0  0
   -1.0660    2.6483    1.0544 H   0  0  0  0  0  0  0  0  0  0  0  0
   -0.1883    3.5417   -0.1974 H   0  0  0  0  0  0  0  0  0  0  0  0
    0.6894    2.6483    1.0544 H   0  0  0  0  0  0  0  0  0  0  0  0
  1  2  2  3
  1  5  1  0
  1  6  1  0
  2  3  1  0
  2 15  1  0
  3  4  2  3
  3  7  1  0
  4  8  1  0
  4  9  1  0
 10 11  2  3
 10 13  1  0
 10 14  1  0
 11 12  1  0
 12 16  1  0
 12 17  1  0
 12 18  1  0
M  RAD  1  11   2
M  END
>  <reaction>  (6) 
rxn_1621

>  <mol_properties>  (6) 
{"1": {"label": "*3", "atom_type": "Cd"}, "2": {"label": "*4", "atom_type": "Cd"}, "9": {"label": "*0", "atom_type": "Cd"}, "10": {"label": "*1", "atom_type": "Cd"}, "14": {"label": "*2", "atom_type": "H0"}}

>  <type>  (6) 
unop_2

>  <geom_source>  (6) 
Heuristics

$$$$

     RDKit          3D

 18 16  0  0  0  0  0  0  0  0999 V2000
   -1.2335   -1.9348   -0.0830 C   0  0  0  0  0  0  0  0  0  0  0  0
   -0.1810   -1.1882    0.2346 C   0  0  0  0  0  0  0  0  0  0  0  0
    0.4716   -1.2111    1.5369 C   0  0  0  0  0  0  0  0  0  0  0  0
    1.5240   -0.4645    1.8546 C   0  0  0  0  0  0  0  0  0  0  0  0
   -1.6879   -1.8863   -1.0639 H   0  0  0  0  0  0  0  0  0  0  0  0
   -1.6744   -2.6204    0.6322 H   0  0  0  0  0  0  0  0  0  0  0  0
    0.0520   -1.8889    2.2754 H   0  0  0  0  0  0  0  0  0  0  0  0
    1.9785   -0.5129    2.8355 H   0  0  0  0  0  0  0  0  0  0  0  0
    1.9650    0.2211    1.1394 H   0  0  0  0  0  0  0  0  0  0  0  0
   -0.1810    1.0978   -2.3454 C   0  0  0  0  0  0  0  0  0  0  0  0
   -0.1810    1.0978   -1.0216 C   0  0  0  0  0  3  0  0  0  0  0  0
   -0.1810    2.3199   -0.1611 C   0  0  0  0  0  0  0  0  0  0  0  0
   -0.1810    0.1750   -2.9118 H   0  0  0  0  0  0  0  0  0  0  0  0
   -0.1810    2.0234   -2.9114 H   0  0  0  0  0  0  0  0  0  0  0  0
   -0.1810   -0.0454   -0.3934 H   0  0  0  0  0  0  0  0  0  0  0  0
   -1.0587    2.3371    0.4901 H   0  0  0  0  0  0  0  0  0  0  0  0
   -0.1810    3.2304   -0.7617 H   0  0  0  0  0  0  0  0  0  0  0  0
    0.6967    2.3371    0.4901 H   0  0  0  0  0  0  0  0  0  0  0  0
  1  2  2  3
  1  5  1  0
  1  6  1  0
  2  3  1  0
  2 15  1  0
  3  4  2  3
  3  7  1  0
  4  8  1  0
  4  9  1  0
 10 11  2  3
 10 13  1  0
 10 14  1  0
 11 12  1  0
 12 16  1  0
 12 17  1  0
 12 18  1  0
M  RAD  1  11   2
M  END
>  <reaction>  (7) 
rxn_1621

>  <mol_properties>  (7) 
{"1": {"label": "*3", "atom_type": "Cd"}, "2": {"label": "*4", "atom_type": "Cd"}, "9": {"label": "*0", "atom_type": "Cd"}, "10": {"label": "*1", "atom_type": "Cd"}, "14": {"label": "*2", "atom_type": "H0"}}

>  <type>  (7) 
unop_3

>  <geom_source>  (7) 
Heuristics

$$$$

     RDKit          3D

 18 16  0  0  0  0  0  0  0  0999 V2000
    0.9701   -0.8857    1.8379 C   0  0  0  0  0  0  0  0  0  0  0  0
    0.3246   -0.9446    0.6778 C   0  0  0  0  0  0  0  0  0  0  0  0
   -0.8057   -1.8261    0.4176 C   0  0  0  0  0  0  0  0  0  0  0  0
   -1.4513   -1.8851   -0.7424 C   0  0  0  0  0  0  0  0  0  0  0  0
    1.8061   -0.2152    1.9884 H   0  0  0  0  0  0  0  0  0  0  0  0
    0.6803   -1.5095    2.6763 H   0  0  0  0  0  0  0  0  0  0  0  0
   -1.1197   -2.4640    1.2395 H   0  0  0  0  0  0  0  0  0  0  0  0
   -2.2872   -2.5555   -0.8929 H   0  0  0  0  0  0  0  0  0  0  0  0
   -1.1615   -1.2612   -1.5808 H   0  0  0  0  0  0  0  0  0  0  0  0
    0.3246    1.3414   -1.9022 C   0  0  0  0  0  0  0  0  0  0  0  0
    0.3246    1.3414   -0.5784 C   0  0  0  0  0  3  0  0  0  0  0  0
    0.3246    2.5636    0.2821 C   0  0  0  0  0  0  0  0  0  0  0  0
    0.3246    0.4186   -2.4687 H   0  0  0  0  0  0  0  0  0  0  0  0
    0.3246    2.2670   -2.4682 H   0  0  0  0  0  0  0  0  0  0  0  0
    0.3246    0.1982    0.0498 H   0  0  0  0  0  0  0  0  0  0  0  0
   -0.5532    2.5807    0.9333 H   0  0  0  0  0  0  0  0  0  0  0  0
    0.3246    3.4740   -0.3185 H   0  0  0  0  0  0  0  0  0  0  0  0
    1.2023    2.5807    0.9333 H   0  0  0  0  0  0  0  0  0  0  0  0
  1  2  2  3
  1  5  1  0
  1  6  1  0
  2  3  1  0
  2 15  1  0
  3  4  2  3
  3  7  1  0
  4  8  1  0
  4  9  1  0
 10 11  2  3
 10 13  1  0
 10 14  1  0
 11 12  1  0
 12 16  1  0
 12 17  1  0
 12 18  1  0
M  RAD  1  11   2
M  END
>  <reaction>  (8) 
rxn_1621

>  <mol_properties>  (8) 
{"1": {"label": "*3", "atom_type": "Cd"}, "2": {"label": "*4", "atom_type": "Cd"}, "9": {"label": "*0", "atom_type": "Cd"}, "10": {"label": "*1", "atom_type": "Cd"}, "14": {"label": "*2", "atom_type": "H0"}}

>  <type>  (8) 
unop_4

>  <geom_source>  (8) 
Heuristics

$$$$

     RDKit          3D

 18 16  0  0  0  0  0  0  0  0999 V2000
   -0.0000   -2.3409   -0.5033 C   0  0  0  0  0  0  0  0  0  0  0  0
   -0.0000   -1.2092    0.1934 C   0  0  0  0  0  0  0  0  0  0  0  0
   -0.0000   -1.1479    1.6489 C   0  0  0  0  0  0  0  0  0  0  0  0
    0.0000   -0.0162    2.3456 C   0  0  0  0  0  0  0  0  0  0  0  0
   -0.0000   -2.3407   -1.5854 H   0  0  0  0  0  0  0  0  0  0  0  0
   -0.0000   -3.3064   -0.0096 H   0  0  0  0  0  0  0  0  0  0  0  0
   -0.0000   -2.1002    2.1723 H   0  0  0  0  0  0  0  0  0  0  0  0
   -0.0000   -0.0164    3.4277 H   0  0  0  0  0  0  0  0  0  0  0  0
    0.0000    0.9493    1.8519 H   0  0  0  0  0  0  0  0  0  0  0  0
    0.0000    1.0767   -2.3866 C   0  0  0  0  0  0  0  0  0  0  0  0
    0.0000    1.0767   -1.0629 C   0  0  0  0  0  3  0  0  0  0  0  0
    0.0000    2.2989   -0.2024 C   0  0  0  0  0  0  0  0  0  0  0  0
    0.0000    0.1540   -2.9531 H   0  0  0  0  0  0  0  0  0  0  0  0
    0.0000    2.0023   -2.9526 H   0  0  0  0  0  0  0  0  0  0  0  0
    0.0000   -0.0664   -0.4347 H   0  0  0  0  0  0  0  0  0  0  0  0
   -0.8777    2.3160    0.4488 H   0  0  0  0  0  0  0  0  0  0  0  0
    0.0000    3.2094   -0.8030 H   0  0  0  0  0  0  0  0  0  0  0  0
    0.8777    2.3160    0.4488 H   0  0  0  0  0  0  0  0  0  0  0  0
  1  2  2  3
  1  5  1  0
  1  6  1  0
  2  3  1  0
  2 15  1  0
  3  4  2  3
  3  7  1  0
  4  8  1  0
  4  9  1  0
 10 11  2  3
 10 13  1  0
 10 14  1  0
 11 12  1  0
 12 16  1  0
 12 17  1  0
 12 18  1  0
M  RAD  1  11   2
M  END
>  <reaction>  (9) 
rxn_1621

>  <mol_properties>  (9) 
{"1": {"label": "*3", "atom_type": "Cd"}, "2": {"label": "*4", "atom_type": "Cd"}, "9": {"label": "*0", "atom_type": "Cd"}, "10": {"label": "*1", "atom_type": "Cd"}, "14": {"label": "*2", "atom_type": "H0"}}

>  <type>  (9) 
unop_5

>  <geom_source>  (9) 
Heuristics

$$$$

     RDKit          3D

 18 16  0  0  0  0  0  0  0  0999 V2000
    1.4100   -1.0581    1.3431 C   0  0  0  0  0  0  0  0  0  0  0  0
    0.3720   -1.0358    0.5136 C   0  0  0  0  0  0  0  0  0  0  0  0
   -0.9331   -1.6030    0.8254 C   0  0  0  0  0  0  0  0  0  0  0  0
   -1.9711   -1.5806   -0.0041 C   0  0  0  0  0  0  0  0  0  0  0  0
    2.3631   -0.6242    1.0708 H   0  0  0  0  0  0  0  0  0  0  0  0
    1.3372   -1.5135    2.3246 H   0  0  0  0  0  0  0  0  0  0  0  0
   -1.0371   -2.0668    1.8026 H   0  0  0  0  0  0  0  0  0  0  0  0
   -2.9242   -2.0145    0.2682 H   0  0  0  0  0  0  0  0  0  0  0  0
   -1.8983   -1.1252   -0.9857 H   0  0  0  0  0  0  0  0  0  0  0  0
    0.3720    1.2502   -2.0664 C   0  0  0  0  0  0  0  0  0  0  0  0
    0.3720    1.2502   -0.7426 C   0  0  0  0  0  3  0  0  0  0  0  0
    0.3720    2.4724    0.1179 C   0  0  0  0  0  0  0  0  0  0  0  0
    0.3720    0.3275   -2.6329 H   0  0  0  0  0  0  0  0  0  0  0  0
    0.3720    2.1758   -2.6324 H   0  0  0  0  0  0  0  0  0  0  0  0
    0.3720    0.1071   -0.1144 H   0  0  0  0  0  0  0  0  0  0  0  0
   -0.5057    2.4895    0.7691 H   0  0  0  0  0  0  0  0  0  0  0  0
    0.3720    3.3828   -0.4827 H   0  0  0  0  0  0  0  0  0  0  0  0
    1.2497    2.4895    0.7691 H   0  0  0  0  0  0  0  0  0  0  0  0
  1  2  2  3
  1  5  1  0
  1  6  1  0
  2  3  1  0
  2 15  1  0
  3  4  2  3
  3  7  1  0
  4  8  1  0
  4  9  1  0
 10 11  2  3
 10 13  1  0
 10 14  1  0
 11 12  1  0
 12 16  1  0
 12 17  1  0
 12 18  1  0
M  RAD  1  11   2
M  END
>  <reaction>  (10) 
rxn_1621

>  <mol_properties>  (10) 
{"1": {"label": "*3", "atom_type": "Cd"}, "2": {"label": "*4", "atom_type": "Cd"}, "9": {"label": "*0", "atom_type": "Cd"}, "10": {"label": "*1", "atom_type": "Cd"}, "14": {"label": "*2", "atom_type": "H0"}}

>  <type>  (10) 
unop_6

>  <geom_source>  (10) 
Heuristics

$$$$

     RDKit          3D

 18 16  0  0  0  0  0  0  0  0999 V2000
    1.5801   -1.4106    0.6569 C   0  0  0  0  0  0  0  0  0  0  0  0
    0.3188   -1.1252    0.3513 C   0  0  0  0  0  0  0  0  0  0  0  0
   -0.8115   -1.3782    1.2349 C   0  0  0  0  0  0  0  0  0  0  0  0
   -2.0729   -1.0927    0.9292 C   0  0  0  0  0  0  0  0  0  0  0  0
    2.3906   -1.2057   -0.0302 H   0  0  0  0  0  0  0  0  0  0  0  0
    1.8414   -1.8602    1.6086 H   0  0  0  0  0  0  0  0  0  0  0  0
   -0.5811   -1.8285    2.1967 H   0  0  0  0  0  0  0  0  0  0  0  0
   -2.8833   -1.2977    1.6164 H   0  0  0  0  0  0  0  0  0  0  0  0
   -2.3341   -0.6432   -0.0224 H   0  0  0  0  0  0  0  0  0  0  0  0
    0.3188    1.1607   -2.2287 C   0  0  0  0  0  0  0  0  0  0  0  0
    0.3188    1.1607   -0.9050 C   0  0  0  0  0  3  0  0  0  0  0  0
    0.3188    2.3829   -0.0445 C   0  0  0  0  0  0  0  0  0  0  0  0
    0.3188    0.2380   -2.7952 H   0  0  0  0  0  0  0  0  0  0  0  0
    0.3188    2.0863   -2.7948 H   0  0  0  0  0  0  0  0  0  0  0  0
    0.3188    0.0176   -0.2768 H   0  0  0  0  0  0  0  0  0  0  0  0
   -0.5589    2.4000    0.6067 H   0  0  0  0  0  0  0  0  0  0  0  0
    0.3188    3.2934   -0.6451 H   0  0  0  0  0  0  0  0  0  0  0  0
    1.1965    2.4000    0.6067 H   0  0  0  0  0  0  0  0  0  0  0  0
  1  2  2  3
  1  5  1  0
  1  6  1  0
  2  3  1  0
  2 15  1  0
  3  4  2  3
  3  7  1  0
  4  8  1  0
  4  9  1  0
 10 11  2  3
 10 13  1  0
 10 14  1  0
 11 12  1  0
 12 16  1  0
 12 17  1  0
 12 18  1  0
M  RAD  1  11   2
M  END
>  <reaction>  (11) 
rxn_1621

>  <mol_properties>  (11) 
{"1": {"label": "*3", "atom_type": "Cd"}, "2": {"label": "*4", "atom_type": "Cd"}, "9": {"label": "*0", "atom_type": "Cd"}, "10": {"label": "*1", "atom_type": "Cd"}, "14": {"label": "*2", "atom_type": "H0"}}

>  <type>  (11) 
unop_7

>  <geom_source>  (11) 
Heuristics

$$$$

     RDKit          3D

 18 16  0  0  0  0  0  0  0  0999 V2000
   -1.4100   -1.0581    1.3431 C   0  0  0  0  0  0  0  0  0  0  0  0
   -0.3720   -1.0358    0.5136 C   0  0  0  0  0  0  0  0  0  0  0  0
    0.9331   -1.6030    0.8254 C   0  0  0  0  0  0  0  0  0  0  0  0
    1.9711   -1.5806   -0.0041 C   0  0  0  0  0  0  0  0  0  0  0  0
   -2.3631   -0.6242    1.0708 H   0  0  0  0  0  0  0  0  0  0  0  0
   -1.3372   -1.5135    2.3246 H   0  0  0  0  0  0  0  0  0  0  0  0
    1.0371   -2.0668    1.8026 H   0  0  0  0  0  0  0  0  0  0  0  0
    2.9242   -2.0145    0.2682 H   0  0  0  0  0  0  0  0  0  0  0  0
    1.8983   -1.1252   -0.9857 H   0  0  0  0  0  0  0  0  0  0  0  0
   -0.3720    1.2502   -2.0664 C   0  0  0  0  0  0  0  0  0  0  0  0
   -0.3720    1.2502   -0.7426 C   0  0  0  0  0  3  0  0  0  0  0  0
   -0.3720    2.4724    0.1179 C   0  0  0  0  0  0  0  0  0  0  0  0
   -0.3720    0.3275   -2.6329 H   0  0  0  0  0  0  0  0  0  0  0  0
   -0.3720    2.1758   -2.6324 H   0  0  0  0  0  0  0  0  0  0  0  0
   -0.3720    0.1071   -0.1144 H   0  0  0  0  0  0  0  0  0  0  0  0
   -1.2497    2.4895    0.7691 H   0  0  0  0  0  0  0  0  0  0  0  0
   -0.3720    3.3828   -0.4827 H   0  0  0  0  0  0  0  0  0  0  0  0
    0.5057    2.4895    0.7691 H   0  0  0  0  0  0  0  0  0  0  0  0
  1  2  2  3
  1  5  1  0
  1  6  1  0
  2  3  1  0
  2 15  1  0
  3  4  2  3
  3  7  1  0
  4  8  1  0
  4  9  1  0
 10 11  2  3
 10 13  1  0
 10 14  1  0
 11 12  1  0
 12 16  1  0
 12 17  1  0
 12 18  1  0
M  RAD  1  11   2
M  END
>  <reaction>  (12) 
rxn_1621

>  <mol_properties>  (12) 
{"1": {"label": "*3", "atom_type": "Cd"}, "2": {"label": "*4", "atom_type": "Cd"}, "9": {"label": "*0", "atom_type": "Cd"}, "10": {"label": "*1", "atom_type": "Cd"}, "14": {"label": "*2", "atom_type": "H0"}}

>  <type>  (12) 
unop_8

>  <geom_source>  (12) 
Heuristics

$$$$

     RDKit          3D

 18 16  0  0  0  0  0  0  0  0999 V2000
    0.4620   -0.8570    2.0992 C   0  0  0  0  0  0  0  0  0  0  0  0
    0.1883   -0.8769    0.7990 C   0  0  0  0  0  0  0  0  0  0  0  0
   -0.4643   -1.9885    0.1201 C   0  0  0  0  0  0  0  0  0  0  0  0
   -0.7380   -2.0085   -1.1801 C   0  0  0  0  0  0  0  0  0  0  0  0
    0.9488   -0.0093    2.5634 H   0  0  0  0  0  0  0  0  0  0  0  0
    0.2061   -1.6923    2.7417 H   0  0  0  0  0  0  0  0  0  0  0  0
   -0.7331   -2.8409    0.7382 H   0  0  0  0  0  0  0  0  0  0  0  0
   -1.2247   -2.8561   -1.6443 H   0  0  0  0  0  0  0  0  0  0  0  0
   -0.4821   -1.1732   -1.8227 H   0  0  0  0  0  0  0  0  0  0  0  0
    0.1883    1.4090   -1.7811 C   0  0  0  0  0  0  0  0  0  0  0  0
    0.1883    1.4090   -0.4573 C   0  0  0  0  0  3  0  0  0  0  0  0
    0.1883    2.6312    0.4032 C   0  0  0  0  0  0  0  0  0  0  0  0
    0.1883    0.4863   -2.3475 H   0  0  0  0  0  0  0  0  0  0  0  0
    0.1883    2.3346   -2.3471 H   0  0  0  0  0  0  0  0  0  0  0  0
    0.1883    0.2659    0.1709 H   0  0  0  0  0  0  0  0  0  0  0  0
   -0.6894    2.6483    1.0544 H   0  0  0  0  0  0  0  0  0  0  0  0
    0.1883    3.5417   -0.1974 H   0  0  0  0  0  0  0  0  0  0  0  0
    1.0660    2.6483    1.0544 H   0  0  0  0  0  0  0  0  0  0  0  0
  1  2  2  3
  1  5  1  0
  1  6  1  0
  2  3  1  0
  2 15  1  0
  3  4  2  3
  3  7  1  0
  4  8  1  0
  4  9  1  0
 10 11  2  3
 10 13  1  0
 10 14  1  0
 11 12  1  0
 12 16  1  0
 12 17  1  0
 12 18  1  0
M  RAD  1  11   2
M  END
>  <reaction>  (13) 
rxn_1621

>  <mol_properties>  (13) 
{"1": {"label": "*3", "atom_type": "Cd"}, "2": {"label": "*4", "atom_type": "Cd"}, "9": {"label": "*0", "atom_type": "Cd"}, "10": {"label": "*1", "atom_type": "Cd"}, "14": {"label": "*2", "atom_type": "H0"}}

>  <type>  (13) 
unop_9

>  <geom_source>  (13) 
Heuristics

$$$$

     RDKit          3D

 18 16  0  0  0  0  0  0  0  0999 V2000
   -0.9701   -0.8857    1.8379 C   0  0  0  0  0  0  0  0  0  0  0  0
   -0.3246   -0.9446    0.6778 C   0  0  0  0  0  0  0  0  0  0  0  0
    0.8057   -1.8261    0.4176 C   0  0  0  0  0  0  0  0  0  0  0  0
    1.4513   -1.8851   -0.7424 C   0  0  0  0  0  0  0  0  0  0  0  0
   -1.8061   -0.2152    1.9884 H   0  0  0  0  0  0  0  0  0  0  0  0
   -0.6803   -1.5095    2.6763 H   0  0  0  0  0  0  0  0  0  0  0  0
    1.1197   -2.4640    1.2395 H   0  0  0  0  0  0  0  0  0  0  0  0
    2.2872   -2.5555   -0.8929 H   0  0  0  0  0  0  0  0  0  0  0  0
    1.1615   -1.2612   -1.5808 H   0  0  0  0  0  0  0  0  0  0  0  0
   -0.3246    1.3414   -1.9022 C   0  0  0  0  0  0  0  0  0  0  0  0
   -0.3246    1.3414   -0.5784 C   0  0  0  0  0  3  0  0  0  0  0  0
   -0.3246    2.5636    0.2821 C   0  0  0  0  0  0  0  0  0  0  0  0
   -0.3246    0.4186   -2.4687 H   0  0  0  0  0  0  0  0  0  0  0  0
   -0.3246    2.2670   -2.4682 H   0  0  0  0  0  0  0  0  0  0  0  0
   -0.3246    0.1982    0.0498 H   0  0  0  0  0  0  0  0  0  0  0  0
   -1.2023    2.5807    0.9333 H   0  0  0  0  0  0  0  0  0  0  0  0
   -0.3246    3.4740   -0.3185 H   0  0  0  0  0  0  0  0  0  0  0  0
    0.5532    2.5807    0.9333 H   0  0  0  0  0  0  0  0  0  0  0  0
  1  2  2  3
  1  5  1  0
  1  6  1  0
  2  3  1  0
  2 15  1  0
  3  4  2  3
  3  7  1  0
  4  8  1  0
  4  9  1  0
 10 11  2  3
 10 13  1  0
 10 14  1  0
 11 12  1  0
 12 16  1  0
 12 17  1  0
 12 18  1  0
M  RAD  1  11   2
M  END
>  <reaction>  (14) 
rxn_1621

>  <mol_properties>  (14) 
{"1": {"label": "*3", "atom_type": "Cd"}, "2": {"label": "*4", "atom_type": "Cd"}, "9": {"label": "*0", "atom_type": "Cd"}, "10": {"label": "*1", "atom_type": "Cd"}, "14": {"label": "*2", "atom_type": "H0"}}

>  <type>  (14) 
unop_10

>  <geom_source>  (14) 
Heuristics

$$$$

     RDKit          3D

 18 16  0  0  0  0  0  0  0  0999 V2000
    1.2335   -1.9348   -0.0830 C   0  0  0  0  0  0  0  0  0  0  0  0
    0.1810   -1.1882    0.2346 C   0  0  0  0  0  0  0  0  0  0  0  0
   -0.4716   -1.2111    1.5369 C   0  0  0  0  0  0  0  0  0  0  0  0
   -1.5240   -0.4645    1.8546 C   0  0  0  0  0  0  0  0  0  0  0  0
    1.6879   -1.8863   -1.0639 H   0  0  0  0  0  0  0  0  0  0  0  0
    1.6744   -2.6204    0.6322 H   0  0  0  0  0  0  0  0  0  0  0  0
   -0.0520   -1.8889    2.2754 H   0  0  0  0  0  0  0  0  0  0  0  0
   -1.9785   -0.5129    2.8355 H   0  0  0  0  0  0  0  0  0  0  0  0
   -1.9650    0.2211    1.1394 H   0  0  0  0  0  0  0  0  0  0  0  0
    0.1810    1.0978   -2.3454 C   0  0  0  0  0  0  0  0  0  0  0  0
    0.1810    1.0978   -1.0216 C   0  0  0  0  0  3  0  0  0  0  0  0
    0.1810    2.3199   -0.1611 C   0  0  0  0  0  0  0  0  0  0  0  0
    0.1810    0.1750   -2.9118 H   0  0  0  0  0  0  0  0  0  0  0  0
    0.1810    2.0234   -2.9114 H   0  0  0  0  0  0  0  0  0  0  0  0
    0.1810   -0.0454   -0.3934 H   0  0  0  0  0  0  0  0  0  0  0  0
   -0.6967    2.3371    0.4901 H   0  0  0  0  0  0  0  0  0  0  0  0
    0.1810    3.2304   -0.7617 H   0  0  0  0  0  0  0  0  0  0  0  0
    1.0587    2.3371    0.4901 H   0  0  0  0  0  0  0  0  0  0  0  0
  1  2  2  3
  1  5  1  0
  1  6  1  0
  2  3  1  0
  2 15  1  0
  3  4  2  3
  3  7  1  0
  4  8  1  0
  4  9  1  0
 10 11  2  3
 10 13  1  0
 10 14  1  0
 11 12  1  0
 12 16  1  0
 12 17  1  0
 12 18  1  0
M  RAD  1  11   2
M  END
>  <reaction>  (15) 
rxn_1621

>  <mol_properties>  (15) 
{"1": {"label": "*3", "atom_type": "Cd"}, "2": {"label": "*4", "atom_type": "Cd"}, "9": {"label": "*0", "atom_type": "Cd"}, "10": {"label": "*1", "atom_type": "Cd"}, "14": {"label": "*2", "atom_type": "H0"}}

>  <type>  (15) 
unop_11

>  <geom_source>  (15) 
Heuristics

$$$$

     RDKit          3D

 18 16  0  0  0  0  0  0  0  0999 V2000
   -0.0000   -0.8705    2.1723 C   0  0  0  0  0  0  0  0  0  0  0  0
   -0.0000   -0.8519    0.8435 C   0  0  0  0  0  0  0  0  0  0  0  0
   -0.0000   -2.0478    0.0114 C   0  0  0  0  0  0  0  0  0  0  0  0
   -0.0000   -2.0292   -1.3173 C   0  0  0  0  0  0  0  0  0  0  0  0
    0.0000    0.0430    2.7523 H   0  0  0  0  0  0  0  0  0  0  0  0
   -0.0000   -1.8049    2.7227 H   0  0  0  0  0  0  0  0  0  0  0  0
   -0.0000   -3.0001    0.5348 H   0  0  0  0  0  0  0  0  0  0  0  0
   -0.0000   -2.9427   -1.8973 H   0  0  0  0  0  0  0  0  0  0  0  0
   -0.0000   -1.0948   -1.8678 H   0  0  0  0  0  0  0  0  0  0  0  0
    0.0000    1.4340   -1.7365 C   0  0  0  0  0  0  0  0  0  0  0  0
    0.0000    1.4340   -0.4127 C   0  0  0  0  0  3  0  0  0  0  0  0
    0.0000    2.6562    0.4478 C   0  0  0  0  0  0  0  0  0  0  0  0
    0.0000    0.5113   -2.3030 H   0  0  0  0  0  0  0  0  0  0  0  0
    0.0000    2.3596   -2.3025 H   0  0  0  0  0  0  0  0  0  0  0  0
    0.0000    0.2909    0.2155 H   0  0  0  0  0  0  0  0  0  0  0  0
   -0.8777    2.6733    1.0990 H   0  0  0  0  0  0  0  0  0  0  0  0
    0.0000    3.5667   -0.1528 H   0  0  0  0  0  0  0  0  0  0  0  0
    0.8777    2.6733    1.0990 H   0  0  0  0  0  0  0  0  0  0  0  0
  1  2  2  3
  1  5  1  0
  1  6  1  0
  2  3  1  0
  2 15  1  0
  3  4  2  3
  3  7  1  0
  4  8  1  0
  4  9  1  0
 10 11  2  3
 10 13  1  0
 10 14  1  0
 11 12  1  0
 12 16  1  0
 12 17  1  0
 12 18  1  0
M  RAD  1  11   2
M  END
>  <reaction>  (16) 
rxn_1621

>  <mol_properties>  (16) 
{"1": {"label": "*3", "atom_type": "Cd"}, "2": {"label": "*4", "atom_type": "Cd"}, "9": {"label": "*0", "atom_type": "Cd"}, "10": {"label": "*1", "atom_type": "Cd"}, "14": {"label": "*2", "atom_type": "H0"}}

>  <type>  (16) 
unop_12

>  <geom_source>  (16) 
Heuristics

$$$$

     RDKit          3D

 18 16  0  0  0  0  0  0  0  0999 V2000
   -2.2749   -0.7366    0.4400 C   0  0  0  0  0  0  0  0  0  0  0  0
    1.6402    0.2027   -0.9993 C   0  0  0  0  0  0  0  0  0  0  0  0
    0.9063   -0.3624    0.1542 C   0  0  0  0  0  0  0  0  0  0  0  0
    2.9666    0.1904   -1.1425 C   0  0  0  0  0  0  0  0  0  0  0  0
    1.4721   -0.9591    1.2039 C   0  0  0  0  0  0  0  0  0  0  0  0
   -2.1282    1.6676   -0.1125 C   0  0  0  0  0  0  0  0  0  0  0  0
   -1.5109    0.5201    0.1707 C   0  0  0  0  0  3  0  0  0  0  0  0
   -1.5609   -1.5591    0.6507 H   0  0  0  0  0  0  0  0  0  0  0  0
   -2.8870   -1.0069   -0.4463 H   0  0  0  0  0  0  0  0  0  0  0  0
   -2.9370   -0.5978    1.3207 H   0  0  0  0  0  0  0  0  0  0  0  0
    1.0483    0.6592   -1.7824 H   0  0  0  0  0  0  0  0  0  0  0  0
   -0.4058   -0.2656    0.1368 H   0  0  0  0  0  0  0  0  0  0  0  0
    3.4115    0.6308   -2.0255 H   0  0  0  0  0  0  0  0  0  0  0  0
    3.6297   -0.2441   -0.4096 H   0  0  0  0  0  0  0  0  0  0  0  0
    0.8436   -1.3397    1.9977 H   0  0  0  0  0  0  0  0  0  0  0  0
    2.5402   -1.0826    1.3020 H   0  0  0  0  0  0  0  0  0  0  0  0
   -1.5417    2.5596   -0.3024 H   0  0  0  0  0  0  0  0  0  0  0  0
   -3.2119    1.7237   -0.1562 H   0  0  0  0  0  0  0  0  0  0  0  0
  1  7  1  0
  1  8  1  0
  1  9  1  0
  1 10  1  0
  2  4  2  3
  2  3  1  0
  2 11  1  0
  3  5  2  3
  3 12  1  0
  4 13  1  0
  4 14  1  0
  5 15  1  0
  5 16  1  0
  6  7  2  3
  6 17  1  0
  6 18  1  0
M  RAD  1   7   2
M  END
>  <reaction>  (17) 
rxn_1621

>  <mol_properties>  (17) 
{"1": {"label": "*3", "atom_type": "Cd"}, "2": {"label": "*4", "atom_type": "Cd"}, "9": {"label": "*0", "atom_type": "Cd"}, "10": {"label": "*1", "atom_type": "Cd"}, "14": {"label": "*2", "atom_type": "H0"}}

>  <type>  (17) 
unop_13

>  <geom_source>  (17) 
AutoTST

$$$$
