
     RDKit          3D

 12 11  0  0  0  0  0  0  0  0999 V2000
    1.9877    0.1011    0.4814 C   0  0  0  0  0  0  0  0  0  0  0  0
    0.8179    0.5502    0.0525 C   0  0  0  0  0  0  0  0  0  0  0  0
   -0.2939   -0.2692   -0.5320 C   0  0  0  0  0  0  0  0  0  0  0  0
   -0.0292   -1.7631   -0.6328 C   0  0  0  0  0  0  0  0  0  0  0  0
    2.2522   -0.9490    0.4436 H   0  0  0  0  0  0  0  0  0  0  0  0
    2.7295    0.7757    0.8896 H   0  0  0  0  0  0  0  0  0  0  0  0
    0.6162    1.6164    0.1190 H   0  0  0  0  0  0  0  0  0  0  0  0
   -0.5268    0.1319   -1.5245 H   0  0  0  0  0  0  0  0  0  0  0  0
   -1.1959   -0.0938    0.0644 H   0  0  0  0  0  0  0  0  0  0  0  0
    0.1590   -2.1992    0.3502 H   0  0  0  0  0  0  0  0  0  0  0  0
    0.8382   -1.9701   -1.2626 H   0  0  0  0  0  0  0  0  0  0  0  0
   -0.8879   -2.2759   -1.0672 H   0  0  0  0  0  0  0  0  0  0  0  0
  1  2  2  3
  1  5  1  0
  1  6  1  0
  2  3  1  0
  2  7  1  0
  3  4  1  0
  3  8  1  0
  3  9  1  0
  4 10  1  0
  4 11  1  0
  4 12  1  0
M  END
>  <reaction>  (1) 
rxn_1055

>  <mol_properties>  (1) 
{"2": {"label": "donator", "atom_type": "Cs"}, "7": {"label": "d_hydrogen", "atom_type": "H0"}}

>  <type>  (1) 
r1h

$$$$

     RDKit          3D

  8  7  0  0  0  0  0  0  0  0999 V2000
    1.4038   -0.4003    0.0140 C   0  0  0  0  0  0  0  0  0  0  0  0
    0.2804    0.0563    0.4920 C   0  0  0  0  0  3  0  0  0  0  0  0
   -1.0935    0.3323    0.0625 C   0  0  0  0  0  0  0  0  0  0  0  0
    1.4898   -0.7154   -1.0285 H   0  0  0  0  0  0  0  0  0  0  0  0
    2.2990   -0.4891    0.6210 H   0  0  0  0  0  0  0  0  0  0  0  0
   -1.3399    1.3883    0.1900 H   0  0  0  0  0  0  0  0  0  0  0  0
   -1.2285    0.0762   -0.9967 H   0  0  0  0  0  0  0  0  0  0  0  0
   -1.8111   -0.2482    0.6457 H   0  0  0  0  0  0  0  0  0  0  0  0
  1  2  2  3
  1  4  1  0
  1  5  1  0
  2  3  1  0
  3  6  1  0
  3  7  1  0
  3  8  1  0
M  RAD  1   2   2
M  END
>  <reaction>  (2) 
rxn_1055

>  <mol_properties>  (2) 
{"1": {"label": "acceptor", "atom_type": "Cd"}}

>  <type>  (2) 
r2

$$$$

     RDKit          3D

  9  8  0  0  0  0  0  0  0  0999 V2000
    1.1303   -0.2933   -0.7510 C   0  0  0  0  0  0  0  0  0  0  0  0
    0.2866    0.4560   -0.0588 C   0  0  0  0  0  0  0  0  0  0  0  0
   -0.9719   -0.0331    0.5823 C   0  0  0  0  0  0  0  0  0  0  0  0
    2.0274    0.1230   -1.1916 H   0  0  0  0  0  0  0  0  0  0  0  0
    0.9532   -1.3530   -0.9023 H   0  0  0  0  0  0  0  0  0  0  0  0
    0.5065    1.5132    0.0659 H   0  0  0  0  0  0  0  0  0  0  0  0
   -0.9526    0.1426    1.6610 H   0  0  0  0  0  0  0  0  0  0  0  0
   -1.1182   -1.1002    0.4106 H   0  0  0  0  0  0  0  0  0  0  0  0
   -1.8412    0.5010    0.1901 H   0  0  0  0  0  0  0  0  0  0  0  0
  1  2  2  3
  1  4  1  0
  1  5  1  0
  2  3  1  0
  2  6  1  0
  3  7  1  0
  3  8  1  0
  3  9  1  0
M  END
>  <reaction>  (3) 
rxn_1055

>  <mol_properties>  (3) 
{"1": {"label": "acceptor", "atom_type": "Cd"}, "8": {"label": "a_hydrogen", "atom_type": "H0"}}

>  <type>  (3) 
r2h

$$$$

     RDKit          3D

 20 18  0  0  0  0  0  0  0  0999 V2000
    1.8652   -0.8426    0.7835 C   0  0  0  0  0  0  0  0  0  0  0  0
    1.0704    0.0732    1.2831 C   0  0  0  0  0  3  0  0  0  0  0  0
    1.1996    1.0263    2.4053 C   0  0  0  0  0  0  0  0  0  0  0  0
    2.8521   -1.0355    1.2035 H   0  0  0  0  0  0  0  0  0  0  0  0
    1.5669   -1.4418   -0.0712 H   0  0  0  0  0  0  0  0  0  0  0  0
    0.4080    0.8721    3.1421 H   0  0  0  0  0  0  0  0  0  0  0  0
    2.1650    0.9136    2.9099 H   0  0  0  0  0  0  0  0  0  0  0  0
    1.1170    2.0566    2.0515 H   0  0  0  0  0  0  0  0  0  0  0  0
   -0.9017   -1.1964   -2.2491 C   0  0  0  0  0  0  0  0  0  0  0  0
   -1.2248   -1.0162   -0.9700 C   0  0  0  0  0  0  0  0  0  0  0  0
   -1.1741    0.2553   -0.2287 C   0  0  0  0  0  0  0  0  0  0  0  0
   -0.9465    1.5251   -1.0156 C   0  0  0  0  0  0  0  0  0  0  0  0
   -0.5947   -0.3759   -2.8866 H   0  0  0  0  0  0  0  0  0  0  0  0
   -0.9443   -2.1782   -2.7028 H   0  0  0  0  0  0  0  0  0  0  0  0
   -1.5278   -1.8822   -0.3876 H   0  0  0  0  0  0  0  0  0  0  0  0
   -0.1940    0.1569    0.5344 H   0  0  0  0  0  0  0  0  0  0  0  0
   -1.9998    0.3395    0.4804 H   0  0  0  0  0  0  0  0  0  0  0  0
   -1.7425    1.6905   -1.7466 H   0  0  0  0  0  0  0  0  0  0  0  0
    0.0018    1.4881   -1.5555 H   0  0  0  0  0  0  0  0  0  0  0  0
   -0.9150    2.3893   -0.3508 H   0  0  0  0  0  0  0  0  0  0  0  0
  1  2  2  3
  1  4  1  0
  1  5  1  0
  2  3  1  0
  3  6  1  0
  3  7  1  0
  3  8  1  0
  9 10  2  3
  9 13  1  0
  9 14  1  0
 10 11  1  0
 10 15  1  0
 11 12  1  0
 11 16  1  0
 11 17  1  0
 12 18  1  0
 12 19  1  0
 12 20  1  0
M  RAD  1   2   2
M  END
>  <reaction>  (4) 
rxn_1055

>  <mol_properties>  (4) 
{"0": {"label": "*4", "atom_type": "Cd"}, "1": {"label": "*3", "atom_type": "Cd"}, "9": {"label": "*0", "atom_type": "Cd"}, "10": {"label": "*1", "atom_type": "Cs"}, "15": {"label": "*2", "atom_type": "H0"}}

>  <type>  (4) 
ts

$$$$

     RDKit          3D

 20 18  0  0  0  0  0  0  0  0999 V2000
    2.0568    0.9492    1.2255 C   0  0  0  0  0  0  0  0  0  0  0  0
    1.1484   -0.0129    1.2645 C   0  0  0  0  0  0  0  0  0  0  0  0
    0.6008   -0.6293    2.5113 C   0  0  0  0  0  0  0  0  0  0  0  0
    2.4776    1.3674    2.1338 H   0  0  0  0  0  0  0  0  0  0  0  0
    2.4131    1.3541    0.2866 H   0  0  0  0  0  0  0  0  0  0  0  0
    0.7922   -1.7053    2.5297 H   0  0  0  0  0  0  0  0  0  0  0  0
    1.0448   -0.1860    3.4034 H   0  0  0  0  0  0  0  0  0  0  0  0
   -0.4832   -0.4996    2.5655 H   0  0  0  0  0  0  0  0  0  0  0  0
   -0.9300   -1.0549   -2.5386 C   0  0  0  0  0  0  0  0  0  0  0  0
   -0.9300   -1.0549   -1.2143 C   0  0  0  0  0  0  0  0  0  0  0  0
   -0.9300    0.1496   -0.3208 C   0  0  0  0  0  3  0  0  0  0  0  0
   -0.9300    1.4953   -1.0285 C   0  0  0  0  0  0  0  0  0  0  0  0
   -0.9300   -0.1380   -3.1160 H   0  0  0  0  0  0  0  0  0  0  0  0
   -0.9300   -1.9822   -3.0973 H   0  0  0  0  0  0  0  0  0  0  0  0
   -0.9300   -2.0106   -0.6961 H   0  0  0  0  0  0  0  0  0  0  0  0
    0.1132    0.0680    0.4749 H   0  0  0  0  0  0  0  0  0  0  0  0
   -1.7994    0.0816    0.3423 H   0  0  0  0  0  0  0  0  0  0  0  0
   -1.8125    1.6104   -1.6609 H   0  0  0  0  0  0  0  0  0  0  0  0
   -0.0476    1.6104   -1.6609 H   0  0  0  0  0  0  0  0  0  0  0  0
   -0.9300    2.3097   -0.3032 H   0  0  0  0  0  0  0  0  0  0  0  0
  1  2  2  3
  1  4  1  0
  1  5  1  0
  2  3  1  0
  2 16  1  0
  3  6  1  0
  3  7  1  0
  3  8  1  0
  9 10  2  3
  9 13  1  0
  9 14  1  0
 10 11  1  0
 10 15  1  0
 11 12  1  0
 11 17  1  0
 12 18  1  0
 12 19  1  0
 12 20  1  0
M  RAD  1  11   2
M  END
>  <reaction>  (5) 
rxn_1055

>  <mol_properties>  (5) 
{"0": {"label": "*4", "atom_type": "Cd"}, "1": {"label": "*3", "atom_type": "Cd"}, "9": {"label": "*0", "atom_type": "Cd"}, "10": {"label": "*1", "atom_type": "Cs"}, "15": {"label": "*2", "atom_type": "H0"}}

>  <type>  (5) 
unop_1

>  <geom_source>  (5) 
Heuristics

$$$$

     RDKit          3D

 20 18  0  0  0  0  0  0  0  0999 V2000
    2.1257   -0.6450    0.9052 C   0  0  0  0  0  0  0  0  0  0  0  0
    1.0398   -0.0246    1.3392 C   0  0  0  0  0  0  0  0  0  0  0  0
    0.9925    0.9180    2.4982 C   0  0  0  0  0  0  0  0  0  0  0  0
    3.0888   -0.5018    1.3838 H   0  0  0  0  0  0  0  0  0  0  0  0
    2.0931   -1.3177    0.0575 H   0  0  0  0  0  0  0  0  0  0  0  0
    0.2994    0.5591    3.2634 H   0  0  0  0  0  0  0  0  0  0  0  0
    1.9758    1.0384    2.9546 H   0  0  0  0  0  0  0  0  0  0  0  0
    0.6357    1.9024    2.1846 H   0  0  0  0  0  0  0  0  0  0  0  0
   -1.0386   -1.0666   -2.4639 C   0  0  0  0  0  0  0  0  0  0  0  0
   -1.0386   -1.0666   -1.1396 C   0  0  0  0  0  0  0  0  0  0  0  0
   -1.0386    0.1379   -0.2461 C   0  0  0  0  0  3  0  0  0  0  0  0
   -1.0386    1.4836   -0.9538 C   0  0  0  0  0  0  0  0  0  0  0  0
   -1.0386   -0.1497   -3.0414 H   0  0  0  0  0  0  0  0  0  0  0  0
   -1.0386   -1.9940   -3.0226 H   0  0  0  0  0  0  0  0  0  0  0  0
   -1.0386   -2.0223   -0.6214 H   0  0  0  0  0  0  0  0  0  0  0  0
    0.0047    0.0563    0.5496 H   0  0  0  0  0  0  0  0  0  0  0  0
   -1.9080    0.0699    0.4170 H   0  0  0  0  0  0  0  0  0  0  0  0
   -1.9211    1.5986   -1.5862 H   0  0  0  0  0  0  0  0  0  0  0  0
   -0.1562    1.5986   -1.5862 H   0  0  0  0  0  0  0  0  0  0  0  0
   -1.0386    2.2980   -0.2285 H   0  0  0  0  0  0  0  0  0  0  0  0
  1  2  2  3
  1  4  1  0
  1  5  1  0
  2  3  1  0
  2 16  1  0
  3  6  1  0
  3  7  1  0
  3  8  1  0
  9 10  2  3
  9 13  1  0
  9 14  1  0
 10 11  1  0
 10 15  1  0
 11 12  1  0
 11 17  1  0
 12 18  1  0
 12 19  1  0
 12 20  1  0
M  RAD  1  11   2
M  END
>  <reaction>  (6) 
rxn_1055

>  <mol_properties>  (6) 
{"0": {"label": "*4", "atom_type": "Cd"}, "1": {"label": "*3", "atom_type": "Cd"}, "9": {"label": "*0", "atom_type": "Cd"}, "10": {"label": "*1", "atom_type": "Cs"}, "15": {"label": "*2", "atom_type": "H0"}}

>  <type>  (6) 
unop_2

>  <geom_source>  (6) 
Heuristics

$$$$

     RDKit          3D

 20 18  0  0  0  0  0  0  0  0999 V2000
    1.6945    1.1870    1.6953 C   0  0  0  0  0  0  0  0  0  0  0  0
    1.1300    0.0687    1.2675 C   0  0  0  0  0  0  0  0  0  0  0  0
    1.0183   -1.1956    2.0571 C   0  0  0  0  0  0  0  0  0  0  0  0
    2.1292    1.2582    2.6868 H   0  0  0  0  0  0  0  0  0  0  0  0
    1.7434    2.0712    1.0724 H   0  0  0  0  0  0  0  0  0  0  0  0
    1.5167   -2.0210    1.5421 H   0  0  0  0  0  0  0  0  0  0  0  0
    1.4646   -1.0885    3.0465 H   0  0  0  0  0  0  0  0  0  0  0  0
   -0.0282   -1.4856    2.1810 H   0  0  0  0  0  0  0  0  0  0  0  0
   -0.9484   -0.9733   -2.5356 C   0  0  0  0  0  0  0  0  0  0  0  0
   -0.9484   -0.9733   -1.2112 C   0  0  0  0  0  0  0  0  0  0  0  0
   -0.9484    0.2312   -0.3178 C   0  0  0  0  0  3  0  0  0  0  0  0
   -0.9484    1.5769   -1.0255 C   0  0  0  0  0  0  0  0  0  0  0  0
   -0.9484   -0.0564   -3.1130 H   0  0  0  0  0  0  0  0  0  0  0  0
   -0.9484   -1.9007   -3.0943 H   0  0  0  0  0  0  0  0  0  0  0  0
   -0.9484   -1.9291   -0.6931 H   0  0  0  0  0  0  0  0  0  0  0  0
    0.0949    0.1496    0.4780 H   0  0  0  0  0  0  0  0  0  0  0  0
   -1.8178    0.1632    0.3453 H   0  0  0  0  0  0  0  0  0  0  0  0
   -1.8308    1.6919   -1.6579 H   0  0  0  0  0  0  0  0  0  0  0  0
   -0.0659    1.6919   -1.6579 H   0  0  0  0  0  0  0  0  0  0  0  0
   -0.9484    2.3913   -0.3002 H   0  0  0  0  0  0  0  0  0  0  0  0
  1  2  2  3
  1  4  1  0
  1  5  1  0
  2  3  1  0
  2 16  1  0
  3  6  1  0
  3  7  1  0
  3  8  1  0
  9 10  2  3
  9 13  1  0
  9 14  1  0
 10 11  1  0
 10 15  1  0
 11 12  1  0
 11 17  1  0
 12 18  1  0
 12 19  1  0
 12 20  1  0
M  RAD  1  11   2
M  END
>  <reaction>  (7) 
rxn_1055

>  <mol_properties>  (7) 
{"0": {"label": "*4", "atom_type": "Cd"}, "1": {"label": "*3", "atom_type": "Cd"}, "9": {"label": "*0", "atom_type": "Cd"}, "10": {"label": "*1", "atom_type": "Cs"}, "15": {"label": "*2", "atom_type": "H0"}}

>  <type>  (7) 
unop_3

>  <geom_source>  (7) 
Heuristics

$$$$

     RDKit          3D

 20 18  0  0  0  0  0  0  0  0999 V2000
    1.2041   -1.0720    2.0998 C   0  0  0  0  0  0  0  0  0  0  0  0
    1.1006   -0.0308    1.2890 C   0  0  0  0  0  0  0  0  0  0  0  0
    1.6029    1.3451    1.5869 C   0  0  0  0  0  0  0  0  0  0  0  0
    1.6797   -0.9878    3.0713 H   0  0  0  0  0  0  0  0  0  0  0  0
    0.8184   -2.0454    1.8239 H   0  0  0  0  0  0  0  0  0  0  0  0
    0.7864    2.0714    1.5605 H   0  0  0  0  0  0  0  0  0  0  0  0
    2.0741    1.3935    2.5693 H   0  0  0  0  0  0  0  0  0  0  0  0
    2.3335    1.6629    0.8385 H   0  0  0  0  0  0  0  0  0  0  0  0
   -0.9778   -1.0728   -2.5141 C   0  0  0  0  0  0  0  0  0  0  0  0
   -0.9778   -1.0728   -1.1898 C   0  0  0  0  0  0  0  0  0  0  0  0
   -0.9778    0.1317   -0.2964 C   0  0  0  0  0  3  0  0  0  0  0  0
   -0.9778    1.4775   -1.0041 C   0  0  0  0  0  0  0  0  0  0  0  0
   -0.9778   -0.1559   -3.0916 H   0  0  0  0  0  0  0  0  0  0  0  0
   -0.9778   -2.0001   -3.0728 H   0  0  0  0  0  0  0  0  0  0  0  0
   -0.9778   -2.0285   -0.6716 H   0  0  0  0  0  0  0  0  0  0  0  0
    0.0655    0.0501    0.4994 H   0  0  0  0  0  0  0  0  0  0  0  0
   -1.8472    0.0637    0.3668 H   0  0  0  0  0  0  0  0  0  0  0  0
   -1.8603    1.5925   -1.6365 H   0  0  0  0  0  0  0  0  0  0  0  0
   -0.0954    1.5925   -1.6365 H   0  0  0  0  0  0  0  0  0  0  0  0
   -0.9778    2.2918   -0.2788 H   0  0  0  0  0  0  0  0  0  0  0  0
  1  2  2  3
  1  4  1  0
  1  5  1  0
  2  3  1  0
  2 16  1  0
  3  6  1  0
  3  7  1  0
  3  8  1  0
  9 10  2  3
  9 13  1  0
  9 14  1  0
 10 11  1  0
 10 15  1  0
 11 12  1  0
 11 17  1  0
 12 18  1  0
 12 19  1  0
 12 20  1  0
M  RAD  1  11   2
M  END
>  <reaction>  (8) 
rxn_1055

>  <mol_properties>  (8) 
{"0": {"label": "*4", "atom_type": "Cd"}, "1": {"label": "*3", "atom_type": "Cd"}, "9": {"label": "*0", "atom_type": "Cd"}, "10": {"label": "*1", "atom_type": "Cs"}, "15": {"label": "*2", "atom_type": "H0"}}

>  <type>  (8) 
unop_4

>  <geom_source>  (8) 
Heuristics

$$$$

     RDKit          3D

 20 18  0  0  0  0  0  0  0  0999 V2000
    1.2302    1.0465    2.2388 C   0  0  0  0  0  0  0  0  0  0  0  0
    1.0253    0.0822    1.3554 C   0  0  0  0  0  0  0  0  0  0  0  0
    1.8948   -1.1204    1.1770 C   0  0  0  0  0  0  0  0  0  0  0  0
    2.0773    1.0227    2.9164 H   0  0  0  0  0  0  0  0  0  0  0  0
    0.5609    1.8938    2.3180 H   0  0  0  0  0  0  0  0  0  0  0  0
    2.2911   -1.1663    0.1593 H   0  0  0  0  0  0  0  0  0  0  0  0
    2.7348   -1.1119    1.8727 H   0  0  0  0  0  0  0  0  0  0  0  0
    1.3250   -2.0395    1.3365 H   0  0  0  0  0  0  0  0  0  0  0  0
   -1.0531   -0.9598   -2.4477 C   0  0  0  0  0  0  0  0  0  0  0  0
   -1.0531   -0.9598   -1.1234 C   0  0  0  0  0  0  0  0  0  0  0  0
   -1.0531    0.2447   -0.2299 C   0  0  0  0  0  3  0  0  0  0  0  0
   -1.0531    1.5904   -0.9376 C   0  0  0  0  0  0  0  0  0  0  0  0
   -1.0531   -0.0429   -3.0252 H   0  0  0  0  0  0  0  0  0  0  0  0
   -1.0531   -1.8872   -3.0064 H   0  0  0  0  0  0  0  0  0  0  0  0
   -1.0531   -1.9155   -0.6052 H   0  0  0  0  0  0  0  0  0  0  0  0
   -0.0098    0.1631    0.5658 H   0  0  0  0  0  0  0  0  0  0  0  0
   -1.9225    0.1767    0.4332 H   0  0  0  0  0  0  0  0  0  0  0  0
   -1.9355    1.7055   -1.5701 H   0  0  0  0  0  0  0  0  0  0  0  0
   -0.1707    1.7055   -1.5701 H   0  0  0  0  0  0  0  0  0  0  0  0
   -1.0531    2.4048   -0.2123 H   0  0  0  0  0  0  0  0  0  0  0  0
  1  2  2  3
  1  4  1  0
  1  5  1  0
  2  3  1  0
  2 16  1  0
  3  6  1  0
  3  7  1  0
  3  8  1  0
  9 10  2  3
  9 13  1  0
  9 14  1  0
 10 11  1  0
 10 15  1  0
 11 12  1  0
 11 17  1  0
 12 18  1  0
 12 19  1  0
 12 20  1  0
M  RAD  1  11   2
M  END
>  <reaction>  (9) 
rxn_1055

>  <mol_properties>  (9) 
{"0": {"label": "*4", "atom_type": "Cd"}, "1": {"label": "*3", "atom_type": "Cd"}, "9": {"label": "*0", "atom_type": "Cd"}, "10": {"label": "*1", "atom_type": "Cs"}, "15": {"label": "*2", "atom_type": "H0"}}

>  <type>  (9) 
unop_5

>  <geom_source>  (9) 
Heuristics

$$$$

     RDKit          3D

 20 18  0  0  0  0  0  0  0  0999 V2000
    0.9620   -0.6947    2.4832 C   0  0  0  0  0  0  0  0  0  0  0  0
    1.0946   -0.0781    1.3194 C   0  0  0  0  0  0  0  0  0  0  0  0
    1.8556    1.1894    1.0988 C   0  0  0  0  0  0  0  0  0  0  0  0
    1.4164   -0.3020    3.3868 H   0  0  0  0  0  0  0  0  0  0  0  0
    0.3959   -1.6129    2.5766 H   0  0  0  0  0  0  0  0  0  0  0  0
    1.2037    1.9695    0.6972 H   0  0  0  0  0  0  0  0  0  0  0  0
    2.2981    1.5552    2.0261 H   0  0  0  0  0  0  0  0  0  0  0  0
    2.6567    1.0403    0.3703 H   0  0  0  0  0  0  0  0  0  0  0  0
   -0.9838   -1.1201   -2.4838 C   0  0  0  0  0  0  0  0  0  0  0  0
   -0.9838   -1.1201   -1.1594 C   0  0  0  0  0  0  0  0  0  0  0  0
   -0.9838    0.0844   -0.2660 C   0  0  0  0  0  3  0  0  0  0  0  0
   -0.9838    1.4302   -0.9737 C   0  0  0  0  0  0  0  0  0  0  0  0
   -0.9838   -0.2032   -3.0612 H   0  0  0  0  0  0  0  0  0  0  0  0
   -0.9838   -2.0474   -3.0424 H   0  0  0  0  0  0  0  0  0  0  0  0
   -0.9838   -2.0758   -0.6412 H   0  0  0  0  0  0  0  0  0  0  0  0
    0.0595    0.0029    0.5298 H   0  0  0  0  0  0  0  0  0  0  0  0
   -1.8532    0.0165    0.3972 H   0  0  0  0  0  0  0  0  0  0  0  0
   -1.8663    1.5452   -1.6061 H   0  0  0  0  0  0  0  0  0  0  0  0
   -0.1014    1.5452   -1.6061 H   0  0  0  0  0  0  0  0  0  0  0  0
   -0.9838    2.2445   -0.2484 H   0  0  0  0  0  0  0  0  0  0  0  0
  1  2  2  3
  1  4  1  0
  1  5  1  0
  2  3  1  0
  2 16  1  0
  3  6  1  0
  3  7  1  0
  3  8  1  0
  9 10  2  3
  9 13  1  0
  9 14  1  0
 10 11  1  0
 10 15  1  0
 11 12  1  0
 11 17  1  0
 12 18  1  0
 12 19  1  0
 12 20  1  0
M  RAD  1  11   2
M  END
>  <reaction>  (10) 
rxn_1055

>  <mol_properties>  (10) 
{"0": {"label": "*4", "atom_type": "Cd"}, "1": {"label": "*3", "atom_type": "Cd"}, "9": {"label": "*0", "atom_type": "Cd"}, "10": {"label": "*1", "atom_type": "Cs"}, "15": {"label": "*2", "atom_type": "H0"}}

>  <type>  (10) 
unop_6

>  <geom_source>  (10) 
Heuristics

$$$$

     RDKit          3D

 20 18  0  0  0  0  0  0  0  0999 V2000
    0.8613   -0.1312    2.6820 C   0  0  0  0  0  0  0  0  0  0  0  0
    1.0588   -0.0939    1.3736 C   0  0  0  0  0  0  0  0  0  0  0  0
    2.1007    0.7263    0.6838 C   0  0  0  0  0  0  0  0  0  0  0  0
    1.4686    0.4555    3.3631 H   0  0  0  0  0  0  0  0  0  0  0  0
    0.0871   -0.7481    3.1207 H   0  0  0  0  0  0  0  0  0  0  0  0
    1.6425    1.4215   -0.0244 H   0  0  0  0  0  0  0  0  0  0  0  0
    2.6916    1.3023    1.3971 H   0  0  0  0  0  0  0  0  0  0  0  0
    2.7789    0.0902    0.1091 H   0  0  0  0  0  0  0  0  0  0  0  0
   -1.0196   -1.1359   -2.4295 C   0  0  0  0  0  0  0  0  0  0  0  0
   -1.0196   -1.1359   -1.1051 C   0  0  0  0  0  0  0  0  0  0  0  0
   -1.0196    0.0686   -0.2117 C   0  0  0  0  0  3  0  0  0  0  0  0
   -1.0196    1.4144   -0.9194 C   0  0  0  0  0  0  0  0  0  0  0  0
   -1.0196   -0.2190   -3.0069 H   0  0  0  0  0  0  0  0  0  0  0  0
   -1.0196   -2.0632   -2.9882 H   0  0  0  0  0  0  0  0  0  0  0  0
   -1.0196   -2.0916   -0.5869 H   0  0  0  0  0  0  0  0  0  0  0  0
    0.0237   -0.0129    0.5841 H   0  0  0  0  0  0  0  0  0  0  0  0
   -1.8890    0.0007    0.4515 H   0  0  0  0  0  0  0  0  0  0  0  0
   -1.9020    1.5294   -1.5518 H   0  0  0  0  0  0  0  0  0  0  0  0
   -0.1372    1.5294   -1.5518 H   0  0  0  0  0  0  0  0  0  0  0  0
   -1.0196    2.2288   -0.1941 H   0  0  0  0  0  0  0  0  0  0  0  0
  1  2  2  3
  1  4  1  0
  1  5  1  0
  2  3  1  0
  2 16  1  0
  3  6  1  0
  3  7  1  0
  3  8  1  0
  9 10  2  3
  9 13  1  0
  9 14  1  0
 10 11  1  0
 10 15  1  0
 11 12  1  0
 11 17  1  0
 12 18  1  0
 12 19  1  0
 12 20  1  0
M  RAD  1  11   2
M  END
>  <reaction>  (11) 
rxn_1055

>  <mol_properties>  (11) 
{"0": {"label": "*4", "atom_type": "Cd"}, "1": {"label": "*3", "atom_type": "Cd"}, "9": {"label": "*0", "atom_type": "Cd"}, "10": {"label": "*1", "atom_type": "Cs"}, "15": {"label": "*2", "atom_type": "H0"}}

>  <type>  (11) 
unop_7

>  <geom_source>  (11) 
Heuristics

$$$$

     RDKit          3D

 20 18  0  0  0  0  0  0  0  0999 V2000
    2.2582    0.4768    0.9040 C   0  0  0  0  0  0  0  0  0  0  0  0
    1.1138   -0.0607    1.2960 C   0  0  0  0  0  0  0  0  0  0  0  0
    0.5570    0.0158    2.6810 C   0  0  0  0  0  0  0  0  0  0  0  0
    2.8893    1.0291    1.5923 H   0  0  0  0  0  0  0  0  0  0  0  0
    2.6067    0.3852   -0.1171 H   0  0  0  0  0  0  0  0  0  0  0  0
    0.4167   -0.9842    3.0996 H   0  0  0  0  0  0  0  0  0  0  0  0
    1.2156    0.5769    3.3451 H   0  0  0  0  0  0  0  0  0  0  0  0
   -0.4236    0.4988    2.6798 H   0  0  0  0  0  0  0  0  0  0  0  0
   -0.9646   -1.1027   -2.5071 C   0  0  0  0  0  0  0  0  0  0  0  0
   -0.9646   -1.1027   -1.1828 C   0  0  0  0  0  0  0  0  0  0  0  0
   -0.9646    0.1018   -0.2893 C   0  0  0  0  0  3  0  0  0  0  0  0
   -0.9646    1.4475   -0.9970 C   0  0  0  0  0  0  0  0  0  0  0  0
   -0.9646   -0.1858   -3.0846 H   0  0  0  0  0  0  0  0  0  0  0  0
   -0.9646   -2.0301   -3.0658 H   0  0  0  0  0  0  0  0  0  0  0  0
   -0.9646   -2.0585   -0.6646 H   0  0  0  0  0  0  0  0  0  0  0  0
    0.0786    0.0202    0.5064 H   0  0  0  0  0  0  0  0  0  0  0  0
   -1.8340    0.0338    0.3738 H   0  0  0  0  0  0  0  0  0  0  0  0
   -1.8471    1.5625   -1.6294 H   0  0  0  0  0  0  0  0  0  0  0  0
   -0.0822    1.5625   -1.6294 H   0  0  0  0  0  0  0  0  0  0  0  0
   -0.9646    2.2619   -0.2717 H   0  0  0  0  0  0  0  0  0  0  0  0
  1  2  2  3
  1  4  1  0
  1  5  1  0
  2  3  1  0
  2 16  1  0
  3  6  1  0
  3  7  1  0
  3  8  1  0
  9 10  2  3
  9 13  1  0
  9 14  1  0
 10 11  1  0
 10 15  1  0
 11 12  1  0
 11 17  1  0
 12 18  1  0
 12 19  1  0
 12 20  1  0
M  RAD  1  11   2
M  END
>  <reaction>  (12) 
rxn_1055

>  <mol_properties>  (12) 
{"0": {"label": "*4", "atom_type": "Cd"}, "1": {"label": "*3", "atom_type": "Cd"}, "9": {"label": "*0", "atom_type": "Cd"}, "10": {"label": "*1", "atom_type": "Cs"}, "15": {"label": "*2", "atom_type": "H0"}}

>  <type>  (12) 
unop_8

>  <geom_source>  (12) 
Heuristics

$$$$

     RDKit          3D

 20 18  0  0  0  0  0  0  0  0999 V2000
    1.5249   -1.1879    1.6372 C   0  0  0  0  0  0  0  0  0  0  0  0
    1.0776    0.0095    1.2932 C   0  0  0  0  0  0  0  0  0  0  0  0
    1.3983    1.2848    2.0038 C   0  0  0  0  0  0  0  0  0  0  0  0
    2.1794   -1.3236    2.4918 H   0  0  0  0  0  0  0  0  0  0  0  0
    1.2547   -2.0755    1.0790 H   0  0  0  0  0  0  0  0  0  0  0  0
    0.4872    1.7682    2.3656 H   0  0  0  0  0  0  0  0  0  0  0  0
    2.0569    1.1116    2.8558 H   0  0  0  0  0  0  0  0  0  0  0  0
    1.8864    1.9934    1.3298 H   0  0  0  0  0  0  0  0  0  0  0  0
   -1.0009   -1.0325   -2.5099 C   0  0  0  0  0  0  0  0  0  0  0  0
   -1.0009   -1.0325   -1.1856 C   0  0  0  0  0  0  0  0  0  0  0  0
   -1.0009    0.1720   -0.2921 C   0  0  0  0  0  3  0  0  0  0  0  0
   -1.0009    1.5177   -0.9998 C   0  0  0  0  0  0  0  0  0  0  0  0
   -1.0009   -0.1156   -3.0874 H   0  0  0  0  0  0  0  0  0  0  0  0
   -1.0009   -1.9598   -3.0686 H   0  0  0  0  0  0  0  0  0  0  0  0
   -1.0009   -1.9882   -0.6674 H   0  0  0  0  0  0  0  0  0  0  0  0
    0.0424    0.0904    0.5036 H   0  0  0  0  0  0  0  0  0  0  0  0
   -1.8703    0.1040    0.3710 H   0  0  0  0  0  0  0  0  0  0  0  0
   -1.8833    1.6328   -1.6322 H   0  0  0  0  0  0  0  0  0  0  0  0
   -0.1184    1.6328   -1.6322 H   0  0  0  0  0  0  0  0  0  0  0  0
   -1.0009    2.3321   -0.2745 H   0  0  0  0  0  0  0  0  0  0  0  0
  1  2  2  3
  1  4  1  0
  1  5  1  0
  2  3  1  0
  2 16  1  0
  3  6  1  0
  3  7  1  0
  3  8  1  0
  9 10  2  3
  9 13  1  0
  9 14  1  0
 10 11  1  0
 10 15  1  0
 11 12  1  0
 11 17  1  0
 12 18  1  0
 12 19  1  0
 12 20  1  0
M  RAD  1  11   2
M  END
>  <reaction>  (13) 
rxn_1055

>  <mol_properties>  (13) 
{"0": {"label": "*4", "atom_type": "Cd"}, "1": {"label": "*3", "atom_type": "Cd"}, "9": {"label": "*0", "atom_type": "Cd"}, "10": {"label": "*1", "atom_type": "Cs"}, "15": {"label": "*2", "atom_type": "H0"}}

>  <type>  (13) 
unop_9

>  <geom_source>  (13) 
Heuristics

$$$$

     RDKit          3D

 20 18  0  0  0  0  0  0  0  0999 V2000
    2.2772   -0.1022    0.7923 C   0  0  0  0  0  0  0  0  0  0  0  0
    1.0678   -0.0604    1.3289 C   0  0  0  0  0  0  0  0  0  0  0  0
    0.7323    0.5584    2.6475 C   0  0  0  0  0  0  0  0  0  0  0  0
    3.1357    0.3281    1.2974 H   0  0  0  0  0  0  0  0  0  0  0  0
    2.4545   -0.5667   -0.1695 H   0  0  0  0  0  0  0  0  0  0  0  0
    0.2940   -0.1803    3.3235 H   0  0  0  0  0  0  0  0  0  0  0  0
    1.6168    0.9802    3.1265 H   0  0  0  0  0  0  0  0  0  0  0  0
   -0.0066    1.3547    2.5267 H   0  0  0  0  0  0  0  0  0  0  0  0
   -1.0106   -1.1024   -2.4742 C   0  0  0  0  0  0  0  0  0  0  0  0
   -1.0106   -1.1024   -1.1499 C   0  0  0  0  0  0  0  0  0  0  0  0
   -1.0106    0.1021   -0.2564 C   0  0  0  0  0  3  0  0  0  0  0  0
   -1.0106    1.4478   -0.9641 C   0  0  0  0  0  0  0  0  0  0  0  0
   -1.0106   -0.1855   -3.0516 H   0  0  0  0  0  0  0  0  0  0  0  0
   -1.0106   -2.0297   -3.0329 H   0  0  0  0  0  0  0  0  0  0  0  0
   -1.0106   -2.0581   -0.6317 H   0  0  0  0  0  0  0  0  0  0  0  0
    0.0327    0.0205    0.5394 H   0  0  0  0  0  0  0  0  0  0  0  0
   -1.8800    0.0341    0.4067 H   0  0  0  0  0  0  0  0  0  0  0  0
   -1.8930    1.5629   -1.5965 H   0  0  0  0  0  0  0  0  0  0  0  0
   -0.1282    1.5629   -1.5965 H   0  0  0  0  0  0  0  0  0  0  0  0
   -1.0106    2.2622   -0.2388 H   0  0  0  0  0  0  0  0  0  0  0  0
  1  2  2  3
  1  4  1  0
  1  5  1  0
  2  3  1  0
  2 16  1  0
  3  6  1  0
  3  7  1  0
  3  8  1  0
  9 10  2  3
  9 13  1  0
  9 14  1  0
 10 11  1  0
 10 15  1  0
 11 12  1  0
 11 17  1  0
 12 18  1  0
 12 19  1  0
 12 20  1  0
M  RAD  1  11   2
M  END
>  <reaction>  (14) 
rxn_1055

>  <mol_properties>  (14) 
{"0": {"label": "*4", "atom_type": "Cd"}, "1": {"label": "*3", "atom_type": "Cd"}, "9": {"label": "*0", "atom_type": "Cd"}, "10": {"label": "*1", "atom_type": "Cs"}, "15": {"label": "*2", "atom_type": "H0"}}

>  <type>  (14) 
unop_10

>  <geom_source>  (14) 
Heuristics

$$$$

     RDKit          3D

 20 18  0  0  0  0  0  0  0  0999 V2000
    0.9351    0.5007    2.6206 C   0  0  0  0  0  0  0  0  0  0  0  0
    1.0091   -0.0406    1.4148 C   0  0  0  0  0  0  0  0  0  0  0  0
    2.2401   -0.0914    0.5684 C   0  0  0  0  0  0  0  0  0  0  0  0
    1.7993    0.9601    3.0888 H   0  0  0  0  0  0  0  0  0  0  0  0
    0.0104    0.5050    3.1838 H   0  0  0  0  0  0  0  0  0  0  0  0
    2.0778    0.4178   -0.3850 H   0  0  0  0  0  0  0  0  0  0  0  0
    3.0877    0.3784    1.0689 H   0  0  0  0  0  0  0  0  0  0  0  0
    2.5084   -1.1247    0.3338 H   0  0  0  0  0  0  0  0  0  0  0  0
   -1.0693   -1.0826   -2.3883 C   0  0  0  0  0  0  0  0  0  0  0  0
   -1.0693   -1.0826   -1.0640 C   0  0  0  0  0  0  0  0  0  0  0  0
   -1.0693    0.1219   -0.1705 C   0  0  0  0  0  3  0  0  0  0  0  0
   -1.0693    1.4677   -0.8782 C   0  0  0  0  0  0  0  0  0  0  0  0
   -1.0693   -0.1657   -2.9657 H   0  0  0  0  0  0  0  0  0  0  0  0
   -1.0693   -2.0099   -2.9470 H   0  0  0  0  0  0  0  0  0  0  0  0
   -1.0693   -2.0383   -0.5458 H   0  0  0  0  0  0  0  0  0  0  0  0
   -0.0260    0.0403    0.6252 H   0  0  0  0  0  0  0  0  0  0  0  0
   -1.9387    0.0539    0.4926 H   0  0  0  0  0  0  0  0  0  0  0  0
   -1.9517    1.5827   -1.5106 H   0  0  0  0  0  0  0  0  0  0  0  0
   -0.1868    1.5827   -1.5106 H   0  0  0  0  0  0  0  0  0  0  0  0
   -1.0693    2.2820   -0.1529 H   0  0  0  0  0  0  0  0  0  0  0  0
  1  2  2  3
  1  4  1  0
  1  5  1  0
  2  3  1  0
  2 16  1  0
  3  6  1  0
  3  7  1  0
  3  8  1  0
  9 10  2  3
  9 13  1  0
  9 14  1  0
 10 11  1  0
 10 15  1  0
 11 12  1  0
 11 17  1  0
 12 18  1  0
 12 19  1  0
 12 20  1  0
M  RAD  1  11   2
M  END
>  <reaction>  (15) 
rxn_1055

>  <mol_properties>  (15) 
{"0": {"label": "*4", "atom_type": "Cd"}, "1": {"label": "*3", "atom_type": "Cd"}, "9": {"label": "*0", "atom_type": "Cd"}, "10": {"label": "*1", "atom_type": "Cs"}, "15": {"label": "*2", "atom_type": "H0"}}

>  <type>  (15) 
unop_11

>  <geom_source>  (15) 
Heuristics

$$$$

     RDKit          3D

 20 18  0  0  0  0  0  0  0  0999 V2000
    1.8536   -1.0324    1.2085 C   0  0  0  0  0  0  0  0  0  0  0  0
    1.0467    0.0110    1.3201 C   0  0  0  0  0  0  0  0  0  0  0  0
    1.2193    1.1322    2.2935 C   0  0  0  0  0  0  0  0  0  0  0  0
    2.7267   -1.1431    1.8429 H   0  0  0  0  0  0  0  0  0  0  0  0
    1.6725   -1.8132    0.4806 H   0  0  0  0  0  0  0  0  0  0  0  0
    0.3491    1.2151    2.9496 H   0  0  0  0  0  0  0  0  0  0  0  0
    2.1049    0.9887    2.9138 H   0  0  0  0  0  0  0  0  0  0  0  0
    1.3152    2.0882    1.7724 H   0  0  0  0  0  0  0  0  0  0  0  0
   -1.0318   -1.0310   -2.4830 C   0  0  0  0  0  0  0  0  0  0  0  0
   -1.0318   -1.0310   -1.1587 C   0  0  0  0  0  0  0  0  0  0  0  0
   -1.0318    0.1735   -0.2652 C   0  0  0  0  0  3  0  0  0  0  0  0
   -1.0318    1.5193   -0.9729 C   0  0  0  0  0  0  0  0  0  0  0  0
   -1.0318   -0.1141   -3.0604 H   0  0  0  0  0  0  0  0  0  0  0  0
   -1.0318   -1.9583   -3.0417 H   0  0  0  0  0  0  0  0  0  0  0  0
   -1.0318   -1.9867   -0.6405 H   0  0  0  0  0  0  0  0  0  0  0  0
    0.0115    0.0920    0.5306 H   0  0  0  0  0  0  0  0  0  0  0  0
   -1.9011    0.1055    0.3979 H   0  0  0  0  0  0  0  0  0  0  0  0
   -1.9142    1.6343   -1.6053 H   0  0  0  0  0  0  0  0  0  0  0  0
   -0.1493    1.6343   -1.6053 H   0  0  0  0  0  0  0  0  0  0  0  0
   -1.0318    2.3336   -0.2476 H   0  0  0  0  0  0  0  0  0  0  0  0
  1  2  2  3
  1  4  1  0
  1  5  1  0
  2  3  1  0
  2 16  1  0
  3  6  1  0
  3  7  1  0
  3  8  1  0
  9 10  2  3
  9 13  1  0
  9 14  1  0
 10 11  1  0
 10 15  1  0
 11 12  1  0
 11 17  1  0
 12 18  1  0
 12 19  1  0
 12 20  1  0
M  RAD  1  11   2
M  END
>  <reaction>  (16) 
rxn_1055

>  <mol_properties>  (16) 
{"0": {"label": "*4", "atom_type": "Cd"}, "1": {"label": "*3", "atom_type": "Cd"}, "9": {"label": "*0", "atom_type": "Cd"}, "10": {"label": "*1", "atom_type": "Cs"}, "15": {"label": "*2", "atom_type": "H0"}}

>  <type>  (16) 
unop_12

>  <geom_source>  (16) 
Heuristics

$$$$

     RDKit          3D

 20 18  0  0  0  0  0  0  0  0999 V2000
    1.8009    1.4954   -0.2845 C   0  0  0  0  0  0  0  0  0  0  0  0
   -1.5229   -1.8001    1.2436 C   0  0  0  0  0  0  0  0  0  0  0  0
   -0.6028   -0.8014    0.5522 C   0  0  0  0  0  3  0  0  0  0  0  0
    1.5714    0.0537   -0.6141 C   0  0  0  0  0  0  0  0  0  0  0  0
   -1.0980    0.6087    0.6935 C   0  0  0  0  0  0  0  0  0  0  0  0
    2.2183   -0.5367   -1.6208 C   0  0  0  0  0  0  0  0  0  0  0  0
   -2.1829    1.0422    0.0456 C   0  0  0  0  0  0  0  0  0  0  0  0
    2.8671    1.6594   -0.0207 H   0  0  0  0  0  0  0  0  0  0  0  0
    1.5326    2.1310   -1.1548 H   0  0  0  0  0  0  0  0  0  0  0  0
    1.1679    1.7838    0.5802 H   0  0  0  0  0  0  0  0  0  0  0  0
   -2.5229   -1.8083    0.7605 H   0  0  0  0  0  0  0  0  0  0  0  0
   -1.0818   -2.8157    1.1691 H   0  0  0  0  0  0  0  0  0  0  0  0
   -1.6321   -1.5382    2.3174 H   0  0  0  0  0  0  0  0  0  0  0  0
    0.7824   -0.5895    0.0470 H   0  0  0  0  0  0  0  0  0  0  0  0
   -0.4679   -1.0651   -0.5191 H   0  0  0  0  0  0  0  0  0  0  0  0
   -0.5372    1.2978    1.3166 H   0  0  0  0  0  0  0  0  0  0  0  0
    2.9295    0.0154   -2.2281 H   0  0  0  0  0  0  0  0  0  0  0  0
    2.0359   -1.5831   -1.8413 H   0  0  0  0  0  0  0  0  0  0  0  0
   -2.7507    0.3790   -0.6000 H   0  0  0  0  0  0  0  0  0  0  0  0
   -2.5069    2.0718    0.1576 H   0  0  0  0  0  0  0  0  0  0  0  0
  1  4  1  0
  1  8  1  0
  1  9  1  0
  1 10  1  0
  2  3  1  0
  2 11  1  0
  2 12  1  0
  2 13  1  0
  3  5  1  0
  3 15  1  0
  4  6  2  3
  4 14  1  0
  5  7  2  3
  5 16  1  0
  6 17  1  0
  6 18  1  0
  7 19  1  0
  7 20  1  0
M  RAD  1   3   2
M  END
>  <reaction>  (17) 
rxn_1055

>  <mol_properties>  (17) 
{"0": {"label": "*4", "atom_type": "Cd"}, "1": {"label": "*3", "atom_type": "Cd"}, "9": {"label": "*0", "atom_type": "Cd"}, "10": {"label": "*1", "atom_type": "Cs"}, "15": {"label": "*2", "atom_type": "H0"}}

>  <type>  (17) 
unop_13

>  <geom_source>  (17) 
AutoTST

$$$$
