
     RDKit          3D

 11 10  0  0  0  0  0  0  0  0999 V2000
   -1.2710    0.1907   -0.2084 C   0  0  0  0  0  0  0  0  0  0  0  0
    0.0202   -0.6130   -0.2928 C   0  0  0  0  0  0  0  0  0  0  0  0
    0.1086   -1.6953    0.7756 C   0  0  0  0  0  0  0  0  0  0  0  0
   -1.3607    0.6851    0.7620 H   0  0  0  0  0  0  0  0  0  0  0  0
   -2.1429   -0.4567   -0.3299 H   0  0  0  0  0  0  0  0  0  0  0  0
   -1.3158    0.9602   -0.9809 H   0  0  0  0  0  0  0  0  0  0  0  0
    0.8757    0.0616   -0.1992 H   0  0  0  0  0  0  0  0  0  0  0  0
    0.0997   -1.0712   -1.2825 H   0  0  0  0  0  0  0  0  0  0  0  0
   -0.7198   -2.4022    0.6850 H   0  0  0  0  0  0  0  0  0  0  0  0
    1.0395   -2.2596    0.6989 H   0  0  0  0  0  0  0  0  0  0  0  0
    0.0624   -1.2603    1.7770 H   0  0  0  0  0  0  0  0  0  0  0  0
  1  2  1  0
  1  4  1  0
  1  5  1  0
  1  6  1  0
  2  3  1  0
  2  7  1  0
  2  8  1  0
  3  9  1  0
  3 10  1  0
  3 11  1  0
M  END
>  <reaction>  (1) 
rxn_297

>  <mol_properties>  (1) 
{"1": {"label": "donator", "atom_type": "Cs"}, "6": {"label": "d_hydrogen", "atom_type": "H0"}}

>  <type>  (1) 
r1h

$$$$

     RDKit          3D

  3  2  0  0  0  0  0  0  0  0999 V2000
    0.9943   -0.1797    0.0000 O   0  0  0  0  0  1  0  0  0  0  0  0
   -0.1595    0.4394    0.0000 O   0  0  0  0  0  0  0  0  0  0  0  0
   -0.8348   -0.2597    0.0000 H   0  0  0  0  0  0  0  0  0  0  0  0
  1  2  1  0
  2  3  1  0
M  RAD  1   1   2
M  END
>  <reaction>  (2) 
rxn_297

>  <mol_properties>  (2) 
{"0": {"label": "acceptor", "atom_type": "O2s"}}

>  <type>  (2) 
r2

$$$$

     RDKit          3D

  4  3  0  0  0  0  0  0  0  0999 V2000
    0.5949   -0.3853    0.2659 O   0  0  0  0  0  0  0  0  0  0  0  0
   -0.5918    0.4028    0.2462 O   0  0  0  0  0  0  0  0  0  0  0  0
    1.1865    0.1539   -0.2689 H   0  0  0  0  0  0  0  0  0  0  0  0
   -1.1896   -0.1714   -0.2432 H   0  0  0  0  0  0  0  0  0  0  0  0
  1  2  1  0
  1  3  1  0
  2  4  1  0
M  END
>  <reaction>  (3) 
rxn_297

>  <mol_properties>  (3) 
{"0": {"label": "acceptor", "atom_type": "O2s"}, "3": {"label": "a_hydrogen", "atom_type": "H0"}}

>  <type>  (3) 
r2h

$$$$

     RDKit          3D

 14 12  0  0  0  0  0  0  0  0999 V2000
    0.9208   -1.1035    0.5504 O   0  0  0  0  0  0  0  0  0  0  0  0
    1.8919   -0.2399    0.0617 O   0  0  0  0  0  0  0  0  0  0  0  0
    2.1624    0.2498    0.8472 H   0  0  0  0  0  0  0  0  0  0  0  0
   -1.1966    0.1148   -1.5160 C   0  0  0  0  0  0  0  0  0  0  0  0
   -1.1649    0.1832   -0.0160 C   0  0  0  0  0  3  0  0  0  0  0  0
   -0.8826    1.5272    0.5919 C   0  0  0  0  0  0  0  0  0  0  0  0
   -0.2654    0.4968   -1.9398 H   0  0  0  0  0  0  0  0  0  0  0  0
   -2.0161    0.7266   -1.9112 H   0  0  0  0  0  0  0  0  0  0  0  0
   -1.3402   -0.9064   -1.8689 H   0  0  0  0  0  0  0  0  0  0  0  0
   -0.1092   -0.5537    0.3131 H   0  0  0  0  0  0  0  0  0  0  0  0
   -1.9651   -0.3699    0.4772 H   0  0  0  0  0  0  0  0  0  0  0  0
   -1.6882    2.2331    0.3588 H   0  0  0  0  0  0  0  0  0  0  0  0
   -0.7965    1.4699    1.6778 H   0  0  0  0  0  0  0  0  0  0  0  0
    0.0416    1.9483    0.1883 H   0  0  0  0  0  0  0  0  0  0  0  0
  1  2  1  0
  1 10  1  0
  2  3  1  0
  4  5  1  0
  4  7  1  0
  4  8  1  0
  4  9  1  0
  5  6  1  0
  5 11  1  0
  6 12  1  0
  6 13  1  0
  6 14  1  0
M  RAD  1   5   2
M  END
>  <reaction>  (4) 
rxn_297

>  <mol_properties>  (4) 
{"0": {"label": "*1", "atom_type": "O2s"}, "1": {"label": "*0", "atom_type": "O2s"}, "3": {"label": "*4", "atom_type": "Cs"}, "4": {"label": "*3", "atom_type": "Cs"}, "9": {"label": "*2", "atom_type": "H0"}}

>  <type>  (4) 
ts

$$$$

     RDKit          3D

 14 12  0  0  0  0  0  0  0  0999 V2000
    0.9865   -1.2016    0.4755 O   0  0  0  0  0  0  0  0  0  0  0  0
    1.6519   -0.1902    1.2265 O   0  0  0  0  0  0  0  0  0  0  0  0
    1.0923   -0.1390    2.0081 H   0  0  0  0  0  0  0  0  0  0  0  0
   -0.9867    0.0312   -1.8692 C   0  0  0  0  0  0  0  0  0  0  0  0
   -0.9867    0.0312   -0.3458 C   0  0  0  0  0  3  0  0  0  0  0  0
   -0.9867    1.4370    0.2409 C   0  0  0  0  0  0  0  0  0  0  0  0
   -0.1053    0.5455   -2.2598 H   0  0  0  0  0  0  0  0  0  0  0  0
   -1.8682    0.5454   -2.2598 H   0  0  0  0  0  0  0  0  0  0  0  0
   -0.9867   -0.9837   -2.2703 H   0  0  0  0  0  0  0  0  0  0  0  0
    0.0627   -0.6244    0.0910 H   0  0  0  0  0  0  0  0  0  0  0  0
   -1.8613   -0.5152    0.0182 H   0  0  0  0  0  0  0  0  0  0  0  0
   -1.8682    1.9956   -0.0833 H   0  0  0  0  0  0  0  0  0  0  0  0
   -0.9867    1.4163    1.3320 H   0  0  0  0  0  0  0  0  0  0  0  0
   -0.1053    1.9956   -0.0833 H   0  0  0  0  0  0  0  0  0  0  0  0
  1  2  1  0
  1 10  1  0
  2  3  1  0
  4  5  1  0
  4  7  1  0
  4  8  1  0
  4  9  1  0
  5  6  1  0
  5 11  1  0
  6 12  1  0
  6 13  1  0
  6 14  1  0
M  RAD  1   5   2
M  END
>  <reaction>  (5) 
rxn_297

>  <mol_properties>  (5) 
{"0": {"label": "*1", "atom_type": "O2s"}, "1": {"label": "*0", "atom_type": "O2s"}, "3": {"label": "*4", "atom_type": "Cs"}, "4": {"label": "*3", "atom_type": "Cs"}, "9": {"label": "*2", "atom_type": "H0"}}

>  <type>  (5) 
unop_1

>  <geom_source>  (5) 
Heuristics

$$$$

     RDKit          3D

 14 12  0  0  0  0  0  0  0  0999 V2000
    0.9141   -1.0411    0.8785 O   0  0  0  0  0  0  0  0  0  0  0  0
    1.8474   -0.8002   -0.1706 O   0  0  0  0  0  0  0  0  0  0  0  0
    2.3063   -0.0222    0.1623 H   0  0  0  0  0  0  0  0  0  0  0  0
   -1.0592    0.1917   -1.4661 C   0  0  0  0  0  0  0  0  0  0  0  0
   -1.0592    0.1917    0.0572 C   0  0  0  0  0  3  0  0  0  0  0  0
   -1.0592    1.5975    0.6439 C   0  0  0  0  0  0  0  0  0  0  0  0
   -0.1777    0.7060   -1.8567 H   0  0  0  0  0  0  0  0  0  0  0  0
   -1.9406    0.7059   -1.8567 H   0  0  0  0  0  0  0  0  0  0  0  0
   -1.0592   -0.8232   -1.8673 H   0  0  0  0  0  0  0  0  0  0  0  0
   -0.0097   -0.4639    0.4940 H   0  0  0  0  0  0  0  0  0  0  0  0
   -1.9337   -0.3547    0.4212 H   0  0  0  0  0  0  0  0  0  0  0  0
   -1.9406    2.1561    0.3198 H   0  0  0  0  0  0  0  0  0  0  0  0
   -1.0592    1.5768    1.7351 H   0  0  0  0  0  0  0  0  0  0  0  0
   -0.1777    2.1561    0.3198 H   0  0  0  0  0  0  0  0  0  0  0  0
  1  2  1  0
  1 10  1  0
  2  3  1  0
  4  5  1  0
  4  7  1  0
  4  8  1  0
  4  9  1  0
  5  6  1  0
  5 11  1  0
  6 12  1  0
  6 13  1  0
  6 14  1  0
M  RAD  1   5   2
M  END
>  <reaction>  (6) 
rxn_297

>  <mol_properties>  (6) 
{"0": {"label": "*1", "atom_type": "O2s"}, "1": {"label": "*0", "atom_type": "O2s"}, "3": {"label": "*4", "atom_type": "Cs"}, "4": {"label": "*3", "atom_type": "Cs"}, "9": {"label": "*2", "atom_type": "H0"}}

>  <type>  (6) 
unop_2

>  <geom_source>  (6) 
Heuristics

$$$$

     RDKit          3D

 14 12  0  0  0  0  0  0  0  0999 V2000
    1.0783   -1.1187    0.3715 O   0  0  0  0  0  0  0  0  0  0  0  0
    1.3283   -0.4509    1.6049 O   0  0  0  0  0  0  0  0  0  0  0  0
    0.7554   -0.9417    2.2028 H   0  0  0  0  0  0  0  0  0  0  0  0
   -0.8949    0.1141   -1.9732 C   0  0  0  0  0  0  0  0  0  0  0  0
   -0.8949    0.1141   -0.4499 C   0  0  0  0  0  3  0  0  0  0  0  0
   -0.8949    1.5199    0.1369 C   0  0  0  0  0  0  0  0  0  0  0  0
   -0.0134    0.6284   -2.3638 H   0  0  0  0  0  0  0  0  0  0  0  0
   -1.7764    0.6284   -2.3638 H   0  0  0  0  0  0  0  0  0  0  0  0
   -0.8949   -0.9008   -2.3743 H   0  0  0  0  0  0  0  0  0  0  0  0
    0.1545   -0.5415   -0.0130 H   0  0  0  0  0  0  0  0  0  0  0  0
   -1.7694   -0.4323   -0.0858 H   0  0  0  0  0  0  0  0  0  0  0  0
   -1.7764    2.0785   -0.1873 H   0  0  0  0  0  0  0  0  0  0  0  0
   -0.8949    1.4992    1.2280 H   0  0  0  0  0  0  0  0  0  0  0  0
   -0.0134    2.0785   -0.1873 H   0  0  0  0  0  0  0  0  0  0  0  0
  1  2  1  0
  1 10  1  0
  2  3  1  0
  4  5  1  0
  4  7  1  0
  4  8  1  0
  4  9  1  0
  5  6  1  0
  5 11  1  0
  6 12  1  0
  6 13  1  0
  6 14  1  0
M  RAD  1   5   2
M  END
>  <reaction>  (7) 
rxn_297

>  <mol_properties>  (7) 
{"0": {"label": "*1", "atom_type": "O2s"}, "1": {"label": "*0", "atom_type": "O2s"}, "3": {"label": "*4", "atom_type": "Cs"}, "4": {"label": "*3", "atom_type": "Cs"}, "9": {"label": "*2", "atom_type": "H0"}}

>  <type>  (7) 
unop_3

>  <geom_source>  (7) 
Heuristics

$$$$

     RDKit          3D

 14 12  0  0  0  0  0  0  0  0999 V2000
    1.1633   -0.6896    0.7781 O   0  0  0  0  0  0  0  0  0  0  0  0
    0.9407   -1.9775    0.2114 O   0  0  0  0  0  0  0  0  0  0  0  0
    1.8441   -2.2848    0.0846 H   0  0  0  0  0  0  0  0  0  0  0  0
   -0.8099    0.5432   -1.5665 C   0  0  0  0  0  0  0  0  0  0  0  0
   -0.8099    0.5432   -0.0432 C   0  0  0  0  0  3  0  0  0  0  0  0
   -0.8099    1.9490    0.5435 C   0  0  0  0  0  0  0  0  0  0  0  0
    0.0715    1.0575   -1.9572 H   0  0  0  0  0  0  0  0  0  0  0  0
   -1.6914    1.0575   -1.9572 H   0  0  0  0  0  0  0  0  0  0  0  0
   -0.8099   -0.4717   -1.9677 H   0  0  0  0  0  0  0  0  0  0  0  0
    0.2395   -0.1124    0.3936 H   0  0  0  0  0  0  0  0  0  0  0  0
   -1.6845   -0.0031    0.3208 H   0  0  0  0  0  0  0  0  0  0  0  0
   -1.6914    2.5076    0.2194 H   0  0  0  0  0  0  0  0  0  0  0  0
   -0.8100    1.9283    1.6346 H   0  0  0  0  0  0  0  0  0  0  0  0
    0.0715    2.5076    0.2194 H   0  0  0  0  0  0  0  0  0  0  0  0
  1  2  1  0
  1 10  1  0
  2  3  1  0
  4  5  1  0
  4  7  1  0
  4  8  1  0
  4  9  1  0
  5  6  1  0
  5 11  1  0
  6 12  1  0
  6 13  1  0
  6 14  1  0
M  RAD  1   5   2
M  END
>  <reaction>  (8) 
rxn_297

>  <mol_properties>  (8) 
{"0": {"label": "*1", "atom_type": "O2s"}, "1": {"label": "*0", "atom_type": "O2s"}, "3": {"label": "*4", "atom_type": "Cs"}, "4": {"label": "*3", "atom_type": "Cs"}, "9": {"label": "*2", "atom_type": "H0"}}

>  <type>  (8) 
unop_4

>  <geom_source>  (8) 
Heuristics

$$$$

     RDKit          3D

 14 12  0  0  0  0  0  0  0  0999 V2000
    1.1662   -0.9896    0.3372 O   0  0  0  0  0  0  0  0  0  0  0  0
    0.9931   -0.8814    1.7471 O   0  0  0  0  0  0  0  0  0  0  0  0
    0.8402   -1.8008    1.9879 H   0  0  0  0  0  0  0  0  0  0  0  0
   -0.8070    0.2432   -2.0075 C   0  0  0  0  0  0  0  0  0  0  0  0
   -0.8070    0.2432   -0.4841 C   0  0  0  0  0  3  0  0  0  0  0  0
   -0.8070    1.6490    0.1026 C   0  0  0  0  0  0  0  0  0  0  0  0
    0.0744    0.7574   -2.3981 H   0  0  0  0  0  0  0  0  0  0  0  0
   -1.6885    0.7574   -2.3981 H   0  0  0  0  0  0  0  0  0  0  0  0
   -0.8070   -0.7717   -2.4086 H   0  0  0  0  0  0  0  0  0  0  0  0
    0.2424   -0.4125   -0.0473 H   0  0  0  0  0  0  0  0  0  0  0  0
   -1.6816   -0.3032   -0.1201 H   0  0  0  0  0  0  0  0  0  0  0  0
   -1.6885    2.2075   -0.2216 H   0  0  0  0  0  0  0  0  0  0  0  0
   -0.8070    1.6283    1.1937 H   0  0  0  0  0  0  0  0  0  0  0  0
    0.0744    2.2075   -0.2216 H   0  0  0  0  0  0  0  0  0  0  0  0
  1  2  1  0
  1 10  1  0
  2  3  1  0
  4  5  1  0
  4  7  1  0
  4  8  1  0
  4  9  1  0
  5  6  1  0
  5 11  1  0
  6 12  1  0
  6 13  1  0
  6 14  1  0
M  RAD  1   5   2
M  END
>  <reaction>  (9) 
rxn_297

>  <mol_properties>  (9) 
{"0": {"label": "*1", "atom_type": "O2s"}, "1": {"label": "*0", "atom_type": "O2s"}, "3": {"label": "*4", "atom_type": "Cs"}, "4": {"label": "*3", "atom_type": "Cs"}, "9": {"label": "*2", "atom_type": "H0"}}

>  <type>  (9) 
unop_5

>  <geom_source>  (9) 
Heuristics

$$$$

     RDKit          3D

 14 12  0  0  0  0  0  0  0  0999 V2000
    1.2300   -0.6789    0.6320 O   0  0  0  0  0  0  0  0  0  0  0  0
    0.7110   -2.0024    0.7242 O   0  0  0  0  0  0  0  0  0  0  0  0
    1.5163   -2.5247    0.6511 H   0  0  0  0  0  0  0  0  0  0  0  0
   -0.7433    0.5539   -1.7126 C   0  0  0  0  0  0  0  0  0  0  0  0
   -0.7433    0.5539   -0.1893 C   0  0  0  0  0  3  0  0  0  0  0  0
   -0.7433    1.9597    0.3974 C   0  0  0  0  0  0  0  0  0  0  0  0
    0.1382    1.0681   -2.1032 H   0  0  0  0  0  0  0  0  0  0  0  0
   -1.6247    1.0681   -2.1032 H   0  0  0  0  0  0  0  0  0  0  0  0
   -0.7433   -0.4610   -2.1138 H   0  0  0  0  0  0  0  0  0  0  0  0
    0.3062   -0.1018    0.2475 H   0  0  0  0  0  0  0  0  0  0  0  0
   -1.6178    0.0075    0.1747 H   0  0  0  0  0  0  0  0  0  0  0  0
   -1.6247    2.5182    0.0733 H   0  0  0  0  0  0  0  0  0  0  0  0
   -0.7433    1.9390    1.4886 H   0  0  0  0  0  0  0  0  0  0  0  0
    0.1382    2.5182    0.0733 H   0  0  0  0  0  0  0  0  0  0  0  0
  1  2  1  0
  1 10  1  0
  2  3  1  0
  4  5  1  0
  4  7  1  0
  4  8  1  0
  4  9  1  0
  5  6  1  0
  5 11  1  0
  6 12  1  0
  6 13  1  0
  6 14  1  0
M  RAD  1   5   2
M  END
>  <reaction>  (10) 
rxn_297

>  <mol_properties>  (10) 
{"0": {"label": "*1", "atom_type": "O2s"}, "1": {"label": "*0", "atom_type": "O2s"}, "3": {"label": "*4", "atom_type": "Cs"}, "4": {"label": "*3", "atom_type": "Cs"}, "9": {"label": "*2", "atom_type": "H0"}}

>  <type>  (10) 
unop_6

>  <geom_source>  (10) 
Heuristics

$$$$

     RDKit          3D

 14 12  0  0  0  0  0  0  0  0999 V2000
    1.2533   -0.7390    0.4862 O   0  0  0  0  0  0  0  0  0  0  0  0
    0.6362   -1.7805    1.2373 O   0  0  0  0  0  0  0  0  0  0  0  0
    1.3127   -2.4643    1.1996 H   0  0  0  0  0  0  0  0  0  0  0  0
   -0.7199    0.4937   -1.8584 C   0  0  0  0  0  0  0  0  0  0  0  0
   -0.7199    0.4937   -0.3351 C   0  0  0  0  0  3  0  0  0  0  0  0
   -0.7199    1.8996    0.2516 C   0  0  0  0  0  0  0  0  0  0  0  0
    0.1615    1.0080   -2.2491 H   0  0  0  0  0  0  0  0  0  0  0  0
   -1.6014    1.0080   -2.2491 H   0  0  0  0  0  0  0  0  0  0  0  0
   -0.7199   -0.5212   -2.2596 H   0  0  0  0  0  0  0  0  0  0  0  0
    0.3295   -0.1619    0.1017 H   0  0  0  0  0  0  0  0  0  0  0  0
   -1.5945   -0.0526    0.0289 H   0  0  0  0  0  0  0  0  0  0  0  0
   -1.6014    2.4581   -0.0725 H   0  0  0  0  0  0  0  0  0  0  0  0
   -0.7199    1.8789    1.3427 H   0  0  0  0  0  0  0  0  0  0  0  0
    0.1615    2.4581   -0.0725 H   0  0  0  0  0  0  0  0  0  0  0  0
  1  2  1  0
  1 10  1  0
  2  3  1  0
  4  5  1  0
  4  7  1  0
  4  8  1  0
  4  9  1  0
  5  6  1  0
  5 11  1  0
  6 12  1  0
  6 13  1  0
  6 14  1  0
M  RAD  1   5   2
M  END
>  <reaction>  (11) 
rxn_297

>  <mol_properties>  (11) 
{"0": {"label": "*1", "atom_type": "O2s"}, "1": {"label": "*0", "atom_type": "O2s"}, "3": {"label": "*4", "atom_type": "Cs"}, "4": {"label": "*3", "atom_type": "Cs"}, "9": {"label": "*2", "atom_type": "H0"}}

>  <type>  (11) 
unop_7

>  <geom_source>  (11) 
Heuristics

$$$$

     RDKit          3D

 14 12  0  0  0  0  0  0  0  0999 V2000
    0.9179   -1.2150    0.6210 O   0  0  0  0  0  0  0  0  0  0  0  0
    1.8798   -0.1681    0.7131 O   0  0  0  0  0  0  0  0  0  0  0  0
    1.5616    0.3108    1.4852 H   0  0  0  0  0  0  0  0  0  0  0  0
   -1.0553    0.0177   -1.7237 C   0  0  0  0  0  0  0  0  0  0  0  0
   -1.0553    0.0177   -0.2003 C   0  0  0  0  0  3  0  0  0  0  0  0
   -1.0553    1.4236    0.3864 C   0  0  0  0  0  0  0  0  0  0  0  0
   -0.1739    0.5320   -2.1143 H   0  0  0  0  0  0  0  0  0  0  0  0
   -1.9368    0.5320   -2.1143 H   0  0  0  0  0  0  0  0  0  0  0  0
   -1.0553   -0.9972   -2.1248 H   0  0  0  0  0  0  0  0  0  0  0  0
   -0.0059   -0.6379    0.2365 H   0  0  0  0  0  0  0  0  0  0  0  0
   -1.9298   -0.5286    0.1637 H   0  0  0  0  0  0  0  0  0  0  0  0
   -1.9368    1.9821    0.0623 H   0  0  0  0  0  0  0  0  0  0  0  0
   -1.0553    1.4029    1.4775 H   0  0  0  0  0  0  0  0  0  0  0  0
   -0.1739    1.9821    0.0623 H   0  0  0  0  0  0  0  0  0  0  0  0
  1  2  1  0
  1 10  1  0
  2  3  1  0
  4  5  1  0
  4  7  1  0
  4  8  1  0
  4  9  1  0
  5  6  1  0
  5 11  1  0
  6 12  1  0
  6 13  1  0
  6 14  1  0
M  RAD  1   5   2
M  END
>  <reaction>  (12) 
rxn_297

>  <mol_properties>  (12) 
{"0": {"label": "*1", "atom_type": "O2s"}, "1": {"label": "*0", "atom_type": "O2s"}, "3": {"label": "*4", "atom_type": "Cs"}, "4": {"label": "*3", "atom_type": "Cs"}, "9": {"label": "*2", "atom_type": "H0"}}

>  <type>  (12) 
unop_8

>  <geom_source>  (12) 
Heuristics

$$$$

     RDKit          3D

 14 12  0  0  0  0  0  0  0  0999 V2000
    1.0710   -0.7701    0.8845 O   0  0  0  0  0  0  0  0  0  0  0  0
    1.2638   -1.7144   -0.1646 O   0  0  0  0  0  0  0  0  0  0  0  0
    2.2169   -1.6629   -0.2898 H   0  0  0  0  0  0  0  0  0  0  0  0
   -0.9023    0.4627   -1.4601 C   0  0  0  0  0  0  0  0  0  0  0  0
   -0.9023    0.4627    0.0632 C   0  0  0  0  0  3  0  0  0  0  0  0
   -0.9023    1.8685    0.6499 C   0  0  0  0  0  0  0  0  0  0  0  0
   -0.0208    0.9770   -1.8507 H   0  0  0  0  0  0  0  0  0  0  0  0
   -1.7837    0.9770   -1.8507 H   0  0  0  0  0  0  0  0  0  0  0  0
   -0.9023   -0.5522   -1.8613 H   0  0  0  0  0  0  0  0  0  0  0  0
    0.1472   -0.1929    0.5000 H   0  0  0  0  0  0  0  0  0  0  0  0
   -1.7768   -0.0837    0.4272 H   0  0  0  0  0  0  0  0  0  0  0  0
   -1.7837    2.4271    0.3258 H   0  0  0  0  0  0  0  0  0  0  0  0
   -0.9023    1.8478    1.7410 H   0  0  0  0  0  0  0  0  0  0  0  0
   -0.0208    2.4271    0.3258 H   0  0  0  0  0  0  0  0  0  0  0  0
  1  2  1  0
  1 10  1  0
  2  3  1  0
  4  5  1  0
  4  7  1  0
  4  8  1  0
  4  9  1  0
  5  6  1  0
  5 11  1  0
  6 12  1  0
  6 13  1  0
  6 14  1  0
M  RAD  1   5   2
M  END
>  <reaction>  (13) 
rxn_297

>  <mol_properties>  (13) 
{"0": {"label": "*1", "atom_type": "O2s"}, "1": {"label": "*0", "atom_type": "O2s"}, "3": {"label": "*4", "atom_type": "Cs"}, "4": {"label": "*3", "atom_type": "Cs"}, "9": {"label": "*2", "atom_type": "H0"}}

>  <type>  (13) 
unop_9

>  <geom_source>  (13) 
Heuristics

$$$$

     RDKit          3D

 14 12  0  0  0  0  0  0  0  0999 V2000
    0.8916   -1.1563    0.7685 O   0  0  0  0  0  0  0  0  0  0  0  0
    1.9515   -0.3914    0.2018 O   0  0  0  0  0  0  0  0  0  0  0  0
    1.9908    0.3535    0.8103 H   0  0  0  0  0  0  0  0  0  0  0  0
   -1.0816    0.0765   -1.5761 C   0  0  0  0  0  0  0  0  0  0  0  0
   -1.0816    0.0765   -0.0528 C   0  0  0  0  0  3  0  0  0  0  0  0
   -1.0816    1.4823    0.5339 C   0  0  0  0  0  0  0  0  0  0  0  0
   -0.2002    0.5908   -1.9668 H   0  0  0  0  0  0  0  0  0  0  0  0
   -1.9631    0.5908   -1.9668 H   0  0  0  0  0  0  0  0  0  0  0  0
   -1.0816   -0.9384   -1.9773 H   0  0  0  0  0  0  0  0  0  0  0  0
   -0.0322   -0.5791    0.3840 H   0  0  0  0  0  0  0  0  0  0  0  0
   -1.9562   -0.4699    0.3112 H   0  0  0  0  0  0  0  0  0  0  0  0
   -1.9631    2.0409    0.2098 H   0  0  0  0  0  0  0  0  0  0  0  0
   -1.0816    1.4616    1.6250 H   0  0  0  0  0  0  0  0  0  0  0  0
   -0.2002    2.0409    0.2098 H   0  0  0  0  0  0  0  0  0  0  0  0
  1  2  1  0
  1 10  1  0
  2  3  1  0
  4  5  1  0
  4  7  1  0
  4  8  1  0
  4  9  1  0
  5  6  1  0
  5 11  1  0
  6 12  1  0
  6 13  1  0
  6 14  1  0
M  RAD  1   5   2
M  END
>  <reaction>  (14) 
rxn_297

>  <mol_properties>  (14) 
{"0": {"label": "*1", "atom_type": "O2s"}, "1": {"label": "*0", "atom_type": "O2s"}, "3": {"label": "*4", "atom_type": "Cs"}, "4": {"label": "*3", "atom_type": "Cs"}, "9": {"label": "*2", "atom_type": "H0"}}

>  <type>  (14) 
unop_10

>  <geom_source>  (14) 
Heuristics

$$$$

     RDKit          3D

 14 12  0  0  0  0  0  0  0  0999 V2000
    1.2289   -0.8521    0.3791 O   0  0  0  0  0  0  0  0  0  0  0  0
    0.7385   -1.3696    1.6126 O   0  0  0  0  0  0  0  0  0  0  0  0
    1.1425   -2.2433    1.6227 H   0  0  0  0  0  0  0  0  0  0  0  0
   -0.7443    0.3806   -1.9655 C   0  0  0  0  0  0  0  0  0  0  0  0
   -0.7443    0.3806   -0.4422 C   0  0  0  0  0  3  0  0  0  0  0  0
   -0.7443    1.7864    0.1445 C   0  0  0  0  0  0  0  0  0  0  0  0
    0.1371    0.8949   -2.3561 H   0  0  0  0  0  0  0  0  0  0  0  0
   -1.6258    0.8949   -2.3561 H   0  0  0  0  0  0  0  0  0  0  0  0
   -0.7443   -0.6343   -2.3667 H   0  0  0  0  0  0  0  0  0  0  0  0
    0.3051   -0.2750   -0.0054 H   0  0  0  0  0  0  0  0  0  0  0  0
   -1.6188   -0.1657   -0.0782 H   0  0  0  0  0  0  0  0  0  0  0  0
   -1.6258    2.3450   -0.1796 H   0  0  0  0  0  0  0  0  0  0  0  0
   -0.7443    1.7657    1.2357 H   0  0  0  0  0  0  0  0  0  0  0  0
    0.1371    2.3450   -0.1796 H   0  0  0  0  0  0  0  0  0  0  0  0
  1  2  1  0
  1 10  1  0
  2  3  1  0
  4  5  1  0
  4  7  1  0
  4  8  1  0
  4  9  1  0
  5  6  1  0
  5 11  1  0
  6 12  1  0
  6 13  1  0
  6 14  1  0
M  RAD  1   5   2
M  END
>  <reaction>  (15) 
rxn_297

>  <mol_properties>  (15) 
{"0": {"label": "*1", "atom_type": "O2s"}, "1": {"label": "*0", "atom_type": "O2s"}, "3": {"label": "*4", "atom_type": "Cs"}, "4": {"label": "*3", "atom_type": "Cs"}, "9": {"label": "*2", "atom_type": "H0"}}

>  <type>  (15) 
unop_11

>  <geom_source>  (15) 
Heuristics

$$$$

     RDKit          3D

 14 12  0  0  0  0  0  0  0  0999 V2000
    0.9794   -0.8994    0.9214 O   0  0  0  0  0  0  0  0  0  0  0  0
    1.5953   -1.2842   -0.3043 O   0  0  0  0  0  0  0  0  0  0  0  0
    2.4155   -0.7817   -0.2673 H   0  0  0  0  0  0  0  0  0  0  0  0
   -0.9939    0.3333   -1.4233 C   0  0  0  0  0  0  0  0  0  0  0  0
   -0.9939    0.3333    0.1001 C   0  0  0  0  0  3  0  0  0  0  0  0
   -0.9939    1.7391    0.6868 C   0  0  0  0  0  0  0  0  0  0  0  0
   -0.1124    0.8476   -1.8139 H   0  0  0  0  0  0  0  0  0  0  0  0
   -1.8753    0.8476   -1.8139 H   0  0  0  0  0  0  0  0  0  0  0  0
   -0.9939   -0.6816   -1.8244 H   0  0  0  0  0  0  0  0  0  0  0  0
    0.0556   -0.3223    0.5369 H   0  0  0  0  0  0  0  0  0  0  0  0
   -1.8684   -0.2130    0.4641 H   0  0  0  0  0  0  0  0  0  0  0  0
   -1.8753    2.2977    0.3626 H   0  0  0  0  0  0  0  0  0  0  0  0
   -0.9939    1.7185    1.7779 H   0  0  0  0  0  0  0  0  0  0  0  0
   -0.1124    2.2977    0.3626 H   0  0  0  0  0  0  0  0  0  0  0  0
  1  2  1  0
  1 10  1  0
  2  3  1  0
  4  5  1  0
  4  7  1  0
  4  8  1  0
  4  9  1  0
  5  6  1  0
  5 11  1  0
  6 12  1  0
  6 13  1  0
  6 14  1  0
M  RAD  1   5   2
M  END
>  <reaction>  (16) 
rxn_297

>  <mol_properties>  (16) 
{"0": {"label": "*1", "atom_type": "O2s"}, "1": {"label": "*0", "atom_type": "O2s"}, "3": {"label": "*4", "atom_type": "Cs"}, "4": {"label": "*3", "atom_type": "Cs"}, "9": {"label": "*2", "atom_type": "H0"}}

>  <type>  (16) 
unop_12

>  <geom_source>  (16) 
Heuristics

$$$$

     RDKit          3D

 14 12  0  0  0  0  0  0  0  0999 V2000
    2.7857    0.2062   -0.1483 O   0  0  0  0  0  0  0  0  0  0  0  0
    2.0117   -0.6744   -0.7467 O   0  0  0  0  0  1  0  0  0  0  0  0
   -1.2271   -1.0275    0.4588 C   0  0  0  0  0  0  0  0  0  0  0  0
   -0.5519    1.3410   -0.0809 C   0  0  0  0  0  0  0  0  0  0  0  0
   -0.3290   -0.1346   -0.3885 C   0  0  0  0  0  0  0  0  0  0  0  0
   -1.0207   -0.8639    1.5376 H   0  0  0  0  0  0  0  0  0  0  0  0
   -2.2963   -0.8112    0.2490 H   0  0  0  0  0  0  0  0  0  0  0  0
   -1.0214   -2.0907    0.2159 H   0  0  0  0  0  0  0  0  0  0  0  0
    0.1313    1.9531   -0.7056 H   0  0  0  0  0  0  0  0  0  0  0  0
   -1.6007    1.6290   -0.3071 H   0  0  0  0  0  0  0  0  0  0  0  0
   -0.3337    1.5459    0.9884 H   0  0  0  0  0  0  0  0  0  0  0  0
   -0.5141   -0.3277   -1.4671 H   0  0  0  0  0  0  0  0  0  0  0  0
    3.1695   -0.2822    0.6233 H   0  0  0  0  0  0  0  0  0  0  0  0
    0.7967   -0.4631   -0.2288 H   0  0  0  0  0  0  0  0  0  0  0  0
  1  2  1  0
  1 13  1  0
  3  5  1  0
  3  6  1  0
  3  7  1  0
  3  8  1  0
  4  5  1  0
  4  9  1  0
  4 10  1  0
  4 11  1  0
  5 12  1  0
  5 14  1  0
M  RAD  1   2   2
M  END
>  <reaction>  (17) 
rxn_297

>  <mol_properties>  (17) 
{"0": {"label": "*1", "atom_type": "O2s"}, "1": {"label": "*0", "atom_type": "O2s"}, "3": {"label": "*4", "atom_type": "Cs"}, "4": {"label": "*3", "atom_type": "Cs"}, "9": {"label": "*2", "atom_type": "H0"}}

>  <type>  (17) 
unop_13

>  <geom_source>  (17) 
AutoTST

$$$$
