
     RDKit          3D

  7  6  0  0  0  0  0  0  0  0999 V2000
    1.2985   -0.0065   -0.2721 C   0  0  0  0  0  0  0  0  0  0  0  0
    0.0000    0.0000   -0.2926 C   0  0  0  0  0  0  0  0  0  0  0  0
   -1.2985    0.0065   -0.3130 C   0  0  0  0  0  0  0  0  0  0  0  0
    1.8444   -0.7551    0.2895 H   0  0  0  0  0  0  0  0  0  0  0  0
    1.8693    0.7364   -0.8162 H   0  0  0  0  0  0  0  0  0  0  0  0
   -1.8658    0.5623    0.4239 H   0  0  0  0  0  0  0  0  0  0  0  0
   -1.8479   -0.5437   -1.0675 H   0  0  0  0  0  0  0  0  0  0  0  0
  1  2  2  0
  1  4  1  0
  1  5  1  0
  2  3  2  0
  3  6  1  0
  3  7  1  0
M  END
>  <reaction>  (1) 
rxn_1787

>  <mol_properties>  (1) 
{"0": {"label": "donator", "atom_type": "Cd"}, "3": {"label": "d_hydrogen", "atom_type": "H0"}}

>  <type>  (1) 
r1h

$$$$

     RDKit          3D

 20 20  0  0  0  0  0  0  0  0999 V2000
   -2.4774    0.8083    0.1488 C   0  0  0  0  0  0  0  0  0  0  0  0
   -1.4172   -0.1696   -0.2476 C   0  0  0  0  0  3  0  0  0  0  0  0
   -0.2904    0.2932   -1.1156 C   0  0  0  0  0  0  0  0  0  0  0  0
   -1.4797   -1.5204    0.1947 C   0  0  0  0  0  0  0  0  0  0  0  0
   -0.4907   -2.4664   -0.1650 C   0  0  0  0  0  0  0  0  0  0  0  0
   -0.5559   -3.7750    0.2665 C   0  0  0  0  0  0  0  0  0  0  0  0
   -1.6038   -4.2041    1.0733 C   0  0  0  0  0  0  0  0  0  0  0  0
   -2.5899   -3.2959    1.4424 C   0  0  0  0  0  0  0  0  0  0  0  0
   -2.5339   -1.9852    1.0162 C   0  0  0  0  0  0  0  0  0  0  0  0
   -3.4697    0.4933   -0.1924 H   0  0  0  0  0  0  0  0  0  0  0  0
   -2.5434    0.9184    1.2368 H   0  0  0  0  0  0  0  0  0  0  0  0
   -2.2829    1.7944   -0.2706 H   0  0  0  0  0  0  0  0  0  0  0  0
   -0.2452   -0.2661   -2.0565 H   0  0  0  0  0  0  0  0  0  0  0  0
   -0.3905    1.3487   -1.3647 H   0  0  0  0  0  0  0  0  0  0  0  0
    0.6811    0.1589   -0.6274 H   0  0  0  0  0  0  0  0  0  0  0  0
    0.3373   -2.1635   -0.7918 H   0  0  0  0  0  0  0  0  0  0  0  0
    0.2187   -4.4725   -0.0281 H   0  0  0  0  0  0  0  0  0  0  0  0
   -1.6513   -5.2316    1.4097 H   0  0  0  0  0  0  0  0  0  0  0  0
   -3.4116   -3.6175    2.0706 H   0  0  0  0  0  0  0  0  0  0  0  0
   -3.3164   -1.3029    1.3205 H   0  0  0  0  0  0  0  0  0  0  0  0
  1  2  1  0
  1 10  1  0
  1 11  1  0
  1 12  1  0
  2  3  1  0
  2  4  1  0
  3 13  1  0
  3 14  1  0
  3 15  1  0
  4  5  2  0
  4  9  1  0
  5  6  1  0
  5 16  1  0
  6  7  2  0
  6 17  1  0
  7  8  1  0
  7 18  1  0
  8  9  2  0
  8 19  1  0
  9 20  1  0
M  RAD  1   2   2
M  END
>  <reaction>  (2) 
rxn_1787

>  <mol_properties>  (2) 
{"1": {"label": "acceptor", "atom_type": "Cs"}}

>  <type>  (2) 
r2

$$$$

     RDKit          3D

 21 21  0  0  0  0  0  0  0  0999 V2000
   -1.3695    1.3367   -1.0719 C   0  0  0  0  0  0  0  0  0  0  0  0
   -1.4091   -0.0981   -0.5428 C   0  0  0  0  0  0  0  0  0  0  0  0
   -0.1819   -0.3999    0.3191 C   0  0  0  0  0  0  0  0  0  0  0  0
   -1.5636   -1.1028   -1.6652 C   0  0  0  0  0  0  0  0  0  0  0  0
   -0.5920   -1.2314   -2.6553 C   0  0  0  0  0  0  0  0  0  0  0  0
   -0.7353   -2.1509   -3.6809 C   0  0  0  0  0  0  0  0  0  0  0  0
   -1.8582   -2.9642   -3.7377 C   0  0  0  0  0  0  0  0  0  0  0  0
   -2.8325   -2.8475   -2.7602 C   0  0  0  0  0  0  0  0  0  0  0  0
   -2.6828   -1.9241   -1.7351 C   0  0  0  0  0  0  0  0  0  0  0  0
   -0.4920    1.4974   -1.7025 H   0  0  0  0  0  0  0  0  0  0  0  0
   -2.2553    1.5607   -1.6679 H   0  0  0  0  0  0  0  0  0  0  0  0
   -1.3211    2.0496   -0.2461 H   0  0  0  0  0  0  0  0  0  0  0  0
   -2.2930   -0.1918    0.0948 H   0  0  0  0  0  0  0  0  0  0  0  0
   -0.1215    0.2955    1.1588 H   0  0  0  0  0  0  0  0  0  0  0  0
   -0.2200   -1.4155    0.7159 H   0  0  0  0  0  0  0  0  0  0  0  0
    0.7383   -0.3016   -0.2615 H   0  0  0  0  0  0  0  0  0  0  0  0
    0.2915   -0.6040   -2.6263 H   0  0  0  0  0  0  0  0  0  0  0  0
    0.0326   -2.2338   -4.4401 H   0  0  0  0  0  0  0  0  0  0  0  0
   -1.9712   -3.6833   -4.5391 H   0  0  0  0  0  0  0  0  0  0  0  0
   -3.7135   -3.4765   -2.7932 H   0  0  0  0  0  0  0  0  0  0  0  0
   -3.4509   -1.8400   -0.9743 H   0  0  0  0  0  0  0  0  0  0  0  0
  1  2  1  0
  1 10  1  0
  1 11  1  0
  1 12  1  0
  2  3  1  0
  2  4  1  0
  2 13  1  0
  3 14  1  0
  3 15  1  0
  3 16  1  0
  4  5  2  0
  4  9  1  0
  5  6  1  0
  5 17  1  0
  6  7  2  0
  6 18  1  0
  7  8  1  0
  7 19  1  0
  8  9  2  0
  8 20  1  0
  9 21  1  0
M  END
>  <reaction>  (3) 
rxn_1787

>  <mol_properties>  (3) 
{"0": {"label": "a_hydrogen", "atom_type": "H0"}, "2": {"label": "acceptor", "atom_type": "Cs"}}

>  <type>  (3) 
r2h

$$$$

     RDKit          3D

 27 26  0  0  0  0  0  0  0  0999 V2000
    1.8848    0.9784   -1.2605 C   0  0  0  0  0  0  0  0  0  0  0  0
    2.3524    0.7270   -2.4133 C   0  0  0  0  0  0  0  0  0  0  0  0
    2.7825    0.3662   -3.6069 C   0  0  0  0  0  3  0  0  0  0  0  0
    1.0648    0.0067   -0.7139 H   0  0  0  0  0  0  0  0  0  0  0  0
    1.9752    1.8085   -0.5791 H   0  0  0  0  0  0  0  0  0  0  0  0
    2.2293    0.6271   -4.5004 H   0  0  0  0  0  0  0  0  0  0  0  0
    3.7130   -0.1752   -3.7231 H   0  0  0  0  0  0  0  0  0  0  0  0
   -0.3911   -1.3857   -1.5459 C   0  0  0  0  0  0  0  0  0  0  0  0
    0.3034   -0.9361   -0.2771 C   0  0  0  0  0  0  0  0  0  0  0  0
    1.2848   -1.9574    0.2479 C   0  0  0  0  0  0  0  0  0  0  0  0
   -0.5656   -0.2548    0.7247 C   0  0  0  0  0  0  0  0  0  0  0  0
   -0.6239   -0.6572    2.0585 C   0  0  0  0  0  0  0  0  0  0  0  0
   -1.4320    0.0050    2.9712 C   0  0  0  0  0  0  0  0  0  0  0  0
   -2.1911    1.0930    2.5742 C   0  0  0  0  0  0  0  0  0  0  0  0
   -2.1349    1.5150    1.2528 C   0  0  0  0  0  0  0  0  0  0  0  0
   -1.3344    0.8489    0.3429 C   0  0  0  0  0  0  0  0  0  0  0  0
   -1.0441   -0.6148   -1.9534 H   0  0  0  0  0  0  0  0  0  0  0  0
    0.3445   -1.6435   -2.3106 H   0  0  0  0  0  0  0  0  0  0  0  0
   -1.0019   -2.2727   -1.3494 H   0  0  0  0  0  0  0  0  0  0  0  0
    0.7710   -2.8597    0.5960 H   0  0  0  0  0  0  0  0  0  0  0  0
    1.9697   -2.2553   -0.5476 H   0  0  0  0  0  0  0  0  0  0  0  0
    1.8791   -1.5641    1.0736 H   0  0  0  0  0  0  0  0  0  0  0  0
   -0.0420   -1.5058    2.3931 H   0  0  0  0  0  0  0  0  0  0  0  0
   -1.4662   -0.3341    3.9992 H   0  0  0  0  0  0  0  0  0  0  0  0
   -2.8190    1.6117    3.2873 H   0  0  0  0  0  0  0  0  0  0  0  0
   -2.7157    2.3706    0.9312 H   0  0  0  0  0  0  0  0  0  0  0  0
   -1.2882    1.2008   -0.6809 H   0  0  0  0  0  0  0  0  0  0  0  0
  1  2  3  0
  1  5  1  0
  2  3  1  0
  3  6  1  0
  3  7  1  0
  4  9  1  0
  8  9  1  0
  8 17  1  0
  8 18  1  0
  8 19  1  0
  9 10  1  0
  9 11  1  0
 10 20  1  0
 10 21  1  0
 10 22  1  0
 11 12  2  0
 11 16  1  0
 12 13  1  0
 12 23  1  0
 13 14  2  0
 13 24  1  0
 14 15  1  0
 14 25  1  0
 15 16  2  0
 15 26  1  0
 16 27  1  0
M  RAD  1   3   2
M  END
>  <reaction>  (4) 
rxn_1787

>  <mol_properties>  (4) 
{"0": {"label": "*3", "atom_type": "Ct"}, "1": {"label": "*4", "atom_type": "Ct"}, "3": {"label": "*2", "atom_type": "H0"}, "8": {"label": "*1", "atom_type": "Cs"}, "10": {"label": "*0", "atom_type": "Cd"}}

>  <type>  (4) 
ts

$$$$

     RDKit          3D

 27 26  0  0  0  0  0  0  0  0999 V2000
    2.1024    2.0677   -0.5571 C   0  0  0  0  0  0  0  0  0  0  0  0
    2.1024    2.0677   -1.8558 C   0  0  0  0  0  0  0  0  0  0  0  0
    2.1024    2.0677   -3.1544 C   0  0  0  0  0  0  0  0  0  0  0  0
    1.4388    1.1728    0.1130 H   0  0  0  0  0  0  0  0  0  0  0  0
    2.6554    2.8134    0.0013 H   0  0  0  0  0  0  0  0  0  0  0  0
    1.3566    2.6207   -3.7129 H   0  0  0  0  0  0  0  0  0  0  0  0
    2.8482    1.5147   -3.7129 H   0  0  0  0  0  0  0  0  0  0  0  0
    1.7701   -0.5000    1.6531 C   0  0  0  0  0  0  0  0  0  0  0  0
    0.7688    0.2692    0.7896 C   0  0  0  0  0  3  0  0  0  0  0  0
    0.4148    1.6148    1.4253 C   0  0  0  0  0  0  0  0  0  0  0  0
   -0.4687   -0.5549    0.5018 C   0  0  0  0  0  0  0  0  0  0  0  0
   -1.3057   -0.9805    1.5309 C   0  0  0  0  0  0  0  0  0  0  0  0
   -2.4369   -1.7341    1.2656 C   0  0  0  0  0  0  0  0  0  0  0  0
   -2.7557   -2.0790   -0.0402 C   0  0  0  0  0  0  0  0  0  0  0  0
   -1.9328   -1.6629   -1.0736 C   0  0  0  0  0  0  0  0  0  0  0  0
   -0.8007   -0.9080   -0.8009 C   0  0  0  0  0  0  0  0  0  0  0  0
    2.0410   -1.4498    1.1897 H   0  0  0  0  0  0  0  0  0  0  0  0
    2.6812    0.0843    1.7979 H   0  0  0  0  0  0  0  0  0  0  0  0
    1.3524   -0.7156    2.6392 H   0  0  0  0  0  0  0  0  0  0  0  0
   -0.0517    1.4752    2.4033 H   0  0  0  0  0  0  0  0  0  0  0  0
    1.3121    2.2204    1.5678 H   0  0  0  0  0  0  0  0  0  0  0  0
   -0.2818    2.1744    0.7994 H   0  0  0  0  0  0  0  0  0  0  0  0
   -1.0717   -0.7201    2.5568 H   0  0  0  0  0  0  0  0  0  0  0  0
   -3.0734   -2.0542    2.0812 H   0  0  0  0  0  0  0  0  0  0  0  0
   -3.6397   -2.6680   -0.2487 H   0  0  0  0  0  0  0  0  0  0  0  0
   -2.1705   -1.9255   -2.0971 H   0  0  0  0  0  0  0  0  0  0  0  0
   -0.1625   -0.5867   -1.6166 H   0  0  0  0  0  0  0  0  0  0  0  0
  1  2  2  0
  1  4  1  0
  1  5  1  0
  2  3  2  0
  3  6  1  0
  3  7  1  0
  8  9  1  0
  8 17  1  0
  8 18  1  0
  8 19  1  0
  9 10  1  0
  9 11  1  0
 10 20  1  0
 10 21  1  0
 10 22  1  0
 11 12  2  0
 11 16  1  0
 12 13  1  0
 12 23  1  0
 13 14  2  0
 13 24  1  0
 14 15  1  0
 14 25  1  0
 15 16  2  0
 15 26  1  0
 16 27  1  0
M  RAD  1   9   2
M  END
>  <reaction>  (5) 
rxn_1787

>  <mol_properties>  (5) 
{"0": {"label": "*3", "atom_type": "Ct"}, "1": {"label": "*4", "atom_type": "Ct"}, "3": {"label": "*2", "atom_type": "H0"}, "8": {"label": "*1", "atom_type": "Cs"}, "10": {"label": "*0", "atom_type": "Cd"}}

>  <type>  (5) 
unop_1

>  <geom_source>  (5) 
Heuristics

$$$$

     RDKit          3D

 27 26  0  0  0  0  0  0  0  0999 V2000
    2.1728    1.1855   -1.2724 C   0  0  0  0  0  0  0  0  0  0  0  0
    2.1728    1.1855   -2.5710 C   0  0  0  0  0  0  0  0  0  0  0  0
    2.1728    1.1855   -3.8697 C   0  0  0  0  0  0  0  0  0  0  0  0
    1.5092    0.2906   -0.6023 H   0  0  0  0  0  0  0  0  0  0  0  0
    2.7258    1.9313   -0.7139 H   0  0  0  0  0  0  0  0  0  0  0  0
    1.4270    1.7385   -4.4281 H   0  0  0  0  0  0  0  0  0  0  0  0
    2.9185    0.6325   -4.4281 H   0  0  0  0  0  0  0  0  0  0  0  0
    0.8005   -1.8888   -0.7687 C   0  0  0  0  0  0  0  0  0  0  0  0
    0.8391   -0.6130    0.0743 C   0  0  0  0  0  3  0  0  0  0  0  0
    1.9277   -0.6952    1.1459 C   0  0  0  0  0  0  0  0  0  0  0  0
   -0.5147   -0.3009    0.6768 C   0  0  0  0  0  0  0  0  0  0  0  0
   -1.1204   -1.1740    1.5777 C   0  0  0  0  0  0  0  0  0  0  0  0
   -2.3586   -0.8868    2.1276 C   0  0  0  0  0  0  0  0  0  0  0  0
   -3.0193    0.2848    1.7862 C   0  0  0  0  0  0  0  0  0  0  0  0
   -2.4293    1.1624    0.8918 C   0  0  0  0  0  0  0  0  0  0  0  0
   -1.1884    0.8685    0.3444 C   0  0  0  0  0  0  0  0  0  0  0  0
    0.0399   -1.8225   -1.5480 H   0  0  0  0  0  0  0  0  0  0  0  0
    1.7672   -2.0638   -1.2455 H   0  0  0  0  0  0  0  0  0  0  0  0
    0.5714   -2.7599   -0.1506 H   0  0  0  0  0  0  0  0  0  0  0  0
    1.7392   -1.5234    1.8329 H   0  0  0  0  0  0  0  0  0  0  0  0
    2.9057   -0.8581    0.6884 H   0  0  0  0  0  0  0  0  0  0  0  0
    1.9717    0.2231    1.7332 H   0  0  0  0  0  0  0  0  0  0  0  0
   -0.6183   -2.0937    1.8555 H   0  0  0  0  0  0  0  0  0  0  0  0
   -2.8108   -1.5801    2.8260 H   0  0  0  0  0  0  0  0  0  0  0  0
   -3.9873    0.5102    2.2155 H   0  0  0  0  0  0  0  0  0  0  0  0
   -2.9347    2.0800    0.6173 H   0  0  0  0  0  0  0  0  0  0  0  0
   -0.7344    1.5617   -0.3550 H   0  0  0  0  0  0  0  0  0  0  0  0
  1  2  2  0
  1  4  1  0
  1  5  1  0
  2  3  2  0
  3  6  1  0
  3  7  1  0
  8  9  1  0
  8 17  1  0
  8 18  1  0
  8 19  1  0
  9 10  1  0
  9 11  1  0
 10 20  1  0
 10 21  1  0
 10 22  1  0
 11 12  2  0
 11 16  1  0
 12 13  1  0
 12 23  1  0
 13 14  2  0
 13 24  1  0
 14 15  1  0
 14 25  1  0
 15 16  2  0
 15 26  1  0
 16 27  1  0
M  RAD  1   9   2
M  END
>  <reaction>  (6) 
rxn_1787

>  <mol_properties>  (6) 
{"0": {"label": "*3", "atom_type": "Ct"}, "1": {"label": "*4", "atom_type": "Ct"}, "3": {"label": "*2", "atom_type": "H0"}, "8": {"label": "*1", "atom_type": "Cs"}, "10": {"label": "*0", "atom_type": "Cd"}}

>  <type>  (6) 
unop_2

>  <geom_source>  (6) 
Heuristics

$$$$

     RDKit          3D

 27 26  0  0  0  0  0  0  0  0999 V2000
    1.5992    2.4708   -0.3221 C   0  0  0  0  0  0  0  0  0  0  0  0
    1.5992    2.4708   -1.6208 C   0  0  0  0  0  0  0  0  0  0  0  0
    1.5992    2.4708   -2.9194 C   0  0  0  0  0  0  0  0  0  0  0  0
    0.9356    1.5759    0.3480 H   0  0  0  0  0  0  0  0  0  0  0  0
    2.1522    3.2165    0.2363 H   0  0  0  0  0  0  0  0  0  0  0  0
    0.8534    3.0238   -3.4778 H   0  0  0  0  0  0  0  0  0  0  0  0
    2.3450    1.9178   -3.4778 H   0  0  0  0  0  0  0  0  0  0  0  0
    1.0021    0.4419    2.3453 C   0  0  0  0  0  0  0  0  0  0  0  0
    0.2656    0.6723    1.0246 C   0  0  0  0  0  3  0  0  0  0  0  0
   -0.7858    1.7743    1.1668 C   0  0  0  0  0  0  0  0  0  0  0  0
   -0.3385   -0.6099    0.4913 C   0  0  0  0  0  0  0  0  0  0  0  0
   -1.3194   -1.2949    1.2050 C   0  0  0  0  0  0  0  0  0  0  0  0
   -1.8706   -2.4674    0.7155 C   0  0  0  0  0  0  0  0  0  0  0  0
   -1.4501   -2.9810   -0.5031 C   0  0  0  0  0  0  0  0  0  0  0  0
   -0.4756   -2.3107   -1.2237 C   0  0  0  0  0  0  0  0  0  0  0  0
    0.0726   -1.1364   -0.7276 C   0  0  0  0  0  0  0  0  0  0  0  0
    1.7679   -0.3280    2.2396 H   0  0  0  0  0  0  0  0  0  0  0  0
    1.4837    1.3621    2.6824 H   0  0  0  0  0  0  0  0  0  0  0  0
    0.3111    0.1214    3.1284 H   0  0  0  0  0  0  0  0  0  0  0  0
   -1.5411    1.5018    1.9075 H   0  0  0  0  0  0  0  0  0  0  0  0
   -0.3222    2.7080    1.4920 H   0  0  0  0  0  0  0  0  0  0  0  0
   -1.2962    1.9556    0.2198 H   0  0  0  0  0  0  0  0  0  0  0  0
   -1.6596   -0.9078    2.1587 H   0  0  0  0  0  0  0  0  0  0  0  0
   -2.6320   -2.9834    1.2872 H   0  0  0  0  0  0  0  0  0  0  0  0
   -1.8803   -3.8975   -0.8866 H   0  0  0  0  0  0  0  0  0  0  0  0
   -0.1388   -2.7013   -2.1761 H   0  0  0  0  0  0  0  0  0  0  0  0
    0.8351   -0.6186   -1.2989 H   0  0  0  0  0  0  0  0  0  0  0  0
  1  2  2  0
  1  4  1  0
  1  5  1  0
  2  3  2  0
  3  6  1  0
  3  7  1  0
  8  9  1  0
  8 17  1  0
  8 18  1  0
  8 19  1  0
  9 10  1  0
  9 11  1  0
 10 20  1  0
 10 21  1  0
 10 22  1  0
 11 12  2  0
 11 16  1  0
 12 13  1  0
 12 23  1  0
 13 14  2  0
 13 24  1  0
 14 15  1  0
 14 25  1  0
 15 16  2  0
 15 26  1  0
 16 27  1  0
M  RAD  1   9   2
M  END
>  <reaction>  (7) 
rxn_1787

>  <mol_properties>  (7) 
{"0": {"label": "*3", "atom_type": "Ct"}, "1": {"label": "*4", "atom_type": "Ct"}, "3": {"label": "*2", "atom_type": "H0"}, "8": {"label": "*1", "atom_type": "Cs"}, "10": {"label": "*0", "atom_type": "Cd"}}

>  <type>  (7) 
unop_3

>  <geom_source>  (7) 
Heuristics

$$$$

     RDKit          3D

 27 26  0  0  0  0  0  0  0  0999 V2000
    0.7573    0.5733   -1.7288 C   0  0  0  0  0  0  0  0  0  0  0  0
    0.7573    0.5733   -3.0275 C   0  0  0  0  0  0  0  0  0  0  0  0
    0.7573    0.5733   -4.3261 C   0  0  0  0  0  0  0  0  0  0  0  0
    0.0937   -0.3216   -1.0587 H   0  0  0  0  0  0  0  0  0  0  0  0
    1.3103    1.3191   -1.1704 H   0  0  0  0  0  0  0  0  0  0  0  0
    0.0115    1.1263   -4.8846 H   0  0  0  0  0  0  0  0  0  0  0  0
    1.5031    0.0203   -4.8846 H   0  0  0  0  0  0  0  0  0  0  0  0
   -2.0508   -1.0939   -0.7679 C   0  0  0  0  0  0  0  0  0  0  0  0
   -0.5763   -1.2252   -0.3821 C   0  0  0  0  0  3  0  0  0  0  0  0
   -0.2290   -2.6709   -0.0228 C   0  0  0  0  0  0  0  0  0  0  0  0
   -0.2033   -0.2684    0.7309 C   0  0  0  0  0  0  0  0  0  0  0  0
   -0.7967   -0.3599    1.9880 C   0  0  0  0  0  0  0  0  0  0  0  0
   -0.4541    0.5161    3.0045 C   0  0  0  0  0  0  0  0  0  0  0  0
    0.4930    1.5059    2.7836 C   0  0  0  0  0  0  0  0  0  0  0  0
    1.0913    1.6089    1.5388 C   0  0  0  0  0  0  0  0  0  0  0  0
    0.7436    0.7279    0.5244 C   0  0  0  0  0  0  0  0  0  0  0  0
   -2.2946   -0.0677   -1.0464 H   0  0  0  0  0  0  0  0  0  0  0  0
   -2.2865   -1.7448   -1.6124 H   0  0  0  0  0  0  0  0  0  0  0  0
   -2.6999   -1.3785    0.0634 H   0  0  0  0  0  0  0  0  0  0  0  0
   -0.8126   -3.0123    0.8353 H   0  0  0  0  0  0  0  0  0  0  0  0
   -0.4463   -3.3378   -0.8598 H   0  0  0  0  0  0  0  0  0  0  0  0
    0.8275   -2.7703    0.2305 H   0  0  0  0  0  0  0  0  0  0  0  0
   -1.5385   -1.1271    2.1779 H   0  0  0  0  0  0  0  0  0  0  0  0
   -0.9282    0.4266    3.9742 H   0  0  0  0  0  0  0  0  0  0  0  0
    0.7615    2.1912    3.5776 H   0  0  0  0  0  0  0  0  0  0  0  0
    1.8320    2.3770    1.3537 H   0  0  0  0  0  0  0  0  0  0  0  0
    1.2174    0.8164   -0.4469 H   0  0  0  0  0  0  0  0  0  0  0  0
  1  2  2  0
  1  4  1  0
  1  5  1  0
  2  3  2  0
  3  6  1  0
  3  7  1  0
  8  9  1  0
  8 17  1  0
  8 18  1  0
  8 19  1  0
  9 10  1  0
  9 11  1  0
 10 20  1  0
 10 21  1  0
 10 22  1  0
 11 12  2  0
 11 16  1  0
 12 13  1  0
 12 23  1  0
 13 14  2  0
 13 24  1  0
 14 15  1  0
 14 25  1  0
 15 16  2  0
 15 26  1  0
 16 27  1  0
M  RAD  1   9   2
M  END
>  <reaction>  (8) 
rxn_1787

>  <mol_properties>  (8) 
{"0": {"label": "*3", "atom_type": "Ct"}, "1": {"label": "*4", "atom_type": "Ct"}, "3": {"label": "*2", "atom_type": "H0"}, "8": {"label": "*1", "atom_type": "Cs"}, "10": {"label": "*0", "atom_type": "Cd"}}

>  <type>  (8) 
unop_4

>  <geom_source>  (8) 
Heuristics

$$$$

     RDKit          3D

 27 26  0  0  0  0  0  0  0  0999 V2000
    0.5973    2.5808   -0.4184 C   0  0  0  0  0  0  0  0  0  0  0  0
    0.5973    2.5808   -1.7171 C   0  0  0  0  0  0  0  0  0  0  0  0
    0.5973    2.5808   -3.0158 C   0  0  0  0  0  0  0  0  0  0  0  0
   -0.0663    1.6859    0.2517 H   0  0  0  0  0  0  0  0  0  0  0  0
    1.1504    3.3265    0.1400 H   0  0  0  0  0  0  0  0  0  0  0  0
   -0.1484    3.1338   -3.5742 H   0  0  0  0  0  0  0  0  0  0  0  0
    1.3431    2.0278   -3.5742 H   0  0  0  0  0  0  0  0  0  0  0  0
   -0.5253    1.0669    2.4164 C   0  0  0  0  0  0  0  0  0  0  0  0
   -0.7363    0.7823    0.9283 C   0  0  0  0  0  3  0  0  0  0  0  0
   -2.2115    0.9174    0.5468 C   0  0  0  0  0  0  0  0  0  0  0  0
   -0.1794   -0.5696    0.5341 C   0  0  0  0  0  0  0  0  0  0  0  0
   -0.6855   -1.7451    1.0846 C   0  0  0  0  0  0  0  0  0  0  0  0
   -0.1748   -2.9805    0.7228 C   0  0  0  0  0  0  0  0  0  0  0  0
    0.8571   -3.0661   -0.2011 C   0  0  0  0  0  0  0  0  0  0  0  0
    1.3702   -1.9058   -0.7567 C   0  0  0  0  0  0  0  0  0  0  0  0
    0.8540   -0.6710   -0.3899 C   0  0  0  0  0  0  0  0  0  0  0  0
    0.5295    0.9933    2.6852 H   0  0  0  0  0  0  0  0  0  0  0  0
   -0.8756    2.0697    2.6693 H   0  0  0  0  0  0  0  0  0  0  0  0
   -1.0786    0.3552    3.0335 H   0  0  0  0  0  0  0  0  0  0  0  0
   -2.8255    0.2003    1.0967 H   0  0  0  0  0  0  0  0  0  0  0  0
   -2.5789    1.9187    0.7809 H   0  0  0  0  0  0  0  0  0  0  0  0
   -2.3604    0.7371   -0.5188 H   0  0  0  0  0  0  0  0  0  0  0  0
   -1.4916   -1.6967    1.8078 H   0  0  0  0  0  0  0  0  0  0  0  0
   -0.5836   -3.8814    1.1635 H   0  0  0  0  0  0  0  0  0  0  0  0
    1.2570   -4.0313   -0.4846 H   0  0  0  0  0  0  0  0  0  0  0  0
    2.1756   -1.9592   -1.4788 H   0  0  0  0  0  0  0  0  0  0  0  0
    1.2622    0.2319   -0.8303 H   0  0  0  0  0  0  0  0  0  0  0  0
  1  2  2  0
  1  4  1  0
  1  5  1  0
  2  3  2  0
  3  6  1  0
  3  7  1  0
  8  9  1  0
  8 17  1  0
  8 18  1  0
  8 19  1  0
  9 10  1  0
  9 11  1  0
 10 20  1  0
 10 21  1  0
 10 22  1  0
 11 12  2  0
 11 16  1  0
 12 13  1  0
 12 23  1  0
 13 14  2  0
 13 24  1  0
 14 15  1  0
 14 25  1  0
 15 16  2  0
 15 26  1  0
 16 27  1  0
M  RAD  1   9   2
M  END
>  <reaction>  (9) 
rxn_1787

>  <mol_properties>  (9) 
{"0": {"label": "*3", "atom_type": "Ct"}, "1": {"label": "*4", "atom_type": "Ct"}, "3": {"label": "*2", "atom_type": "H0"}, "8": {"label": "*1", "atom_type": "Cs"}, "10": {"label": "*0", "atom_type": "Cd"}}

>  <type>  (9) 
unop_5

>  <geom_source>  (9) 
Heuristics

$$$$

     RDKit          3D

 27 26  0  0  0  0  0  0  0  0999 V2000
    0.1875    0.8721   -1.6141 C   0  0  0  0  0  0  0  0  0  0  0  0
    0.1875    0.8721   -2.9128 C   0  0  0  0  0  0  0  0  0  0  0  0
    0.1875    0.8721   -4.2115 C   0  0  0  0  0  0  0  0  0  0  0  0
   -0.4761   -0.0228   -0.9440 H   0  0  0  0  0  0  0  0  0  0  0  0
    0.7405    1.6178   -1.0557 H   0  0  0  0  0  0  0  0  0  0  0  0
   -0.5583    1.4251   -4.7699 H   0  0  0  0  0  0  0  0  0  0  0  0
    0.9332    0.3191   -4.7699 H   0  0  0  0  0  0  0  0  0  0  0  0
   -2.5537   -0.3770   -0.0286 C   0  0  0  0  0  0  0  0  0  0  0  0
   -1.1462   -0.9264   -0.2674 C   0  0  0  0  0  3  0  0  0  0  0  0
   -1.1349   -2.4548   -0.2050 C   0  0  0  0  0  0  0  0  0  0  0  0
   -0.1410   -0.3213    0.6899 C   0  0  0  0  0  0  0  0  0  0  0  0
   -0.2508   -0.5131    2.0654 C   0  0  0  0  0  0  0  0  0  0  0  0
    0.6695    0.0412    2.9393 C   0  0  0  0  0  0  0  0  0  0  0  0
    1.7234    0.8021    2.4533 C   0  0  0  0  0  0  0  0  0  0  0  0
    1.8454    1.0013    1.0881 C   0  0  0  0  0  0  0  0  0  0  0  0
    0.9197    0.4430    0.2179 C   0  0  0  0  0  0  0  0  0  0  0  0
   -2.5676    0.7118   -0.0955 H   0  0  0  0  0  0  0  0  0  0  0  0
   -3.2524   -0.7760   -0.7669 H   0  0  0  0  0  0  0  0  0  0  0  0
   -2.9203   -0.6564    0.9619 H   0  0  0  0  0  0  0  0  0  0  0  0
   -1.4505   -2.8088    0.7792 H   0  0  0  0  0  0  0  0  0  0  0  0
   -1.8193   -2.8747   -0.9450 H   0  0  0  0  0  0  0  0  0  0  0  0
   -0.1361   -2.8490   -0.3977 H   0  0  0  0  0  0  0  0  0  0  0  0
   -1.0679   -1.1047    2.4623 H   0  0  0  0  0  0  0  0  0  0  0  0
    0.5646   -0.1209    4.0050 H   0  0  0  0  0  0  0  0  0  0  0  0
    2.4434    1.2358    3.1356 H   0  0  0  0  0  0  0  0  0  0  0  0
    2.6634    1.5931    0.6962 H   0  0  0  0  0  0  0  0  0  0  0  0
    1.0235    0.6045   -0.8494 H   0  0  0  0  0  0  0  0  0  0  0  0
  1  2  2  0
  1  4  1  0
  1  5  1  0
  2  3  2  0
  3  6  1  0
  3  7  1  0
  8  9  1  0
  8 17  1  0
  8 18  1  0
  8 19  1  0
  9 10  1  0
  9 11  1  0
 10 20  1  0
 10 21  1  0
 10 22  1  0
 11 12  2  0
 11 16  1  0
 12 13  1  0
 12 23  1  0
 13 14  2  0
 13 24  1  0
 14 15  1  0
 14 25  1  0
 15 16  2  0
 15 26  1  0
 16 27  1  0
M  RAD  1   9   2
M  END
>  <reaction>  (10) 
rxn_1787

>  <mol_properties>  (10) 
{"0": {"label": "*3", "atom_type": "Ct"}, "1": {"label": "*4", "atom_type": "Ct"}, "3": {"label": "*2", "atom_type": "H0"}, "8": {"label": "*1", "atom_type": "Cs"}, "10": {"label": "*0", "atom_type": "Cd"}}

>  <type>  (10) 
unop_6

>  <geom_source>  (10) 
Heuristics

$$$$

     RDKit          3D

 27 26  0  0  0  0  0  0  0  0999 V2000
   -0.1626    1.3665   -1.3171 C   0  0  0  0  0  0  0  0  0  0  0  0
   -0.1626    1.3665   -2.6158 C   0  0  0  0  0  0  0  0  0  0  0  0
   -0.1626    1.3665   -3.9145 C   0  0  0  0  0  0  0  0  0  0  0  0
   -0.8262    0.4716   -0.6470 H   0  0  0  0  0  0  0  0  0  0  0  0
    0.3904    2.1122   -0.7587 H   0  0  0  0  0  0  0  0  0  0  0  0
   -0.9084    1.9195   -4.4729 H   0  0  0  0  0  0  0  0  0  0  0  0
    0.5832    0.8135   -4.4729 H   0  0  0  0  0  0  0  0  0  0  0  0
   -2.5231    0.3028    0.8930 C   0  0  0  0  0  0  0  0  0  0  0  0
   -1.4963   -0.4320    0.0296 C   0  0  0  0  0  3  0  0  0  0  0  0
   -1.9376   -1.8708   -0.2443 C   0  0  0  0  0  0  0  0  0  0  0  0
   -0.1123   -0.3797    0.6421 C   0  0  0  0  0  0  0  0  0  0  0  0
    0.1485   -0.9583    1.8823 C   0  0  0  0  0  0  0  0  0  0  0  0
    1.4149   -0.9094    2.4407 C   0  0  0  0  0  0  0  0  0  0  0  0
    2.4510   -0.2779    1.7673 C   0  0  0  0  0  0  0  0  0  0  0  0
    2.2065    0.3018    0.5334 C   0  0  0  0  0  0  0  0  0  0  0  0
    0.9352    0.2492   -0.0206 C   0  0  0  0  0  0  0  0  0  0  0  0
   -2.2208    1.3360    1.0701 H   0  0  0  0  0  0  0  0  0  0  0  0
   -3.5006    0.3090    0.4062 H   0  0  0  0  0  0  0  0  0  0  0  0
   -2.6379   -0.1837    1.8644 H   0  0  0  0  0  0  0  0  0  0  0  0
   -2.0313   -2.4355    0.6862 H   0  0  0  0  0  0  0  0  0  0  0  0
   -2.9091   -1.8866   -0.7426 H   0  0  0  0  0  0  0  0  0  0  0  0
   -1.2174   -2.3892   -0.8789 H   0  0  0  0  0  0  0  0  0  0  0  0
   -0.6492   -1.4556    2.4220 H   0  0  0  0  0  0  0  0  0  0  0  0
    1.5950   -1.3660    3.4061 H   0  0  0  0  0  0  0  0  0  0  0  0
    3.4413   -0.2391    2.2030 H   0  0  0  0  0  0  0  0  0  0  0  0
    3.0066    0.7976   -0.0022 H   0  0  0  0  0  0  0  0  0  0  0  0
    0.7534    0.7060   -0.9871 H   0  0  0  0  0  0  0  0  0  0  0  0
  1  2  2  0
  1  4  1  0
  1  5  1  0
  2  3  2  0
  3  6  1  0
  3  7  1  0
  8  9  1  0
  8 17  1  0
  8 18  1  0
  8 19  1  0
  9 10  1  0
  9 11  1  0
 10 20  1  0
 10 21  1  0
 10 22  1  0
 11 12  2  0
 11 16  1  0
 12 13  1  0
 12 23  1  0
 13 14  2  0
 13 24  1  0
 14 15  1  0
 14 25  1  0
 15 16  2  0
 15 26  1  0
 16 27  1  0
M  RAD  1   9   2
M  END
>  <reaction>  (11) 
rxn_1787

>  <mol_properties>  (11) 
{"0": {"label": "*3", "atom_type": "Ct"}, "1": {"label": "*4", "atom_type": "Ct"}, "3": {"label": "*2", "atom_type": "H0"}, "8": {"label": "*1", "atom_type": "Cs"}, "10": {"label": "*0", "atom_type": "Cd"}}

>  <type>  (11) 
unop_7

>  <geom_source>  (11) 
Heuristics

$$$$

     RDKit          3D

 27 26  0  0  0  0  0  0  0  0999 V2000
    2.2508    1.7445   -0.8472 C   0  0  0  0  0  0  0  0  0  0  0  0
    2.2508    1.7445   -2.1458 C   0  0  0  0  0  0  0  0  0  0  0  0
    2.2508    1.7445   -3.4445 C   0  0  0  0  0  0  0  0  0  0  0  0
    1.5872    0.8496   -0.1771 H   0  0  0  0  0  0  0  0  0  0  0  0
    2.8038    2.4903   -0.2887 H   0  0  0  0  0  0  0  0  0  0  0  0
    1.5051    2.2975   -4.0029 H   0  0  0  0  0  0  0  0  0  0  0  0
    2.9966    1.1915   -4.0029 H   0  0  0  0  0  0  0  0  0  0  0  0
    1.8516   -1.2413    0.7384 C   0  0  0  0  0  0  0  0  0  0  0  0
    0.9172   -0.0540    0.4995 C   0  0  0  0  0  3  0  0  0  0  0  0
    1.2115    1.0828    1.4799 C   0  0  0  0  0  0  0  0  0  0  0  0
   -0.5380   -0.4703    0.5484 C   0  0  0  0  0  0  0  0  0  0  0  0
   -1.0980   -0.9955    1.7109 C   0  0  0  0  0  0  0  0  0  0  0  0
   -2.4290   -1.3756    1.7535 C   0  0  0  0  0  0  0  0  0  0  0  0
   -3.2308   -1.2378    0.6293 C   0  0  0  0  0  0  0  0  0  0  0  0
   -2.6877   -0.7172   -0.5336 C   0  0  0  0  0  0  0  0  0  0  0  0
   -1.3532   -0.3382   -0.5696 C   0  0  0  0  0  0  0  0  0  0  0  0
    1.6582   -2.0438    0.0252 H   0  0  0  0  0  0  0  0  0  0  0  0
    2.8951   -0.9355    0.6374 H   0  0  0  0  0  0  0  0  0  0  0  0
    1.7194   -1.6477    1.7438 H   0  0  0  0  0  0  0  0  0  0  0  0
    1.0563    0.7600    2.5119 H   0  0  0  0  0  0  0  0  0  0  0  0
    2.2485    1.4121    1.3864 H   0  0  0  0  0  0  0  0  0  0  0  0
    0.5611    1.9392    1.2959 H   0  0  0  0  0  0  0  0  0  0  0  0
   -0.4860   -1.1100    2.5983 H   0  0  0  0  0  0  0  0  0  0  0  0
   -2.8434   -1.7816    2.6680 H   0  0  0  0  0  0  0  0  0  0  0  0
   -4.2714   -1.5347    0.6616 H   0  0  0  0  0  0  0  0  0  0  0  0
   -3.3030   -0.6046   -1.4177 H   0  0  0  0  0  0  0  0  0  0  0  0
   -0.9370    0.0684   -1.4846 H   0  0  0  0  0  0  0  0  0  0  0  0
  1  2  2  0
  1  4  1  0
  1  5  1  0
  2  3  2  0
  3  6  1  0
  3  7  1  0
  8  9  1  0
  8 17  1  0
  8 18  1  0
  8 19  1  0
  9 10  1  0
  9 11  1  0
 10 20  1  0
 10 21  1  0
 10 22  1  0
 11 12  2  0
 11 16  1  0
 12 13  1  0
 12 23  1  0
 13 14  2  0
 13 24  1  0
 14 15  1  0
 14 25  1  0
 15 16  2  0
 15 26  1  0
 16 27  1  0
M  RAD  1   9   2
M  END
>  <reaction>  (12) 
rxn_1787

>  <mol_properties>  (12) 
{"0": {"label": "*3", "atom_type": "Ct"}, "1": {"label": "*4", "atom_type": "Ct"}, "3": {"label": "*2", "atom_type": "H0"}, "8": {"label": "*1", "atom_type": "Cs"}, "10": {"label": "*0", "atom_type": "Cd"}}

>  <type>  (12) 
unop_8

>  <geom_source>  (12) 
Heuristics

$$$$

     RDKit          3D

 27 26  0  0  0  0  0  0  0  0999 V2000
    1.4035    0.5489   -1.6577 C   0  0  0  0  0  0  0  0  0  0  0  0
    1.4035    0.5489   -2.9564 C   0  0  0  0  0  0  0  0  0  0  0  0
    1.4035    0.5489   -4.2551 C   0  0  0  0  0  0  0  0  0  0  0  0
    0.7398   -0.3460   -0.9876 H   0  0  0  0  0  0  0  0  0  0  0  0
    1.9565    1.2947   -1.0993 H   0  0  0  0  0  0  0  0  0  0  0  0
    0.6577    1.1019   -4.8135 H   0  0  0  0  0  0  0  0  0  0  0  0
    2.1492   -0.0041   -4.8135 H   0  0  0  0  0  0  0  0  0  0  0  0
   -1.1398   -1.6571   -1.1541 C   0  0  0  0  0  0  0  0  0  0  0  0
    0.0698   -1.2496   -0.3110 C   0  0  0  0  0  3  0  0  0  0  0  0
    0.7521   -2.4751    0.2994 C   0  0  0  0  0  0  0  0  0  0  0  0
   -0.3046   -0.2339    0.7479 C   0  0  0  0  0  0  0  0  0  0  0  0
   -1.2141   -0.5466    1.7559 C   0  0  0  0  0  0  0  0  0  0  0  0
   -1.5552    0.3838    2.7234 C   0  0  0  0  0  0  0  0  0  0  0  0
   -0.9911    1.6515    2.7027 C   0  0  0  0  0  0  0  0  0  0  0  0
   -0.0853    1.9765    1.7066 C   0  0  0  0  0  0  0  0  0  0  0  0
    0.2521    1.0397    0.7400 C   0  0  0  0  0  0  0  0  0  0  0  0
   -1.6139   -0.7860   -1.6086 H   0  0  0  0  0  0  0  0  0  0  0  0
   -0.8400   -2.3407   -1.9511 H   0  0  0  0  0  0  0  0  0  0  0  0
   -1.8894   -2.1657   -0.5434 H   0  0  0  0  0  0  0  0  0  0  0  0
    0.0706   -3.0131    0.9624 H   0  0  0  0  0  0  0  0  0  0  0  0
    1.0709   -3.1669   -0.4830 H   0  0  0  0  0  0  0  0  0  0  0  0
    1.6284   -2.1879    0.8823 H   0  0  0  0  0  0  0  0  0  0  0  0
   -1.6643   -1.5322    1.7871 H   0  0  0  0  0  0  0  0  0  0  0  0
   -2.2645    0.1190    3.4978 H   0  0  0  0  0  0  0  0  0  0  0  0
   -1.2571    2.3794    3.4586 H   0  0  0  0  0  0  0  0  0  0  0  0
    0.3619    2.9625    1.6794 H   0  0  0  0  0  0  0  0  0  0  0  0
    0.9622    1.3033   -0.0359 H   0  0  0  0  0  0  0  0  0  0  0  0
  1  2  2  0
  1  4  1  0
  1  5  1  0
  2  3  2  0
  3  6  1  0
  3  7  1  0
  8  9  1  0
  8 17  1  0
  8 18  1  0
  8 19  1  0
  9 10  1  0
  9 11  1  0
 10 20  1  0
 10 21  1  0
 10 22  1  0
 11 12  2  0
 11 16  1  0
 12 13  1  0
 12 23  1  0
 13 14  2  0
 13 24  1  0
 14 15  1  0
 14 25  1  0
 15 16  2  0
 15 26  1  0
 16 27  1  0
M  RAD  1   9   2
M  END
>  <reaction>  (13) 
rxn_1787

>  <mol_properties>  (13) 
{"0": {"label": "*3", "atom_type": "Ct"}, "1": {"label": "*4", "atom_type": "Ct"}, "3": {"label": "*2", "atom_type": "H0"}, "8": {"label": "*1", "atom_type": "Cs"}, "10": {"label": "*0", "atom_type": "Cd"}}

>  <type>  (13) 
unop_9

>  <geom_source>  (13) 
Heuristics

$$$$

     RDKit          3D

 27 26  0  0  0  0  0  0  0  0999 V2000
    2.2527    1.4860   -1.0834 C   0  0  0  0  0  0  0  0  0  0  0  0
    2.2527    1.4860   -2.3821 C   0  0  0  0  0  0  0  0  0  0  0  0
    2.2527    1.4860   -3.6808 C   0  0  0  0  0  0  0  0  0  0  0  0
    1.5891    0.5911   -0.4133 H   0  0  0  0  0  0  0  0  0  0  0  0
    2.8058    2.2318   -0.5250 H   0  0  0  0  0  0  0  0  0  0  0  0
    1.5070    2.0390   -4.2392 H   0  0  0  0  0  0  0  0  0  0  0  0
    2.9985    0.9330   -4.2392 H   0  0  0  0  0  0  0  0  0  0  0  0
    1.4729   -1.6852   -0.1225 C   0  0  0  0  0  0  0  0  0  0  0  0
    0.9191   -0.3125    0.2633 C   0  0  0  0  0  3  0  0  0  0  0  0
    1.7373    0.3119    1.3949 C   0  0  0  0  0  0  0  0  0  0  0  0
   -0.5529   -0.3823    0.6117 C   0  0  0  0  0  0  0  0  0  0  0  0
   -1.0024   -1.1418    1.6897 C   0  0  0  0  0  0  0  0  0  0  0  0
   -2.3491   -1.2044    2.0067 C   0  0  0  0  0  0  0  0  0  0  0  0
   -3.2780   -0.5055    1.2488 C   0  0  0  0  0  0  0  0  0  0  0  0
   -2.8458    0.2538    0.1741 C   0  0  0  0  0  0  0  0  0  0  0  0
   -1.4949    0.3122   -0.1382 C   0  0  0  0  0  0  0  0  0  0  0  0
    0.9043   -2.1218   -0.9449 H   0  0  0  0  0  0  0  0  0  0  0  0
    2.5175   -1.6054   -0.4307 H   0  0  0  0  0  0  0  0  0  0  0  0
    1.4265   -2.3775    0.7213 H   0  0  0  0  0  0  0  0  0  0  0  0
    1.7004   -0.3085    2.2933 H   0  0  0  0  0  0  0  0  0  0  0  0
    2.7846    0.4118    1.1021 H   0  0  0  0  0  0  0  0  0  0  0  0
    1.3575    1.3008    1.6557 H   0  0  0  0  0  0  0  0  0  0  0  0
   -0.2905   -1.6940    2.2924 H   0  0  0  0  0  0  0  0  0  0  0  0
   -2.6761   -1.8012    2.8492 H   0  0  0  0  0  0  0  0  0  0  0  0
   -4.3309   -0.5538    1.4958 H   0  0  0  0  0  0  0  0  0  0  0  0
   -3.5607    0.8038   -0.4252 H   0  0  0  0  0  0  0  0  0  0  0  0
   -1.1660    0.9094   -0.9814 H   0  0  0  0  0  0  0  0  0  0  0  0
  1  2  2  0
  1  4  1  0
  1  5  1  0
  2  3  2  0
  3  6  1  0
  3  7  1  0
  8  9  1  0
  8 17  1  0
  8 18  1  0
  8 19  1  0
  9 10  1  0
  9 11  1  0
 10 20  1  0
 10 21  1  0
 10 22  1  0
 11 12  2  0
 11 16  1  0
 12 13  1  0
 12 23  1  0
 13 14  2  0
 13 24  1  0
 14 15  1  0
 14 25  1  0
 15 16  2  0
 15 26  1  0
 16 27  1  0
M  RAD  1   9   2
M  END
>  <reaction>  (14) 
rxn_1787

>  <mol_properties>  (14) 
{"0": {"label": "*3", "atom_type": "Ct"}, "1": {"label": "*4", "atom_type": "Ct"}, "3": {"label": "*2", "atom_type": "H0"}, "8": {"label": "*1", "atom_type": "Cs"}, "10": {"label": "*0", "atom_type": "Cd"}}

>  <type>  (14) 
unop_10

>  <geom_source>  (14) 
Heuristics

$$$$

     RDKit          3D

 27 26  0  0  0  0  0  0  0  0999 V2000
   -0.1277    2.0148   -0.8764 C   0  0  0  0  0  0  0  0  0  0  0  0
   -0.1277    2.0148   -2.1751 C   0  0  0  0  0  0  0  0  0  0  0  0
   -0.1277    2.0148   -3.4738 C   0  0  0  0  0  0  0  0  0  0  0  0
   -0.7913    1.1199   -0.2063 H   0  0  0  0  0  0  0  0  0  0  0  0
    0.4253    2.7606   -0.3180 H   0  0  0  0  0  0  0  0  0  0  0  0
   -0.8734    2.5678   -4.0322 H   0  0  0  0  0  0  0  0  0  0  0  0
    0.6181    1.4618   -4.0322 H   0  0  0  0  0  0  0  0  0  0  0  0
   -1.8957    0.8542    1.7910 C   0  0  0  0  0  0  0  0  0  0  0  0
   -1.4613    0.2163    0.4703 C   0  0  0  0  0  3  0  0  0  0  0  0
   -2.5278   -0.7485   -0.0510 C   0  0  0  0  0  0  0  0  0  0  0  0
   -0.1111   -0.4580    0.5937 C   0  0  0  0  0  0  0  0  0  0  0  0
    0.0813   -1.5309    1.4612 C   0  0  0  0  0  0  0  0  0  0  0  0
    1.3170   -2.1462    1.5726 C   0  0  0  0  0  0  0  0  0  0  0  0
    2.3904   -1.6992    0.8152 C   0  0  0  0  0  0  0  0  0  0  0  0
    2.2140   -0.6334   -0.0516 C   0  0  0  0  0  0  0  0  0  0  0  0
    0.9732   -0.0213   -0.1584 C   0  0  0  0  0  0  0  0  0  0  0  0
   -1.1462    1.5598    2.1524 H   0  0  0  0  0  0  0  0  0  0  0  0
   -2.8400    1.3887    1.6674 H   0  0  0  0  0  0  0  0  0  0  0  0
   -2.0411    0.0954    2.5633 H   0  0  0  0  0  0  0  0  0  0  0  0
   -2.6959   -1.5650    0.6551 H   0  0  0  0  0  0  0  0  0  0  0  0
   -3.4784   -0.2302   -0.1931 H   0  0  0  0  0  0  0  0  0  0  0  0
   -2.2294   -1.1869   -1.0043 H   0  0  0  0  0  0  0  0  0  0  0  0
   -0.7463   -1.8931    2.0603 H   0  0  0  0  0  0  0  0  0  0  0  0
    1.4438   -2.9788    2.2535 H   0  0  0  0  0  0  0  0  0  0  0  0
    3.3568   -2.1795    0.9016 H   0  0  0  0  0  0  0  0  0  0  0  0
    3.0439   -0.2751   -0.6481 H   0  0  0  0  0  0  0  0  0  0  0  0
    0.8448    0.8125   -0.8398 H   0  0  0  0  0  0  0  0  0  0  0  0
  1  2  2  0
  1  4  1  0
  1  5  1  0
  2  3  2  0
  3  6  1  0
  3  7  1  0
  8  9  1  0
  8 17  1  0
  8 18  1  0
  8 19  1  0
  9 10  1  0
  9 11  1  0
 10 20  1  0
 10 21  1  0
 10 22  1  0
 11 12  2  0
 11 16  1  0
 12 13  1  0
 12 23  1  0
 13 14  2  0
 13 24  1  0
 14 15  1  0
 14 25  1  0
 15 16  2  0
 15 26  1  0
 16 27  1  0
M  RAD  1   9   2
M  END
>  <reaction>  (15) 
rxn_1787

>  <mol_properties>  (15) 
{"0": {"label": "*3", "atom_type": "Ct"}, "1": {"label": "*4", "atom_type": "Ct"}, "3": {"label": "*2", "atom_type": "H0"}, "8": {"label": "*1", "atom_type": "Cs"}, "10": {"label": "*0", "atom_type": "Cd"}}

>  <type>  (15) 
unop_11

>  <geom_source>  (15) 
Heuristics

$$$$

     RDKit          3D

 27 26  0  0  0  0  0  0  0  0999 V2000
    1.9195    0.8133   -1.4696 C   0  0  0  0  0  0  0  0  0  0  0  0
    1.9195    0.8133   -2.7682 C   0  0  0  0  0  0  0  0  0  0  0  0
    1.9195    0.8133   -4.0669 C   0  0  0  0  0  0  0  0  0  0  0  0
    1.2559   -0.0816   -0.7995 H   0  0  0  0  0  0  0  0  0  0  0  0
    2.4725    1.5590   -0.9111 H   0  0  0  0  0  0  0  0  0  0  0  0
    1.1737    1.3663   -4.6253 H   0  0  0  0  0  0  0  0  0  0  0  0
    2.6652    0.2603   -4.6253 H   0  0  0  0  0  0  0  0  0  0  0  0
   -0.0983   -1.9077   -1.1333 C   0  0  0  0  0  0  0  0  0  0  0  0
    0.5858   -0.9852   -0.1229 C   0  0  0  0  0  3  0  0  0  0  0  0
    1.5880   -1.7582    0.7363 C   0  0  0  0  0  0  0  0  0  0  0  0
   -0.4235   -0.2434    0.7281 C   0  0  0  0  0  0  0  0  0  0  0  0
   -1.2967   -0.9281    1.5705 C   0  0  0  0  0  0  0  0  0  0  0  0
   -2.2190   -0.2477    2.3480 C   0  0  0  0  0  0  0  0  0  0  0  0
   -2.2872    1.1374    2.2987 C   0  0  0  0  0  0  0  0  0  0  0  0
   -1.4254    1.8315    1.4659 C   0  0  0  0  0  0  0  0  0  0  0  0
   -0.5035    1.1437    0.6894 C   0  0  0  0  0  0  0  0  0  0  0  0
   -0.7966   -1.3535   -1.7621 H   0  0  0  0  0  0  0  0  0  0  0  0
    0.6411   -2.3859   -1.7791 H   0  0  0  0  0  0  0  0  0  0  0  0
   -0.6581   -2.6972   -0.6265 H   0  0  0  0  0  0  0  0  0  0  0  0
    1.0888   -2.5423    1.3104 H   0  0  0  0  0  0  0  0  0  0  0  0
    2.3444   -2.2349    0.1093 H   0  0  0  0  0  0  0  0  0  0  0  0
    2.0933   -1.0973    1.4420 H   0  0  0  0  0  0  0  0  0  0  0  0
   -1.2571   -2.0102    1.6213 H   0  0  0  0  0  0  0  0  0  0  0  0
   -2.8882   -0.8005    2.9957 H   0  0  0  0  0  0  0  0  0  0  0  0
   -3.0079    1.6701    2.9061 H   0  0  0  0  0  0  0  0  0  0  0  0
   -1.4686    2.9126    1.4184 H   0  0  0  0  0  0  0  0  0  0  0  0
    0.1672    1.6958    0.0403 H   0  0  0  0  0  0  0  0  0  0  0  0
  1  2  2  0
  1  4  1  0
  1  5  1  0
  2  3  2  0
  3  6  1  0
  3  7  1  0
  8  9  1  0
  8 17  1  0
  8 18  1  0
  8 19  1  0
  9 10  1  0
  9 11  1  0
 10 20  1  0
 10 21  1  0
 10 22  1  0
 11 12  2  0
 11 16  1  0
 12 13  1  0
 12 23  1  0
 13 14  2  0
 13 24  1  0
 14 15  1  0
 14 25  1  0
 15 16  2  0
 15 26  1  0
 16 27  1  0
M  RAD  1   9   2
M  END
>  <reaction>  (16) 
rxn_1787

>  <mol_properties>  (16) 
{"0": {"label": "*3", "atom_type": "Ct"}, "1": {"label": "*4", "atom_type": "Ct"}, "3": {"label": "*2", "atom_type": "H0"}, "8": {"label": "*1", "atom_type": "Cs"}, "10": {"label": "*0", "atom_type": "Cd"}}

>  <type>  (16) 
unop_12

>  <geom_source>  (16) 
Heuristics

$$$$

     RDKit          3D

 27 26  0  0  0  0  0  0  0  0999 V2000
   -0.3373   -1.3580   -0.1927 C   0  0  0  0  0  3  0  0  0  0  0  0
   -0.3361   -2.1879   -1.4804 C   0  0  0  0  0  0  0  0  0  0  0  0
   -1.4692   -1.7916    0.7442 C   0  0  0  0  0  0  0  0  0  0  0  0
   -0.4153    0.1245   -0.4965 C   0  0  0  0  0  0  0  0  0  0  0  0
    0.6366    0.9745   -0.1121 C   0  0  0  0  0  0  0  0  0  0  0  0
   -1.5288    0.6748   -1.1617 C   0  0  0  0  0  0  0  0  0  0  0  0
    0.5762    2.3443   -0.3869 C   0  0  0  0  0  0  0  0  0  0  0  0
   -0.5326    2.8791   -1.0469 C   0  0  0  0  0  0  0  0  0  0  0  0
   -1.5839    2.0450   -1.4338 C   0  0  0  0  0  0  0  0  0  0  0  0
    2.3637    1.1028    2.1679 C   0  0  0  0  0  0  0  0  0  0  0  0
    2.0565   -0.0878    1.7382 C   0  0  0  0  0  0  0  0  0  0  0  0
    1.7492   -1.2784    1.3085 C   0  0  0  0  0  0  0  0  0  0  0  0
    0.8564   -1.6356    0.4648 H   0  0  0  0  0  0  0  0  0  0  0  0
   -0.1784   -3.2598   -1.2370 H   0  0  0  0  0  0  0  0  0  0  0  0
   -1.2979   -2.0852   -2.0261 H   0  0  0  0  0  0  0  0  0  0  0  0
    0.4926   -1.8577   -2.1422 H   0  0  0  0  0  0  0  0  0  0  0  0
   -1.3335   -2.8558    1.0308 H   0  0  0  0  0  0  0  0  0  0  0  0
   -1.4493   -1.1785    1.6702 H   0  0  0  0  0  0  0  0  0  0  0  0
   -2.4607   -1.6786    0.2566 H   0  0  0  0  0  0  0  0  0  0  0  0
    1.5056    0.5821    0.4004 H   0  0  0  0  0  0  0  0  0  0  0  0
    1.3903    2.9918   -0.0876 H   0  0  0  0  0  0  0  0  0  0  0  0
   -2.3540    0.0462   -1.4700 H   0  0  0  0  0  0  0  0  0  0  0  0
   -0.5770    3.9396   -1.2585 H   0  0  0  0  0  0  0  0  0  0  0  0
   -2.4427    2.4604   -1.9452 H   0  0  0  0  0  0  0  0  0  0  0  0
    2.5426    1.2678    3.2216 H   0  0  0  0  0  0  0  0  0  0  0  0
    2.4398    1.9263    1.4711 H   0  0  0  0  0  0  0  0  0  0  0  0
    1.6870   -2.1046    2.0036 H   0  0  0  0  0  0  0  0  0  0  0  0
  1  2  1  0
  1  3  1  0
  1  4  1  0
  2 14  1  0
  2 15  1  0
  2 16  1  0
  3 17  1  0
  3 18  1  0
  3 19  1  0
  4  5  2  0
  4  6  1  0
  5  7  1  0
  5 20  1  0
  6  9  2  0
  6 22  1  0
  7  8  2  0
  7 21  1  0
  8  9  1  0
  8 23  1  0
  9 24  1  0
 10 11  2  0
 10 25  1  0
 10 26  1  0
 11 12  2  0
 12 13  1  0
 12 27  1  0
M  RAD  1   1   2
M  END
>  <reaction>  (17) 
rxn_1787

>  <mol_properties>  (17) 
{"0": {"label": "*3", "atom_type": "Ct"}, "1": {"label": "*4", "atom_type": "Ct"}, "3": {"label": "*2", "atom_type": "H0"}, "8": {"label": "*1", "atom_type": "Cs"}, "10": {"label": "*0", "atom_type": "Cd"}}

>  <type>  (17) 
unop_13

>  <geom_source>  (17) 
AutoTST

$$$$
