
     RDKit          3D

  9  8  0  0  0  0  0  0  0  0999 V2000
   -0.8818   -0.3578    0.1297 C   0  0  0  0  0  0  0  0  0  0  0  0
    0.6153   -0.3021   -0.1188 C   0  0  0  0  0  0  0  0  0  0  0  0
    1.5354   -1.7170    0.5545 S   0  0  0  0  0  0  0  0  0  0  0  0
   -1.1018   -0.3317    1.1984 H   0  0  0  0  0  0  0  0  0  0  0  0
   -1.3114   -1.2723   -0.2799 H   0  0  0  0  0  0  0  0  0  0  0  0
   -1.3767    0.4976   -0.3363 H   0  0  0  0  0  0  0  0  0  0  0  0
    1.0467    0.6194    0.2718 H   0  0  0  0  0  0  0  0  0  0  0  0
    0.8295   -0.3275   -1.1882 H   0  0  0  0  0  0  0  0  0  0  0  0
    1.2306   -1.5077    1.8423 H   0  0  0  0  0  0  0  0  0  0  0  0
  1  2  1  0
  1  4  1  0
  1  5  1  0
  1  6  1  0
  2  3  1  0
  2  7  1  0
  2  8  1  0
  3  9  1  0
M  END
>  <reaction>  (1) 
rxn_1891

>  <mol_properties>  (1) 
{"1": {"label": "donator", "atom_type": "Cs"}, "6": {"label": "d_hydrogen", "atom_type": "H0"}}

>  <type>  (1) 
r1h

$$$$

     RDKit          3D

  6  5  0  0  0  0  0  0  0  0999 V2000
    1.7035    0.4954    0.0162 S   0  0  0  0  0  0  0  0  0  0  0  0
    0.1927   -0.1841   -0.3584 C   0  0  0  0  0  3  0  0  0  0  0  0
   -1.0558    0.0577   -0.0460 C   0  0  0  0  0  0  0  0  0  0  0  0
    2.3611   -0.6557    0.2254 H   0  0  0  0  0  0  0  0  0  0  0  0
   -1.8677   -0.4245   -0.5802 H   0  0  0  0  0  0  0  0  0  0  0  0
   -1.3294    0.7333    0.7635 H   0  0  0  0  0  0  0  0  0  0  0  0
  1  2  1  0
  1  4  1  0
  2  3  2  3
  3  5  1  0
  3  6  1  0
M  RAD  1   2   2
M  END
>  <reaction>  (2) 
rxn_1891

>  <mol_properties>  (2) 
{"1": {"label": "acceptor", "atom_type": "Cd"}}

>  <type>  (2) 
r2

$$$$

     RDKit          3D

  7  6  0  0  0  0  0  0  0  0999 V2000
    1.2020   -0.5069    1.0970 S   0  0  0  0  0  0  0  0  0  0  0  0
    0.2449    0.0208   -0.2711 C   0  0  0  0  0  0  0  0  0  0  0  0
    0.6491    0.2538   -1.5109 C   0  0  0  0  0  0  0  0  0  0  0  0
    2.3807   -0.5751    0.4630 H   0  0  0  0  0  0  0  0  0  0  0  0
   -0.7959    0.1526    0.0036 H   0  0  0  0  0  0  0  0  0  0  0  0
    1.6808    0.1320   -1.8181 H   0  0  0  0  0  0  0  0  0  0  0  0
   -0.0586    0.5786   -2.2618 H   0  0  0  0  0  0  0  0  0  0  0  0
  1  2  1  0
  1  4  1  0
  2  3  2  3
  2  5  1  0
  3  6  1  0
  3  7  1  0
M  END
>  <reaction>  (3) 
rxn_1891

>  <mol_properties>  (3) 
{"1": {"label": "acceptor", "atom_type": "Cd"}, "6": {"label": "a_hydrogen", "atom_type": "H0"}}

>  <type>  (3) 
r2h

$$$$

     RDKit          3D

 15 13  0  0  0  0  0  0  0  0999 V2000
    2.1778   -0.2926    1.0378 S   0  0  0  0  0  0  0  0  0  0  0  0
    0.6623   -1.1037    0.8398 C   0  0  0  0  0  3  0  0  0  0  0  0
    0.3573   -2.3726    1.0245 C   0  0  0  0  0  0  0  0  0  0  0  0
    1.6622    0.9264    1.2639 H   0  0  0  0  0  0  0  0  0  0  0  0
   -0.6249   -2.7442    0.7546 H   0  0  0  0  0  0  0  0  0  0  0  0
    1.0558   -3.0879    1.4497 H   0  0  0  0  0  0  0  0  0  0  0  0
   -1.4693   -0.1843   -1.6501 C   0  0  0  0  0  0  0  0  0  0  0  0
   -1.2118    0.4409   -0.3018 C   0  0  0  0  0  0  0  0  0  0  0  0
   -0.6077    2.1183   -0.2913 S   0  0  0  0  0  0  0  0  0  0  0  0
   -0.5524   -0.2191   -2.2419 H   0  0  0  0  0  0  0  0  0  0  0  0
   -2.2172    0.3777   -2.2140 H   0  0  0  0  0  0  0  0  0  0  0  0
   -1.8261   -1.2085   -1.5277 H   0  0  0  0  0  0  0  0  0  0  0  0
   -0.3348   -0.2784    0.2805 H   0  0  0  0  0  0  0  0  0  0  0  0
   -2.0679    0.4038    0.3713 H   0  0  0  0  0  0  0  0  0  0  0  0
    0.3583    1.9455   -1.2052 H   0  0  0  0  0  0  0  0  0  0  0  0
  1  2  1  0
  1  4  1  0
  2  3  2  3
  3  5  1  0
  3  6  1  0
  7  8  1  0
  7 10  1  0
  7 11  1  0
  7 12  1  0
  8  9  1  0
  8 13  1  0
  8 14  1  0
  9 15  1  0
M  RAD  1   2   2
M  END
>  <reaction>  (4) 
rxn_1891

>  <mol_properties>  (4) 
{"0": {"label": "*4", "atom_type": "S2s"}, "1": {"label": "*3", "atom_type": "Cd"}, "7": {"label": "*1", "atom_type": "Cs"}, "8": {"label": "*0", "atom_type": "S2s"}, "12": {"label": "*2", "atom_type": "H0"}}

>  <type>  (4) 
ts

$$$$

     RDKit          3D

 15 13  0  0  0  0  0  0  0  0999 V2000
    1.8192   -0.2453    1.1639 S   0  0  0  0  0  0  0  0  0  0  0  0
    0.7850   -1.2528    0.1730 C   0  0  0  0  0  0  0  0  0  0  0  0
    0.4194   -2.5081    0.3856 C   0  0  0  0  0  0  0  0  0  0  0  0
    2.0690   -1.1490    2.1214 H   0  0  0  0  0  0  0  0  0  0  0  0
   -0.2303   -3.0119   -0.3176 H   0  0  0  0  0  0  0  0  0  0  0  0
    0.7473   -3.0700    1.2518 H   0  0  0  0  0  0  0  0  0  0  0  0
   -1.2338    0.1025   -2.2916 C   0  0  0  0  0  0  0  0  0  0  0  0
   -1.2338    0.1025   -0.7729 C   0  0  0  0  0  3  0  0  0  0  0  0
   -1.2338    1.7599   -0.0279 S   0  0  0  0  0  0  0  0  0  0  0  0
   -0.3272    0.5680   -2.6823 H   0  0  0  0  0  0  0  0  0  0  0  0
   -2.0898    0.6537   -2.6817 H   0  0  0  0  0  0  0  0  0  0  0  0
   -1.2769   -0.9208   -2.6719 H   0  0  0  0  0  0  0  0  0  0  0  0
   -0.2219   -0.5768   -0.2988 H   0  0  0  0  0  0  0  0  0  0  0  0
   -2.1414   -0.3645   -0.3878 H   0  0  0  0  0  0  0  0  0  0  0  0
   -0.0590    2.1616   -0.5315 H   0  0  0  0  0  0  0  0  0  0  0  0
  1  2  1  0
  1  4  1  0
  2  3  2  3
  2 13  1  0
  3  5  1  0
  3  6  1  0
  7  8  1  0
  7 10  1  0
  7 11  1  0
  7 12  1  0
  8  9  1  0
  8 14  1  0
  9 15  1  0
M  RAD  1   8   2
M  END
>  <reaction>  (5) 
rxn_1891

>  <mol_properties>  (5) 
{"0": {"label": "*4", "atom_type": "S2s"}, "1": {"label": "*3", "atom_type": "Cd"}, "7": {"label": "*1", "atom_type": "Cs"}, "8": {"label": "*0", "atom_type": "S2s"}, "12": {"label": "*2", "atom_type": "H0"}}

>  <type>  (5) 
unop_1

>  <geom_source>  (5) 
Heuristics

$$$$

     RDKit          3D

 15 13  0  0  0  0  0  0  0  0999 V2000
    2.0162   -1.0520   -0.4782 S   0  0  0  0  0  0  0  0  0  0  0  0
    0.6440   -1.1133    0.6079 C   0  0  0  0  0  0  0  0  0  0  0  0
    0.6307   -1.4416    1.8911 C   0  0  0  0  0  0  0  0  0  0  0  0
    2.9496   -1.4284    0.4066 H   0  0  0  0  0  0  0  0  0  0  0  0
   -0.2990   -1.4362    2.4444 H   0  0  0  0  0  0  0  0  0  0  0  0
    1.5284   -1.7229    2.4282 H   0  0  0  0  0  0  0  0  0  0  0  0
   -1.3748    0.2421   -1.8567 C   0  0  0  0  0  0  0  0  0  0  0  0
   -1.3748    0.2421   -0.3380 C   0  0  0  0  0  3  0  0  0  0  0  0
   -1.3748    1.8994    0.4070 S   0  0  0  0  0  0  0  0  0  0  0  0
   -0.4682    0.7075   -2.2474 H   0  0  0  0  0  0  0  0  0  0  0  0
   -2.2308    0.7933   -2.2468 H   0  0  0  0  0  0  0  0  0  0  0  0
   -1.4179   -0.7813   -2.2370 H   0  0  0  0  0  0  0  0  0  0  0  0
   -0.3629   -0.4373    0.1361 H   0  0  0  0  0  0  0  0  0  0  0  0
   -2.2824   -0.2250    0.0471 H   0  0  0  0  0  0  0  0  0  0  0  0
   -0.2000    2.3011   -0.0965 H   0  0  0  0  0  0  0  0  0  0  0  0
  1  2  1  0
  1  4  1  0
  2  3  2  3
  2 13  1  0
  3  5  1  0
  3  6  1  0
  7  8  1  0
  7 10  1  0
  7 11  1  0
  7 12  1  0
  8  9  1  0
  8 14  1  0
  9 15  1  0
M  RAD  1   8   2
M  END
>  <reaction>  (6) 
rxn_1891

>  <mol_properties>  (6) 
{"0": {"label": "*4", "atom_type": "S2s"}, "1": {"label": "*3", "atom_type": "Cd"}, "7": {"label": "*1", "atom_type": "Cs"}, "8": {"label": "*0", "atom_type": "S2s"}, "12": {"label": "*2", "atom_type": "H0"}}

>  <type>  (6) 
unop_2

>  <geom_source>  (6) 
Heuristics

$$$$

     RDKit          3D

 15 13  0  0  0  0  0  0  0  0999 V2000
    1.3890   -0.5176    1.6534 S   0  0  0  0  0  0  0  0  0  0  0  0
    0.8674   -1.1499    0.1061 C   0  0  0  0  0  0  0  0  0  0  0  0
    0.9531   -2.3943   -0.3399 C   0  0  0  0  0  0  0  0  0  0  0  0
    1.8596   -1.6672    2.1563 H   0  0  0  0  0  0  0  0  0  0  0  0
    0.5867   -2.6450   -1.3264 H   0  0  0  0  0  0  0  0  0  0  0  0
    1.3833   -3.1945    0.2501 H   0  0  0  0  0  0  0  0  0  0  0  0
   -1.1514    0.2054   -2.3585 C   0  0  0  0  0  0  0  0  0  0  0  0
   -1.1514    0.2054   -0.8399 C   0  0  0  0  0  3  0  0  0  0  0  0
   -1.1514    1.8628   -0.0949 S   0  0  0  0  0  0  0  0  0  0  0  0
   -0.2448    0.6709   -2.7493 H   0  0  0  0  0  0  0  0  0  0  0  0
   -2.0074    0.7566   -2.7486 H   0  0  0  0  0  0  0  0  0  0  0  0
   -1.1945   -0.8179   -2.7388 H   0  0  0  0  0  0  0  0  0  0  0  0
   -0.1395   -0.4739   -0.3658 H   0  0  0  0  0  0  0  0  0  0  0  0
   -2.0590   -0.2616   -0.4547 H   0  0  0  0  0  0  0  0  0  0  0  0
    0.0234    2.2645   -0.5984 H   0  0  0  0  0  0  0  0  0  0  0  0
  1  2  1  0
  1  4  1  0
  2  3  2  3
  2 13  1  0
  3  5  1  0
  3  6  1  0
  7  8  1  0
  7 10  1  0
  7 11  1  0
  7 12  1  0
  8  9  1  0
  8 14  1  0
  9 15  1  0
M  RAD  1   8   2
M  END
>  <reaction>  (7) 
rxn_1891

>  <mol_properties>  (7) 
{"0": {"label": "*4", "atom_type": "S2s"}, "1": {"label": "*3", "atom_type": "Cd"}, "7": {"label": "*1", "atom_type": "Cs"}, "8": {"label": "*0", "atom_type": "S2s"}, "12": {"label": "*2", "atom_type": "H0"}}

>  <type>  (7) 
unop_3

>  <geom_source>  (7) 
Heuristics

$$$$

     RDKit          3D

 15 13  0  0  0  0  0  0  0  0999 V2000
    0.9251   -2.4086   -0.0574 S   0  0  0  0  0  0  0  0  0  0  0  0
    0.9749   -0.7403    0.4722 C   0  0  0  0  0  0  0  0  0  0  0  0
    1.4464   -0.2578    1.6122 C   0  0  0  0  0  0  0  0  0  0  0  0
    1.4922   -2.9487    1.0302 H   0  0  0  0  0  0  0  0  0  0  0  0
    1.4126    0.8056    1.8081 H   0  0  0  0  0  0  0  0  0  0  0  0
    1.8757   -0.8922    2.3782 H   0  0  0  0  0  0  0  0  0  0  0  0
   -1.0440    0.6150   -1.9924 C   0  0  0  0  0  0  0  0  0  0  0  0
   -1.0440    0.6150   -0.4737 C   0  0  0  0  0  3  0  0  0  0  0  0
   -1.0440    2.2724    0.2713 S   0  0  0  0  0  0  0  0  0  0  0  0
   -0.1373    1.0805   -2.3831 H   0  0  0  0  0  0  0  0  0  0  0  0
   -1.8999    1.1662   -2.3825 H   0  0  0  0  0  0  0  0  0  0  0  0
   -1.0871   -0.4083   -2.3726 H   0  0  0  0  0  0  0  0  0  0  0  0
   -0.0321   -0.0643    0.0004 H   0  0  0  0  0  0  0  0  0  0  0  0
   -1.9516    0.1480   -0.0886 H   0  0  0  0  0  0  0  0  0  0  0  0
    0.1308    2.6741   -0.2322 H   0  0  0  0  0  0  0  0  0  0  0  0
  1  2  1  0
  1  4  1  0
  2  3  2  3
  2 13  1  0
  3  5  1  0
  3  6  1  0
  7  8  1  0
  7 10  1  0
  7 11  1  0
  7 12  1  0
  8  9  1  0
  8 14  1  0
  9 15  1  0
M  RAD  1   8   2
M  END
>  <reaction>  (8) 
rxn_1891

>  <mol_properties>  (8) 
{"0": {"label": "*4", "atom_type": "S2s"}, "1": {"label": "*3", "atom_type": "Cd"}, "7": {"label": "*1", "atom_type": "Cs"}, "8": {"label": "*0", "atom_type": "S2s"}, "12": {"label": "*2", "atom_type": "H0"}}

>  <type>  (8) 
unop_4

>  <geom_source>  (8) 
Heuristics

$$$$

     RDKit          3D

 15 13  0  0  0  0  0  0  0  0999 V2000
    0.9094   -1.0631    1.8502 S   0  0  0  0  0  0  0  0  0  0  0  0
    0.9083   -1.0624    0.0991 C   0  0  0  0  0  0  0  0  0  0  0  0
    1.7728   -1.6428   -0.7196 C   0  0  0  0  0  0  0  0  0  0  0  0
    2.0132   -1.8042    2.0186 H   0  0  0  0  0  0  0  0  0  0  0  0
    1.6480   -1.5590   -1.7909 H   0  0  0  0  0  0  0  0  0  0  0  0
    2.6212   -2.2124   -0.3598 H   0  0  0  0  0  0  0  0  0  0  0  0
   -1.1106    0.2930   -2.3655 C   0  0  0  0  0  0  0  0  0  0  0  0
   -1.1106    0.2930   -0.8468 C   0  0  0  0  0  3  0  0  0  0  0  0
   -1.1106    1.9503   -0.1018 S   0  0  0  0  0  0  0  0  0  0  0  0
   -0.2039    0.7584   -2.7562 H   0  0  0  0  0  0  0  0  0  0  0  0
   -1.9665    0.8442   -2.7556 H   0  0  0  0  0  0  0  0  0  0  0  0
   -1.1536   -0.7304   -2.7458 H   0  0  0  0  0  0  0  0  0  0  0  0
   -0.0987   -0.3864   -0.3727 H   0  0  0  0  0  0  0  0  0  0  0  0
   -2.0182   -0.1741   -0.4617 H   0  0  0  0  0  0  0  0  0  0  0  0
    0.0642    2.3520   -0.6054 H   0  0  0  0  0  0  0  0  0  0  0  0
  1  2  1  0
  1  4  1  0
  2  3  2  3
  2 13  1  0
  3  5  1  0
  3  6  1  0
  7  8  1  0
  7 10  1  0
  7 11  1  0
  7 12  1  0
  8  9  1  0
  8 14  1  0
  9 15  1  0
M  RAD  1   8   2
M  END
>  <reaction>  (9) 
rxn_1891

>  <mol_properties>  (9) 
{"0": {"label": "*4", "atom_type": "S2s"}, "1": {"label": "*3", "atom_type": "Cd"}, "7": {"label": "*1", "atom_type": "Cs"}, "8": {"label": "*0", "atom_type": "S2s"}, "12": {"label": "*2", "atom_type": "H0"}}

>  <type>  (9) 
unop_5

>  <geom_source>  (9) 
Heuristics

$$$$

     RDKit          3D

 15 13  0  0  0  0  0  0  0  0999 V2000
    0.6244   -2.4596    0.5392 S   0  0  0  0  0  0  0  0  0  0  0  0
    1.0416   -0.7746    0.3086 C   0  0  0  0  0  0  0  0  0  0  0  0
    1.7791   -0.0003    1.0902 C   0  0  0  0  0  0  0  0  0  0  0  0
    1.2764   -2.6387    1.6962 H   0  0  0  0  0  0  0  0  0  0  0  0
    1.9565    1.0325    0.8215 H   0  0  0  0  0  0  0  0  0  0  0  0
    2.2253   -0.3595    2.0097 H   0  0  0  0  0  0  0  0  0  0  0  0
   -0.9773    0.5807   -2.1560 C   0  0  0  0  0  0  0  0  0  0  0  0
   -0.9773    0.5807   -0.6374 C   0  0  0  0  0  3  0  0  0  0  0  0
   -0.9773    2.2381    0.1076 S   0  0  0  0  0  0  0  0  0  0  0  0
   -0.0706    1.0461   -2.5468 H   0  0  0  0  0  0  0  0  0  0  0  0
   -1.8332    1.1319   -2.5461 H   0  0  0  0  0  0  0  0  0  0  0  0
   -1.0203   -0.4426   -2.5363 H   0  0  0  0  0  0  0  0  0  0  0  0
    0.0346   -0.0986   -0.1632 H   0  0  0  0  0  0  0  0  0  0  0  0
   -1.8849    0.1137   -0.2522 H   0  0  0  0  0  0  0  0  0  0  0  0
    0.1975    2.6398   -0.3959 H   0  0  0  0  0  0  0  0  0  0  0  0
  1  2  1  0
  1  4  1  0
  2  3  2  3
  2 13  1  0
  3  5  1  0
  3  6  1  0
  7  8  1  0
  7 10  1  0
  7 11  1  0
  7 12  1  0
  8  9  1  0
  8 14  1  0
  9 15  1  0
M  RAD  1   8   2
M  END
>  <reaction>  (10) 
rxn_1891

>  <mol_properties>  (10) 
{"0": {"label": "*4", "atom_type": "S2s"}, "1": {"label": "*3", "atom_type": "Cd"}, "7": {"label": "*1", "atom_type": "Cs"}, "8": {"label": "*0", "atom_type": "S2s"}, "12": {"label": "*2", "atom_type": "H0"}}

>  <type>  (10) 
unop_6

>  <geom_source>  (10) 
Heuristics

$$$$

     RDKit          3D

 15 13  0  0  0  0  0  0  0  0999 V2000
    0.4970   -2.2149    1.1639 S   0  0  0  0  0  0  0  0  0  0  0  0
    1.0379   -0.8762    0.1730 C   0  0  0  0  0  0  0  0  0  0  0  0
    2.0612   -0.0625    0.3856 C   0  0  0  0  0  0  0  0  0  0  0  0
    1.4280   -2.1039    2.1214 H   0  0  0  0  0  0  0  0  0  0  0  0
    2.2815    0.7296   -0.3176 H   0  0  0  0  0  0  0  0  0  0  0  0
    2.7055   -0.1532    1.2518 H   0  0  0  0  0  0  0  0  0  0  0  0
   -0.9810    0.4791   -2.2916 C   0  0  0  0  0  0  0  0  0  0  0  0
   -0.9810    0.4791   -0.7729 C   0  0  0  0  0  3  0  0  0  0  0  0
   -0.9810    2.1365   -0.0279 S   0  0  0  0  0  0  0  0  0  0  0  0
   -0.0744    0.9446   -2.6823 H   0  0  0  0  0  0  0  0  0  0  0  0
   -1.8370    1.0303   -2.6817 H   0  0  0  0  0  0  0  0  0  0  0  0
   -1.0241   -0.5442   -2.6719 H   0  0  0  0  0  0  0  0  0  0  0  0
    0.0309   -0.2002   -0.2988 H   0  0  0  0  0  0  0  0  0  0  0  0
   -1.8886    0.0121   -0.3878 H   0  0  0  0  0  0  0  0  0  0  0  0
    0.1938    2.5382   -0.5315 H   0  0  0  0  0  0  0  0  0  0  0  0
  1  2  1  0
  1  4  1  0
  2  3  2  3
  2 13  1  0
  3  5  1  0
  3  6  1  0
  7  8  1  0
  7 10  1  0
  7 11  1  0
  7 12  1  0
  8  9  1  0
  8 14  1  0
  9 15  1  0
M  RAD  1   8   2
M  END
>  <reaction>  (11) 
rxn_1891

>  <mol_properties>  (11) 
{"0": {"label": "*4", "atom_type": "S2s"}, "1": {"label": "*3", "atom_type": "Cd"}, "7": {"label": "*1", "atom_type": "Cs"}, "8": {"label": "*0", "atom_type": "S2s"}, "12": {"label": "*2", "atom_type": "H0"}}

>  <type>  (11) 
unop_7

>  <geom_source>  (11) 
Heuristics

$$$$

     RDKit          3D

 15 13  0  0  0  0  0  0  0  0999 V2000
    2.0940   -0.2706    0.5392 S   0  0  0  0  0  0  0  0  0  0  0  0
    0.6924   -1.2947    0.3086 C   0  0  0  0  0  0  0  0  0  0  0  0
    0.2550   -2.2705    1.0902 C   0  0  0  0  0  0  0  0  0  0  0  0
    2.5067   -0.8063    1.6962 H   0  0  0  0  0  0  0  0  0  0  0  0
   -0.6338   -2.8258    0.8215 H   0  0  0  0  0  0  0  0  0  0  0  0
    0.7564   -2.5474    2.0097 H   0  0  0  0  0  0  0  0  0  0  0  0
   -1.3264    0.0606   -2.1560 C   0  0  0  0  0  0  0  0  0  0  0  0
   -1.3264    0.0606   -0.6374 C   0  0  0  0  0  3  0  0  0  0  0  0
   -1.3264    1.7180    0.1076 S   0  0  0  0  0  0  0  0  0  0  0  0
   -0.4198    0.5261   -2.5468 H   0  0  0  0  0  0  0  0  0  0  0  0
   -2.1824    0.6118   -2.5461 H   0  0  0  0  0  0  0  0  0  0  0  0
   -1.3695   -0.9627   -2.5363 H   0  0  0  0  0  0  0  0  0  0  0  0
   -0.3145   -0.6187   -0.1632 H   0  0  0  0  0  0  0  0  0  0  0  0
   -2.2340   -0.4064   -0.2522 H   0  0  0  0  0  0  0  0  0  0  0  0
   -0.1516    2.1197   -0.3959 H   0  0  0  0  0  0  0  0  0  0  0  0
  1  2  1  0
  1  4  1  0
  2  3  2  3
  2 13  1  0
  3  5  1  0
  3  6  1  0
  7  8  1  0
  7 10  1  0
  7 11  1  0
  7 12  1  0
  8  9  1  0
  8 14  1  0
  9 15  1  0
M  RAD  1   8   2
M  END
>  <reaction>  (12) 
rxn_1891

>  <mol_properties>  (12) 
{"0": {"label": "*4", "atom_type": "S2s"}, "1": {"label": "*3", "atom_type": "Cd"}, "7": {"label": "*1", "atom_type": "Cs"}, "8": {"label": "*0", "atom_type": "S2s"}, "12": {"label": "*2", "atom_type": "H0"}}

>  <type>  (12) 
unop_8

>  <geom_source>  (12) 
Heuristics

$$$$

     RDKit          3D

 15 13  0  0  0  0  0  0  0  0999 V2000
    1.3181   -2.0917   -0.4782 S   0  0  0  0  0  0  0  0  0  0  0  0
    0.8553   -0.7985    0.6079 C   0  0  0  0  0  0  0  0  0  0  0  0
    1.1542   -0.6618    1.8911 C   0  0  0  0  0  0  0  0  0  0  0  0
    2.0200   -2.8131    0.4066 H   0  0  0  0  0  0  0  0  0  0  0  0
    0.7971    0.1965    2.4444 H   0  0  0  0  0  0  0  0  0  0  0  0
    1.7544   -1.3863    2.4282 H   0  0  0  0  0  0  0  0  0  0  0  0
   -1.1635    0.5568   -1.8567 C   0  0  0  0  0  0  0  0  0  0  0  0
   -1.1635    0.5568   -0.3380 C   0  0  0  0  0  3  0  0  0  0  0  0
   -1.1635    2.2142    0.4070 S   0  0  0  0  0  0  0  0  0  0  0  0
   -0.2569    1.0222   -2.2474 H   0  0  0  0  0  0  0  0  0  0  0  0
   -2.0195    1.1080   -2.2468 H   0  0  0  0  0  0  0  0  0  0  0  0
   -1.2066   -0.4665   -2.2370 H   0  0  0  0  0  0  0  0  0  0  0  0
   -0.1516   -0.1225    0.1361 H   0  0  0  0  0  0  0  0  0  0  0  0
   -2.0711    0.0898    0.0471 H   0  0  0  0  0  0  0  0  0  0  0  0
    0.0113    2.6159   -0.0965 H   0  0  0  0  0  0  0  0  0  0  0  0
  1  2  1  0
  1  4  1  0
  2  3  2  3
  2 13  1  0
  3  5  1  0
  3  6  1  0
  7  8  1  0
  7 10  1  0
  7 11  1  0
  7 12  1  0
  8  9  1  0
  8 14  1  0
  9 15  1  0
M  RAD  1   8   2
M  END
>  <reaction>  (13) 
rxn_1891

>  <mol_properties>  (13) 
{"0": {"label": "*4", "atom_type": "S2s"}, "1": {"label": "*3", "atom_type": "Cd"}, "7": {"label": "*1", "atom_type": "Cs"}, "8": {"label": "*0", "atom_type": "S2s"}, "12": {"label": "*2", "atom_type": "H0"}}

>  <type>  (13) 
unop_9

>  <geom_source>  (13) 
Heuristics

$$$$

     RDKit          3D

 15 13  0  0  0  0  0  0  0  0999 V2000
    2.1607   -0.5682   -0.0574 S   0  0  0  0  0  0  0  0  0  0  0  0
    0.6354   -1.2460    0.4722 C   0  0  0  0  0  0  0  0  0  0  0  0
    0.3674   -1.8651    1.6122 C   0  0  0  0  0  0  0  0  0  0  0  0
    2.8752   -0.8886    1.0302 H   0  0  0  0  0  0  0  0  0  0  0  0
   -0.6297   -2.2364    1.8081 H   0  0  0  0  0  0  0  0  0  0  0  0
    1.1171   -2.0222    2.3782 H   0  0  0  0  0  0  0  0  0  0  0  0
   -1.3834    0.1094   -1.9924 C   0  0  0  0  0  0  0  0  0  0  0  0
   -1.3834    0.1094   -0.4737 C   0  0  0  0  0  3  0  0  0  0  0  0
   -1.3834    1.7667    0.2713 S   0  0  0  0  0  0  0  0  0  0  0  0
   -0.4768    0.5748   -2.3831 H   0  0  0  0  0  0  0  0  0  0  0  0
   -2.2394    0.6606   -2.3825 H   0  0  0  0  0  0  0  0  0  0  0  0
   -1.4265   -0.9140   -2.3726 H   0  0  0  0  0  0  0  0  0  0  0  0
   -0.3715   -0.5700    0.0004 H   0  0  0  0  0  0  0  0  0  0  0  0
   -2.2911   -0.3577   -0.0886 H   0  0  0  0  0  0  0  0  0  0  0  0
   -0.2086    2.1684   -0.2322 H   0  0  0  0  0  0  0  0  0  0  0  0
  1  2  1  0
  1  4  1  0
  2  3  2  3
  2 13  1  0
  3  5  1  0
  3  6  1  0
  7  8  1  0
  7 10  1  0
  7 11  1  0
  7 12  1  0
  8  9  1  0
  8 14  1  0
  9 15  1  0
M  RAD  1   8   2
M  END
>  <reaction>  (14) 
rxn_1891

>  <mol_properties>  (14) 
{"0": {"label": "*4", "atom_type": "S2s"}, "1": {"label": "*3", "atom_type": "Cd"}, "7": {"label": "*1", "atom_type": "Cs"}, "8": {"label": "*0", "atom_type": "S2s"}, "12": {"label": "*2", "atom_type": "H0"}}

>  <type>  (14) 
unop_10

>  <geom_source>  (14) 
Heuristics

$$$$

     RDKit          3D

 15 13  0  0  0  0  0  0  0  0999 V2000
    0.5860   -1.7136    1.6534 S   0  0  0  0  0  0  0  0  0  0  0  0
    0.9738   -0.9914    0.1061 C   0  0  0  0  0  0  0  0  0  0  0  0
    2.1580   -0.5996   -0.3399 C   0  0  0  0  0  0  0  0  0  0  0  0
    1.8282   -1.7139    2.1563 H   0  0  0  0  0  0  0  0  0  0  0  0
    2.2513   -0.1655   -1.3264 H   0  0  0  0  0  0  0  0  0  0  0  0
    3.0615   -0.6948    0.2501 H   0  0  0  0  0  0  0  0  0  0  0  0
   -1.0450    0.3639   -2.3585 C   0  0  0  0  0  0  0  0  0  0  0  0
   -1.0450    0.3639   -0.8399 C   0  0  0  0  0  3  0  0  0  0  0  0
   -1.0450    2.0213   -0.0949 S   0  0  0  0  0  0  0  0  0  0  0  0
   -0.1384    0.8294   -2.7493 H   0  0  0  0  0  0  0  0  0  0  0  0
   -1.9010    0.9151   -2.7486 H   0  0  0  0  0  0  0  0  0  0  0  0
   -1.0881   -0.6594   -2.7388 H   0  0  0  0  0  0  0  0  0  0  0  0
   -0.0331   -0.3154   -0.3658 H   0  0  0  0  0  0  0  0  0  0  0  0
   -1.9526   -0.1031   -0.4547 H   0  0  0  0  0  0  0  0  0  0  0  0
    0.1298    2.4230   -0.5984 H   0  0  0  0  0  0  0  0  0  0  0  0
  1  2  1  0
  1  4  1  0
  2  3  2  3
  2 13  1  0
  3  5  1  0
  3  6  1  0
  7  8  1  0
  7 10  1  0
  7 11  1  0
  7 12  1  0
  8  9  1  0
  8 14  1  0
  9 15  1  0
M  RAD  1   8   2
M  END
>  <reaction>  (15) 
rxn_1891

>  <mol_properties>  (15) 
{"0": {"label": "*4", "atom_type": "S2s"}, "1": {"label": "*3", "atom_type": "Cd"}, "7": {"label": "*1", "atom_type": "Cs"}, "8": {"label": "*0", "atom_type": "S2s"}, "12": {"label": "*2", "atom_type": "H0"}}

>  <type>  (15) 
unop_11

>  <geom_source>  (15) 
Heuristics

$$$$

     RDKit          3D

 15 13  0  0  0  0  0  0  0  0999 V2000
    1.7099   -1.6006   -0.6284 S   0  0  0  0  0  0  0  0  0  0  0  0
    0.7267   -0.9405    0.6614 C   0  0  0  0  0  0  0  0  0  0  0  0
    0.9046   -1.0599    1.9686 C   0  0  0  0  0  0  0  0  0  0  0  0
    2.6181   -2.2103    0.1459 H   0  0  0  0  0  0  0  0  0  0  0  0
    0.2115   -0.5946    2.6567 H   0  0  0  0  0  0  0  0  0  0  0  0
    1.7318   -1.6153    2.3939 H   0  0  0  0  0  0  0  0  0  0  0  0
   -1.2922    0.4149   -1.8032 C   0  0  0  0  0  0  0  0  0  0  0  0
   -1.2922    0.4149   -0.2845 C   0  0  0  0  0  3  0  0  0  0  0  0
   -1.2922    2.0722    0.4605 S   0  0  0  0  0  0  0  0  0  0  0  0
   -0.3855    0.8803   -2.1939 H   0  0  0  0  0  0  0  0  0  0  0  0
   -2.1481    0.9661   -2.1933 H   0  0  0  0  0  0  0  0  0  0  0  0
   -1.3353   -0.6085   -2.1835 H   0  0  0  0  0  0  0  0  0  0  0  0
   -0.2803   -0.2645    0.1896 H   0  0  0  0  0  0  0  0  0  0  0  0
   -2.1998   -0.0522    0.1006 H   0  0  0  0  0  0  0  0  0  0  0  0
   -0.1174    2.4739   -0.0431 H   0  0  0  0  0  0  0  0  0  0  0  0
  1  2  1  0
  1  4  1  0
  2  3  2  3
  2 13  1  0
  3  5  1  0
  3  6  1  0
  7  8  1  0
  7 10  1  0
  7 11  1  0
  7 12  1  0
  8  9  1  0
  8 14  1  0
  9 15  1  0
M  RAD  1   8   2
M  END
>  <reaction>  (16) 
rxn_1891

>  <mol_properties>  (16) 
{"0": {"label": "*4", "atom_type": "S2s"}, "1": {"label": "*3", "atom_type": "Cd"}, "7": {"label": "*1", "atom_type": "Cs"}, "8": {"label": "*0", "atom_type": "S2s"}, "12": {"label": "*2", "atom_type": "H0"}}

>  <type>  (16) 
unop_12

>  <geom_source>  (16) 
Heuristics

$$$$

     RDKit          3D

 15 13  0  0  0  0  0  0  0  0999 V2000
   -1.3433    0.8059    1.9180 S   0  0  0  0  0  0  0  0  0  0  0  0
    1.8982    1.6187   -0.6352 S   0  0  0  0  0  0  0  0  0  0  0  0
   -1.9917   -0.0494   -0.6150 C   0  0  0  0  0  0  0  0  0  0  0  0
   -1.1041   -0.3923    0.5708 C   0  0  0  0  0  3  0  0  0  0  0  0
    1.3761   -0.0147   -0.1161 C   0  0  0  0  0  0  0  0  0  0  0  0
    2.0881   -1.0911   -0.4453 C   0  0  0  0  0  0  0  0  0  0  0  0
   -1.7335    0.9573   -1.0049 H   0  0  0  0  0  0  0  0  0  0  0  0
   -3.0603   -0.0670   -0.3127 H   0  0  0  0  0  0  0  0  0  0  0  0
   -1.8324   -0.7950   -1.4215 H   0  0  0  0  0  0  0  0  0  0  0  0
   -1.3471   -1.4110    0.9395 H   0  0  0  0  0  0  0  0  0  0  0  0
    0.3532   -0.1377    0.5469 H   0  0  0  0  0  0  0  0  0  0  0  0
    1.7615   -2.0749   -0.1254 H   0  0  0  0  0  0  0  0  0  0  0  0
    2.9963   -0.9980   -1.0323 H   0  0  0  0  0  0  0  0  0  0  0  0
    2.6587    1.8060    0.5342 H   0  0  0  0  0  0  0  0  0  0  0  0
   -0.7197    1.8431    1.1989 H   0  0  0  0  0  0  0  0  0  0  0  0
  1  4  1  0
  1 15  1  0
  2  5  1  0
  2 14  1  0
  3  4  1  0
  3  7  1  0
  3  8  1  0
  3  9  1  0
  4 10  1  0
  5  6  2  3
  5 11  1  0
  6 12  1  0
  6 13  1  0
M  RAD  1   4   2
M  END
>  <reaction>  (17) 
rxn_1891

>  <mol_properties>  (17) 
{"0": {"label": "*4", "atom_type": "S2s"}, "1": {"label": "*3", "atom_type": "Cd"}, "7": {"label": "*1", "atom_type": "Cs"}, "8": {"label": "*0", "atom_type": "S2s"}, "12": {"label": "*2", "atom_type": "H0"}}

>  <type>  (17) 
unop_13

>  <geom_source>  (17) 
AutoTST

$$$$
