
     RDKit          3D

 12 11  0  0  0  0  0  0  0  0999 V2000
    1.2394   -0.3763   -0.3020 C   0  0  0  0  0  0  0  0  0  0  0  0
    0.1007    0.3023    0.4464 C   0  0  0  0  0  0  0  0  0  0  0  0
   -0.1187    2.0399   -0.0725 S   0  0  0  0  0  0  0  0  0  0  0  0
   -1.1974   -0.4877    0.3552 C   0  0  0  0  0  0  0  0  0  0  0  0
    2.1681    0.1849   -0.2048 H   0  0  0  0  0  0  0  0  0  0  0  0
    1.0031   -0.4606   -1.3656 H   0  0  0  0  0  0  0  0  0  0  0  0
    1.3994   -1.3856    0.0860 H   0  0  0  0  0  0  0  0  0  0  0  0
    0.3796    0.4050    1.4981 H   0  0  0  0  0  0  0  0  0  0  0  0
   -0.4500    1.7779   -1.3452 H   0  0  0  0  0  0  0  0  0  0  0  0
   -1.0545   -1.4978    0.7479 H   0  0  0  0  0  0  0  0  0  0  0  0
   -1.5206   -0.5759   -0.6849 H   0  0  0  0  0  0  0  0  0  0  0  0
   -1.9957   -0.0054    0.9183 H   0  0  0  0  0  0  0  0  0  0  0  0
  1  2  1  0
  1  5  1  0
  1  6  1  0
  1  7  1  0
  2  4  1  0
  2  3  1  0
  2  8  1  0
  3  9  1  0
  4 10  1  0
  4 11  1  0
  4 12  1  0
M  END
>  <reaction>  (1) 
rxn_1947

>  <mol_properties>  (1) 
{"1": {"label": "donator", "atom_type": "Cs"}, "7": {"label": "d_hydrogen", "atom_type": "H0"}}

>  <type>  (1) 
r1h

$$$$

     RDKit          3D

  4  3  0  0  0  0  0  0  0  0999 V2000
   -0.7528   -0.8706   -0.3839 S   0  0  0  0  0  0  0  0  0  0  0  0
    0.7502   -0.2564   -0.0649 C   0  0  0  0  0  3  0  0  0  0  0  0
    1.5655    0.9691    0.4633 S   0  0  0  0  0  0  0  0  0  0  0  0
   -1.5629    0.1579   -0.0146 H   0  0  0  0  0  0  0  0  0  0  0  0
  1  2  1  0
  1  4  1  0
  2  3  2  0
M  RAD  1   2   2
M  END
>  <reaction>  (2) 
rxn_1947

>  <mol_properties>  (2) 
{"1": {"label": "acceptor", "atom_type": "CS"}}

>  <type>  (2) 
r2

$$$$

     RDKit          3D

  5  4  0  0  0  0  0  0  0  0999 V2000
    1.2280   -0.4626    0.1225 S   0  0  0  0  0  0  0  0  0  0  0  0
   -0.4732   -0.2566   -0.0746 C   0  0  0  0  0  0  0  0  0  0  0  0
   -1.3314    1.1074   -0.0947 S   0  0  0  0  0  0  0  0  0  0  0  0
    1.5289    0.8405    0.2416 H   0  0  0  0  0  0  0  0  0  0  0  0
   -0.9523   -1.2286   -0.1949 H   0  0  0  0  0  0  0  0  0  0  0  0
  1  2  1  0
  1  4  1  0
  2  3  2  0
  2  5  1  0
M  END
>  <reaction>  (3) 
rxn_1947

>  <mol_properties>  (3) 
{"1": {"label": "acceptor", "atom_type": "CS"}, "4": {"label": "a_hydrogen", "atom_type": "H0"}}

>  <type>  (3) 
r2h

$$$$

     RDKit          3D

 16 14  0  0  0  0  0  0  0  0999 V2000
   -2.2526   -0.4912   -0.6946 S   0  0  0  0  0  0  0  0  0  0  0  0
   -0.9570   -0.2877    0.3905 C   0  0  0  0  0  3  0  0  0  0  0  0
   -0.8057   -0.5290    1.9613 S   0  0  0  0  0  0  0  0  0  0  0  0
   -3.1934   -0.9341    0.1644 H   0  0  0  0  0  0  0  0  0  0  0  0
    1.0307    0.8347   -2.2754 C   0  0  0  0  0  0  0  0  0  0  0  0
    1.2091    0.8185   -0.7761 C   0  0  0  0  0  0  0  0  0  0  0  0
    2.5394   -0.2630   -0.2926 S   0  0  0  0  0  0  0  0  0  0  0  0
    1.1883    2.1709   -0.1082 C   0  0  0  0  0  0  0  0  0  0  0  0
    0.9668   -0.1746   -2.6844 H   0  0  0  0  0  0  0  0  0  0  0  0
    1.8633    1.3485   -2.7667 H   0  0  0  0  0  0  0  0  0  0  0  0
    0.1142    1.3692   -2.5340 H   0  0  0  0  0  0  0  0  0  0  0  0
    0.1216    0.2232   -0.2838 H   0  0  0  0  0  0  0  0  0  0  0  0
    2.4086   -0.0907    1.0304 H   0  0  0  0  0  0  0  0  0  0  0  0
    0.2890    2.7185   -0.4007 H   0  0  0  0  0  0  0  0  0  0  0  0
    2.0606    2.7638   -0.3986 H   0  0  0  0  0  0  0  0  0  0  0  0
    1.1872    2.0758    0.9789 H   0  0  0  0  0  0  0  0  0  0  0  0
  1  2  1  0
  1  4  1  0
  2  3  2  0
  5  6  1  0
  5  9  1  0
  5 10  1  0
  5 11  1  0
  6  8  1  0
  6  7  1  0
  6 12  1  0
  7 13  1  0
  8 14  1  0
  8 15  1  0
  8 16  1  0
M  RAD  1   2   2
M  END
>  <reaction>  (4) 
rxn_1947

>  <mol_properties>  (4) 
{"0": {"label": "*4", "atom_type": "S2s"}, "1": {"label": "*3", "atom_type": "CS"}, "5": {"label": "*1", "atom_type": "Cs"}, "6": {"label": "*0", "atom_type": "S2s"}, "11": {"label": "*2", "atom_type": "H0"}}

>  <type>  (4) 
ts

$$$$

     RDKit          3D

 16 14  0  0  0  0  0  0  0  0999 V2000
   -0.7262   -1.8354    1.0700 S   0  0  0  0  0  0  0  0  0  0  0  0
   -1.1910   -0.4779    0.1128 C   0  0  0  0  0  0  0  0  0  0  0  0
   -2.4100    0.5514    0.3416 S   0  0  0  0  0  0  0  0  0  0  0  0
   -1.6904   -1.7094    1.9958 H   0  0  0  0  0  0  0  0  0  0  0  0
    0.9421    0.7843   -2.2585 C   0  0  0  0  0  0  0  0  0  0  0  0
    0.9421    0.7843   -0.7362 C   0  0  0  0  0  3  0  0  0  0  0  0
    2.2971   -0.2321   -0.0525 S   0  0  0  0  0  0  0  0  0  0  0  0
    0.9421    2.1943   -0.1621 C   0  0  0  0  0  0  0  0  0  0  0  0
    0.9135   -0.2300   -2.6552 H   0  0  0  0  0  0  0  0  0  0  0  0
    1.8405    1.2740   -2.6421 H   0  0  0  0  0  0  0  0  0  0  0  0
    0.0751    1.3317   -2.6373 H   0  0  0  0  0  0  0  0  0  0  0  0
   -0.1258    0.1524   -0.3112 H   0  0  0  0  0  0  0  0  0  0  0  0
    3.3034    0.5034   -0.5472 H   0  0  0  0  0  0  0  0  0  0  0  0
    0.0751    2.7515   -0.5263 H   0  0  0  0  0  0  0  0  0  0  0  0
    1.8405    2.7342   -0.4710 H   0  0  0  0  0  0  0  0  0  0  0  0
    0.9135    2.1792    0.9268 H   0  0  0  0  0  0  0  0  0  0  0  0
  1  2  1  0
  1  4  1  0
  2  3  2  0
  2 12  1  0
  5  6  1  0
  5  9  1  0
  5 10  1  0
  5 11  1  0
  6  8  1  0
  6  7  1  0
  7 13  1  0
  8 14  1  0
  8 15  1  0
  8 16  1  0
M  RAD  1   6   2
M  END
>  <reaction>  (5) 
rxn_1947

>  <mol_properties>  (5) 
{"0": {"label": "*4", "atom_type": "S2s"}, "1": {"label": "*3", "atom_type": "CS"}, "5": {"label": "*1", "atom_type": "Cs"}, "6": {"label": "*0", "atom_type": "S2s"}, "11": {"label": "*2", "atom_type": "H0"}}

>  <type>  (5) 
unop_1

>  <geom_source>  (5) 
Heuristics

$$$$

     RDKit          3D

 16 14  0  0  0  0  0  0  0  0999 V2000
   -1.6155   -1.5308   -0.8498 S   0  0  0  0  0  0  0  0  0  0  0  0
   -1.1599   -0.3186    0.2896 C   0  0  0  0  0  0  0  0  0  0  0  0
   -1.5842   -0.1751    1.8378 S   0  0  0  0  0  0  0  0  0  0  0  0
   -2.3913   -2.2426   -0.0167 H   0  0  0  0  0  0  0  0  0  0  0  0
    0.9732    0.9436   -2.0816 C   0  0  0  0  0  0  0  0  0  0  0  0
    0.9732    0.9436   -0.5593 C   0  0  0  0  0  3  0  0  0  0  0  0
    2.3282   -0.0729    0.1243 S   0  0  0  0  0  0  0  0  0  0  0  0
    0.9732    2.3535    0.0147 C   0  0  0  0  0  0  0  0  0  0  0  0
    0.9446   -0.0707   -2.4783 H   0  0  0  0  0  0  0  0  0  0  0  0
    1.8716    1.4333   -2.4652 H   0  0  0  0  0  0  0  0  0  0  0  0
    0.1062    1.4910   -2.4604 H   0  0  0  0  0  0  0  0  0  0  0  0
   -0.0947    0.3117   -0.1343 H   0  0  0  0  0  0  0  0  0  0  0  0
    3.3345    0.6626   -0.3704 H   0  0  0  0  0  0  0  0  0  0  0  0
    0.1062    2.9108   -0.3494 H   0  0  0  0  0  0  0  0  0  0  0  0
    1.8716    2.8935   -0.2942 H   0  0  0  0  0  0  0  0  0  0  0  0
    0.9446    2.3385    1.1037 H   0  0  0  0  0  0  0  0  0  0  0  0
  1  2  1  0
  1  4  1  0
  2  3  2  0
  2 12  1  0
  5  6  1  0
  5  9  1  0
  5 10  1  0
  5 11  1  0
  6  8  1  0
  6  7  1  0
  7 13  1  0
  8 14  1  0
  8 15  1  0
  8 16  1  0
M  RAD  1   6   2
M  END
>  <reaction>  (6) 
rxn_1947

>  <mol_properties>  (6) 
{"0": {"label": "*4", "atom_type": "S2s"}, "1": {"label": "*3", "atom_type": "CS"}, "5": {"label": "*1", "atom_type": "Cs"}, "6": {"label": "*0", "atom_type": "S2s"}, "11": {"label": "*2", "atom_type": "H0"}}

>  <type>  (6) 
unop_2

>  <geom_source>  (6) 
Heuristics

$$$$

     RDKit          3D

 16 14  0  0  0  0  0  0  0  0999 V2000
   -0.7927   -1.2537    1.6831 S   0  0  0  0  0  0  0  0  0  0  0  0
   -1.1208   -0.5052    0.1641 C   0  0  0  0  0  0  0  0  0  0  0  0
   -2.5255    0.0294   -0.4178 S   0  0  0  0  0  0  0  0  0  0  0  0
   -2.0520   -1.2192    2.1478 H   0  0  0  0  0  0  0  0  0  0  0  0
    1.0124    0.7570   -2.2071 C   0  0  0  0  0  0  0  0  0  0  0  0
    1.0124    0.7570   -0.6848 C   0  0  0  0  0  3  0  0  0  0  0  0
    2.3674   -0.2594   -0.0012 S   0  0  0  0  0  0  0  0  0  0  0  0
    1.0124    2.1670   -0.1108 C   0  0  0  0  0  0  0  0  0  0  0  0
    0.9838   -0.2573   -2.6038 H   0  0  0  0  0  0  0  0  0  0  0  0
    1.9108    1.2467   -2.5908 H   0  0  0  0  0  0  0  0  0  0  0  0
    0.1454    1.3044   -2.5859 H   0  0  0  0  0  0  0  0  0  0  0  0
   -0.0555    0.1251   -0.2598 H   0  0  0  0  0  0  0  0  0  0  0  0
    3.3737    0.4761   -0.4959 H   0  0  0  0  0  0  0  0  0  0  0  0
    0.1454    2.7242   -0.4749 H   0  0  0  0  0  0  0  0  0  0  0  0
    1.9108    2.7069   -0.4197 H   0  0  0  0  0  0  0  0  0  0  0  0
    0.9838    2.1519    0.9782 H   0  0  0  0  0  0  0  0  0  0  0  0
  1  2  1  0
  1  4  1  0
  2  3  2  0
  2 12  1  0
  5  6  1  0
  5  9  1  0
  5 10  1  0
  5 11  1  0
  6  8  1  0
  6  7  1  0
  7 13  1  0
  8 14  1  0
  8 15  1  0
  8 16  1  0
M  RAD  1   6   2
M  END
>  <reaction>  (7) 
rxn_1947

>  <mol_properties>  (7) 
{"0": {"label": "*4", "atom_type": "S2s"}, "1": {"label": "*3", "atom_type": "CS"}, "5": {"label": "*1", "atom_type": "Cs"}, "6": {"label": "*0", "atom_type": "S2s"}, "11": {"label": "*2", "atom_type": "H0"}}

>  <type>  (7) 
unop_3

>  <geom_source>  (7) 
Heuristics

$$$$

     RDKit          3D

 16 14  0  0  0  0  0  0  0  0999 V2000
   -2.5048    0.2389   -0.3746 S   0  0  0  0  0  0  0  0  0  0  0  0
   -1.0862   -0.5543    0.2031 C   0  0  0  0  0  0  0  0  0  0  0  0
   -0.8698   -1.3649    1.5791 S   0  0  0  0  0  0  0  0  0  0  0  0
   -3.2864   -0.0571    0.6762 H   0  0  0  0  0  0  0  0  0  0  0  0
    1.0470    0.7080   -2.1682 C   0  0  0  0  0  0  0  0  0  0  0  0
    1.0470    0.7080   -0.6459 C   0  0  0  0  0  3  0  0  0  0  0  0
    2.4020   -0.3085    0.0378 S   0  0  0  0  0  0  0  0  0  0  0  0
    1.0470    2.1179   -0.0718 C   0  0  0  0  0  0  0  0  0  0  0  0
    1.0184   -0.3063   -2.5649 H   0  0  0  0  0  0  0  0  0  0  0  0
    1.9454    1.1977   -2.5518 H   0  0  0  0  0  0  0  0  0  0  0  0
    0.1800    1.2554   -2.5470 H   0  0  0  0  0  0  0  0  0  0  0  0
   -0.0209    0.0761   -0.2209 H   0  0  0  0  0  0  0  0  0  0  0  0
    3.4083    0.4270   -0.4569 H   0  0  0  0  0  0  0  0  0  0  0  0
    0.1800    2.6752   -0.4360 H   0  0  0  0  0  0  0  0  0  0  0  0
    1.9454    2.6579   -0.3807 H   0  0  0  0  0  0  0  0  0  0  0  0
    1.0184    2.1028    1.0171 H   0  0  0  0  0  0  0  0  0  0  0  0
  1  2  1  0
  1  4  1  0
  2  3  2  0
  2 12  1  0
  5  6  1  0
  5  9  1  0
  5 10  1  0
  5 11  1  0
  6  8  1  0
  6  7  1  0
  7 13  1  0
  8 14  1  0
  8 15  1  0
  8 16  1  0
M  RAD  1   6   2
M  END
>  <reaction>  (8) 
rxn_1947

>  <mol_properties>  (8) 
{"0": {"label": "*4", "atom_type": "S2s"}, "1": {"label": "*3", "atom_type": "CS"}, "5": {"label": "*1", "atom_type": "Cs"}, "6": {"label": "*0", "atom_type": "S2s"}, "11": {"label": "*2", "atom_type": "H0"}}

>  <type>  (8) 
unop_4

>  <geom_source>  (8) 
Heuristics

$$$$

     RDKit          3D

 16 14  0  0  0  0  0  0  0  0999 V2000
   -1.1409   -0.4297    1.9407 S   0  0  0  0  0  0  0  0  0  0  0  0
   -1.1164   -0.4153    0.2161 C   0  0  0  0  0  0  0  0  0  0  0  0
   -2.1818   -1.0457   -0.8160 S   0  0  0  0  0  0  0  0  0  0  0  0
   -2.2907   -1.1101    2.0735 H   0  0  0  0  0  0  0  0  0  0  0  0
    1.0167    0.8469   -2.1552 C   0  0  0  0  0  0  0  0  0  0  0  0
    1.0167    0.8469   -0.6329 C   0  0  0  0  0  3  0  0  0  0  0  0
    2.3717   -0.1695    0.0507 S   0  0  0  0  0  0  0  0  0  0  0  0
    1.0167    2.2569   -0.0588 C   0  0  0  0  0  0  0  0  0  0  0  0
    0.9881   -0.1673   -2.5519 H   0  0  0  0  0  0  0  0  0  0  0  0
    1.9151    1.3366   -2.5388 H   0  0  0  0  0  0  0  0  0  0  0  0
    0.1497    1.3943   -2.5340 H   0  0  0  0  0  0  0  0  0  0  0  0
   -0.0512    0.2150   -0.2079 H   0  0  0  0  0  0  0  0  0  0  0  0
    3.3780    0.5660   -0.4439 H   0  0  0  0  0  0  0  0  0  0  0  0
    0.1497    2.8141   -0.4230 H   0  0  0  0  0  0  0  0  0  0  0  0
    1.9151    2.7968   -0.3678 H   0  0  0  0  0  0  0  0  0  0  0  0
    0.9881    2.2418    1.0301 H   0  0  0  0  0  0  0  0  0  0  0  0
  1  2  1  0
  1  4  1  0
  2  3  2  0
  2 12  1  0
  5  6  1  0
  5  9  1  0
  5 10  1  0
  5 11  1  0
  6  8  1  0
  6  7  1  0
  7 13  1  0
  8 14  1  0
  8 15  1  0
  8 16  1  0
M  RAD  1   6   2
M  END
>  <reaction>  (9) 
rxn_1947

>  <mol_properties>  (9) 
{"0": {"label": "*4", "atom_type": "S2s"}, "1": {"label": "*3", "atom_type": "CS"}, "5": {"label": "*1", "atom_type": "Cs"}, "6": {"label": "*0", "atom_type": "S2s"}, "11": {"label": "*2", "atom_type": "H0"}}

>  <type>  (9) 
unop_5

>  <geom_source>  (9) 
Heuristics

$$$$

     RDKit          3D

 16 14  0  0  0  0  0  0  0  0999 V2000
   -2.4560    0.5838    0.3193 S   0  0  0  0  0  0  0  0  0  0  0  0
   -1.1529   -0.5303    0.1295 C   0  0  0  0  0  0  0  0  0  0  0  0
   -0.7454   -1.7790    1.0635 S   0  0  0  0  0  0  0  0  0  0  0  0
   -2.9520    0.0510    1.4475 H   0  0  0  0  0  0  0  0  0  0  0  0
    0.9802    0.7319   -2.2418 C   0  0  0  0  0  0  0  0  0  0  0  0
    0.9802    0.7319   -0.7194 C   0  0  0  0  0  3  0  0  0  0  0  0
    2.3353   -0.2846   -0.0358 S   0  0  0  0  0  0  0  0  0  0  0  0
    0.9802    2.1418   -0.1454 C   0  0  0  0  0  0  0  0  0  0  0  0
    0.9517   -0.2824   -2.6384 H   0  0  0  0  0  0  0  0  0  0  0  0
    1.8787    1.2216   -2.6254 H   0  0  0  0  0  0  0  0  0  0  0  0
    0.1133    1.2793   -2.6206 H   0  0  0  0  0  0  0  0  0  0  0  0
   -0.0876    0.1000   -0.2945 H   0  0  0  0  0  0  0  0  0  0  0  0
    3.3415    0.4509   -0.5305 H   0  0  0  0  0  0  0  0  0  0  0  0
    0.1133    2.6991   -0.5096 H   0  0  0  0  0  0  0  0  0  0  0  0
    1.8787    2.6818   -0.4543 H   0  0  0  0  0  0  0  0  0  0  0  0
    0.9517    2.1267    0.9436 H   0  0  0  0  0  0  0  0  0  0  0  0
  1  2  1  0
  1  4  1  0
  2  3  2  0
  2 12  1  0
  5  6  1  0
  5  9  1  0
  5 10  1  0
  5 11  1  0
  6  8  1  0
  6  7  1  0
  7 13  1  0
  8 14  1  0
  8 15  1  0
  8 16  1  0
M  RAD  1   6   2
M  END
>  <reaction>  (10) 
rxn_1947

>  <mol_properties>  (10) 
{"0": {"label": "*4", "atom_type": "S2s"}, "1": {"label": "*3", "atom_type": "CS"}, "5": {"label": "*1", "atom_type": "Cs"}, "6": {"label": "*0", "atom_type": "S2s"}, "11": {"label": "*2", "atom_type": "H0"}}

>  <type>  (10) 
unop_6

>  <geom_source>  (10) 
Heuristics

$$$$

     RDKit          3D

 16 14  0  0  0  0  0  0  0  0999 V2000
   -2.1734    0.6104    1.0700 S   0  0  0  0  0  0  0  0  0  0  0  0
   -1.2072   -0.4505    0.1128 C   0  0  0  0  0  0  0  0  0  0  0  0
   -0.8918   -2.0144    0.3416 S   0  0  0  0  0  0  0  0  0  0  0  0
   -2.5271   -0.2955    1.9958 H   0  0  0  0  0  0  0  0  0  0  0  0
    0.9259    0.8117   -2.2585 C   0  0  0  0  0  0  0  0  0  0  0  0
    0.9259    0.8117   -0.7362 C   0  0  0  0  0  3  0  0  0  0  0  0
    2.2809   -0.2048   -0.0525 S   0  0  0  0  0  0  0  0  0  0  0  0
    0.9259    2.2216   -0.1621 C   0  0  0  0  0  0  0  0  0  0  0  0
    0.8973   -0.2026   -2.6552 H   0  0  0  0  0  0  0  0  0  0  0  0
    1.8243    1.3014   -2.6421 H   0  0  0  0  0  0  0  0  0  0  0  0
    0.0589    1.3591   -2.6373 H   0  0  0  0  0  0  0  0  0  0  0  0
   -0.1420    0.1798   -0.3112 H   0  0  0  0  0  0  0  0  0  0  0  0
    3.2872    0.5307   -0.5472 H   0  0  0  0  0  0  0  0  0  0  0  0
    0.0589    2.7789   -0.5263 H   0  0  0  0  0  0  0  0  0  0  0  0
    1.8243    2.7616   -0.4710 H   0  0  0  0  0  0  0  0  0  0  0  0
    0.8973    2.2065    0.9268 H   0  0  0  0  0  0  0  0  0  0  0  0
  1  2  1  0
  1  4  1  0
  2  3  2  0
  2 12  1  0
  5  6  1  0
  5  9  1  0
  5 10  1  0
  5 11  1  0
  6  8  1  0
  6  7  1  0
  7 13  1  0
  8 14  1  0
  8 15  1  0
  8 16  1  0
M  RAD  1   6   2
M  END
>  <reaction>  (11) 
rxn_1947

>  <mol_properties>  (11) 
{"0": {"label": "*4", "atom_type": "S2s"}, "1": {"label": "*3", "atom_type": "CS"}, "5": {"label": "*1", "atom_type": "Cs"}, "6": {"label": "*0", "atom_type": "S2s"}, "11": {"label": "*2", "atom_type": "H0"}}

>  <type>  (11) 
unop_7

>  <geom_source>  (11) 
Heuristics

$$$$

     RDKit          3D

 16 14  0  0  0  0  0  0  0  0999 V2000
   -0.8855   -2.0703    0.3193 S   0  0  0  0  0  0  0  0  0  0  0  0
   -1.2348   -0.3919    0.1295 C   0  0  0  0  0  0  0  0  0  0  0  0
   -2.1331    0.5663    1.0635 S   0  0  0  0  0  0  0  0  0  0  0  0
   -1.5913   -2.2487    1.4475 H   0  0  0  0  0  0  0  0  0  0  0  0
    0.8983    0.8703   -2.2418 C   0  0  0  0  0  0  0  0  0  0  0  0
    0.8983    0.8703   -0.7194 C   0  0  0  0  0  3  0  0  0  0  0  0
    2.2533   -0.1461   -0.0358 S   0  0  0  0  0  0  0  0  0  0  0  0
    0.8983    2.2803   -0.1454 C   0  0  0  0  0  0  0  0  0  0  0  0
    0.8697   -0.1439   -2.6384 H   0  0  0  0  0  0  0  0  0  0  0  0
    1.7967    1.3601   -2.6254 H   0  0  0  0  0  0  0  0  0  0  0  0
    0.0313    1.4178   -2.6206 H   0  0  0  0  0  0  0  0  0  0  0  0
   -0.1696    0.2385   -0.2945 H   0  0  0  0  0  0  0  0  0  0  0  0
    3.2596    0.5894   -0.5305 H   0  0  0  0  0  0  0  0  0  0  0  0
    0.0313    2.8376   -0.5096 H   0  0  0  0  0  0  0  0  0  0  0  0
    1.7967    2.8202   -0.4543 H   0  0  0  0  0  0  0  0  0  0  0  0
    0.8697    2.2652    0.9436 H   0  0  0  0  0  0  0  0  0  0  0  0
  1  2  1  0
  1  4  1  0
  2  3  2  0
  2 12  1  0
  5  6  1  0
  5  9  1  0
  5 10  1  0
  5 11  1  0
  6  8  1  0
  6  7  1  0
  7 13  1  0
  8 14  1  0
  8 15  1  0
  8 16  1  0
M  RAD  1   6   2
M  END
>  <reaction>  (12) 
rxn_1947

>  <mol_properties>  (12) 
{"0": {"label": "*4", "atom_type": "S2s"}, "1": {"label": "*3", "atom_type": "CS"}, "5": {"label": "*1", "atom_type": "Cs"}, "6": {"label": "*0", "atom_type": "S2s"}, "11": {"label": "*2", "atom_type": "H0"}}

>  <type>  (12) 
unop_8

>  <geom_source>  (12) 
Heuristics

$$$$

     RDKit          3D

 16 14  0  0  0  0  0  0  0  0999 V2000
   -2.3344   -0.3158   -0.8498 S   0  0  0  0  0  0  0  0  0  0  0  0
   -1.0526   -0.5000    0.2896 C   0  0  0  0  0  0  0  0  0  0  0  0
   -1.1310   -0.9409    1.8378 S   0  0  0  0  0  0  0  0  0  0  0  0
   -3.3318   -0.6532   -0.0167 H   0  0  0  0  0  0  0  0  0  0  0  0
    1.0805    0.7623   -2.0816 C   0  0  0  0  0  0  0  0  0  0  0  0
    1.0805    0.7623   -0.5593 C   0  0  0  0  0  3  0  0  0  0  0  0
    2.4355   -0.2542    0.1243 S   0  0  0  0  0  0  0  0  0  0  0  0
    1.0805    2.1722    0.0147 C   0  0  0  0  0  0  0  0  0  0  0  0
    1.0519   -0.2520   -2.4783 H   0  0  0  0  0  0  0  0  0  0  0  0
    1.9789    1.2520   -2.4652 H   0  0  0  0  0  0  0  0  0  0  0  0
    0.2135    1.3097   -2.4604 H   0  0  0  0  0  0  0  0  0  0  0  0
    0.0126    0.1304   -0.1343 H   0  0  0  0  0  0  0  0  0  0  0  0
    3.4418    0.4813   -0.3704 H   0  0  0  0  0  0  0  0  0  0  0  0
    0.2135    2.7295   -0.3494 H   0  0  0  0  0  0  0  0  0  0  0  0
    1.9789    2.7122   -0.2942 H   0  0  0  0  0  0  0  0  0  0  0  0
    1.0519    2.1571    1.1037 H   0  0  0  0  0  0  0  0  0  0  0  0
  1  2  1  0
  1  4  1  0
  2  3  2  0
  2 12  1  0
  5  6  1  0
  5  9  1  0
  5 10  1  0
  5 11  1  0
  6  8  1  0
  6  7  1  0
  7 13  1  0
  8 14  1  0
  8 15  1  0
  8 16  1  0
M  RAD  1   6   2
M  END
>  <reaction>  (13) 
rxn_1947

>  <mol_properties>  (13) 
{"0": {"label": "*4", "atom_type": "S2s"}, "1": {"label": "*3", "atom_type": "CS"}, "5": {"label": "*1", "atom_type": "Cs"}, "6": {"label": "*0", "atom_type": "S2s"}, "11": {"label": "*2", "atom_type": "H0"}}

>  <type>  (13) 
unop_9

>  <geom_source>  (13) 
Heuristics

$$$$

     RDKit          3D

 16 14  0  0  0  0  0  0  0  0999 V2000
   -1.2113   -1.9471   -0.3746 S   0  0  0  0  0  0  0  0  0  0  0  0
   -1.2237   -0.3219    0.2031 C   0  0  0  0  0  0  0  0  0  0  0  0
   -1.8301    0.2580    1.5791 S   0  0  0  0  0  0  0  0  0  0  0  0
   -1.8470   -2.4897    0.6762 H   0  0  0  0  0  0  0  0  0  0  0  0
    0.9095    0.9403   -2.1682 C   0  0  0  0  0  0  0  0  0  0  0  0
    0.9095    0.9403   -0.6459 C   0  0  0  0  0  3  0  0  0  0  0  0
    2.2645   -0.0761    0.0378 S   0  0  0  0  0  0  0  0  0  0  0  0
    0.9095    2.3503   -0.0718 C   0  0  0  0  0  0  0  0  0  0  0  0
    0.8809   -0.0739   -2.5649 H   0  0  0  0  0  0  0  0  0  0  0  0
    1.8079    1.4301   -2.5518 H   0  0  0  0  0  0  0  0  0  0  0  0
    0.0425    1.4877   -2.5470 H   0  0  0  0  0  0  0  0  0  0  0  0
   -0.1584    0.3085   -0.2209 H   0  0  0  0  0  0  0  0  0  0  0  0
    3.2708    0.6594   -0.4569 H   0  0  0  0  0  0  0  0  0  0  0  0
    0.0425    2.9076   -0.4360 H   0  0  0  0  0  0  0  0  0  0  0  0
    1.8079    2.8902   -0.3807 H   0  0  0  0  0  0  0  0  0  0  0  0
    0.8809    2.3352    1.0171 H   0  0  0  0  0  0  0  0  0  0  0  0
  1  2  1  0
  1  4  1  0
  2  3  2  0
  2 12  1  0
  5  6  1  0
  5  9  1  0
  5 10  1  0
  5 11  1  0
  6  8  1  0
  6  7  1  0
  7 13  1  0
  8 14  1  0
  8 15  1  0
  8 16  1  0
M  RAD  1   6   2
M  END
>  <reaction>  (14) 
rxn_1947

>  <mol_properties>  (14) 
{"0": {"label": "*4", "atom_type": "S2s"}, "1": {"label": "*3", "atom_type": "CS"}, "5": {"label": "*1", "atom_type": "Cs"}, "6": {"label": "*0", "atom_type": "S2s"}, "11": {"label": "*2", "atom_type": "H0"}}

>  <type>  (14) 
unop_10

>  <geom_source>  (14) 
Heuristics

$$$$

     RDKit          3D

 16 14  0  0  0  0  0  0  0  0999 V2000
   -1.6955    0.2720    1.6831 S   0  0  0  0  0  0  0  0  0  0  0  0
   -1.1974   -0.3758    0.1641 C   0  0  0  0  0  0  0  0  0  0  0  0
   -1.4049   -1.8644   -0.4178 S   0  0  0  0  0  0  0  0  0  0  0  0
   -2.2714   -0.8484    2.1478 H   0  0  0  0  0  0  0  0  0  0  0  0
    0.9358    0.8864   -2.2071 C   0  0  0  0  0  0  0  0  0  0  0  0
    0.9358    0.8864   -0.6848 C   0  0  0  0  0  3  0  0  0  0  0  0
    2.2908   -0.1300   -0.0012 S   0  0  0  0  0  0  0  0  0  0  0  0
    0.9358    2.2964   -0.1108 C   0  0  0  0  0  0  0  0  0  0  0  0
    0.9072   -0.1279   -2.6038 H   0  0  0  0  0  0  0  0  0  0  0  0
    1.8342    1.3761   -2.5908 H   0  0  0  0  0  0  0  0  0  0  0  0
    0.0688    1.4338   -2.5859 H   0  0  0  0  0  0  0  0  0  0  0  0
   -0.1321    0.2545   -0.2598 H   0  0  0  0  0  0  0  0  0  0  0  0
    3.2971    0.6055   -0.4959 H   0  0  0  0  0  0  0  0  0  0  0  0
    0.0688    2.8536   -0.4749 H   0  0  0  0  0  0  0  0  0  0  0  0
    1.8342    2.8363   -0.4197 H   0  0  0  0  0  0  0  0  0  0  0  0
    0.9072    2.2813    0.9782 H   0  0  0  0  0  0  0  0  0  0  0  0
  1  2  1  0
  1  4  1  0
  2  3  2  0
  2 12  1  0
  5  6  1  0
  5  9  1  0
  5 10  1  0
  5 11  1  0
  6  8  1  0
  6  7  1  0
  7 13  1  0
  8 14  1  0
  8 15  1  0
  8 16  1  0
M  RAD  1   6   2
M  END
>  <reaction>  (15) 
rxn_1947

>  <mol_properties>  (15) 
{"0": {"label": "*4", "atom_type": "S2s"}, "1": {"label": "*3", "atom_type": "CS"}, "5": {"label": "*1", "atom_type": "Cs"}, "6": {"label": "*0", "atom_type": "S2s"}, "11": {"label": "*2", "atom_type": "H0"}}

>  <type>  (15) 
unop_11

>  <geom_source>  (15) 
Heuristics

$$$$

     RDKit          3D

 16 14  0  0  0  0  0  0  0  0999 V2000
   -2.0124   -0.9454   -1.0158 S   0  0  0  0  0  0  0  0  0  0  0  0
   -1.0831   -0.3955    0.3293 C   0  0  0  0  0  0  0  0  0  0  0  0
   -1.3801   -0.5713    1.9036 S   0  0  0  0  0  0  0  0  0  0  0  0
   -2.9908   -1.5244   -0.3016 H   0  0  0  0  0  0  0  0  0  0  0  0
    1.0501    0.8667   -2.0420 C   0  0  0  0  0  0  0  0  0  0  0  0
    1.0501    0.8667   -0.5196 C   0  0  0  0  0  3  0  0  0  0  0  0
    2.4051   -0.1498    0.1640 S   0  0  0  0  0  0  0  0  0  0  0  0
    1.0501    2.2766    0.0544 C   0  0  0  0  0  0  0  0  0  0  0  0
    1.0215   -0.1476   -2.4386 H   0  0  0  0  0  0  0  0  0  0  0  0
    1.9485    1.3564   -2.4256 H   0  0  0  0  0  0  0  0  0  0  0  0
    0.1831    1.4141   -2.4208 H   0  0  0  0  0  0  0  0  0  0  0  0
   -0.0178    0.2348   -0.0947 H   0  0  0  0  0  0  0  0  0  0  0  0
    3.4114    0.5857   -0.3307 H   0  0  0  0  0  0  0  0  0  0  0  0
    0.1831    2.8339   -0.3098 H   0  0  0  0  0  0  0  0  0  0  0  0
    1.9485    2.8166   -0.2545 H   0  0  0  0  0  0  0  0  0  0  0  0
    1.0215    2.2616    1.1434 H   0  0  0  0  0  0  0  0  0  0  0  0
  1  2  1  0
  1  4  1  0
  2  3  2  0
  2 12  1  0
  5  6  1  0
  5  9  1  0
  5 10  1  0
  5 11  1  0
  6  8  1  0
  6  7  1  0
  7 13  1  0
  8 14  1  0
  8 15  1  0
  8 16  1  0
M  RAD  1   6   2
M  END
>  <reaction>  (16) 
rxn_1947

>  <mol_properties>  (16) 
{"0": {"label": "*4", "atom_type": "S2s"}, "1": {"label": "*3", "atom_type": "CS"}, "5": {"label": "*1", "atom_type": "Cs"}, "6": {"label": "*0", "atom_type": "S2s"}, "11": {"label": "*2", "atom_type": "H0"}}

>  <type>  (16) 
unop_12

>  <geom_source>  (16) 
Heuristics

$$$$

     RDKit          3D

 16 14  0  0  0  0  0  0  0  0999 V2000
   -0.6837    1.5353   -1.1465 S   0  0  0  0  0  0  0  0  0  0  0  0
    2.8584    1.4622   -0.1206 S   0  0  0  0  0  0  0  0  0  0  0  0
    2.5052   -0.8303    1.4424 S   0  0  0  0  0  0  0  0  0  0  0  0
   -1.1434   -1.1714   -0.9889 C   0  0  0  0  0  0  0  0  0  0  0  0
   -1.2648    0.1434    1.1603 C   0  0  0  0  0  0  0  0  0  0  0  0
   -0.5643   -0.0095   -0.1876 C   0  0  0  0  0  3  0  0  0  0  0  0
    1.9563    0.0163    0.4246 C   0  0  0  0  0  0  0  0  0  0  0  0
   -2.2197   -0.9997   -1.2053 H   0  0  0  0  0  0  0  0  0  0  0  0
   -0.5928   -1.2755   -1.9473 H   0  0  0  0  0  0  0  0  0  0  0  0
   -1.0321   -2.1180   -0.4192 H   0  0  0  0  0  0  0  0  0  0  0  0
   -1.1629   -0.7926    1.7490 H   0  0  0  0  0  0  0  0  0  0  0  0
   -0.7955    0.9680    1.7364 H   0  0  0  0  0  0  0  0  0  0  0  0
   -2.3433    0.3688    1.0169 H   0  0  0  0  0  0  0  0  0  0  0  0
    0.7913   -0.2620   -0.0986 H   0  0  0  0  0  0  0  0  0  0  0  0
    3.5090    0.7411   -1.1395 H   0  0  0  0  0  0  0  0  0  0  0  0
    0.1824    2.2238   -0.2762 H   0  0  0  0  0  0  0  0  0  0  0  0
  1  6  1  0
  1 16  1  0
  2  7  1  0
  2 15  1  0
  3  7  2  0
  4  6  1  0
  4  8  1  0
  4  9  1  0
  4 10  1  0
  5  6  1  0
  5 11  1  0
  5 12  1  0
  5 13  1  0
  7 14  1  0
M  RAD  1   6   2
M  END
>  <reaction>  (17) 
rxn_1947

>  <mol_properties>  (17) 
{"0": {"label": "*4", "atom_type": "S2s"}, "1": {"label": "*3", "atom_type": "CS"}, "5": {"label": "*1", "atom_type": "Cs"}, "6": {"label": "*0", "atom_type": "S2s"}, "11": {"label": "*2", "atom_type": "H0"}}

>  <type>  (17) 
unop_13

>  <geom_source>  (17) 
AutoTST

$$$$
