
     RDKit          3D

 11 10  0  0  0  0  0  0  0  0999 V2000
   -1.2710    0.1907   -0.2084 C   0  0  0  0  0  0  0  0  0  0  0  0
    0.0202   -0.6130   -0.2928 C   0  0  0  0  0  0  0  0  0  0  0  0
    0.1086   -1.6953    0.7756 C   0  0  0  0  0  0  0  0  0  0  0  0
   -1.3607    0.6851    0.7620 H   0  0  0  0  0  0  0  0  0  0  0  0
   -2.1429   -0.4567   -0.3299 H   0  0  0  0  0  0  0  0  0  0  0  0
   -1.3158    0.9602   -0.9809 H   0  0  0  0  0  0  0  0  0  0  0  0
    0.8757    0.0616   -0.1992 H   0  0  0  0  0  0  0  0  0  0  0  0
    0.0997   -1.0712   -1.2825 H   0  0  0  0  0  0  0  0  0  0  0  0
   -0.7198   -2.4022    0.6850 H   0  0  0  0  0  0  0  0  0  0  0  0
    1.0395   -2.2596    0.6989 H   0  0  0  0  0  0  0  0  0  0  0  0
    0.0624   -1.2603    1.7770 H   0  0  0  0  0  0  0  0  0  0  0  0
  1  2  1  0
  1  4  1  0
  1  5  1  0
  1  6  1  0
  2  3  1  0
  2  7  1  0
  2  8  1  0
  3  9  1  0
  3 10  1  0
  3 11  1  0
M  END
>  <reaction>  (1) 
rxn_133

>  <mol_properties>  (1) 
{"0": {"label": "donator", "atom_type": "Cs"}, "3": {"label": "d_hydrogen", "atom_type": "H0"}}

>  <type>  (1) 
r1h

$$$$

     RDKit          3D

  1  0  0  0  0  0  0  0  0  0999 V2000
    0.0000    0.0000    0.0000 Cl  0  0  0  0  0 15  0  0  0  0  0  0
M  END
>  <reaction>  (2) 
rxn_133

>  <mol_properties>  (2) 
{"0": {"label": "acceptor", "atom_type": "Cl1s"}}

>  <type>  (2) 
r2

$$$$

     RDKit          3D

  2  1  0  0  0  0  0  0  0  0999 V2000
    0.0000    0.0000    0.6391 Cl  0  0  0  0  0  0  0  0  0  0  0  0
    0.0000    0.0000   -0.6391 H   0  0  0  0  0  0  0  0  0  0  0  0
  1  2  1  0
M  END
>  <reaction>  (3) 
rxn_133

>  <mol_properties>  (3) 
{"0": {"label": "acceptor", "atom_type": "Cl1s"}, "1": {"label": "a_hydrogen", "atom_type": "H0"}}

>  <type>  (3) 
r2h

$$$$

     RDKit          3D

 12 10  0  0  0  0  0  0  0  0999 V2000
   -1.2871    1.1698    0.1005 Cl  0  0  0  0  0 15  0  0  0  0  0  0
    1.1191   -0.1656    0.8936 C   0  0  0  0  0  0  0  0  0  0  0  0
    0.9954   -1.5236    0.2843 C   0  0  0  0  0  0  0  0  0  0  0  0
    1.0366   -1.5208   -1.2381 C   0  0  0  0  0  0  0  0  0  0  0  0
   -0.0458    0.5181    0.5127 H   0  0  0  0  0  0  0  0  0  0  0  0
    1.8635    0.5040    0.4679 H   0  0  0  0  0  0  0  0  0  0  0  0
    1.0170   -0.0904    1.9729 H   0  0  0  0  0  0  0  0  0  0  0  0
    0.0803   -2.0022    0.6420 H   0  0  0  0  0  0  0  0  0  0  0  0
    1.8222   -2.1325    0.6770 H   0  0  0  0  0  0  0  0  0  0  0  0
    1.9642   -1.0753   -1.6034 H   0  0  0  0  0  0  0  0  0  0  0  0
    0.9730   -2.5358   -1.6306 H   0  0  0  0  0  0  0  0  0  0  0  0
    0.2031   -0.9462   -1.6445 H   0  0  0  0  0  0  0  0  0  0  0  0
  2  3  1  0
  2  5  1  0
  2  6  1  0
  2  7  1  0
  3  4  1  0
  3  8  1  0
  3  9  1  0
  4 10  1  0
  4 11  1  0
  4 12  1  0
M  END
>  <reaction>  (4) 
rxn_133

>  <mol_properties>  (4) 
{"0": {"label": "*3", "atom_type": "Cl1s"}, "1": {"label": "*1", "atom_type": "Cs"}, "2": {"label": "*0", "atom_type": "Cs"}, "4": {"label": "*2", "atom_type": "H0"}}

>  <type>  (4) 
ts

$$$$

     RDKit          3D

 12 10  0  0  0  0  0  0  0  0999 V2000
   -1.2773    1.3258    0.0356 Cl  0  0  0  0  0 15  0  0  0  0  0  0
    1.0178   -0.1286    0.8796 C   0  0  0  0  0  0  0  0  0  0  0  0
    1.0178   -1.5344    0.2929 C   0  0  0  0  0  0  0  0  0  0  0  0
    1.0178   -1.5344   -1.2305 C   0  0  0  0  0  0  0  0  0  0  0  0
   -0.0400    0.5417    0.4906 H   0  0  0  0  0  0  0  0  0  0  0  0
    1.8992    0.4299    0.5554 H   0  0  0  0  0  0  0  0  0  0  0  0
    1.0178   -0.1493    1.9707 H   0  0  0  0  0  0  0  0  0  0  0  0
    0.1432   -2.0808    0.6569 H   0  0  0  0  0  0  0  0  0  0  0  0
    1.8923   -2.0808    0.6569 H   0  0  0  0  0  0  0  0  0  0  0  0
    1.8992   -1.0202   -1.6211 H   0  0  0  0  0  0  0  0  0  0  0  0
    1.0178   -2.5493   -1.6316 H   0  0  0  0  0  0  0  0  0  0  0  0
    0.1363   -1.0202   -1.6211 H   0  0  0  0  0  0  0  0  0  0  0  0
  2  3  1  0
  2  5  1  0
  2  6  1  0
  2  7  1  0
  3  4  1  0
  3  8  1  0
  3  9  1  0
  4 10  1  0
  4 11  1  0
  4 12  1  0
M  END
>  <reaction>  (5) 
rxn_133

>  <mol_properties>  (5) 
{"0": {"label": "*3", "atom_type": "Cl1s"}, "1": {"label": "*1", "atom_type": "Cs"}, "2": {"label": "*0", "atom_type": "Cs"}, "4": {"label": "*2", "atom_type": "H0"}}

>  <type>  (5) 
unop_1

>  <geom_source>  (5) 
Heuristics

$$$$
