
     RDKit          3D

  6  5  0  0  0  0  0  0  0  0999 V2000
   -0.3669    0.0060    0.0609 C   0  0  0  0  0  0  0  0  0  0  0  0
    0.9818   -0.0507    0.4695 O   0  0  0  0  0  0  0  0  0  0  0  0
   -0.6066    0.9462   -0.4488 H   0  0  0  0  0  0  0  0  0  0  0  0
   -0.5221   -0.8115   -0.6420 H   0  0  0  0  0  0  0  0  0  0  0  0
   -1.0602   -0.1268    0.8992 H   0  0  0  0  0  0  0  0  0  0  0  0
    1.1451    0.6595    1.0897 H   0  0  0  0  0  0  0  0  0  0  0  0
  1  2  1  0
  1  3  1  0
  1  4  1  0
  1  5  1  0
  2  6  1  0
M  END
>  <reaction>  (1) 
rxn_391

>  <mol_properties>  (1) 
{"1": {"label": "donator", "atom_type": "O2s"}, "5": {"label": "d_hydrogen", "atom_type": "H0"}}

>  <type>  (1) 
r1h

$$$$

     RDKit          3D

 13 12  0  0  0  0  0  0  0  0999 V2000
   -1.3649   -0.5967   -0.3477 C   0  0  0  0  0  0  0  0  0  0  0  0
   -0.1601   -0.2776    0.4669 C   0  0  0  0  0  3  0  0  0  0  0  0
    1.1241   -0.9571    0.1414 C   0  0  0  0  0  0  0  0  0  0  0  0
   -0.1188    1.0130    1.2081 C   0  0  0  0  0  0  0  0  0  0  0  0
   -1.4266   -1.6632   -0.5770 H   0  0  0  0  0  0  0  0  0  0  0  0
   -2.2858   -0.3004    0.1602 H   0  0  0  0  0  0  0  0  0  0  0  0
   -1.3532   -0.0668   -1.3138 H   0  0  0  0  0  0  0  0  0  0  0  0
    1.6174   -0.4963   -0.7297 H   0  0  0  0  0  0  0  0  0  0  0  0
    0.9723   -2.0104   -0.1064 H   0  0  0  0  0  0  0  0  0  0  0  0
    1.8338   -0.8977    0.9701 H   0  0  0  0  0  0  0  0  0  0  0  0
   -1.0852    1.2507    1.6593 H   0  0  0  0  0  0  0  0  0  0  0  0
    0.6358    1.0009    1.9983 H   0  0  0  0  0  0  0  0  0  0  0  0
    0.1343    1.8546    0.5434 H   0  0  0  0  0  0  0  0  0  0  0  0
  1  2  1  0
  1  5  1  0
  1  6  1  0
  1  7  1  0
  2  3  1  0
  2  4  1  0
  3  8  1  0
  3  9  1  0
  3 10  1  0
  4 11  1  0
  4 12  1  0
  4 13  1  0
M  RAD  1   2   2
M  END
>  <reaction>  (2) 
rxn_391

>  <mol_properties>  (2) 
{"1": {"label": "acceptor", "atom_type": "Cs"}}

>  <type>  (2) 
r2

$$$$

     RDKit          3D

 14 13  0  0  0  0  0  0  0  0999 V2000
   -0.7647   -1.2352   -0.0349 C   0  0  0  0  0  0  0  0  0  0  0  0
    0.0570   -0.0126    0.3624 C   0  0  0  0  0  0  0  0  0  0  0  0
    1.4162   -0.0194   -0.3307 C   0  0  0  0  0  0  0  0  0  0  0  0
   -0.7022    1.2765    0.0629 C   0  0  0  0  0  0  0  0  0  0  0  0
   -0.2387   -2.1619    0.2039 H   0  0  0  0  0  0  0  0  0  0  0  0
   -0.9625   -1.2315   -1.1108 H   0  0  0  0  0  0  0  0  0  0  0  0
   -1.7273   -1.2512    0.4806 H   0  0  0  0  0  0  0  0  0  0  0  0
    0.2294   -0.0590    1.4432 H   0  0  0  0  0  0  0  0  0  0  0  0
    1.2933    0.0260   -1.4168 H   0  0  0  0  0  0  0  0  0  0  0  0
    2.0206    0.8381   -0.0278 H   0  0  0  0  0  0  0  0  0  0  0  0
    1.9767   -0.9268   -0.0966 H   0  0  0  0  0  0  0  0  0  0  0  0
   -1.6637    1.3003    0.5801 H   0  0  0  0  0  0  0  0  0  0  0  0
   -0.8980    1.3662   -1.0096 H   0  0  0  0  0  0  0  0  0  0  0  0
   -0.1312    2.1545    0.3719 H   0  0  0  0  0  0  0  0  0  0  0  0
  1  2  1  0
  1  5  1  0
  1  6  1  0
  1  7  1  0
  2  3  1  0
  2  4  1  0
  2  8  1  0
  3  9  1  0
  3 10  1  0
  3 11  1  0
  4 12  1  0
  4 13  1  0
  4 14  1  0
M  END
>  <reaction>  (3) 
rxn_391

>  <mol_properties>  (3) 
{"0": {"label": "a_hydrogen", "atom_type": "H0"}, "2": {"label": "acceptor", "atom_type": "Cs"}}

>  <type>  (3) 
r2h

$$$$

     RDKit          3D

 19 17  0  0  0  0  0  0  0  0999 V2000
    0.0074   -1.6108   -1.7783 C   0  0  0  0  0  0  0  0  0  0  0  0
    0.8365   -1.4976   -0.6725 O   0  0  0  0  0  1  0  0  0  0  0  0
    0.0638   -0.7390   -2.4440 H   0  0  0  0  0  0  0  0  0  0  0  0
    0.3643   -2.4784   -2.3466 H   0  0  0  0  0  0  0  0  0  0  0  0
   -1.0410   -1.7970   -1.5113 H   0  0  0  0  0  0  0  0  0  0  0  0
    0.4453   -0.3996   -0.0278 H   0  0  0  0  0  0  0  0  0  0  0  0
    0.7021    0.6354    1.8421 C   0  0  0  0  0  0  0  0  0  0  0  0
    0.0336    0.6213    0.4837 C   0  0  0  0  0  0  0  0  0  0  0  0
   -1.4704    0.4716    0.5495 C   0  0  0  0  0  0  0  0  0  0  0  0
    0.4919    1.7363   -0.4308 C   0  0  0  0  0  0  0  0  0  0  0  0
    0.4157   -0.2361    2.4326 H   0  0  0  0  0  0  0  0  0  0  0  0
    1.7889    0.6424    1.7473 H   0  0  0  0  0  0  0  0  0  0  0  0
    0.4070    1.5317    2.3992 H   0  0  0  0  0  0  0  0  0  0  0  0
   -1.9181    1.3479    1.0312 H   0  0  0  0  0  0  0  0  0  0  0  0
   -1.7559   -0.4095    1.1266 H   0  0  0  0  0  0  0  0  0  0  0  0
   -1.9067    0.3859   -0.4477 H   0  0  0  0  0  0  0  0  0  0  0  0
    1.5785    1.7477   -0.5263 H   0  0  0  0  0  0  0  0  0  0  0  0
    0.0610    1.6344   -1.4288 H   0  0  0  0  0  0  0  0  0  0  0  0
    0.1777    2.7075   -0.0327 H   0  0  0  0  0  0  0  0  0  0  0  0
  1  2  1  0
  1  3  1  0
  1  4  1  0
  1  5  1  0
  6  8  1  0
  7  8  1  0
  7 11  1  0
  7 12  1  0
  7 13  1  0
  8  9  1  0
  8 10  1  0
  9 14  1  0
  9 15  1  0
  9 16  1  0
 10 17  1  0
 10 18  1  0
 10 19  1  0
M  RAD  1   2   2
M  END
>  <reaction>  (4) 
rxn_391

>  <mol_properties>  (4) 
{"0": {"label": "*4", "atom_type": "Cs"}, "1": {"label": "*3", "atom_type": "O2s"}, "5": {"label": "*2", "atom_type": "H0"}, "6": {"label": "*0", "atom_type": "Cs"}, "7": {"label": "*1", "atom_type": "Cs"}}

>  <type>  (4) 
ts

$$$$

     RDKit          3D

 19 17  0  0  0  0  0  0  0  0999 V2000
   -0.0601   -1.6530   -1.8635 C   0  0  0  0  0  0  0  0  0  0  0  0
   -0.0601   -1.6530   -0.4531 O   0  0  0  0  0  0  0  0  0  0  0  0
    0.8306   -1.1676   -2.2783 H   0  0  0  0  0  0  0  0  0  0  0  0
   -0.0601   -2.6944   -2.1827 H   0  0  0  0  0  0  0  0  0  0  0  0
   -0.9510   -1.1676   -2.2783 H   0  0  0  0  0  0  0  0  0  0  0  0
   -0.0601   -0.5653   -0.0844 H   0  0  0  0  0  0  0  0  0  0  0  0
   -1.3173    0.8913    1.1758 C   0  0  0  0  0  0  0  0  0  0  0  0
   -0.0601    0.6796    0.3376 C   0  0  0  0  0  3  0  0  0  0  0  0
    0.4520    2.0031   -0.2225 C   0  0  0  0  0  0  0  0  0  0  0  0
    1.0233   -0.0265    1.1471 C   0  0  0  0  0  0  0  0  0  0  0  0
   -2.1070    1.3702    0.5931 H   0  0  0  0  0  0  0  0  0  0  0  0
   -1.7055   -0.0561    1.5555 H   0  0  0  0  0  0  0  0  0  0  0  0
   -1.1018    1.5323    2.0357 H   0  0  0  0  0  0  0  0  0  0  0  0
    0.7283    2.6823    0.5894 H   0  0  0  0  0  0  0  0  0  0  0  0
   -0.3097    2.4996   -0.8274 H   0  0  0  0  0  0  0  0  0  0  0  0
    1.3351    1.8546   -0.8475 H   0  0  0  0  0  0  0  0  0  0  0  0
    0.6722   -0.9885    1.5263 H   0  0  0  0  0  0  0  0  0  0  0  0
    1.9155   -0.2070    0.5439 H   0  0  0  0  0  0  0  0  0  0  0  0
    1.3190    0.5828    2.0062 H   0  0  0  0  0  0  0  0  0  0  0  0
  1  2  1  0
  1  3  1  0
  1  4  1  0
  1  5  1  0
  2  6  1  0
  7  8  1  0
  7 11  1  0
  7 12  1  0
  7 13  1  0
  8  9  1  0
  8 10  1  0
  9 14  1  0
  9 15  1  0
  9 16  1  0
 10 17  1  0
 10 18  1  0
 10 19  1  0
M  RAD  1   8   2
M  END
>  <reaction>  (5) 
rxn_391

>  <mol_properties>  (5) 
{"0": {"label": "*4", "atom_type": "Cs"}, "1": {"label": "*3", "atom_type": "O2s"}, "5": {"label": "*2", "atom_type": "H0"}, "6": {"label": "*0", "atom_type": "Cs"}, "7": {"label": "*1", "atom_type": "Cs"}}

>  <type>  (5) 
unop_1

>  <geom_source>  (5) 
Heuristics

$$$$

     RDKit          3D

 19 17  0  0  0  0  0  0  0  0999 V2000
    0.0664   -1.7210   -1.7793 C   0  0  0  0  0  0  0  0  0  0  0  0
    0.0664   -1.7210   -0.3689 O   0  0  0  0  0  0  0  0  0  0  0  0
    0.9572   -1.2356   -2.1940 H   0  0  0  0  0  0  0  0  0  0  0  0
    0.0664   -2.7624   -2.0984 H   0  0  0  0  0  0  0  0  0  0  0  0
   -0.8244   -1.2356   -2.1940 H   0  0  0  0  0  0  0  0  0  0  0  0
    0.0664   -0.6334   -0.0002 H   0  0  0  0  0  0  0  0  0  0  0  0
   -0.6594    1.4599   -0.6180 C   0  0  0  0  0  0  0  0  0  0  0  0
    0.0664    0.6116    0.4219 C   0  0  0  0  0  3  0  0  0  0  0  0
    1.3371    1.3059    0.9026 C   0  0  0  0  0  0  0  0  0  0  0  0
   -0.8521    0.2808    1.5943 C   0  0  0  0  0  0  0  0  0  0  0  0
   -0.0161    1.6756   -1.4736 H   0  0  0  0  0  0  0  0  0  0  0  0
   -1.5545    0.9552   -0.9875 H   0  0  0  0  0  0  0  0  0  0  0  0
   -0.9699    2.4153   -0.1849 H   0  0  0  0  0  0  0  0  0  0  0  0
    1.0951    2.2560    1.3879 H   0  0  0  0  0  0  0  0  0  0  0  0
    2.0120    1.5191    0.0710 H   0  0  0  0  0  0  0  0  0  0  0  0
    1.8765    0.6905    1.6257 H   0  0  0  0  0  0  0  0  0  0  0  0
   -1.7502   -0.2427    1.2598 H   0  0  0  0  0  0  0  0  0  0  0  0
   -0.3473   -0.3506    2.3284 H   0  0  0  0  0  0  0  0  0  0  0  0
   -1.1694    1.1957    2.1033 H   0  0  0  0  0  0  0  0  0  0  0  0
  1  2  1  0
  1  3  1  0
  1  4  1  0
  1  5  1  0
  2  6  1  0
  7  8  1  0
  7 11  1  0
  7 12  1  0
  7 13  1  0
  8  9  1  0
  8 10  1  0
  9 14  1  0
  9 15  1  0
  9 16  1  0
 10 17  1  0
 10 18  1  0
 10 19  1  0
M  RAD  1   8   2
M  END
>  <reaction>  (6) 
rxn_391

>  <mol_properties>  (6) 
{"0": {"label": "*4", "atom_type": "Cs"}, "1": {"label": "*3", "atom_type": "O2s"}, "5": {"label": "*2", "atom_type": "H0"}, "6": {"label": "*0", "atom_type": "Cs"}, "7": {"label": "*1", "atom_type": "Cs"}}

>  <type>  (6) 
unop_2

>  <geom_source>  (6) 
Heuristics

$$$$

     RDKit          3D

 19 17  0  0  0  0  0  0  0  0999 V2000
   -0.0895   -1.6999   -1.8003 C   0  0  0  0  0  0  0  0  0  0  0  0
   -0.0895   -1.6999   -0.3900 O   0  0  0  0  0  0  0  0  0  0  0  0
    0.8013   -1.2145   -2.2151 H   0  0  0  0  0  0  0  0  0  0  0  0
   -0.0895   -2.7413   -2.1195 H   0  0  0  0  0  0  0  0  0  0  0  0
   -0.9803   -1.2146   -2.2151 H   0  0  0  0  0  0  0  0  0  0  0  0
   -0.0895   -0.6123   -0.0213 H   0  0  0  0  0  0  0  0  0  0  0  0
   -0.8153    0.6738    1.7421 C   0  0  0  0  0  0  0  0  0  0  0  0
   -0.0895    0.6327    0.4008 C   0  0  0  0  0  3  0  0  0  0  0  0
   -0.3578    1.9005   -0.4044 C   0  0  0  0  0  0  0  0  0  0  0  0
    1.4082    0.4170    0.5967 C   0  0  0  0  0  0  0  0  0  0  0  0
   -1.8917    0.7988    1.6075 H   0  0  0  0  0  0  0  0  0  0  0  0
   -0.6507   -0.2438    2.3109 H   0  0  0  0  0  0  0  0  0  0  0  0
   -0.4554    1.5108    2.3477 H   0  0  0  0  0  0  0  0  0  0  0  0
    0.0177    2.7796    0.1274 H   0  0  0  0  0  0  0  0  0  0  0  0
   -1.4271    2.0449   -0.5731 H   0  0  0  0  0  0  0  0  0  0  0  0
    0.1354    1.8644   -1.3780 H   0  0  0  0  0  0  0  0  0  0  0  0
    1.6079   -0.5047    1.1472 H   0  0  0  0  0  0  0  0  0  0  0  0
    1.9294    0.3576   -0.3611 H   0  0  0  0  0  0  0  0  0  0  0  0
    1.8443    1.2451    1.1631 H   0  0  0  0  0  0  0  0  0  0  0  0
  1  2  1  0
  1  3  1  0
  1  4  1  0
  1  5  1  0
  2  6  1  0
  7  8  1  0
  7 11  1  0
  7 12  1  0
  7 13  1  0
  8  9  1  0
  8 10  1  0
  9 14  1  0
  9 15  1  0
  9 16  1  0
 10 17  1  0
 10 18  1  0
 10 19  1  0
M  RAD  1   8   2
M  END
>  <reaction>  (7) 
rxn_391

>  <mol_properties>  (7) 
{"0": {"label": "*4", "atom_type": "Cs"}, "1": {"label": "*3", "atom_type": "O2s"}, "5": {"label": "*2", "atom_type": "H0"}, "6": {"label": "*0", "atom_type": "Cs"}, "7": {"label": "*1", "atom_type": "Cs"}}

>  <type>  (7) 
unop_3

>  <geom_source>  (7) 
Heuristics

$$$$

     RDKit          3D

 19 17  0  0  0  0  0  0  0  0999 V2000
   -0.0719   -1.6778   -1.8372 C   0  0  0  0  0  0  0  0  0  0  0  0
   -0.0719   -1.6778   -0.4268 O   0  0  0  0  0  0  0  0  0  0  0  0
    0.8188   -1.1924   -2.2519 H   0  0  0  0  0  0  0  0  0  0  0  0
   -0.0719   -2.7192   -2.1563 H   0  0  0  0  0  0  0  0  0  0  0  0
   -0.9628   -1.1924   -2.2519 H   0  0  0  0  0  0  0  0  0  0  0  0
   -0.0719   -0.5902   -0.0581 H   0  0  0  0  0  0  0  0  0  0  0  0
    1.1852    1.3326   -0.1727 C   0  0  0  0  0  0  0  0  0  0  0  0
   -0.0719    0.6548    0.3640 C   0  0  0  0  0  3  0  0  0  0  0  0
    0.2128   -0.0592    1.6819 C   0  0  0  0  0  0  0  0  0  0  0  0
   -1.2090    1.6598    0.5219 C   0  0  0  0  0  0  0  0  0  0  0  0
    1.9941    0.6129   -0.3156 H   0  0  0  0  0  0  0  0  0  0  0  0
    0.9949    1.8208   -1.1307 H   0  0  0  0  0  0  0  0  0  0  0  0
    1.5378    2.0963    0.5268 H   0  0  0  0  0  0  0  0  0  0  0  0
    0.5320    0.6567    2.4450 H   0  0  0  0  0  0  0  0  0  0  0  0
    1.0063   -0.8008    1.5683 H   0  0  0  0  0  0  0  0  0  0  0  0
   -0.6762   -0.5709    2.0564 H   0  0  0  0  0  0  0  0  0  0  0  0
   -1.4373    2.1531   -0.4252 H   0  0  0  0  0  0  0  0  0  0  0  0
   -2.1205    1.1753    0.8783 H   0  0  0  0  0  0  0  0  0  0  0  0
   -0.9385    2.4348    1.2451 H   0  0  0  0  0  0  0  0  0  0  0  0
  1  2  1  0
  1  3  1  0
  1  4  1  0
  1  5  1  0
  2  6  1  0
  7  8  1  0
  7 11  1  0
  7 12  1  0
  7 13  1  0
  8  9  1  0
  8 10  1  0
  9 14  1  0
  9 15  1  0
  9 16  1  0
 10 17  1  0
 10 18  1  0
 10 19  1  0
M  RAD  1   8   2
M  END
>  <reaction>  (8) 
rxn_391

>  <mol_properties>  (8) 
{"0": {"label": "*4", "atom_type": "Cs"}, "1": {"label": "*3", "atom_type": "O2s"}, "5": {"label": "*2", "atom_type": "H0"}, "6": {"label": "*0", "atom_type": "Cs"}, "7": {"label": "*1", "atom_type": "Cs"}}

>  <type>  (8) 
unop_4

>  <geom_source>  (8) 
Heuristics

$$$$

     RDKit          3D

 19 17  0  0  0  0  0  0  0  0999 V2000
   -0.0000   -1.7427   -1.7506 C   0  0  0  0  0  0  0  0  0  0  0  0
   -0.0000   -1.7427   -0.3402 O   0  0  0  0  0  0  0  0  0  0  0  0
    0.8908   -1.2574   -2.1654 H   0  0  0  0  0  0  0  0  0  0  0  0
    0.0000   -2.7842   -2.0698 H   0  0  0  0  0  0  0  0  0  0  0  0
   -0.8908   -1.2574   -2.1654 H   0  0  0  0  0  0  0  0  0  0  0  0
   -0.0000   -0.6551    0.0285 H   0  0  0  0  0  0  0  0  0  0  0  0
   -0.0000    0.5685    1.9761 C   0  0  0  0  0  0  0  0  0  0  0  0
   -0.0000    0.5898    0.4505 C   0  0  0  0  0  3  0  0  0  0  0  0
   -1.2571    1.2676   -0.0862 C   0  0  0  0  0  0  0  0  0  0  0  0
    1.2572    1.2676   -0.0861 C   0  0  0  0  0  0  0  0  0  0  0  0
   -0.8835    0.0587    2.3660 H   0  0  0  0  0  0  0  0  0  0  0  0
    0.8834    0.0586    2.3660 H   0  0  0  0  0  0  0  0  0  0  0  0
    0.0000    1.5875    2.3741 H   0  0  0  0  0  0  0  0  0  0  0  0
   -1.3003    2.3106    0.2411 H   0  0  0  0  0  0  0  0  0  0  0  0
   -2.1605    0.7688    0.2712 H   0  0  0  0  0  0  0  0  0  0  0  0
   -1.2770    1.2600   -1.1780 H   0  0  0  0  0  0  0  0  0  0  0  0
    2.1605    0.7687    0.2711 H   0  0  0  0  0  0  0  0  0  0  0  0
    1.2770    1.2602   -1.1779 H   0  0  0  0  0  0  0  0  0  0  0  0
    1.3004    2.3105    0.2413 H   0  0  0  0  0  0  0  0  0  0  0  0
  1  2  1  0
  1  3  1  0
  1  4  1  0
  1  5  1  0
  2  6  1  0
  7  8  1  0
  7 11  1  0
  7 12  1  0
  7 13  1  0
  8  9  1  0
  8 10  1  0
  9 14  1  0
  9 15  1  0
  9 16  1  0
 10 17  1  0
 10 18  1  0
 10 19  1  0
M  RAD  1   8   2
M  END
>  <reaction>  (9) 
rxn_391

>  <mol_properties>  (9) 
{"0": {"label": "*4", "atom_type": "Cs"}, "1": {"label": "*3", "atom_type": "O2s"}, "5": {"label": "*2", "atom_type": "H0"}, "6": {"label": "*0", "atom_type": "Cs"}, "7": {"label": "*1", "atom_type": "Cs"}}

>  <type>  (9) 
unop_5

>  <geom_source>  (9) 
Heuristics

$$$$

     RDKit          3D

 19 17  0  0  0  0  0  0  0  0999 V2000
   -0.0160   -1.6480   -1.8756 C   0  0  0  0  0  0  0  0  0  0  0  0
   -0.0160   -1.6480   -0.4652 O   0  0  0  0  0  0  0  0  0  0  0  0
    0.8747   -1.1626   -2.2903 H   0  0  0  0  0  0  0  0  0  0  0  0
   -0.0160   -2.6894   -2.1947 H   0  0  0  0  0  0  0  0  0  0  0  0
   -0.9069   -1.1626   -2.2903 H   0  0  0  0  0  0  0  0  0  0  0  0
   -0.0160   -0.5604   -0.0965 H   0  0  0  0  0  0  0  0  0  0  0  0
    1.4356    1.1293    0.4763 C   0  0  0  0  0  0  0  0  0  0  0  0
   -0.0160    0.6846    0.3256 C   0  0  0  0  0  3  0  0  0  0  0  0
   -0.4551   -0.1599    1.5180 C   0  0  0  0  0  0  0  0  0  0  0  0
   -0.9383    1.8854    0.1378 C   0  0  0  0  0  0  0  0  0  0  0  0
    2.1044    0.2726    0.5819 H   0  0  0  0  0  0  0  0  0  0  0  0
    1.7648    1.7098   -0.3881 H   0  0  0  0  0  0  0  0  0  0  0  0
    1.5544    1.7568    1.3645 H   0  0  0  0  0  0  0  0  0  0  0  0
   -0.4011    0.4233    2.4419 H   0  0  0  0  0  0  0  0  0  0  0  0
    0.1838   -1.0371    1.6400 H   0  0  0  0  0  0  0  0  0  0  0  0
   -1.4844   -0.5058    1.4021 H   0  0  0  0  0  0  0  0  0  0  0  0
   -0.6468    2.4778   -0.7321 H   0  0  0  0  0  0  0  0  0  0  0  0
   -1.9753    1.5719    0.0002 H   0  0  0  0  0  0  0  0  0  0  0  0
   -0.9008    2.5389    1.0142 H   0  0  0  0  0  0  0  0  0  0  0  0
  1  2  1  0
  1  3  1  0
  1  4  1  0
  1  5  1  0
  2  6  1  0
  7  8  1  0
  7 11  1  0
  7 12  1  0
  7 13  1  0
  8  9  1  0
  8 10  1  0
  9 14  1  0
  9 15  1  0
  9 16  1  0
 10 17  1  0
 10 18  1  0
 10 19  1  0
M  RAD  1   8   2
M  END
>  <reaction>  (10) 
rxn_391

>  <mol_properties>  (10) 
{"0": {"label": "*4", "atom_type": "Cs"}, "1": {"label": "*3", "atom_type": "O2s"}, "5": {"label": "*2", "atom_type": "H0"}, "6": {"label": "*0", "atom_type": "Cs"}, "7": {"label": "*1", "atom_type": "Cs"}}

>  <type>  (10) 
unop_6

>  <geom_source>  (10) 
Heuristics

$$$$

     RDKit          3D

 19 17  0  0  0  0  0  0  0  0999 V2000
    0.0601   -1.6530   -1.8635 C   0  0  0  0  0  0  0  0  0  0  0  0
    0.0601   -1.6530   -0.4531 O   0  0  0  0  0  0  0  0  0  0  0  0
    0.9509   -1.1676   -2.2783 H   0  0  0  0  0  0  0  0  0  0  0  0
    0.0602   -2.6944   -2.1827 H   0  0  0  0  0  0  0  0  0  0  0  0
   -0.8307   -1.1676   -2.2783 H   0  0  0  0  0  0  0  0  0  0  0  0
    0.0601   -0.5653   -0.0844 H   0  0  0  0  0  0  0  0  0  0  0  0
    1.3173    0.8913    1.1758 C   0  0  0  0  0  0  0  0  0  0  0  0
    0.0601    0.6796    0.3376 C   0  0  0  0  0  3  0  0  0  0  0  0
   -1.0233   -0.0265    1.1471 C   0  0  0  0  0  0  0  0  0  0  0  0
   -0.4520    2.0031   -0.2225 C   0  0  0  0  0  0  0  0  0  0  0  0
    1.7055   -0.0561    1.5556 H   0  0  0  0  0  0  0  0  0  0  0  0
    2.1070    1.3702    0.5931 H   0  0  0  0  0  0  0  0  0  0  0  0
    1.1018    1.5323    2.0357 H   0  0  0  0  0  0  0  0  0  0  0  0
   -1.3192    0.5830    2.0060 H   0  0  0  0  0  0  0  0  0  0  0  0
   -0.6722   -0.9884    1.5264 H   0  0  0  0  0  0  0  0  0  0  0  0
   -1.9155   -0.2071    0.5438 H   0  0  0  0  0  0  0  0  0  0  0  0
    0.3097    2.4995   -0.8275 H   0  0  0  0  0  0  0  0  0  0  0  0
   -1.3352    1.8547   -0.8474 H   0  0  0  0  0  0  0  0  0  0  0  0
   -0.7280    2.6824    0.5894 H   0  0  0  0  0  0  0  0  0  0  0  0
  1  2  1  0
  1  3  1  0
  1  4  1  0
  1  5  1  0
  2  6  1  0
  7  8  1  0
  7 11  1  0
  7 12  1  0
  7 13  1  0
  8  9  1  0
  8 10  1  0
  9 14  1  0
  9 15  1  0
  9 16  1  0
 10 17  1  0
 10 18  1  0
 10 19  1  0
M  RAD  1   8   2
M  END
>  <reaction>  (11) 
rxn_391

>  <mol_properties>  (11) 
{"0": {"label": "*4", "atom_type": "Cs"}, "1": {"label": "*3", "atom_type": "O2s"}, "5": {"label": "*2", "atom_type": "H0"}, "6": {"label": "*0", "atom_type": "Cs"}, "7": {"label": "*1", "atom_type": "Cs"}}

>  <type>  (11) 
unop_7

>  <geom_source>  (11) 
Heuristics

$$$$

     RDKit          3D

 19 17  0  0  0  0  0  0  0  0999 V2000
    0.0161   -1.6480   -1.8756 C   0  0  0  0  0  0  0  0  0  0  0  0
    0.0161   -1.6480   -0.4652 O   0  0  0  0  0  0  0  0  0  0  0  0
    0.9068   -1.1626   -2.2903 H   0  0  0  0  0  0  0  0  0  0  0  0
    0.0161   -2.6894   -2.1947 H   0  0  0  0  0  0  0  0  0  0  0  0
   -0.8748   -1.1626   -2.2903 H   0  0  0  0  0  0  0  0  0  0  0  0
    0.0161   -0.5603   -0.0965 H   0  0  0  0  0  0  0  0  0  0  0  0
   -1.4356    1.1294    0.4763 C   0  0  0  0  0  0  0  0  0  0  0  0
    0.0161    0.6846    0.3255 C   0  0  0  0  0  3  0  0  0  0  0  0
    0.9384    1.8854    0.1378 C   0  0  0  0  0  0  0  0  0  0  0  0
    0.4550   -0.1599    1.5180 C   0  0  0  0  0  0  0  0  0  0  0  0
   -1.7648    1.7099   -0.3880 H   0  0  0  0  0  0  0  0  0  0  0  0
   -2.1044    0.2726    0.5818 H   0  0  0  0  0  0  0  0  0  0  0  0
   -1.5545    1.7568    1.3645 H   0  0  0  0  0  0  0  0  0  0  0  0
    0.9010    2.5388    1.0144 H   0  0  0  0  0  0  0  0  0  0  0  0
    0.6467    2.4779   -0.7319 H   0  0  0  0  0  0  0  0  0  0  0  0
    1.9753    1.5719    0.0000 H   0  0  0  0  0  0  0  0  0  0  0  0
   -0.1838   -1.0372    1.6399 H   0  0  0  0  0  0  0  0  0  0  0  0
    1.4844   -0.5056    1.4022 H   0  0  0  0  0  0  0  0  0  0  0  0
    0.4009    0.4232    2.4420 H   0  0  0  0  0  0  0  0  0  0  0  0
  1  2  1  0
  1  3  1  0
  1  4  1  0
  1  5  1  0
  2  6  1  0
  7  8  1  0
  7 11  1  0
  7 12  1  0
  7 13  1  0
  8  9  1  0
  8 10  1  0
  9 14  1  0
  9 15  1  0
  9 16  1  0
 10 17  1  0
 10 18  1  0
 10 19  1  0
M  RAD  1   8   2
M  END
>  <reaction>  (12) 
rxn_391

>  <mol_properties>  (12) 
{"0": {"label": "*4", "atom_type": "Cs"}, "1": {"label": "*3", "atom_type": "O2s"}, "5": {"label": "*2", "atom_type": "H0"}, "6": {"label": "*0", "atom_type": "Cs"}, "7": {"label": "*1", "atom_type": "Cs"}}

>  <type>  (12) 
unop_8

>  <geom_source>  (12) 
Heuristics

$$$$

     RDKit          3D

 19 17  0  0  0  0  0  0  0  0999 V2000
   -0.0664   -1.7210   -1.7792 C   0  0  0  0  0  0  0  0  0  0  0  0
   -0.0664   -1.7210   -0.3689 O   0  0  0  0  0  0  0  0  0  0  0  0
    0.8244   -1.2356   -2.1940 H   0  0  0  0  0  0  0  0  0  0  0  0
   -0.0664   -2.7624   -2.0984 H   0  0  0  0  0  0  0  0  0  0  0  0
   -0.9572   -1.2357   -2.1940 H   0  0  0  0  0  0  0  0  0  0  0  0
   -0.0664   -0.6334   -0.0002 H   0  0  0  0  0  0  0  0  0  0  0  0
    0.6594    1.4599   -0.6180 C   0  0  0  0  0  0  0  0  0  0  0  0
   -0.0664    0.6116    0.4219 C   0  0  0  0  0  3  0  0  0  0  0  0
    0.8521    0.2808    1.5944 C   0  0  0  0  0  0  0  0  0  0  0  0
   -1.3371    1.3059    0.9026 C   0  0  0  0  0  0  0  0  0  0  0  0
    1.5545    0.9552   -0.9875 H   0  0  0  0  0  0  0  0  0  0  0  0
    0.0161    1.6755   -1.4736 H   0  0  0  0  0  0  0  0  0  0  0  0
    0.9699    2.4153   -0.1849 H   0  0  0  0  0  0  0  0  0  0  0  0
    1.1692    1.1957    2.1034 H   0  0  0  0  0  0  0  0  0  0  0  0
    1.7502   -0.2425    1.2598 H   0  0  0  0  0  0  0  0  0  0  0  0
    0.3472   -0.3508    2.3283 H   0  0  0  0  0  0  0  0  0  0  0  0
   -2.0120    1.5189    0.0710 H   0  0  0  0  0  0  0  0  0  0  0  0
   -1.8765    0.6906    1.6258 H   0  0  0  0  0  0  0  0  0  0  0  0
   -1.0951    2.2561    1.3877 H   0  0  0  0  0  0  0  0  0  0  0  0
  1  2  1  0
  1  3  1  0
  1  4  1  0
  1  5  1  0
  2  6  1  0
  7  8  1  0
  7 11  1  0
  7 12  1  0
  7 13  1  0
  8  9  1  0
  8 10  1  0
  9 14  1  0
  9 15  1  0
  9 16  1  0
 10 17  1  0
 10 18  1  0
 10 19  1  0
M  RAD  1   8   2
M  END
>  <reaction>  (13) 
rxn_391

>  <mol_properties>  (13) 
{"0": {"label": "*4", "atom_type": "Cs"}, "1": {"label": "*3", "atom_type": "O2s"}, "5": {"label": "*2", "atom_type": "H0"}, "6": {"label": "*0", "atom_type": "Cs"}, "7": {"label": "*1", "atom_type": "Cs"}}

>  <type>  (13) 
unop_9

>  <geom_source>  (13) 
Heuristics

$$$$

     RDKit          3D

 19 17  0  0  0  0  0  0  0  0999 V2000
    0.0720   -1.6778   -1.8372 C   0  0  0  0  0  0  0  0  0  0  0  0
    0.0720   -1.6778   -0.4268 O   0  0  0  0  0  0  0  0  0  0  0  0
    0.9628   -1.1924   -2.2519 H   0  0  0  0  0  0  0  0  0  0  0  0
    0.0720   -2.7192   -2.1563 H   0  0  0  0  0  0  0  0  0  0  0  0
   -0.8189   -1.1924   -2.2519 H   0  0  0  0  0  0  0  0  0  0  0  0
    0.0720   -0.5902   -0.0581 H   0  0  0  0  0  0  0  0  0  0  0  0
   -1.1852    1.3326   -0.1727 C   0  0  0  0  0  0  0  0  0  0  0  0
    0.0720    0.6548    0.3640 C   0  0  0  0  0  3  0  0  0  0  0  0
    1.2090    1.6597    0.5220 C   0  0  0  0  0  0  0  0  0  0  0  0
   -0.2129   -0.0592    1.6819 C   0  0  0  0  0  0  0  0  0  0  0  0
   -0.9949    1.8209   -1.1307 H   0  0  0  0  0  0  0  0  0  0  0  0
   -1.9940    0.6129   -0.3156 H   0  0  0  0  0  0  0  0  0  0  0  0
   -1.5378    2.0962    0.5268 H   0  0  0  0  0  0  0  0  0  0  0  0
    0.9386    2.4346    1.2453 H   0  0  0  0  0  0  0  0  0  0  0  0
    1.4373    2.1532   -0.4251 H   0  0  0  0  0  0  0  0  0  0  0  0
    2.1205    1.1752    0.8781 H   0  0  0  0  0  0  0  0  0  0  0  0
   -1.0062   -0.8010    1.5682 H   0  0  0  0  0  0  0  0  0  0  0  0
    0.6762   -0.5708    2.0565 H   0  0  0  0  0  0  0  0  0  0  0  0
   -0.5323    0.6567    2.4449 H   0  0  0  0  0  0  0  0  0  0  0  0
  1  2  1  0
  1  3  1  0
  1  4  1  0
  1  5  1  0
  2  6  1  0
  7  8  1  0
  7 11  1  0
  7 12  1  0
  7 13  1  0
  8  9  1  0
  8 10  1  0
  9 14  1  0
  9 15  1  0
  9 16  1  0
 10 17  1  0
 10 18  1  0
 10 19  1  0
M  RAD  1   8   2
M  END
>  <reaction>  (14) 
rxn_391

>  <mol_properties>  (14) 
{"0": {"label": "*4", "atom_type": "Cs"}, "1": {"label": "*3", "atom_type": "O2s"}, "5": {"label": "*2", "atom_type": "H0"}, "6": {"label": "*0", "atom_type": "Cs"}, "7": {"label": "*1", "atom_type": "Cs"}}

>  <type>  (14) 
unop_10

>  <geom_source>  (14) 
Heuristics

$$$$

     RDKit          3D

 19 17  0  0  0  0  0  0  0  0999 V2000
    0.0895   -1.6999   -1.8003 C   0  0  0  0  0  0  0  0  0  0  0  0
    0.0895   -1.6999   -0.3900 O   0  0  0  0  0  0  0  0  0  0  0  0
    0.9803   -1.2146   -2.2151 H   0  0  0  0  0  0  0  0  0  0  0  0
    0.0895   -2.7413   -2.1195 H   0  0  0  0  0  0  0  0  0  0  0  0
   -0.8013   -1.2146   -2.2151 H   0  0  0  0  0  0  0  0  0  0  0  0
    0.0895   -0.6123   -0.0213 H   0  0  0  0  0  0  0  0  0  0  0  0
    0.8153    0.6738    1.7422 C   0  0  0  0  0  0  0  0  0  0  0  0
    0.0895    0.6327    0.4008 C   0  0  0  0  0  3  0  0  0  0  0  0
   -1.4082    0.4170    0.5967 C   0  0  0  0  0  0  0  0  0  0  0  0
    0.3579    1.9005   -0.4044 C   0  0  0  0  0  0  0  0  0  0  0  0
    0.6507   -0.2437    2.3110 H   0  0  0  0  0  0  0  0  0  0  0  0
    1.8917    0.7987    1.6074 H   0  0  0  0  0  0  0  0  0  0  0  0
    0.4555    1.5108    2.3477 H   0  0  0  0  0  0  0  0  0  0  0  0
   -1.8443    1.2452    1.1629 H   0  0  0  0  0  0  0  0  0  0  0  0
   -1.6079   -0.5046    1.1473 H   0  0  0  0  0  0  0  0  0  0  0  0
   -1.9294    0.3574   -0.3611 H   0  0  0  0  0  0  0  0  0  0  0  0
    1.4271    2.0447   -0.5732 H   0  0  0  0  0  0  0  0  0  0  0  0
   -0.1355    1.8645   -1.3779 H   0  0  0  0  0  0  0  0  0  0  0  0
   -0.0175    2.7796    0.1275 H   0  0  0  0  0  0  0  0  0  0  0  0
  1  2  1  0
  1  3  1  0
  1  4  1  0
  1  5  1  0
  2  6  1  0
  7  8  1  0
  7 11  1  0
  7 12  1  0
  7 13  1  0
  8  9  1  0
  8 10  1  0
  9 14  1  0
  9 15  1  0
  9 16  1  0
 10 17  1  0
 10 18  1  0
 10 19  1  0
M  RAD  1   8   2
M  END
>  <reaction>  (15) 
rxn_391

>  <mol_properties>  (15) 
{"0": {"label": "*4", "atom_type": "Cs"}, "1": {"label": "*3", "atom_type": "O2s"}, "5": {"label": "*2", "atom_type": "H0"}, "6": {"label": "*0", "atom_type": "Cs"}, "7": {"label": "*1", "atom_type": "Cs"}}

>  <type>  (15) 
unop_11

>  <geom_source>  (15) 
Heuristics

$$$$

     RDKit          3D

 19 17  0  0  0  0  0  0  0  0999 V2000
    0.0000   -1.7427   -1.7506 C   0  0  0  0  0  0  0  0  0  0  0  0
    0.0000   -1.7427   -0.3403 O   0  0  0  0  0  0  0  0  0  0  0  0
    0.8908   -1.2574   -2.1654 H   0  0  0  0  0  0  0  0  0  0  0  0
    0.0000   -2.7842   -2.0698 H   0  0  0  0  0  0  0  0  0  0  0  0
   -0.8908   -1.2574   -2.1654 H   0  0  0  0  0  0  0  0  0  0  0  0
    0.0000   -0.6551    0.0285 H   0  0  0  0  0  0  0  0  0  0  0  0
    0.0000    1.5007   -0.7735 C   0  0  0  0  0  0  0  0  0  0  0  0
    0.0000    0.5899    0.4505 C   0  0  0  0  0  3  0  0  0  0  0  0
    1.2571    0.8016    1.2887 C   0  0  0  0  0  0  0  0  0  0  0  0
   -1.2572    0.8016    1.2886 C   0  0  0  0  0  0  0  0  0  0  0  0
    0.8835    1.3331   -1.3932 H   0  0  0  0  0  0  0  0  0  0  0  0
   -0.8834    1.3330   -1.3932 H   0  0  0  0  0  0  0  0  0  0  0  0
   -0.0000    2.5516   -0.4699 H   0  0  0  0  0  0  0  0  0  0  0  0
    1.3003    1.8285    1.6632 H   0  0  0  0  0  0  0  0  0  0  0  0
    2.1605    0.6229    0.7017 H   0  0  0  0  0  0  0  0  0  0  0  0
    1.2770    0.1316    2.1508 H   0  0  0  0  0  0  0  0  0  0  0  0
   -2.1605    0.6227    0.7017 H   0  0  0  0  0  0  0  0  0  0  0  0
   -1.2770    0.1317    2.1509 H   0  0  0  0  0  0  0  0  0  0  0  0
   -1.3004    1.8286    1.6629 H   0  0  0  0  0  0  0  0  0  0  0  0
  1  2  1  0
  1  3  1  0
  1  4  1  0
  1  5  1  0
  2  6  1  0
  7  8  1  0
  7 11  1  0
  7 12  1  0
  7 13  1  0
  8  9  1  0
  8 10  1  0
  9 14  1  0
  9 15  1  0
  9 16  1  0
 10 17  1  0
 10 18  1  0
 10 19  1  0
M  RAD  1   8   2
M  END
>  <reaction>  (16) 
rxn_391

>  <mol_properties>  (16) 
{"0": {"label": "*4", "atom_type": "Cs"}, "1": {"label": "*3", "atom_type": "O2s"}, "5": {"label": "*2", "atom_type": "H0"}, "6": {"label": "*0", "atom_type": "Cs"}, "7": {"label": "*1", "atom_type": "Cs"}}

>  <type>  (16) 
unop_12

>  <geom_source>  (16) 
Heuristics

$$$$

     RDKit          3D

 19 17  0  0  0  0  0  0  0  0999 V2000
    1.6751    0.1200   -0.1154 O   0  0  0  0  0  0  0  0  0  0  0  0
   -0.6699   -0.2289   -0.0014 C   0  0  0  0  0  3  0  0  0  0  0  0
   -1.2488   -1.2669    0.9646 C   0  0  0  0  0  0  0  0  0  0  0  0
   -1.2505   -0.4145   -1.4065 C   0  0  0  0  0  0  0  0  0  0  0  0
   -0.9325    1.1910    0.5092 C   0  0  0  0  0  0  0  0  0  0  0  0
    3.0123    0.5074   -0.0477 C   0  0  0  0  0  0  0  0  0  0  0  0
    0.6243   -0.4075   -0.0666 H   0  0  0  0  0  0  0  0  0  0  0  0
   -1.0203   -2.2920    0.6034 H   0  0  0  0  0  0  0  0  0  0  0  0
   -0.7934   -1.1464    1.9704 H   0  0  0  0  0  0  0  0  0  0  0  0
   -2.3508   -1.1522    1.0514 H   0  0  0  0  0  0  0  0  0  0  0  0
   -1.0220   -1.4349   -1.7810 H   0  0  0  0  0  0  0  0  0  0  0  0
   -2.3526   -0.2713   -1.3990 H   0  0  0  0  0  0  0  0  0  0  0  0
   -0.7963    0.3190   -2.1060 H   0  0  0  0  0  0  0  0  0  0  0  0
   -2.0239    1.3879    0.5808 H   0  0  0  0  0  0  0  0  0  0  0  0
   -0.4765    1.9335   -0.1795 H   0  0  0  0  0  0  0  0  0  0  0  0
   -0.4753    1.3253    1.5124 H   0  0  0  0  0  0  0  0  0  0  0  0
    3.5844   -0.2396    0.5401 H   0  0  0  0  0  0  0  0  0  0  0  0
    3.4312    0.5708   -1.0730 H   0  0  0  0  0  0  0  0  0  0  0  0
    3.0855    1.4994    0.4437 H   0  0  0  0  0  0  0  0  0  0  0  0
  1  6  1  0
  1  7  1  0
  2  3  1  0
  2  4  1  0
  2  5  1  0
  3  8  1  0
  3  9  1  0
  3 10  1  0
  4 11  1  0
  4 12  1  0
  4 13  1  0
  5 14  1  0
  5 15  1  0
  5 16  1  0
  6 17  1  0
  6 18  1  0
  6 19  1  0
M  RAD  1   2   2
M  END
>  <reaction>  (17) 
rxn_391

>  <mol_properties>  (17) 
{"0": {"label": "*4", "atom_type": "Cs"}, "1": {"label": "*3", "atom_type": "O2s"}, "5": {"label": "*2", "atom_type": "H0"}, "6": {"label": "*0", "atom_type": "Cs"}, "7": {"label": "*1", "atom_type": "Cs"}}

>  <type>  (17) 
unop_13

>  <geom_source>  (17) 
AutoTST

$$$$

     RDKit          3D

 19 17  0  0  0  0  0  0  0  0999 V2000
    0.0664   -1.7210   -1.7792 C   0  0  0  0  0  0  0  0  0  0  0  0
    0.0664   -1.7210   -0.3689 O   0  0  0  0  0  0  0  0  0  0  0  0
    0.9572   -1.2356   -2.1940 H   0  0  0  0  0  0  0  0  0  0  0  0
    0.0664   -2.7624   -2.0984 H   0  0  0  0  0  0  0  0  0  0  0  0
   -0.8244   -1.2356   -2.1940 H   0  0  0  0  0  0  0  0  0  0  0  0
    0.0664   -0.6334   -0.0002 H   0  0  0  0  0  0  0  0  0  0  0  0
   -0.6594    1.4599   -0.6180 C   0  0  0  0  0  0  0  0  0  0  0  0
    0.0664    0.6116    0.4219 C   0  0  0  0  0  3  0  0  0  0  0  0
    1.3371    1.3059    0.9026 C   0  0  0  0  0  0  0  0  0  0  0  0
   -0.8521    0.2808    1.5943 C   0  0  0  0  0  0  0  0  0  0  0  0
   -0.0161    1.6756   -1.4736 H   0  0  0  0  0  0  0  0  0  0  0  0
   -1.5545    0.9552   -0.9876 H   0  0  0  0  0  0  0  0  0  0  0  0
   -0.9699    2.4153   -0.1849 H   0  0  0  0  0  0  0  0  0  0  0  0
    1.0951    2.2560    1.3880 H   0  0  0  0  0  0  0  0  0  0  0  0
    2.0120    1.5191    0.0710 H   0  0  0  0  0  0  0  0  0  0  0  0
    1.8765    0.6905    1.6257 H   0  0  0  0  0  0  0  0  0  0  0  0
   -1.7502   -0.2427    1.2598 H   0  0  0  0  0  0  0  0  0  0  0  0
   -0.3473   -0.3506    2.3284 H   0  0  0  0  0  0  0  0  0  0  0  0
   -1.1694    1.1957    2.1033 H   0  0  0  0  0  0  0  0  0  0  0  0
  1  2  1  0
  1  3  1  0
  1  4  1  0
  1  5  1  0
  2  6  1  0
  7  8  1  0
  7 11  1  0
  7 12  1  0
  7 13  1  0
  8  9  1  0
  8 10  1  0
  9 14  1  0
  9 15  1  0
  9 16  1  0
 10 17  1  0
 10 18  1  0
 10 19  1  0
M  RAD  1   8   2
M  END
>  <reaction>  (18) 
rxn_391

>  <mol_properties>  (18) 
{"0": {"label": "*4", "atom_type": "Cs"}, "1": {"label": "*3", "atom_type": "O2s"}, "5": {"label": "*2", "atom_type": "H0"}, "6": {"label": "*0", "atom_type": "Cs"}, "7": {"label": "*1", "atom_type": "Cs"}}

>  <type>  (18) 
unop_14

>  <geom_source>  (18) 
gaussian_log

$$$$
