
     RDKit          3D

  7  6  0  0  0  0  0  0  0  0999 V2000
    1.6964   -0.0938    0.0583 C   0  0  0  0  0  0  0  0  0  0  0  0
    0.5019   -0.0278    0.0173 C   0  0  0  0  0  0  0  0  0  0  0  0
   -0.9505    0.0525   -0.0327 C   0  0  0  0  0  0  0  0  0  0  0  0
    2.7574   -0.1524    0.0947 H   0  0  0  0  0  0  0  0  0  0  0  0
   -1.2692    0.9972   -0.4754 H   0  0  0  0  0  0  0  0  0  0  0  0
   -1.3749   -0.0147    0.9700 H   0  0  0  0  0  0  0  0  0  0  0  0
   -1.3610   -0.7611   -0.6323 H   0  0  0  0  0  0  0  0  0  0  0  0
  1  2  3  0
  1  4  1  0
  2  3  1  0
  3  5  1  0
  3  6  1  0
  3  7  1  0
M  END
>  <reaction>  (1) 
rxn_1240

>  <mol_properties>  (1) 
{"2": {"label": "donator", "atom_type": "Cs"}, "4": {"label": "d_hydrogen", "atom_type": "H0"}}

>  <type>  (1) 
r1h

$$$$

     RDKit          3D

 12 11  0  0  0  0  0  0  0  0999 V2000
    2.7049    0.9350   -0.4404 S   0  0  0  0  0  1  0  0  0  0  0  0
    1.0313    1.0813   -0.4080 C   0  0  0  0  0  0  0  0  0  0  0  0
    0.1364    0.1019   -0.0473 C   0  0  0  0  0  0  0  0  0  0  0  0
    0.5360   -1.2679    0.3784 C   0  0  0  0  0  0  0  0  0  0  0  0
   -1.3304    0.3842   -0.0689 C   0  0  0  0  0  0  0  0  0  0  0  0
    0.6069    2.0398   -0.6990 H   0  0  0  0  0  0  0  0  0  0  0  0
    0.1578   -1.4699    1.3849 H   0  0  0  0  0  0  0  0  0  0  0  0
    0.0783   -2.0109   -0.2814 H   0  0  0  0  0  0  0  0  0  0  0  0
    1.6154   -1.3973    0.3689 H   0  0  0  0  0  0  0  0  0  0  0  0
   -1.8406   -0.3126   -0.7406 H   0  0  0  0  0  0  0  0  0  0  0  0
   -1.5514    1.4016   -0.3887 H   0  0  0  0  0  0  0  0  0  0  0  0
   -1.7610    0.2281    0.9247 H   0  0  0  0  0  0  0  0  0  0  0  0
  1  2  1  0
  2  3  2  3
  2  6  1  0
  3  4  1  0
  3  5  1  0
  4  7  1  0
  4  8  1  0
  4  9  1  0
  5 10  1  0
  5 11  1  0
  5 12  1  0
M  RAD  1   1   2
M  END
>  <reaction>  (2) 
rxn_1240

>  <mol_properties>  (2) 
{"2": {"label": "acceptor", "atom_type": "Cs"}}

>  <type>  (2) 
r2

$$$$

     RDKit          3D

 13 12  0  0  0  0  0  0  0  0999 V2000
    2.7452   -1.1134   -0.3601 S   0  0  0  0  0  0  0  0  0  0  0  0
    1.4120   -0.4899    0.2856 C   0  0  0  0  0  0  0  0  0  0  0  0
    0.1714   -0.0257   -0.4180 C   0  0  0  0  0  0  0  0  0  0  0  0
   -0.0717    1.4493   -0.0658 C   0  0  0  0  0  0  0  0  0  0  0  0
    0.1609   -0.2576   -1.9191 C   0  0  0  0  0  0  0  0  0  0  0  0
    1.3665   -0.3550    1.3690 H   0  0  0  0  0  0  0  0  0  0  0  0
   -0.6453   -0.6023    0.0382 H   0  0  0  0  0  0  0  0  0  0  0  0
    0.7161    2.0755   -0.4895 H   0  0  0  0  0  0  0  0  0  0  0  0
   -0.0915    1.6095    1.0136 H   0  0  0  0  0  0  0  0  0  0  0  0
   -1.0268    1.7797   -0.4755 H   0  0  0  0  0  0  0  0  0  0  0  0
    0.3131   -1.3093   -2.1616 H   0  0  0  0  0  0  0  0  0  0  0  0
    0.9567    0.3095   -2.4051 H   0  0  0  0  0  0  0  0  0  0  0  0
   -0.7945    0.0619   -2.3384 H   0  0  0  0  0  0  0  0  0  0  0  0
  1  2  2  0
  2  3  1  0
  2  6  1  0
  3  4  1  0
  3  5  1  0
  3  7  1  0
  4  8  1  0
  4  9  1  0
  4 10  1  0
  5 11  1  0
  5 12  1  0
  5 13  1  0
M  END
>  <reaction>  (3) 
rxn_1240

>  <mol_properties>  (3) 
{"0": {"label": "a_hydrogen", "atom_type": "H0"}, "3": {"label": "acceptor", "atom_type": "Cs"}}

>  <type>  (3) 
r2h

$$$$

     RDKit          3D

 19 17  0  0  0  0  0  0  0  0999 V2000
    1.2009   -1.5370   -3.1758 C   0  0  0  0  0  0  0  0  0  0  0  0
    0.4121   -1.5730   -2.2641 C   0  0  0  0  0  0  0  0  0  0  0  0
   -0.4755   -1.5550   -1.1755 C   0  0  0  0  0  3  0  0  0  0  0  0
    1.8861   -1.5287   -3.9892 H   0  0  0  0  0  0  0  0  0  0  0  0
   -0.1243   -0.3830   -0.3716 H   0  0  0  0  0  0  0  0  0  0  0  0
   -0.3311   -2.3091   -0.4080 H   0  0  0  0  0  0  0  0  0  0  0  0
   -1.5115   -1.3124   -1.3900 H   0  0  0  0  0  0  0  0  0  0  0  0
   -0.5261    0.1358    2.8155 S   0  0  0  0  0  0  0  0  0  0  0  0
   -0.5828    0.7669    1.3208 C   0  0  0  0  0  0  0  0  0  0  0  0
    0.3857    0.5921    0.2444 C   0  0  0  0  0  0  0  0  0  0  0  0
    0.3819    1.6819   -0.8101 C   0  0  0  0  0  0  0  0  0  0  0  0
    1.7594    0.0757    0.6006 C   0  0  0  0  0  0  0  0  0  0  0  0
   -1.4592    1.3537    1.0378 H   0  0  0  0  0  0  0  0  0  0  0  0
    0.9329    2.5574   -0.4565 H   0  0  0  0  0  0  0  0  0  0  0  0
    0.8655    1.3283   -1.7224 H   0  0  0  0  0  0  0  0  0  0  0  0
   -0.6325    1.9973   -1.0600 H   0  0  0  0  0  0  0  0  0  0  0  0
    2.2881   -0.2338   -0.3025 H   0  0  0  0  0  0  0  0  0  0  0  0
    1.7012   -0.7668    1.2881 H   0  0  0  0  0  0  0  0  0  0  0  0
    2.3430    0.8613    1.0875 H   0  0  0  0  0  0  0  0  0  0  0  0
  1  2  3  0
  1  4  1  0
  2  3  1  0
  3  6  1  0
  3  7  1  0
  5 10  1  0
  8  9  2  0
  9 10  1  0
  9 13  1  0
 10 11  1  0
 10 12  1  0
 11 14  1  0
 11 15  1  0
 11 16  1  0
 12 17  1  0
 12 18  1  0
 12 19  1  0
M  RAD  1   3   2
M  END
>  <reaction>  (4) 
rxn_1240

>  <mol_properties>  (4) 
{"1": {"label": "*4", "atom_type": "Ct"}, "2": {"label": "*3", "atom_type": "Cs"}, "4": {"label": "*2", "atom_type": "H0"}, "8": {"label": "*0", "atom_type": "CS"}, "9": {"label": "*1", "atom_type": "Cs"}}

>  <type>  (4) 
ts

$$$$

     RDKit          3D

 19 17  0  0  0  0  0  0  0  0999 V2000
    0.1577   -1.7440   -3.5736 C   0  0  0  0  0  0  0  0  0  0  0  0
    0.1577   -1.7440   -2.3766 C   0  0  0  0  0  0  0  0  0  0  0  0
    0.1577   -1.7440   -0.9212 C   0  0  0  0  0  0  0  0  0  0  0  0
    0.1577   -1.7440   -4.6369 H   0  0  0  0  0  0  0  0  0  0  0  0
    0.2692   -0.5244   -0.4588 H   0  0  0  0  0  0  0  0  0  0  0  0
    0.9914   -2.3326   -0.5358 H   0  0  0  0  0  0  0  0  0  0  0  0
   -0.7689   -2.1717   -0.5358 H   0  0  0  0  0  0  0  0  0  0  0  0
   -1.1103    0.5558    2.3657 S   0  0  0  0  0  1  0  0  0  0  0  0
   -0.8587    0.9235    0.8215 C   0  0  0  0  0  0  0  0  0  0  0  0
    0.3815    0.7041    0.0071 C   0  0  0  0  0  0  0  0  0  0  0  0
    0.8525    2.0570   -0.5468 C   0  0  0  0  0  0  0  0  0  0  0  0
    1.4987   -0.0322    0.7261 C   0  0  0  0  0  0  0  0  0  0  0  0
   -1.6600    1.4098    0.2599 H   0  0  0  0  0  0  0  0  0  0  0  0
    1.1876    2.7041    0.2663 H   0  0  0  0  0  0  0  0  0  0  0  0
    1.6881    1.9107   -1.2321 H   0  0  0  0  0  0  0  0  0  0  0  0
    0.0564    2.5723   -1.0870 H   0  0  0  0  0  0  0  0  0  0  0  0
    2.3372   -0.1916    0.0462 H   0  0  0  0  0  0  0  0  0  0  0  0
    1.1637   -1.0003    1.0984 H   0  0  0  0  0  0  0  0  0  0  0  0
    1.8547    0.5432    1.5823 H   0  0  0  0  0  0  0  0  0  0  0  0
  1  2  3  0
  1  4  1  0
  2  3  1  0
  3  5  1  0
  3  6  1  0
  3  7  1  0
  8  9  1  0
  9 10  2  3
  9 13  1  0
 10 11  1  0
 10 12  1  0
 11 14  1  0
 11 15  1  0
 11 16  1  0
 12 17  1  0
 12 18  1  0
 12 19  1  0
M  RAD  1   8   2
M  END
>  <reaction>  (5) 
rxn_1240

>  <mol_properties>  (5) 
{"1": {"label": "*4", "atom_type": "Ct"}, "2": {"label": "*3", "atom_type": "Cs"}, "4": {"label": "*2", "atom_type": "H0"}, "8": {"label": "*0", "atom_type": "CS"}, "9": {"label": "*1", "atom_type": "Cs"}}

>  <type>  (5) 
unop_1

>  <geom_source>  (5) 
Heuristics

$$$$

     RDKit          3D

 19 17  0  0  0  0  0  0  0  0999 V2000
    0.3700   -2.2098   -2.7222 C   0  0  0  0  0  0  0  0  0  0  0  0
    0.3700   -2.2098   -1.5252 C   0  0  0  0  0  0  0  0  0  0  0  0
    0.3700   -2.2098   -0.0698 C   0  0  0  0  0  0  0  0  0  0  0  0
    0.3700   -2.2098   -3.7855 H   0  0  0  0  0  0  0  0  0  0  0  0
    0.4815   -0.9902    0.3927 H   0  0  0  0  0  0  0  0  0  0  0  0
    1.2037   -2.7984    0.3156 H   0  0  0  0  0  0  0  0  0  0  0  0
   -0.5566   -2.6375    0.3156 H   0  0  0  0  0  0  0  0  0  0  0  0
   -1.4884    1.8290   -0.1135 S   0  0  0  0  0  1  0  0  0  0  0  0
   -0.0546    1.1059   -0.1791 C   0  0  0  0  0  0  0  0  0  0  0  0
    0.5937    0.2383    0.8585 C   0  0  0  0  0  0  0  0  0  0  0  0
    1.9481    0.8546    1.2392 C   0  0  0  0  0  0  0  0  0  0  0  0
   -0.2613   -0.0467    2.0812 C   0  0  0  0  0  0  0  0  0  0  0  0
    0.5663    1.2496   -1.0667 H   0  0  0  0  0  0  0  0  0  0  0  0
    1.8008    1.8067    1.7529 H   0  0  0  0  0  0  0  0  0  0  0  0
    2.4886    0.1858    1.9099 H   0  0  0  0  0  0  0  0  0  0  0  0
    2.5723    1.0330    0.3619 H   0  0  0  0  0  0  0  0  0  0  0  0
    0.2671   -0.7225    2.7556 H   0  0  0  0  0  0  0  0  0  0  0  0
   -1.2120   -0.5030    1.8058 H   0  0  0  0  0  0  0  0  0  0  0  0
   -0.4841    0.8744    2.6224 H   0  0  0  0  0  0  0  0  0  0  0  0
  1  2  3  0
  1  4  1  0
  2  3  1  0
  3  5  1  0
  3  6  1  0
  3  7  1  0
  8  9  1  0
  9 10  2  3
  9 13  1  0
 10 11  1  0
 10 12  1  0
 11 14  1  0
 11 15  1  0
 11 16  1  0
 12 17  1  0
 12 18  1  0
 12 19  1  0
M  RAD  1   8   2
M  END
>  <reaction>  (6) 
rxn_1240

>  <mol_properties>  (6) 
{"1": {"label": "*4", "atom_type": "Ct"}, "2": {"label": "*3", "atom_type": "Cs"}, "4": {"label": "*2", "atom_type": "H0"}, "8": {"label": "*0", "atom_type": "CS"}, "9": {"label": "*1", "atom_type": "Cs"}}

>  <type>  (6) 
unop_2

>  <geom_source>  (6) 
Heuristics

$$$$

     RDKit          3D

 19 17  0  0  0  0  0  0  0  0999 V2000
   -0.1882   -1.7680   -3.6370 C   0  0  0  0  0  0  0  0  0  0  0  0
   -0.1882   -1.7680   -2.4400 C   0  0  0  0  0  0  0  0  0  0  0  0
   -0.1882   -1.7680   -0.9846 C   0  0  0  0  0  0  0  0  0  0  0  0
   -0.1882   -1.7680   -4.7003 H   0  0  0  0  0  0  0  0  0  0  0  0
   -0.0767   -0.5485   -0.5221 H   0  0  0  0  0  0  0  0  0  0  0  0
    0.6455   -2.3566   -0.5992 H   0  0  0  0  0  0  0  0  0  0  0  0
   -1.1148   -2.1957   -0.5992 H   0  0  0  0  0  0  0  0  0  0  0  0
   -0.0780    0.5093    2.7309 S   0  0  0  0  0  1  0  0  0  0  0  0
   -0.6934    0.6646    1.2543 C   0  0  0  0  0  0  0  0  0  0  0  0
    0.0356    0.6801   -0.0563 C   0  0  0  0  0  0  0  0  0  0  0  0
   -0.2831    1.9960   -0.7814 C   0  0  0  0  0  0  0  0  0  0  0  0
    1.5317    0.4353    0.0393 C   0  0  0  0  0  0  0  0  0  0  0  0
   -1.7731    0.7930    1.1460 H   0  0  0  0  0  0  0  0  0  0  0  0
    0.1431    2.8417   -0.2379 H   0  0  0  0  0  0  0  0  0  0  0  0
    0.1458    1.9845   -1.7841 H   0  0  0  0  0  0  0  0  0  0  0  0
   -1.3586    2.1568   -0.8739 H   0  0  0  0  0  0  0  0  0  0  0  0
    1.9698    0.4133   -0.9598 H   0  0  0  0  0  0  0  0  0  0  0  0
    1.7505   -0.5097    0.5362 H   0  0  0  0  0  0  0  0  0  0  0  0
    2.0188    1.2271    0.6111 H   0  0  0  0  0  0  0  0  0  0  0  0
  1  2  3  0
  1  4  1  0
  2  3  1  0
  3  5  1  0
  3  6  1  0
  3  7  1  0
  8  9  1  0
  9 10  2  3
  9 13  1  0
 10 11  1  0
 10 12  1  0
 11 14  1  0
 11 15  1  0
 11 16  1  0
 12 17  1  0
 12 18  1  0
 12 19  1  0
M  RAD  1   8   2
M  END
>  <reaction>  (7) 
rxn_1240

>  <mol_properties>  (7) 
{"1": {"label": "*4", "atom_type": "Ct"}, "2": {"label": "*3", "atom_type": "Cs"}, "4": {"label": "*2", "atom_type": "H0"}, "8": {"label": "*0", "atom_type": "CS"}, "9": {"label": "*1", "atom_type": "Cs"}}

>  <type>  (7) 
unop_3

>  <geom_source>  (7) 
Heuristics

$$$$

     RDKit          3D

 19 17  0  0  0  0  0  0  0  0999 V2000
   -0.6394   -2.2618   -2.8108 C   0  0  0  0  0  0  0  0  0  0  0  0
   -0.6394   -2.2618   -1.6138 C   0  0  0  0  0  0  0  0  0  0  0  0
   -0.6394   -2.2618   -0.1584 C   0  0  0  0  0  0  0  0  0  0  0  0
   -0.6394   -2.2618   -3.8741 H   0  0  0  0  0  0  0  0  0  0  0  0
   -0.5280   -1.0422    0.3040 H   0  0  0  0  0  0  0  0  0  0  0  0
    0.1943   -2.8504    0.2270 H   0  0  0  0  0  0  0  0  0  0  0  0
   -1.5660   -2.6895    0.2270 H   0  0  0  0  0  0  0  0  0  0  0  0
    1.3410    2.2085   -0.0275 S   0  0  0  0  0  1  0  0  0  0  0  0
    0.8903    0.6871    0.2286 C   0  0  0  0  0  0  0  0  0  0  0  0
   -0.4157    0.1864    0.7699 C   0  0  0  0  0  0  0  0  0  0  0  0
   -0.1388   -0.6511    2.0272 C   0  0  0  0  0  0  0  0  0  0  0  0
   -1.4584    1.2612    1.0249 C   0  0  0  0  0  0  0  0  0  0  0  0
    1.5992   -0.1149    0.0088 H   0  0  0  0  0  0  0  0  0  0  0  0
    0.2475   -0.0173    2.8279 H   0  0  0  0  0  0  0  0  0  0  0  0
   -1.0604   -1.1177    2.3768 H   0  0  0  0  0  0  0  0  0  0  0  0
    0.5899   -1.4405    1.8351 H   0  0  0  0  0  0  0  0  0  0  0  0
   -2.3882    0.8040    1.3672 H   0  0  0  0  0  0  0  0  0  0  0  0
   -1.6655    1.8381    0.1236 H   0  0  0  0  0  0  0  0  0  0  0  0
   -1.1165    1.9599    1.7903 H   0  0  0  0  0  0  0  0  0  0  0  0
  1  2  3  0
  1  4  1  0
  2  3  1  0
  3  5  1  0
  3  6  1  0
  3  7  1  0
  8  9  1  0
  9 10  2  3
  9 13  1  0
 10 11  1  0
 10 12  1  0
 11 14  1  0
 11 15  1  0
 11 16  1  0
 12 17  1  0
 12 18  1  0
 12 19  1  0
M  RAD  1   8   2
M  END
>  <reaction>  (8) 
rxn_1240

>  <mol_properties>  (8) 
{"1": {"label": "*4", "atom_type": "Ct"}, "2": {"label": "*3", "atom_type": "Cs"}, "4": {"label": "*2", "atom_type": "H0"}, "8": {"label": "*0", "atom_type": "CS"}, "9": {"label": "*1", "atom_type": "Cs"}}

>  <type>  (8) 
unop_4

>  <geom_source>  (8) 
Heuristics

$$$$

     RDKit          3D

 19 17  0  0  0  0  0  0  0  0999 V2000
   -0.4184   -1.9196   -3.5537 C   0  0  0  0  0  0  0  0  0  0  0  0
   -0.4184   -1.9196   -2.3566 C   0  0  0  0  0  0  0  0  0  0  0  0
   -0.4184   -1.9196   -0.9012 C   0  0  0  0  0  0  0  0  0  0  0  0
   -0.4184   -1.9196   -4.6169 H   0  0  0  0  0  0  0  0  0  0  0  0
   -0.3069   -0.7001   -0.4388 H   0  0  0  0  0  0  0  0  0  0  0  0
    0.4153   -2.5082   -0.5158 H   0  0  0  0  0  0  0  0  0  0  0  0
   -1.3450   -2.3473   -0.5158 H   0  0  0  0  0  0  0  0  0  0  0  0
    0.8943    0.8770    2.5772 S   0  0  0  0  0  1  0  0  0  0  0  0
   -0.2083    0.3788    1.5193 C   0  0  0  0  0  0  0  0  0  0  0  0
   -0.1946    0.5285    0.0271 C   0  0  0  0  0  0  0  0  0  0  0  0
   -1.4589    1.2871   -0.4033 C   0  0  0  0  0  0  0  0  0  0  0  0
    1.0644    1.1593   -0.5425 C   0  0  0  0  0  0  0  0  0  0  0  0
   -1.1044   -0.1236    1.8917 H   0  0  0  0  0  0  0  0  0  0  0  0
   -1.4264    2.3160   -0.0394 H   0  0  0  0  0  0  0  0  0  0  0  0
   -1.5282    1.3126   -1.4913 H   0  0  0  0  0  0  0  0  0  0  0  0
   -2.3644    0.8166   -0.0162 H   0  0  0  0  0  0  0  0  0  0  0  0
    1.0092    1.1820   -1.6320 H   0  0  0  0  0  0  0  0  0  0  0  0
    1.9559    0.6043   -0.2507 H   0  0  0  0  0  0  0  0  0  0  0  0
    1.1828    2.1828   -0.1827 H   0  0  0  0  0  0  0  0  0  0  0  0
  1  2  3  0
  1  4  1  0
  2  3  1  0
  3  5  1  0
  3  6  1  0
  3  7  1  0
  8  9  1  0
  9 10  2  3
  9 13  1  0
 10 11  1  0
 10 12  1  0
 11 14  1  0
 11 15  1  0
 11 16  1  0
 12 17  1  0
 12 18  1  0
 12 19  1  0
M  RAD  1   8   2
M  END
>  <reaction>  (9) 
rxn_1240

>  <mol_properties>  (9) 
{"1": {"label": "*4", "atom_type": "Ct"}, "2": {"label": "*3", "atom_type": "Cs"}, "4": {"label": "*2", "atom_type": "H0"}, "8": {"label": "*0", "atom_type": "CS"}, "9": {"label": "*1", "atom_type": "Cs"}}

>  <type>  (9) 
unop_5

>  <geom_source>  (9) 
Heuristics

$$$$

     RDKit          3D

 19 17  0  0  0  0  0  0  0  0999 V2000
   -0.7146   -2.1495   -3.0917 C   0  0  0  0  0  0  0  0  0  0  0  0
   -0.7146   -2.1495   -1.8946 C   0  0  0  0  0  0  0  0  0  0  0  0
   -0.7146   -2.1495   -0.4392 C   0  0  0  0  0  0  0  0  0  0  0  0
   -0.7146   -2.1495   -4.1549 H   0  0  0  0  0  0  0  0  0  0  0  0
   -0.6031   -0.9300    0.0232 H   0  0  0  0  0  0  0  0  0  0  0  0
    0.1191   -2.7381   -0.0538 H   0  0  0  0  0  0  0  0  0  0  0  0
   -1.6412   -2.5772   -0.0538 H   0  0  0  0  0  0  0  0  0  0  0  0
    1.7657    1.9258    0.7550 S   0  0  0  0  0  1  0  0  0  0  0  0
    0.9852    0.5268    0.6256 C   0  0  0  0  0  0  0  0  0  0  0  0
   -0.4908    0.2986    0.4891 C   0  0  0  0  0  0  0  0  0  0  0  0
   -0.9593   -0.5985    1.6443 C   0  0  0  0  0  0  0  0  0  0  0  0
   -1.3274    1.5618    0.3792 C   0  0  0  0  0  0  0  0  0  0  0  0
    1.5620   -0.4009    0.6511 H   0  0  0  0  0  0  0  0  0  0  0  0
   -0.8655   -0.0716    2.5960 H   0  0  0  0  0  0  0  0  0  0  0  0
   -2.0066   -0.8698    1.5069 H   0  0  0  0  0  0  0  0  0  0  0  0
   -0.3752   -1.5185    1.7045 H   0  0  0  0  0  0  0  0  0  0  0  0
   -2.3769    1.3015    0.2328 H   0  0  0  0  0  0  0  0  0  0  0  0
   -1.0034    2.1837   -0.4550 H   0  0  0  0  0  0  0  0  0  0  0  0
   -1.2453    2.1619    1.2871 H   0  0  0  0  0  0  0  0  0  0  0  0
  1  2  3  0
  1  4  1  0
  2  3  1  0
  3  5  1  0
  3  6  1  0
  3  7  1  0
  8  9  1  0
  9 10  2  3
  9 13  1  0
 10 11  1  0
 10 12  1  0
 11 14  1  0
 11 15  1  0
 11 16  1  0
 12 17  1  0
 12 18  1  0
 12 19  1  0
M  RAD  1   8   2
M  END
>  <reaction>  (10) 
rxn_1240

>  <mol_properties>  (10) 
{"1": {"label": "*4", "atom_type": "Ct"}, "2": {"label": "*3", "atom_type": "Cs"}, "4": {"label": "*2", "atom_type": "H0"}, "8": {"label": "*0", "atom_type": "CS"}, "9": {"label": "*1", "atom_type": "Cs"}}

>  <type>  (10) 
unop_6

>  <geom_source>  (10) 
Heuristics

$$$$

     RDKit          3D

 19 17  0  0  0  0  0  0  0  0999 V2000
   -0.6345   -2.0684   -3.3254 C   0  0  0  0  0  0  0  0  0  0  0  0
   -0.6345   -2.0684   -2.1283 C   0  0  0  0  0  0  0  0  0  0  0  0
   -0.6345   -2.0684   -0.6729 C   0  0  0  0  0  0  0  0  0  0  0  0
   -0.6345   -2.0684   -4.3886 H   0  0  0  0  0  0  0  0  0  0  0  0
   -0.5231   -0.8488   -0.2105 H   0  0  0  0  0  0  0  0  0  0  0  0
    0.1992   -2.6570   -0.2875 H   0  0  0  0  0  0  0  0  0  0  0  0
   -1.5611   -2.4961   -0.2875 H   0  0  0  0  0  0  0  0  0  0  0  0
    1.7399    1.6251    1.5337 S   0  0  0  0  0  1  0  0  0  0  0  0
    0.8486    0.3707    1.0698 C   0  0  0  0  0  0  0  0  0  0  0  0
   -0.4108    0.3797    0.2554 C   0  0  0  0  0  0  0  0  0  0  0  0
   -1.5251   -0.3007    1.0642 C   0  0  0  0  0  0  0  0  0  0  0  0
   -0.8355    1.7466   -0.2534 C   0  0  0  0  0  0  0  0  0  0  0  0
    1.1534   -0.6326    1.3770 H   0  0  0  0  0  0  0  0  0  0  0  0
   -1.7788    0.2996    1.9403 H   0  0  0  0  0  0  0  0  0  0  0  0
   -2.4215   -0.4057    0.4521 H   0  0  0  0  0  0  0  0  0  0  0  0
   -1.2285   -1.2940    1.4055 H   0  0  0  0  0  0  0  0  0  0  0  0
   -1.7276    1.6518   -0.8746 H   0  0  0  0  0  0  0  0  0  0  0  0
   -0.0483    2.2149   -0.8439 H   0  0  0  0  0  0  0  0  0  0  0  0
   -1.0647    2.4160    0.5775 H   0  0  0  0  0  0  0  0  0  0  0  0
  1  2  3  0
  1  4  1  0
  2  3  1  0
  3  5  1  0
  3  6  1  0
  3  7  1  0
  8  9  1  0
  9 10  2  3
  9 13  1  0
 10 11  1  0
 10 12  1  0
 11 14  1  0
 11 15  1  0
 11 16  1  0
 12 17  1  0
 12 18  1  0
 12 19  1  0
M  RAD  1   8   2
M  END
>  <reaction>  (11) 
rxn_1240

>  <mol_properties>  (11) 
{"1": {"label": "*4", "atom_type": "Ct"}, "2": {"label": "*3", "atom_type": "Cs"}, "4": {"label": "*2", "atom_type": "H0"}, "8": {"label": "*0", "atom_type": "CS"}, "9": {"label": "*1", "atom_type": "Cs"}}

>  <type>  (11) 
unop_7

>  <geom_source>  (11) 
Heuristics

$$$$

     RDKit          3D

 19 17  0  0  0  0  0  0  0  0999 V2000
    0.4266   -1.8476   -3.3458 C   0  0  0  0  0  0  0  0  0  0  0  0
    0.4266   -1.8476   -2.1488 C   0  0  0  0  0  0  0  0  0  0  0  0
    0.4266   -1.8476   -0.6933 C   0  0  0  0  0  0  0  0  0  0  0  0
    0.4266   -1.8476   -4.4091 H   0  0  0  0  0  0  0  0  0  0  0  0
    0.5380   -0.6281   -0.2309 H   0  0  0  0  0  0  0  0  0  0  0  0
    1.2603   -2.4362   -0.3080 H   0  0  0  0  0  0  0  0  0  0  0  0
   -0.5000   -2.2753   -0.3080 H   0  0  0  0  0  0  0  0  0  0  0  0
   -1.7677    0.8875    1.6066 S   0  0  0  0  0  1  0  0  0  0  0  0
   -0.7599    1.0925    0.3715 C   0  0  0  0  0  0  0  0  0  0  0  0
    0.6503    0.6005    0.2349 C   0  0  0  0  0  0  0  0  0  0  0  0
    1.5713    1.8060   -0.0049 C   0  0  0  0  0  0  0  0  0  0  0  0
    1.1408   -0.2663    1.3819 C   0  0  0  0  0  0  0  0  0  0  0  0
   -1.0982    1.6698   -0.4924 H   0  0  0  0  0  0  0  0  0  0  0  0
    1.6033    2.4415    0.8825 H   0  0  0  0  0  0  0  0  0  0  0  0
    2.5855    1.4661   -0.2172 H   0  0  0  0  0  0  0  0  0  0  0  0
    1.2330    2.4124   -0.8469 H   0  0  0  0  0  0  0  0  0  0  0  0
    2.1526   -0.6191    1.1755 H   0  0  0  0  0  0  0  0  0  0  0  0
    0.4948   -1.1310    1.5332 H   0  0  0  0  0  0  0  0  0  0  0  0
    1.1573    0.2983    2.3157 H   0  0  0  0  0  0  0  0  0  0  0  0
  1  2  3  0
  1  4  1  0
  2  3  1  0
  3  5  1  0
  3  6  1  0
  3  7  1  0
  8  9  1  0
  9 10  2  3
  9 13  1  0
 10 11  1  0
 10 12  1  0
 11 14  1  0
 11 15  1  0
 11 16  1  0
 12 17  1  0
 12 18  1  0
 12 19  1  0
M  RAD  1   8   2
M  END
>  <reaction>  (12) 
rxn_1240

>  <mol_properties>  (12) 
{"1": {"label": "*4", "atom_type": "Ct"}, "2": {"label": "*3", "atom_type": "Cs"}, "4": {"label": "*2", "atom_type": "H0"}, "8": {"label": "*0", "atom_type": "CS"}, "9": {"label": "*1", "atom_type": "Cs"}}

>  <type>  (12) 
unop_8

>  <geom_source>  (12) 
Heuristics

$$$$

     RDKit          3D

 19 17  0  0  0  0  0  0  0  0999 V2000
   -0.3678   -2.3508   -2.5918 C   0  0  0  0  0  0  0  0  0  0  0  0
   -0.3678   -2.3508   -1.3948 C   0  0  0  0  0  0  0  0  0  0  0  0
   -0.3678   -2.3508    0.0606 C   0  0  0  0  0  0  0  0  0  0  0  0
   -0.3678   -2.3508   -3.6551 H   0  0  0  0  0  0  0  0  0  0  0  0
   -0.2564   -1.1312    0.5230 H   0  0  0  0  0  0  0  0  0  0  0  0
    0.4659   -2.9393    0.4460 H   0  0  0  0  0  0  0  0  0  0  0  0
   -1.2944   -2.7785    0.4460 H   0  0  0  0  0  0  0  0  0  0  0  0
    0.4662    2.3487   -0.5505 S   0  0  0  0  0  1  0  0  0  0  0  0
    0.6507    0.8330   -0.0487 C   0  0  0  0  0  0  0  0  0  0  0  0
   -0.1441    0.0974    0.9889 C   0  0  0  0  0  0  0  0  0  0  0  0
    0.8127   -0.3939    2.0852 C   0  0  0  0  0  0  0  0  0  0  0  0
   -1.3161    0.8718    1.5669 C   0  0  0  0  0  0  0  0  0  0  0  0
    1.4541    0.2309   -0.4800 H   0  0  0  0  0  0  0  0  0  0  0  0
    1.2307    0.4538    2.6320 H   0  0  0  0  0  0  0  0  0  0  0  0
    0.2769   -1.0258    2.7944 H   0  0  0  0  0  0  0  0  0  0  0  0
    1.6393   -0.9737    1.6708 H   0  0  0  0  0  0  0  0  0  0  0  0
   -1.8648    0.2453    2.2720 H   0  0  0  0  0  0  0  0  0  0  0  0
   -2.0020    1.1995    0.7858 H   0  0  0  0  0  0  0  0  0  0  0  0
   -0.9706    1.7623    2.0947 H   0  0  0  0  0  0  0  0  0  0  0  0
  1  2  3  0
  1  4  1  0
  2  3  1  0
  3  5  1  0
  3  6  1  0
  3  7  1  0
  8  9  1  0
  9 10  2  3
  9 13  1  0
 10 11  1  0
 10 12  1  0
 11 14  1  0
 11 15  1  0
 11 16  1  0
 12 17  1  0
 12 18  1  0
 12 19  1  0
M  RAD  1   8   2
M  END
>  <reaction>  (13) 
rxn_1240

>  <mol_properties>  (13) 
{"1": {"label": "*4", "atom_type": "Ct"}, "2": {"label": "*3", "atom_type": "Cs"}, "4": {"label": "*2", "atom_type": "H0"}, "8": {"label": "*0", "atom_type": "CS"}, "9": {"label": "*1", "atom_type": "Cs"}}

>  <type>  (13) 
unop_9

>  <geom_source>  (13) 
Heuristics

$$$$

     RDKit          3D

 19 17  0  0  0  0  0  0  0  0999 V2000
    0.5117   -2.0214   -3.0271 C   0  0  0  0  0  0  0  0  0  0  0  0
    0.5117   -2.0214   -1.8300 C   0  0  0  0  0  0  0  0  0  0  0  0
    0.5117   -2.0214   -0.3746 C   0  0  0  0  0  0  0  0  0  0  0  0
    0.5117   -2.0214   -4.0903 H   0  0  0  0  0  0  0  0  0  0  0  0
    0.6231   -0.8018    0.0878 H   0  0  0  0  0  0  0  0  0  0  0  0
    1.3454   -2.6100    0.0108 H   0  0  0  0  0  0  0  0  0  0  0  0
   -0.4149   -2.4491    0.0108 H   0  0  0  0  0  0  0  0  0  0  0  0
   -1.8997    1.3466    0.6970 S   0  0  0  0  0  1  0  0  0  0  0  0
   -0.4582    1.1559    0.0123 C   0  0  0  0  0  0  0  0  0  0  0  0
    0.7354    0.4267    0.5537 C   0  0  0  0  0  0  0  0  0  0  0  0
    1.9187    1.4033    0.6242 C   0  0  0  0  0  0  0  0  0  0  0  0
    0.5076   -0.2819    1.8779 C   0  0  0  0  0  0  0  0  0  0  0  0
   -0.2760    1.6113   -0.9641 H   0  0  0  0  0  0  0  0  0  0  0  0
    1.7279    2.1775    1.3701 H   0  0  0  0  0  0  0  0  0  0  0  0
    2.8268    0.8714    0.9100 H   0  0  0  0  0  0  0  0  0  0  0  0
    2.0986    1.8909   -0.3355 H   0  0  0  0  0  0  0  0  0  0  0  0
    1.4082   -0.8248    2.1692 H   0  0  0  0  0  0  0  0  0  0  0  0
   -0.3198   -0.9885    1.8152 H   0  0  0  0  0  0  0  0  0  0  0  0
    0.2681    0.4347    2.6654 H   0  0  0  0  0  0  0  0  0  0  0  0
  1  2  3  0
  1  4  1  0
  2  3  1  0
  3  5  1  0
  3  6  1  0
  3  7  1  0
  8  9  1  0
  9 10  2  3
  9 13  1  0
 10 11  1  0
 10 12  1  0
 11 14  1  0
 11 15  1  0
 11 16  1  0
 12 17  1  0
 12 18  1  0
 12 19  1  0
M  RAD  1   8   2
M  END
>  <reaction>  (14) 
rxn_1240

>  <mol_properties>  (14) 
{"1": {"label": "*4", "atom_type": "Ct"}, "2": {"label": "*3", "atom_type": "Cs"}, "4": {"label": "*2", "atom_type": "H0"}, "8": {"label": "*0", "atom_type": "CS"}, "9": {"label": "*1", "atom_type": "Cs"}}

>  <type>  (14) 
unop_10

>  <geom_source>  (14) 
Heuristics

$$$$

     RDKit          3D

 19 17  0  0  0  0  0  0  0  0999 V2000
   -0.5112   -2.0211   -3.4602 C   0  0  0  0  0  0  0  0  0  0  0  0
   -0.5112   -2.0211   -2.2631 C   0  0  0  0  0  0  0  0  0  0  0  0
   -0.5112   -2.0211   -0.8077 C   0  0  0  0  0  0  0  0  0  0  0  0
   -0.5112   -2.0211   -4.5235 H   0  0  0  0  0  0  0  0  0  0  0  0
   -0.3998   -0.8016   -0.3453 H   0  0  0  0  0  0  0  0  0  0  0  0
    0.3225   -2.6097   -0.4223 H   0  0  0  0  0  0  0  0  0  0  0  0
   -1.4378   -2.4488   -0.4223 H   0  0  0  0  0  0  0  0  0  0  0  0
    1.4283    1.3188    2.1383 S   0  0  0  0  0  1  0  0  0  0  0  0
    0.4266    0.2796    1.4312 C   0  0  0  0  0  0  0  0  0  0  0  0
   -0.2875    0.4270    0.1206 C   0  0  0  0  0  0  0  0  0  0  0  0
   -1.7983    0.3004    0.3661 C   0  0  0  0  0  0  0  0  0  0  0  0
    0.0551    1.6853   -0.6583 C   0  0  0  0  0  0  0  0  0  0  0  0
    0.1967   -0.6587    1.9417 H   0  0  0  0  0  0  0  0  0  0  0  0
   -2.1594    1.1464    0.9544 H   0  0  0  0  0  0  0  0  0  0  0  0
   -2.3330    0.2936   -0.5844 H   0  0  0  0  0  0  0  0  0  0  0  0
   -2.0456   -0.6180    0.9015 H   0  0  0  0  0  0  0  0  0  0  0  0
   -0.4684    1.6846   -1.6157 H   0  0  0  0  0  0  0  0  0  0  0  0
    1.1260    1.7585   -0.8473 H   0  0  0  0  0  0  0  0  0  0  0  0
   -0.2420    2.5776   -0.1046 H   0  0  0  0  0  0  0  0  0  0  0  0
  1  2  3  0
  1  4  1  0
  2  3  1  0
  3  5  1  0
  3  6  1  0
  3  7  1  0
  8  9  1  0
  9 10  2  3
  9 13  1  0
 10 11  1  0
 10 12  1  0
 11 14  1  0
 11 15  1  0
 11 16  1  0
 12 17  1  0
 12 18  1  0
 12 19  1  0
M  RAD  1   8   2
M  END
>  <reaction>  (15) 
rxn_1240

>  <mol_properties>  (15) 
{"1": {"label": "*4", "atom_type": "Ct"}, "2": {"label": "*3", "atom_type": "Cs"}, "4": {"label": "*2", "atom_type": "H0"}, "8": {"label": "*0", "atom_type": "CS"}, "9": {"label": "*1", "atom_type": "Cs"}}

>  <type>  (15) 
unop_11

>  <geom_source>  (15) 
Heuristics

$$$$

     RDKit          3D

 19 17  0  0  0  0  0  0  0  0999 V2000
    0.0290   -2.3410   -2.5502 C   0  0  0  0  0  0  0  0  0  0  0  0
    0.0290   -2.3410   -1.3532 C   0  0  0  0  0  0  0  0  0  0  0  0
    0.0290   -2.3410    0.1022 C   0  0  0  0  0  0  0  0  0  0  0  0
    0.0290   -2.3410   -3.6135 H   0  0  0  0  0  0  0  0  0  0  0  0
    0.1405   -1.1214    0.5647 H   0  0  0  0  0  0  0  0  0  0  0  0
    0.8627   -2.9296    0.4876 H   0  0  0  0  0  0  0  0  0  0  0  0
   -0.8976   -2.7687    0.4876 H   0  0  0  0  0  0  0  0  0  0  0  0
   -0.6117    2.2149   -0.5883 S   0  0  0  0  0  1  0  0  0  0  0  0
    0.3322    0.9770   -0.1887 C   0  0  0  0  0  0  0  0  0  0  0  0
    0.2527    0.1072    1.0305 C   0  0  0  0  0  0  0  0  0  0  0  0
    1.5931    0.1816    1.7767 C   0  0  0  0  0  0  0  0  0  0  0  0
   -0.9223    0.3962    1.9488 C   0  0  0  0  0  0  0  0  0  0  0  0
    1.1580    0.7103   -0.8527 H   0  0  0  0  0  0  0  0  0  0  0  0
    1.7463    1.1835    2.1828 H   0  0  0  0  0  0  0  0  0  0  0  0
    1.6000   -0.5268    2.6058 H   0  0  0  0  0  0  0  0  0  0  0  0
    2.4342   -0.0536    1.1221 H   0  0  0  0  0  0  0  0  0  0  0  0
   -0.9298   -0.3130    2.7781 H   0  0  0  0  0  0  0  0  0  0  0  0
   -1.8713    0.3212    1.4182 H   0  0  0  0  0  0  0  0  0  0  0  0
   -0.8549    1.4050    2.3596 H   0  0  0  0  0  0  0  0  0  0  0  0
  1  2  3  0
  1  4  1  0
  2  3  1  0
  3  5  1  0
  3  6  1  0
  3  7  1  0
  8  9  1  0
  9 10  2  3
  9 13  1  0
 10 11  1  0
 10 12  1  0
 11 14  1  0
 11 15  1  0
 11 16  1  0
 12 17  1  0
 12 18  1  0
 12 19  1  0
M  RAD  1   8   2
M  END
>  <reaction>  (16) 
rxn_1240

>  <mol_properties>  (16) 
{"1": {"label": "*4", "atom_type": "Ct"}, "2": {"label": "*3", "atom_type": "Cs"}, "4": {"label": "*2", "atom_type": "H0"}, "8": {"label": "*0", "atom_type": "CS"}, "9": {"label": "*1", "atom_type": "Cs"}}

>  <type>  (16) 
unop_12

>  <geom_source>  (16) 
Heuristics

$$$$

     RDKit          3D

 19 17  0  0  0  0  0  0  0  0999 V2000
   -2.1241    1.0915   -2.1429 S   0  0  0  0  0  1  0  0  0  0  0  0
   -0.7753    0.1149   -0.1582 C   0  0  0  0  0  0  0  0  0  0  0  0
   -0.6602   -1.3213   -0.6827 C   0  0  0  0  0  0  0  0  0  0  0  0
   -1.8731    0.2318    0.9058 C   0  0  0  0  0  0  0  0  0  0  0  0
   -0.9702    1.1112   -1.2811 C   0  0  0  0  0  0  0  0  0  0  0  0
    1.4353    0.1486    1.2269 C   0  0  0  0  0  0  0  0  0  0  0  0
    2.5043    0.0712    0.2309 C   0  0  0  0  0  0  0  0  0  0  0  0
    3.3848    0.0074   -0.5898 C   0  0  0  0  0  0  0  0  0  0  0  0
    0.4013    0.4161    0.4458 H   0  0  0  0  0  0  0  0  0  0  0  0
    0.1484   -1.3840   -1.4416 H   0  0  0  0  0  0  0  0  0  0  0  0
   -0.4067   -2.0087    0.1519 H   0  0  0  0  0  0  0  0  0  0  0  0
   -1.6153   -1.6548   -1.1422 H   0  0  0  0  0  0  0  0  0  0  0  0
   -2.8621   -0.0584    0.4906 H   0  0  0  0  0  0  0  0  0  0  0  0
   -1.6383   -0.4317    1.7648 H   0  0  0  0  0  0  0  0  0  0  0  0
   -1.9293    1.2763    1.2794 H   0  0  0  0  0  0  0  0  0  0  0  0
   -0.2108    1.8689   -1.4421 H   0  0  0  0  0  0  0  0  0  0  0  0
    1.4128    1.1665    1.6676 H   0  0  0  0  0  0  0  0  0  0  0  0
    1.6205   -0.5969    2.0274 H   0  0  0  0  0  0  0  0  0  0  0  0
    4.1580   -0.0486   -1.3104 H   0  0  0  0  0  0  0  0  0  0  0  0
  1  5  1  0
  2  3  1  0
  2  4  1  0
  2  5  2  3
  3 10  1  0
  3 11  1  0
  3 12  1  0
  4 13  1  0
  4 14  1  0
  4 15  1  0
  5 16  1  0
  6  7  1  0
  6  9  1  0
  6 17  1  0
  6 18  1  0
  7  8  3  0
  8 19  1  0
M  RAD  1   1   2
M  END
>  <reaction>  (17) 
rxn_1240

>  <mol_properties>  (17) 
{"1": {"label": "*4", "atom_type": "Ct"}, "2": {"label": "*3", "atom_type": "Cs"}, "4": {"label": "*2", "atom_type": "H0"}, "8": {"label": "*0", "atom_type": "CS"}, "9": {"label": "*1", "atom_type": "Cs"}}

>  <type>  (17) 
unop_13

>  <geom_source>  (17) 
AutoTST

$$$$
