
     RDKit          3D

  9  8  0  0  0  0  0  0  0  0999 V2000
    1.1303   -0.2933   -0.7510 C   0  0  0  0  0  0  0  0  0  0  0  0
    0.2866    0.4560   -0.0588 C   0  0  0  0  0  0  0  0  0  0  0  0
   -0.9719   -0.0331    0.5823 C   0  0  0  0  0  0  0  0  0  0  0  0
    2.0274    0.1230   -1.1916 H   0  0  0  0  0  0  0  0  0  0  0  0
    0.9532   -1.3530   -0.9023 H   0  0  0  0  0  0  0  0  0  0  0  0
    0.5065    1.5132    0.0659 H   0  0  0  0  0  0  0  0  0  0  0  0
   -0.9526    0.1426    1.6610 H   0  0  0  0  0  0  0  0  0  0  0  0
   -1.1182   -1.1002    0.4106 H   0  0  0  0  0  0  0  0  0  0  0  0
   -1.8412    0.5010    0.1901 H   0  0  0  0  0  0  0  0  0  0  0  0
  1  2  2  3
  1  4  1  0
  1  5  1  0
  2  3  1  0
  2  6  1  0
  3  7  1  0
  3  8  1  0
  3  9  1  0
M  END
>  <reaction>  (1) 
rxn_1641

>  <mol_properties>  (1) 
{"1": {"label": "donator", "atom_type": "Cd"}, "5": {"label": "d_hydrogen", "atom_type": "H0"}}

>  <type>  (1) 
r1h

$$$$

     RDKit          3D

  6  5  0  0  0  0  0  0  0  0999 V2000
   -0.5028    0.1222    0.0383 C   0  0  0  0  0  0  0  0  0  0  0  0
    0.9563    0.1199    0.2015 C   0  0  0  0  0  3  0  0  0  0  0  0
    2.2007   -0.6837   -0.2834 S   0  0  0  0  0  0  0  0  0  0  0  0
   -0.8647   -0.6725   -0.6213 H   0  0  0  0  0  0  0  0  0  0  0  0
   -0.8170    1.0923   -0.3550 H   0  0  0  0  0  0  0  0  0  0  0  0
   -0.9725    0.0219    1.0200 H   0  0  0  0  0  0  0  0  0  0  0  0
  1  2  1  0
  1  4  1  0
  1  5  1  0
  1  6  1  0
  2  3  2  0
M  RAD  1   2   2
M  END
>  <reaction>  (2) 
rxn_1641

>  <mol_properties>  (2) 
{"1": {"label": "acceptor", "atom_type": "CS"}}

>  <type>  (2) 
r2

$$$$

     RDKit          3D

  7  6  0  0  0  0  0  0  0  0999 V2000
   -0.6782    0.0507    0.0301 C   0  0  0  0  0  0  0  0  0  0  0  0
    0.8092    0.0996    0.0213 C   0  0  0  0  0  0  0  0  0  0  0  0
    1.7473    0.7521    1.1507 S   0  0  0  0  0  0  0  0  0  0  0  0
   -1.0667    0.5456   -0.8653 H   0  0  0  0  0  0  0  0  0  0  0  0
   -1.0112   -0.9904   -0.0239 H   0  0  0  0  0  0  0  0  0  0  0  0
   -1.0920    0.5225    0.9188 H   0  0  0  0  0  0  0  0  0  0  0  0
    1.2740   -0.3620   -0.8520 H   0  0  0  0  0  0  0  0  0  0  0  0
  1  2  1  0
  1  4  1  0
  1  5  1  0
  1  6  1  0
  2  3  2  0
  2  7  1  0
M  END
>  <reaction>  (3) 
rxn_1641

>  <mol_properties>  (3) 
{"0": {"label": "a_hydrogen", "atom_type": "H0"}, "2": {"label": "acceptor", "atom_type": "CS"}}

>  <type>  (3) 
r2h

$$$$

     RDKit          3D

 15 13  0  0  0  0  0  0  0  0999 V2000
   -0.0386    1.4118   -2.0047 C   0  0  0  0  0  0  0  0  0  0  0  0
    0.2901    1.5589   -0.7430 C   0  0  0  0  0  3  0  0  0  0  0  0
    0.6200    2.7476    0.0755 C   0  0  0  0  0  0  0  0  0  0  0  0
   -0.2467    0.4311   -2.4216 H   0  0  0  0  0  0  0  0  0  0  0  0
   -0.1153    2.2637   -2.6798 H   0  0  0  0  0  0  0  0  0  0  0  0
    0.3217    0.2883   -0.0700 H   0  0  0  0  0  0  0  0  0  0  0  0
   -0.0725    2.8511    0.9143 H   0  0  0  0  0  0  0  0  0  0  0  0
    0.5691    3.6631   -0.5230 H   0  0  0  0  0  0  0  0  0  0  0  0
    1.6268    2.6699    0.4926 H   0  0  0  0  0  0  0  0  0  0  0  0
    0.6957   -0.7881    1.9000 C   0  0  0  0  0  0  0  0  0  0  0  0
    0.3314   -0.8630    0.4640 C   0  0  0  0  0  0  0  0  0  0  0  0
   -0.0263   -2.1250   -0.4353 S   0  0  0  0  0  0  0  0  0  0  0  0
    0.7103   -1.7666    2.3793 H   0  0  0  0  0  0  0  0  0  0  0  0
   -0.0136   -0.1346    2.4165 H   0  0  0  0  0  0  0  0  0  0  0  0
    1.6774   -0.3149    1.9969 H   0  0  0  0  0  0  0  0  0  0  0  0
  1  2  2  3
  1  4  1  0
  1  5  1  0
  2  3  1  0
  3  7  1  0
  3  8  1  0
  3  9  1  0
  6 11  1  0
 10 11  1  0
 10 13  1  0
 10 14  1  0
 10 15  1  0
 11 12  2  0
M  RAD  1   2   2
M  END
>  <reaction>  (4) 
rxn_1641

>  <mol_properties>  (4) 
{"0": {"label": "*4", "atom_type": "Cd"}, "1": {"label": "*3", "atom_type": "Cd"}, "5": {"label": "*2", "atom_type": "H0"}, "10": {"label": "*1", "atom_type": "CS"}, "11": {"label": "*0", "atom_type": "S2d"}}

>  <type>  (4) 
ts

$$$$

     RDKit          3D

 15 13  0  0  0  0  0  0  0  0999 V2000
    0.2998    1.3104   -2.2474 C   0  0  0  0  0  0  0  0  0  0  0  0
    0.2998    1.3104   -0.9237 C   0  0  0  0  0  0  0  0  0  0  0  0
    0.2998    2.5325   -0.0631 C   0  0  0  0  0  0  0  0  0  0  0  0
    0.2998    0.3876   -2.8139 H   0  0  0  0  0  0  0  0  0  0  0  0
    0.2998    2.2360   -2.8134 H   0  0  0  0  0  0  0  0  0  0  0  0
    0.2998    0.1672   -0.2954 H   0  0  0  0  0  0  0  0  0  0  0  0
   -0.5779    2.5496    0.5881 H   0  0  0  0  0  0  0  0  0  0  0  0
    0.2998    3.4430   -0.6637 H   0  0  0  0  0  0  0  0  0  0  0  0
    1.1775    2.5497    0.5881 H   0  0  0  0  0  0  0  0  0  0  0  0
    1.4716   -1.1980    1.2268 C   0  0  0  0  0  0  0  0  0  0  0  0
    0.2998   -0.9809    0.3355 C   0  0  0  0  0  3  0  0  0  0  0  0
   -1.2279   -1.3560    0.6623 S   0  0  0  0  0  0  0  0  0  0  0  0
    1.1818   -1.6584    2.1690 H   0  0  0  0  0  0  0  0  0  0  0  0
    1.9672   -0.2417    1.4205 H   0  0  0  0  0  0  0  0  0  0  0  0
    2.2070   -1.8293    0.7185 H   0  0  0  0  0  0  0  0  0  0  0  0
  1  2  2  3
  1  4  1  0
  1  5  1  0
  2  3  1  0
  2  6  1  0
  3  7  1  0
  3  8  1  0
  3  9  1  0
 10 11  1  0
 10 13  1  0
 10 14  1  0
 10 15  1  0
 11 12  2  0
M  RAD  1  11   2
M  END
>  <reaction>  (5) 
rxn_1641

>  <mol_properties>  (5) 
{"0": {"label": "*4", "atom_type": "Cd"}, "1": {"label": "*3", "atom_type": "Cd"}, "5": {"label": "*2", "atom_type": "H0"}, "10": {"label": "*1", "atom_type": "CS"}, "11": {"label": "*0", "atom_type": "S2d"}}

>  <type>  (5) 
unop_1

>  <geom_source>  (5) 
Heuristics

$$$$

     RDKit          3D

 15 13  0  0  0  0  0  0  0  0999 V2000
    0.0037    1.3190   -2.3870 C   0  0  0  0  0  0  0  0  0  0  0  0
    0.0037    1.3190   -1.0633 C   0  0  0  0  0  0  0  0  0  0  0  0
    0.0037    2.5412   -0.2028 C   0  0  0  0  0  0  0  0  0  0  0  0
    0.0037    0.3963   -2.9535 H   0  0  0  0  0  0  0  0  0  0  0  0
    0.0037    2.2446   -2.9530 H   0  0  0  0  0  0  0  0  0  0  0  0
    0.0037    0.1759   -0.4351 H   0  0  0  0  0  0  0  0  0  0  0  0
   -0.8740    2.5583    0.4484 H   0  0  0  0  0  0  0  0  0  0  0  0
    0.0037    3.4517   -0.8034 H   0  0  0  0  0  0  0  0  0  0  0  0
    0.8814    2.5583    0.4484 H   0  0  0  0  0  0  0  0  0  0  0  0
    0.6802   -2.0795   -0.5327 C   0  0  0  0  0  0  0  0  0  0  0  0
    0.0037   -0.9722    0.1959 C   0  0  0  0  0  3  0  0  0  0  0  0
   -0.3420   -0.9354    1.7645 S   0  0  0  0  0  0  0  0  0  0  0  0
    0.9317   -2.9043    0.1307 H   0  0  0  0  0  0  0  0  0  0  0  0
    1.5884   -1.7018   -1.0125 H   0  0  0  0  0  0  0  0  0  0  0  0
    0.0321   -2.4384   -1.3382 H   0  0  0  0  0  0  0  0  0  0  0  0
  1  2  2  3
  1  4  1  0
  1  5  1  0
  2  3  1  0
  2  6  1  0
  3  7  1  0
  3  8  1  0
  3  9  1  0
 10 11  1  0
 10 13  1  0
 10 14  1  0
 10 15  1  0
 11 12  2  0
M  RAD  1  11   2
M  END
>  <reaction>  (6) 
rxn_1641

>  <mol_properties>  (6) 
{"0": {"label": "*4", "atom_type": "Cd"}, "1": {"label": "*3", "atom_type": "Cd"}, "5": {"label": "*2", "atom_type": "H0"}, "10": {"label": "*1", "atom_type": "CS"}, "11": {"label": "*0", "atom_type": "S2d"}}

>  <type>  (6) 
unop_2

>  <geom_source>  (6) 
Heuristics

$$$$

     RDKit          3D

 15 13  0  0  0  0  0  0  0  0999 V2000
    0.2867    1.4480   -2.0790 C   0  0  0  0  0  0  0  0  0  0  0  0
    0.2867    1.4480   -0.7553 C   0  0  0  0  0  0  0  0  0  0  0  0
    0.2867    2.6702    0.1052 C   0  0  0  0  0  0  0  0  0  0  0  0
    0.2867    0.5253   -2.6455 H   0  0  0  0  0  0  0  0  0  0  0  0
    0.2867    2.3736   -2.6450 H   0  0  0  0  0  0  0  0  0  0  0  0
    0.2867    0.3049   -0.1270 H   0  0  0  0  0  0  0  0  0  0  0  0
   -0.5910    2.6873    0.7565 H   0  0  0  0  0  0  0  0  0  0  0  0
    0.2867    3.5806   -0.4954 H   0  0  0  0  0  0  0  0  0  0  0  0
    1.1644    2.6873    0.7565 H   0  0  0  0  0  0  0  0  0  0  0  0
    0.9632   -0.8218    1.8292 C   0  0  0  0  0  0  0  0  0  0  0  0
    0.2867   -0.8432    0.5039 C   0  0  0  0  0  3  0  0  0  0  0  0
   -0.9550   -1.7720    0.0832 S   0  0  0  0  0  0  0  0  0  0  0  0
    0.5150   -1.5307    2.5223 H   0  0  0  0  0  0  0  0  0  0  0  0
    0.9137    0.1872    2.2500 H   0  0  0  0  0  0  0  0  0  0  0  0
    2.0257   -1.0514    1.7024 H   0  0  0  0  0  0  0  0  0  0  0  0
  1  2  2  3
  1  4  1  0
  1  5  1  0
  2  3  1  0
  2  6  1  0
  3  7  1  0
  3  8  1  0
  3  9  1  0
 10 11  1  0
 10 13  1  0
 10 14  1  0
 10 15  1  0
 11 12  2  0
M  RAD  1  11   2
M  END
>  <reaction>  (7) 
rxn_1641

>  <mol_properties>  (7) 
{"0": {"label": "*4", "atom_type": "Cd"}, "1": {"label": "*3", "atom_type": "Cd"}, "5": {"label": "*2", "atom_type": "H0"}, "10": {"label": "*1", "atom_type": "CS"}, "11": {"label": "*0", "atom_type": "S2d"}}

>  <type>  (7) 
unop_3

>  <geom_source>  (7) 
Heuristics

$$$$

     RDKit          3D

 15 13  0  0  0  0  0  0  0  0999 V2000
   -0.0719    1.2702   -2.3976 C   0  0  0  0  0  0  0  0  0  0  0  0
   -0.0719    1.2702   -1.0739 C   0  0  0  0  0  0  0  0  0  0  0  0
   -0.0719    2.4924   -0.2134 C   0  0  0  0  0  0  0  0  0  0  0  0
   -0.0719    0.3475   -2.9641 H   0  0  0  0  0  0  0  0  0  0  0  0
   -0.0719    2.1958   -2.9636 H   0  0  0  0  0  0  0  0  0  0  0  0
   -0.0719    0.1270   -0.4456 H   0  0  0  0  0  0  0  0  0  0  0  0
   -0.9496    2.5095    0.4379 H   0  0  0  0  0  0  0  0  0  0  0  0
   -0.0719    3.4028   -0.8139 H   0  0  0  0  0  0  0  0  0  0  0  0
    0.8058    2.5095    0.4379 H   0  0  0  0  0  0  0  0  0  0  0  0
   -1.2437   -1.8898   -0.1092 C   0  0  0  0  0  0  0  0  0  0  0  0
   -0.0719   -1.0210    0.1853 C   0  0  0  0  0  3  0  0  0  0  0  0
    0.7343   -0.9473    1.5731 S   0  0  0  0  0  0  0  0  0  0  0  0
   -1.5174   -2.5019    0.7475 H   0  0  0  0  0  0  0  0  0  0  0  0
   -1.0173   -2.5332   -0.9651 H   0  0  0  0  0  0  0  0  0  0  0  0
   -2.0948   -1.2694   -0.4063 H   0  0  0  0  0  0  0  0  0  0  0  0
  1  2  2  3
  1  4  1  0
  1  5  1  0
  2  3  1  0
  2  6  1  0
  3  7  1  0
  3  8  1  0
  3  9  1  0
 10 11  1  0
 10 13  1  0
 10 14  1  0
 10 15  1  0
 11 12  2  0
M  RAD  1  11   2
M  END
>  <reaction>  (8) 
rxn_1641

>  <mol_properties>  (8) 
{"0": {"label": "*4", "atom_type": "Cd"}, "1": {"label": "*3", "atom_type": "Cd"}, "5": {"label": "*2", "atom_type": "H0"}, "10": {"label": "*1", "atom_type": "CS"}, "11": {"label": "*0", "atom_type": "S2d"}}

>  <type>  (8) 
unop_4

>  <geom_source>  (8) 
Heuristics

$$$$

     RDKit          3D

 15 13  0  0  0  0  0  0  0  0999 V2000
   -0.0000    1.5706   -1.9665 C   0  0  0  0  0  0  0  0  0  0  0  0
   -0.0000    1.5706   -0.6427 C   0  0  0  0  0  0  0  0  0  0  0  0
   -0.0000    2.7928    0.2178 C   0  0  0  0  0  0  0  0  0  0  0  0
   -0.0000    0.6479   -2.5330 H   0  0  0  0  0  0  0  0  0  0  0  0
   -0.0000    2.4962   -2.5325 H   0  0  0  0  0  0  0  0  0  0  0  0
    0.0000    0.4274   -0.0145 H   0  0  0  0  0  0  0  0  0  0  0  0
   -0.8777    2.8099    0.8690 H   0  0  0  0  0  0  0  0  0  0  0  0
   -0.0000    3.7032   -0.3828 H   0  0  0  0  0  0  0  0  0  0  0  0
    0.8777    2.8099    0.8690 H   0  0  0  0  0  0  0  0  0  0  0  0
    0.0000   -0.6119    2.1006 C   0  0  0  0  0  0  0  0  0  0  0  0
    0.0000   -0.7206    0.6164 C   0  0  0  0  0  3  0  0  0  0  0  0
   -0.0000   -2.0807   -0.2390 S   0  0  0  0  0  0  0  0  0  0  0  0
    0.0000   -1.5902    2.5766 H   0  0  0  0  0  0  0  0  0  0  0  0
   -0.8762   -0.0430    2.4267 H   0  0  0  0  0  0  0  0  0  0  0  0
    0.8761   -0.0430    2.4267 H   0  0  0  0  0  0  0  0  0  0  0  0
  1  2  2  3
  1  4  1  0
  1  5  1  0
  2  3  1  0
  2  6  1  0
  3  7  1  0
  3  8  1  0
  3  9  1  0
 10 11  1  0
 10 13  1  0
 10 14  1  0
 10 15  1  0
 11 12  2  0
M  RAD  1  11   2
M  END
>  <reaction>  (9) 
rxn_1641

>  <mol_properties>  (9) 
{"0": {"label": "*4", "atom_type": "Cd"}, "1": {"label": "*3", "atom_type": "Cd"}, "5": {"label": "*2", "atom_type": "H0"}, "10": {"label": "*1", "atom_type": "CS"}, "11": {"label": "*0", "atom_type": "S2d"}}

>  <type>  (9) 
unop_5

>  <geom_source>  (9) 
Heuristics

$$$$

     RDKit          3D

 15 13  0  0  0  0  0  0  0  0999 V2000
   -0.1928    1.2558   -2.3588 C   0  0  0  0  0  0  0  0  0  0  0  0
   -0.1928    1.2558   -1.0350 C   0  0  0  0  0  0  0  0  0  0  0  0
   -0.1928    2.4779   -0.1745 C   0  0  0  0  0  0  0  0  0  0  0  0
   -0.1928    0.3330   -2.9253 H   0  0  0  0  0  0  0  0  0  0  0  0
   -0.1928    2.1813   -2.9248 H   0  0  0  0  0  0  0  0  0  0  0  0
   -0.1928    0.1126   -0.4068 H   0  0  0  0  0  0  0  0  0  0  0  0
   -1.0705    2.4950    0.4767 H   0  0  0  0  0  0  0  0  0  0  0  0
   -0.1928    3.3884   -0.7751 H   0  0  0  0  0  0  0  0  0  0  0  0
    0.6849    2.4950    0.4767 H   0  0  0  0  0  0  0  0  0  0  0  0
   -1.5459   -1.5784    0.5225 C   0  0  0  0  0  0  0  0  0  0  0  0
   -0.1928   -1.0355    0.2241 C   0  0  0  0  0  3  0  0  0  0  0  0
    1.0857   -1.0769    1.1962 S   0  0  0  0  0  0  0  0  0  0  0  0
   -1.5904   -2.0293    1.5117 H   0  0  0  0  0  0  0  0  0  0  0  0
   -1.8181   -2.3209   -0.2340 H   0  0  0  0  0  0  0  0  0  0  0  0
   -2.2872   -0.7768    0.4488 H   0  0  0  0  0  0  0  0  0  0  0  0
  1  2  2  3
  1  4  1  0
  1  5  1  0
  2  3  1  0
  2  6  1  0
  3  7  1  0
  3  8  1  0
  3  9  1  0
 10 11  1  0
 10 13  1  0
 10 14  1  0
 10 15  1  0
 11 12  2  0
M  RAD  1  11   2
M  END
>  <reaction>  (10) 
rxn_1641

>  <mol_properties>  (10) 
{"0": {"label": "*4", "atom_type": "Cd"}, "1": {"label": "*3", "atom_type": "Cd"}, "5": {"label": "*2", "atom_type": "H0"}, "10": {"label": "*1", "atom_type": "CS"}, "11": {"label": "*0", "atom_type": "S2d"}}

>  <type>  (10) 
unop_6

>  <geom_source>  (10) 
Heuristics

$$$$

     RDKit          3D

 15 13  0  0  0  0  0  0  0  0999 V2000
   -0.2998    1.3104   -2.2474 C   0  0  0  0  0  0  0  0  0  0  0  0
   -0.2998    1.3104   -0.9237 C   0  0  0  0  0  0  0  0  0  0  0  0
   -0.2998    2.5325   -0.0631 C   0  0  0  0  0  0  0  0  0  0  0  0
   -0.2998    0.3876   -2.8139 H   0  0  0  0  0  0  0  0  0  0  0  0
   -0.2998    2.2360   -2.8134 H   0  0  0  0  0  0  0  0  0  0  0  0
   -0.2998    0.1672   -0.2954 H   0  0  0  0  0  0  0  0  0  0  0  0
   -1.1775    2.5497    0.5881 H   0  0  0  0  0  0  0  0  0  0  0  0
   -0.2998    3.4430   -0.6637 H   0  0  0  0  0  0  0  0  0  0  0  0
    0.5779    2.5497    0.5881 H   0  0  0  0  0  0  0  0  0  0  0  0
   -1.4716   -1.1980    1.2268 C   0  0  0  0  0  0  0  0  0  0  0  0
   -0.2998   -0.9809    0.3355 C   0  0  0  0  0  3  0  0  0  0  0  0
    1.2279   -1.3561    0.6623 S   0  0  0  0  0  0  0  0  0  0  0  0
   -1.1818   -1.6583    2.1690 H   0  0  0  0  0  0  0  0  0  0  0  0
   -2.2070   -1.8293    0.7185 H   0  0  0  0  0  0  0  0  0  0  0  0
   -1.9673   -0.2417    1.4204 H   0  0  0  0  0  0  0  0  0  0  0  0
  1  2  2  3
  1  4  1  0
  1  5  1  0
  2  3  1  0
  2  6  1  0
  3  7  1  0
  3  8  1  0
  3  9  1  0
 10 11  1  0
 10 13  1  0
 10 14  1  0
 10 15  1  0
 11 12  2  0
M  RAD  1  11   2
M  END
>  <reaction>  (11) 
rxn_1641

>  <mol_properties>  (11) 
{"0": {"label": "*4", "atom_type": "Cd"}, "1": {"label": "*3", "atom_type": "Cd"}, "5": {"label": "*2", "atom_type": "H0"}, "10": {"label": "*1", "atom_type": "CS"}, "11": {"label": "*0", "atom_type": "S2d"}}

>  <type>  (11) 
unop_7

>  <geom_source>  (11) 
Heuristics

$$$$

     RDKit          3D

 15 13  0  0  0  0  0  0  0  0999 V2000
    0.1928    1.2557   -2.3588 C   0  0  0  0  0  0  0  0  0  0  0  0
    0.1928    1.2557   -1.0350 C   0  0  0  0  0  0  0  0  0  0  0  0
    0.1928    2.4779   -0.1745 C   0  0  0  0  0  0  0  0  0  0  0  0
    0.1928    0.3330   -2.9253 H   0  0  0  0  0  0  0  0  0  0  0  0
    0.1928    2.1813   -2.9248 H   0  0  0  0  0  0  0  0  0  0  0  0
    0.1928    0.1126   -0.4068 H   0  0  0  0  0  0  0  0  0  0  0  0
   -0.6849    2.4950    0.4767 H   0  0  0  0  0  0  0  0  0  0  0  0
    0.1928    3.3884   -0.7751 H   0  0  0  0  0  0  0  0  0  0  0  0
    1.0705    2.4950    0.4767 H   0  0  0  0  0  0  0  0  0  0  0  0
    1.5459   -1.5784    0.5225 C   0  0  0  0  0  0  0  0  0  0  0  0
    0.1928   -1.0355    0.2241 C   0  0  0  0  0  3  0  0  0  0  0  0
   -1.0857   -1.0769    1.1962 S   0  0  0  0  0  0  0  0  0  0  0  0
    1.5904   -2.0293    1.5116 H   0  0  0  0  0  0  0  0  0  0  0  0
    2.2872   -0.7768    0.4488 H   0  0  0  0  0  0  0  0  0  0  0  0
    1.8182   -2.3209   -0.2340 H   0  0  0  0  0  0  0  0  0  0  0  0
  1  2  2  3
  1  4  1  0
  1  5  1  0
  2  3  1  0
  2  6  1  0
  3  7  1  0
  3  8  1  0
  3  9  1  0
 10 11  1  0
 10 13  1  0
 10 14  1  0
 10 15  1  0
 11 12  2  0
M  RAD  1  11   2
M  END
>  <reaction>  (12) 
rxn_1641

>  <mol_properties>  (12) 
{"0": {"label": "*4", "atom_type": "Cd"}, "1": {"label": "*3", "atom_type": "Cd"}, "5": {"label": "*2", "atom_type": "H0"}, "10": {"label": "*1", "atom_type": "CS"}, "11": {"label": "*0", "atom_type": "S2d"}}

>  <type>  (12) 
unop_8

>  <geom_source>  (12) 
Heuristics

$$$$

     RDKit          3D

 15 13  0  0  0  0  0  0  0  0999 V2000
   -0.0037    1.3190   -2.3870 C   0  0  0  0  0  0  0  0  0  0  0  0
   -0.0037    1.3190   -1.0633 C   0  0  0  0  0  0  0  0  0  0  0  0
   -0.0037    2.5412   -0.2028 C   0  0  0  0  0  0  0  0  0  0  0  0
   -0.0037    0.3963   -2.9535 H   0  0  0  0  0  0  0  0  0  0  0  0
   -0.0037    2.2446   -2.9530 H   0  0  0  0  0  0  0  0  0  0  0  0
   -0.0037    0.1759   -0.4351 H   0  0  0  0  0  0  0  0  0  0  0  0
   -0.8814    2.5583    0.4484 H   0  0  0  0  0  0  0  0  0  0  0  0
   -0.0037    3.4517   -0.8034 H   0  0  0  0  0  0  0  0  0  0  0  0
    0.8740    2.5583    0.4484 H   0  0  0  0  0  0  0  0  0  0  0  0
   -0.6802   -2.0795   -0.5327 C   0  0  0  0  0  0  0  0  0  0  0  0
   -0.0037   -0.9722    0.1959 C   0  0  0  0  0  3  0  0  0  0  0  0
    0.3420   -0.9354    1.7645 S   0  0  0  0  0  0  0  0  0  0  0  0
   -0.9318   -2.9043    0.1307 H   0  0  0  0  0  0  0  0  0  0  0  0
   -0.0321   -2.4384   -1.3382 H   0  0  0  0  0  0  0  0  0  0  0  0
   -1.5884   -1.7018   -1.0126 H   0  0  0  0  0  0  0  0  0  0  0  0
  1  2  2  3
  1  4  1  0
  1  5  1  0
  2  3  1  0
  2  6  1  0
  3  7  1  0
  3  8  1  0
  3  9  1  0
 10 11  1  0
 10 13  1  0
 10 14  1  0
 10 15  1  0
 11 12  2  0
M  RAD  1  11   2
M  END
>  <reaction>  (13) 
rxn_1641

>  <mol_properties>  (13) 
{"0": {"label": "*4", "atom_type": "Cd"}, "1": {"label": "*3", "atom_type": "Cd"}, "5": {"label": "*2", "atom_type": "H0"}, "10": {"label": "*1", "atom_type": "CS"}, "11": {"label": "*0", "atom_type": "S2d"}}

>  <type>  (13) 
unop_9

>  <geom_source>  (13) 
Heuristics

$$$$

     RDKit          3D

 15 13  0  0  0  0  0  0  0  0999 V2000
    0.0719    1.2702   -2.3976 C   0  0  0  0  0  0  0  0  0  0  0  0
    0.0719    1.2702   -1.0739 C   0  0  0  0  0  0  0  0  0  0  0  0
    0.0719    2.4924   -0.2134 C   0  0  0  0  0  0  0  0  0  0  0  0
    0.0719    0.3475   -2.9641 H   0  0  0  0  0  0  0  0  0  0  0  0
    0.0719    2.1958   -2.9636 H   0  0  0  0  0  0  0  0  0  0  0  0
    0.0719    0.1270   -0.4456 H   0  0  0  0  0  0  0  0  0  0  0  0
   -0.8058    2.5095    0.4379 H   0  0  0  0  0  0  0  0  0  0  0  0
    0.0719    3.4028   -0.8140 H   0  0  0  0  0  0  0  0  0  0  0  0
    0.9496    2.5095    0.4379 H   0  0  0  0  0  0  0  0  0  0  0  0
    1.2437   -1.8898   -0.1092 C   0  0  0  0  0  0  0  0  0  0  0  0
    0.0719   -1.0210    0.1853 C   0  0  0  0  0  3  0  0  0  0  0  0
   -0.7343   -0.9473    1.5731 S   0  0  0  0  0  0  0  0  0  0  0  0
    1.5173   -2.5020    0.7475 H   0  0  0  0  0  0  0  0  0  0  0  0
    2.0948   -1.2694   -0.4063 H   0  0  0  0  0  0  0  0  0  0  0  0
    1.0174   -2.5332   -0.9651 H   0  0  0  0  0  0  0  0  0  0  0  0
  1  2  2  3
  1  4  1  0
  1  5  1  0
  2  3  1  0
  2  6  1  0
  3  7  1  0
  3  8  1  0
  3  9  1  0
 10 11  1  0
 10 13  1  0
 10 14  1  0
 10 15  1  0
 11 12  2  0
M  RAD  1  11   2
M  END
>  <reaction>  (14) 
rxn_1641

>  <mol_properties>  (14) 
{"0": {"label": "*4", "atom_type": "Cd"}, "1": {"label": "*3", "atom_type": "Cd"}, "5": {"label": "*2", "atom_type": "H0"}, "10": {"label": "*1", "atom_type": "CS"}, "11": {"label": "*0", "atom_type": "S2d"}}

>  <type>  (14) 
unop_10

>  <geom_source>  (14) 
Heuristics

$$$$

     RDKit          3D

 15 13  0  0  0  0  0  0  0  0999 V2000
   -0.2867    1.4480   -2.0790 C   0  0  0  0  0  0  0  0  0  0  0  0
   -0.2867    1.4480   -0.7553 C   0  0  0  0  0  0  0  0  0  0  0  0
   -0.2867    2.6702    0.1052 C   0  0  0  0  0  0  0  0  0  0  0  0
   -0.2867    0.5253   -2.6455 H   0  0  0  0  0  0  0  0  0  0  0  0
   -0.2867    2.3736   -2.6450 H   0  0  0  0  0  0  0  0  0  0  0  0
   -0.2867    0.3049   -0.1270 H   0  0  0  0  0  0  0  0  0  0  0  0
   -1.1644    2.6873    0.7565 H   0  0  0  0  0  0  0  0  0  0  0  0
   -0.2867    3.5806   -0.4954 H   0  0  0  0  0  0  0  0  0  0  0  0
    0.5910    2.6873    0.7565 H   0  0  0  0  0  0  0  0  0  0  0  0
   -0.9632   -0.8218    1.8292 C   0  0  0  0  0  0  0  0  0  0  0  0
   -0.2867   -0.8432    0.5039 C   0  0  0  0  0  3  0  0  0  0  0  0
    0.9550   -1.7720    0.0832 S   0  0  0  0  0  0  0  0  0  0  0  0
   -0.5150   -1.5306    2.5223 H   0  0  0  0  0  0  0  0  0  0  0  0
   -2.0257   -1.0514    1.7024 H   0  0  0  0  0  0  0  0  0  0  0  0
   -0.9137    0.1872    2.2500 H   0  0  0  0  0  0  0  0  0  0  0  0
  1  2  2  3
  1  4  1  0
  1  5  1  0
  2  3  1  0
  2  6  1  0
  3  7  1  0
  3  8  1  0
  3  9  1  0
 10 11  1  0
 10 13  1  0
 10 14  1  0
 10 15  1  0
 11 12  2  0
M  RAD  1  11   2
M  END
>  <reaction>  (15) 
rxn_1641

>  <mol_properties>  (15) 
{"0": {"label": "*4", "atom_type": "Cd"}, "1": {"label": "*3", "atom_type": "Cd"}, "5": {"label": "*2", "atom_type": "H0"}, "10": {"label": "*1", "atom_type": "CS"}, "11": {"label": "*0", "atom_type": "S2d"}}

>  <type>  (15) 
unop_11

>  <geom_source>  (15) 
Heuristics

$$$$

     RDKit          3D

 15 13  0  0  0  0  0  0  0  0999 V2000
   -0.0000    1.3465   -2.3743 C   0  0  0  0  0  0  0  0  0  0  0  0
   -0.0000    1.3465   -1.0505 C   0  0  0  0  0  0  0  0  0  0  0  0
   -0.0000    2.5687   -0.1900 C   0  0  0  0  0  0  0  0  0  0  0  0
   -0.0000    0.4238   -2.9408 H   0  0  0  0  0  0  0  0  0  0  0  0
   -0.0000    2.2721   -2.9403 H   0  0  0  0  0  0  0  0  0  0  0  0
   -0.0000    0.2033   -0.4223 H   0  0  0  0  0  0  0  0  0  0  0  0
   -0.8777    2.5858    0.4612 H   0  0  0  0  0  0  0  0  0  0  0  0
   -0.0000    3.4791   -0.7906 H   0  0  0  0  0  0  0  0  0  0  0  0
    0.8777    2.5858    0.4612 H   0  0  0  0  0  0  0  0  0  0  0  0
    0.0000   -2.1394   -0.6788 C   0  0  0  0  0  0  0  0  0  0  0  0
   -0.0000   -0.9447    0.2086 C   0  0  0  0  0  3  0  0  0  0  0  0
    0.0000   -0.9517    1.8153 S   0  0  0  0  0  0  0  0  0  0  0  0
   -0.0000   -3.0656   -0.1082 H   0  0  0  0  0  0  0  0  0  0  0  0
    0.8762   -2.1096   -1.3339 H   0  0  0  0  0  0  0  0  0  0  0  0
   -0.8761   -2.1096   -1.3339 H   0  0  0  0  0  0  0  0  0  0  0  0
  1  2  2  3
  1  4  1  0
  1  5  1  0
  2  3  1  0
  2  6  1  0
  3  7  1  0
  3  8  1  0
  3  9  1  0
 10 11  1  0
 10 13  1  0
 10 14  1  0
 10 15  1  0
 11 12  2  0
M  RAD  1  11   2
M  END
>  <reaction>  (16) 
rxn_1641

>  <mol_properties>  (16) 
{"0": {"label": "*4", "atom_type": "Cd"}, "1": {"label": "*3", "atom_type": "Cd"}, "5": {"label": "*2", "atom_type": "H0"}, "10": {"label": "*1", "atom_type": "CS"}, "11": {"label": "*0", "atom_type": "S2d"}}

>  <type>  (16) 
unop_12

>  <geom_source>  (16) 
Heuristics

$$$$

     RDKit          3D

 15 13  0  0  0  0  0  0  0  0999 V2000
    1.9076   -0.5895   -1.7438 S   0  0  0  0  0  0  0  0  0  0  0  0
    2.2894    0.6074    0.4739 C   0  0  0  0  0  0  0  0  0  0  0  0
   -1.6455   -1.1682   -0.5590 C   0  0  0  0  0  0  0  0  0  0  0  0
    1.4289   -0.1962   -0.4484 C   0  0  0  0  0  3  0  0  0  0  0  0
   -1.5873    0.9843    0.6536 C   0  0  0  0  0  0  0  0  0  0  0  0
   -1.0253   -0.1967    0.3933 C   0  0  0  0  0  0  0  0  0  0  0  0
    2.5514    1.5808    0.0067 H   0  0  0  0  0  0  0  0  0  0  0  0
    1.7339    0.8023    1.4144 H   0  0  0  0  0  0  0  0  0  0  0  0
    3.2188    0.0496    0.7181 H   0  0  0  0  0  0  0  0  0  0  0  0
   -1.0097   -2.0753   -0.6198 H   0  0  0  0  0  0  0  0  0  0  0  0
   -1.7243   -0.7133   -1.5690 H   0  0  0  0  0  0  0  0  0  0  0  0
   -2.6563   -1.4581   -0.2020 H   0  0  0  0  0  0  0  0  0  0  0  0
    0.1463   -0.5684   -0.0463 H   0  0  0  0  0  0  0  0  0  0  0  0
   -1.1091    1.6640    1.3500 H   0  0  0  0  0  0  0  0  0  0  0  0
   -2.5187    1.2773    0.1782 H   0  0  0  0  0  0  0  0  0  0  0  0
  1  4  2  0
  2  4  1  0
  2  7  1  0
  2  8  1  0
  2  9  1  0
  3  6  1  0
  3 10  1  0
  3 11  1  0
  3 12  1  0
  5  6  2  3
  5 14  1  0
  5 15  1  0
  6 13  1  0
M  RAD  1   4   2
M  END
>  <reaction>  (17) 
rxn_1641

>  <mol_properties>  (17) 
{"0": {"label": "*4", "atom_type": "Cd"}, "1": {"label": "*3", "atom_type": "Cd"}, "5": {"label": "*2", "atom_type": "H0"}, "10": {"label": "*1", "atom_type": "CS"}, "11": {"label": "*0", "atom_type": "S2d"}}

>  <type>  (17) 
unop_13

>  <geom_source>  (17) 
AutoTST

$$$$
