
     RDKit          3D

  6  5  0  0  0  0  0  0  0  0999 V2000
   -0.5072   -0.0291   -0.0097 C   0  0  0  0  0  0  0  0  0  0  0  0
    1.1321   -0.1527   -0.7687 S   0  0  0  0  0  0  0  0  0  0  0  0
   -0.6174   -0.7330    0.8127 H   0  0  0  0  0  0  0  0  0  0  0  0
   -0.5863    0.9827    0.3845 H   0  0  0  0  0  0  0  0  0  0  0  0
   -1.2962   -0.1800   -0.7434 H   0  0  0  0  0  0  0  0  0  0  0  0
    1.0312   -1.4237   -1.1764 H   0  0  0  0  0  0  0  0  0  0  0  0
  1  2  1  0
  1  3  1  0
  1  4  1  0
  1  5  1  0
  2  6  1  0
M  END
>  <reaction>  (1) 
rxn_1855

>  <mol_properties>  (1) 
{"0": {"label": "donator", "atom_type": "Cs"}, "2": {"label": "d_hydrogen", "atom_type": "H0"}}

>  <type>  (1) 
r1h

$$$$

     RDKit          3D

 10  9  0  0  0  0  0  0  0  0999 V2000
   -1.2648    0.1959    0.8197 C   0  0  0  0  0  0  0  0  0  0  0  0
   -0.2805    0.0995   -0.3030 C   0  0  0  0  0  3  0  0  0  0  0  0
   -0.0444    1.1347   -1.1797 C   0  0  0  0  0  0  0  0  0  0  0  0
    0.1640    2.0467   -1.9525 C   0  0  0  0  0  0  0  0  0  0  0  0
    0.5686   -1.4168   -0.4488 S   0  0  0  0  0  0  0  0  0  0  0  0
   -2.0466   -0.5638    0.7258 H   0  0  0  0  0  0  0  0  0  0  0  0
   -0.7765    0.0454    1.7871 H   0  0  0  0  0  0  0  0  0  0  0  0
   -1.7371    1.1762    0.8222 H   0  0  0  0  0  0  0  0  0  0  0  0
    0.3433    2.8484   -2.6273 H   0  0  0  0  0  0  0  0  0  0  0  0
    1.3075   -1.0953   -1.5176 H   0  0  0  0  0  0  0  0  0  0  0  0
  1  2  1  0
  1  6  1  0
  1  7  1  0
  1  8  1  0
  2  3  1  0
  2  5  1  0
  3  4  3  0
  4  9  1  0
  5 10  1  0
M  RAD  1   2   2
M  END
>  <reaction>  (2) 
rxn_1855

>  <mol_properties>  (2) 
{"1": {"label": "acceptor", "atom_type": "Cs"}}

>  <type>  (2) 
r2

$$$$

     RDKit          3D

 11 10  0  0  0  0  0  0  0  0999 V2000
   -1.2582   -0.5130    0.2160 C   0  0  0  0  0  0  0  0  0  0  0  0
   -0.1109    0.0509   -0.6210 C   0  0  0  0  0  0  0  0  0  0  0  0
    1.1862   -0.2025   -0.0072 C   0  0  0  0  0  0  0  0  0  0  0  0
    2.2351   -0.4206    0.5274 C   0  0  0  0  0  0  0  0  0  0  0  0
   -0.3298    1.8272   -1.0120 S   0  0  0  0  0  0  0  0  0  0  0  0
   -1.2875   -0.0327    1.1945 H   0  0  0  0  0  0  0  0  0  0  0  0
   -2.2088   -0.3391   -0.2866 H   0  0  0  0  0  0  0  0  0  0  0  0
   -1.1220   -1.5854    0.3655 H   0  0  0  0  0  0  0  0  0  0  0  0
   -0.1222   -0.4181   -1.6078 H   0  0  0  0  0  0  0  0  0  0  0  0
    3.1729   -0.6098    0.9920 H   0  0  0  0  0  0  0  0  0  0  0  0
   -0.1942    2.2663    0.2466 H   0  0  0  0  0  0  0  0  0  0  0  0
  1  2  1  0
  1  6  1  0
  1  7  1  0
  1  8  1  0
  2  3  1  0
  2  5  1  0
  2  9  1  0
  3  4  3  0
  4 10  1  0
  5 11  1  0
M  END
>  <reaction>  (3) 
rxn_1855

>  <mol_properties>  (3) 
{"1": {"label": "acceptor", "atom_type": "Cs"}, "10": {"label": "a_hydrogen", "atom_type": "H0"}}

>  <type>  (3) 
r2h

$$$$

     RDKit          3D

 16 14  0  0  0  0  0  0  0  0999 V2000
   -1.6270    1.2392    0.0217 C   0  0  0  0  0  0  0  0  0  0  0  0
   -0.4238    0.5956    0.6837 C   0  0  0  0  0  0  0  0  0  0  0  0
   -0.5931    0.2197    2.0549 C   0  0  0  0  0  0  0  0  0  0  0  0
   -0.7287   -0.1603    3.1861 C   0  0  0  0  0  0  0  0  0  0  0  0
    1.0757    1.5426    0.3477 S   0  0  0  0  0  0  0  0  0  0  0  0
   -1.8397    2.2199    0.4521 H   0  0  0  0  0  0  0  0  0  0  0  0
   -1.4497    1.3536   -1.0490 H   0  0  0  0  0  0  0  0  0  0  0  0
   -2.5027    0.6050    0.1606 H   0  0  0  0  0  0  0  0  0  0  0  0
   -0.8538   -0.4788    4.1929 H   0  0  0  0  0  0  0  0  0  0  0  0
    1.8822    0.8500    1.1617 H   0  0  0  0  0  0  0  0  0  0  0  0
   -0.0629   -1.6358   -0.7909 C   0  0  0  0  0  3  0  0  0  0  0  0
    0.1149   -1.0975   -2.4528 S   0  0  0  0  0  0  0  0  0  0  0  0
   -0.2688   -0.5082    0.0284 H   0  0  0  0  0  0  0  0  0  0  0  0
   -0.9610   -2.2343   -0.6693 H   0  0  0  0  0  0  0  0  0  0  0  0
    0.8197   -2.0831   -0.3421 H   0  0  0  0  0  0  0  0  0  0  0  0
    1.2624   -0.4251   -2.2874 H   0  0  0  0  0  0  0  0  0  0  0  0
  1  2  1  0
  1  6  1  0
  1  7  1  0
  1  8  1  0
  2  3  1  0
  2  5  1  0
  2 13  1  0
  3  4  3  0
  4  9  1  0
  5 10  1  0
 11 12  1  0
 11 14  1  0
 11 15  1  0
 12 16  1  0
M  RAD  1  11   2
M  END
>  <reaction>  (4) 
rxn_1855

>  <mol_properties>  (4) 
{"1": {"label": "*1", "atom_type": "Cs"}, "4": {"label": "*0", "atom_type": "S2s"}, "10": {"label": "*3", "atom_type": "Cs"}, "11": {"label": "*4", "atom_type": "S2s"}, "12": {"label": "*2", "atom_type": "H0"}}

>  <type>  (4) 
ts

$$$$

     RDKit          3D

 16 14  0  0  0  0  0  0  0  0999 V2000
   -1.5512    0.8512    1.5095 C   0  0  0  0  0  0  0  0  0  0  0  0
   -0.3014    0.6467    0.6546 C   0  0  0  0  0  3  0  0  0  0  0  0
    0.7520   -0.0442    1.3871 C   0  0  0  0  0  0  0  0  0  0  0  0
    1.5989   -0.6068    2.0194 C   0  0  0  0  0  0  0  0  0  0  0  0
    0.3112    2.2072   -0.0840 S   0  0  0  0  0  0  0  0  0  0  0  0
   -1.3234    1.4764    2.3734 H   0  0  0  0  0  0  0  0  0  0  0  0
   -2.3303    1.3368    0.9232 H   0  0  0  0  0  0  0  0  0  0  0  0
   -1.9202   -0.1101    1.8708 H   0  0  0  0  0  0  0  0  0  0  0  0
    2.3512   -1.1064    2.5810 H   0  0  0  0  0  0  0  0  0  0  0  0
    0.6755    2.7771    1.0726 H   0  0  0  0  0  0  0  0  0  0  0  0
   -0.3014   -1.7902   -0.2991 C   0  0  0  0  0  0  0  0  0  0  0  0
   -0.3014   -1.7902   -2.1097 S   0  0  0  0  0  0  0  0  0  0  0  0
   -0.3014   -0.5744    0.1767 H   0  0  0  0  0  0  0  0  0  0  0  0
   -1.2220   -2.2844    0.0069 H   0  0  0  0  0  0  0  0  0  0  0  0
    0.5430   -2.3502    0.0974 H   0  0  0  0  0  0  0  0  0  0  0  0
    0.8690   -1.1621   -2.2761 H   0  0  0  0  0  0  0  0  0  0  0  0
  1  2  1  0
  1  6  1  0
  1  7  1  0
  1  8  1  0
  2  3  1  0
  2  5  1  0
  3  4  3  0
  4  9  1  0
  5 10  1  0
 11 12  1  0
 11 13  1  0
 11 14  1  0
 11 15  1  0
 12 16  1  0
M  RAD  1   2   2
M  END
>  <reaction>  (5) 
rxn_1855

>  <mol_properties>  (5) 
{"1": {"label": "*1", "atom_type": "Cs"}, "4": {"label": "*0", "atom_type": "S2s"}, "10": {"label": "*3", "atom_type": "Cs"}, "11": {"label": "*4", "atom_type": "S2s"}, "12": {"label": "*2", "atom_type": "H0"}}

>  <type>  (5) 
unop_1

>  <geom_source>  (5) 
Heuristics

$$$$

     RDKit          3D

 16 14  0  0  0  0  0  0  0  0999 V2000
   -0.8062    1.6059   -0.5307 C   0  0  0  0  0  0  0  0  0  0  0  0
   -0.0846    0.6830    0.4503 C   0  0  0  0  0  3  0  0  0  0  0  0
   -0.9282    0.3275    1.5841 C   0  0  0  0  0  0  0  0  0  0  0  0
   -1.6447    0.0610    2.5057 C   0  0  0  0  0  0  0  0  0  0  0  0
    1.5257    1.3602    1.0017 S   0  0  0  0  0  0  0  0  0  0  0  0
   -1.0715    2.5453   -0.0447 H   0  0  0  0  0  0  0  0  0  0  0  0
   -0.1629    1.8233   -1.3824 H   0  0  0  0  0  0  0  0  0  0  0  0
   -1.7238    1.1333   -0.8851 H   0  0  0  0  0  0  0  0  0  0  0  0
   -2.2810   -0.1757    3.3242 H   0  0  0  0  0  0  0  0  0  0  0  0
    1.0171    2.3940    1.6857 H   0  0  0  0  0  0  0  0  0  0  0  0
   -0.0846   -1.7539   -0.5033 C   0  0  0  0  0  0  0  0  0  0  0  0
   -0.0846   -1.7539   -2.3140 S   0  0  0  0  0  0  0  0  0  0  0  0
   -0.0846   -0.5381   -0.0276 H   0  0  0  0  0  0  0  0  0  0  0  0
   -1.0053   -2.2481   -0.1974 H   0  0  0  0  0  0  0  0  0  0  0  0
    0.7597   -2.3139   -0.1069 H   0  0  0  0  0  0  0  0  0  0  0  0
    1.0857   -1.1258   -2.4804 H   0  0  0  0  0  0  0  0  0  0  0  0
  1  2  1  0
  1  6  1  0
  1  7  1  0
  1  8  1  0
  2  3  1  0
  2  5  1  0
  3  4  3  0
  4  9  1  0
  5 10  1  0
 11 12  1  0
 11 13  1  0
 11 14  1  0
 11 15  1  0
 12 16  1  0
M  RAD  1   2   2
M  END
>  <reaction>  (6) 
rxn_1855

>  <mol_properties>  (6) 
{"1": {"label": "*1", "atom_type": "Cs"}, "4": {"label": "*0", "atom_type": "S2s"}, "10": {"label": "*3", "atom_type": "Cs"}, "11": {"label": "*4", "atom_type": "S2s"}, "12": {"label": "*2", "atom_type": "H0"}}

>  <type>  (6) 
unop_2

>  <geom_source>  (6) 
Heuristics

$$$$

     RDKit          3D

 16 14  0  0  0  0  0  0  0  0999 V2000
   -0.9509    0.5629    2.1711 C   0  0  0  0  0  0  0  0  0  0  0  0
   -0.2293    0.5509    0.8243 C   0  0  0  0  0  3  0  0  0  0  0  0
    1.2063    0.3540    0.9778 C   0  0  0  0  0  0  0  0  0  0  0  0
    2.3825    0.1981    1.1394 C   0  0  0  0  0  0  0  0  0  0  0  0
   -0.5963    2.0344   -0.1858 S   0  0  0  0  0  0  0  0  0  0  0  0
   -0.5960    1.3908    2.7858 H   0  0  0  0  0  0  0  0  0  0  0  0
   -2.0237    0.6756    2.0200 H   0  0  0  0  0  0  0  0  0  0  0  0
   -0.7597   -0.3678    2.7078 H   0  0  0  0  0  0  0  0  0  0  0  0
    3.4270    0.0596    1.2828 H   0  0  0  0  0  0  0  0  0  0  0  0
    0.0207    2.9095    0.6196 H   0  0  0  0  0  0  0  0  0  0  0  0
   -0.2293   -1.8860   -0.1293 C   0  0  0  0  0  0  0  0  0  0  0  0
   -0.2293   -1.8860   -1.9399 S   0  0  0  0  0  0  0  0  0  0  0  0
   -0.2293   -0.6702    0.3465 H   0  0  0  0  0  0  0  0  0  0  0  0
   -1.1500   -2.3802    0.1767 H   0  0  0  0  0  0  0  0  0  0  0  0
    0.6150   -2.4460    0.2672 H   0  0  0  0  0  0  0  0  0  0  0  0
    0.9410   -1.2579   -2.1063 H   0  0  0  0  0  0  0  0  0  0  0  0
  1  2  1  0
  1  6  1  0
  1  7  1  0
  1  8  1  0
  2  3  1  0
  2  5  1  0
  3  4  3  0
  4  9  1  0
  5 10  1  0
 11 12  1  0
 11 13  1  0
 11 14  1  0
 11 15  1  0
 12 16  1  0
M  RAD  1   2   2
M  END
>  <reaction>  (7) 
rxn_1855

>  <mol_properties>  (7) 
{"1": {"label": "*1", "atom_type": "Cs"}, "4": {"label": "*0", "atom_type": "S2s"}, "10": {"label": "*3", "atom_type": "Cs"}, "11": {"label": "*4", "atom_type": "S2s"}, "12": {"label": "*2", "atom_type": "H0"}}

>  <type>  (7) 
unop_3

>  <geom_source>  (7) 
Heuristics

$$$$

     RDKit          3D

 16 14  0  0  0  0  0  0  0  0999 V2000
    1.3102    1.5185   -0.0810 C   0  0  0  0  0  0  0  0  0  0  0  0
    0.0604    0.7881    0.4080 C   0  0  0  0  0  3  0  0  0  0  0  0
   -1.0441    1.7056    0.6562 C   0  0  0  0  0  0  0  0  0  0  0  0
   -1.9287    2.4872    0.8573 C   0  0  0  0  0  0  0  0  0  0  0  0
    0.3882   -0.2729    1.8650 S   0  0  0  0  0  0  0  0  0  0  0  0
    1.6630    2.2187    0.6769 H   0  0  0  0  0  0  0  0  0  0  0  0
    2.1039    0.8027   -0.2911 H   0  0  0  0  0  0  0  0  0  0  0  0
    1.0851    2.0816   -0.9883 H   0  0  0  0  0  0  0  0  0  0  0  0
   -2.7143    3.1813    1.0359 H   0  0  0  0  0  0  0  0  0  0  0  0
    0.6539    0.7301    2.7128 H   0  0  0  0  0  0  0  0  0  0  0  0
    0.0604   -1.6488   -0.5456 C   0  0  0  0  0  0  0  0  0  0  0  0
    0.0604   -1.6488   -2.3562 S   0  0  0  0  0  0  0  0  0  0  0  0
    0.0604   -0.4330   -0.0698 H   0  0  0  0  0  0  0  0  0  0  0  0
   -0.8603   -2.1430   -0.2396 H   0  0  0  0  0  0  0  0  0  0  0  0
    0.9048   -2.2088   -0.1491 H   0  0  0  0  0  0  0  0  0  0  0  0
    1.2307   -1.0207   -2.5226 H   0  0  0  0  0  0  0  0  0  0  0  0
  1  2  1  0
  1  6  1  0
  1  7  1  0
  1  8  1  0
  2  3  1  0
  2  5  1  0
  3  4  3  0
  4  9  1  0
  5 10  1  0
 11 12  1  0
 11 13  1  0
 11 14  1  0
 11 15  1  0
 12 16  1  0
M  RAD  1   2   2
M  END
>  <reaction>  (8) 
rxn_1855

>  <mol_properties>  (8) 
{"1": {"label": "*1", "atom_type": "Cs"}, "4": {"label": "*0", "atom_type": "S2s"}, "10": {"label": "*3", "atom_type": "Cs"}, "11": {"label": "*4", "atom_type": "S2s"}, "12": {"label": "*2", "atom_type": "H0"}}

>  <type>  (8) 
unop_4

>  <geom_source>  (8) 
Heuristics

$$$$

     RDKit          3D

 16 14  0  0  0  0  0  0  0  0999 V2000
    0.0529    0.4466    2.4344 C   0  0  0  0  0  0  0  0  0  0  0  0
    0.0529    0.5050    0.9076 C   0  0  0  0  0  3  0  0  0  0  0  0
    1.2239    1.2006    0.3896 C   0  0  0  0  0  0  0  0  0  0  0  0
    2.1934    1.7836   -0.0027 C   0  0  0  0  0  0  0  0  0  0  0  0
   -1.4966    1.2078    0.2286 S   0  0  0  0  0  0  0  0  0  0  0  0
    0.0175    1.4525    2.8539 H   0  0  0  0  0  0  0  0  0  0  0  0
   -0.8145   -0.1095    2.7877 H   0  0  0  0  0  0  0  0  0  0  0  0
    0.9617   -0.0409    2.7914 H   0  0  0  0  0  0  0  0  0  0  0  0
    3.0545    2.3014   -0.3511 H   0  0  0  0  0  0  0  0  0  0  0  0
   -1.3085    2.4471    0.7017 H   0  0  0  0  0  0  0  0  0  0  0  0
    0.0529   -1.9319   -0.0461 C   0  0  0  0  0  0  0  0  0  0  0  0
    0.0529   -1.9319   -1.8567 S   0  0  0  0  0  0  0  0  0  0  0  0
    0.0529   -0.7161    0.4297 H   0  0  0  0  0  0  0  0  0  0  0  0
   -0.8677   -2.4261    0.2599 H   0  0  0  0  0  0  0  0  0  0  0  0
    0.8973   -2.4919    0.3504 H   0  0  0  0  0  0  0  0  0  0  0  0
    1.2232   -1.3038   -2.0231 H   0  0  0  0  0  0  0  0  0  0  0  0
  1  2  1  0
  1  6  1  0
  1  7  1  0
  1  8  1  0
  2  3  1  0
  2  5  1  0
  3  4  3  0
  4  9  1  0
  5 10  1  0
 11 12  1  0
 11 13  1  0
 11 14  1  0
 11 15  1  0
 12 16  1  0
M  RAD  1   2   2
M  END
>  <reaction>  (9) 
rxn_1855

>  <mol_properties>  (9) 
{"1": {"label": "*1", "atom_type": "Cs"}, "4": {"label": "*0", "atom_type": "S2s"}, "10": {"label": "*3", "atom_type": "Cs"}, "11": {"label": "*4", "atom_type": "S2s"}, "12": {"label": "*2", "atom_type": "H0"}}

>  <type>  (9) 
unop_5

>  <geom_source>  (9) 
Heuristics

$$$$

     RDKit          3D

 16 14  0  0  0  0  0  0  0  0999 V2000
    1.6437    1.2683    0.6435 C   0  0  0  0  0  0  0  0  0  0  0  0
    0.2006    0.8008    0.4606 C   0  0  0  0  0  3  0  0  0  0  0  0
   -0.7277    1.9208    0.3760 C   0  0  0  0  0  0  0  0  0  0  0  0
   -1.4642    2.8631    0.3177 C   0  0  0  0  0  0  0  0  0  0  0  0
   -0.3187   -0.4026    1.7405 S   0  0  0  0  0  0  0  0  0  0  0  0
    1.7496    1.8202    1.5780 H   0  0  0  0  0  0  0  0  0  0  0  0
    2.3149    0.4106    0.6669 H   0  0  0  0  0  0  0  0  0  0  0  0
    1.9317    1.9273   -0.1772 H   0  0  0  0  0  0  0  0  0  0  0  0
   -2.1183    3.7000    0.2659 H   0  0  0  0  0  0  0  0  0  0  0  0
   -0.2769    0.4571    2.7674 H   0  0  0  0  0  0  0  0  0  0  0  0
    0.2006   -1.6361   -0.4930 C   0  0  0  0  0  0  0  0  0  0  0  0
    0.2006   -1.6361   -2.3037 S   0  0  0  0  0  0  0  0  0  0  0  0
    0.2006   -0.4203   -0.0173 H   0  0  0  0  0  0  0  0  0  0  0  0
   -0.7201   -2.1303   -0.1871 H   0  0  0  0  0  0  0  0  0  0  0  0
    1.0450   -2.1961   -0.0966 H   0  0  0  0  0  0  0  0  0  0  0  0
    1.3709   -1.0080   -2.4701 H   0  0  0  0  0  0  0  0  0  0  0  0
  1  2  1  0
  1  6  1  0
  1  7  1  0
  1  8  1  0
  2  3  1  0
  2  5  1  0
  3  4  3  0
  4  9  1  0
  5 10  1  0
 11 12  1  0
 11 13  1  0
 11 14  1  0
 11 15  1  0
 12 16  1  0
M  RAD  1   2   2
M  END
>  <reaction>  (10) 
rxn_1855

>  <mol_properties>  (10) 
{"1": {"label": "*1", "atom_type": "Cs"}, "4": {"label": "*0", "atom_type": "S2s"}, "10": {"label": "*3", "atom_type": "Cs"}, "11": {"label": "*4", "atom_type": "S2s"}, "12": {"label": "*2", "atom_type": "H0"}}

>  <type>  (10) 
unop_6

>  <geom_source>  (10) 
Heuristics

$$$$

     RDKit          3D

 16 14  0  0  0  0  0  0  0  0999 V2000
    1.5604    0.9535    1.4473 C   0  0  0  0  0  0  0  0  0  0  0  0
    0.3106    0.7490    0.5924 C   0  0  0  0  0  3  0  0  0  0  0  0
   -0.2493    2.0144    0.1355 C   0  0  0  0  0  0  0  0  0  0  0  0
   -0.6878    3.0714   -0.2168 C   0  0  0  0  0  0  0  0  0  0  0  0
   -0.9549   -0.2791    1.4276 S   0  0  0  0  0  0  0  0  0  0  0  0
    1.3177    1.5195    2.3472 H   0  0  0  0  0  0  0  0  0  0  0  0
    1.9740   -0.0101    1.7421 H   0  0  0  0  0  0  0  0  0  0  0  0
    2.3123    1.5104    0.8857 H   0  0  0  0  0  0  0  0  0  0  0  0
   -1.0772    4.0102   -0.5297 H   0  0  0  0  0  0  0  0  0  0  0  0
   -1.2399    0.6050    2.3932 H   0  0  0  0  0  0  0  0  0  0  0  0
    0.3106   -1.6879   -0.3612 C   0  0  0  0  0  0  0  0  0  0  0  0
    0.3106   -1.6879   -2.1719 S   0  0  0  0  0  0  0  0  0  0  0  0
    0.3106   -0.4721    0.1145 H   0  0  0  0  0  0  0  0  0  0  0  0
   -0.6101   -2.1821   -0.0553 H   0  0  0  0  0  0  0  0  0  0  0  0
    1.1549   -2.2479    0.0352 H   0  0  0  0  0  0  0  0  0  0  0  0
    1.4809   -1.0598   -2.3383 H   0  0  0  0  0  0  0  0  0  0  0  0
  1  2  1  0
  1  6  1  0
  1  7  1  0
  1  8  1  0
  2  3  1  0
  2  5  1  0
  3  4  3  0
  4  9  1  0
  5 10  1  0
 11 12  1  0
 11 13  1  0
 11 14  1  0
 11 15  1  0
 12 16  1  0
M  RAD  1   2   2
M  END
>  <reaction>  (11) 
rxn_1855

>  <mol_properties>  (11) 
{"1": {"label": "*1", "atom_type": "Cs"}, "4": {"label": "*0", "atom_type": "S2s"}, "10": {"label": "*3", "atom_type": "Cs"}, "11": {"label": "*4", "atom_type": "S2s"}, "12": {"label": "*2", "atom_type": "H0"}}

>  <type>  (11) 
unop_7

>  <geom_source>  (11) 
Heuristics

$$$$

     RDKit          3D

 16 14  0  0  0  0  0  0  0  0999 V2000
   -1.6856    1.1659    0.7058 C   0  0  0  0  0  0  0  0  0  0  0  0
   -0.2424    0.6984    0.5228 C   0  0  0  0  0  3  0  0  0  0  0  0
    0.2025   -0.1397    1.6288 C   0  0  0  0  0  0  0  0  0  0  0  0
    0.5388   -0.8185    2.5560 C   0  0  0  0  0  0  0  0  0  0  0  0
    0.9165    2.0861    0.2275 S   0  0  0  0  0  0  0  0  0  0  0  0
   -1.7768    1.7770    1.6042 H   0  0  0  0  0  0  0  0  0  0  0  0
   -1.9986    1.7588   -0.1527 H   0  0  0  0  0  0  0  0  0  0  0  0
   -2.3487    0.3053    0.8089 H   0  0  0  0  0  0  0  0  0  0  0  0
    0.8374   -1.4214    3.3796 H   0  0  0  0  0  0  0  0  0  0  0  0
    0.7970    2.6311    1.4456 H   0  0  0  0  0  0  0  0  0  0  0  0
   -0.2424   -1.7385   -0.4308 C   0  0  0  0  0  0  0  0  0  0  0  0
   -0.2424   -1.7385   -2.2414 S   0  0  0  0  0  0  0  0  0  0  0  0
   -0.2424   -0.5227    0.0450 H   0  0  0  0  0  0  0  0  0  0  0  0
   -1.1631   -2.2327   -0.1248 H   0  0  0  0  0  0  0  0  0  0  0  0
    0.6019   -2.2985   -0.0343 H   0  0  0  0  0  0  0  0  0  0  0  0
    0.9279   -1.1104   -2.4078 H   0  0  0  0  0  0  0  0  0  0  0  0
  1  2  1  0
  1  6  1  0
  1  7  1  0
  1  8  1  0
  2  3  1  0
  2  5  1  0
  3  4  3  0
  4  9  1  0
  5 10  1  0
 11 12  1  0
 11 13  1  0
 11 14  1  0
 11 15  1  0
 12 16  1  0
M  RAD  1   2   2
M  END
>  <reaction>  (12) 
rxn_1855

>  <mol_properties>  (12) 
{"1": {"label": "*1", "atom_type": "Cs"}, "4": {"label": "*0", "atom_type": "S2s"}, "10": {"label": "*3", "atom_type": "Cs"}, "11": {"label": "*4", "atom_type": "S2s"}, "12": {"label": "*2", "atom_type": "H0"}}

>  <type>  (12) 
unop_8

>  <geom_source>  (12) 
Heuristics

$$$$

     RDKit          3D

 16 14  0  0  0  0  0  0  0  0999 V2000
    0.6826    1.6567   -0.5616 C   0  0  0  0  0  0  0  0  0  0  0  0
   -0.0390    0.7338    0.4194 C   0  0  0  0  0  3  0  0  0  0  0  0
   -1.2425    1.3506    0.9621 C   0  0  0  0  0  0  0  0  0  0  0  0
   -2.2208    1.8890    1.3943 C   0  0  0  0  0  0  0  0  0  0  0  0
    1.0594    0.1246    1.7529 S   0  0  0  0  0  0  0  0  0  0  0  0
    1.0098    2.5667   -0.0577 H   0  0  0  0  0  0  0  0  0  0  0  0
    1.5558    1.1539   -0.9754 H   0  0  0  0  0  0  0  0  0  0  0  0
    0.0116    1.9386   -1.3747 H   0  0  0  0  0  0  0  0  0  0  0  0
   -3.0897    2.3671    1.7782 H   0  0  0  0  0  0  0  0  0  0  0  0
    1.2392    1.3145    2.3420 H   0  0  0  0  0  0  0  0  0  0  0  0
   -0.0390   -1.7031   -0.5342 C   0  0  0  0  0  0  0  0  0  0  0  0
   -0.0390   -1.7031   -2.3449 S   0  0  0  0  0  0  0  0  0  0  0  0
   -0.0390   -0.4873   -0.0585 H   0  0  0  0  0  0  0  0  0  0  0  0
   -0.9596   -2.1973   -0.2283 H   0  0  0  0  0  0  0  0  0  0  0  0
    0.8054   -2.2631   -0.1378 H   0  0  0  0  0  0  0  0  0  0  0  0
    1.1313   -1.0750   -2.5113 H   0  0  0  0  0  0  0  0  0  0  0  0
  1  2  1  0
  1  6  1  0
  1  7  1  0
  1  8  1  0
  2  3  1  0
  2  5  1  0
  3  4  3  0
  4  9  1  0
  5 10  1  0
 11 12  1  0
 11 13  1  0
 11 14  1  0
 11 15  1  0
 12 16  1  0
M  RAD  1   2   2
M  END
>  <reaction>  (13) 
rxn_1855

>  <mol_properties>  (13) 
{"1": {"label": "*1", "atom_type": "Cs"}, "4": {"label": "*0", "atom_type": "S2s"}, "10": {"label": "*3", "atom_type": "Cs"}, "11": {"label": "*4", "atom_type": "S2s"}, "12": {"label": "*2", "atom_type": "H0"}}

>  <type>  (13) 
unop_9

>  <geom_source>  (13) 
Heuristics

$$$$

     RDKit          3D

 16 14  0  0  0  0  0  0  0  0999 V2000
   -1.3972    1.4329   -0.0289 C   0  0  0  0  0  0  0  0  0  0  0  0
   -0.1474    0.7025    0.4601 C   0  0  0  0  0  3  0  0  0  0  0  0
   -0.3894   -0.0174    1.7037 C   0  0  0  0  0  0  0  0  0  0  0  0
   -0.6195   -0.5914    2.7290 C   0  0  0  0  0  0  0  0  0  0  0  0
    1.3065    1.8082    0.5998 S   0  0  0  0  0  0  0  0  0  0  0  0
   -1.7092    2.1826    0.6988 H   0  0  0  0  0  0  0  0  0  0  0  0
   -1.1935    1.9301   -0.9765 H   0  0  0  0  0  0  0  0  0  0  0  0
   -2.2169    0.7253   -0.1637 H   0  0  0  0  0  0  0  0  0  0  0  0
   -0.8240   -1.1013    3.6396 H   0  0  0  0  0  0  0  0  0  0  0  0
    0.8246    2.5481    1.6075 H   0  0  0  0  0  0  0  0  0  0  0  0
   -0.1474   -1.7344   -0.4935 C   0  0  0  0  0  0  0  0  0  0  0  0
   -0.1474   -1.7344   -2.3042 S   0  0  0  0  0  0  0  0  0  0  0  0
   -0.1474   -0.5186   -0.0178 H   0  0  0  0  0  0  0  0  0  0  0  0
   -1.0681   -2.2286   -0.1876 H   0  0  0  0  0  0  0  0  0  0  0  0
    0.6970   -2.2944   -0.0971 H   0  0  0  0  0  0  0  0  0  0  0  0
    1.0229   -1.1063   -2.4706 H   0  0  0  0  0  0  0  0  0  0  0  0
  1  2  1  0
  1  6  1  0
  1  7  1  0
  1  8  1  0
  2  3  1  0
  2  5  1  0
  3  4  3  0
  4  9  1  0
  5 10  1  0
 11 12  1  0
 11 13  1  0
 11 14  1  0
 11 15  1  0
 12 16  1  0
M  RAD  1   2   2
M  END
>  <reaction>  (14) 
rxn_1855

>  <mol_properties>  (14) 
{"1": {"label": "*1", "atom_type": "Cs"}, "4": {"label": "*0", "atom_type": "S2s"}, "10": {"label": "*3", "atom_type": "Cs"}, "11": {"label": "*4", "atom_type": "S2s"}, "12": {"label": "*2", "atom_type": "H0"}}

>  <type>  (14) 
unop_10

>  <geom_source>  (14) 
Heuristics

$$$$

     RDKit          3D

 16 14  0  0  0  0  0  0  0  0999 V2000
    1.0189    0.6386    2.1251 C   0  0  0  0  0  0  0  0  0  0  0  0
    0.2973    0.6265    0.7783 C   0  0  0  0  0  3  0  0  0  0  0  0
    0.4795    1.8767    0.0521 C   0  0  0  0  0  0  0  0  0  0  0  0
    0.6428    2.9187   -0.5147 C   0  0  0  0  0  0  0  0  0  0  0  0
   -1.4764    0.1954    0.9323 S   0  0  0  0  0  0  0  0  0  0  0  0
    0.6151    1.4226    2.7664 H   0  0  0  0  0  0  0  0  0  0  0  0
    0.8933   -0.3207    2.6257 H   0  0  0  0  0  0  0  0  0  0  0  0
    2.0832    0.8307    1.9791 H   0  0  0  0  0  0  0  0  0  0  0  0
    0.7878    3.8441   -1.0181 H   0  0  0  0  0  0  0  0  0  0  0  0
   -1.8336    1.3029    1.5964 H   0  0  0  0  0  0  0  0  0  0  0  0
    0.2973   -1.8104   -0.1753 C   0  0  0  0  0  0  0  0  0  0  0  0
    0.2973   -1.8104   -1.9859 S   0  0  0  0  0  0  0  0  0  0  0  0
    0.2973   -0.5945    0.3005 H   0  0  0  0  0  0  0  0  0  0  0  0
   -0.6233   -2.3045    0.1307 H   0  0  0  0  0  0  0  0  0  0  0  0
    1.1417   -2.3704    0.2212 H   0  0  0  0  0  0  0  0  0  0  0  0
    1.4676   -1.1822   -2.1523 H   0  0  0  0  0  0  0  0  0  0  0  0
  1  2  1  0
  1  6  1  0
  1  7  1  0
  1  8  1  0
  2  3  1  0
  2  5  1  0
  3  4  3  0
  4  9  1  0
  5 10  1  0
 11 12  1  0
 11 13  1  0
 11 14  1  0
 11 15  1  0
 12 16  1  0
M  RAD  1   2   2
M  END
>  <reaction>  (15) 
rxn_1855

>  <mol_properties>  (15) 
{"1": {"label": "*1", "atom_type": "Cs"}, "4": {"label": "*0", "atom_type": "S2s"}, "10": {"label": "*3", "atom_type": "Cs"}, "11": {"label": "*4", "atom_type": "S2s"}, "12": {"label": "*2", "atom_type": "H0"}}

>  <type>  (15) 
unop_11

>  <geom_source>  (15) 
Heuristics

$$$$

     RDKit          3D

 16 14  0  0  0  0  0  0  0  0999 V2000
   -0.0695    1.6792   -0.7154 C   0  0  0  0  0  0  0  0  0  0  0  0
   -0.0695    0.6858    0.4456 C   0  0  0  0  0  3  0  0  0  0  0  0
   -1.2405    0.8450    1.2981 C   0  0  0  0  0  0  0  0  0  0  0  0
   -2.2100    1.0070    1.9820 C   0  0  0  0  0  0  0  0  0  0  0  0
    1.4800    0.7410    1.4213 S   0  0  0  0  0  0  0  0  0  0  0  0
   -0.0341    2.7026   -0.3407 H   0  0  0  0  0  0  0  0  0  0  0  0
    0.7980    1.5106   -1.3522 H   0  0  0  0  0  0  0  0  0  0  0  0
   -0.9783    1.5635   -1.3084 H   0  0  0  0  0  0  0  0  0  0  0  0
   -3.0711    1.1508    2.5893 H   0  0  0  0  0  0  0  0  0  0  0  0
    1.2919    1.9723    1.9149 H   0  0  0  0  0  0  0  0  0  0  0  0
   -0.0695   -1.7511   -0.5080 C   0  0  0  0  0  0  0  0  0  0  0  0
   -0.0695   -1.7511   -2.3186 S   0  0  0  0  0  0  0  0  0  0  0  0
   -0.0695   -0.5353   -0.0322 H   0  0  0  0  0  0  0  0  0  0  0  0
   -0.9902   -2.2453   -0.2020 H   0  0  0  0  0  0  0  0  0  0  0  0
    0.7749   -2.3111   -0.1115 H   0  0  0  0  0  0  0  0  0  0  0  0
    1.1008   -1.1230   -2.4850 H   0  0  0  0  0  0  0  0  0  0  0  0
  1  2  1  0
  1  6  1  0
  1  7  1  0
  1  8  1  0
  2  3  1  0
  2  5  1  0
  3  4  3  0
  4  9  1  0
  5 10  1  0
 11 12  1  0
 11 13  1  0
 11 14  1  0
 11 15  1  0
 12 16  1  0
M  RAD  1   2   2
M  END
>  <reaction>  (16) 
rxn_1855

>  <mol_properties>  (16) 
{"1": {"label": "*1", "atom_type": "Cs"}, "4": {"label": "*0", "atom_type": "S2s"}, "10": {"label": "*3", "atom_type": "Cs"}, "11": {"label": "*4", "atom_type": "S2s"}, "12": {"label": "*2", "atom_type": "H0"}}

>  <type>  (16) 
unop_12

>  <geom_source>  (16) 
Heuristics

$$$$

     RDKit          3D

 16 14  0  0  0  0  0  0  0  0999 V2000
   -1.1744   -0.7788    1.6962 S   0  0  0  0  0  0  0  0  0  0  0  0
    3.3018   -0.2872   -0.6355 S   0  0  0  0  0  0  0  0  0  0  0  0
   -0.7141   -0.0377    0.0991 C   0  0  0  0  0  3  0  0  0  0  0  0
   -1.4357   -0.7555   -1.0361 C   0  0  0  0  0  0  0  0  0  0  0  0
    1.7588   -0.8322    0.1479 C   0  0  0  0  0  0  0  0  0  0  0  0
   -1.0611    1.3888    0.1033 C   0  0  0  0  0  0  0  0  0  0  0  0
   -1.3446    2.5607    0.1065 C   0  0  0  0  0  0  0  0  0  0  0  0
    0.6291   -0.1661   -0.0780 H   0  0  0  0  0  0  0  0  0  0  0  0
   -2.5378   -0.6722   -0.9169 H   0  0  0  0  0  0  0  0  0  0  0  0
   -1.1540   -1.8296   -1.0388 H   0  0  0  0  0  0  0  0  0  0  0  0
   -1.1413   -0.3161   -2.0131 H   0  0  0  0  0  0  0  0  0  0  0  0
    1.4545   -1.8106   -0.2774 H   0  0  0  0  0  0  0  0  0  0  0  0
    1.9139   -0.9381    1.2415 H   0  0  0  0  0  0  0  0  0  0  0  0
   -0.2107   -0.0347    2.4039 H   0  0  0  0  0  0  0  0  0  0  0  0
    3.3093    0.9202    0.0879 H   0  0  0  0  0  0  0  0  0  0  0  0
   -1.5936    3.5892    0.1095 H   0  0  0  0  0  0  0  0  0  0  0  0
  1  3  1  0
  1 14  1  0
  2  5  1  0
  2 15  1  0
  3  4  1  0
  3  6  1  0
  4  9  1  0
  4 10  1  0
  4 11  1  0
  5  8  1  0
  5 12  1  0
  5 13  1  0
  6  7  3  0
  7 16  1  0
M  RAD  1   3   2
M  END
>  <reaction>  (17) 
rxn_1855

>  <mol_properties>  (17) 
{"1": {"label": "*1", "atom_type": "Cs"}, "4": {"label": "*0", "atom_type": "S2s"}, "10": {"label": "*3", "atom_type": "Cs"}, "11": {"label": "*4", "atom_type": "S2s"}, "12": {"label": "*2", "atom_type": "H0"}}

>  <type>  (17) 
unop_13

>  <geom_source>  (17) 
AutoTST

$$$$
