
     RDKit          3D

 16 15  0  0  0  0  0  0  0  0999 V2000
    1.7961   -0.3807    1.6176 C   0  0  0  0  0  0  0  0  0  0  0  0
    0.8562   -0.8708    0.8256 C   0  0  0  0  0  0  0  0  0  0  0  0
    0.0895   -0.0826   -0.2048 C   0  0  0  0  0  0  0  0  0  0  0  0
   -1.4061   -0.1111    0.0982 C   0  0  0  0  0  0  0  0  0  0  0  0
    0.4476   -0.5902   -1.5797 C   0  0  0  0  0  0  0  0  0  0  0  0
   -0.3793   -1.1113   -2.4728 C   0  0  0  0  0  0  0  0  0  0  0  0
    2.3110   -1.0032    2.3386 H   0  0  0  0  0  0  0  0  0  0  0  0
    2.0846    0.6643    1.5737 H   0  0  0  0  0  0  0  0  0  0  0  0
    0.5921   -1.9241    0.8925 H   0  0  0  0  0  0  0  0  0  0  0  0
    0.4358    0.9557   -0.1462 H   0  0  0  0  0  0  0  0  0  0  0  0
   -1.5968    0.3080    1.0865 H   0  0  0  0  0  0  0  0  0  0  0  0
   -1.9674    0.4693   -0.6359 H   0  0  0  0  0  0  0  0  0  0  0  0
   -1.7902   -1.1338    0.0883 H   0  0  0  0  0  0  0  0  0  0  0  0
    1.5049   -0.5197   -1.8214 H   0  0  0  0  0  0  0  0  0  0  0  0
   -1.4421   -1.2131   -2.2889 H   0  0  0  0  0  0  0  0  0  0  0  0
   -0.0162   -1.4558   -3.4328 H   0  0  0  0  0  0  0  0  0  0  0  0
  1  2  2  3
  1  7  1  0
  1  8  1  0
  2  3  1  0
  2  9  1  0
  3  4  1  0
  3  5  1  0
  3 10  1  0
  4 11  1  0
  4 12  1  0
  4 13  1  0
  5  6  2  3
  5 14  1  0
  6 15  1  0
  6 16  1  0
M  END
>  <reaction>  (1) 
rxn_1175

>  <mol_properties>  (1) 
{"2": {"label": "donator", "atom_type": "Cs"}, "9": {"label": "d_hydrogen", "atom_type": "H0"}}

>  <type>  (1) 
r1h

$$$$

     RDKit          3D

 11 10  0  0  0  0  0  0  0  0999 V2000
    2.0591    0.2533   -0.1061 C   0  0  0  0  0  0  0  0  0  0  0  0
    0.8045   -0.3111   -0.1535 C   0  0  0  0  0  0  0  0  0  0  0  0
   -0.3816    0.3942   -0.1885 C   0  0  0  0  0  3  0  0  0  0  0  0
   -1.7316   -0.2294   -0.2396 C   0  0  0  0  0  0  0  0  0  0  0  0
    2.9505   -0.3576   -0.0805 H   0  0  0  0  0  0  0  0  0  0  0  0
    2.1872    1.3290   -0.0933 H   0  0  0  0  0  0  0  0  0  0  0  0
    0.7385   -1.3970   -0.1643 H   0  0  0  0  0  0  0  0  0  0  0  0
   -0.3340    1.4795   -0.1783 H   0  0  0  0  0  0  0  0  0  0  0  0
   -1.6704   -1.3186   -0.2461 H   0  0  0  0  0  0  0  0  0  0  0  0
   -2.3404    0.0713    0.6191 H   0  0  0  0  0  0  0  0  0  0  0  0
   -2.2805    0.0851   -1.1331 H   0  0  0  0  0  0  0  0  0  0  0  0
  1  2  2  3
  1  5  1  0
  1  6  1  0
  2  3  1  0
  2  7  1  0
  3  4  1  0
  3  8  1  0
  4  9  1  0
  4 10  1  0
  4 11  1  0
M  RAD  1   3   2
M  END
>  <reaction>  (2) 
rxn_1175

>  <mol_properties>  (2) 
{"2": {"label": "acceptor", "atom_type": "Cs"}}

>  <type>  (2) 
r2

$$$$

     RDKit          3D

 12 11  0  0  0  0  0  0  0  0999 V2000
    1.9877    0.1011    0.4814 C   0  0  0  0  0  0  0  0  0  0  0  0
    0.8179    0.5502    0.0525 C   0  0  0  0  0  0  0  0  0  0  0  0
   -0.2939   -0.2692   -0.5320 C   0  0  0  0  0  0  0  0  0  0  0  0
   -0.0292   -1.7631   -0.6328 C   0  0  0  0  0  0  0  0  0  0  0  0
    2.2522   -0.9490    0.4436 H   0  0  0  0  0  0  0  0  0  0  0  0
    2.7295    0.7757    0.8896 H   0  0  0  0  0  0  0  0  0  0  0  0
    0.6162    1.6164    0.1190 H   0  0  0  0  0  0  0  0  0  0  0  0
   -0.5268    0.1319   -1.5245 H   0  0  0  0  0  0  0  0  0  0  0  0
   -1.1959   -0.0938    0.0644 H   0  0  0  0  0  0  0  0  0  0  0  0
    0.1590   -2.1992    0.3502 H   0  0  0  0  0  0  0  0  0  0  0  0
    0.8382   -1.9701   -1.2626 H   0  0  0  0  0  0  0  0  0  0  0  0
   -0.8879   -2.2759   -1.0672 H   0  0  0  0  0  0  0  0  0  0  0  0
  1  2  2  3
  1  5  1  0
  1  6  1  0
  2  3  1  0
  2  7  1  0
  3  4  1  0
  3  8  1  0
  3  9  1  0
  4 10  1  0
  4 11  1  0
  4 12  1  0
M  END
>  <reaction>  (3) 
rxn_1175

>  <mol_properties>  (3) 
{"0": {"label": "a_hydrogen", "atom_type": "H0"}, "3": {"label": "acceptor", "atom_type": "Cs"}}

>  <type>  (3) 
r2h

$$$$

     RDKit          3D

 27 25  0  0  0  0  0  0  0  0999 V2000
    0.8223   -2.7828   -1.4695 C   0  0  0  0  0  0  0  0  0  0  0  0
   -0.0971   -2.0669   -0.8261 C   0  0  0  0  0  0  0  0  0  0  0  0
    0.1383   -1.0453    0.2107 C   0  0  0  0  0  0  0  0  0  0  0  0
    1.5397   -0.9278    0.7605 C   0  0  0  0  0  0  0  0  0  0  0  0
   -0.9709   -0.8934    1.1663 C   0  0  0  0  0  0  0  0  0  0  0  0
   -0.8984   -0.4092    2.4057 C   0  0  0  0  0  0  0  0  0  0  0  0
    0.5360   -3.4887   -2.2381 H   0  0  0  0  0  0  0  0  0  0  0  0
    1.8794   -2.7052   -1.2480 H   0  0  0  0  0  0  0  0  0  0  0  0
   -1.1404   -2.2119   -1.0972 H   0  0  0  0  0  0  0  0  0  0  0  0
    0.0604    0.0681   -0.4654 H   0  0  0  0  0  0  0  0  0  0  0  0
    2.2712   -0.8782   -0.0471 H   0  0  0  0  0  0  0  0  0  0  0  0
    1.6473   -0.0177    1.3512 H   0  0  0  0  0  0  0  0  0  0  0  0
    1.7866   -1.7822    1.3956 H   0  0  0  0  0  0  0  0  0  0  0  0
   -1.9485   -1.1811    0.7868 H   0  0  0  0  0  0  0  0  0  0  0  0
    0.0369   -0.1030    2.8565 H   0  0  0  0  0  0  0  0  0  0  0  0
   -1.7882   -0.3122    3.0139 H   0  0  0  0  0  0  0  0  0  0  0  0
    0.1264    3.0198    0.6540 C   0  0  0  0  0  0  0  0  0  0  0  0
    0.6801    2.2210   -0.2716 C   0  0  0  0  0  0  0  0  0  0  0  0
   -0.0249    1.3017   -1.1330 C   0  0  0  0  0  3  0  0  0  0  0  0
   -1.5149    1.4064   -1.3008 C   0  0  0  0  0  0  0  0  0  0  0  0
    0.7388    3.6547    1.2804 H   0  0  0  0  0  0  0  0  0  0  0  0
   -0.9446    3.0659    0.8066 H   0  0  0  0  0  0  0  0  0  0  0  0
    1.7622    2.2241   -0.3681 H   0  0  0  0  0  0  0  0  0  0  0  0
    0.5198    1.0106   -2.0289 H   0  0  0  0  0  0  0  0  0  0  0  0
   -1.7948    2.3457   -1.7867 H   0  0  0  0  0  0  0  0  0  0  0  0
   -1.8922    0.5849   -1.9113 H   0  0  0  0  0  0  0  0  0  0  0  0
   -2.0252    1.3678   -0.3359 H   0  0  0  0  0  0  0  0  0  0  0  0
  1  2  2  3
  1  7  1  0
  1  8  1  0
  2  3  1  0
  2  9  1  0
  3  4  1  0
  3  5  1  0
  3 10  1  0
  4 11  1  0
  4 12  1  0
  4 13  1  0
  5  6  2  3
  5 14  1  0
  6 15  1  0
  6 16  1  0
 17 18  2  3
 17 21  1  0
 17 22  1  0
 18 19  1  0
 18 23  1  0
 19 20  1  0
 19 24  1  0
 20 25  1  0
 20 26  1  0
 20 27  1  0
M  RAD  1  19   2
M  END
>  <reaction>  (4) 
rxn_1175

>  <mol_properties>  (4) 
{"1": {"label": "*0", "atom_type": "Cd"}, "2": {"label": "*1", "atom_type": "Cs"}, "9": {"label": "*2", "atom_type": "H0"}, "17": {"label": "*4", "atom_type": "Cd"}, "18": {"label": "*3", "atom_type": "Cs"}}

>  <type>  (4) 
ts

$$$$

     RDKit          3D

 27 25  0  0  0  0  0  0  0  0999 V2000
    0.3214   -2.1377   -1.4489 C   0  0  0  0  0  0  0  0  0  0  0  0
    0.3214   -2.1377   -0.1257 C   0  0  0  0  0  0  0  0  0  0  0  0
    0.3214   -0.9069    0.7437 C   0  0  0  0  0  3  0  0  0  0  0  0
    1.5597   -0.8771    1.6353 C   0  0  0  0  0  0  0  0  0  0  0  0
   -0.9822   -0.8383    1.5002 C   0  0  0  0  0  0  0  0  0  0  0  0
   -1.1368   -0.8381    2.8151 C   0  0  0  0  0  0  0  0  0  0  0  0
    0.3206   -3.0603   -2.0157 H   0  0  0  0  0  0  0  0  0  0  0  0
    0.3231   -1.2119   -2.0147 H   0  0  0  0  0  0  0  0  0  0  0  0
    0.3166   -3.0835    0.4119 H   0  0  0  0  0  0  0  0  0  0  0  0
    0.3580    0.1374   -0.0551 H   0  0  0  0  0  0  0  0  0  0  0  0
    2.4625   -0.8855    1.0240 H   0  0  0  0  0  0  0  0  0  0  0  0
    1.5744    0.0186    2.2584 H   0  0  0  0  0  0  0  0  0  0  0  0
    1.5923   -1.7489    2.2929 H   0  0  0  0  0  0  0  0  0  0  0  0
   -1.8653   -0.8026    0.8677 H   0  0  0  0  0  0  0  0  0  0  0  0
   -0.2964   -0.8774    3.4977 H   0  0  0  0  0  0  0  0  0  0  0  0
   -2.1232   -0.7950    3.2594 H   0  0  0  0  0  0  0  0  0  0  0  0
   -1.3423    2.9285   -1.4009 C   0  0  0  0  0  0  0  0  0  0  0  0
   -0.8326    2.0052   -0.6000 C   0  0  0  0  0  0  0  0  0  0  0  0
    0.3945    1.1812   -0.8535 C   0  0  0  0  0  0  0  0  0  0  0  0
    1.1091    1.4501   -2.1685 C   0  0  0  0  0  0  0  0  0  0  0  0
   -2.2374    3.4728   -1.1276 H   0  0  0  0  0  0  0  0  0  0  0  0
   -0.8922    3.1782   -2.3544 H   0  0  0  0  0  0  0  0  0  0  0  0
   -1.3340    1.8034    0.3433 H   0  0  0  0  0  0  0  0  0  0  0  0
    1.0872    1.3363   -0.0190 H   0  0  0  0  0  0  0  0  0  0  0  0
    1.4446    2.4870   -2.2322 H   0  0  0  0  0  0  0  0  0  0  0  0
    1.9854    0.8085   -2.2666 H   0  0  0  0  0  0  0  0  0  0  0  0
    0.4554    1.2567   -3.0213 H   0  0  0  0  0  0  0  0  0  0  0  0
  1  2  2  3
  1  7  1  0
  1  8  1  0
  2  3  1  0
  2  9  1  0
  3  4  1  0
  3  5  1  0
  4 11  1  0
  4 12  1  0
  4 13  1  0
  5  6  2  3
  5 14  1  0
  6 15  1  0
  6 16  1  0
 10 19  1  0
 17 18  2  3
 17 21  1  0
 17 22  1  0
 18 19  1  0
 18 23  1  0
 19 20  1  0
 19 24  1  0
 20 25  1  0
 20 26  1  0
 20 27  1  0
M  RAD  1   3   2
M  END
>  <reaction>  (5) 
rxn_1175

>  <mol_properties>  (5) 
{"1": {"label": "*0", "atom_type": "Cd"}, "2": {"label": "*1", "atom_type": "Cs"}, "9": {"label": "*2", "atom_type": "H0"}, "17": {"label": "*4", "atom_type": "Cd"}, "18": {"label": "*3", "atom_type": "Cs"}}

>  <type>  (5) 
unop_1

>  <geom_source>  (5) 
Heuristics

$$$$

     RDKit          3D

 27 25  0  0  0  0  0  0  0  0999 V2000
    0.0739   -1.9107   -1.2284 C   0  0  0  0  0  0  0  0  0  0  0  0
    0.0739   -1.9107    0.0948 C   0  0  0  0  0  0  0  0  0  0  0  0
    0.0739   -0.6800    0.9642 C   0  0  0  0  0  3  0  0  0  0  0  0
    1.3123   -0.6502    1.8558 C   0  0  0  0  0  0  0  0  0  0  0  0
   -1.2296   -0.6114    1.7207 C   0  0  0  0  0  0  0  0  0  0  0  0
   -1.3842   -0.6111    3.0356 C   0  0  0  0  0  0  0  0  0  0  0  0
    0.0732   -2.8334   -1.7952 H   0  0  0  0  0  0  0  0  0  0  0  0
    0.0757   -0.9849   -1.7942 H   0  0  0  0  0  0  0  0  0  0  0  0
    0.0692   -2.8566    0.6324 H   0  0  0  0  0  0  0  0  0  0  0  0
    0.1105    0.3644    0.1654 H   0  0  0  0  0  0  0  0  0  0  0  0
    2.2151   -0.6585    1.2445 H   0  0  0  0  0  0  0  0  0  0  0  0
    1.3270    0.2456    2.4789 H   0  0  0  0  0  0  0  0  0  0  0  0
    1.3449   -1.5219    2.5134 H   0  0  0  0  0  0  0  0  0  0  0  0
   -2.1128   -0.5756    1.0882 H   0  0  0  0  0  0  0  0  0  0  0  0
   -0.5438   -0.6505    3.7182 H   0  0  0  0  0  0  0  0  0  0  0  0
   -2.3706   -0.5680    3.4799 H   0  0  0  0  0  0  0  0  0  0  0  0
   -0.1797    1.3994   -3.1355 C   0  0  0  0  0  0  0  0  0  0  0  0
   -0.5416    1.0400   -1.9133 C   0  0  0  0  0  0  0  0  0  0  0  0
    0.1471    1.4082   -0.6330 C   0  0  0  0  0  0  0  0  0  0  0  0
    1.3827    2.2825   -0.7769 C   0  0  0  0  0  0  0  0  0  0  0  0
   -0.7453    1.0809   -4.0020 H   0  0  0  0  0  0  0  0  0  0  0  0
    0.6882    2.0210   -3.3215 H   0  0  0  0  0  0  0  0  0  0  0  0
   -1.4234    0.4149   -1.7968 H   0  0  0  0  0  0  0  0  0  0  0  0
   -0.5828    1.9050    0.0155 H   0  0  0  0  0  0  0  0  0  0  0  0
    1.1411    3.2344   -1.2538 H   0  0  0  0  0  0  0  0  0  0  0  0
    1.8152    2.4985    0.2006 H   0  0  0  0  0  0  0  0  0  0  0  0
    2.1481    1.7905   -1.3803 H   0  0  0  0  0  0  0  0  0  0  0  0
  1  2  2  3
  1  7  1  0
  1  8  1  0
  2  3  1  0
  2  9  1  0
  3  4  1  0
  3  5  1  0
  4 11  1  0
  4 12  1  0
  4 13  1  0
  5  6  2  3
  5 14  1  0
  6 15  1  0
  6 16  1  0
 10 19  1  0
 17 18  2  3
 17 21  1  0
 17 22  1  0
 18 19  1  0
 18 23  1  0
 19 20  1  0
 19 24  1  0
 20 25  1  0
 20 26  1  0
 20 27  1  0
M  RAD  1   3   2
M  END
>  <reaction>  (6) 
rxn_1175

>  <mol_properties>  (6) 
{"1": {"label": "*0", "atom_type": "Cd"}, "2": {"label": "*1", "atom_type": "Cs"}, "9": {"label": "*2", "atom_type": "H0"}, "17": {"label": "*4", "atom_type": "Cd"}, "18": {"label": "*3", "atom_type": "Cs"}}

>  <type>  (6) 
unop_2

>  <geom_source>  (6) 
Heuristics

$$$$

     RDKit          3D

 27 25  0  0  0  0  0  0  0  0999 V2000
    0.3169   -2.1756   -1.5298 C   0  0  0  0  0  0  0  0  0  0  0  0
    0.3169   -2.1756   -0.2065 C   0  0  0  0  0  0  0  0  0  0  0  0
    0.3169   -0.9448    0.6629 C   0  0  0  0  0  3  0  0  0  0  0  0
    1.5553   -0.9151    1.5545 C   0  0  0  0  0  0  0  0  0  0  0  0
   -0.9866   -0.8763    1.4194 C   0  0  0  0  0  0  0  0  0  0  0  0
   -1.1412   -0.8760    2.7343 C   0  0  0  0  0  0  0  0  0  0  0  0
    0.3162   -3.0982   -2.0965 H   0  0  0  0  0  0  0  0  0  0  0  0
    0.3187   -1.2498   -2.0955 H   0  0  0  0  0  0  0  0  0  0  0  0
    0.3122   -3.1214    0.3311 H   0  0  0  0  0  0  0  0  0  0  0  0
    0.3535    0.0995   -0.1359 H   0  0  0  0  0  0  0  0  0  0  0  0
    2.4581   -0.9234    0.9432 H   0  0  0  0  0  0  0  0  0  0  0  0
    1.5700   -0.0193    2.1776 H   0  0  0  0  0  0  0  0  0  0  0  0
    1.5879   -1.7868    2.2121 H   0  0  0  0  0  0  0  0  0  0  0  0
   -1.8697   -0.8405    0.7869 H   0  0  0  0  0  0  0  0  0  0  0  0
   -0.3008   -0.9154    3.4169 H   0  0  0  0  0  0  0  0  0  0  0  0
   -2.1276   -0.8329    3.1786 H   0  0  0  0  0  0  0  0  0  0  0  0
   -0.9757    3.2636   -0.8437 C   0  0  0  0  0  0  0  0  0  0  0  0
   -0.3201    2.2755   -0.2541 C   0  0  0  0  0  0  0  0  0  0  0  0
    0.3901    1.1433   -0.9343 C   0  0  0  0  0  0  0  0  0  0  0  0
    0.3390    1.1511   -2.4540 C   0  0  0  0  0  0  0  0  0  0  0  0
   -1.4585    4.0389   -0.2625 H   0  0  0  0  0  0  0  0  0  0  0  0
   -1.0577    3.3400   -1.9215 H   0  0  0  0  0  0  0  0  0  0  0  0
   -0.2760    2.2584    0.8321 H   0  0  0  0  0  0  0  0  0  0  0  0
    1.4335    1.1461   -0.6004 H   0  0  0  0  0  0  0  0  0  0  0  0
    0.7926    2.0568   -2.8610 H   0  0  0  0  0  0  0  0  0  0  0  0
    0.8792    0.2951   -2.8599 H   0  0  0  0  0  0  0  0  0  0  0  0
   -0.6897    1.1000   -2.8160 H   0  0  0  0  0  0  0  0  0  0  0  0
  1  2  2  3
  1  7  1  0
  1  8  1  0
  2  3  1  0
  2  9  1  0
  3  4  1  0
  3  5  1  0
  4 11  1  0
  4 12  1  0
  4 13  1  0
  5  6  2  3
  5 14  1  0
  6 15  1  0
  6 16  1  0
 10 19  1  0
 17 18  2  3
 17 21  1  0
 17 22  1  0
 18 19  1  0
 18 23  1  0
 19 20  1  0
 19 24  1  0
 20 25  1  0
 20 26  1  0
 20 27  1  0
M  RAD  1   3   2
M  END
>  <reaction>  (7) 
rxn_1175

>  <mol_properties>  (7) 
{"1": {"label": "*0", "atom_type": "Cd"}, "2": {"label": "*1", "atom_type": "Cs"}, "9": {"label": "*2", "atom_type": "H0"}, "17": {"label": "*4", "atom_type": "Cd"}, "18": {"label": "*3", "atom_type": "Cs"}}

>  <type>  (7) 
unop_3

>  <geom_source>  (7) 
Heuristics

$$$$

     RDKit          3D

 27 25  0  0  0  0  0  0  0  0999 V2000
   -0.2730   -1.9751   -1.6333 C   0  0  0  0  0  0  0  0  0  0  0  0
   -0.2730   -1.9751   -0.3101 C   0  0  0  0  0  0  0  0  0  0  0  0
   -0.2730   -0.7443    0.5593 C   0  0  0  0  0  3  0  0  0  0  0  0
    0.9654   -0.7145    1.4509 C   0  0  0  0  0  0  0  0  0  0  0  0
   -1.5765   -0.6757    1.3158 C   0  0  0  0  0  0  0  0  0  0  0  0
   -1.7311   -0.6755    2.6307 C   0  0  0  0  0  0  0  0  0  0  0  0
   -0.2737   -2.8977   -2.2001 H   0  0  0  0  0  0  0  0  0  0  0  0
   -0.2712   -1.0493   -2.1991 H   0  0  0  0  0  0  0  0  0  0  0  0
   -0.2777   -2.9209    0.2275 H   0  0  0  0  0  0  0  0  0  0  0  0
   -0.2364    0.3001   -0.2395 H   0  0  0  0  0  0  0  0  0  0  0  0
    1.8682   -0.7229    0.8396 H   0  0  0  0  0  0  0  0  0  0  0  0
    0.9801    0.1813    2.0740 H   0  0  0  0  0  0  0  0  0  0  0  0
    0.9980   -1.5863    2.1085 H   0  0  0  0  0  0  0  0  0  0  0  0
   -2.4596   -0.6400    0.6833 H   0  0  0  0  0  0  0  0  0  0  0  0
   -0.8907   -0.7148    3.3133 H   0  0  0  0  0  0  0  0  0  0  0  0
   -2.7175   -0.6324    3.0750 H   0  0  0  0  0  0  0  0  0  0  0  0
    2.2280    1.7941   -1.5598 C   0  0  0  0  0  0  0  0  0  0  0  0
    1.0533    1.2600   -1.8576 C   0  0  0  0  0  0  0  0  0  0  0  0
   -0.1998    1.3438   -1.0379 C   0  0  0  0  0  0  0  0  0  0  0  0
   -0.0866    2.1255    0.2613 C   0  0  0  0  0  0  0  0  0  0  0  0
    3.0782    1.6775   -2.2199 H   0  0  0  0  0  0  0  0  0  0  0  0
    2.3896    2.3651   -0.6532 H   0  0  0  0  0  0  0  0  0  0  0  0
    0.9591    0.6986   -2.7838 H   0  0  0  0  0  0  0  0  0  0  0  0
   -0.9870    1.7794   -1.6631 H   0  0  0  0  0  0  0  0  0  0  0  0
    0.2020    3.1620    0.0762 H   0  0  0  0  0  0  0  0  0  0  0  0
   -1.0414    2.1333    0.7882 H   0  0  0  0  0  0  0  0  0  0  0  0
    0.6587    1.6840    0.9257 H   0  0  0  0  0  0  0  0  0  0  0  0
  1  2  2  3
  1  7  1  0
  1  8  1  0
  2  3  1  0
  2  9  1  0
  3  4  1  0
  3  5  1  0
  4 11  1  0
  4 12  1  0
  4 13  1  0
  5  6  2  3
  5 14  1  0
  6 15  1  0
  6 16  1  0
 10 19  1  0
 17 18  2  3
 17 21  1  0
 17 22  1  0
 18 19  1  0
 18 23  1  0
 19 20  1  0
 19 24  1  0
 20 25  1  0
 20 26  1  0
 20 27  1  0
M  RAD  1   3   2
M  END
>  <reaction>  (8) 
rxn_1175

>  <mol_properties>  (8) 
{"1": {"label": "*0", "atom_type": "Cd"}, "2": {"label": "*1", "atom_type": "Cs"}, "9": {"label": "*2", "atom_type": "H0"}, "17": {"label": "*4", "atom_type": "Cd"}, "18": {"label": "*3", "atom_type": "Cs"}}

>  <type>  (8) 
unop_4

>  <geom_source>  (8) 
Heuristics

$$$$

     RDKit          3D

 27 25  0  0  0  0  0  0  0  0999 V2000
    0.3185   -2.1850   -1.6693 C   0  0  0  0  0  0  0  0  0  0  0  0
    0.3185   -2.1850   -0.3461 C   0  0  0  0  0  0  0  0  0  0  0  0
    0.3185   -0.9542    0.5233 C   0  0  0  0  0  3  0  0  0  0  0  0
    1.5568   -0.9244    1.4149 C   0  0  0  0  0  0  0  0  0  0  0  0
   -0.9851   -0.8856    1.2799 C   0  0  0  0  0  0  0  0  0  0  0  0
   -1.1397   -0.8854    2.5948 C   0  0  0  0  0  0  0  0  0  0  0  0
    0.3177   -3.1076   -2.2360 H   0  0  0  0  0  0  0  0  0  0  0  0
    0.3202   -1.2592   -2.2350 H   0  0  0  0  0  0  0  0  0  0  0  0
    0.3137   -3.1308    0.1916 H   0  0  0  0  0  0  0  0  0  0  0  0
    0.3550    0.0901   -0.2755 H   0  0  0  0  0  0  0  0  0  0  0  0
    2.4596   -0.9328    0.8037 H   0  0  0  0  0  0  0  0  0  0  0  0
    1.5715   -0.0287    2.0381 H   0  0  0  0  0  0  0  0  0  0  0  0
    1.5894   -1.7962    2.0726 H   0  0  0  0  0  0  0  0  0  0  0  0
   -1.8682   -0.8499    0.6473 H   0  0  0  0  0  0  0  0  0  0  0  0
   -0.2993   -0.9247    3.2773 H   0  0  0  0  0  0  0  0  0  0  0  0
   -2.1261   -0.8423    3.0390 H   0  0  0  0  0  0  0  0  0  0  0  0
   -0.4781    3.3668   -0.2819 C   0  0  0  0  0  0  0  0  0  0  0  0
    0.3922    2.3703   -0.2250 C   0  0  0  0  0  0  0  0  0  0  0  0
    0.3916    1.1339   -1.0739 C   0  0  0  0  0  0  0  0  0  0  0  0
   -0.7301    1.0364   -2.0957 C   0  0  0  0  0  0  0  0  0  0  0  0
   -0.3928    4.2215    0.3772 H   0  0  0  0  0  0  0  0  0  0  0  0
   -1.3050    3.3720   -0.9822 H   0  0  0  0  0  0  0  0  0  0  0  0
    1.1991    2.4278    0.5013 H   0  0  0  0  0  0  0  0  0  0  0  0
    1.3600    1.0694   -1.5820 H   0  0  0  0  0  0  0  0  0  0  0  0
   -0.6949    1.8671   -2.8031 H   0  0  0  0  0  0  0  0  0  0  0  0
   -0.6508    0.1093   -2.6644 H   0  0  0  0  0  0  0  0  0  0  0  0
   -1.7088    1.0497   -1.6120 H   0  0  0  0  0  0  0  0  0  0  0  0
  1  2  2  3
  1  7  1  0
  1  8  1  0
  2  3  1  0
  2  9  1  0
  3  4  1  0
  3  5  1  0
  4 11  1  0
  4 12  1  0
  4 13  1  0
  5  6  2  3
  5 14  1  0
  6 15  1  0
  6 16  1  0
 10 19  1  0
 17 18  2  3
 17 21  1  0
 17 22  1  0
 18 19  1  0
 18 23  1  0
 19 20  1  0
 19 24  1  0
 20 25  1  0
 20 26  1  0
 20 27  1  0
M  RAD  1   3   2
M  END
>  <reaction>  (9) 
rxn_1175

>  <mol_properties>  (9) 
{"1": {"label": "*0", "atom_type": "Cd"}, "2": {"label": "*1", "atom_type": "Cs"}, "9": {"label": "*2", "atom_type": "H0"}, "17": {"label": "*4", "atom_type": "Cd"}, "18": {"label": "*3", "atom_type": "Cs"}}

>  <type>  (9) 
unop_5

>  <geom_source>  (9) 
Heuristics

$$$$

     RDKit          3D

 27 25  0  0  0  0  0  0  0  0999 V2000
   -0.1882   -2.0605   -1.7913 C   0  0  0  0  0  0  0  0  0  0  0  0
   -0.1882   -2.0605   -0.4680 C   0  0  0  0  0  0  0  0  0  0  0  0
   -0.1882   -0.8297    0.4014 C   0  0  0  0  0  3  0  0  0  0  0  0
    1.0502   -0.7999    1.2930 C   0  0  0  0  0  0  0  0  0  0  0  0
   -1.4917   -0.7611    1.1579 C   0  0  0  0  0  0  0  0  0  0  0  0
   -1.6464   -0.7609    2.4728 C   0  0  0  0  0  0  0  0  0  0  0  0
   -0.1890   -2.9831   -2.3580 H   0  0  0  0  0  0  0  0  0  0  0  0
   -0.1864   -1.1347   -2.3570 H   0  0  0  0  0  0  0  0  0  0  0  0
   -0.1930   -3.0063    0.0696 H   0  0  0  0  0  0  0  0  0  0  0  0
   -0.1516    0.2147   -0.3975 H   0  0  0  0  0  0  0  0  0  0  0  0
    1.9529   -0.8083    0.6817 H   0  0  0  0  0  0  0  0  0  0  0  0
    1.0648    0.0959    1.9161 H   0  0  0  0  0  0  0  0  0  0  0  0
    1.0827   -1.6717    1.9506 H   0  0  0  0  0  0  0  0  0  0  0  0
   -2.3749   -0.7254    0.5253 H   0  0  0  0  0  0  0  0  0  0  0  0
   -0.8060   -0.8002    3.1553 H   0  0  0  0  0  0  0  0  0  0  0  0
   -2.6328   -0.7178    2.9170 H   0  0  0  0  0  0  0  0  0  0  0  0
    2.0978    2.3559   -0.6778 C   0  0  0  0  0  0  0  0  0  0  0  0
    1.3228    1.6045   -1.4450 C   0  0  0  0  0  0  0  0  0  0  0  0
   -0.1150    1.2585   -1.1959 C   0  0  0  0  0  0  0  0  0  0  0  0
   -0.7231    1.8397    0.0707 C   0  0  0  0  0  0  0  0  0  0  0  0
    3.1291    2.5491   -0.9444 H   0  0  0  0  0  0  0  0  0  0  0  0
    1.7392    2.8060    0.2404 H   0  0  0  0  0  0  0  0  0  0  0  0
    1.7455    1.1829   -2.3535 H   0  0  0  0  0  0  0  0  0  0  0  0
   -0.6982    1.5796   -2.0659 H   0  0  0  0  0  0  0  0  0  0  0  0
   -0.6908    2.9309    0.0611 H   0  0  0  0  0  0  0  0  0  0  0  0
   -1.7661    1.5369    0.1689 H   0  0  0  0  0  0  0  0  0  0  0  0
   -0.1899    1.4968    0.9596 H   0  0  0  0  0  0  0  0  0  0  0  0
  1  2  2  3
  1  7  1  0
  1  8  1  0
  2  3  1  0
  2  9  1  0
  3  4  1  0
  3  5  1  0
  4 11  1  0
  4 12  1  0
  4 13  1  0
  5  6  2  3
  5 14  1  0
  6 15  1  0
  6 16  1  0
 10 19  1  0
 17 18  2  3
 17 21  1  0
 17 22  1  0
 18 19  1  0
 18 23  1  0
 19 20  1  0
 19 24  1  0
 20 25  1  0
 20 26  1  0
 20 27  1  0
M  RAD  1   3   2
M  END
>  <reaction>  (10) 
rxn_1175

>  <mol_properties>  (10) 
{"1": {"label": "*0", "atom_type": "Cd"}, "2": {"label": "*1", "atom_type": "Cs"}, "9": {"label": "*2", "atom_type": "H0"}, "17": {"label": "*4", "atom_type": "Cd"}, "18": {"label": "*3", "atom_type": "Cs"}}

>  <type>  (10) 
unop_6

>  <geom_source>  (10) 
Heuristics

$$$$

     RDKit          3D

 27 25  0  0  0  0  0  0  0  0999 V2000
   -0.0166   -2.1331   -1.8762 C   0  0  0  0  0  0  0  0  0  0  0  0
   -0.0166   -2.1331   -0.5530 C   0  0  0  0  0  0  0  0  0  0  0  0
   -0.0166   -0.9023    0.3165 C   0  0  0  0  0  3  0  0  0  0  0  0
    1.2218   -0.8725    1.2081 C   0  0  0  0  0  0  0  0  0  0  0  0
   -1.3201   -0.8337    1.0730 C   0  0  0  0  0  0  0  0  0  0  0  0
   -1.4747   -0.8335    2.3879 C   0  0  0  0  0  0  0  0  0  0  0  0
   -0.0173   -3.0557   -2.4429 H   0  0  0  0  0  0  0  0  0  0  0  0
   -0.0148   -1.2073   -2.4419 H   0  0  0  0  0  0  0  0  0  0  0  0
   -0.0213   -3.0789   -0.0153 H   0  0  0  0  0  0  0  0  0  0  0  0
    0.0200    0.1420   -0.4824 H   0  0  0  0  0  0  0  0  0  0  0  0
    2.1246   -0.8809    0.5968 H   0  0  0  0  0  0  0  0  0  0  0  0
    1.2365    0.0232    1.8312 H   0  0  0  0  0  0  0  0  0  0  0  0
    1.2544   -1.7443    1.8657 H   0  0  0  0  0  0  0  0  0  0  0  0
   -2.2033   -0.7980    0.4404 H   0  0  0  0  0  0  0  0  0  0  0  0
   -0.6344   -0.8728    3.0704 H   0  0  0  0  0  0  0  0  0  0  0  0
   -2.4611   -0.7904    2.8321 H   0  0  0  0  0  0  0  0  0  0  0  0
    1.4347    2.8852   -0.0229 C   0  0  0  0  0  0  0  0  0  0  0  0
    1.2973    1.9682   -0.9685 C   0  0  0  0  0  0  0  0  0  0  0  0
    0.0566    1.1858   -1.2808 C   0  0  0  0  0  0  0  0  0  0  0  0
   -1.1526    1.4929   -0.4117 C   0  0  0  0  0  0  0  0  0  0  0  0
    2.3765    3.3982    0.1253 H   0  0  0  0  0  0  0  0  0  0  0  0
    0.6207    3.1604    0.6373 H   0  0  0  0  0  0  0  0  0  0  0  0
    2.1545    1.7394   -1.5968 H   0  0  0  0  0  0  0  0  0  0  0  0
   -0.1945    1.3519   -2.3341 H   0  0  0  0  0  0  0  0  0  0  0  0
   -1.4475    2.5404   -0.4989 H   0  0  0  0  0  0  0  0  0  0  0  0
   -2.0041    0.8799   -0.7094 H   0  0  0  0  0  0  0  0  0  0  0  0
   -0.9458    1.2899    0.6409 H   0  0  0  0  0  0  0  0  0  0  0  0
  1  2  2  3
  1  7  1  0
  1  8  1  0
  2  3  1  0
  2  9  1  0
  3  4  1  0
  3  5  1  0
  4 11  1  0
  4 12  1  0
  4 13  1  0
  5  6  2  3
  5 14  1  0
  6 15  1  0
  6 16  1  0
 10 19  1  0
 17 18  2  3
 17 21  1  0
 17 22  1  0
 18 19  1  0
 18 23  1  0
 19 20  1  0
 19 24  1  0
 20 25  1  0
 20 26  1  0
 20 27  1  0
M  RAD  1   3   2
M  END
>  <reaction>  (11) 
rxn_1175

>  <mol_properties>  (11) 
{"1": {"label": "*0", "atom_type": "Cd"}, "2": {"label": "*1", "atom_type": "Cs"}, "9": {"label": "*2", "atom_type": "H0"}, "17": {"label": "*4", "atom_type": "Cd"}, "18": {"label": "*3", "atom_type": "Cs"}}

>  <type>  (11) 
unop_7

>  <geom_source>  (11) 
Heuristics

$$$$

     RDKit          3D

 27 25  0  0  0  0  0  0  0  0999 V2000
    0.3108   -2.0677   -1.3574 C   0  0  0  0  0  0  0  0  0  0  0  0
    0.3108   -2.0677   -0.0341 C   0  0  0  0  0  0  0  0  0  0  0  0
    0.3108   -0.8370    0.8353 C   0  0  0  0  0  3  0  0  0  0  0  0
    1.5492   -0.8072    1.7269 C   0  0  0  0  0  0  0  0  0  0  0  0
   -0.9927   -0.7684    1.5918 C   0  0  0  0  0  0  0  0  0  0  0  0
   -1.1473   -0.7682    2.9067 C   0  0  0  0  0  0  0  0  0  0  0  0
    0.3101   -2.9904   -1.9241 H   0  0  0  0  0  0  0  0  0  0  0  0
    0.3126   -1.1420   -1.9231 H   0  0  0  0  0  0  0  0  0  0  0  0
    0.3061   -3.0136    0.5035 H   0  0  0  0  0  0  0  0  0  0  0  0
    0.3474    0.2074    0.0365 H   0  0  0  0  0  0  0  0  0  0  0  0
    2.4520   -0.8156    1.1156 H   0  0  0  0  0  0  0  0  0  0  0  0
    1.5639    0.0886    2.3500 H   0  0  0  0  0  0  0  0  0  0  0  0
    1.5818   -1.6790    2.3845 H   0  0  0  0  0  0  0  0  0  0  0  0
   -1.8759   -0.7327    0.9593 H   0  0  0  0  0  0  0  0  0  0  0  0
   -0.3069   -0.8075    3.5893 H   0  0  0  0  0  0  0  0  0  0  0  0
   -2.1337   -0.7251    3.3509 H   0  0  0  0  0  0  0  0  0  0  0  0
   -1.4267    2.4118   -2.0825 C   0  0  0  0  0  0  0  0  0  0  0  0
   -1.0279    1.6452   -1.0789 C   0  0  0  0  0  0  0  0  0  0  0  0
    0.3840    1.2512   -0.7620 C   0  0  0  0  0  0  0  0  0  0  0  0
    1.4477    1.7984   -1.7005 C   0  0  0  0  0  0  0  0  0  0  0  0
   -2.4747    2.6404   -2.2287 H   0  0  0  0  0  0  0  0  0  0  0  0
   -0.7306    2.8398   -2.7942 H   0  0  0  0  0  0  0  0  0  0  0  0
   -1.7786    1.2475   -0.4006 H   0  0  0  0  0  0  0  0  0  0  0  0
    0.6023    1.5637    0.2651 H   0  0  0  0  0  0  0  0  0  0  0  0
    1.4507    2.8902   -1.7023 H   0  0  0  0  0  0  0  0  0  0  0  0
    2.4388    1.4619   -1.3943 H   0  0  0  0  0  0  0  0  0  0  0  0
    1.2821    1.4624   -2.7260 H   0  0  0  0  0  0  0  0  0  0  0  0
  1  2  2  3
  1  7  1  0
  1  8  1  0
  2  3  1  0
  2  9  1  0
  3  4  1  0
  3  5  1  0
  4 11  1  0
  4 12  1  0
  4 13  1  0
  5  6  2  3
  5 14  1  0
  6 15  1  0
  6 16  1  0
 10 19  1  0
 17 18  2  3
 17 21  1  0
 17 22  1  0
 18 19  1  0
 18 23  1  0
 19 20  1  0
 19 24  1  0
 20 25  1  0
 20 26  1  0
 20 27  1  0
M  RAD  1   3   2
M  END
>  <reaction>  (12) 
rxn_1175

>  <mol_properties>  (12) 
{"1": {"label": "*0", "atom_type": "Cd"}, "2": {"label": "*1", "atom_type": "Cs"}, "9": {"label": "*2", "atom_type": "H0"}, "17": {"label": "*4", "atom_type": "Cd"}, "18": {"label": "*3", "atom_type": "Cs"}}

>  <type>  (12) 
unop_8

>  <geom_source>  (12) 
Heuristics

$$$$

     RDKit          3D

 27 25  0  0  0  0  0  0  0  0999 V2000
   -0.2486   -1.9059   -1.4473 C   0  0  0  0  0  0  0  0  0  0  0  0
   -0.2486   -1.9059   -0.1241 C   0  0  0  0  0  0  0  0  0  0  0  0
   -0.2486   -0.6751    0.7453 C   0  0  0  0  0  3  0  0  0  0  0  0
    0.9897   -0.6453    1.6369 C   0  0  0  0  0  0  0  0  0  0  0  0
   -1.5522   -0.6065    1.5018 C   0  0  0  0  0  0  0  0  0  0  0  0
   -1.7068   -0.6063    2.8167 C   0  0  0  0  0  0  0  0  0  0  0  0
   -0.2494   -2.8285   -2.0141 H   0  0  0  0  0  0  0  0  0  0  0  0
   -0.2469   -0.9801   -2.0131 H   0  0  0  0  0  0  0  0  0  0  0  0
   -0.2534   -2.8517    0.4135 H   0  0  0  0  0  0  0  0  0  0  0  0
   -0.2120    0.3693   -0.0535 H   0  0  0  0  0  0  0  0  0  0  0  0
    1.8925   -0.6537    1.0256 H   0  0  0  0  0  0  0  0  0  0  0  0
    1.0044    0.2505    2.2600 H   0  0  0  0  0  0  0  0  0  0  0  0
    1.0223   -1.5171    2.2945 H   0  0  0  0  0  0  0  0  0  0  0  0
   -2.4353   -0.5708    0.8693 H   0  0  0  0  0  0  0  0  0  0  0  0
   -0.8664   -0.6456    3.4993 H   0  0  0  0  0  0  0  0  0  0  0  0
   -2.6932   -0.5632    3.2610 H   0  0  0  0  0  0  0  0  0  0  0  0
    1.7956    1.3679   -2.4275 C   0  0  0  0  0  0  0  0  0  0  0  0
    0.5607    1.0209   -2.0983 C   0  0  0  0  0  0  0  0  0  0  0  0
   -0.1755    1.4131   -0.8519 C   0  0  0  0  0  0  0  0  0  0  0  0
    0.5929    2.2981    0.1166 C   0  0  0  0  0  0  0  0  0  0  0  0
    2.2419    1.0321   -3.3549 H   0  0  0  0  0  0  0  0  0  0  0  0
    2.4080    1.9959   -1.7912 H   0  0  0  0  0  0  0  0  0  0  0  0
    0.0004    0.3883   -2.7823 H   0  0  0  0  0  0  0  0  0  0  0  0
   -1.1054    1.9108   -1.1481 H   0  0  0  0  0  0  0  0  0  0  0  0
    0.8813    3.2411   -0.3519 H   0  0  0  0  0  0  0  0  0  0  0  0
   -0.0178    2.5315    0.9894 H   0  0  0  0  0  0  0  0  0  0  0  0
    1.5026    1.8062    0.4665 H   0  0  0  0  0  0  0  0  0  0  0  0
  1  2  2  3
  1  7  1  0
  1  8  1  0
  2  3  1  0
  2  9  1  0
  3  4  1  0
  3  5  1  0
  4 11  1  0
  4 12  1  0
  4 13  1  0
  5  6  2  3
  5 14  1  0
  6 15  1  0
  6 16  1  0
 10 19  1  0
 17 18  2  3
 17 21  1  0
 17 22  1  0
 18 19  1  0
 18 23  1  0
 19 20  1  0
 19 24  1  0
 20 25  1  0
 20 26  1  0
 20 27  1  0
M  RAD  1   3   2
M  END
>  <reaction>  (13) 
rxn_1175

>  <mol_properties>  (13) 
{"1": {"label": "*0", "atom_type": "Cd"}, "2": {"label": "*1", "atom_type": "Cs"}, "9": {"label": "*2", "atom_type": "H0"}, "17": {"label": "*4", "atom_type": "Cd"}, "18": {"label": "*3", "atom_type": "Cs"}}

>  <type>  (13) 
unop_9

>  <geom_source>  (13) 
Heuristics

$$$$

     RDKit          3D

 27 25  0  0  0  0  0  0  0  0999 V2000
    0.2322   -1.9826   -1.2669 C   0  0  0  0  0  0  0  0  0  0  0  0
    0.2322   -1.9826    0.0563 C   0  0  0  0  0  0  0  0  0  0  0  0
    0.2322   -0.7519    0.9257 C   0  0  0  0  0  3  0  0  0  0  0  0
    1.4705   -0.7221    1.8173 C   0  0  0  0  0  0  0  0  0  0  0  0
   -1.0713   -0.6833    1.6822 C   0  0  0  0  0  0  0  0  0  0  0  0
   -1.2260   -0.6830    2.9972 C   0  0  0  0  0  0  0  0  0  0  0  0
    0.2314   -2.9053   -1.8336 H   0  0  0  0  0  0  0  0  0  0  0  0
    0.2339   -1.0569   -1.8326 H   0  0  0  0  0  0  0  0  0  0  0  0
    0.2274   -2.9285    0.5940 H   0  0  0  0  0  0  0  0  0  0  0  0
    0.2688    0.2925    0.1269 H   0  0  0  0  0  0  0  0  0  0  0  0
    2.3733   -0.7304    1.2061 H   0  0  0  0  0  0  0  0  0  0  0  0
    1.4852    0.1737    2.4404 H   0  0  0  0  0  0  0  0  0  0  0  0
    1.5031   -1.5938    2.4750 H   0  0  0  0  0  0  0  0  0  0  0  0
   -1.9545   -0.6476    1.0497 H   0  0  0  0  0  0  0  0  0  0  0  0
   -0.3856   -0.7224    3.6797 H   0  0  0  0  0  0  0  0  0  0  0  0
   -2.2124   -0.6399    3.4414 H   0  0  0  0  0  0  0  0  0  0  0  0
   -1.0372    1.8462   -2.7468 C   0  0  0  0  0  0  0  0  0  0  0  0
   -0.9094    1.2940   -1.5499 C   0  0  0  0  0  0  0  0  0  0  0  0
    0.3054    1.3363   -0.6715 C   0  0  0  0  0  0  0  0  0  0  0  0
    1.4980    2.0949   -1.2319 C   0  0  0  0  0  0  0  0  0  0  0  0
   -1.9600    1.7597   -3.3064 H   0  0  0  0  0  0  0  0  0  0  0  0
   -0.2338    2.4027   -3.2147 H   0  0  0  0  0  0  0  0  0  0  0  0
   -1.7549    0.7487   -1.1379 H   0  0  0  0  0  0  0  0  0  0  0  0
    0.0137    1.7676    0.2924 H   0  0  0  0  0  0  0  0  0  0  0  0
    1.2484    3.1404   -1.4226 H   0  0  0  0  0  0  0  0  0  0  0  0
    2.3310    2.0729   -0.5284 H   0  0  0  0  0  0  0  0  0  0  0  0
    1.8411    1.6559   -2.1707 H   0  0  0  0  0  0  0  0  0  0  0  0
  1  2  2  3
  1  7  1  0
  1  8  1  0
  2  3  1  0
  2  9  1  0
  3  4  1  0
  3  5  1  0
  4 11  1  0
  4 12  1  0
  4 13  1  0
  5  6  2  3
  5 14  1  0
  6 15  1  0
  6 16  1  0
 10 19  1  0
 17 18  2  3
 17 21  1  0
 17 22  1  0
 18 19  1  0
 18 23  1  0
 19 20  1  0
 19 24  1  0
 20 25  1  0
 20 26  1  0
 20 27  1  0
M  RAD  1   3   2
M  END
>  <reaction>  (14) 
rxn_1175

>  <mol_properties>  (14) 
{"1": {"label": "*0", "atom_type": "Cd"}, "2": {"label": "*1", "atom_type": "Cs"}, "9": {"label": "*2", "atom_type": "H0"}, "17": {"label": "*4", "atom_type": "Cd"}, "18": {"label": "*3", "atom_type": "Cs"}}

>  <type>  (14) 
unop_10

>  <geom_source>  (14) 
Heuristics

$$$$

     RDKit          3D

 27 25  0  0  0  0  0  0  0  0999 V2000
    0.1923   -2.1743   -1.8396 C   0  0  0  0  0  0  0  0  0  0  0  0
    0.1923   -2.1743   -0.5164 C   0  0  0  0  0  0  0  0  0  0  0  0
    0.1923   -0.9435    0.3531 C   0  0  0  0  0  3  0  0  0  0  0  0
    1.4307   -0.9138    1.2447 C   0  0  0  0  0  0  0  0  0  0  0  0
   -1.1112   -0.8750    1.1096 C   0  0  0  0  0  0  0  0  0  0  0  0
   -1.2658   -0.8747    2.4245 C   0  0  0  0  0  0  0  0  0  0  0  0
    0.1916   -3.0969   -2.4063 H   0  0  0  0  0  0  0  0  0  0  0  0
    0.1941   -1.2485   -2.4053 H   0  0  0  0  0  0  0  0  0  0  0  0
    0.1876   -3.1201    0.0213 H   0  0  0  0  0  0  0  0  0  0  0  0
    0.2289    0.1008   -0.4458 H   0  0  0  0  0  0  0  0  0  0  0  0
    2.3335   -0.9221    0.6334 H   0  0  0  0  0  0  0  0  0  0  0  0
    1.4454   -0.0180    1.8678 H   0  0  0  0  0  0  0  0  0  0  0  0
    1.4633   -1.7855    1.9023 H   0  0  0  0  0  0  0  0  0  0  0  0
   -1.9944   -0.8392    0.4770 H   0  0  0  0  0  0  0  0  0  0  0  0
   -0.4254   -0.9141    3.1070 H   0  0  0  0  0  0  0  0  0  0  0  0
   -2.2522   -0.8316    2.8687 H   0  0  0  0  0  0  0  0  0  0  0  0
    0.4215    3.2426    0.1499 C   0  0  0  0  0  0  0  0  0  0  0  0
    0.9802    2.2529   -0.5300 C   0  0  0  0  0  0  0  0  0  0  0  0
    0.2655    1.1446   -1.2442 C   0  0  0  0  0  0  0  0  0  0  0  0
   -1.2525    1.1813   -1.1664 C   0  0  0  0  0  0  0  0  0  0  0  0
    1.0262    3.9993    0.6335 H   0  0  0  0  0  0  0  0  0  0  0  0
   -0.6530    3.3388    0.2518 H   0  0  0  0  0  0  0  0  0  0  0  0
    2.0648    2.2152   -0.5932 H   0  0  0  0  0  0  0  0  0  0  0  0
    0.5814    1.1561   -2.2931 H   0  0  0  0  0  0  0  0  0  0  0  0
   -1.6493    2.1013   -1.5999 H   0  0  0  0  0  0  0  0  0  0  0  0
   -1.6846    0.3414   -1.7115 H   0  0  0  0  0  0  0  0  0  0  0  0
   -1.5978    1.1224   -0.1323 H   0  0  0  0  0  0  0  0  0  0  0  0
  1  2  2  3
  1  7  1  0
  1  8  1  0
  2  3  1  0
  2  9  1  0
  3  4  1  0
  3  5  1  0
  4 11  1  0
  4 12  1  0
  4 13  1  0
  5  6  2  3
  5 14  1  0
  6 15  1  0
  6 16  1  0
 10 19  1  0
 17 18  2  3
 17 21  1  0
 17 22  1  0
 18 19  1  0
 18 23  1  0
 19 20  1  0
 19 24  1  0
 20 25  1  0
 20 26  1  0
 20 27  1  0
M  RAD  1   3   2
M  END
>  <reaction>  (15) 
rxn_1175

>  <mol_properties>  (15) 
{"1": {"label": "*0", "atom_type": "Cd"}, "2": {"label": "*1", "atom_type": "Cs"}, "9": {"label": "*2", "atom_type": "H0"}, "17": {"label": "*4", "atom_type": "Cd"}, "18": {"label": "*3", "atom_type": "Cs"}}

>  <type>  (15) 
unop_11

>  <geom_source>  (15) 
Heuristics

$$$$

     RDKit          3D

 27 25  0  0  0  0  0  0  0  0999 V2000
   -0.1157   -1.8806   -1.2913 C   0  0  0  0  0  0  0  0  0  0  0  0
   -0.1157   -1.8806    0.0320 C   0  0  0  0  0  0  0  0  0  0  0  0
   -0.1157   -0.6498    0.9014 C   0  0  0  0  0  3  0  0  0  0  0  0
    1.1227   -0.6200    1.7930 C   0  0  0  0  0  0  0  0  0  0  0  0
   -1.4192   -0.5813    1.6579 C   0  0  0  0  0  0  0  0  0  0  0  0
   -1.5738   -0.5810    2.9728 C   0  0  0  0  0  0  0  0  0  0  0  0
   -0.1164   -2.8032   -1.8580 H   0  0  0  0  0  0  0  0  0  0  0  0
   -0.1139   -0.9548   -1.8570 H   0  0  0  0  0  0  0  0  0  0  0  0
   -0.1205   -2.8264    0.5696 H   0  0  0  0  0  0  0  0  0  0  0  0
   -0.0791    0.3945    0.1025 H   0  0  0  0  0  0  0  0  0  0  0  0
    2.0254   -0.6284    1.1817 H   0  0  0  0  0  0  0  0  0  0  0  0
    1.1373    0.2757    2.4161 H   0  0  0  0  0  0  0  0  0  0  0  0
    1.1552   -1.4918    2.4506 H   0  0  0  0  0  0  0  0  0  0  0  0
   -2.3024   -0.5455    1.0253 H   0  0  0  0  0  0  0  0  0  0  0  0
   -0.7335   -0.6203    3.6553 H   0  0  0  0  0  0  0  0  0  0  0  0
   -2.5602   -0.5379    3.4170 H   0  0  0  0  0  0  0  0  0  0  0  0
    0.8978    1.2184   -3.0276 C   0  0  0  0  0  0  0  0  0  0  0  0
   -0.0172    0.9421   -2.1109 C   0  0  0  0  0  0  0  0  0  0  0  0
   -0.0425    1.4383   -0.6959 C   0  0  0  0  0  0  0  0  0  0  0  0
    1.1077    2.3487   -0.2958 C   0  0  0  0  0  0  0  0  0  0  0  0
    0.8280    0.8095   -4.0276 H   0  0  0  0  0  0  0  0  0  0  0  0
    1.7473    1.8586   -2.8210 H   0  0  0  0  0  0  0  0  0  0  0  0
   -0.8448    0.2923   -2.3842 H   0  0  0  0  0  0  0  0  0  0  0  0
   -0.9951    1.9543   -0.5330 H   0  0  0  0  0  0  0  0  0  0  0  0
    1.1332    3.2492   -0.9126 H   0  0  0  0  0  0  0  0  0  0  0  0
    1.0068    2.6589    0.7448 H   0  0  0  0  0  0  0  0  0  0  0  0
    2.0691    1.8425   -0.4025 H   0  0  0  0  0  0  0  0  0  0  0  0
  1  2  2  3
  1  7  1  0
  1  8  1  0
  2  3  1  0
  2  9  1  0
  3  4  1  0
  3  5  1  0
  4 11  1  0
  4 12  1  0
  4 13  1  0
  5  6  2  3
  5 14  1  0
  6 15  1  0
  6 16  1  0
 10 19  1  0
 17 18  2  3
 17 21  1  0
 17 22  1  0
 18 19  1  0
 18 23  1  0
 19 20  1  0
 19 24  1  0
 20 25  1  0
 20 26  1  0
 20 27  1  0
M  RAD  1   3   2
M  END
>  <reaction>  (16) 
rxn_1175

>  <mol_properties>  (16) 
{"1": {"label": "*0", "atom_type": "Cd"}, "2": {"label": "*1", "atom_type": "Cs"}, "9": {"label": "*2", "atom_type": "H0"}, "17": {"label": "*4", "atom_type": "Cd"}, "18": {"label": "*3", "atom_type": "Cs"}}

>  <type>  (16) 
unop_12

>  <geom_source>  (16) 
Heuristics

$$$$

     RDKit          3D

 27 25  0  0  0  0  0  0  0  0999 V2000
    1.6510   -0.2332   -0.6821 C   0  0  0  0  0  3  0  0  0  0  0  0
    2.0734   -1.6946   -0.7746 C   0  0  0  0  0  0  0  0  0  0  0  0
   -1.5622   -1.6153   -0.0015 C   0  0  0  0  0  0  0  0  0  0  0  0
   -0.9253   -0.2357   -0.1825 C   0  0  0  0  0  0  0  0  0  0  0  0
    2.5987    0.5584    0.1746 C   0  0  0  0  0  0  0  0  0  0  0  0
   -1.6663    0.6707   -1.1312 C   0  0  0  0  0  0  0  0  0  0  0  0
   -0.5347    0.4417    1.1057 C   0  0  0  0  0  0  0  0  0  0  0  0
    2.3843    1.8545    0.4088 C   0  0  0  0  0  0  0  0  0  0  0  0
   -2.9493    1.0084   -0.9628 C   0  0  0  0  0  0  0  0  0  0  0  0
   -1.4060    0.6961    2.0878 C   0  0  0  0  0  0  0  0  0  0  0  0
    1.6228    0.2036   -1.7039 H   0  0  0  0  0  0  0  0  0  0  0  0
    0.3772   -0.1681   -0.1343 H   0  0  0  0  0  0  0  0  0  0  0  0
    3.0837   -1.7771   -1.2296 H   0  0  0  0  0  0  0  0  0  0  0  0
    2.0842   -2.1547    0.2364 H   0  0  0  0  0  0  0  0  0  0  0  0
    1.3496   -2.2481   -1.4085 H   0  0  0  0  0  0  0  0  0  0  0  0
   -1.7027   -2.0956   -0.9926 H   0  0  0  0  0  0  0  0  0  0  0  0
   -2.5471   -1.5387    0.5046 H   0  0  0  0  0  0  0  0  0  0  0  0
   -0.8933   -2.2594    0.6072 H   0  0  0  0  0  0  0  0  0  0  0  0
    3.4685    0.0803    0.6178 H   0  0  0  0  0  0  0  0  0  0  0  0
   -1.1229    1.0756   -1.9787 H   0  0  0  0  0  0  0  0  0  0  0  0
    0.4994    0.7473    1.2279 H   0  0  0  0  0  0  0  0  0  0  0  0
    3.0739    2.4157    1.0310 H   0  0  0  0  0  0  0  0  0  0  0  0
    1.5240    2.3636   -0.0158 H   0  0  0  0  0  0  0  0  0  0  0  0
   -3.4311    1.6724   -1.6729 H   0  0  0  0  0  0  0  0  0  0  0  0
   -3.5298    0.6281   -0.1297 H   0  0  0  0  0  0  0  0  0  0  0  0
   -1.0714    1.1949    2.9915 H   0  0  0  0  0  0  0  0  0  0  0  0
   -2.4486    0.4093    2.0075 H   0  0  0  0  0  0  0  0  0  0  0  0
  1  2  1  0
  1  5  1  0
  1 11  1  0
  2 13  1  0
  2 14  1  0
  2 15  1  0
  3  4  1  0
  3 16  1  0
  3 17  1  0
  3 18  1  0
  4  6  1  0
  4  7  1  0
  4 12  1  0
  5  8  2  3
  5 19  1  0
  6  9  2  3
  6 20  1  0
  7 10  2  3
  7 21  1  0
  8 22  1  0
  8 23  1  0
  9 24  1  0
  9 25  1  0
 10 26  1  0
 10 27  1  0
M  RAD  1   1   2
M  END
>  <reaction>  (17) 
rxn_1175

>  <mol_properties>  (17) 
{"1": {"label": "*0", "atom_type": "Cd"}, "2": {"label": "*1", "atom_type": "Cs"}, "9": {"label": "*2", "atom_type": "H0"}, "17": {"label": "*4", "atom_type": "Cd"}, "18": {"label": "*3", "atom_type": "Cs"}}

>  <type>  (17) 
unop_13

>  <geom_source>  (17) 
AutoTST

$$$$
