
     RDKit          3D

  8  7  0  0  0  0  0  0  0  0999 V2000
    0.7610    0.0250    0.0051 C   0  0  0  0  0  0  0  0  0  0  0  0
   -0.7610   -0.0250   -0.0051 C   0  0  0  0  0  0  0  0  0  0  0  0
    1.1904   -0.9237   -0.3217 H   0  0  0  0  0  0  0  0  0  0  0  0
    1.1359    0.8041   -0.6609 H   0  0  0  0  0  0  0  0  0  0  0  0
    1.1435    0.2336    1.0058 H   0  0  0  0  0  0  0  0  0  0  0  0
   -1.1435   -0.2336   -1.0058 H   0  0  0  0  0  0  0  0  0  0  0  0
   -1.1904    0.9237    0.3216 H   0  0  0  0  0  0  0  0  0  0  0  0
   -1.1359   -0.8041    0.6609 H   0  0  0  0  0  0  0  0  0  0  0  0
  1  2  1  0
  1  3  1  0
  1  4  1  0
  1  5  1  0
  2  6  1  0
  2  7  1  0
  2  8  1  0
M  END
>  <reaction>  (1) 
rxn_129

>  <mol_properties>  (1) 
{"1": {"label": "donator", "atom_type": "Cs"}, "5": {"label": "d_hydrogen", "atom_type": "H0"}}

>  <type>  (1) 
r1h

$$$$

     RDKit          3D

  2  1  0  0  0  0  0  0  0  0999 V2000
    0.0000    0.0000    0.5193 N   0  0  0  0  0  1  0  0  0  0  0  0
    0.0000    0.0000   -0.5193 H   0  0  0  0  0  0  0  0  0  0  0  0
  1  2  1  0
M  RAD  1   1   3
M  END
>  <reaction>  (2) 
rxn_129

>  <mol_properties>  (2) 
{"0": {"label": "acceptor", "atom_type": "N3s"}}

>  <type>  (2) 
r2

$$$$

     RDKit          3D

  3  2  0  0  0  0  0  0  0  0999 V2000
    0.0002    0.4233    0.0000 N   0  0  0  0  0  2  0  0  0  0  0  0
   -0.8051   -0.2112    0.0000 H   0  0  0  0  0  0  0  0  0  0  0  0
    0.8049   -0.2121    0.0000 H   0  0  0  0  0  0  0  0  0  0  0  0
  1  2  1  0
  1  3  1  0
M  RAD  1   1   2
M  END
>  <reaction>  (3) 
rxn_129

>  <mol_properties>  (3) 
{"0": {"label": "acceptor", "atom_type": "N3s"}, "2": {"label": "a_hydrogen", "atom_type": "H0"}}

>  <type>  (3) 
r2h

$$$$

     RDKit          3D

 10  8  0  0  0  0  0  0  0  0999 V2000
    0.0380    1.8045    0.5694 N   0  0  0  0  0  2  0  0  0  0  0  0
   -0.1279    1.7811    1.5883 H   0  0  0  0  0  0  0  0  0  0  0  0
    0.1182   -0.9183   -1.3683 C   0  0  0  0  0  0  0  0  0  0  0  0
   -0.1054   -0.7510    0.1073 C   0  0  0  0  0  3  0  0  0  0  0  0
   -0.6407   -0.3902   -1.9471 H   0  0  0  0  0  0  0  0  0  0  0  0
    1.0961   -0.5383   -1.6671 H   0  0  0  0  0  0  0  0  0  0  0  0
    0.0741   -1.9750   -1.6531 H   0  0  0  0  0  0  0  0  0  0  0  0
   -0.0248    0.6015    0.3228 H   0  0  0  0  0  0  0  0  0  0  0  0
    0.6748   -1.1530    0.7507 H   0  0  0  0  0  0  0  0  0  0  0  0
   -1.1024   -1.0015    0.4641 H   0  0  0  0  0  0  0  0  0  0  0  0
  1  2  1  0
  1  8  1  0
  3  4  1  0
  3  5  1  0
  3  6  1  0
  3  7  1  0
  4  9  1  0
  4 10  1  0
M  RAD  2   1   2   4   2
M  END
>  <reaction>  (4) 
rxn_129

>  <mol_properties>  (4) 
{"0": {"label": "*1", "atom_type": "N3s"}, "1": {"label": "*0", "atom_type": "H0"}, "2": {"label": "*4", "atom_type": "Cs"}, "3": {"label": "*3", "atom_type": "Cs"}, "7": {"label": "*2", "atom_type": "H0"}}

>  <type>  (4) 
ts

$$$$

     RDKit          3D

 10  8  0  0  0  0  0  0  0  0999 V2000
    0.0193    1.5730    1.1080 N   0  0  0  0  0  2  0  0  0  0  0  0
   -0.8442    1.6147    1.6592 H   0  0  0  0  0  0  0  0  0  0  0  0
    0.0193   -0.7941   -1.3361 C   0  0  0  0  0  0  0  0  0  0  0  0
    0.0193   -0.7941    0.1867 C   0  0  0  0  0  3  0  0  0  0  0  0
   -0.8615   -0.2855   -1.7319 H   0  0  0  0  0  0  0  0  0  0  0  0
    0.9002   -0.2855   -1.7319 H   0  0  0  0  0  0  0  0  0  0  0  0
    0.0193   -1.8112   -1.7319 H   0  0  0  0  0  0  0  0  0  0  0  0
    0.0193    0.4265    0.6617 H   0  0  0  0  0  0  0  0  0  0  0  0
    0.9002   -1.3026    0.5826 H   0  0  0  0  0  0  0  0  0  0  0  0
   -0.8615   -1.3026    0.5826 H   0  0  0  0  0  0  0  0  0  0  0  0
  1  2  1  0
  1  8  1  0
  3  4  1  0
  3  5  1  0
  3  6  1  0
  3  7  1  0
  4  9  1  0
  4 10  1  0
M  RAD  2   1   2   4   2
M  END
>  <reaction>  (5) 
rxn_129

>  <mol_properties>  (5) 
{"0": {"label": "*1", "atom_type": "N3s"}, "1": {"label": "*0", "atom_type": "H0"}, "2": {"label": "*4", "atom_type": "Cs"}, "3": {"label": "*3", "atom_type": "Cs"}, "7": {"label": "*2", "atom_type": "H0"}}

>  <type>  (5) 
unop_1

>  <geom_source>  (5) 
Heuristics

$$$$

     RDKit          3D

 10  8  0  0  0  0  0  0  0  0999 V2000
    0.0112    1.5620    1.1364 N   0  0  0  0  0  2  0  0  0  0  0  0
   -0.4874    2.0977    0.4183 H   0  0  0  0  0  0  0  0  0  0  0  0
    0.0112   -0.8051   -1.3077 C   0  0  0  0  0  0  0  0  0  0  0  0
    0.0112   -0.8051    0.2151 C   0  0  0  0  0  3  0  0  0  0  0  0
   -0.8697   -0.2966   -1.7035 H   0  0  0  0  0  0  0  0  0  0  0  0
    0.8920   -0.2966   -1.7035 H   0  0  0  0  0  0  0  0  0  0  0  0
    0.0111   -1.8222   -1.7035 H   0  0  0  0  0  0  0  0  0  0  0  0
    0.0112    0.4154    0.6901 H   0  0  0  0  0  0  0  0  0  0  0  0
    0.8920   -1.3137    0.6110 H   0  0  0  0  0  0  0  0  0  0  0  0
   -0.8697   -1.3137    0.6110 H   0  0  0  0  0  0  0  0  0  0  0  0
  1  2  1  0
  1  8  1  0
  3  4  1  0
  3  5  1  0
  3  6  1  0
  3  7  1  0
  4  9  1  0
  4 10  1  0
M  RAD  2   1   2   4   2
M  END
>  <reaction>  (6) 
rxn_129

>  <mol_properties>  (6) 
{"0": {"label": "*1", "atom_type": "N3s"}, "1": {"label": "*0", "atom_type": "H0"}, "2": {"label": "*4", "atom_type": "Cs"}, "3": {"label": "*3", "atom_type": "Cs"}, "7": {"label": "*2", "atom_type": "H0"}}

>  <type>  (6) 
unop_2

>  <geom_source>  (6) 
Heuristics

$$$$

     RDKit          3D

 10  8  0  0  0  0  0  0  0  0999 V2000
    0.0112    1.5760    1.1004 N   0  0  0  0  0  2  0  0  0  0  0  0
   -0.4874    1.4853    1.9917 H   0  0  0  0  0  0  0  0  0  0  0  0
    0.0112   -0.7911   -1.3437 C   0  0  0  0  0  0  0  0  0  0  0  0
    0.0112   -0.7911    0.1791 C   0  0  0  0  0  3  0  0  0  0  0  0
   -0.8697   -0.2826   -1.7395 H   0  0  0  0  0  0  0  0  0  0  0  0
    0.8920   -0.2826   -1.7395 H   0  0  0  0  0  0  0  0  0  0  0  0
    0.0111   -1.8082   -1.7395 H   0  0  0  0  0  0  0  0  0  0  0  0
    0.0112    0.4294    0.6541 H   0  0  0  0  0  0  0  0  0  0  0  0
    0.8920   -1.2997    0.5750 H   0  0  0  0  0  0  0  0  0  0  0  0
   -0.8697   -1.2997    0.5750 H   0  0  0  0  0  0  0  0  0  0  0  0
  1  2  1  0
  1  8  1  0
  3  4  1  0
  3  5  1  0
  3  6  1  0
  3  7  1  0
  4  9  1  0
  4 10  1  0
M  RAD  2   1   2   4   2
M  END
>  <reaction>  (7) 
rxn_129

>  <mol_properties>  (7) 
{"0": {"label": "*1", "atom_type": "N3s"}, "1": {"label": "*0", "atom_type": "H0"}, "2": {"label": "*4", "atom_type": "Cs"}, "3": {"label": "*3", "atom_type": "Cs"}, "7": {"label": "*2", "atom_type": "H0"}}

>  <type>  (7) 
unop_3

>  <geom_source>  (7) 
Heuristics

$$$$

     RDKit          3D

 10  8  0  0  0  0  0  0  0  0999 V2000
   -0.0193    1.5649    1.1288 N   0  0  0  0  0  2  0  0  0  0  0  0
    0.8442    1.9683    0.7508 H   0  0  0  0  0  0  0  0  0  0  0  0
   -0.0193   -0.8022   -1.3153 C   0  0  0  0  0  0  0  0  0  0  0  0
   -0.0193   -0.8022    0.2075 C   0  0  0  0  0  3  0  0  0  0  0  0
   -0.9002   -0.2936   -1.7111 H   0  0  0  0  0  0  0  0  0  0  0  0
    0.8615   -0.2936   -1.7111 H   0  0  0  0  0  0  0  0  0  0  0  0
   -0.0193   -1.8193   -1.7111 H   0  0  0  0  0  0  0  0  0  0  0  0
   -0.0193    0.4184    0.6825 H   0  0  0  0  0  0  0  0  0  0  0  0
    0.8615   -1.3107    0.6034 H   0  0  0  0  0  0  0  0  0  0  0  0
   -0.9002   -1.3107    0.6034 H   0  0  0  0  0  0  0  0  0  0  0  0
  1  2  1  0
  1  8  1  0
  3  4  1  0
  3  5  1  0
  3  6  1  0
  3  7  1  0
  4  9  1  0
  4 10  1  0
M  RAD  2   1   2   4   2
M  END
>  <reaction>  (8) 
rxn_129

>  <mol_properties>  (8) 
{"0": {"label": "*1", "atom_type": "N3s"}, "1": {"label": "*0", "atom_type": "H0"}, "2": {"label": "*4", "atom_type": "Cs"}, "3": {"label": "*3", "atom_type": "Cs"}, "7": {"label": "*2", "atom_type": "H0"}}

>  <type>  (8) 
unop_4

>  <geom_source>  (8) 
Heuristics

$$$$

     RDKit          3D

 10  8  0  0  0  0  0  0  0  0999 V2000
   -0.0000    1.5771    1.0976 N   0  0  0  0  0  2  0  0  0  0  0  0
   -0.0000    1.4380    2.1134 H   0  0  0  0  0  0  0  0  0  0  0  0
   -0.0000   -0.7900   -1.3465 C   0  0  0  0  0  0  0  0  0  0  0  0
   -0.0000   -0.7900    0.1763 C   0  0  0  0  0  3  0  0  0  0  0  0
   -0.8808   -0.2815   -1.7423 H   0  0  0  0  0  0  0  0  0  0  0  0
    0.8808   -0.2815   -1.7423 H   0  0  0  0  0  0  0  0  0  0  0  0
   -0.0000   -1.8071   -1.7423 H   0  0  0  0  0  0  0  0  0  0  0  0
   -0.0000    0.4305    0.6514 H   0  0  0  0  0  0  0  0  0  0  0  0
    0.8808   -1.2986    0.5722 H   0  0  0  0  0  0  0  0  0  0  0  0
   -0.8808   -1.2986    0.5722 H   0  0  0  0  0  0  0  0  0  0  0  0
  1  2  1  0
  1  8  1  0
  3  4  1  0
  3  5  1  0
  3  6  1  0
  3  7  1  0
  4  9  1  0
  4 10  1  0
M  RAD  2   1   2   4   2
M  END
>  <reaction>  (9) 
rxn_129

>  <mol_properties>  (9) 
{"0": {"label": "*1", "atom_type": "N3s"}, "1": {"label": "*0", "atom_type": "H0"}, "2": {"label": "*4", "atom_type": "Cs"}, "3": {"label": "*3", "atom_type": "Cs"}, "7": {"label": "*2", "atom_type": "H0"}}

>  <type>  (9) 
unop_5

>  <geom_source>  (9) 
Heuristics

$$$$

     RDKit          3D

 10  8  0  0  0  0  0  0  0  0999 V2000
   -0.0223    1.5690    1.1184 N   0  0  0  0  0  2  0  0  0  0  0  0
    0.9748    1.7915    1.2050 H   0  0  0  0  0  0  0  0  0  0  0  0
   -0.0223   -0.7981   -1.3257 C   0  0  0  0  0  0  0  0  0  0  0  0
   -0.0223   -0.7981    0.1971 C   0  0  0  0  0  3  0  0  0  0  0  0
   -0.9031   -0.2896   -1.7215 H   0  0  0  0  0  0  0  0  0  0  0  0
    0.8585   -0.2896   -1.7215 H   0  0  0  0  0  0  0  0  0  0  0  0
   -0.0223   -1.8152   -1.7215 H   0  0  0  0  0  0  0  0  0  0  0  0
   -0.0223    0.4224    0.6721 H   0  0  0  0  0  0  0  0  0  0  0  0
    0.8585   -1.3067    0.5930 H   0  0  0  0  0  0  0  0  0  0  0  0
   -0.9031   -1.3067    0.5930 H   0  0  0  0  0  0  0  0  0  0  0  0
  1  2  1  0
  1  8  1  0
  3  4  1  0
  3  5  1  0
  3  6  1  0
  3  7  1  0
  4  9  1  0
  4 10  1  0
M  RAD  2   1   2   4   2
M  END
>  <reaction>  (10) 
rxn_129

>  <mol_properties>  (10) 
{"0": {"label": "*1", "atom_type": "N3s"}, "1": {"label": "*0", "atom_type": "H0"}, "2": {"label": "*4", "atom_type": "Cs"}, "3": {"label": "*3", "atom_type": "Cs"}, "7": {"label": "*2", "atom_type": "H0"}}

>  <type>  (10) 
unop_6

>  <geom_source>  (10) 
Heuristics

$$$$

     RDKit          3D

 10  8  0  0  0  0  0  0  0  0999 V2000
   -0.0193    1.5730    1.1080 N   0  0  0  0  0  2  0  0  0  0  0  0
    0.8442    1.6147    1.6592 H   0  0  0  0  0  0  0  0  0  0  0  0
   -0.0193   -0.7941   -1.3361 C   0  0  0  0  0  0  0  0  0  0  0  0
   -0.0193   -0.7941    0.1867 C   0  0  0  0  0  3  0  0  0  0  0  0
   -0.9002   -0.2855   -1.7319 H   0  0  0  0  0  0  0  0  0  0  0  0
    0.8615   -0.2855   -1.7319 H   0  0  0  0  0  0  0  0  0  0  0  0
   -0.0193   -1.8112   -1.7319 H   0  0  0  0  0  0  0  0  0  0  0  0
   -0.0193    0.4265    0.6617 H   0  0  0  0  0  0  0  0  0  0  0  0
    0.8615   -1.3026    0.5826 H   0  0  0  0  0  0  0  0  0  0  0  0
   -0.9002   -1.3026    0.5826 H   0  0  0  0  0  0  0  0  0  0  0  0
  1  2  1  0
  1  8  1  0
  3  4  1  0
  3  5  1  0
  3  6  1  0
  3  7  1  0
  4  9  1  0
  4 10  1  0
M  RAD  2   1   2   4   2
M  END
>  <reaction>  (11) 
rxn_129

>  <mol_properties>  (11) 
{"0": {"label": "*1", "atom_type": "N3s"}, "1": {"label": "*0", "atom_type": "H0"}, "2": {"label": "*4", "atom_type": "Cs"}, "3": {"label": "*3", "atom_type": "Cs"}, "7": {"label": "*2", "atom_type": "H0"}}

>  <type>  (11) 
unop_7

>  <geom_source>  (11) 
Heuristics

$$$$

     RDKit          3D

 10  8  0  0  0  0  0  0  0  0999 V2000
    0.0223    1.5690    1.1184 N   0  0  0  0  0  2  0  0  0  0  0  0
   -0.9748    1.7915    1.2050 H   0  0  0  0  0  0  0  0  0  0  0  0
    0.0223   -0.7981   -1.3257 C   0  0  0  0  0  0  0  0  0  0  0  0
    0.0223   -0.7981    0.1971 C   0  0  0  0  0  3  0  0  0  0  0  0
   -0.8585   -0.2896   -1.7215 H   0  0  0  0  0  0  0  0  0  0  0  0
    0.9031   -0.2896   -1.7215 H   0  0  0  0  0  0  0  0  0  0  0  0
    0.0223   -1.8152   -1.7215 H   0  0  0  0  0  0  0  0  0  0  0  0
    0.0223    0.4224    0.6721 H   0  0  0  0  0  0  0  0  0  0  0  0
    0.9031   -1.3067    0.5930 H   0  0  0  0  0  0  0  0  0  0  0  0
   -0.8585   -1.3067    0.5930 H   0  0  0  0  0  0  0  0  0  0  0  0
  1  2  1  0
  1  8  1  0
  3  4  1  0
  3  5  1  0
  3  6  1  0
  3  7  1  0
  4  9  1  0
  4 10  1  0
M  RAD  2   1   2   4   2
M  END
>  <reaction>  (12) 
rxn_129

>  <mol_properties>  (12) 
{"0": {"label": "*1", "atom_type": "N3s"}, "1": {"label": "*0", "atom_type": "H0"}, "2": {"label": "*4", "atom_type": "Cs"}, "3": {"label": "*3", "atom_type": "Cs"}, "7": {"label": "*2", "atom_type": "H0"}}

>  <type>  (12) 
unop_8

>  <geom_source>  (12) 
Heuristics

$$$$

     RDKit          3D

 10  8  0  0  0  0  0  0  0  0999 V2000
   -0.0112    1.5620    1.1364 N   0  0  0  0  0  2  0  0  0  0  0  0
    0.4874    2.0977    0.4183 H   0  0  0  0  0  0  0  0  0  0  0  0
   -0.0112   -0.8051   -1.3077 C   0  0  0  0  0  0  0  0  0  0  0  0
   -0.0112   -0.8051    0.2151 C   0  0  0  0  0  3  0  0  0  0  0  0
   -0.8920   -0.2966   -1.7035 H   0  0  0  0  0  0  0  0  0  0  0  0
    0.8697   -0.2966   -1.7035 H   0  0  0  0  0  0  0  0  0  0  0  0
   -0.0112   -1.8222   -1.7035 H   0  0  0  0  0  0  0  0  0  0  0  0
   -0.0112    0.4154    0.6901 H   0  0  0  0  0  0  0  0  0  0  0  0
    0.8697   -1.3137    0.6110 H   0  0  0  0  0  0  0  0  0  0  0  0
   -0.8920   -1.3137    0.6110 H   0  0  0  0  0  0  0  0  0  0  0  0
  1  2  1  0
  1  8  1  0
  3  4  1  0
  3  5  1  0
  3  6  1  0
  3  7  1  0
  4  9  1  0
  4 10  1  0
M  RAD  2   1   2   4   2
M  END
>  <reaction>  (13) 
rxn_129

>  <mol_properties>  (13) 
{"0": {"label": "*1", "atom_type": "N3s"}, "1": {"label": "*0", "atom_type": "H0"}, "2": {"label": "*4", "atom_type": "Cs"}, "3": {"label": "*3", "atom_type": "Cs"}, "7": {"label": "*2", "atom_type": "H0"}}

>  <type>  (13) 
unop_9

>  <geom_source>  (13) 
Heuristics

$$$$

     RDKit          3D

 10  8  0  0  0  0  0  0  0  0999 V2000
    0.0193    1.5649    1.1288 N   0  0  0  0  0  2  0  0  0  0  0  0
   -0.8442    1.9683    0.7508 H   0  0  0  0  0  0  0  0  0  0  0  0
    0.0193   -0.8022   -1.3153 C   0  0  0  0  0  0  0  0  0  0  0  0
    0.0193   -0.8022    0.2075 C   0  0  0  0  0  3  0  0  0  0  0  0
   -0.8615   -0.2936   -1.7111 H   0  0  0  0  0  0  0  0  0  0  0  0
    0.9002   -0.2936   -1.7111 H   0  0  0  0  0  0  0  0  0  0  0  0
    0.0193   -1.8193   -1.7111 H   0  0  0  0  0  0  0  0  0  0  0  0
    0.0193    0.4184    0.6825 H   0  0  0  0  0  0  0  0  0  0  0  0
    0.9002   -1.3107    0.6034 H   0  0  0  0  0  0  0  0  0  0  0  0
   -0.8615   -1.3107    0.6034 H   0  0  0  0  0  0  0  0  0  0  0  0
  1  2  1  0
  1  8  1  0
  3  4  1  0
  3  5  1  0
  3  6  1  0
  3  7  1  0
  4  9  1  0
  4 10  1  0
M  RAD  2   1   2   4   2
M  END
>  <reaction>  (14) 
rxn_129

>  <mol_properties>  (14) 
{"0": {"label": "*1", "atom_type": "N3s"}, "1": {"label": "*0", "atom_type": "H0"}, "2": {"label": "*4", "atom_type": "Cs"}, "3": {"label": "*3", "atom_type": "Cs"}, "7": {"label": "*2", "atom_type": "H0"}}

>  <type>  (14) 
unop_10

>  <geom_source>  (14) 
Heuristics

$$$$

     RDKit          3D

 10  8  0  0  0  0  0  0  0  0999 V2000
   -0.0112    1.5760    1.1004 N   0  0  0  0  0  2  0  0  0  0  0  0
    0.4874    1.4853    1.9917 H   0  0  0  0  0  0  0  0  0  0  0  0
   -0.0112   -0.7911   -1.3437 C   0  0  0  0  0  0  0  0  0  0  0  0
   -0.0112   -0.7911    0.1791 C   0  0  0  0  0  3  0  0  0  0  0  0
   -0.8920   -0.2826   -1.7395 H   0  0  0  0  0  0  0  0  0  0  0  0
    0.8697   -0.2826   -1.7395 H   0  0  0  0  0  0  0  0  0  0  0  0
   -0.0112   -1.8082   -1.7395 H   0  0  0  0  0  0  0  0  0  0  0  0
   -0.0112    0.4294    0.6541 H   0  0  0  0  0  0  0  0  0  0  0  0
    0.8697   -1.2997    0.5750 H   0  0  0  0  0  0  0  0  0  0  0  0
   -0.8920   -1.2997    0.5750 H   0  0  0  0  0  0  0  0  0  0  0  0
  1  2  1  0
  1  8  1  0
  3  4  1  0
  3  5  1  0
  3  6  1  0
  3  7  1  0
  4  9  1  0
  4 10  1  0
M  RAD  2   1   2   4   2
M  END
>  <reaction>  (15) 
rxn_129

>  <mol_properties>  (15) 
{"0": {"label": "*1", "atom_type": "N3s"}, "1": {"label": "*0", "atom_type": "H0"}, "2": {"label": "*4", "atom_type": "Cs"}, "3": {"label": "*3", "atom_type": "Cs"}, "7": {"label": "*2", "atom_type": "H0"}}

>  <type>  (15) 
unop_11

>  <geom_source>  (15) 
Heuristics

$$$$

     RDKit          3D

 10  8  0  0  0  0  0  0  0  0999 V2000
   -0.0000    1.5609    1.1391 N   0  0  0  0  0  2  0  0  0  0  0  0
   -0.0000    2.1450    0.2965 H   0  0  0  0  0  0  0  0  0  0  0  0
   -0.0000   -0.8062   -1.3049 C   0  0  0  0  0  0  0  0  0  0  0  0
   -0.0000   -0.8062    0.2179 C   0  0  0  0  0  3  0  0  0  0  0  0
   -0.8808   -0.2977   -1.7007 H   0  0  0  0  0  0  0  0  0  0  0  0
    0.8808   -0.2977   -1.7007 H   0  0  0  0  0  0  0  0  0  0  0  0
   -0.0000   -1.8233   -1.7007 H   0  0  0  0  0  0  0  0  0  0  0  0
   -0.0000    0.4143    0.6929 H   0  0  0  0  0  0  0  0  0  0  0  0
    0.8808   -1.3148    0.6138 H   0  0  0  0  0  0  0  0  0  0  0  0
   -0.8808   -1.3148    0.6138 H   0  0  0  0  0  0  0  0  0  0  0  0
  1  2  1  0
  1  8  1  0
  3  4  1  0
  3  5  1  0
  3  6  1  0
  3  7  1  0
  4  9  1  0
  4 10  1  0
M  RAD  2   1   2   4   2
M  END
>  <reaction>  (16) 
rxn_129

>  <mol_properties>  (16) 
{"0": {"label": "*1", "atom_type": "N3s"}, "1": {"label": "*0", "atom_type": "H0"}, "2": {"label": "*4", "atom_type": "Cs"}, "3": {"label": "*3", "atom_type": "Cs"}, "7": {"label": "*2", "atom_type": "H0"}}

>  <type>  (16) 
unop_12

>  <geom_source>  (16) 
Heuristics

$$$$
