
     RDKit          3D

 16 15  0  0  0  0  0  0  0  0999 V2000
    1.7961   -0.3807    1.6176 C   0  0  0  0  0  0  0  0  0  0  0  0
    0.8562   -0.8708    0.8256 C   0  0  0  0  0  0  0  0  0  0  0  0
    0.0895   -0.0826   -0.2048 C   0  0  0  0  0  0  0  0  0  0  0  0
   -1.4061   -0.1111    0.0982 C   0  0  0  0  0  0  0  0  0  0  0  0
    0.4476   -0.5902   -1.5797 C   0  0  0  0  0  0  0  0  0  0  0  0
   -0.3793   -1.1113   -2.4728 C   0  0  0  0  0  0  0  0  0  0  0  0
    2.3110   -1.0032    2.3386 H   0  0  0  0  0  0  0  0  0  0  0  0
    2.0846    0.6643    1.5737 H   0  0  0  0  0  0  0  0  0  0  0  0
    0.5921   -1.9241    0.8925 H   0  0  0  0  0  0  0  0  0  0  0  0
    0.4358    0.9557   -0.1462 H   0  0  0  0  0  0  0  0  0  0  0  0
   -1.5968    0.3080    1.0865 H   0  0  0  0  0  0  0  0  0  0  0  0
   -1.9674    0.4693   -0.6359 H   0  0  0  0  0  0  0  0  0  0  0  0
   -1.7902   -1.1338    0.0883 H   0  0  0  0  0  0  0  0  0  0  0  0
    1.5049   -0.5197   -1.8214 H   0  0  0  0  0  0  0  0  0  0  0  0
   -1.4421   -1.2131   -2.2889 H   0  0  0  0  0  0  0  0  0  0  0  0
   -0.0162   -1.4558   -3.4328 H   0  0  0  0  0  0  0  0  0  0  0  0
  1  2  2  3
  1  7  1  0
  1  8  1  0
  2  3  1  0
  2  9  1  0
  3  4  1  0
  3  5  1  0
  3 10  1  0
  4 11  1  0
  4 12  1  0
  4 13  1  0
  5  6  2  3
  5 14  1  0
  6 15  1  0
  6 16  1  0
M  END
>  <reaction>  (1) 
rxn_1182

>  <mol_properties>  (1) 
{"2": {"label": "donator", "atom_type": "Cs"}, "9": {"label": "d_hydrogen", "atom_type": "H0"}}

>  <type>  (1) 
r1h

$$$$

     RDKit          3D

 11 10  0  0  0  0  0  0  0  0999 V2000
   -0.9580    1.1013   -2.2955 C   0  0  0  0  0  0  0  0  0  0  0  0
   -0.5129    0.5941   -1.2929 C   0  0  0  0  0  0  0  0  0  0  0  0
   -0.0301   -0.0160   -0.1357 C   0  0  0  0  0  3  0  0  0  0  0  0
   -0.6593   -1.2845    0.3661 C   0  0  0  0  0  0  0  0  0  0  0  0
    1.0691    0.5292    0.5269 C   0  0  0  0  0  0  0  0  0  0  0  0
    2.0168    0.9794    1.1266 C   0  0  0  0  0  0  0  0  0  0  0  0
   -1.3415    1.5561   -3.1769 H   0  0  0  0  0  0  0  0  0  0  0  0
   -1.7166   -1.3186    0.1054 H   0  0  0  0  0  0  0  0  0  0  0  0
   -0.1742   -2.1550   -0.0865 H   0  0  0  0  0  0  0  0  0  0  0  0
   -0.5505   -1.3663    1.4470 H   0  0  0  0  0  0  0  0  0  0  0  0
    2.8514    1.3842    1.6465 H   0  0  0  0  0  0  0  0  0  0  0  0
  1  2  3  0
  1  7  1  0
  2  3  1  0
  3  4  1  0
  3  5  1  0
  4  8  1  0
  4  9  1  0
  4 10  1  0
  5  6  3  0
  6 11  1  0
M  RAD  1   3   2
M  END
>  <reaction>  (2) 
rxn_1182

>  <mol_properties>  (2) 
{"2": {"label": "acceptor", "atom_type": "Cs"}}

>  <type>  (2) 
r2

$$$$

     RDKit          3D

 12 11  0  0  0  0  0  0  0  0999 V2000
    2.1696    0.6854    1.1310 C   0  0  0  0  0  0  0  0  0  0  0  0
    1.2518    0.4145    0.4134 C   0  0  0  0  0  0  0  0  0  0  0  0
    0.1391    0.0443   -0.4683 C   0  0  0  0  0  0  0  0  0  0  0  0
   -0.2054   -1.4492   -0.3339 C   0  0  0  0  0  0  0  0  0  0  0  0
   -1.0375    0.8853   -0.2222 C   0  0  0  0  0  0  0  0  0  0  0  0
   -2.0160    1.5463   -0.0311 C   0  0  0  0  0  0  0  0  0  0  0  0
    2.9819    0.9356    1.7702 H   0  0  0  0  0  0  0  0  0  0  0  0
    0.4629    0.2285   -1.4981 H   0  0  0  0  0  0  0  0  0  0  0  0
   -0.5327   -1.6703    0.6812 H   0  0  0  0  0  0  0  0  0  0  0  0
    0.6727   -2.0535   -0.5593 H   0  0  0  0  0  0  0  0  0  0  0  0
   -1.0064   -1.7081   -1.0256 H   0  0  0  0  0  0  0  0  0  0  0  0
   -2.8802    2.1413    0.1426 H   0  0  0  0  0  0  0  0  0  0  0  0
  1  2  3  0
  1  7  1  0
  2  3  1  0
  3  4  1  0
  3  5  1  0
  3  8  1  0
  4  9  1  0
  4 10  1  0
  4 11  1  0
  5  6  3  0
  6 12  1  0
M  END
>  <reaction>  (3) 
rxn_1182

>  <mol_properties>  (3) 
{"2": {"label": "acceptor", "atom_type": "Cs"}, "11": {"label": "a_hydrogen", "atom_type": "H0"}}

>  <type>  (3) 
r2h

$$$$

     RDKit          3D

 27 25  0  0  0  0  0  0  0  0999 V2000
   -0.3142    2.9518    1.1331 C   0  0  0  0  0  0  0  0  0  0  0  0
    0.0472    2.1878    0.2791 C   0  0  0  0  0  0  0  0  0  0  0  0
    0.4258    1.2307   -0.7136 C   0  0  0  0  0  3  0  0  0  0  0  0
   -0.4994    1.1028   -1.9115 C   0  0  0  0  0  0  0  0  0  0  0  0
    1.8278    1.1286   -0.9842 C   0  0  0  0  0  0  0  0  0  0  0  0
    2.9969    0.9729   -1.2123 C   0  0  0  0  0  0  0  0  0  0  0  0
   -0.6246    3.6407    1.8811 H   0  0  0  0  0  0  0  0  0  0  0  0
   -1.5332    1.0352   -1.5725 H   0  0  0  0  0  0  0  0  0  0  0  0
   -0.4052    1.9683   -2.5701 H   0  0  0  0  0  0  0  0  0  0  0  0
   -0.2502    0.2044   -2.4770 H   0  0  0  0  0  0  0  0  0  0  0  0
    4.0342    0.8622   -1.4182 H   0  0  0  0  0  0  0  0  0  0  0  0
   -0.1083   -2.9740   -1.1789 C   0  0  0  0  0  0  0  0  0  0  0  0
    0.5260   -2.0735   -0.4301 C   0  0  0  0  0  0  0  0  0  0  0  0
   -0.0675   -1.1256    0.5298 C   0  0  0  0  0  0  0  0  0  0  0  0
    0.7508   -0.8972    1.7816 C   0  0  0  0  0  0  0  0  0  0  0  0
   -1.5287   -1.1030    0.6582 C   0  0  0  0  0  0  0  0  0  0  0  0
   -2.2143   -0.7606    1.7477 C   0  0  0  0  0  0  0  0  0  0  0  0
    0.4404   -3.5992   -1.8712 H   0  0  0  0  0  0  0  0  0  0  0  0
   -1.1773   -3.1357   -1.1183 H   0  0  0  0  0  0  0  0  0  0  0  0
    1.6048   -1.9890   -0.5311 H   0  0  0  0  0  0  0  0  0  0  0  0
    0.1636    0.0249   -0.0876 H   0  0  0  0  0  0  0  0  0  0  0  0
    1.8105   -0.8273    1.5332 H   0  0  0  0  0  0  0  0  0  0  0  0
    0.4631    0.0309    2.2775 H   0  0  0  0  0  0  0  0  0  0  0  0
    0.6182   -1.7211    2.4881 H   0  0  0  0  0  0  0  0  0  0  0  0
   -2.0854   -1.3413   -0.2430 H   0  0  0  0  0  0  0  0  0  0  0  0
   -1.7281   -0.5050    2.6807 H   0  0  0  0  0  0  0  0  0  0  0  0
   -3.2960   -0.7314    1.7360 H   0  0  0  0  0  0  0  0  0  0  0  0
  1  2  3  0
  1  7  1  0
  2  3  1  0
  3  4  1  0
  3  5  1  0
  4  8  1  0
  4  9  1  0
  4 10  1  0
  5  6  3  0
  6 11  1  0
 12 13  2  3
 12 18  1  0
 12 19  1  0
 13 14  1  0
 13 20  1  0
 14 15  1  0
 14 16  1  0
 14 21  1  0
 15 22  1  0
 15 23  1  0
 15 24  1  0
 16 17  2  3
 16 25  1  0
 17 26  1  0
 17 27  1  0
M  RAD  1   3   2
M  END
>  <reaction>  (4) 
rxn_1182

>  <mol_properties>  (4) 
{"1": {"label": "*4", "atom_type": "Ct"}, "2": {"label": "*3", "atom_type": "Cs"}, "12": {"label": "*0", "atom_type": "Cd"}, "13": {"label": "*1", "atom_type": "Cs"}, "20": {"label": "*2", "atom_type": "H0"}}

>  <type>  (4) 
ts

$$$$

     RDKit          3D

 27 25  0  0  0  0  0  0  0  0999 V2000
   -2.0536    2.4502   -0.5934 C   0  0  0  0  0  0  0  0  0  0  0  0
   -1.0644    1.8026   -0.7742 C   0  0  0  0  0  0  0  0  0  0  0  0
    0.1416    1.0090   -1.0353 C   0  0  0  0  0  0  0  0  0  0  0  0
    0.6910    1.2782   -2.4471 C   0  0  0  0  0  0  0  0  0  0  0  0
    1.1663    1.2456   -0.0124 C   0  0  0  0  0  0  0  0  0  0  0  0
    2.0248    1.4318    0.7995 C   0  0  0  0  0  0  0  0  0  0  0  0
   -2.9332    3.0260   -0.4327 H   0  0  0  0  0  0  0  0  0  0  0  0
   -0.0745    1.0582   -3.1905 H   0  0  0  0  0  0  0  0  0  0  0  0
    0.9849    2.3226   -2.5440 H   0  0  0  0  0  0  0  0  0  0  0  0
    1.5616    0.6497   -2.6317 H   0  0  0  0  0  0  0  0  0  0  0  0
    2.7881    1.5974    1.5213 H   0  0  0  0  0  0  0  0  0  0  0  0
    0.0685   -2.3094   -1.6311 C   0  0  0  0  0  0  0  0  0  0  0  0
    0.0685   -2.3094   -0.3078 C   0  0  0  0  0  0  0  0  0  0  0  0
    0.0685   -1.0786    0.5616 C   0  0  0  0  0  3  0  0  0  0  0  0
    1.3068   -1.0489    1.4532 C   0  0  0  0  0  0  0  0  0  0  0  0
   -1.2350   -1.0101    1.3181 C   0  0  0  0  0  0  0  0  0  0  0  0
   -1.3897   -1.0098    2.6330 C   0  0  0  0  0  0  0  0  0  0  0  0
    0.0677   -3.2320   -2.1978 H   0  0  0  0  0  0  0  0  0  0  0  0
    0.0702   -1.3836   -2.1968 H   0  0  0  0  0  0  0  0  0  0  0  0
    0.0637   -3.2552    0.2298 H   0  0  0  0  0  0  0  0  0  0  0  0
    0.1051   -0.0343   -0.2372 H   0  0  0  0  0  0  0  0  0  0  0  0
    2.2096   -1.0572    0.8419 H   0  0  0  0  0  0  0  0  0  0  0  0
    1.3215   -0.1531    2.0763 H   0  0  0  0  0  0  0  0  0  0  0  0
    1.3394   -1.9206    2.1108 H   0  0  0  0  0  0  0  0  0  0  0  0
   -2.1182   -0.9743    0.6856 H   0  0  0  0  0  0  0  0  0  0  0  0
   -0.5493   -1.0492    3.3156 H   0  0  0  0  0  0  0  0  0  0  0  0
   -2.3761   -0.9667    3.0772 H   0  0  0  0  0  0  0  0  0  0  0  0
  1  2  3  0
  1  7  1  0
  2  3  1  0
  3  4  1  0
  3  5  1  0
  3 21  1  0
  4  8  1  0
  4  9  1  0
  4 10  1  0
  5  6  3  0
  6 11  1  0
 12 13  2  3
 12 18  1  0
 12 19  1  0
 13 14  1  0
 13 20  1  0
 14 15  1  0
 14 16  1  0
 15 22  1  0
 15 23  1  0
 15 24  1  0
 16 17  2  3
 16 25  1  0
 17 26  1  0
 17 27  1  0
M  RAD  1  14   2
M  END
>  <reaction>  (5) 
rxn_1182

>  <mol_properties>  (5) 
{"1": {"label": "*4", "atom_type": "Ct"}, "2": {"label": "*3", "atom_type": "Cs"}, "12": {"label": "*0", "atom_type": "Cd"}, "13": {"label": "*1", "atom_type": "Cs"}, "20": {"label": "*2", "atom_type": "H0"}}

>  <type>  (5) 
unop_1

>  <geom_source>  (5) 
Heuristics

$$$$

     RDKit          3D

 27 25  0  0  0  0  0  0  0  0999 V2000
   -0.8189    0.4200   -3.0515 C   0  0  0  0  0  0  0  0  0  0  0  0
   -0.2957    0.7272   -2.0206 C   0  0  0  0  0  0  0  0  0  0  0  0
    0.3814    1.1046   -0.7750 C   0  0  0  0  0  0  0  0  0  0  0  0
    1.6787    1.8815   -1.0593 C   0  0  0  0  0  0  0  0  0  0  0  0
   -0.5111    1.8652    0.1066 C   0  0  0  0  0  0  0  0  0  0  0  0
   -1.2128    2.5007    0.8378 C   0  0  0  0  0  0  0  0  0  0  0  0
   -1.2841    0.1468   -3.9680 H   0  0  0  0  0  0  0  0  0  0  0  0
    2.3408    1.2812   -1.6825 H   0  0  0  0  0  0  0  0  0  0  0  0
    1.4542    2.8117   -1.5797 H   0  0  0  0  0  0  0  0  0  0  0  0
    2.1828    2.1159   -0.1223 H   0  0  0  0  0  0  0  0  0  0  0  0
   -1.8366    3.0657    1.4879 H   0  0  0  0  0  0  0  0  0  0  0  0
    0.3082   -2.2138   -1.3708 C   0  0  0  0  0  0  0  0  0  0  0  0
    0.3082   -2.2138   -0.0475 C   0  0  0  0  0  0  0  0  0  0  0  0
    0.3082   -0.9831    0.8219 C   0  0  0  0  0  3  0  0  0  0  0  0
    1.5466   -0.9533    1.7135 C   0  0  0  0  0  0  0  0  0  0  0  0
   -0.9953   -0.9145    1.5784 C   0  0  0  0  0  0  0  0  0  0  0  0
   -1.1499   -0.9142    2.8933 C   0  0  0  0  0  0  0  0  0  0  0  0
    0.3075   -3.1365   -1.9375 H   0  0  0  0  0  0  0  0  0  0  0  0
    0.3100   -1.2881   -1.9365 H   0  0  0  0  0  0  0  0  0  0  0  0
    0.3035   -3.1597    0.4901 H   0  0  0  0  0  0  0  0  0  0  0  0
    0.3448    0.0613    0.0230 H   0  0  0  0  0  0  0  0  0  0  0  0
    2.4493   -0.9616    1.1022 H   0  0  0  0  0  0  0  0  0  0  0  0
    1.5613   -0.0575    2.3366 H   0  0  0  0  0  0  0  0  0  0  0  0
    1.5792   -1.8250    2.3711 H   0  0  0  0  0  0  0  0  0  0  0  0
   -1.8785   -0.8788    0.9458 H   0  0  0  0  0  0  0  0  0  0  0  0
   -0.3096   -0.9536    3.5758 H   0  0  0  0  0  0  0  0  0  0  0  0
   -2.1363   -0.8711    3.3375 H   0  0  0  0  0  0  0  0  0  0  0  0
  1  2  3  0
  1  7  1  0
  2  3  1  0
  3  4  1  0
  3  5  1  0
  3 21  1  0
  4  8  1  0
  4  9  1  0
  4 10  1  0
  5  6  3  0
  6 11  1  0
 12 13  2  3
 12 18  1  0
 12 19  1  0
 13 14  1  0
 13 20  1  0
 14 15  1  0
 14 16  1  0
 15 22  1  0
 15 23  1  0
 15 24  1  0
 16 17  2  3
 16 25  1  0
 17 26  1  0
 17 27  1  0
M  RAD  1  14   2
M  END
>  <reaction>  (6) 
rxn_1182

>  <mol_properties>  (6) 
{"1": {"label": "*4", "atom_type": "Ct"}, "2": {"label": "*3", "atom_type": "Cs"}, "12": {"label": "*0", "atom_type": "Cd"}, "13": {"label": "*1", "atom_type": "Cs"}, "20": {"label": "*2", "atom_type": "H0"}}

>  <type>  (6) 
unop_2

>  <geom_source>  (6) 
Heuristics

$$$$

     RDKit          3D

 27 25  0  0  0  0  0  0  0  0999 V2000
   -1.2760    3.0063    0.2522 C   0  0  0  0  0  0  0  0  0  0  0  0
   -0.6850    2.1118   -0.2782 C   0  0  0  0  0  0  0  0  0  0  0  0
    0.0132    1.0154   -0.9585 C   0  0  0  0  0  0  0  0  0  0  0  0
   -0.2248    1.0609   -2.4780 C   0  0  0  0  0  0  0  0  0  0  0  0
    1.4463    1.0209   -0.6447 C   0  0  0  0  0  0  0  0  0  0  0  0
    2.6208    1.0120   -0.4180 C   0  0  0  0  0  0  0  0  0  0  0  0
   -1.8014    3.8017    0.7237 H   0  0  0  0  0  0  0  0  0  0  0  0
   -1.2932    1.0161   -2.6869 H   0  0  0  0  0  0  0  0  0  0  0  0
    0.1761    1.9841   -2.8943 H   0  0  0  0  0  0  0  0  0  0  0  0
    0.2700    0.2160   -2.9557 H   0  0  0  0  0  0  0  0  0  0  0  0
    3.6649    1.0040   -0.2164 H   0  0  0  0  0  0  0  0  0  0  0  0
   -0.0600   -2.3031   -1.5542 C   0  0  0  0  0  0  0  0  0  0  0  0
   -0.0600   -2.3031   -0.2310 C   0  0  0  0  0  0  0  0  0  0  0  0
   -0.0600   -1.0723    0.6384 C   0  0  0  0  0  3  0  0  0  0  0  0
    1.1784   -1.0425    1.5300 C   0  0  0  0  0  0  0  0  0  0  0  0
   -1.3635   -1.0037    1.3949 C   0  0  0  0  0  0  0  0  0  0  0  0
   -1.5181   -1.0035    2.7098 C   0  0  0  0  0  0  0  0  0  0  0  0
   -0.0607   -3.2257   -2.1210 H   0  0  0  0  0  0  0  0  0  0  0  0
   -0.0582   -1.3773   -2.1199 H   0  0  0  0  0  0  0  0  0  0  0  0
   -0.0647   -3.2489    0.3066 H   0  0  0  0  0  0  0  0  0  0  0  0
   -0.0234   -0.0280   -0.1604 H   0  0  0  0  0  0  0  0  0  0  0  0
    2.0812   -1.0509    0.9187 H   0  0  0  0  0  0  0  0  0  0  0  0
    1.1931   -0.1468    2.1531 H   0  0  0  0  0  0  0  0  0  0  0  0
    1.2110   -1.9143    2.1876 H   0  0  0  0  0  0  0  0  0  0  0  0
   -2.2467   -0.9680    0.7624 H   0  0  0  0  0  0  0  0  0  0  0  0
   -0.6778   -1.0428    3.3924 H   0  0  0  0  0  0  0  0  0  0  0  0
   -2.5045   -0.9604    3.1541 H   0  0  0  0  0  0  0  0  0  0  0  0
  1  2  3  0
  1  7  1  0
  2  3  1  0
  3  4  1  0
  3  5  1  0
  3 21  1  0
  4  8  1  0
  4  9  1  0
  4 10  1  0
  5  6  3  0
  6 11  1  0
 12 13  2  3
 12 18  1  0
 12 19  1  0
 13 14  1  0
 13 20  1  0
 14 15  1  0
 14 16  1  0
 15 22  1  0
 15 23  1  0
 15 24  1  0
 16 17  2  3
 16 25  1  0
 17 26  1  0
 17 27  1  0
M  RAD  1  14   2
M  END
>  <reaction>  (7) 
rxn_1182

>  <mol_properties>  (7) 
{"1": {"label": "*4", "atom_type": "Ct"}, "2": {"label": "*3", "atom_type": "Cs"}, "12": {"label": "*0", "atom_type": "Cd"}, "13": {"label": "*1", "atom_type": "Cs"}, "20": {"label": "*2", "atom_type": "H0"}}

>  <type>  (7) 
unop_3

>  <geom_source>  (7) 
Heuristics

$$$$

     RDKit          3D

 27 25  0  0  0  0  0  0  0  0999 V2000
    2.3437    0.8922   -2.0833 C   0  0  0  0  0  0  0  0  0  0  0  0
    1.3232    0.9714   -1.4643 C   0  0  0  0  0  0  0  0  0  0  0  0
    0.0928    1.0696   -0.6713 C   0  0  0  0  0  0  0  0  0  0  0  0
    0.3507    1.7730    0.6727 C   0  0  0  0  0  0  0  0  0  0  0  0
   -0.9741    1.7378   -1.4246 C   0  0  0  0  0  0  0  0  0  0  0  0
   -1.8566    2.2933   -2.0106 C   0  0  0  0  0  0  0  0  0  0  0  0
    3.2510    0.8217   -2.6335 H   0  0  0  0  0  0  0  0  0  0  0  0
    1.1179    1.2365    1.2301 H   0  0  0  0  0  0  0  0  0  0  0  0
    0.6886    2.7947    0.5042 H   0  0  0  0  0  0  0  0  0  0  0  0
   -0.5671    1.7986    1.2592 H   0  0  0  0  0  0  0  0  0  0  0  0
   -2.6412    2.7873   -2.5316 H   0  0  0  0  0  0  0  0  0  0  0  0
    0.0197   -2.2489   -1.2671 C   0  0  0  0  0  0  0  0  0  0  0  0
    0.0197   -2.2489    0.0562 C   0  0  0  0  0  0  0  0  0  0  0  0
    0.0197   -1.0181    0.9256 C   0  0  0  0  0  3  0  0  0  0  0  0
    1.2580   -0.9883    1.8172 C   0  0  0  0  0  0  0  0  0  0  0  0
   -1.2839   -0.9495    1.6821 C   0  0  0  0  0  0  0  0  0  0  0  0
   -1.4385   -0.9493    2.9970 C   0  0  0  0  0  0  0  0  0  0  0  0
    0.0189   -3.1715   -1.8338 H   0  0  0  0  0  0  0  0  0  0  0  0
    0.0214   -1.3231   -1.8328 H   0  0  0  0  0  0  0  0  0  0  0  0
    0.0149   -3.1947    0.5938 H   0  0  0  0  0  0  0  0  0  0  0  0
    0.0563    0.0263    0.1268 H   0  0  0  0  0  0  0  0  0  0  0  0
    2.1608   -0.9967    1.2059 H   0  0  0  0  0  0  0  0  0  0  0  0
    1.2727   -0.0925    2.4403 H   0  0  0  0  0  0  0  0  0  0  0  0
    1.2906   -1.8601    2.4748 H   0  0  0  0  0  0  0  0  0  0  0  0
   -2.1670   -0.9138    1.0496 H   0  0  0  0  0  0  0  0  0  0  0  0
   -0.5981   -0.9886    3.6796 H   0  0  0  0  0  0  0  0  0  0  0  0
   -2.4249   -0.9062    3.4413 H   0  0  0  0  0  0  0  0  0  0  0  0
  1  2  3  0
  1  7  1  0
  2  3  1  0
  3  4  1  0
  3  5  1  0
  3 21  1  0
  4  8  1  0
  4  9  1  0
  4 10  1  0
  5  6  3  0
  6 11  1  0
 12 13  2  3
 12 18  1  0
 12 19  1  0
 13 14  1  0
 13 20  1  0
 14 15  1  0
 14 16  1  0
 15 22  1  0
 15 23  1  0
 15 24  1  0
 16 17  2  3
 16 25  1  0
 17 26  1  0
 17 27  1  0
M  RAD  1  14   2
M  END
>  <reaction>  (8) 
rxn_1182

>  <mol_properties>  (8) 
{"1": {"label": "*4", "atom_type": "Ct"}, "2": {"label": "*3", "atom_type": "Cs"}, "12": {"label": "*0", "atom_type": "Cd"}, "13": {"label": "*1", "atom_type": "Cs"}, "20": {"label": "*2", "atom_type": "H0"}}

>  <type>  (8) 
unop_4

>  <geom_source>  (8) 
Heuristics

$$$$

     RDKit          3D

 27 25  0  0  0  0  0  0  0  0999 V2000
   -0.0307    3.2007    0.7259 C   0  0  0  0  0  0  0  0  0  0  0  0
    0.0019    2.2227    0.0380 C   0  0  0  0  0  0  0  0  0  0  0  0
    0.0019    1.0241   -0.8079 C   0  0  0  0  0  0  0  0  0  0  0  0
   -1.2424    0.9800   -1.7120 C   0  0  0  0  0  0  0  0  0  0  0  0
    1.2353    0.9291   -1.5966 C   0  0  0  0  0  0  0  0  0  0  0  0
    2.2244    0.8356   -2.2628 C   0  0  0  0  0  0  0  0  0  0  0  0
   -0.0597    4.0703    1.3375 H   0  0  0  0  0  0  0  0  0  0  0  0
   -2.1446    1.0121   -1.1019 H   0  0  0  0  0  0  0  0  0  0  0  0
   -1.2460    1.8328   -2.3895 H   0  0  0  0  0  0  0  0  0  0  0  0
   -1.2400    0.0634   -2.3009 H   0  0  0  0  0  0  0  0  0  0  0  0
    3.1038    0.7525   -2.8550 H   0  0  0  0  0  0  0  0  0  0  0  0
   -0.0713   -2.2944   -1.4037 C   0  0  0  0  0  0  0  0  0  0  0  0
   -0.0713   -2.2944   -0.0805 C   0  0  0  0  0  0  0  0  0  0  0  0
   -0.0713   -1.0636    0.7889 C   0  0  0  0  0  3  0  0  0  0  0  0
    1.1671   -1.0338    1.6805 C   0  0  0  0  0  0  0  0  0  0  0  0
   -1.3748   -0.9951    1.5455 C   0  0  0  0  0  0  0  0  0  0  0  0
   -1.5294   -0.9948    2.8604 C   0  0  0  0  0  0  0  0  0  0  0  0
   -0.0720   -3.2170   -1.9704 H   0  0  0  0  0  0  0  0  0  0  0  0
   -0.0695   -1.3686   -1.9694 H   0  0  0  0  0  0  0  0  0  0  0  0
   -0.0760   -3.2402    0.4572 H   0  0  0  0  0  0  0  0  0  0  0  0
   -0.0347   -0.0193   -0.0099 H   0  0  0  0  0  0  0  0  0  0  0  0
    2.0699   -1.0422    1.0693 H   0  0  0  0  0  0  0  0  0  0  0  0
    1.1818   -0.1381    2.3036 H   0  0  0  0  0  0  0  0  0  0  0  0
    1.1997   -1.9056    2.3382 H   0  0  0  0  0  0  0  0  0  0  0  0
   -2.2580   -0.9593    0.9129 H   0  0  0  0  0  0  0  0  0  0  0  0
   -0.6891   -1.0341    3.5429 H   0  0  0  0  0  0  0  0  0  0  0  0
   -2.5158   -0.9517    3.3046 H   0  0  0  0  0  0  0  0  0  0  0  0
  1  2  3  0
  1  7  1  0
  2  3  1  0
  3  4  1  0
  3  5  1  0
  3 21  1  0
  4  8  1  0
  4  9  1  0
  4 10  1  0
  5  6  3  0
  6 11  1  0
 12 13  2  3
 12 18  1  0
 12 19  1  0
 13 14  1  0
 13 20  1  0
 14 15  1  0
 14 16  1  0
 15 22  1  0
 15 23  1  0
 15 24  1  0
 16 17  2  3
 16 25  1  0
 17 26  1  0
 17 27  1  0
M  RAD  1  14   2
M  END
>  <reaction>  (9) 
rxn_1182

>  <mol_properties>  (9) 
{"1": {"label": "*4", "atom_type": "Ct"}, "2": {"label": "*3", "atom_type": "Cs"}, "12": {"label": "*0", "atom_type": "Cd"}, "13": {"label": "*1", "atom_type": "Cs"}, "20": {"label": "*2", "atom_type": "H0"}}

>  <type>  (9) 
unop_5

>  <geom_source>  (9) 
Heuristics

$$$$

     RDKit          3D

 27 25  0  0  0  0  0  0  0  0999 V2000
    2.6436    1.6197   -1.1132 C   0  0  0  0  0  0  0  0  0  0  0  0
    1.4878    1.3546   -0.9559 C   0  0  0  0  0  0  0  0  0  0  0  0
    0.0760    1.0304   -0.7233 C   0  0  0  0  0  0  0  0  0  0  0  0
   -0.4020    1.5667    0.6374 C   0  0  0  0  0  0  0  0  0  0  0  0
   -0.7703    1.5231   -1.8157 C   0  0  0  0  0  0  0  0  0  0  0  0
   -1.4850    1.9279   -2.6853 C   0  0  0  0  0  0  0  0  0  0  0  0
    3.6711    1.8554   -1.2531 H   0  0  0  0  0  0  0  0  0  0  0  0
    0.2164    1.1564    1.4350 H   0  0  0  0  0  0  0  0  0  0  0  0
   -0.3297    2.6533    0.6603 H   0  0  0  0  0  0  0  0  0  0  0  0
   -1.4398    1.2801    0.8044 H   0  0  0  0  0  0  0  0  0  0  0  0
   -2.1204    2.2878   -3.4583 H   0  0  0  0  0  0  0  0  0  0  0  0
    0.0029   -2.2880   -1.3190 C   0  0  0  0  0  0  0  0  0  0  0  0
    0.0029   -2.2880    0.0042 C   0  0  0  0  0  0  0  0  0  0  0  0
    0.0029   -1.0573    0.8736 C   0  0  0  0  0  3  0  0  0  0  0  0
    1.2412   -1.0275    1.7652 C   0  0  0  0  0  0  0  0  0  0  0  0
   -1.3007   -0.9887    1.6301 C   0  0  0  0  0  0  0  0  0  0  0  0
   -1.4553   -0.9884    2.9450 C   0  0  0  0  0  0  0  0  0  0  0  0
    0.0021   -3.2107   -1.8858 H   0  0  0  0  0  0  0  0  0  0  0  0
    0.0046   -1.3622   -1.8848 H   0  0  0  0  0  0  0  0  0  0  0  0
   -0.0019   -3.2339    0.5418 H   0  0  0  0  0  0  0  0  0  0  0  0
    0.0395   -0.0129    0.0748 H   0  0  0  0  0  0  0  0  0  0  0  0
    2.1440   -1.0358    1.1539 H   0  0  0  0  0  0  0  0  0  0  0  0
    1.2559   -0.1317    2.3883 H   0  0  0  0  0  0  0  0  0  0  0  0
    1.2738   -1.8992    2.4228 H   0  0  0  0  0  0  0  0  0  0  0  0
   -2.1838   -0.9529    0.9976 H   0  0  0  0  0  0  0  0  0  0  0  0
   -0.6149   -1.0278    3.6276 H   0  0  0  0  0  0  0  0  0  0  0  0
   -2.4417   -0.9453    3.3893 H   0  0  0  0  0  0  0  0  0  0  0  0
  1  2  3  0
  1  7  1  0
  2  3  1  0
  3  4  1  0
  3  5  1  0
  3 21  1  0
  4  8  1  0
  4  9  1  0
  4 10  1  0
  5  6  3  0
  6 11  1  0
 12 13  2  3
 12 18  1  0
 12 19  1  0
 13 14  1  0
 13 20  1  0
 14 15  1  0
 14 16  1  0
 15 22  1  0
 15 23  1  0
 15 24  1  0
 16 17  2  3
 16 25  1  0
 17 26  1  0
 17 27  1  0
M  RAD  1  14   2
M  END
>  <reaction>  (10) 
rxn_1182

>  <mol_properties>  (10) 
{"1": {"label": "*4", "atom_type": "Ct"}, "2": {"label": "*3", "atom_type": "Cs"}, "12": {"label": "*0", "atom_type": "Cd"}, "13": {"label": "*1", "atom_type": "Cs"}, "20": {"label": "*2", "atom_type": "H0"}}

>  <type>  (10) 
unop_6

>  <geom_source>  (10) 
Heuristics

$$$$

     RDKit          3D

 27 25  0  0  0  0  0  0  0  0999 V2000
    2.2949    2.3779   -0.1382 C   0  0  0  0  0  0  0  0  0  0  0  0
    1.3109    1.7633   -0.4295 C   0  0  0  0  0  0  0  0  0  0  0  0
    0.0927    1.0105   -0.7483 C   0  0  0  0  0  0  0  0  0  0  0  0
   -1.0297    1.3138    0.2596 C   0  0  0  0  0  0  0  0  0  0  0  0
   -0.3460    1.2660   -2.1248 C   0  0  0  0  0  0  0  0  0  0  0  0
   -0.7344    1.4687   -3.2378 C   0  0  0  0  0  0  0  0  0  0  0  0
    3.1697    2.9243    0.1208 H   0  0  0  0  0  0  0  0  0  0  0  0
   -0.6939    1.0793    1.2692 H   0  0  0  0  0  0  0  0  0  0  0  0
   -1.3008    2.3678    0.2154 H   0  0  0  0  0  0  0  0  0  0  0  0
   -1.9091    0.7146    0.0258 H   0  0  0  0  0  0  0  0  0  0  0  0
   -1.0798    1.6489   -4.2274 H   0  0  0  0  0  0  0  0  0  0  0  0
    0.0195   -2.3079   -1.3441 C   0  0  0  0  0  0  0  0  0  0  0  0
    0.0195   -2.3079   -0.0209 C   0  0  0  0  0  0  0  0  0  0  0  0
    0.0195   -1.0771    0.8486 C   0  0  0  0  0  3  0  0  0  0  0  0
    1.2579   -1.0473    1.7402 C   0  0  0  0  0  0  0  0  0  0  0  0
   -1.2840   -1.0086    1.6051 C   0  0  0  0  0  0  0  0  0  0  0  0
   -1.4386   -1.0083    2.9200 C   0  0  0  0  0  0  0  0  0  0  0  0
    0.0188   -3.2305   -1.9108 H   0  0  0  0  0  0  0  0  0  0  0  0
    0.0213   -1.3821   -1.9098 H   0  0  0  0  0  0  0  0  0  0  0  0
    0.0148   -3.2537    0.5168 H   0  0  0  0  0  0  0  0  0  0  0  0
    0.0561   -0.0328    0.0497 H   0  0  0  0  0  0  0  0  0  0  0  0
    2.1607   -1.0557    1.1289 H   0  0  0  0  0  0  0  0  0  0  0  0
    1.2726   -0.1516    2.3633 H   0  0  0  0  0  0  0  0  0  0  0  0
    1.2905   -1.9191    2.3978 H   0  0  0  0  0  0  0  0  0  0  0  0
   -2.1672   -0.9728    0.9725 H   0  0  0  0  0  0  0  0  0  0  0  0
   -0.5983   -1.0476    3.6025 H   0  0  0  0  0  0  0  0  0  0  0  0
   -2.4250   -0.9652    3.3642 H   0  0  0  0  0  0  0  0  0  0  0  0
  1  2  3  0
  1  7  1  0
  2  3  1  0
  3  4  1  0
  3  5  1  0
  3 21  1  0
  4  8  1  0
  4  9  1  0
  4 10  1  0
  5  6  3  0
  6 11  1  0
 12 13  2  3
 12 18  1  0
 12 19  1  0
 13 14  1  0
 13 20  1  0
 14 15  1  0
 14 16  1  0
 15 22  1  0
 15 23  1  0
 15 24  1  0
 16 17  2  3
 16 25  1  0
 17 26  1  0
 17 27  1  0
M  RAD  1  14   2
M  END
>  <reaction>  (11) 
rxn_1182

>  <mol_properties>  (11) 
{"1": {"label": "*4", "atom_type": "Ct"}, "2": {"label": "*3", "atom_type": "Cs"}, "12": {"label": "*0", "atom_type": "Cd"}, "13": {"label": "*1", "atom_type": "Cs"}, "20": {"label": "*2", "atom_type": "H0"}}

>  <type>  (11) 
unop_7

>  <geom_source>  (11) 
Heuristics

$$$$

     RDKit          3D

 27 25  0  0  0  0  0  0  0  0999 V2000
   -2.2289    1.7008   -1.5847 C   0  0  0  0  0  0  0  0  0  0  0  0
   -1.1052    1.3975   -1.3089 C   0  0  0  0  0  0  0  0  0  0  0  0
    0.2822    1.0263   -1.0096 C   0  0  0  0  0  0  0  0  0  0  0  0
    1.2423    1.5324   -2.1003 C   0  0  0  0  0  0  0  0  0  0  0  0
    0.6866    1.5037    0.3174 C   0  0  0  0  0  0  0  0  0  0  0  0
    1.0471    1.8949    1.3887 C   0  0  0  0  0  0  0  0  0  0  0  0
   -3.2279    1.9705   -1.8299 H   0  0  0  0  0  0  0  0  0  0  0  0
    0.9449    1.1333   -3.0695 H   0  0  0  0  0  0  0  0  0  0  0  0
    1.2197    2.6204   -2.1465 H   0  0  0  0  0  0  0  0  0  0  0  0
    2.2591    1.2112   -1.8767 H   0  0  0  0  0  0  0  0  0  0  0  0
    1.3676    2.2428    2.3412 H   0  0  0  0  0  0  0  0  0  0  0  0
    0.2091   -2.2922   -1.6053 C   0  0  0  0  0  0  0  0  0  0  0  0
    0.2091   -2.2922   -0.2821 C   0  0  0  0  0  0  0  0  0  0  0  0
    0.2091   -1.0614    0.5873 C   0  0  0  0  0  3  0  0  0  0  0  0
    1.4475   -1.0316    1.4789 C   0  0  0  0  0  0  0  0  0  0  0  0
   -1.0944   -0.9928    1.3438 C   0  0  0  0  0  0  0  0  0  0  0  0
   -1.2491   -0.9926    2.6587 C   0  0  0  0  0  0  0  0  0  0  0  0
    0.2083   -3.2148   -2.1720 H   0  0  0  0  0  0  0  0  0  0  0  0
    0.2109   -1.3664   -2.1710 H   0  0  0  0  0  0  0  0  0  0  0  0
    0.2043   -3.2380    0.2555 H   0  0  0  0  0  0  0  0  0  0  0  0
    0.2457   -0.0171   -0.2115 H   0  0  0  0  0  0  0  0  0  0  0  0
    2.3502   -1.0400    0.8677 H   0  0  0  0  0  0  0  0  0  0  0  0
    1.4621   -0.1359    2.1020 H   0  0  0  0  0  0  0  0  0  0  0  0
    1.4800   -1.9034    2.1365 H   0  0  0  0  0  0  0  0  0  0  0  0
   -1.9776   -0.9571    0.7113 H   0  0  0  0  0  0  0  0  0  0  0  0
   -0.4087   -1.0319    3.3413 H   0  0  0  0  0  0  0  0  0  0  0  0
   -2.2355   -0.9495    3.1030 H   0  0  0  0  0  0  0  0  0  0  0  0
  1  2  3  0
  1  7  1  0
  2  3  1  0
  3  4  1  0
  3  5  1  0
  3 21  1  0
  4  8  1  0
  4  9  1  0
  4 10  1  0
  5  6  3  0
  6 11  1  0
 12 13  2  3
 12 18  1  0
 12 19  1  0
 13 14  1  0
 13 20  1  0
 14 15  1  0
 14 16  1  0
 15 22  1  0
 15 23  1  0
 15 24  1  0
 16 17  2  3
 16 25  1  0
 17 26  1  0
 17 27  1  0
M  RAD  1  14   2
M  END
>  <reaction>  (12) 
rxn_1182

>  <mol_properties>  (12) 
{"1": {"label": "*4", "atom_type": "Ct"}, "2": {"label": "*3", "atom_type": "Cs"}, "12": {"label": "*0", "atom_type": "Cd"}, "13": {"label": "*1", "atom_type": "Cs"}, "20": {"label": "*2", "atom_type": "H0"}}

>  <type>  (12) 
unop_8

>  <geom_source>  (12) 
Heuristics

$$$$

     RDKit          3D

 27 25  0  0  0  0  0  0  0  0999 V2000
    1.5138    0.3811   -2.8170 C   0  0  0  0  0  0  0  0  0  0  0  0
    0.8968    0.7075   -1.8456 C   0  0  0  0  0  0  0  0  0  0  0  0
    0.1743    1.1085   -0.6334 C   0  0  0  0  0  0  0  0  0  0  0  0
    1.0862    1.8949    0.3245 C   0  0  0  0  0  0  0  0  0  0  0  0
   -1.0348    1.8715   -0.9622 C   0  0  0  0  0  0  0  0  0  0  0  0
   -2.0179    2.5094   -1.2019 C   0  0  0  0  0  0  0  0  0  0  0  0
    2.0624    0.0910   -3.6806 H   0  0  0  0  0  0  0  0  0  0  0  0
    1.9564    1.2931    0.5848 H   0  0  0  0  0  0  0  0  0  0  0  0
    1.4246    2.8156   -0.1488 H   0  0  0  0  0  0  0  0  0  0  0  0
    0.5396    2.1469    1.2327 H   0  0  0  0  0  0  0  0  0  0  0  0
   -2.8919    3.0766   -1.4150 H   0  0  0  0  0  0  0  0  0  0  0  0
    0.1011   -2.2100   -1.2291 C   0  0  0  0  0  0  0  0  0  0  0  0
    0.1011   -2.2100    0.0941 C   0  0  0  0  0  0  0  0  0  0  0  0
    0.1011   -0.9792    0.9635 C   0  0  0  0  0  3  0  0  0  0  0  0
    1.3395   -0.9494    1.8551 C   0  0  0  0  0  0  0  0  0  0  0  0
   -1.2024   -0.9107    1.7200 C   0  0  0  0  0  0  0  0  0  0  0  0
   -1.3570   -0.9104    3.0350 C   0  0  0  0  0  0  0  0  0  0  0  0
    0.1004   -3.1326   -1.7958 H   0  0  0  0  0  0  0  0  0  0  0  0
    0.1029   -1.2842   -1.7948 H   0  0  0  0  0  0  0  0  0  0  0  0
    0.0964   -3.1558    0.6317 H   0  0  0  0  0  0  0  0  0  0  0  0
    0.1377    0.0651    0.1647 H   0  0  0  0  0  0  0  0  0  0  0  0
    2.2423   -0.9578    1.2439 H   0  0  0  0  0  0  0  0  0  0  0  0
    1.3542   -0.0537    2.4782 H   0  0  0  0  0  0  0  0  0  0  0  0
    1.3721   -1.8212    2.5127 H   0  0  0  0  0  0  0  0  0  0  0  0
   -2.0856   -0.8749    1.0875 H   0  0  0  0  0  0  0  0  0  0  0  0
   -0.5167   -0.9497    3.7175 H   0  0  0  0  0  0  0  0  0  0  0  0
   -2.3434   -0.8673    3.4792 H   0  0  0  0  0  0  0  0  0  0  0  0
  1  2  3  0
  1  7  1  0
  2  3  1  0
  3  4  1  0
  3  5  1  0
  3 21  1  0
  4  8  1  0
  4  9  1  0
  4 10  1  0
  5  6  3  0
  6 11  1  0
 12 13  2  3
 12 18  1  0
 12 19  1  0
 13 14  1  0
 13 20  1  0
 14 15  1  0
 14 16  1  0
 15 22  1  0
 15 23  1  0
 15 24  1  0
 16 17  2  3
 16 25  1  0
 17 26  1  0
 17 27  1  0
M  RAD  1  14   2
M  END
>  <reaction>  (13) 
rxn_1182

>  <mol_properties>  (13) 
{"1": {"label": "*4", "atom_type": "Ct"}, "2": {"label": "*3", "atom_type": "Cs"}, "12": {"label": "*0", "atom_type": "Cd"}, "13": {"label": "*1", "atom_type": "Cs"}, "20": {"label": "*2", "atom_type": "H0"}}

>  <type>  (13) 
unop_9

>  <geom_source>  (13) 
Heuristics

$$$$

     RDKit          3D

 27 25  0  0  0  0  0  0  0  0999 V2000
   -1.7736    0.9607   -2.4807 C   0  0  0  0  0  0  0  0  0  0  0  0
   -0.8195    1.0069   -1.7607 C   0  0  0  0  0  0  0  0  0  0  0  0
    0.3743    1.0643   -0.9099 C   0  0  0  0  0  0  0  0  0  0  0  0
    1.5452    1.7473   -1.6380 C   0  0  0  0  0  0  0  0  0  0  0  0
    0.0859    1.7242    0.3683 C   0  0  0  0  0  0  0  0  0  0  0  0
   -0.1182    2.2722    1.4117 C   0  0  0  0  0  0  0  0  0  0  0  0
   -2.6218    0.9197   -3.1208 H   0  0  0  0  0  0  0  0  0  0  0  0
    1.7658    1.2165   -2.5635 H   0  0  0  0  0  0  0  0  0  0  0  0
    1.2898    2.7788   -1.8769 H   0  0  0  0  0  0  0  0  0  0  0  0
    2.4299    1.7426   -1.0021 H   0  0  0  0  0  0  0  0  0  0  0  0
   -0.2996    2.7594    2.3395 H   0  0  0  0  0  0  0  0  0  0  0  0
    0.3012   -2.2542   -1.5056 C   0  0  0  0  0  0  0  0  0  0  0  0
    0.3012   -2.2542   -0.1824 C   0  0  0  0  0  0  0  0  0  0  0  0
    0.3012   -1.0234    0.6870 C   0  0  0  0  0  3  0  0  0  0  0  0
    1.5395   -0.9936    1.5786 C   0  0  0  0  0  0  0  0  0  0  0  0
   -1.0023   -0.9548    1.4435 C   0  0  0  0  0  0  0  0  0  0  0  0
   -1.1570   -0.9546    2.7584 C   0  0  0  0  0  0  0  0  0  0  0  0
    0.3004   -3.1768   -2.0724 H   0  0  0  0  0  0  0  0  0  0  0  0
    0.3029   -1.3284   -2.0714 H   0  0  0  0  0  0  0  0  0  0  0  0
    0.2964   -3.2000    0.3552 H   0  0  0  0  0  0  0  0  0  0  0  0
    0.3378    0.0209   -0.1118 H   0  0  0  0  0  0  0  0  0  0  0  0
    2.4423   -1.0020    0.9673 H   0  0  0  0  0  0  0  0  0  0  0  0
    1.5542   -0.0979    2.2017 H   0  0  0  0  0  0  0  0  0  0  0  0
    1.5721   -1.8654    2.2362 H   0  0  0  0  0  0  0  0  0  0  0  0
   -1.8855   -0.9191    0.8110 H   0  0  0  0  0  0  0  0  0  0  0  0
   -0.3166   -0.9939    3.4410 H   0  0  0  0  0  0  0  0  0  0  0  0
   -2.1434   -0.9115    3.2027 H   0  0  0  0  0  0  0  0  0  0  0  0
  1  2  3  0
  1  7  1  0
  2  3  1  0
  3  4  1  0
  3  5  1  0
  3 21  1  0
  4  8  1  0
  4  9  1  0
  4 10  1  0
  5  6  3  0
  6 11  1  0
 12 13  2  3
 12 18  1  0
 12 19  1  0
 13 14  1  0
 13 20  1  0
 14 15  1  0
 14 16  1  0
 15 22  1  0
 15 23  1  0
 15 24  1  0
 16 17  2  3
 16 25  1  0
 17 26  1  0
 17 27  1  0
M  RAD  1  14   2
M  END
>  <reaction>  (14) 
rxn_1182

>  <mol_properties>  (14) 
{"1": {"label": "*4", "atom_type": "Ct"}, "2": {"label": "*3", "atom_type": "Cs"}, "12": {"label": "*0", "atom_type": "Cd"}, "13": {"label": "*1", "atom_type": "Cs"}, "20": {"label": "*2", "atom_type": "H0"}}

>  <type>  (14) 
unop_10

>  <geom_source>  (14) 
Heuristics

$$$$

     RDKit          3D

 27 25  0  0  0  0  0  0  0  0999 V2000
    1.3283    2.9631    0.5700 C   0  0  0  0  0  0  0  0  0  0  0  0
    0.7807    2.0876   -0.0336 C   0  0  0  0  0  0  0  0  0  0  0  0
    0.0793    1.0147   -0.7473 C   0  0  0  0  0  0  0  0  0  0  0  0
   -1.4390    1.0862   -0.5080 C   0  0  0  0  0  0  0  0  0  0  0  0
    0.3929    1.0351   -2.1803 C   0  0  0  0  0  0  0  0  0  0  0  0
    0.6192    1.0387   -3.3549 C   0  0  0  0  0  0  0  0  0  0  0  0
    1.8152    3.7415    1.1067 H   0  0  0  0  0  0  0  0  0  0  0  0
   -1.6486    1.0298    0.5597 H   0  0  0  0  0  0  0  0  0  0  0  0
   -1.8376    2.0229   -0.8953 H   0  0  0  0  0  0  0  0  0  0  0  0
   -1.9331    0.2579   -1.0148 H   0  0  0  0  0  0  0  0  0  0  0  0
    0.8204    1.0420   -4.3991 H   0  0  0  0  0  0  0  0  0  0  0  0
    0.0061   -2.3037   -1.3430 C   0  0  0  0  0  0  0  0  0  0  0  0
    0.0061   -2.3037   -0.0198 C   0  0  0  0  0  0  0  0  0  0  0  0
    0.0061   -1.0729    0.8496 C   0  0  0  0  0  3  0  0  0  0  0  0
    1.2445   -1.0431    1.7412 C   0  0  0  0  0  0  0  0  0  0  0  0
   -1.2974   -1.0044    1.6061 C   0  0  0  0  0  0  0  0  0  0  0  0
   -1.4520   -1.0041    2.9210 C   0  0  0  0  0  0  0  0  0  0  0  0
    0.0054   -3.2263   -1.9098 H   0  0  0  0  0  0  0  0  0  0  0  0
    0.0079   -1.3779   -1.9088 H   0  0  0  0  0  0  0  0  0  0  0  0
    0.0014   -3.2495    0.5178 H   0  0  0  0  0  0  0  0  0  0  0  0
    0.0427   -0.0286    0.0508 H   0  0  0  0  0  0  0  0  0  0  0  0
    2.1473   -1.0515    1.1299 H   0  0  0  0  0  0  0  0  0  0  0  0
    1.2592   -0.1474    2.3643 H   0  0  0  0  0  0  0  0  0  0  0  0
    1.2771   -1.9149    2.3988 H   0  0  0  0  0  0  0  0  0  0  0  0
   -2.1805   -0.9686    0.9736 H   0  0  0  0  0  0  0  0  0  0  0  0
   -0.6116   -1.0434    3.6036 H   0  0  0  0  0  0  0  0  0  0  0  0
   -2.4384   -0.9610    3.3653 H   0  0  0  0  0  0  0  0  0  0  0  0
  1  2  3  0
  1  7  1  0
  2  3  1  0
  3  4  1  0
  3  5  1  0
  3 21  1  0
  4  8  1  0
  4  9  1  0
  4 10  1  0
  5  6  3  0
  6 11  1  0
 12 13  2  3
 12 18  1  0
 12 19  1  0
 13 14  1  0
 13 20  1  0
 14 15  1  0
 14 16  1  0
 15 22  1  0
 15 23  1  0
 15 24  1  0
 16 17  2  3
 16 25  1  0
 17 26  1  0
 17 27  1  0
M  RAD  1  14   2
M  END
>  <reaction>  (15) 
rxn_1182

>  <mol_properties>  (15) 
{"1": {"label": "*4", "atom_type": "Ct"}, "2": {"label": "*3", "atom_type": "Cs"}, "12": {"label": "*0", "atom_type": "Cd"}, "13": {"label": "*1", "atom_type": "Cs"}, "20": {"label": "*2", "atom_type": "H0"}}

>  <type>  (15) 
unop_11

>  <geom_source>  (15) 
Heuristics

$$$$

     RDKit          3D

 27 25  0  0  0  0  0  0  0  0999 V2000
    0.3734    0.2106   -3.1648 C   0  0  0  0  0  0  0  0  0  0  0  0
    0.3209    0.6203   -2.0422 C   0  0  0  0  0  0  0  0  0  0  0  0
    0.2966    1.1236   -0.6643 C   0  0  0  0  0  0  0  0  0  0  0  0
    1.5676    1.9289   -0.3426 C   0  0  0  0  0  0  0  0  0  0  0  0
   -0.9125    1.9139   -0.4076 C   0  0  0  0  0  0  0  0  0  0  0  0
   -1.8817    2.5756   -0.1761 C   0  0  0  0  0  0  0  0  0  0  0  0
    0.4201   -0.1537   -4.1628 H   0  0  0  0  0  0  0  0  0  0  0  0
    2.4491    1.3092   -0.5031 H   0  0  0  0  0  0  0  0  0  0  0  0
    1.6317    2.8046   -0.9872 H   0  0  0  0  0  0  0  0  0  0  0  0
    1.5445    2.2579    0.6958 H   0  0  0  0  0  0  0  0  0  0  0  0
   -2.7433    3.1640    0.0297 H   0  0  0  0  0  0  0  0  0  0  0  0
    0.2234   -2.1949   -1.2601 C   0  0  0  0  0  0  0  0  0  0  0  0
    0.2234   -2.1949    0.0631 C   0  0  0  0  0  0  0  0  0  0  0  0
    0.2234   -0.9641    0.9325 C   0  0  0  0  0  3  0  0  0  0  0  0
    1.4618   -0.9343    1.8241 C   0  0  0  0  0  0  0  0  0  0  0  0
   -1.0801   -0.8955    1.6891 C   0  0  0  0  0  0  0  0  0  0  0  0
   -1.2347   -0.8953    3.0040 C   0  0  0  0  0  0  0  0  0  0  0  0
    0.2227   -3.1175   -1.8268 H   0  0  0  0  0  0  0  0  0  0  0  0
    0.2252   -1.2691   -1.8258 H   0  0  0  0  0  0  0  0  0  0  0  0
    0.2187   -3.1407    0.6008 H   0  0  0  0  0  0  0  0  0  0  0  0
    0.2600    0.0802    0.1337 H   0  0  0  0  0  0  0  0  0  0  0  0
    2.3645   -0.9427    1.2129 H   0  0  0  0  0  0  0  0  0  0  0  0
    1.4764   -0.0386    2.4472 H   0  0  0  0  0  0  0  0  0  0  0  0
    1.4944   -1.8061    2.4818 H   0  0  0  0  0  0  0  0  0  0  0  0
   -1.9633   -0.8598    1.0565 H   0  0  0  0  0  0  0  0  0  0  0  0
   -0.3944   -0.9346    3.6865 H   0  0  0  0  0  0  0  0  0  0  0  0
   -2.2211   -0.8522    3.4482 H   0  0  0  0  0  0  0  0  0  0  0  0
  1  2  3  0
  1  7  1  0
  2  3  1  0
  3  4  1  0
  3  5  1  0
  3 21  1  0
  4  8  1  0
  4  9  1  0
  4 10  1  0
  5  6  3  0
  6 11  1  0
 12 13  2  3
 12 18  1  0
 12 19  1  0
 13 14  1  0
 13 20  1  0
 14 15  1  0
 14 16  1  0
 15 22  1  0
 15 23  1  0
 15 24  1  0
 16 17  2  3
 16 25  1  0
 17 26  1  0
 17 27  1  0
M  RAD  1  14   2
M  END
>  <reaction>  (16) 
rxn_1182

>  <mol_properties>  (16) 
{"1": {"label": "*4", "atom_type": "Ct"}, "2": {"label": "*3", "atom_type": "Cs"}, "12": {"label": "*0", "atom_type": "Cd"}, "13": {"label": "*1", "atom_type": "Cs"}, "20": {"label": "*2", "atom_type": "H0"}}

>  <type>  (16) 
unop_12

>  <geom_source>  (16) 
Heuristics

$$$$

     RDKit          3D

 27 25  0  0  0  0  0  0  0  0999 V2000
   -1.5022   -0.0330   -0.2081 C   0  0  0  0  0  0  0  0  0  0  0  0
   -1.6249   -1.0620    0.9135 C   0  0  0  0  0  0  0  0  0  0  0  0
    1.4460    1.1587   -1.1890 C   0  0  0  0  0  0  0  0  0  0  0  0
    1.0927    0.0452   -0.2037 C   0  0  0  0  0  3  0  0  0  0  0  0
    2.1404   -1.0296   -0.1786 C   0  0  0  0  0  0  0  0  0  0  0  0
    0.7940    0.5659    1.1781 C   0  0  0  0  0  0  0  0  0  0  0  0
    1.8199   -2.2943   -0.4534 C   0  0  0  0  0  0  0  0  0  0  0  0
    1.7065    1.1977    1.9251 C   0  0  0  0  0  0  0  0  0  0  0  0
   -2.1041    1.2424    0.1998 C   0  0  0  0  0  0  0  0  0  0  0  0
   -2.1678   -0.5187   -1.4230 C   0  0  0  0  0  0  0  0  0  0  0  0
   -2.5969    2.2905    0.5355 C   0  0  0  0  0  0  0  0  0  0  0  0
   -2.7129   -0.9186   -2.4216 C   0  0  0  0  0  0  0  0  0  0  0  0
   -0.2155    0.1664   -0.4749 H   0  0  0  0  0  0  0  0  0  0  0  0
   -2.6920   -1.2528    1.1624 H   0  0  0  0  0  0  0  0  0  0  0  0
   -1.1505   -2.0181    0.6048 H   0  0  0  0  0  0  0  0  0  0  0  0
   -1.1027   -0.6958    1.8233 H   0  0  0  0  0  0  0  0  0  0  0  0
    1.5467    0.7356   -2.2107 H   0  0  0  0  0  0  0  0  0  0  0  0
    0.6367    1.9189   -1.2051 H   0  0  0  0  0  0  0  0  0  0  0  0
    2.4017    1.6502   -0.9074 H   0  0  0  0  0  0  0  0  0  0  0  0
    3.1663   -0.7793    0.0770 H   0  0  0  0  0  0  0  0  0  0  0  0
   -0.2017    0.4099    1.5805 H   0  0  0  0  0  0  0  0  0  0  0  0
    2.5823   -3.0659   -0.4270 H   0  0  0  0  0  0  0  0  0  0  0  0
    0.7998   -2.5685   -0.7056 H   0  0  0  0  0  0  0  0  0  0  0  0
    1.4445    1.5510    2.9170 H   0  0  0  0  0  0  0  0  0  0  0  0
    2.7147    1.3637    1.5588 H   0  0  0  0  0  0  0  0  0  0  0  0
   -3.0295    3.2103    0.8301 H   0  0  0  0  0  0  0  0  0  0  0  0
   -3.1914   -1.2695   -3.2978 H   0  0  0  0  0  0  0  0  0  0  0  0
  1  2  1  0
  1  9  1  0
  1 10  1  0
  1 13  1  0
  2 14  1  0
  2 15  1  0
  2 16  1  0
  3  4  1  0
  3 17  1  0
  3 18  1  0
  3 19  1  0
  4  5  1  0
  4  6  1  0
  5  7  2  3
  5 20  1  0
  6  8  2  3
  6 21  1  0
  7 22  1  0
  7 23  1  0
  8 24  1  0
  8 25  1  0
  9 11  3  0
 10 12  3  0
 11 26  1  0
 12 27  1  0
M  RAD  1   4   2
M  END
>  <reaction>  (17) 
rxn_1182

>  <mol_properties>  (17) 
{"1": {"label": "*4", "atom_type": "Ct"}, "2": {"label": "*3", "atom_type": "Cs"}, "12": {"label": "*0", "atom_type": "Cd"}, "13": {"label": "*1", "atom_type": "Cs"}, "20": {"label": "*2", "atom_type": "H0"}}

>  <type>  (17) 
unop_13

>  <geom_source>  (17) 
AutoTST

$$$$
