
     RDKit          3D

 18 18  0  0  0  0  0  0  0  0999 V2000
   -2.4852    0.3210   -0.3966 C   0  0  0  0  0  0  0  0  0  0  0  0
   -1.5917   -0.2708    0.6941 C   0  0  0  0  0  0  0  0  0  0  0  0
   -0.1292   -0.1692    0.3493 C   0  0  0  0  0  0  0  0  0  0  0  0
    0.6099    0.9558    0.7015 C   0  0  0  0  0  0  0  0  0  0  0  0
    1.9447    1.0728    0.3458 C   0  0  0  0  0  0  0  0  0  0  0  0
    2.5646    0.0613   -0.3720 C   0  0  0  0  0  0  0  0  0  0  0  0
    1.8399   -1.0657   -0.7287 C   0  0  0  0  0  0  0  0  0  0  0  0
    0.5055   -1.1769   -0.3700 C   0  0  0  0  0  0  0  0  0  0  0  0
   -2.3325   -0.1971   -1.3452 H   0  0  0  0  0  0  0  0  0  0  0  0
   -2.2554    1.3763   -0.5546 H   0  0  0  0  0  0  0  0  0  0  0  0
   -3.5397    0.2376   -0.1280 H   0  0  0  0  0  0  0  0  0  0  0  0
   -1.7801    0.2462    1.6380 H   0  0  0  0  0  0  0  0  0  0  0  0
   -1.8568   -1.3190    0.8516 H   0  0  0  0  0  0  0  0  0  0  0  0
    0.1327    1.7497    1.2656 H   0  0  0  0  0  0  0  0  0  0  0  0
    2.5033    1.9550    0.6330 H   0  0  0  0  0  0  0  0  0  0  0  0
    3.6077    0.1491   -0.6484 H   0  0  0  0  0  0  0  0  0  0  0  0
    2.3163   -1.8632   -1.2854 H   0  0  0  0  0  0  0  0  0  0  0  0
   -0.0540   -2.0629   -0.6500 H   0  0  0  0  0  0  0  0  0  0  0  0
  1  2  1  0
  1  9  1  0
  1 10  1  0
  1 11  1  0
  2  3  1  0
  2 12  1  0
  2 13  1  0
  3  4  2  0
  3  8  1  0
  4  5  1  0
  4 14  1  0
  5  6  2  0
  5 15  1  0
  6  7  1  0
  6 16  1  0
  7  8  2  0
  7 17  1  0
  8 18  1  0
M  END
>  <reaction>  (1) 
rxn_1490

>  <mol_properties>  (1) 
{"1": {"label": "donator", "atom_type": "Cs"}, "11": {"label": "d_hydrogen", "atom_type": "H0"}}

>  <type>  (1) 
r1h

$$$$

     RDKit          3D

  8  7  0  0  0  0  0  0  0  0999 V2000
   -2.2129    0.4855    0.7390 C   0  0  0  0  0  0  0  0  0  0  0  0
   -1.2226    0.0526    0.1974 C   0  0  0  0  0  0  0  0  0  0  0  0
   -0.1006   -0.4575   -0.4419 C   0  0  0  0  0  3  0  0  0  0  0  0
    1.1960   -0.1737   -0.0342 C   0  0  0  0  0  0  0  0  0  0  0  0
    2.3329    0.0603    0.3036 C   0  0  0  0  0  0  0  0  0  0  0  0
   -3.0803    0.8696    1.2198 H   0  0  0  0  0  0  0  0  0  0  0  0
   -0.2433   -1.1067   -1.2980 H   0  0  0  0  0  0  0  0  0  0  0  0
    3.3308    0.2700    0.6058 H   0  0  0  0  0  0  0  0  0  0  0  0
  1  2  3  0
  1  6  1  0
  2  3  1  0
  3  4  1  0
  3  7  1  0
  4  5  3  0
  5  8  1  0
M  RAD  1   3   2
M  END
>  <reaction>  (2) 
rxn_1490

>  <mol_properties>  (2) 
{"2": {"label": "acceptor", "atom_type": "Cs"}}

>  <type>  (2) 
r2

$$$$

     RDKit          3D

  9  8  0  0  0  0  0  0  0  0999 V2000
   -2.1022   -0.6873    0.3932 C   0  0  0  0  0  0  0  0  0  0  0  0
   -1.2072   -0.1086   -0.1482 C   0  0  0  0  0  0  0  0  0  0  0  0
   -0.1242    0.6105   -0.8193 C   0  0  0  0  0  0  0  0  0  0  0  0
    1.2067    0.1106   -0.4741 C   0  0  0  0  0  0  0  0  0  0  0  0
    2.3005   -0.2875   -0.2012 C   0  0  0  0  0  0  0  0  0  0  0  0
   -2.8942   -1.2059    0.8778 H   0  0  0  0  0  0  0  0  0  0  0  0
   -0.1862    1.6723   -0.5649 H   0  0  0  0  0  0  0  0  0  0  0  0
   -0.2641    0.5418   -1.9017 H   0  0  0  0  0  0  0  0  0  0  0  0
    3.2709   -0.6459    0.0455 H   0  0  0  0  0  0  0  0  0  0  0  0
  1  2  3  0
  1  6  1  0
  2  3  1  0
  3  4  1  0
  3  7  1  0
  3  8  1  0
  4  5  3  0
  5  9  1  0
M  END
>  <reaction>  (3) 
rxn_1490

>  <mol_properties>  (3) 
{"2": {"label": "acceptor", "atom_type": "Cs"}, "8": {"label": "a_hydrogen", "atom_type": "H0"}}

>  <type>  (3) 
r2h

$$$$

     RDKit          3D

 26 25  0  0  0  0  0  0  0  0999 V2000
   -0.1383   -4.3710   -0.0175 C   0  0  0  0  0  0  0  0  0  0  0  0
   -0.3597   -3.2526    0.3576 C   0  0  0  0  0  0  0  0  0  0  0  0
   -0.5600   -1.8936    0.7625 C   0  0  0  0  0  0  0  0  0  0  0  0
   -1.8452   -1.3124    0.5197 C   0  0  0  0  0  0  0  0  0  0  0  0
   -2.8905   -0.7719    0.2822 C   0  0  0  0  0  0  0  0  0  0  0  0
    0.0382   -5.3704   -0.3348 H   0  0  0  0  0  0  0  0  0  0  0  0
   -0.1587   -1.6638    1.7489 H   0  0  0  0  0  0  0  0  0  0  0  0
   -3.8283   -0.3091    0.0904 H   0  0  0  0  0  0  0  0  0  0  0  0
    0.3233   -0.7594   -2.1753 C   0  0  0  0  0  0  0  0  0  0  0  0
    1.0061   -0.4349   -0.8752 C   0  0  0  0  0  0  0  0  0  0  0  0
    0.9529    0.9178   -0.3187 C   0  0  0  0  0  0  0  0  0  0  0  0
   -0.0472    1.8302   -0.6702 C   0  0  0  0  0  3  0  0  0  0  0  0
   -0.0997    3.0846   -0.0870 C   0  0  0  0  0  0  0  0  0  0  0  0
    0.8388    3.4572    0.8639 C   0  0  0  0  0  0  0  0  0  0  0  0
    1.8361    2.5618    1.2278 C   0  0  0  0  0  0  0  0  0  0  0  0
    1.8904    1.3096    0.6450 C   0  0  0  0  0  0  0  0  0  0  0  0
    0.7431   -0.1737   -2.9986 H   0  0  0  0  0  0  0  0  0  0  0  0
   -0.7478   -0.5528   -2.1292 H   0  0  0  0  0  0  0  0  0  0  0  0
    0.4429   -1.8167   -2.4119 H   0  0  0  0  0  0  0  0  0  0  0  0
    0.2728   -1.1709    0.0012 H   0  0  0  0  0  0  0  0  0  0  0  0
    1.9731   -0.9189   -0.7452 H   0  0  0  0  0  0  0  0  0  0  0  0
   -0.7916    1.5546   -1.4053 H   0  0  0  0  0  0  0  0  0  0  0  0
   -0.8807    3.7768   -0.3759 H   0  0  0  0  0  0  0  0  0  0  0  0
    0.7951    4.4388    1.3182 H   0  0  0  0  0  0  0  0  0  0  0  0
    2.5750    2.8439    1.9674 H   0  0  0  0  0  0  0  0  0  0  0  0
    2.6732    0.6161    0.9311 H   0  0  0  0  0  0  0  0  0  0  0  0
  1  2  3  0
  1  6  1  0
  2  3  1  0
  3  4  1  0
  3  7  1  0
  3 20  1  0
  4  5  3  0
  5  8  1  0
  9 10  1  0
  9 17  1  0
  9 18  1  0
  9 19  1  0
 10 11  2  3
 10 21  1  0
 11 12  1  0
 11 16  1  0
 12 13  1  0
 12 22  1  0
 13 14  2  0
 13 23  1  0
 14 15  1  0
 14 24  1  0
 15 16  2  0
 15 25  1  0
 16 26  1  0
M  RAD  1  12   2
M  END
>  <reaction>  (4) 
rxn_1490

>  <mol_properties>  (4) 
{"1": {"label": "*0", "atom_type": "Ct"}, "2": {"label": "*1", "atom_type": "Cs"}, "9": {"label": "*3", "atom_type": "Cd"}, "10": {"label": "*4", "atom_type": "Cd"}, "19": {"label": "*2", "atom_type": "H0"}}

>  <type>  (4) 
ts

$$$$

     RDKit          3D

 26 25  0  0  0  0  0  0  0  0999 V2000
   -0.3209   -3.8553    1.5982 C   0  0  0  0  0  0  0  0  0  0  0  0
   -0.6795   -2.9273    0.9352 C   0  0  0  0  0  0  0  0  0  0  0  0
   -1.1184   -1.7918    0.1238 C   0  0  0  0  0  3  0  0  0  0  0  0
   -2.4942   -1.9184   -0.3572 C   0  0  0  0  0  0  0  0  0  0  0  0
   -3.6185   -2.0219   -0.7502 C   0  0  0  0  0  0  0  0  0  0  0  0
   -0.0019   -4.6807    2.1880 H   0  0  0  0  0  0  0  0  0  0  0  0
   -1.0262   -0.8738    0.7110 H   0  0  0  0  0  0  0  0  0  0  0  0
   -4.6187   -2.1139   -1.0998 H   0  0  0  0  0  0  0  0  0  0  0  0
    0.9865   -0.4912   -2.2772 C   0  0  0  0  0  0  0  0  0  0  0  0
    0.9865   -0.4912   -0.7481 C   0  0  0  0  0  0  0  0  0  0  0  0
    0.9865    0.9031   -0.1787 C   0  0  0  0  0  0  0  0  0  0  0  0
   -0.2080    1.5720    0.0691 C   0  0  0  0  0  0  0  0  0  0  0  0
   -0.2113    2.8723    0.5500 C   0  0  0  0  0  0  0  0  0  0  0  0
    0.9865    3.5276    0.7918 C   0  0  0  0  0  0  0  0  0  0  0  0
    2.1843    2.8723    0.5500 C   0  0  0  0  0  0  0  0  0  0  0  0
    2.1810    1.5720    0.0691 C   0  0  0  0  0  0  0  0  0  0  0  0
    1.8678    0.0239   -2.6640 H   0  0  0  0  0  0  0  0  0  0  0  0
    0.1052    0.0239   -2.6640 H   0  0  0  0  0  0  0  0  0  0  0  0
    0.9865   -1.5096   -2.6695 H   0  0  0  0  0  0  0  0  0  0  0  0
   -0.0655   -1.1412   -0.3123 H   0  0  0  0  0  0  0  0  0  0  0  0
    1.8631   -1.0328   -0.3849 H   0  0  0  0  0  0  0  0  0  0  0  0
   -1.1489    1.0649   -0.1147 H   0  0  0  0  0  0  0  0  0  0  0  0
   -1.1521    3.3740    0.7399 H   0  0  0  0  0  0  0  0  0  0  0  0
    0.9865    4.5420    1.1702 H   0  0  0  0  0  0  0  0  0  0  0  0
    3.1251    3.3740    0.7399 H   0  0  0  0  0  0  0  0  0  0  0  0
    3.1219    1.0649   -0.1147 H   0  0  0  0  0  0  0  0  0  0  0  0
  1  2  3  0
  1  6  1  0
  2  3  1  0
  3  4  1  0
  3  7  1  0
  4  5  3  0
  5  8  1  0
  9 10  1  0
  9 17  1  0
  9 18  1  0
  9 19  1  0
 10 11  1  0
 10 20  1  0
 10 21  1  0
 11 12  2  0
 11 16  1  0
 12 13  1  0
 12 22  1  0
 13 14  2  0
 13 23  1  0
 14 15  1  0
 14 24  1  0
 15 16  2  0
 15 25  1  0
 16 26  1  0
M  RAD  1   3   2
M  END
>  <reaction>  (5) 
rxn_1490

>  <mol_properties>  (5) 
{"1": {"label": "*0", "atom_type": "Ct"}, "2": {"label": "*1", "atom_type": "Cs"}, "9": {"label": "*3", "atom_type": "Cd"}, "10": {"label": "*4", "atom_type": "Cd"}, "19": {"label": "*2", "atom_type": "H0"}}

>  <type>  (5) 
unop_1

>  <geom_source>  (5) 
Heuristics

$$$$

     RDKit          3D

 26 25  0  0  0  0  0  0  0  0999 V2000
   -1.6519   -3.8602   -1.4833 C   0  0  0  0  0  0  0  0  0  0  0  0
   -1.3571   -3.0144   -0.6915 C   0  0  0  0  0  0  0  0  0  0  0  0
   -0.9964   -1.9793    0.2775 C   0  0  0  0  0  3  0  0  0  0  0  0
   -2.1536   -1.2966    0.8565 C   0  0  0  0  0  0  0  0  0  0  0  0
   -3.0992   -0.7388    1.3296 C   0  0  0  0  0  0  0  0  0  0  0  0
   -1.9141   -4.6126   -2.1877 H   0  0  0  0  0  0  0  0  0  0  0  0
   -0.4059   -2.4291    1.0805 H   0  0  0  0  0  0  0  0  0  0  0  0
   -3.9404   -0.2426    1.7505 H   0  0  0  0  0  0  0  0  0  0  0  0
    1.1085   -0.6787   -2.1236 C   0  0  0  0  0  0  0  0  0  0  0  0
    1.1085   -0.6787   -0.5944 C   0  0  0  0  0  0  0  0  0  0  0  0
    1.1085    0.7156   -0.0250 C   0  0  0  0  0  0  0  0  0  0  0  0
   -0.0861    1.3845    0.2227 C   0  0  0  0  0  0  0  0  0  0  0  0
   -0.0893    2.6847    0.7036 C   0  0  0  0  0  0  0  0  0  0  0  0
    1.1085    3.3401    0.9454 C   0  0  0  0  0  0  0  0  0  0  0  0
    2.3063    2.6847    0.7036 C   0  0  0  0  0  0  0  0  0  0  0  0
    2.3030    1.3845    0.2227 C   0  0  0  0  0  0  0  0  0  0  0  0
    1.9897   -0.1636   -2.5104 H   0  0  0  0  0  0  0  0  0  0  0  0
    0.2272   -0.1636   -2.5104 H   0  0  0  0  0  0  0  0  0  0  0  0
    1.1085   -1.6971   -2.5159 H   0  0  0  0  0  0  0  0  0  0  0  0
    0.0565   -1.3287   -0.1587 H   0  0  0  0  0  0  0  0  0  0  0  0
    1.9851   -1.2204   -0.2313 H   0  0  0  0  0  0  0  0  0  0  0  0
   -1.0270    0.8774    0.0390 H   0  0  0  0  0  0  0  0  0  0  0  0
   -1.0301    3.1864    0.8935 H   0  0  0  0  0  0  0  0  0  0  0  0
    1.1085    4.3544    1.3238 H   0  0  0  0  0  0  0  0  0  0  0  0
    3.2471    3.1864    0.8935 H   0  0  0  0  0  0  0  0  0  0  0  0
    3.2439    0.8774    0.0390 H   0  0  0  0  0  0  0  0  0  0  0  0
  1  2  3  0
  1  6  1  0
  2  3  1  0
  3  4  1  0
  3  7  1  0
  4  5  3  0
  5  8  1  0
  9 10  1  0
  9 17  1  0
  9 18  1  0
  9 19  1  0
 10 11  1  0
 10 20  1  0
 10 21  1  0
 11 12  2  0
 11 16  1  0
 12 13  1  0
 12 22  1  0
 13 14  2  0
 13 23  1  0
 14 15  1  0
 14 24  1  0
 15 16  2  0
 15 25  1  0
 16 26  1  0
M  RAD  1   3   2
M  END
>  <reaction>  (6) 
rxn_1490

>  <mol_properties>  (6) 
{"1": {"label": "*0", "atom_type": "Ct"}, "2": {"label": "*1", "atom_type": "Cs"}, "9": {"label": "*3", "atom_type": "Cd"}, "10": {"label": "*4", "atom_type": "Cd"}, "19": {"label": "*2", "atom_type": "H0"}}

>  <type>  (6) 
unop_2

>  <geom_source>  (6) 
Heuristics

$$$$

     RDKit          3D

 26 25  0  0  0  0  0  0  0  0999 V2000
   -0.5995   -2.8903    2.4291 C   0  0  0  0  0  0  0  0  0  0  0  0
   -0.8577   -2.3861    1.3763 C   0  0  0  0  0  0  0  0  0  0  0  0
   -1.1736   -1.7692    0.0879 C   0  0  0  0  0  3  0  0  0  0  0  0
   -2.1567   -2.5220   -0.6914 C   0  0  0  0  0  0  0  0  0  0  0  0
   -2.9599   -3.1372   -1.3282 C   0  0  0  0  0  0  0  0  0  0  0  0
   -0.3698   -3.3387    3.3656 H   0  0  0  0  0  0  0  0  0  0  0  0
   -1.5491   -0.7562    0.2572 H   0  0  0  0  0  0  0  0  0  0  0  0
   -3.6745   -3.6844   -1.8947 H   0  0  0  0  0  0  0  0  0  0  0  0
    0.9312   -0.4686   -2.3131 C   0  0  0  0  0  0  0  0  0  0  0  0
    0.9312   -0.4686   -0.7840 C   0  0  0  0  0  0  0  0  0  0  0  0
    0.9312    0.9257   -0.2146 C   0  0  0  0  0  0  0  0  0  0  0  0
   -0.2633    1.5946    0.0331 C   0  0  0  0  0  0  0  0  0  0  0  0
   -0.2666    2.8948    0.5141 C   0  0  0  0  0  0  0  0  0  0  0  0
    0.9312    3.5502    0.7559 C   0  0  0  0  0  0  0  0  0  0  0  0
    2.1290    2.8948    0.5141 C   0  0  0  0  0  0  0  0  0  0  0  0
    2.1257    1.5946    0.0331 C   0  0  0  0  0  0  0  0  0  0  0  0
    1.8125    0.0464   -2.7000 H   0  0  0  0  0  0  0  0  0  0  0  0
    0.0499    0.0464   -2.7000 H   0  0  0  0  0  0  0  0  0  0  0  0
    0.9312   -1.4870   -2.7055 H   0  0  0  0  0  0  0  0  0  0  0  0
   -0.1207   -1.1186   -0.3483 H   0  0  0  0  0  0  0  0  0  0  0  0
    1.8079   -1.0103   -0.4209 H   0  0  0  0  0  0  0  0  0  0  0  0
   -1.2042    1.0874   -0.1506 H   0  0  0  0  0  0  0  0  0  0  0  0
   -1.2074    3.3965    0.7040 H   0  0  0  0  0  0  0  0  0  0  0  0
    0.9312    4.5645    1.1342 H   0  0  0  0  0  0  0  0  0  0  0  0
    3.0698    3.3965    0.7040 H   0  0  0  0  0  0  0  0  0  0  0  0
    3.0666    1.0874   -0.1506 H   0  0  0  0  0  0  0  0  0  0  0  0
  1  2  3  0
  1  6  1  0
  2  3  1  0
  3  4  1  0
  3  7  1  0
  4  5  3  0
  5  8  1  0
  9 10  1  0
  9 17  1  0
  9 18  1  0
  9 19  1  0
 10 11  1  0
 10 20  1  0
 10 21  1  0
 11 12  2  0
 11 16  1  0
 12 13  1  0
 12 22  1  0
 13 14  2  0
 13 23  1  0
 14 15  1  0
 14 24  1  0
 15 16  2  0
 15 25  1  0
 16 26  1  0
M  RAD  1   3   2
M  END
>  <reaction>  (7) 
rxn_1490

>  <mol_properties>  (7) 
{"1": {"label": "*0", "atom_type": "Ct"}, "2": {"label": "*1", "atom_type": "Cs"}, "9": {"label": "*3", "atom_type": "Cd"}, "10": {"label": "*4", "atom_type": "Cd"}, "19": {"label": "*2", "atom_type": "H0"}}

>  <type>  (7) 
unop_3

>  <geom_source>  (7) 
Heuristics

$$$$

     RDKit          3D

 26 25  0  0  0  0  0  0  0  0999 V2000
   -3.3540   -1.1046   -0.8688 C   0  0  0  0  0  0  0  0  0  0  0  0
   -2.3653   -1.6432   -0.4668 C   0  0  0  0  0  0  0  0  0  0  0  0
   -1.1554   -2.3023    0.0251 C   0  0  0  0  0  3  0  0  0  0  0  0
   -0.7028   -1.7947    1.3204 C   0  0  0  0  0  0  0  0  0  0  0  0
   -0.3329   -1.3798    2.3789 C   0  0  0  0  0  0  0  0  0  0  0  0
   -4.2336   -0.6255   -1.2264 H   0  0  0  0  0  0  0  0  0  0  0  0
   -1.3391   -3.3774    0.1050 H   0  0  0  0  0  0  0  0  0  0  0  0
   -0.0039   -1.0108    3.3205 H   0  0  0  0  0  0  0  0  0  0  0  0
    0.9495   -1.0017   -2.3759 C   0  0  0  0  0  0  0  0  0  0  0  0
    0.9495   -1.0017   -0.8468 C   0  0  0  0  0  0  0  0  0  0  0  0
    0.9495    0.3926   -0.2774 C   0  0  0  0  0  0  0  0  0  0  0  0
   -0.2450    1.0615   -0.0296 C   0  0  0  0  0  0  0  0  0  0  0  0
   -0.2483    2.3617    0.4513 C   0  0  0  0  0  0  0  0  0  0  0  0
    0.9495    3.0171    0.6931 C   0  0  0  0  0  0  0  0  0  0  0  0
    2.1473    2.3617    0.4513 C   0  0  0  0  0  0  0  0  0  0  0  0
    2.1440    1.0615   -0.0296 C   0  0  0  0  0  0  0  0  0  0  0  0
    1.8308   -0.4866   -2.7627 H   0  0  0  0  0  0  0  0  0  0  0  0
    0.0682   -0.4866   -2.7627 H   0  0  0  0  0  0  0  0  0  0  0  0
    0.9495   -2.0201   -2.7682 H   0  0  0  0  0  0  0  0  0  0  0  0
   -0.1025   -1.6517   -0.4110 H   0  0  0  0  0  0  0  0  0  0  0  0
    1.8261   -1.5434   -0.4837 H   0  0  0  0  0  0  0  0  0  0  0  0
   -1.1859    0.5544   -0.2134 H   0  0  0  0  0  0  0  0  0  0  0  0
   -1.1891    2.8634    0.6412 H   0  0  0  0  0  0  0  0  0  0  0  0
    0.9495    4.0314    1.0715 H   0  0  0  0  0  0  0  0  0  0  0  0
    3.0881    2.8634    0.6412 H   0  0  0  0  0  0  0  0  0  0  0  0
    3.0849    0.5544   -0.2134 H   0  0  0  0  0  0  0  0  0  0  0  0
  1  2  3  0
  1  6  1  0
  2  3  1  0
  3  4  1  0
  3  7  1  0
  4  5  3  0
  5  8  1  0
  9 10  1  0
  9 17  1  0
  9 18  1  0
  9 19  1  0
 10 11  1  0
 10 20  1  0
 10 21  1  0
 11 12  2  0
 11 16  1  0
 12 13  1  0
 12 22  1  0
 13 14  2  0
 13 23  1  0
 14 15  1  0
 14 24  1  0
 15 16  2  0
 15 25  1  0
 16 26  1  0
M  RAD  1   3   2
M  END
>  <reaction>  (8) 
rxn_1490

>  <mol_properties>  (8) 
{"1": {"label": "*0", "atom_type": "Ct"}, "2": {"label": "*1", "atom_type": "Cs"}, "9": {"label": "*3", "atom_type": "Cd"}, "10": {"label": "*4", "atom_type": "Cd"}, "19": {"label": "*2", "atom_type": "H0"}}

>  <type>  (8) 
unop_4

>  <geom_source>  (8) 
Heuristics

$$$$

     RDKit          3D

 26 25  0  0  0  0  0  0  0  0999 V2000
   -1.3042   -1.7669    2.6687 C   0  0  0  0  0  0  0  0  0  0  0  0
   -1.3084   -1.7695    1.4732 C   0  0  0  0  0  0  0  0  0  0  0  0
   -1.3135   -1.7727    0.0102 C   0  0  0  0  0  3  0  0  0  0  0  0
   -1.3216   -3.1166   -0.5680 C   0  0  0  0  0  0  0  0  0  0  0  0
   -1.3281   -4.2147   -1.0405 C   0  0  0  0  0  0  0  0  0  0  0  0
   -1.3004   -1.7646    3.7322 H   0  0  0  0  0  0  0  0  0  0  0  0
   -2.1886   -1.2227   -0.3471 H   0  0  0  0  0  0  0  0  0  0  0  0
   -1.3340   -5.1916   -1.4608 H   0  0  0  0  0  0  0  0  0  0  0  0
    0.7914   -0.4721   -2.3908 C   0  0  0  0  0  0  0  0  0  0  0  0
    0.7914   -0.4721   -0.8617 C   0  0  0  0  0  0  0  0  0  0  0  0
    0.7914    0.9222   -0.2923 C   0  0  0  0  0  0  0  0  0  0  0  0
   -0.4032    1.5911   -0.0445 C   0  0  0  0  0  0  0  0  0  0  0  0
   -0.4064    2.8913    0.4364 C   0  0  0  0  0  0  0  0  0  0  0  0
    0.7914    3.5467    0.6782 C   0  0  0  0  0  0  0  0  0  0  0  0
    1.9892    2.8913    0.4364 C   0  0  0  0  0  0  0  0  0  0  0  0
    1.9859    1.5911   -0.0445 C   0  0  0  0  0  0  0  0  0  0  0  0
    1.6726    0.0430   -2.7776 H   0  0  0  0  0  0  0  0  0  0  0  0
   -0.0899    0.0430   -2.7776 H   0  0  0  0  0  0  0  0  0  0  0  0
    0.7914   -1.4905   -2.7831 H   0  0  0  0  0  0  0  0  0  0  0  0
   -0.2606   -1.1221   -0.4259 H   0  0  0  0  0  0  0  0  0  0  0  0
    1.6680   -1.0138   -0.4986 H   0  0  0  0  0  0  0  0  0  0  0  0
   -1.3441    1.0840   -0.2283 H   0  0  0  0  0  0  0  0  0  0  0  0
   -1.3472    3.3930    0.6263 H   0  0  0  0  0  0  0  0  0  0  0  0
    0.7914    4.5610    1.0565 H   0  0  0  0  0  0  0  0  0  0  0  0
    2.9300    3.3930    0.6263 H   0  0  0  0  0  0  0  0  0  0  0  0
    2.9268    1.0840   -0.2283 H   0  0  0  0  0  0  0  0  0  0  0  0
  1  2  3  0
  1  6  1  0
  2  3  1  0
  3  4  1  0
  3  7  1  0
  4  5  3  0
  5  8  1  0
  9 10  1  0
  9 17  1  0
  9 18  1  0
  9 19  1  0
 10 11  1  0
 10 20  1  0
 10 21  1  0
 11 12  2  0
 11 16  1  0
 12 13  1  0
 12 22  1  0
 13 14  2  0
 13 23  1  0
 14 15  1  0
 14 24  1  0
 15 16  2  0
 15 25  1  0
 16 26  1  0
M  RAD  1   3   2
M  END
>  <reaction>  (9) 
rxn_1490

>  <mol_properties>  (9) 
{"1": {"label": "*0", "atom_type": "Ct"}, "2": {"label": "*1", "atom_type": "Cs"}, "9": {"label": "*3", "atom_type": "Cd"}, "10": {"label": "*4", "atom_type": "Cd"}, "19": {"label": "*2", "atom_type": "H0"}}

>  <type>  (9) 
unop_5

>  <geom_source>  (9) 
Heuristics

$$$$

     RDKit          3D

 26 25  0  0  0  0  0  0  0  0999 V2000
   -3.2948   -0.5462    0.2094 C   0  0  0  0  0  0  0  0  0  0  0  0
   -2.3862   -1.3121    0.0789 C   0  0  0  0  0  0  0  0  0  0  0  0
   -1.2743   -2.2494   -0.0808 C   0  0  0  0  0  3  0  0  0  0  0  0
   -0.3610   -2.2678    1.0620 C   0  0  0  0  0  0  0  0  0  0  0  0
    0.3853   -2.2829    1.9958 C   0  0  0  0  0  0  0  0  0  0  0  0
   -4.1030    0.1351    0.3255 H   0  0  0  0  0  0  0  0  0  0  0  0
   -1.6725   -3.2556   -0.2386 H   0  0  0  0  0  0  0  0  0  0  0  0
    1.0492   -2.2962    2.8265 H   0  0  0  0  0  0  0  0  0  0  0  0
    0.8306   -0.9488   -2.4818 C   0  0  0  0  0  0  0  0  0  0  0  0
    0.8306   -0.9488   -0.9527 C   0  0  0  0  0  0  0  0  0  0  0  0
    0.8306    0.4455   -0.3833 C   0  0  0  0  0  0  0  0  0  0  0  0
   -0.3639    1.1144   -0.1356 C   0  0  0  0  0  0  0  0  0  0  0  0
   -0.3672    2.4146    0.3454 C   0  0  0  0  0  0  0  0  0  0  0  0
    0.8306    3.0700    0.5872 C   0  0  0  0  0  0  0  0  0  0  0  0
    2.0284    2.4146    0.3454 C   0  0  0  0  0  0  0  0  0  0  0  0
    2.0251    1.1144   -0.1356 C   0  0  0  0  0  0  0  0  0  0  0  0
    1.7119   -0.4337   -2.8687 H   0  0  0  0  0  0  0  0  0  0  0  0
   -0.0507   -0.4337   -2.8687 H   0  0  0  0  0  0  0  0  0  0  0  0
    0.8306   -1.9672   -2.8741 H   0  0  0  0  0  0  0  0  0  0  0  0
   -0.2214   -1.5988   -0.5170 H   0  0  0  0  0  0  0  0  0  0  0  0
    1.7072   -1.4905   -0.5896 H   0  0  0  0  0  0  0  0  0  0  0  0
   -1.3048    0.6073   -0.3193 H   0  0  0  0  0  0  0  0  0  0  0  0
   -1.3080    2.9163    0.5353 H   0  0  0  0  0  0  0  0  0  0  0  0
    0.8306    4.0843    0.9655 H   0  0  0  0  0  0  0  0  0  0  0  0
    2.9692    2.9163    0.5353 H   0  0  0  0  0  0  0  0  0  0  0  0
    2.9660    0.6073   -0.3193 H   0  0  0  0  0  0  0  0  0  0  0  0
  1  2  3  0
  1  6  1  0
  2  3  1  0
  3  4  1  0
  3  7  1  0
  4  5  3  0
  5  8  1  0
  9 10  1  0
  9 17  1  0
  9 18  1  0
  9 19  1  0
 10 11  1  0
 10 20  1  0
 10 21  1  0
 11 12  2  0
 11 16  1  0
 12 13  1  0
 12 22  1  0
 13 14  2  0
 13 23  1  0
 14 15  1  0
 14 24  1  0
 15 16  2  0
 15 25  1  0
 16 26  1  0
M  RAD  1   3   2
M  END
>  <reaction>  (10) 
rxn_1490

>  <mol_properties>  (10) 
{"1": {"label": "*0", "atom_type": "Ct"}, "2": {"label": "*1", "atom_type": "Cs"}, "9": {"label": "*3", "atom_type": "Cd"}, "10": {"label": "*4", "atom_type": "Cd"}, "19": {"label": "*2", "atom_type": "H0"}}

>  <type>  (10) 
unop_6

>  <geom_source>  (10) 
Heuristics

$$$$

     RDKit          3D

 26 25  0  0  0  0  0  0  0  0999 V2000
   -2.8663   -0.4804    1.3413 C   0  0  0  0  0  0  0  0  0  0  0  0
   -2.1968   -1.2163    0.6783 C   0  0  0  0  0  0  0  0  0  0  0  0
   -1.3776   -2.1168   -0.1330 C   0  0  0  0  0  3  0  0  0  0  0  0
   -0.2701   -2.7210    0.6078 C   0  0  0  0  0  0  0  0  0  0  0  0
    0.6349   -3.2147    1.2132 C   0  0  0  0  0  0  0  0  0  0  0  0
   -3.4618    0.1742    1.9311 H   0  0  0  0  0  0  0  0  0  0  0  0
   -2.0112   -2.9091   -0.5412 H   0  0  0  0  0  0  0  0  0  0  0  0
    1.4399   -3.6538    1.7518 H   0  0  0  0  0  0  0  0  0  0  0  0
    0.7273   -0.8162   -2.5341 C   0  0  0  0  0  0  0  0  0  0  0  0
    0.7273   -0.8162   -1.0049 C   0  0  0  0  0  0  0  0  0  0  0  0
    0.7273    0.5781   -0.4355 C   0  0  0  0  0  0  0  0  0  0  0  0
   -0.4672    1.2470   -0.1878 C   0  0  0  0  0  0  0  0  0  0  0  0
   -0.4705    2.5473    0.2931 C   0  0  0  0  0  0  0  0  0  0  0  0
    0.7273    3.2026    0.5349 C   0  0  0  0  0  0  0  0  0  0  0  0
    1.9251    2.5473    0.2931 C   0  0  0  0  0  0  0  0  0  0  0  0
    1.9218    1.2470   -0.1878 C   0  0  0  0  0  0  0  0  0  0  0  0
    1.6086   -0.3011   -2.9209 H   0  0  0  0  0  0  0  0  0  0  0  0
   -0.1540   -0.3011   -2.9209 H   0  0  0  0  0  0  0  0  0  0  0  0
    0.7273   -1.8346   -2.9264 H   0  0  0  0  0  0  0  0  0  0  0  0
   -0.3247   -1.4662   -0.5692 H   0  0  0  0  0  0  0  0  0  0  0  0
    1.6039   -1.3579   -0.6418 H   0  0  0  0  0  0  0  0  0  0  0  0
   -1.4081    0.7399   -0.3715 H   0  0  0  0  0  0  0  0  0  0  0  0
   -1.4113    3.0490    0.4830 H   0  0  0  0  0  0  0  0  0  0  0  0
    0.7273    4.2170    0.9133 H   0  0  0  0  0  0  0  0  0  0  0  0
    2.8659    3.0490    0.4830 H   0  0  0  0  0  0  0  0  0  0  0  0
    2.8627    0.7399   -0.3715 H   0  0  0  0  0  0  0  0  0  0  0  0
  1  2  3  0
  1  6  1  0
  2  3  1  0
  3  4  1  0
  3  7  1  0
  4  5  3  0
  5  8  1  0
  9 10  1  0
  9 17  1  0
  9 18  1  0
  9 19  1  0
 10 11  1  0
 10 20  1  0
 10 21  1  0
 11 12  2  0
 11 16  1  0
 12 13  1  0
 12 22  1  0
 13 14  2  0
 13 23  1  0
 14 15  1  0
 14 24  1  0
 15 16  2  0
 15 25  1  0
 16 26  1  0
M  RAD  1   3   2
M  END
>  <reaction>  (11) 
rxn_1490

>  <mol_properties>  (11) 
{"1": {"label": "*0", "atom_type": "Ct"}, "2": {"label": "*1", "atom_type": "Cs"}, "9": {"label": "*3", "atom_type": "Cd"}, "10": {"label": "*4", "atom_type": "Cd"}, "19": {"label": "*2", "atom_type": "H0"}}

>  <type>  (11) 
unop_7

>  <geom_source>  (11) 
Heuristics

$$$$

     RDKit          3D

 26 25  0  0  0  0  0  0  0  0999 V2000
   -0.4661   -4.3788    0.4665 C   0  0  0  0  0  0  0  0  0  0  0  0
   -0.7446   -3.2236    0.3360 C   0  0  0  0  0  0  0  0  0  0  0  0
   -1.0854   -1.8098    0.1763 C   0  0  0  0  0  3  0  0  0  0  0  0
   -2.5255   -1.5646    0.0960 C   0  0  0  0  0  0  0  0  0  0  0  0
   -3.7022   -1.3643    0.0303 C   0  0  0  0  0  0  0  0  0  0  0  0
   -0.2183   -5.4065    0.5826 H   0  0  0  0  0  0  0  0  0  0  0  0
   -0.6708   -1.2434    1.0149 H   0  0  0  0  0  0  0  0  0  0  0  0
   -4.7490   -1.1861   -0.0281 H   0  0  0  0  0  0  0  0  0  0  0  0
    1.0195   -0.5092   -2.2247 C   0  0  0  0  0  0  0  0  0  0  0  0
    1.0195   -0.5092   -0.6956 C   0  0  0  0  0  0  0  0  0  0  0  0
    1.0195    0.8851   -0.1262 C   0  0  0  0  0  0  0  0  0  0  0  0
   -0.1751    1.5540    0.1216 C   0  0  0  0  0  0  0  0  0  0  0  0
   -0.1783    2.8542    0.6025 C   0  0  0  0  0  0  0  0  0  0  0  0
    1.0195    3.5096    0.8443 C   0  0  0  0  0  0  0  0  0  0  0  0
    2.2173    2.8542    0.6025 C   0  0  0  0  0  0  0  0  0  0  0  0
    2.2140    1.5540    0.1216 C   0  0  0  0  0  0  0  0  0  0  0  0
    1.9008    0.0058   -2.6115 H   0  0  0  0  0  0  0  0  0  0  0  0
    0.1382    0.0058   -2.6115 H   0  0  0  0  0  0  0  0  0  0  0  0
    1.0195   -1.5276   -2.6170 H   0  0  0  0  0  0  0  0  0  0  0  0
   -0.0325   -1.1592   -0.2598 H   0  0  0  0  0  0  0  0  0  0  0  0
    1.8961   -1.0509   -0.3325 H   0  0  0  0  0  0  0  0  0  0  0  0
   -1.1159    1.0468   -0.0622 H   0  0  0  0  0  0  0  0  0  0  0  0
   -1.1191    3.3559    0.7924 H   0  0  0  0  0  0  0  0  0  0  0  0
    1.0195    4.5239    1.2226 H   0  0  0  0  0  0  0  0  0  0  0  0
    3.1581    3.3559    0.7924 H   0  0  0  0  0  0  0  0  0  0  0  0
    3.1549    1.0468   -0.0622 H   0  0  0  0  0  0  0  0  0  0  0  0
  1  2  3  0
  1  6  1  0
  2  3  1  0
  3  4  1  0
  3  7  1  0
  4  5  3  0
  5  8  1  0
  9 10  1  0
  9 17  1  0
  9 18  1  0
  9 19  1  0
 10 11  1  0
 10 20  1  0
 10 21  1  0
 11 12  2  0
 11 16  1  0
 12 13  1  0
 12 22  1  0
 13 14  2  0
 13 23  1  0
 14 15  1  0
 14 24  1  0
 15 16  2  0
 15 25  1  0
 16 26  1  0
M  RAD  1   3   2
M  END
>  <reaction>  (12) 
rxn_1490

>  <mol_properties>  (12) 
{"1": {"label": "*0", "atom_type": "Ct"}, "2": {"label": "*1", "atom_type": "Cs"}, "9": {"label": "*3", "atom_type": "Cd"}, "10": {"label": "*4", "atom_type": "Cd"}, "19": {"label": "*2", "atom_type": "H0"}}

>  <type>  (12) 
unop_8

>  <geom_source>  (12) 
Heuristics

$$$$

     RDKit          3D

 26 25  0  0  0  0  0  0  0  0999 V2000
   -3.0255   -2.0071   -1.6109 C   0  0  0  0  0  0  0  0  0  0  0  0
   -2.1372   -2.1219   -0.8192 C   0  0  0  0  0  0  0  0  0  0  0  0
   -1.0501   -2.2624    0.1498 C   0  0  0  0  0  3  0  0  0  0  0  0
   -1.2169   -1.4226    1.3361 C   0  0  0  0  0  0  0  0  0  0  0  0
   -1.3531   -0.7363    2.3055 C   0  0  0  0  0  0  0  0  0  0  0  0
   -3.8157   -1.9050   -2.3153 H   0  0  0  0  0  0  0  0  0  0  0  0
   -0.9768   -3.3090    0.4581 H   0  0  0  0  0  0  0  0  0  0  0  0
   -1.4743   -0.1258    3.1678 H   0  0  0  0  0  0  0  0  0  0  0  0
    1.0548   -0.9618   -2.2512 C   0  0  0  0  0  0  0  0  0  0  0  0
    1.0548   -0.9618   -0.7221 C   0  0  0  0  0  0  0  0  0  0  0  0
    1.0548    0.4325   -0.1527 C   0  0  0  0  0  0  0  0  0  0  0  0
   -0.1398    1.1015    0.0950 C   0  0  0  0  0  0  0  0  0  0  0  0
   -0.1431    2.4017    0.5760 C   0  0  0  0  0  0  0  0  0  0  0  0
    1.0548    3.0570    0.8178 C   0  0  0  0  0  0  0  0  0  0  0  0
    2.2526    2.4017    0.5760 C   0  0  0  0  0  0  0  0  0  0  0  0
    2.2493    1.1015    0.0950 C   0  0  0  0  0  0  0  0  0  0  0  0
    1.9360   -0.4467   -2.6380 H   0  0  0  0  0  0  0  0  0  0  0  0
    0.1735   -0.4467   -2.6380 H   0  0  0  0  0  0  0  0  0  0  0  0
    1.0548   -1.9802   -2.6435 H   0  0  0  0  0  0  0  0  0  0  0  0
    0.0028   -1.6118   -0.2863 H   0  0  0  0  0  0  0  0  0  0  0  0
    1.9314   -1.5034   -0.3590 H   0  0  0  0  0  0  0  0  0  0  0  0
   -1.0807    0.5943   -0.0887 H   0  0  0  0  0  0  0  0  0  0  0  0
   -1.0838    2.9034    0.7659 H   0  0  0  0  0  0  0  0  0  0  0  0
    1.0547    4.0714    1.1961 H   0  0  0  0  0  0  0  0  0  0  0  0
    3.1933    2.9034    0.7659 H   0  0  0  0  0  0  0  0  0  0  0  0
    3.1902    0.5943   -0.0887 H   0  0  0  0  0  0  0  0  0  0  0  0
  1  2  3  0
  1  6  1  0
  2  3  1  0
  3  4  1  0
  3  7  1  0
  4  5  3  0
  5  8  1  0
  9 10  1  0
  9 17  1  0
  9 18  1  0
  9 19  1  0
 10 11  1  0
 10 20  1  0
 10 21  1  0
 11 12  2  0
 11 16  1  0
 12 13  1  0
 12 22  1  0
 13 14  2  0
 13 23  1  0
 14 15  1  0
 14 24  1  0
 15 16  2  0
 15 25  1  0
 16 26  1  0
M  RAD  1   3   2
M  END
>  <reaction>  (13) 
rxn_1490

>  <mol_properties>  (13) 
{"1": {"label": "*0", "atom_type": "Ct"}, "2": {"label": "*1", "atom_type": "Cs"}, "9": {"label": "*3", "atom_type": "Cd"}, "10": {"label": "*4", "atom_type": "Cd"}, "19": {"label": "*2", "atom_type": "H0"}}

>  <type>  (13) 
unop_9

>  <geom_source>  (13) 
Heuristics

$$$$

     RDKit          3D

 26 25  0  0  0  0  0  0  0  0999 V2000
   -0.9538   -4.3659   -0.6538 C   0  0  0  0  0  0  0  0  0  0  0  0
   -0.9932   -3.2407   -0.2518 C   0  0  0  0  0  0  0  0  0  0  0  0
   -1.0413   -1.8637    0.2401 C   0  0  0  0  0  3  0  0  0  0  0  0
   -2.3988   -1.3911    0.5126 C   0  0  0  0  0  0  0  0  0  0  0  0
   -3.5080   -1.0049    0.7353 C   0  0  0  0  0  0  0  0  0  0  0  0
   -0.9188   -5.3669   -1.0114 H   0  0  0  0  0  0  0  0  0  0  0  0
   -0.4443   -1.7874    1.1532 H   0  0  0  0  0  0  0  0  0  0  0  0
   -4.4948   -0.6613    0.9334 H   0  0  0  0  0  0  0  0  0  0  0  0
    1.0636   -0.5631   -2.1609 C   0  0  0  0  0  0  0  0  0  0  0  0
    1.0636   -0.5631   -0.6318 C   0  0  0  0  0  0  0  0  0  0  0  0
    1.0636    0.8312   -0.0624 C   0  0  0  0  0  0  0  0  0  0  0  0
   -0.1310    1.5001    0.1854 C   0  0  0  0  0  0  0  0  0  0  0  0
   -0.1342    2.8003    0.6663 C   0  0  0  0  0  0  0  0  0  0  0  0
    1.0636    3.4557    0.9081 C   0  0  0  0  0  0  0  0  0  0  0  0
    2.2614    2.8003    0.6663 C   0  0  0  0  0  0  0  0  0  0  0  0
    2.2581    1.5001    0.1854 C   0  0  0  0  0  0  0  0  0  0  0  0
    1.9448   -0.0481   -2.5477 H   0  0  0  0  0  0  0  0  0  0  0  0
    0.1823   -0.0481   -2.5477 H   0  0  0  0  0  0  0  0  0  0  0  0
    1.0636   -1.5815   -2.5532 H   0  0  0  0  0  0  0  0  0  0  0  0
    0.0116   -1.2131   -0.1960 H   0  0  0  0  0  0  0  0  0  0  0  0
    1.9402   -1.1048   -0.2686 H   0  0  0  0  0  0  0  0  0  0  0  0
   -1.0719    0.9929    0.0016 H   0  0  0  0  0  0  0  0  0  0  0  0
   -1.0750    3.3020    0.8562 H   0  0  0  0  0  0  0  0  0  0  0  0
    1.0636    4.4700    1.2865 H   0  0  0  0  0  0  0  0  0  0  0  0
    3.2022    3.3020    0.8562 H   0  0  0  0  0  0  0  0  0  0  0  0
    3.1990    0.9929    0.0016 H   0  0  0  0  0  0  0  0  0  0  0  0
  1  2  3  0
  1  6  1  0
  2  3  1  0
  3  4  1  0
  3  7  1  0
  4  5  3  0
  5  8  1  0
  9 10  1  0
  9 17  1  0
  9 18  1  0
  9 19  1  0
 10 11  1  0
 10 20  1  0
 10 21  1  0
 11 12  2  0
 11 16  1  0
 12 13  1  0
 12 22  1  0
 13 14  2  0
 13 23  1  0
 14 15  1  0
 14 24  1  0
 15 16  2  0
 15 25  1  0
 16 26  1  0
M  RAD  1   3   2
M  END
>  <reaction>  (14) 
rxn_1490

>  <mol_properties>  (14) 
{"1": {"label": "*0", "atom_type": "Ct"}, "2": {"label": "*1", "atom_type": "Cs"}, "9": {"label": "*3", "atom_type": "Cd"}, "10": {"label": "*4", "atom_type": "Cd"}, "19": {"label": "*2", "atom_type": "H0"}}

>  <type>  (14) 
unop_10

>  <geom_source>  (14) 
Heuristics

$$$$

     RDKit          3D

 26 25  0  0  0  0  0  0  0  0999 V2000
   -2.1619   -0.9121    2.2391 C   0  0  0  0  0  0  0  0  0  0  0  0
   -1.8266   -1.3685    1.1863 C   0  0  0  0  0  0  0  0  0  0  0  0
   -1.4162   -1.9271   -0.1020 C   0  0  0  0  0  3  0  0  0  0  0  0
   -0.5308   -3.0851    0.0221 C   0  0  0  0  0  0  0  0  0  0  0  0
    0.1927   -4.0314    0.1236 C   0  0  0  0  0  0  0  0  0  0  0  0
   -2.4603   -0.5060    3.1757 H   0  0  0  0  0  0  0  0  0  0  0  0
   -2.3062   -2.2146   -0.6688 H   0  0  0  0  0  0  0  0  0  0  0  0
    0.8364   -4.8732    0.2139 H   0  0  0  0  0  0  0  0  0  0  0  0
    0.6887   -0.6265   -2.5031 C   0  0  0  0  0  0  0  0  0  0  0  0
    0.6887   -0.6265   -0.9740 C   0  0  0  0  0  0  0  0  0  0  0  0
    0.6887    0.7677   -0.4045 C   0  0  0  0  0  0  0  0  0  0  0  0
   -0.5059    1.4367   -0.1568 C   0  0  0  0  0  0  0  0  0  0  0  0
   -0.5091    2.7369    0.3241 C   0  0  0  0  0  0  0  0  0  0  0  0
    0.6887    3.3923    0.5659 C   0  0  0  0  0  0  0  0  0  0  0  0
    1.8865    2.7369    0.3241 C   0  0  0  0  0  0  0  0  0  0  0  0
    1.8832    1.4367   -0.1568 C   0  0  0  0  0  0  0  0  0  0  0  0
    1.5699   -0.1115   -2.8899 H   0  0  0  0  0  0  0  0  0  0  0  0
   -0.1926   -0.1115   -2.8899 H   0  0  0  0  0  0  0  0  0  0  0  0
    0.6887   -1.6450   -2.8954 H   0  0  0  0  0  0  0  0  0  0  0  0
   -0.3633   -1.2765   -0.5382 H   0  0  0  0  0  0  0  0  0  0  0  0
    1.5653   -1.1682   -0.6108 H   0  0  0  0  0  0  0  0  0  0  0  0
   -1.4468    0.9295   -0.3406 H   0  0  0  0  0  0  0  0  0  0  0  0
   -1.4499    3.2386    0.5140 H   0  0  0  0  0  0  0  0  0  0  0  0
    0.6887    4.4066    0.9443 H   0  0  0  0  0  0  0  0  0  0  0  0
    2.8272    3.2386    0.5140 H   0  0  0  0  0  0  0  0  0  0  0  0
    2.8241    0.9295   -0.3406 H   0  0  0  0  0  0  0  0  0  0  0  0
  1  2  3  0
  1  6  1  0
  2  3  1  0
  3  4  1  0
  3  7  1  0
  4  5  3  0
  5  8  1  0
  9 10  1  0
  9 17  1  0
  9 18  1  0
  9 19  1  0
 10 11  1  0
 10 20  1  0
 10 21  1  0
 11 12  2  0
 11 16  1  0
 12 13  1  0
 12 22  1  0
 13 14  2  0
 13 23  1  0
 14 15  1  0
 14 24  1  0
 15 16  2  0
 15 25  1  0
 16 26  1  0
M  RAD  1   3   2
M  END
>  <reaction>  (15) 
rxn_1490

>  <mol_properties>  (15) 
{"1": {"label": "*0", "atom_type": "Ct"}, "2": {"label": "*1", "atom_type": "Cs"}, "9": {"label": "*3", "atom_type": "Cd"}, "10": {"label": "*4", "atom_type": "Cd"}, "19": {"label": "*2", "atom_type": "H0"}}

>  <type>  (15) 
unop_11

>  <geom_source>  (15) 
Heuristics

$$$$

     RDKit          3D

 26 25  0  0  0  0  0  0  0  0999 V2000
   -2.4011   -3.0076   -1.8301 C   0  0  0  0  0  0  0  0  0  0  0  0
   -1.7668   -2.6157   -0.8957 C   0  0  0  0  0  0  0  0  0  0  0  0
   -0.9905   -2.1361    0.2479 C   0  0  0  0  0  3  0  0  0  0  0  0
   -1.7536   -1.2687    1.1456 C   0  0  0  0  0  0  0  0  0  0  0  0
   -2.3771   -0.5599    1.8791 C   0  0  0  0  0  0  0  0  0  0  0  0
   -2.9653   -3.3563   -2.6614 H   0  0  0  0  0  0  0  0  0  0  0  0
   -0.6140   -2.9941    0.8117 H   0  0  0  0  0  0  0  0  0  0  0  0
   -2.9318    0.0707    2.5316 H   0  0  0  0  0  0  0  0  0  0  0  0
    1.1143   -0.8354   -2.1531 C   0  0  0  0  0  0  0  0  0  0  0  0
    1.1143   -0.8354   -0.6240 C   0  0  0  0  0  0  0  0  0  0  0  0
    1.1143    0.5588   -0.0546 C   0  0  0  0  0  0  0  0  0  0  0  0
   -0.0802    1.2278    0.1932 C   0  0  0  0  0  0  0  0  0  0  0  0
   -0.0835    2.5280    0.6741 C   0  0  0  0  0  0  0  0  0  0  0  0
    1.1143    3.1833    0.9159 C   0  0  0  0  0  0  0  0  0  0  0  0
    2.3121    2.5280    0.6741 C   0  0  0  0  0  0  0  0  0  0  0  0
    2.3089    1.2278    0.1932 C   0  0  0  0  0  0  0  0  0  0  0  0
    1.9956   -0.3204   -2.5399 H   0  0  0  0  0  0  0  0  0  0  0  0
    0.2331   -0.3204   -2.5399 H   0  0  0  0  0  0  0  0  0  0  0  0
    1.1143   -1.8539   -2.5454 H   0  0  0  0  0  0  0  0  0  0  0  0
    0.0624   -1.4855   -0.1882 H   0  0  0  0  0  0  0  0  0  0  0  0
    1.9910   -1.3771   -0.2609 H   0  0  0  0  0  0  0  0  0  0  0  0
   -1.0211    0.7206    0.0094 H   0  0  0  0  0  0  0  0  0  0  0  0
   -1.0243    3.0297    0.8640 H   0  0  0  0  0  0  0  0  0  0  0  0
    1.1143    4.1977    1.2942 H   0  0  0  0  0  0  0  0  0  0  0  0
    3.2529    3.0297    0.8640 H   0  0  0  0  0  0  0  0  0  0  0  0
    3.2498    0.7206    0.0094 H   0  0  0  0  0  0  0  0  0  0  0  0
  1  2  3  0
  1  6  1  0
  2  3  1  0
  3  4  1  0
  3  7  1  0
  4  5  3  0
  5  8  1  0
  9 10  1  0
  9 17  1  0
  9 18  1  0
  9 19  1  0
 10 11  1  0
 10 20  1  0
 10 21  1  0
 11 12  2  0
 11 16  1  0
 12 13  1  0
 12 22  1  0
 13 14  2  0
 13 23  1  0
 14 15  1  0
 14 24  1  0
 15 16  2  0
 15 25  1  0
 16 26  1  0
M  RAD  1   3   2
M  END
>  <reaction>  (16) 
rxn_1490

>  <mol_properties>  (16) 
{"1": {"label": "*0", "atom_type": "Ct"}, "2": {"label": "*1", "atom_type": "Cs"}, "9": {"label": "*3", "atom_type": "Cd"}, "10": {"label": "*4", "atom_type": "Cd"}, "19": {"label": "*2", "atom_type": "H0"}}

>  <type>  (16) 
unop_12

>  <geom_source>  (16) 
Heuristics

$$$$

     RDKit          3D

 26 25  0  0  0  0  0  0  0  0999 V2000
    2.0453    0.3830    0.4509 C   0  0  0  0  0  0  0  0  0  0  0  0
   -0.2686   -1.9266   -1.7514 C   0  0  0  0  0  0  0  0  0  0  0  0
   -1.0328   -0.0789   -0.2574 C   0  0  0  0  0  0  0  0  0  0  0  0
    0.1245   -0.6497   -1.0200 C   0  0  0  0  0  0  0  0  0  0  0  0
   -2.0085    0.6941   -0.9073 C   0  0  0  0  0  3  0  0  0  0  0  0
   -1.1598   -0.3457    1.1131 C   0  0  0  0  0  0  0  0  0  0  0  0
   -3.0936    1.2039   -0.1872 C   0  0  0  0  0  0  0  0  0  0  0  0
   -3.2120    0.9407    1.1808 C   0  0  0  0  0  0  0  0  0  0  0  0
   -2.2463    0.1658    1.8302 C   0  0  0  0  0  0  0  0  0  0  0  0
    2.8602    1.5110   -0.0047 C   0  0  0  0  0  0  0  0  0  0  0  0
    2.9149   -0.6966    0.9219 C   0  0  0  0  0  0  0  0  0  0  0  0
    3.5295    2.4407   -0.3806 C   0  0  0  0  0  0  0  0  0  0  0  0
    3.6294   -1.5870    1.3099 C   0  0  0  0  0  0  0  0  0  0  0  0
    1.3861    0.7145    1.2795 H   0  0  0  0  0  0  0  0  0  0  0  0
    1.2869   -0.0657   -0.5735 H   0  0  0  0  0  0  0  0  0  0  0  0
   -1.0581   -1.7144   -2.5036 H   0  0  0  0  0  0  0  0  0  0  0  0
   -0.6404   -2.6822   -1.0274 H   0  0  0  0  0  0  0  0  0  0  0  0
    0.6206   -2.3399   -2.2709 H   0  0  0  0  0  0  0  0  0  0  0  0
    0.5326    0.0975   -1.7345 H   0  0  0  0  0  0  0  0  0  0  0  0
   -1.9280    0.8995   -1.9676 H   0  0  0  0  0  0  0  0  0  0  0  0
   -3.8434    1.8012   -0.6897 H   0  0  0  0  0  0  0  0  0  0  0  0
   -0.4190   -0.9486    1.6240 H   0  0  0  0  0  0  0  0  0  0  0  0
   -4.0526    1.3352    1.7369 H   0  0  0  0  0  0  0  0  0  0  0  0
   -2.3406   -0.0400    2.8886 H   0  0  0  0  0  0  0  0  0  0  0  0
    4.1171    3.2567   -0.7105 H   0  0  0  0  0  0  0  0  0  0  0  0
    4.2566   -2.3684    1.6504 H   0  0  0  0  0  0  0  0  0  0  0  0
  1 10  1  0
  1 11  1  0
  1 14  1  0
  1 15  1  0
  2  4  1  0
  2 16  1  0
  2 17  1  0
  2 18  1  0
  3  4  2  3
  3  5  1  0
  3  6  1  0
  4 19  1  0
  5  7  1  0
  5 20  1  0
  6  9  2  0
  6 22  1  0
  7  8  2  0
  7 21  1  0
  8  9  1  0
  8 23  1  0
  9 24  1  0
 10 12  3  0
 11 13  3  0
 12 25  1  0
 13 26  1  0
M  RAD  1   5   2
M  END
>  <reaction>  (17) 
rxn_1490

>  <mol_properties>  (17) 
{"1": {"label": "*0", "atom_type": "Ct"}, "2": {"label": "*1", "atom_type": "Cs"}, "9": {"label": "*3", "atom_type": "Cd"}, "10": {"label": "*4", "atom_type": "Cd"}, "19": {"label": "*2", "atom_type": "H0"}}

>  <type>  (17) 
unop_13

>  <geom_source>  (17) 
AutoTST

$$$$
