
     RDKit          3D

  7  6  0  0  0  0  0  0  0  0999 V2000
   -0.7707    0.0268   -0.0047 C   0  0  0  0  0  0  0  0  0  0  0  0
    0.4327    0.7555    0.0056 O   0  0  0  0  0  0  0  0  0  0  0  0
    0.2257    1.8886    0.8427 O   0  0  0  0  0  0  0  0  0  0  0  0
   -1.5847    0.6016   -0.4574 H   0  0  0  0  0  0  0  0  0  0  0  0
   -1.0534   -0.2811    1.0050 H   0  0  0  0  0  0  0  0  0  0  0  0
   -0.5599   -0.8542   -0.6123 H   0  0  0  0  0  0  0  0  0  0  0  0
    0.2626    2.6067    0.2016 H   0  0  0  0  0  0  0  0  0  0  0  0
  1  2  1  0
  1  4  1  0
  1  5  1  0
  1  6  1  0
  2  3  1  0
  3  7  1  0
M  END
>  <reaction>  (1) 
rxn_208

>  <mol_properties>  (1) 
{"2": {"label": "donator", "atom_type": "O2s"}, "6": {"label": "d_hydrogen", "atom_type": "H0"}}

>  <type>  (1) 
r1h

$$$$

     RDKit          3D

  3  2  0  0  0  0  0  0  0  0999 V2000
    0.9943   -0.1797    0.0000 O   0  0  0  0  0  1  0  0  0  0  0  0
   -0.1595    0.4394    0.0000 O   0  0  0  0  0  0  0  0  0  0  0  0
   -0.8348   -0.2597    0.0000 H   0  0  0  0  0  0  0  0  0  0  0  0
  1  2  1  0
  2  3  1  0
M  RAD  1   1   2
M  END
>  <reaction>  (2) 
rxn_208

>  <mol_properties>  (2) 
{"0": {"label": "acceptor", "atom_type": "O2s"}}

>  <type>  (2) 
r2

$$$$

     RDKit          3D

  4  3  0  0  0  0  0  0  0  0999 V2000
    0.5949   -0.3853    0.2659 O   0  0  0  0  0  0  0  0  0  0  0  0
   -0.5918    0.4028    0.2462 O   0  0  0  0  0  0  0  0  0  0  0  0
    1.1865    0.1539   -0.2689 H   0  0  0  0  0  0  0  0  0  0  0  0
   -1.1896   -0.1714   -0.2432 H   0  0  0  0  0  0  0  0  0  0  0  0
  1  2  1  0
  1  3  1  0
  2  4  1  0
M  END
>  <reaction>  (3) 
rxn_208

>  <mol_properties>  (3) 
{"0": {"label": "a_hydrogen", "atom_type": "H0"}, "1": {"label": "acceptor", "atom_type": "O2s"}}

>  <type>  (3) 
r2h

$$$$

     RDKit          3D

 10  8  0  0  0  0  0  0  0  0999 V2000
   -0.8835   -0.5959   -1.7012 C   0  0  0  0  0  0  0  0  0  0  0  0
   -0.9735   -0.6550   -0.2862 O   0  0  0  0  0  0  0  0  0  0  0  0
   -1.0734    0.6036    0.2038 O   0  0  0  0  0  0  0  0  0  0  0  0
    0.0093   -0.0391   -1.9973 H   0  0  0  0  0  0  0  0  0  0  0  0
   -1.7710   -0.1153   -2.1146 H   0  0  0  0  0  0  0  0  0  0  0  0
   -0.8190   -1.6308   -2.0341 H   0  0  0  0  0  0  0  0  0  0  0  0
   -0.0018    0.8586    0.5779 H   0  0  0  0  0  0  0  0  0  0  0  0
    1.1770    0.9593    0.7306 O   0  0  0  0  0  1  0  0  0  0  0  0
    1.5689   -0.3257    0.9351 O   0  0  0  0  0  0  0  0  0  0  0  0
    2.0156   -0.5676    0.1127 H   0  0  0  0  0  0  0  0  0  0  0  0
  1  2  1  0
  1  4  1  0
  1  5  1  0
  1  6  1  0
  2  3  1  0
  3  7  1  0
  8  9  1  0
  9 10  1  0
M  RAD  1   8   2
M  END
>  <reaction>  (4) 
rxn_208

>  <mol_properties>  (4) 
{"1": {"label": "*0", "atom_type": "O2s"}, "2": {"label": "*1", "atom_type": "O2s"}, "6": {"label": "*2", "atom_type": "H0"}, "7": {"label": "*3", "atom_type": "O2s"}, "8": {"label": "*4", "atom_type": "O2s"}}

>  <type>  (4) 
ts

$$$$

     RDKit          3D

 10  8  0  0  0  0  0  0  0  0999 V2000
   -0.9835   -1.1385   -1.6200 C   0  0  0  0  0  0  0  0  0  0  0  0
   -0.9835   -1.1385   -0.2132 O   0  0  0  0  0  0  0  0  0  0  0  0
   -0.9835    0.2233    0.2029 O   0  0  0  0  0  1  0  0  0  0  0  0
   -0.0686   -0.6920   -2.0218 H   0  0  0  0  0  0  0  0  0  0  0  0
   -1.8556   -0.6107   -2.0139 H   0  0  0  0  0  0  0  0  0  0  0  0
   -1.0332   -2.1913   -1.9005 H   0  0  0  0  0  0  0  0  0  0  0  0
    0.0647    0.3145    0.6814 H   0  0  0  0  0  0  0  0  0  0  0  0
    1.1123    0.4056    1.1596 O   0  0  0  0  0  0  0  0  0  0  0  0
    1.6966    1.4250    0.3540 O   0  0  0  0  0  0  0  0  0  0  0  0
    1.2430    2.2073    0.6841 H   0  0  0  0  0  0  0  0  0  0  0  0
  1  2  1  0
  1  4  1  0
  1  5  1  0
  1  6  1  0
  2  3  1  0
  7  8  1  0
  8  9  1  0
  9 10  1  0
M  RAD  1   3   2
M  END
>  <reaction>  (5) 
rxn_208

>  <mol_properties>  (5) 
{"1": {"label": "*0", "atom_type": "O2s"}, "2": {"label": "*1", "atom_type": "O2s"}, "6": {"label": "*2", "atom_type": "H0"}, "7": {"label": "*3", "atom_type": "O2s"}, "8": {"label": "*4", "atom_type": "O2s"}}

>  <type>  (5) 
unop_1

>  <geom_source>  (5) 
Heuristics

$$$$

     RDKit          3D

 10  8  0  0  0  0  0  0  0  0999 V2000
   -1.0257   -0.7223   -1.6160 C   0  0  0  0  0  0  0  0  0  0  0  0
   -1.0257   -0.7223   -0.2092 O   0  0  0  0  0  0  0  0  0  0  0  0
   -1.0257    0.6395    0.2068 O   0  0  0  0  0  1  0  0  0  0  0  0
   -0.1107   -0.2758   -2.0179 H   0  0  0  0  0  0  0  0  0  0  0  0
   -1.8978   -0.1945   -2.0100 H   0  0  0  0  0  0  0  0  0  0  0  0
   -1.0754   -1.7751   -1.8965 H   0  0  0  0  0  0  0  0  0  0  0  0
    0.0226    0.7307    0.6854 H   0  0  0  0  0  0  0  0  0  0  0  0
    1.0701    0.8218    1.1636 O   0  0  0  0  0  0  0  0  0  0  0  0
    1.8068   -0.1288    0.3998 O   0  0  0  0  0  0  0  0  0  0  0  0
    2.1725    0.4308   -0.2928 H   0  0  0  0  0  0  0  0  0  0  0  0
  1  2  1  0
  1  4  1  0
  1  5  1  0
  1  6  1  0
  2  3  1  0
  7  8  1  0
  8  9  1  0
  9 10  1  0
M  RAD  1   3   2
M  END
>  <reaction>  (6) 
rxn_208

>  <mol_properties>  (6) 
{"1": {"label": "*0", "atom_type": "O2s"}, "2": {"label": "*1", "atom_type": "O2s"}, "6": {"label": "*2", "atom_type": "H0"}, "7": {"label": "*3", "atom_type": "O2s"}, "8": {"label": "*4", "atom_type": "O2s"}}

>  <type>  (6) 
unop_2

>  <geom_source>  (6) 
Heuristics

$$$$

     RDKit          3D

 10  8  0  0  0  0  0  0  0  0999 V2000
   -0.9239   -1.2080   -1.7435 C   0  0  0  0  0  0  0  0  0  0  0  0
   -0.9239   -1.2080   -0.3366 O   0  0  0  0  0  0  0  0  0  0  0  0
   -0.9239    0.1538    0.0794 O   0  0  0  0  0  1  0  0  0  0  0  0
   -0.0089   -0.7614   -2.1453 H   0  0  0  0  0  0  0  0  0  0  0  0
   -1.7959   -0.6802   -2.1374 H   0  0  0  0  0  0  0  0  0  0  0  0
   -0.9736   -2.2608   -2.0240 H   0  0  0  0  0  0  0  0  0  0  0  0
    0.1244    0.2450    0.5579 H   0  0  0  0  0  0  0  0  0  0  0  0
    1.1720    0.3362    1.0361 O   0  0  0  0  0  0  0  0  0  0  0  0
    1.4689    1.7082    0.7930 O   0  0  0  0  0  0  0  0  0  0  0  0
    1.0664    2.1257    1.5613 H   0  0  0  0  0  0  0  0  0  0  0  0
  1  2  1  0
  1  4  1  0
  1  5  1  0
  1  6  1  0
  2  3  1  0
  7  8  1  0
  8  9  1  0
  9 10  1  0
M  RAD  1   3   2
M  END
>  <reaction>  (7) 
rxn_208

>  <mol_properties>  (7) 
{"1": {"label": "*0", "atom_type": "O2s"}, "2": {"label": "*1", "atom_type": "O2s"}, "6": {"label": "*2", "atom_type": "H0"}, "7": {"label": "*3", "atom_type": "O2s"}, "8": {"label": "*4", "atom_type": "O2s"}}

>  <type>  (7) 
unop_3

>  <geom_source>  (7) 
Heuristics

$$$$

     RDKit          3D

 10  8  0  0  0  0  0  0  0  0999 V2000
   -0.8607   -0.7065   -2.0029 C   0  0  0  0  0  0  0  0  0  0  0  0
   -0.8607   -0.7065   -0.5960 O   0  0  0  0  0  0  0  0  0  0  0  0
   -0.8607    0.6553   -0.1800 O   0  0  0  0  0  1  0  0  0  0  0  0
    0.0543   -0.2600   -2.4047 H   0  0  0  0  0  0  0  0  0  0  0  0
   -1.7328   -0.1787   -2.3968 H   0  0  0  0  0  0  0  0  0  0  0  0
   -0.9104   -1.7593   -2.2834 H   0  0  0  0  0  0  0  0  0  0  0  0
    0.1876    0.7465    0.2985 H   0  0  0  0  0  0  0  0  0  0  0  0
    1.2351    0.8376    0.7767 O   0  0  0  0  0  0  0  0  0  0  0  0
    1.1529   -0.1381    1.8116 O   0  0  0  0  0  0  0  0  0  0  0  0
    2.0699   -0.4247    1.8716 H   0  0  0  0  0  0  0  0  0  0  0  0
  1  2  1  0
  1  4  1  0
  1  5  1  0
  1  6  1  0
  2  3  1  0
  7  8  1  0
  8  9  1  0
  9 10  1  0
M  RAD  1   3   2
M  END
>  <reaction>  (8) 
rxn_208

>  <mol_properties>  (8) 
{"1": {"label": "*0", "atom_type": "O2s"}, "2": {"label": "*1", "atom_type": "O2s"}, "6": {"label": "*2", "atom_type": "H0"}, "7": {"label": "*3", "atom_type": "O2s"}, "8": {"label": "*4", "atom_type": "O2s"}}

>  <type>  (8) 
unop_4

>  <geom_source>  (8) 
Heuristics

$$$$

     RDKit          3D

 10  8  0  0  0  0  0  0  0  0999 V2000
   -0.8664   -1.1997   -1.8840 C   0  0  0  0  0  0  0  0  0  0  0  0
   -0.8664   -1.1997   -0.4772 O   0  0  0  0  0  0  0  0  0  0  0  0
   -0.8664    0.1621   -0.0611 O   0  0  0  0  0  1  0  0  0  0  0  0
    0.0486   -0.7531   -2.2858 H   0  0  0  0  0  0  0  0  0  0  0  0
   -1.7384   -0.6719   -2.2779 H   0  0  0  0  0  0  0  0  0  0  0  0
   -0.9161   -2.2525   -2.1645 H   0  0  0  0  0  0  0  0  0  0  0  0
    0.1819    0.2533    0.4174 H   0  0  0  0  0  0  0  0  0  0  0  0
    1.2295    0.3445    0.8956 O   0  0  0  0  0  0  0  0  0  0  0  0
    1.2267    1.7073    1.3108 O   0  0  0  0  0  0  0  0  0  0  0  0
    1.2581    1.6113    2.2681 H   0  0  0  0  0  0  0  0  0  0  0  0
  1  2  1  0
  1  4  1  0
  1  5  1  0
  1  6  1  0
  2  3  1  0
  7  8  1  0
  8  9  1  0
  9 10  1  0
M  RAD  1   3   2
M  END
>  <reaction>  (9) 
rxn_208

>  <mol_properties>  (9) 
{"1": {"label": "*0", "atom_type": "O2s"}, "2": {"label": "*1", "atom_type": "O2s"}, "6": {"label": "*2", "atom_type": "H0"}, "7": {"label": "*3", "atom_type": "O2s"}, "8": {"label": "*4", "atom_type": "O2s"}}

>  <type>  (9) 
unop_5

>  <geom_source>  (9) 
Heuristics

$$$$

     RDKit          3D

 10  8  0  0  0  0  0  0  0  0999 V2000
   -0.8185   -0.8364   -2.0721 C   0  0  0  0  0  0  0  0  0  0  0  0
   -0.8185   -0.8364   -0.6653 O   0  0  0  0  0  0  0  0  0  0  0  0
   -0.8185    0.5254   -0.2492 O   0  0  0  0  0  1  0  0  0  0  0  0
    0.0965   -0.3898   -2.4739 H   0  0  0  0  0  0  0  0  0  0  0  0
   -1.6905   -0.3086   -2.4660 H   0  0  0  0  0  0  0  0  0  0  0  0
   -0.8682   -1.8892   -2.3526 H   0  0  0  0  0  0  0  0  0  0  0  0
    0.2298    0.6166    0.2293 H   0  0  0  0  0  0  0  0  0  0  0  0
    1.2774    0.7078    0.7075 O   0  0  0  0  0  0  0  0  0  0  0  0
    0.9970    0.3520    2.0582 O   0  0  0  0  0  0  0  0  0  0  0  0
    1.8600    0.0444    2.3536 H   0  0  0  0  0  0  0  0  0  0  0  0
  1  2  1  0
  1  4  1  0
  1  5  1  0
  1  6  1  0
  2  3  1  0
  7  8  1  0
  8  9  1  0
  9 10  1  0
M  RAD  1   3   2
M  END
>  <reaction>  (10) 
rxn_208

>  <mol_properties>  (10) 
{"1": {"label": "*0", "atom_type": "O2s"}, "2": {"label": "*1", "atom_type": "O2s"}, "6": {"label": "*2", "atom_type": "H0"}, "7": {"label": "*3", "atom_type": "O2s"}, "8": {"label": "*4", "atom_type": "O2s"}}

>  <type>  (10) 
unop_6

>  <geom_source>  (10) 
Heuristics

$$$$

     RDKit          3D

 10  8  0  0  0  0  0  0  0  0999 V2000
   -0.8056   -0.9875   -2.0712 C   0  0  0  0  0  0  0  0  0  0  0  0
   -0.8056   -0.9875   -0.6644 O   0  0  0  0  0  0  0  0  0  0  0  0
   -0.8056    0.3743   -0.2483 O   0  0  0  0  0  1  0  0  0  0  0  0
    0.1094   -0.5409   -2.4730 H   0  0  0  0  0  0  0  0  0  0  0  0
   -1.6777   -0.4597   -2.4651 H   0  0  0  0  0  0  0  0  0  0  0  0
   -0.8553   -2.0403   -2.3517 H   0  0  0  0  0  0  0  0  0  0  0  0
    0.2427    0.4655    0.2302 H   0  0  0  0  0  0  0  0  0  0  0  0
    1.2903    0.5567    0.7084 O   0  0  0  0  0  0  0  0  0  0  0  0
    0.9542    0.9220    2.0438 O   0  0  0  0  0  0  0  0  0  0  0  0
    1.7221    0.5977    2.5253 H   0  0  0  0  0  0  0  0  0  0  0  0
  1  2  1  0
  1  4  1  0
  1  5  1  0
  1  6  1  0
  2  3  1  0
  7  8  1  0
  8  9  1  0
  9 10  1  0
M  RAD  1   3   2
M  END
>  <reaction>  (11) 
rxn_208

>  <mol_properties>  (11) 
{"1": {"label": "*0", "atom_type": "O2s"}, "2": {"label": "*1", "atom_type": "O2s"}, "6": {"label": "*2", "atom_type": "H0"}, "7": {"label": "*3", "atom_type": "O2s"}, "8": {"label": "*4", "atom_type": "O2s"}}

>  <type>  (11) 
unop_7

>  <geom_source>  (11) 
Heuristics

$$$$

     RDKit          3D

 10  8  0  0  0  0  0  0  0  0999 V2000
   -1.0272   -1.0100   -1.5482 C   0  0  0  0  0  0  0  0  0  0  0  0
   -1.0272   -1.0100   -0.1413 O   0  0  0  0  0  0  0  0  0  0  0  0
   -1.0272    0.3517    0.2747 O   0  0  0  0  0  1  0  0  0  0  0  0
   -0.1122   -0.5635   -1.9500 H   0  0  0  0  0  0  0  0  0  0  0  0
   -1.8993   -0.4823   -1.9421 H   0  0  0  0  0  0  0  0  0  0  0  0
   -1.0769   -2.0629   -1.8287 H   0  0  0  0  0  0  0  0  0  0  0  0
    0.0211    0.4430    0.7532 H   0  0  0  0  0  0  0  0  0  0  0  0
    1.0687    0.5341    1.2314 O   0  0  0  0  0  0  0  0  0  0  0  0
    1.8511    0.9336    0.1099 O   0  0  0  0  0  0  0  0  0  0  0  0
    1.5628    1.8450   -0.0042 H   0  0  0  0  0  0  0  0  0  0  0  0
  1  2  1  0
  1  4  1  0
  1  5  1  0
  1  6  1  0
  2  3  1  0
  7  8  1  0
  8  9  1  0
  9 10  1  0
M  RAD  1   3   2
M  END
>  <reaction>  (12) 
rxn_208

>  <mol_properties>  (12) 
{"1": {"label": "*0", "atom_type": "O2s"}, "2": {"label": "*1", "atom_type": "O2s"}, "6": {"label": "*2", "atom_type": "H0"}, "7": {"label": "*3", "atom_type": "O2s"}, "8": {"label": "*4", "atom_type": "O2s"}}

>  <type>  (12) 
unop_8

>  <geom_source>  (12) 
Heuristics

$$$$

     RDKit          3D

 10  8  0  0  0  0  0  0  0  0999 V2000
   -0.9209   -0.6341   -1.8806 C   0  0  0  0  0  0  0  0  0  0  0  0
   -0.9209   -0.6341   -0.4738 O   0  0  0  0  0  0  0  0  0  0  0  0
   -0.9209    0.7277   -0.0577 O   0  0  0  0  0  1  0  0  0  0  0  0
   -0.0059   -0.1876   -2.2825 H   0  0  0  0  0  0  0  0  0  0  0  0
   -1.7930   -0.1063   -2.2746 H   0  0  0  0  0  0  0  0  0  0  0  0
   -0.9706   -1.6869   -2.1611 H   0  0  0  0  0  0  0  0  0  0  0  0
    0.1274    0.8189    0.4208 H   0  0  0  0  0  0  0  0  0  0  0  0
    1.1749    0.9101    0.8990 O   0  0  0  0  0  0  0  0  0  0  0  0
    1.3802   -0.4183    1.3714 O   0  0  0  0  0  0  0  0  0  0  0  0
    2.2875   -0.5779    1.0923 H   0  0  0  0  0  0  0  0  0  0  0  0
  1  2  1  0
  1  4  1  0
  1  5  1  0
  1  6  1  0
  2  3  1  0
  7  8  1  0
  8  9  1  0
  9 10  1  0
M  RAD  1   3   2
M  END
>  <reaction>  (13) 
rxn_208

>  <mol_properties>  (13) 
{"1": {"label": "*0", "atom_type": "O2s"}, "2": {"label": "*1", "atom_type": "O2s"}, "6": {"label": "*2", "atom_type": "H0"}, "7": {"label": "*3", "atom_type": "O2s"}, "8": {"label": "*4", "atom_type": "O2s"}}

>  <type>  (13) 
unop_9

>  <geom_source>  (13) 
Heuristics

$$$$

     RDKit          3D

 10  8  0  0  0  0  0  0  0  0999 V2000
   -1.0424   -0.8577   -1.5468 C   0  0  0  0  0  0  0  0  0  0  0  0
   -1.0424   -0.8577   -0.1399 O   0  0  0  0  0  0  0  0  0  0  0  0
   -1.0424    0.5041    0.2761 O   0  0  0  0  0  1  0  0  0  0  0  0
   -0.1274   -0.4112   -1.9486 H   0  0  0  0  0  0  0  0  0  0  0  0
   -1.9145   -0.3299   -1.9407 H   0  0  0  0  0  0  0  0  0  0  0  0
   -1.0921   -1.9105   -1.8273 H   0  0  0  0  0  0  0  0  0  0  0  0
    0.0059    0.5953    0.7546 H   0  0  0  0  0  0  0  0  0  0  0  0
    1.0534    0.6865    1.2328 O   0  0  0  0  0  0  0  0  0  0  0  0
    1.8916    0.3649    0.1267 O   0  0  0  0  0  0  0  0  0  0  0  0
    1.8883    1.1963   -0.3585 H   0  0  0  0  0  0  0  0  0  0  0  0
  1  2  1  0
  1  4  1  0
  1  5  1  0
  1  6  1  0
  2  3  1  0
  7  8  1  0
  8  9  1  0
  9 10  1  0
M  RAD  1   3   2
M  END
>  <reaction>  (14) 
rxn_208

>  <mol_properties>  (14) 
{"1": {"label": "*0", "atom_type": "O2s"}, "2": {"label": "*1", "atom_type": "O2s"}, "6": {"label": "*2", "atom_type": "H0"}, "7": {"label": "*3", "atom_type": "O2s"}, "8": {"label": "*4", "atom_type": "O2s"}}

>  <type>  (14) 
unop_10

>  <geom_source>  (14) 
Heuristics

$$$$

     RDKit          3D

 10  8  0  0  0  0  0  0  0  0999 V2000
   -0.8240   -1.1194   -2.0024 C   0  0  0  0  0  0  0  0  0  0  0  0
   -0.8240   -1.1194   -0.5955 O   0  0  0  0  0  0  0  0  0  0  0  0
   -0.8240    0.2424   -0.1795 O   0  0  0  0  0  1  0  0  0  0  0  0
    0.0909   -0.6729   -2.4042 H   0  0  0  0  0  0  0  0  0  0  0  0
   -1.6961   -0.5916   -2.3963 H   0  0  0  0  0  0  0  0  0  0  0  0
   -0.8737   -2.1722   -2.2829 H   0  0  0  0  0  0  0  0  0  0  0  0
    0.2242    0.3336    0.2990 H   0  0  0  0  0  0  0  0  0  0  0  0
    1.2718    0.4247    0.7772 O   0  0  0  0  0  0  0  0  0  0  0  0
    1.0373    1.4191    1.7702 O   0  0  0  0  0  0  0  0  0  0  0  0
    1.5759    1.0888    2.4965 H   0  0  0  0  0  0  0  0  0  0  0  0
  1  2  1  0
  1  4  1  0
  1  5  1  0
  1  6  1  0
  2  3  1  0
  7  8  1  0
  8  9  1  0
  9 10  1  0
M  RAD  1   3   2
M  END
>  <reaction>  (15) 
rxn_208

>  <mol_properties>  (15) 
{"1": {"label": "*0", "atom_type": "O2s"}, "2": {"label": "*1", "atom_type": "O2s"}, "6": {"label": "*2", "atom_type": "H0"}, "7": {"label": "*3", "atom_type": "O2s"}, "8": {"label": "*4", "atom_type": "O2s"}}

>  <type>  (15) 
unop_11

>  <geom_source>  (15) 
Heuristics

$$$$

     RDKit          3D

 10  8  0  0  0  0  0  0  0  0999 V2000
   -0.9816   -0.6400   -1.7383 C   0  0  0  0  0  0  0  0  0  0  0  0
   -0.9816   -0.6400   -0.3315 O   0  0  0  0  0  0  0  0  0  0  0  0
   -0.9816    0.7217    0.0846 O   0  0  0  0  0  1  0  0  0  0  0  0
   -0.0666   -0.1935   -2.1402 H   0  0  0  0  0  0  0  0  0  0  0  0
   -1.8536   -0.1123   -2.1323 H   0  0  0  0  0  0  0  0  0  0  0  0
   -1.0313   -1.6929   -2.0188 H   0  0  0  0  0  0  0  0  0  0  0  0
    0.0667    0.8130    0.5631 H   0  0  0  0  0  0  0  0  0  0  0  0
    1.1143    0.9041    1.0413 O   0  0  0  0  0  0  0  0  0  0  0  0
    1.6192   -0.4150    0.8553 O   0  0  0  0  0  0  0  0  0  0  0  0
    2.3445   -0.2531    0.2435 H   0  0  0  0  0  0  0  0  0  0  0  0
  1  2  1  0
  1  4  1  0
  1  5  1  0
  1  6  1  0
  2  3  1  0
  7  8  1  0
  8  9  1  0
  9 10  1  0
M  RAD  1   3   2
M  END
>  <reaction>  (16) 
rxn_208

>  <mol_properties>  (16) 
{"1": {"label": "*0", "atom_type": "O2s"}, "2": {"label": "*1", "atom_type": "O2s"}, "6": {"label": "*2", "atom_type": "H0"}, "7": {"label": "*3", "atom_type": "O2s"}, "8": {"label": "*4", "atom_type": "O2s"}}

>  <type>  (16) 
unop_12

>  <geom_source>  (16) 
Heuristics

$$$$

     RDKit          3D

 10  8  0  0  0  0  0  0  0  0999 V2000
   -1.2456   -0.8532   -0.7693 O   0  0  0  0  0  0  0  0  0  0  0  0
    2.5703    0.5565    0.5074 O   0  0  0  0  0  0  0  0  0  0  0  0
    2.1856   -0.6630    0.1943 O   0  0  0  0  0  1  0  0  0  0  0  0
    0.0565   -0.8796   -0.5603 O   0  0  0  0  0  0  0  0  0  0  0  0
   -1.7426    0.1614    0.0589 C   0  0  0  0  0  0  0  0  0  0  0  0
   -1.5367   -0.0691    1.1275 H   0  0  0  0  0  0  0  0  0  0  0  0
   -2.8417    0.2295   -0.0762 H   0  0  0  0  0  0  0  0  0  0  0  0
   -1.2967    1.1434   -0.2139 H   0  0  0  0  0  0  0  0  0  0  0  0
    2.8445    0.9620   -0.3541 H   0  0  0  0  0  0  0  0  0  0  0  0
    1.0065   -0.5879    0.0858 H   0  0  0  0  0  0  0  0  0  0  0  0
  1  5  1  0
  1  4  1  0
  2  3  1  0
  2  9  1  0
  4 10  1  0
  5  6  1  0
  5  7  1  0
  5  8  1  0
M  RAD  1   3   2
M  END
>  <reaction>  (17) 
rxn_208

>  <mol_properties>  (17) 
{"1": {"label": "*0", "atom_type": "O2s"}, "2": {"label": "*1", "atom_type": "O2s"}, "6": {"label": "*2", "atom_type": "H0"}, "7": {"label": "*3", "atom_type": "O2s"}, "8": {"label": "*4", "atom_type": "O2s"}}

>  <type>  (17) 
unop_13

>  <geom_source>  (17) 
AutoTST

$$$$
