
     RDKit          3D

  2  1  0  0  0  0  0  0  0  0999 V2000
    0.0000    0.0000    0.3721 H   0  0  0  0  0  0  0  0  0  0  0  0
    0.0000    0.0000   -0.3721 H   0  0  0  0  0  0  0  0  0  0  0  0
  1  2  1  0
M  END
>  <reaction>  (1) 
rxn_806

>  <mol_properties>  (1) 
{"0": {"label": "donator", "atom_type": "H0"}, "1": {"label": "d_hydrogen", "atom_type": "H0"}}

>  <type>  (1) 
r1h

$$$$

     RDKit          3D

  5  4  0  0  0  0  0  0  0  0999 V2000
   -0.5642    0.0794    0.0348 C   0  0  0  0  0  3  0  0  0  0  0  0
    1.0624    0.5420    0.2853 S   0  0  0  0  0  0  0  0  0  0  0  0
   -1.3257    0.7631    0.3741 H   0  0  0  0  0  0  0  0  0  0  0  0
   -0.8236   -0.8519   -0.4401 H   0  0  0  0  0  0  0  0  0  0  0  0
    1.6511   -0.5325   -0.2540 H   0  0  0  0  0  0  0  0  0  0  0  0
  1  2  1  0
  1  3  1  0
  1  4  1  0
  2  5  1  0
M  RAD  1   1   2
M  END
>  <reaction>  (2) 
rxn_806

>  <mol_properties>  (2) 
{"0": {"label": "acceptor", "atom_type": "Cs"}}

>  <type>  (2) 
r2

$$$$

     RDKit          3D

  6  5  0  0  0  0  0  0  0  0999 V2000
   -0.5072   -0.0291   -0.0097 C   0  0  0  0  0  0  0  0  0  0  0  0
    1.1321   -0.1527   -0.7687 S   0  0  0  0  0  0  0  0  0  0  0  0
   -0.6174   -0.7330    0.8127 H   0  0  0  0  0  0  0  0  0  0  0  0
   -0.5863    0.9827    0.3845 H   0  0  0  0  0  0  0  0  0  0  0  0
   -1.2962   -0.1800   -0.7434 H   0  0  0  0  0  0  0  0  0  0  0  0
    1.0312   -1.4237   -1.1764 H   0  0  0  0  0  0  0  0  0  0  0  0
  1  2  1  0
  1  3  1  0
  1  4  1  0
  1  5  1  0
  2  6  1  0
M  END
>  <reaction>  (3) 
rxn_806

>  <mol_properties>  (3) 
{"0": {"label": "a_hydrogen", "atom_type": "H0"}, "1": {"label": "acceptor", "atom_type": "Cs"}}

>  <type>  (3) 
r2h

$$$$

     RDKit          3D

  7  5  0  0  0  0  0  0  0  0999 V2000
    0.3583   -0.8870   -2.3817 H   0  0  0  0  0 15  0  0  0  0  0  0
    0.1135   -1.0097   -1.4165 H   0  0  0  0  0  0  0  0  0  0  0  0
   -0.1872   -1.2357   -0.1976 C   0  0  0  0  0  0  0  0  0  0  0  0
   -0.5591    0.2649    0.6637 S   0  0  0  0  0  0  0  0  0  0  0  0
    0.6616   -1.7872    0.1979 H   0  0  0  0  0  0  0  0  0  0  0  0
   -1.0803   -1.8527   -0.2578 H   0  0  0  0  0  0  0  0  0  0  0  0
    0.6932    0.7328    0.7394 H   0  0  0  0  0  0  0  0  0  0  0  0
  2  3  1  0
  3  4  1  0
  3  5  1  0
  3  6  1  0
  4  7  1  0
M  END
>  <reaction>  (4) 
rxn_806

>  <mol_properties>  (4) 
{"0": {"label": "*1", "atom_type": "H0"}, "1": {"label": "*2", "atom_type": "H0"}, "2": {"label": "*3", "atom_type": "Cs"}, "3": {"label": "*4", "atom_type": "S2s"}}

>  <type>  (4) 
ts

$$$$

     RDKit          3D

  7  5  0  0  0  0  0  0  0  0999 V2000
    0.0000   -1.1437   -2.5113 H   0  0  0  0  0 15  0  0  0  0  0  0
    0.0000   -1.1437   -1.6183 H   0  0  0  0  0  0  0  0  0  0  0  0
    0.0000   -1.1437   -0.3118 C   0  0  0  0  0  0  0  0  0  0  0  0
    0.0000    0.5940    0.1970 S   0  0  0  0  0  0  0  0  0  0  0  0
    0.8927   -1.6589    0.0366 H   0  0  0  0  0  0  0  0  0  0  0  0
   -0.8927   -1.6589    0.0366 H   0  0  0  0  0  0  0  0  0  0  0  0
   -0.0000    0.3804    1.5185 H   0  0  0  0  0  0  0  0  0  0  0  0
  2  3  1  0
  3  4  1  0
  3  5  1  0
  3  6  1  0
  4  7  1  0
M  END
>  <reaction>  (5) 
rxn_806

>  <mol_properties>  (5) 
{"0": {"label": "*1", "atom_type": "H0"}, "1": {"label": "*2", "atom_type": "H0"}, "2": {"label": "*3", "atom_type": "Cs"}, "3": {"label": "*4", "atom_type": "S2s"}}

>  <type>  (5) 
unop_1

>  <geom_source>  (5) 
Heuristics

$$$$

     RDKit          3D

  7  5  0  0  0  0  0  0  0  0999 V2000
    1.4618   -0.1913   -0.7148 S   0  0  0  0  0  0  0  0  0  0  0  0
   -0.0978    0.4007    0.0004 C   0  0  0  0  0  0  0  0  0  0  0  0
    0.1025    0.8947    0.9735 H   0  0  0  0  0  0  0  0  0  0  0  0
   -0.5669    1.1295   -0.6920 H   0  0  0  0  0  0  0  0  0  0  0  0
   -0.7126   -0.3638    0.1375 H   0  0  0  0  0  0  0  0  0  0  0  0
    1.7301   -1.0217    0.3903 H   0  0  0  0  0  0  0  0  0  0  0  0
   -1.9172   -0.8481   -0.0949 H   0  0  0  0  0 15  0  0  0  0  0  0
  1  2  1  0
  1  6  1  0
  2  3  1  0
  2  4  1  0
  2  5  1  0
M  END
>  <reaction>  (6) 
rxn_806

>  <mol_properties>  (6) 
{"0": {"label": "*1", "atom_type": "H0"}, "1": {"label": "*2", "atom_type": "H0"}, "2": {"label": "*3", "atom_type": "Cs"}, "3": {"label": "*4", "atom_type": "S2s"}}

>  <type>  (6) 
unop_2

>  <geom_source>  (6) 
AutoTST

$$$$
