
     RDKit          3D

  7  6  0  0  0  0  0  0  0  0999 V2000
   -0.6782    0.0507    0.0301 C   0  0  0  0  0  0  0  0  0  0  0  0
    0.8092    0.0996    0.0213 C   0  0  0  0  0  0  0  0  0  0  0  0
    1.7473    0.7521    1.1507 S   0  0  0  0  0  0  0  0  0  0  0  0
   -1.0667    0.5456   -0.8653 H   0  0  0  0  0  0  0  0  0  0  0  0
   -1.0112   -0.9904   -0.0239 H   0  0  0  0  0  0  0  0  0  0  0  0
   -1.0920    0.5225    0.9188 H   0  0  0  0  0  0  0  0  0  0  0  0
    1.2740   -0.3620   -0.8520 H   0  0  0  0  0  0  0  0  0  0  0  0
  1  2  1  0
  1  4  1  0
  1  5  1  0
  1  6  1  0
  2  3  2  0
  2  7  1  0
M  END
>  <reaction>  (1) 
rxn_1992

>  <mol_properties>  (1) 
{"0": {"label": "donator", "atom_type": "Cs"}, "3": {"label": "d_hydrogen", "atom_type": "H0"}}

>  <type>  (1) 
r1h

$$$$

     RDKit          3D

  7  6  0  0  0  0  0  0  0  0999 V2000
   -0.6904   -0.9066   -0.0346 C   0  0  0  0  0  0  0  0  0  0  0  0
    0.1413    0.0254   -0.6161 C   0  0  0  0  0  0  0  0  0  0  0  0
    0.4603    0.1105   -1.9267 C   0  0  0  0  0  3  0  0  0  0  0  0
    0.8318    0.2180   -3.4201 S   0  0  0  0  0  0  0  0  0  0  0  0
   -0.8731   -0.8770    1.0287 H   0  0  0  0  0  0  0  0  0  0  0  0
   -1.1718   -1.6767   -0.6199 H   0  0  0  0  0  0  0  0  0  0  0  0
    0.6090    0.7866    0.0044 H   0  0  0  0  0  0  0  0  0  0  0  0
  1  2  2  3
  1  5  1  0
  1  6  1  0
  2  3  1  0
  2  7  1  0
  3  4  2  0
M  RAD  1   3   2
M  END
>  <reaction>  (2) 
rxn_1992

>  <mol_properties>  (2) 
{"2": {"label": "acceptor", "atom_type": "CS"}}

>  <type>  (2) 
r2

$$$$

     RDKit          3D

  8  7  0  0  0  0  0  0  0  0999 V2000
   -1.1617    0.0338    0.5053 C   0  0  0  0  0  0  0  0  0  0  0  0
   -0.1023    0.4503   -0.1863 C   0  0  0  0  0  0  0  0  0  0  0  0
    1.0978   -0.3557   -0.3104 C   0  0  0  0  0  0  0  0  0  0  0  0
    2.4251    0.0667   -1.1256 S   0  0  0  0  0  0  0  0  0  0  0  0
   -1.1653   -0.9292    1.0039 H   0  0  0  0  0  0  0  0  0  0  0  0
   -2.0546    0.6389    0.5948 H   0  0  0  0  0  0  0  0  0  0  0  0
   -0.0991    1.4132   -0.6847 H   0  0  0  0  0  0  0  0  0  0  0  0
    1.0601   -1.3180    0.2032 H   0  0  0  0  0  0  0  0  0  0  0  0
  1  2  2  3
  1  5  1  0
  1  6  1  0
  2  3  1  0
  2  7  1  0
  3  4  2  0
  3  8  1  0
M  END
>  <reaction>  (3) 
rxn_1992

>  <mol_properties>  (3) 
{"2": {"label": "acceptor", "atom_type": "CS"}, "7": {"label": "a_hydrogen", "atom_type": "H0"}}

>  <type>  (3) 
r2h

$$$$

     RDKit          3D

 14 12  0  0  0  0  0  0  0  0999 V2000
   -1.8012   -1.2573   -0.1045 C   0  0  0  0  0  0  0  0  0  0  0  0
   -1.6856   -0.7103    1.1063 C   0  0  0  0  0  0  0  0  0  0  0  0
   -0.5374    0.0637    1.5044 C   0  0  0  0  0  3  0  0  0  0  0  0
   -0.1107    0.7294    2.8720 S   0  0  0  0  0  0  0  0  0  0  0  0
   -2.6750   -1.8425   -0.3620 H   0  0  0  0  0  0  0  0  0  0  0  0
   -1.0324   -1.1572   -0.8628 H   0  0  0  0  0  0  0  0  0  0  0  0
   -2.4649   -0.8431    1.8515 H   0  0  0  0  0  0  0  0  0  0  0  0
    1.1787    0.5245   -0.5482 C   0  0  0  0  0  0  0  0  0  0  0  0
    1.9087   -0.6664   -0.8751 C   0  0  0  0  0  0  0  0  0  0  0  0
    1.4896   -1.7590   -2.0138 S   0  0  0  0  0  0  0  0  0  0  0  0
    0.3683    0.2212    0.4317 H   0  0  0  0  0  0  0  0  0  0  0  0
    1.7432    1.3100   -0.0484 H   0  0  0  0  0  0  0  0  0  0  0  0
    0.4915    0.8821   -1.3107 H   0  0  0  0  0  0  0  0  0  0  0  0
    2.7896   -0.8630   -0.2638 H   0  0  0  0  0  0  0  0  0  0  0  0
  1  2  2  3
  1  5  1  0
  1  6  1  0
  2  3  1  0
  2  7  1  0
  3  4  2  0
  8  9  1  0
  8 11  1  0
  8 12  1  0
  8 13  1  0
  9 10  2  0
  9 14  1  0
M  RAD  1   3   2
M  END
>  <reaction>  (4) 
rxn_1992

>  <mol_properties>  (4) 
{"2": {"label": "*3", "atom_type": "CS"}, "3": {"label": "*4", "atom_type": "S2d"}, "7": {"label": "*1", "atom_type": "Cs"}, "8": {"label": "*0", "atom_type": "CS"}, "10": {"label": "*2", "atom_type": "H0"}}

>  <type>  (4) 
ts

$$$$

     RDKit          3D

 14 12  0  0  0  0  0  0  0  0999 V2000
    0.4419   -0.5082    3.1387 C   0  0  0  0  0  0  0  0  0  0  0  0
   -0.5441    0.2342    2.6380 C   0  0  0  0  0  0  0  0  0  0  0  0
   -0.8435    0.2551    1.2184 C   0  0  0  0  0  0  0  0  0  0  0  0
   -2.0153    1.1214    0.5247 S   0  0  0  0  0  0  0  0  0  0  0  0
    0.6611   -0.5202    4.1985 H   0  0  0  0  0  0  0  0  0  0  0  0
    1.0606   -1.1278    2.4991 H   0  0  0  0  0  0  0  0  0  0  0  0
   -1.1625    0.8536    3.2779 H   0  0  0  0  0  0  0  0  0  0  0  0
    1.2565    0.3195   -0.3521 C   0  0  0  0  0  0  0  0  0  0  0  0
    1.2565   -0.8789   -1.2343 C   0  0  0  0  0  0  0  0  0  0  0  0
    1.2565   -0.8789   -2.8410 S   0  0  0  0  0  1  0  0  0  0  0  0
    0.2051    0.2873    0.4342 H   0  0  0  0  0  0  0  0  0  0  0  0
    2.1326    0.2927    0.3031 H   0  0  0  0  0  0  0  0  0  0  0  0
    1.2565    1.2433   -0.9268 H   0  0  0  0  0  0  0  0  0  0  0  0
    1.2565   -1.8334   -0.7044 H   0  0  0  0  0  0  0  0  0  0  0  0
  1  2  2  3
  1  5  1  0
  1  6  1  0
  2  3  1  0
  2  7  1  0
  3  4  2  0
  3 11  1  0
  8  9  2  3
  8 12  1  0
  8 13  1  0
  9 10  1  0
  9 14  1  0
M  RAD  1  10   2
M  END
>  <reaction>  (5) 
rxn_1992

>  <mol_properties>  (5) 
{"2": {"label": "*3", "atom_type": "CS"}, "3": {"label": "*4", "atom_type": "S2d"}, "7": {"label": "*1", "atom_type": "Cs"}, "8": {"label": "*0", "atom_type": "CS"}, "10": {"label": "*2", "atom_type": "H0"}}

>  <type>  (5) 
unop_1

>  <geom_source>  (5) 
Heuristics

$$$$

     RDKit          3D

 14 12  0  0  0  0  0  0  0  0999 V2000
   -0.9188   -1.9545    0.8498 C   0  0  0  0  0  0  0  0  0  0  0  0
   -1.2741   -0.8815    1.5544 C   0  0  0  0  0  0  0  0  0  0  0  0
   -0.8075    0.4493    1.2128 C   0  0  0  0  0  0  0  0  0  0  0  0
   -1.1849    1.8027    2.0068 S   0  0  0  0  0  0  0  0  0  0  0  0
   -1.2697   -2.9451    1.1089 H   0  0  0  0  0  0  0  0  0  0  0  0
   -0.2637   -1.8716   -0.0102 H   0  0  0  0  0  0  0  0  0  0  0  0
   -1.9292   -0.9647    2.4143 H   0  0  0  0  0  0  0  0  0  0  0  0
    1.2925    0.5138   -0.3577 C   0  0  0  0  0  0  0  0  0  0  0  0
    1.2925   -0.6847   -1.2399 C   0  0  0  0  0  0  0  0  0  0  0  0
    1.2925   -0.6847   -2.8466 S   0  0  0  0  0  1  0  0  0  0  0  0
    0.2411    0.4815    0.4286 H   0  0  0  0  0  0  0  0  0  0  0  0
    2.1687    0.4869    0.2975 H   0  0  0  0  0  0  0  0  0  0  0  0
    1.2925    1.4376   -0.9324 H   0  0  0  0  0  0  0  0  0  0  0  0
    1.2925   -1.6391   -0.7100 H   0  0  0  0  0  0  0  0  0  0  0  0
  1  2  2  3
  1  5  1  0
  1  6  1  0
  2  3  1  0
  2  7  1  0
  3  4  2  0
  3 11  1  0
  8  9  2  3
  8 12  1  0
  8 13  1  0
  9 10  1  0
  9 14  1  0
M  RAD  1  10   2
M  END
>  <reaction>  (6) 
rxn_1992

>  <mol_properties>  (6) 
{"2": {"label": "*3", "atom_type": "CS"}, "3": {"label": "*4", "atom_type": "S2d"}, "7": {"label": "*1", "atom_type": "Cs"}, "8": {"label": "*0", "atom_type": "CS"}, "10": {"label": "*2", "atom_type": "H0"}}

>  <type>  (6) 
unop_2

>  <geom_source>  (6) 
Heuristics

$$$$

     RDKit          3D

 14 12  0  0  0  0  0  0  0  0999 V2000
    0.5789    0.9249    3.1664 C   0  0  0  0  0  0  0  0  0  0  0  0
   -0.6035    0.9015    2.5536 C   0  0  0  0  0  0  0  0  0  0  0  0
   -0.7861    0.2637    1.2632 C   0  0  0  0  0  0  0  0  0  0  0  0
   -2.1775    0.1867    0.4491 S   0  0  0  0  0  0  0  0  0  0  0  0
    0.7097    1.4020    4.1290 H   0  0  0  0  0  0  0  0  0  0  0  0
    1.4535    0.4651    2.7198 H   0  0  0  0  0  0  0  0  0  0  0  0
   -1.4779    1.3613    3.0005 H   0  0  0  0  0  0  0  0  0  0  0  0
    1.3138    0.3282   -0.3073 C   0  0  0  0  0  0  0  0  0  0  0  0
    1.3138   -0.8703   -1.1895 C   0  0  0  0  0  0  0  0  0  0  0  0
    1.3138   -0.8703   -2.7962 S   0  0  0  0  0  1  0  0  0  0  0  0
    0.2625    0.2959    0.4790 H   0  0  0  0  0  0  0  0  0  0  0  0
    2.1900    0.3013    0.3479 H   0  0  0  0  0  0  0  0  0  0  0  0
    1.3138    1.2520   -0.8820 H   0  0  0  0  0  0  0  0  0  0  0  0
    1.3138   -1.8247   -0.6596 H   0  0  0  0  0  0  0  0  0  0  0  0
  1  2  2  3
  1  5  1  0
  1  6  1  0
  2  3  1  0
  2  7  1  0
  3  4  2  0
  3 11  1  0
  8  9  2  3
  8 12  1  0
  8 13  1  0
  9 10  1  0
  9 14  1  0
M  RAD  1  10   2
M  END
>  <reaction>  (7) 
rxn_1992

>  <mol_properties>  (7) 
{"2": {"label": "*3", "atom_type": "CS"}, "3": {"label": "*4", "atom_type": "S2d"}, "7": {"label": "*1", "atom_type": "Cs"}, "8": {"label": "*0", "atom_type": "CS"}, "10": {"label": "*2", "atom_type": "H0"}}

>  <type>  (7) 
unop_3

>  <geom_source>  (7) 
Heuristics

$$$$

     RDKit          3D

 14 12  0  0  0  0  0  0  0  0999 V2000
   -2.1726   -0.3031   -0.5538 C   0  0  0  0  0  0  0  0  0  0  0  0
   -2.0186    0.2731    0.6371 C   0  0  0  0  0  0  0  0  0  0  0  0
   -0.7412    0.2823    1.3253 C   0  0  0  0  0  0  0  0  0  0  0  0
   -0.4625    0.9541    2.7660 S   0  0  0  0  0  0  0  0  0  0  0  0
   -3.1276   -0.3071   -1.0629 H   0  0  0  0  0  0  0  0  0  0  0  0
   -1.3432   -0.7895   -1.0552 H   0  0  0  0  0  0  0  0  0  0  0  0
   -2.8481    0.7593    1.1383 H   0  0  0  0  0  0  0  0  0  0  0  0
    1.3587    0.3467   -0.2452 C   0  0  0  0  0  0  0  0  0  0  0  0
    1.3587   -0.8517   -1.1274 C   0  0  0  0  0  0  0  0  0  0  0  0
    1.3587   -0.8517   -2.7340 S   0  0  0  0  0  1  0  0  0  0  0  0
    0.3074    0.3144    0.5411 H   0  0  0  0  0  0  0  0  0  0  0  0
    2.2349    0.3198    0.4100 H   0  0  0  0  0  0  0  0  0  0  0  0
    1.3587    1.2705   -0.8198 H   0  0  0  0  0  0  0  0  0  0  0  0
    1.3587   -1.8062   -0.5974 H   0  0  0  0  0  0  0  0  0  0  0  0
  1  2  2  3
  1  5  1  0
  1  6  1  0
  2  3  1  0
  2  7  1  0
  3  4  2  0
  3 11  1  0
  8  9  2  3
  8 12  1  0
  8 13  1  0
  9 10  1  0
  9 14  1  0
M  RAD  1  10   2
M  END
>  <reaction>  (8) 
rxn_1992

>  <mol_properties>  (8) 
{"2": {"label": "*3", "atom_type": "CS"}, "3": {"label": "*4", "atom_type": "S2d"}, "7": {"label": "*1", "atom_type": "Cs"}, "8": {"label": "*0", "atom_type": "CS"}, "10": {"label": "*2", "atom_type": "H0"}}

>  <type>  (8) 
unop_4

>  <geom_source>  (8) 
Heuristics

$$$$

     RDKit          3D

 14 12  0  0  0  0  0  0  0  0999 V2000
    0.0083    2.4419    2.1730 C   0  0  0  0  0  0  0  0  0  0  0  0
   -0.8929    1.4615    2.1457 C   0  0  0  0  0  0  0  0  0  0  0  0
   -0.7787    0.3400    1.2321 C   0  0  0  0  0  0  0  0  0  0  0  0
   -1.8195   -0.8892    1.1292 S   0  0  0  0  0  0  0  0  0  0  0  0
   -0.0815    3.2763    2.8564 H   0  0  0  0  0  0  0  0  0  0  0  0
    0.8656    2.4371    1.5089 H   0  0  0  0  0  0  0  0  0  0  0  0
   -1.7499    1.4666    2.8098 H   0  0  0  0  0  0  0  0  0  0  0  0
    1.3213    0.4045   -0.3384 C   0  0  0  0  0  0  0  0  0  0  0  0
    1.3213   -0.7940   -1.2206 C   0  0  0  0  0  0  0  0  0  0  0  0
    1.3213   -0.7940   -2.8272 S   0  0  0  0  0  1  0  0  0  0  0  0
    0.2699    0.3722    0.4479 H   0  0  0  0  0  0  0  0  0  0  0  0
    2.1974    0.3776    0.3168 H   0  0  0  0  0  0  0  0  0  0  0  0
    1.3213    1.3283   -0.9130 H   0  0  0  0  0  0  0  0  0  0  0  0
    1.3213   -1.7484   -0.6906 H   0  0  0  0  0  0  0  0  0  0  0  0
  1  2  2  3
  1  5  1  0
  1  6  1  0
  2  3  1  0
  2  7  1  0
  3  4  2  0
  3 11  1  0
  8  9  2  3
  8 12  1  0
  8 13  1  0
  9 10  1  0
  9 14  1  0
M  RAD  1  10   2
M  END
>  <reaction>  (9) 
rxn_1992

>  <mol_properties>  (9) 
{"2": {"label": "*3", "atom_type": "CS"}, "3": {"label": "*4", "atom_type": "S2d"}, "7": {"label": "*1", "atom_type": "Cs"}, "8": {"label": "*0", "atom_type": "CS"}, "10": {"label": "*2", "atom_type": "H0"}}

>  <type>  (9) 
unop_5

>  <geom_source>  (9) 
Heuristics

$$$$

     RDKit          3D

 14 12  0  0  0  0  0  0  0  0999 V2000
   -2.3214    0.7742   -0.5369 C   0  0  0  0  0  0  0  0  0  0  0  0
   -1.9763    0.8858    0.7447 C   0  0  0  0  0  0  0  0  0  0  0  0
   -0.7934    0.2378    1.2797 C   0  0  0  0  0  0  0  0  0  0  0  0
   -0.2993    0.3173    2.8141 S   0  0  0  0  0  0  0  0  0  0  0  0
   -3.2049    1.2596   -0.9309 H   0  0  0  0  0  0  0  0  0  0  0  0
   -1.7267    0.1911   -1.2312 H   0  0  0  0  0  0  0  0  0  0  0  0
   -2.5712    1.4689    1.4388 H   0  0  0  0  0  0  0  0  0  0  0  0
    1.3066    0.3023   -0.2908 C   0  0  0  0  0  0  0  0  0  0  0  0
    1.3066   -0.8962   -1.1730 C   0  0  0  0  0  0  0  0  0  0  0  0
    1.3066   -0.8962   -2.7797 S   0  0  0  0  0  1  0  0  0  0  0  0
    0.2552    0.2700    0.4955 H   0  0  0  0  0  0  0  0  0  0  0  0
    2.1827    0.2754    0.3644 H   0  0  0  0  0  0  0  0  0  0  0  0
    1.3066    1.2261   -0.8655 H   0  0  0  0  0  0  0  0  0  0  0  0
    1.3066   -1.8506   -0.6431 H   0  0  0  0  0  0  0  0  0  0  0  0
  1  2  2  3
  1  5  1  0
  1  6  1  0
  2  3  1  0
  2  7  1  0
  3  4  2  0
  3 11  1  0
  8  9  2  3
  8 12  1  0
  8 13  1  0
  9 10  1  0
  9 14  1  0
M  RAD  1  10   2
M  END
>  <reaction>  (10) 
rxn_1992

>  <mol_properties>  (10) 
{"2": {"label": "*3", "atom_type": "CS"}, "3": {"label": "*4", "atom_type": "S2d"}, "7": {"label": "*1", "atom_type": "Cs"}, "8": {"label": "*0", "atom_type": "CS"}, "10": {"label": "*2", "atom_type": "H0"}}

>  <type>  (10) 
unop_6

>  <geom_source>  (10) 
Heuristics

$$$$

     RDKit          3D

 14 12  0  0  0  0  0  0  0  0999 V2000
   -2.0630    1.8850   -0.1124 C   0  0  0  0  0  0  0  0  0  0  0  0
   -1.7452    1.3817    1.0791 C   0  0  0  0  0  0  0  0  0  0  0  0
   -0.8426    0.2543    1.2195 C   0  0  0  0  0  0  0  0  0  0  0  0
   -0.4022   -0.4197    2.6182 S   0  0  0  0  0  0  0  0  0  0  0  0
   -2.7368    2.7261   -0.2117 H   0  0  0  0  0  0  0  0  0  0  0  0
   -1.6559    1.4674   -1.0266 H   0  0  0  0  0  0  0  0  0  0  0  0
   -2.1525    1.7994    1.9930 H   0  0  0  0  0  0  0  0  0  0  0  0
    1.2573    0.3187   -0.3510 C   0  0  0  0  0  0  0  0  0  0  0  0
    1.2573   -0.8797   -1.2332 C   0  0  0  0  0  0  0  0  0  0  0  0
    1.2573   -0.8797   -2.8399 S   0  0  0  0  0  1  0  0  0  0  0  0
    0.2059    0.2865    0.4353 H   0  0  0  0  0  0  0  0  0  0  0  0
    2.1335    0.2919    0.3042 H   0  0  0  0  0  0  0  0  0  0  0  0
    1.2573    1.2425   -0.9257 H   0  0  0  0  0  0  0  0  0  0  0  0
    1.2573   -1.8342   -0.7033 H   0  0  0  0  0  0  0  0  0  0  0  0
  1  2  2  3
  1  5  1  0
  1  6  1  0
  2  3  1  0
  2  7  1  0
  3  4  2  0
  3 11  1  0
  8  9  2  3
  8 12  1  0
  8 13  1  0
  9 10  1  0
  9 14  1  0
M  RAD  1  10   2
M  END
>  <reaction>  (11) 
rxn_1992

>  <mol_properties>  (11) 
{"2": {"label": "*3", "atom_type": "CS"}, "3": {"label": "*4", "atom_type": "S2d"}, "7": {"label": "*1", "atom_type": "Cs"}, "8": {"label": "*0", "atom_type": "CS"}, "10": {"label": "*2", "atom_type": "H0"}}

>  <type>  (11) 
unop_7

>  <geom_source>  (11) 
Heuristics

$$$$

     RDKit          3D

 14 12  0  0  0  0  0  0  0  0999 V2000
    0.0434   -1.4852    2.5325 C   0  0  0  0  0  0  0  0  0  0  0  0
   -0.6688   -0.3633    2.4416 C   0  0  0  0  0  0  0  0  0  0  0  0
   -0.8738    0.3146    1.1753 C   0  0  0  0  0  0  0  0  0  0  0  0
   -1.7194    1.6740    0.9710 S   0  0  0  0  0  0  0  0  0  0  0  0
    0.1933   -1.9870    3.4796 H   0  0  0  0  0  0  0  0  0  0  0  0
    0.4988   -1.9352    1.6573 H   0  0  0  0  0  0  0  0  0  0  0  0
   -1.1241    0.0863    3.3170 H   0  0  0  0  0  0  0  0  0  0  0  0
    1.2262    0.3791   -0.3952 C   0  0  0  0  0  0  0  0  0  0  0  0
    1.2262   -0.8194   -1.2774 C   0  0  0  0  0  0  0  0  0  0  0  0
    1.2262   -0.8194   -2.8841 S   0  0  0  0  0  1  0  0  0  0  0  0
    0.1748    0.3468    0.3911 H   0  0  0  0  0  0  0  0  0  0  0  0
    2.1023    0.3522    0.2600 H   0  0  0  0  0  0  0  0  0  0  0  0
    1.2261    1.3029   -0.9699 H   0  0  0  0  0  0  0  0  0  0  0  0
    1.2262   -1.7738   -0.7475 H   0  0  0  0  0  0  0  0  0  0  0  0
  1  2  2  3
  1  5  1  0
  1  6  1  0
  2  3  1  0
  2  7  1  0
  3  4  2  0
  3 11  1  0
  8  9  2  3
  8 12  1  0
  8 13  1  0
  9 10  1  0
  9 14  1  0
M  RAD  1  10   2
M  END
>  <reaction>  (12) 
rxn_1992

>  <mol_properties>  (12) 
{"2": {"label": "*3", "atom_type": "CS"}, "3": {"label": "*4", "atom_type": "S2d"}, "7": {"label": "*1", "atom_type": "Cs"}, "8": {"label": "*0", "atom_type": "CS"}, "10": {"label": "*2", "atom_type": "H0"}}

>  <type>  (12) 
unop_8

>  <geom_source>  (12) 
Heuristics

$$$$

     RDKit          3D

 14 12  0  0  0  0  0  0  0  0999 V2000
   -1.7838   -1.1281   -0.2728 C   0  0  0  0  0  0  0  0  0  0  0  0
   -1.8800   -0.3026    0.7680 C   0  0  0  0  0  0  0  0  0  0  0  0
   -0.7194    0.3652    1.3270 C   0  0  0  0  0  0  0  0  0  0  0  0
   -0.7411    1.3787    2.5828 S   0  0  0  0  0  0  0  0  0  0  0  0
   -2.6527   -1.6238   -0.6861 H   0  0  0  0  0  0  0  0  0  0  0  0
   -0.8282   -1.3322   -0.7430 H   0  0  0  0  0  0  0  0  0  0  0  0
   -2.8356   -0.0987    1.2378 H   0  0  0  0  0  0  0  0  0  0  0  0
    1.3805    0.4297   -0.2435 C   0  0  0  0  0  0  0  0  0  0  0  0
    1.3805   -0.7688   -1.1257 C   0  0  0  0  0  0  0  0  0  0  0  0
    1.3805   -0.7688   -2.7323 S   0  0  0  0  0  1  0  0  0  0  0  0
    0.3292    0.3974    0.5428 H   0  0  0  0  0  0  0  0  0  0  0  0
    2.2567    0.4028    0.4117 H   0  0  0  0  0  0  0  0  0  0  0  0
    1.3805    1.3535   -0.8182 H   0  0  0  0  0  0  0  0  0  0  0  0
    1.3805   -1.7232   -0.5957 H   0  0  0  0  0  0  0  0  0  0  0  0
  1  2  2  3
  1  5  1  0
  1  6  1  0
  2  3  1  0
  2  7  1  0
  3  4  2  0
  3 11  1  0
  8  9  2  3
  8 12  1  0
  8 13  1  0
  9 10  1  0
  9 14  1  0
M  RAD  1  10   2
M  END
>  <reaction>  (13) 
rxn_1992

>  <mol_properties>  (13) 
{"2": {"label": "*3", "atom_type": "CS"}, "3": {"label": "*4", "atom_type": "S2d"}, "7": {"label": "*1", "atom_type": "Cs"}, "8": {"label": "*0", "atom_type": "CS"}, "10": {"label": "*2", "atom_type": "H0"}}

>  <type>  (13) 
unop_9

>  <geom_source>  (13) 
Heuristics

$$$$

     RDKit          3D

 14 12  0  0  0  0  0  0  0  0999 V2000
   -0.4505   -1.9484    1.6813 C   0  0  0  0  0  0  0  0  0  0  0  0
   -0.9354   -0.7617    2.0430 C   0  0  0  0  0  0  0  0  0  0  0  0
   -0.8600    0.3957    1.1712 C   0  0  0  0  0  0  0  0  0  0  0  0
   -1.4189    1.8679    1.5247 S   0  0  0  0  0  0  0  0  0  0  0  0
   -0.5093   -2.8086    2.3354 H   0  0  0  0  0  0  0  0  0  0  0  0
    0.0213   -2.0931    0.7157 H   0  0  0  0  0  0  0  0  0  0  0  0
   -1.4071   -0.6174    3.0086 H   0  0  0  0  0  0  0  0  0  0  0  0
    1.2400    0.4602   -0.3993 C   0  0  0  0  0  0  0  0  0  0  0  0
    1.2400   -0.7383   -1.2815 C   0  0  0  0  0  0  0  0  0  0  0  0
    1.2400   -0.7383   -2.8881 S   0  0  0  0  0  1  0  0  0  0  0  0
    0.1886    0.4279    0.3870 H   0  0  0  0  0  0  0  0  0  0  0  0
    2.1161    0.4333    0.2559 H   0  0  0  0  0  0  0  0  0  0  0  0
    1.2400    1.3840   -0.9740 H   0  0  0  0  0  0  0  0  0  0  0  0
    1.2400   -1.6927   -0.7515 H   0  0  0  0  0  0  0  0  0  0  0  0
  1  2  2  3
  1  5  1  0
  1  6  1  0
  2  3  1  0
  2  7  1  0
  3  4  2  0
  3 11  1  0
  8  9  2  3
  8 12  1  0
  8 13  1  0
  9 10  1  0
  9 14  1  0
M  RAD  1  10   2
M  END
>  <reaction>  (14) 
rxn_1992

>  <mol_properties>  (14) 
{"2": {"label": "*3", "atom_type": "CS"}, "3": {"label": "*4", "atom_type": "S2d"}, "7": {"label": "*1", "atom_type": "Cs"}, "8": {"label": "*0", "atom_type": "CS"}, "10": {"label": "*2", "atom_type": "H0"}}

>  <type>  (14) 
unop_10

>  <geom_source>  (14) 
Heuristics

$$$$

     RDKit          3D

 14 12  0  0  0  0  0  0  0  0999 V2000
   -1.2609    2.6827    0.7785 C   0  0  0  0  0  0  0  0  0  0  0  0
   -1.3563    1.6206    1.5767 C   0  0  0  0  0  0  0  0  0  0  0  0
   -0.8449    0.3199    1.1869 C   0  0  0  0  0  0  0  0  0  0  0  0
   -0.9161   -1.0184    2.0862 S   0  0  0  0  0  0  0  0  0  0  0  0
   -1.6440    3.6508    1.0741 H   0  0  0  0  0  0  0  0  0  0  0  0
   -0.7945    2.6129   -0.1980 H   0  0  0  0  0  0  0  0  0  0  0  0
   -1.8227    1.6908    2.5530 H   0  0  0  0  0  0  0  0  0  0  0  0
    1.2551    0.3843   -0.3836 C   0  0  0  0  0  0  0  0  0  0  0  0
    1.2551   -0.8141   -1.2658 C   0  0  0  0  0  0  0  0  0  0  0  0
    1.2551   -0.8141   -2.8725 S   0  0  0  0  0  1  0  0  0  0  0  0
    0.2037    0.3521    0.4027 H   0  0  0  0  0  0  0  0  0  0  0  0
    2.1312    0.3575    0.2716 H   0  0  0  0  0  0  0  0  0  0  0  0
    1.2550    1.3081   -0.9583 H   0  0  0  0  0  0  0  0  0  0  0  0
    1.2551   -1.7685   -0.7359 H   0  0  0  0  0  0  0  0  0  0  0  0
  1  2  2  3
  1  5  1  0
  1  6  1  0
  2  3  1  0
  2  7  1  0
  3  4  2  0
  3 11  1  0
  8  9  2  3
  8 12  1  0
  8 13  1  0
  9 10  1  0
  9 14  1  0
M  RAD  1  10   2
M  END
>  <reaction>  (15) 
rxn_1992

>  <mol_properties>  (15) 
{"2": {"label": "*3", "atom_type": "CS"}, "3": {"label": "*4", "atom_type": "S2d"}, "7": {"label": "*1", "atom_type": "Cs"}, "8": {"label": "*0", "atom_type": "CS"}, "10": {"label": "*2", "atom_type": "H0"}}

>  <type>  (15) 
unop_11

>  <geom_source>  (15) 
Heuristics

$$$$

     RDKit          3D

 14 12  0  0  0  0  0  0  0  0999 V2000
   -1.3439   -1.6586    0.1965 C   0  0  0  0  0  0  0  0  0  0  0  0
   -1.6103   -0.7140    1.0970 C   0  0  0  0  0  0  0  0  0  0  0  0
   -0.7465    0.4375    1.2791 C   0  0  0  0  0  0  0  0  0  0  0  0
   -0.9896    1.6273    2.3422 S   0  0  0  0  0  0  0  0  0  0  0  0
   -1.9916   -2.5156    0.0646 H   0  0  0  0  0  0  0  0  0  0  0  0
   -0.4659   -1.6005   -0.4372 H   0  0  0  0  0  0  0  0  0  0  0  0
   -2.4883   -0.7724    1.7305 H   0  0  0  0  0  0  0  0  0  0  0  0
    1.3534    0.5020   -0.2914 C   0  0  0  0  0  0  0  0  0  0  0  0
    1.3534   -0.6965   -1.1736 C   0  0  0  0  0  0  0  0  0  0  0  0
    1.3534   -0.6965   -2.7802 S   0  0  0  0  0  1  0  0  0  0  0  0
    0.3021    0.4697    0.4949 H   0  0  0  0  0  0  0  0  0  0  0  0
    2.2296    0.4751    0.3638 H   0  0  0  0  0  0  0  0  0  0  0  0
    1.3534    1.4257   -0.8661 H   0  0  0  0  0  0  0  0  0  0  0  0
    1.3534   -1.6509   -0.6436 H   0  0  0  0  0  0  0  0  0  0  0  0
  1  2  2  3
  1  5  1  0
  1  6  1  0
  2  3  1  0
  2  7  1  0
  3  4  2  0
  3 11  1  0
  8  9  2  3
  8 12  1  0
  8 13  1  0
  9 10  1  0
  9 14  1  0
M  RAD  1  10   2
M  END
>  <reaction>  (16) 
rxn_1992

>  <mol_properties>  (16) 
{"2": {"label": "*3", "atom_type": "CS"}, "3": {"label": "*4", "atom_type": "S2d"}, "7": {"label": "*1", "atom_type": "Cs"}, "8": {"label": "*0", "atom_type": "CS"}, "10": {"label": "*2", "atom_type": "H0"}}

>  <type>  (16) 
unop_12

>  <geom_source>  (16) 
Heuristics

$$$$

     RDKit          3D

 14 12  0  0  0  0  0  0  0  0999 V2000
    1.4117   -1.1360   -2.1617 S   0  0  0  0  0  0  0  0  0  0  0  0
   -3.9658    0.9709   -0.6036 S   0  0  0  0  0  1  0  0  0  0  0  0
    1.6375    0.0693    0.2912 C   0  0  0  0  0  0  0  0  0  0  0  0
    2.9554   -0.1183    0.3638 C   0  0  0  0  0  0  0  0  0  0  0  0
    0.8065   -0.3662   -0.8465 C   0  0  0  0  0  0  0  0  0  0  0  0
   -1.6133    0.1868   -0.0630 C   0  0  0  0  0  0  0  0  0  0  0  0
   -3.0012    0.5347    0.3641 C   0  0  0  0  0  0  0  0  0  0  0  0
    1.1408    0.5702    1.1122 H   0  0  0  0  0  0  0  0  0  0  0  0
    3.5090   -0.6119   -0.4237 H   0  0  0  0  0  0  0  0  0  0  0  0
    3.4999    0.2294    1.2321 H   0  0  0  0  0  0  0  0  0  0  0  0
   -0.5072   -0.1204   -0.8029 H   0  0  0  0  0  0  0  0  0  0  0  0
   -3.2660    0.5206    1.4164 H   0  0  0  0  0  0  0  0  0  0  0  0
   -1.6255   -0.7186   -0.7066 H   0  0  0  0  0  0  0  0  0  0  0  0
   -0.9818   -0.0105    0.8283 H   0  0  0  0  0  0  0  0  0  0  0  0
  1  5  2  0
  2  7  1  0
  3  4  2  3
  3  5  1  0
  3  8  1  0
  4  9  1  0
  4 10  1  0
  5 11  1  0
  6  7  2  3
  6 13  1  0
  6 14  1  0
  7 12  1  0
M  RAD  1   2   2
M  END
>  <reaction>  (17) 
rxn_1992

>  <mol_properties>  (17) 
{"2": {"label": "*3", "atom_type": "CS"}, "3": {"label": "*4", "atom_type": "S2d"}, "7": {"label": "*1", "atom_type": "Cs"}, "8": {"label": "*0", "atom_type": "CS"}, "10": {"label": "*2", "atom_type": "H0"}}

>  <type>  (17) 
unop_13

>  <geom_source>  (17) 
AutoTST

$$$$
