
     RDKit          3D

 13 12  0  0  0  0  0  0  0  0999 V2000
    2.2975   -0.6134    0.7685 C   0  0  0  0  0  0  0  0  0  0  0  0
    1.1676   -0.5248    0.3802 C   0  0  0  0  0  0  0  0  0  0  0  0
   -0.2109   -0.3926   -0.0948 C   0  0  0  0  0  0  0  0  0  0  0  0
   -0.2501    0.2584   -1.4808 C   0  0  0  0  0  0  0  0  0  0  0  0
   -1.0633    0.3831    0.9141 C   0  0  0  0  0  0  0  0  0  0  0  0
    3.2999   -0.6974    1.1133 H   0  0  0  0  0  0  0  0  0  0  0  0
   -0.6209   -1.4038   -0.1814 H   0  0  0  0  0  0  0  0  0  0  0  0
    0.3402   -0.3102   -2.1992 H   0  0  0  0  0  0  0  0  0  0  0  0
    0.1511    1.2724   -1.4369 H   0  0  0  0  0  0  0  0  0  0  0  0
   -1.2791    0.3109   -1.8407 H   0  0  0  0  0  0  0  0  0  0  0  0
   -0.6861    1.4008    1.0287 H   0  0  0  0  0  0  0  0  0  0  0  0
   -1.0492   -0.0971    1.8924 H   0  0  0  0  0  0  0  0  0  0  0  0
   -2.0971    0.4363    0.5680 H   0  0  0  0  0  0  0  0  0  0  0  0
  1  2  3  0
  1  6  1  0
  2  3  1  0
  3  4  1  0
  3  5  1  0
  3  7  1  0
  4  8  1  0
  4  9  1  0
  4 10  1  0
  5 11  1  0
  5 12  1  0
  5 13  1  0
M  END
>  <reaction>  (1) 
rxn_1324

>  <mol_properties>  (1) 
{"2": {"label": "donator", "atom_type": "Cs"}, "6": {"label": "d_hydrogen", "atom_type": "H0"}}

>  <type>  (1) 
r1h

$$$$

     RDKit          3D

  8  7  0  0  0  0  0  0  0  0999 V2000
   -1.0607    0.1793   -0.1423 C   0  0  0  0  0  0  0  0  0  0  0  0
    0.2796    0.0327    0.4820 C   0  0  0  0  0  3  0  0  0  0  0  0
    0.8817   -1.4663    1.0791 S   0  0  0  0  0  0  0  0  0  0  0  0
   -1.3043    1.2328   -0.2850 H   0  0  0  0  0  0  0  0  0  0  0  0
   -1.8444   -0.2641    0.4799 H   0  0  0  0  0  0  0  0  0  0  0  0
   -1.1164   -0.3100   -1.1237 H   0  0  0  0  0  0  0  0  0  0  0  0
    1.0449    0.7826    0.3391 H   0  0  0  0  0  0  0  0  0  0  0  0
   -0.2993   -2.0726    1.2718 H   0  0  0  0  0  0  0  0  0  0  0  0
  1  2  1  0
  1  4  1  0
  1  5  1  0
  1  6  1  0
  2  3  1  0
  2  7  1  0
  3  8  1  0
M  RAD  1   2   2
M  END
>  <reaction>  (2) 
rxn_1324

>  <mol_properties>  (2) 
{"1": {"label": "acceptor", "atom_type": "Cs"}}

>  <type>  (2) 
r2

$$$$

     RDKit          3D

  9  8  0  0  0  0  0  0  0  0999 V2000
   -0.8818   -0.3578    0.1297 C   0  0  0  0  0  0  0  0  0  0  0  0
    0.6153   -0.3021   -0.1188 C   0  0  0  0  0  0  0  0  0  0  0  0
    1.5354   -1.7170    0.5545 S   0  0  0  0  0  0  0  0  0  0  0  0
   -1.1018   -0.3317    1.1984 H   0  0  0  0  0  0  0  0  0  0  0  0
   -1.3114   -1.2723   -0.2799 H   0  0  0  0  0  0  0  0  0  0  0  0
   -1.3767    0.4976   -0.3363 H   0  0  0  0  0  0  0  0  0  0  0  0
    1.0467    0.6194    0.2718 H   0  0  0  0  0  0  0  0  0  0  0  0
    0.8295   -0.3275   -1.1882 H   0  0  0  0  0  0  0  0  0  0  0  0
    1.2306   -1.5077    1.8423 H   0  0  0  0  0  0  0  0  0  0  0  0
  1  2  1  0
  1  4  1  0
  1  5  1  0
  1  6  1  0
  2  3  1  0
  2  7  1  0
  2  8  1  0
  3  9  1  0
M  END
>  <reaction>  (3) 
rxn_1324

>  <mol_properties>  (3) 
{"0": {"label": "a_hydrogen", "atom_type": "H0"}, "2": {"label": "acceptor", "atom_type": "Cs"}}

>  <type>  (3) 
r2h

$$$$

     RDKit          3D

 21 19  0  0  0  0  0  0  0  0999 V2000
   -0.2964    0.9143   -2.7160 C   0  0  0  0  0  0  0  0  0  0  0  0
   -0.0587    1.1426   -1.5586 C   0  0  0  0  0  0  0  0  0  0  0  0
    0.2233    1.3441   -0.1679 C   0  0  0  0  0  0  0  0  0  0  0  0
   -0.8762    2.0480    0.6032 C   0  0  0  0  0  0  0  0  0  0  0  0
    1.6266    1.8390    0.1257 C   0  0  0  0  0  0  0  0  0  0  0  0
   -0.5055    0.7406   -3.7439 H   0  0  0  0  0  0  0  0  0  0  0  0
    0.1923    0.1263    0.3147 H   0  0  0  0  0  0  0  0  0  0  0  0
   -1.8381    1.5611    0.4418 H   0  0  0  0  0  0  0  0  0  0  0  0
   -0.9637    3.0935    0.2939 H   0  0  0  0  0  0  0  0  0  0  0  0
   -0.6550    2.0286    1.6723 H   0  0  0  0  0  0  0  0  0  0  0  0
    1.7427    2.8849   -0.1730 H   0  0  0  0  0  0  0  0  0  0  0  0
    2.3727    1.2520   -0.4104 H   0  0  0  0  0  0  0  0  0  0  0  0
    1.8329    1.7705    1.1960 H   0  0  0  0  0  0  0  0  0  0  0  0
    1.3056   -1.8171   -0.0450 C   0  0  0  0  0  0  0  0  0  0  0  0
    0.1550   -1.2023    0.7040 C   0  0  0  0  0  3  0  0  0  0  0  0
   -1.4810   -1.7577    0.3193 S   0  0  0  0  0  0  0  0  0  0  0  0
    2.2499   -1.3787    0.2843 H   0  0  0  0  0  0  0  0  0  0  0  0
    1.2051   -1.6357   -1.1178 H   0  0  0  0  0  0  0  0  0  0  0  0
    1.3557   -2.8980    0.1117 H   0  0  0  0  0  0  0  0  0  0  0  0
    0.2693   -1.1728    1.7859 H   0  0  0  0  0  0  0  0  0  0  0  0
   -1.4045   -1.5460   -1.0037 H   0  0  0  0  0  0  0  0  0  0  0  0
  1  2  3  0
  1  6  1  0
  2  3  1  0
  3  4  1  0
  3  5  1  0
  3  7  1  0
  4  8  1  0
  4  9  1  0
  4 10  1  0
  5 11  1  0
  5 12  1  0
  5 13  1  0
 14 15  1  0
 14 17  1  0
 14 18  1  0
 14 19  1  0
 15 16  1  0
 15 20  1  0
 16 21  1  0
M  RAD  1  15   2
M  END
>  <reaction>  (4) 
rxn_1324

>  <mol_properties>  (4) 
{"1": {"label": "*0", "atom_type": "Ct"}, "2": {"label": "*1", "atom_type": "Cs"}, "6": {"label": "*2", "atom_type": "H0"}, "14": {"label": "*3", "atom_type": "Cs"}, "15": {"label": "*4", "atom_type": "S2s"}}

>  <type>  (4) 
ts

$$$$

     RDKit          3D

 21 19  0  0  0  0  0  0  0  0999 V2000
    0.0699    1.4164   -2.7141 C   0  0  0  0  0  0  0  0  0  0  0  0
    0.0699    1.4164   -1.5160 C   0  0  0  0  0  0  0  0  0  0  0  0
    0.0699    1.4403   -0.0522 C   0  0  0  0  0  3  0  0  0  0  0  0
   -1.1962    2.1168    0.4821 C   0  0  0  0  0  0  0  0  0  0  0  0
    1.3360    2.1167    0.4821 C   0  0  0  0  0  0  0  0  0  0  0  0
    0.0699    1.4164   -3.7775 H   0  0  0  0  0  0  0  0  0  0  0  0
    0.0699    0.1917    0.3556 H   0  0  0  0  0  0  0  0  0  0  0  0
   -2.0932    1.6175    0.1162 H   0  0  0  0  0  0  0  0  0  0  0  0
   -1.2335    3.1603    0.1646 H   0  0  0  0  0  0  0  0  0  0  0  0
   -1.2035    2.0888    1.5732 H   0  0  0  0  0  0  0  0  0  0  0  0
    1.3734    3.1603    0.1646 H   0  0  0  0  0  0  0  0  0  0  0  0
    2.2331    1.6174    0.1162 H   0  0  0  0  0  0  0  0  0  0  0  0
    1.3434    2.0887    1.5732 H   0  0  0  0  0  0  0  0  0  0  0  0
    1.2956   -1.3551    1.6054 C   0  0  0  0  0  0  0  0  0  0  0  0
    0.0699   -1.0515    0.7617 C   0  0  0  0  0  0  0  0  0  0  0  0
   -0.7987   -2.5264    0.1518 S   0  0  0  0  0  0  0  0  0  0  0  0
    1.7431   -0.4287    1.9731 H   0  0  0  0  0  0  0  0  0  0  0  0
    2.0508   -1.8839    1.0212 H   0  0  0  0  0  0  0  0  0  0  0  0
    1.0354   -1.9782    2.4614 H   0  0  0  0  0  0  0  0  0  0  0  0
   -0.6811   -0.5222    1.3500 H   0  0  0  0  0  0  0  0  0  0  0  0
    0.2101   -3.0137   -0.5829 H   0  0  0  0  0  0  0  0  0  0  0  0
  1  2  3  0
  1  6  1  0
  2  3  1  0
  3  4  1  0
  3  5  1  0
  4  8  1  0
  4  9  1  0
  4 10  1  0
  5 11  1  0
  5 12  1  0
  5 13  1  0
  7 15  1  0
 14 15  1  0
 14 17  1  0
 14 18  1  0
 14 19  1  0
 15 16  1  0
 15 20  1  0
 16 21  1  0
M  RAD  1   3   2
M  END
>  <reaction>  (5) 
rxn_1324

>  <mol_properties>  (5) 
{"1": {"label": "*0", "atom_type": "Ct"}, "2": {"label": "*1", "atom_type": "Cs"}, "6": {"label": "*2", "atom_type": "H0"}, "14": {"label": "*3", "atom_type": "Cs"}, "15": {"label": "*4", "atom_type": "S2s"}}

>  <type>  (5) 
unop_1

>  <geom_source>  (5) 
Heuristics

$$$$

     RDKit          3D

 21 19  0  0  0  0  0  0  0  0999 V2000
    0.2891    1.3028   -2.8405 C   0  0  0  0  0  0  0  0  0  0  0  0
    0.2891    1.3028   -1.6425 C   0  0  0  0  0  0  0  0  0  0  0  0
    0.2891    1.3268   -0.1786 C   0  0  0  0  0  3  0  0  0  0  0  0
   -0.9770    2.0032    0.3557 C   0  0  0  0  0  0  0  0  0  0  0  0
    1.5552    2.0032    0.3557 C   0  0  0  0  0  0  0  0  0  0  0  0
    0.2891    1.3028   -3.9039 H   0  0  0  0  0  0  0  0  0  0  0  0
    0.2890    0.0781    0.2292 H   0  0  0  0  0  0  0  0  0  0  0  0
   -1.8741    1.5039   -0.0102 H   0  0  0  0  0  0  0  0  0  0  0  0
   -1.0144    3.0467    0.0382 H   0  0  0  0  0  0  0  0  0  0  0  0
   -0.9844    1.9752    1.4468 H   0  0  0  0  0  0  0  0  0  0  0  0
    1.5926    3.0467    0.0382 H   0  0  0  0  0  0  0  0  0  0  0  0
    2.4522    1.5039   -0.0102 H   0  0  0  0  0  0  0  0  0  0  0  0
    1.5625    1.9752    1.4468 H   0  0  0  0  0  0  0  0  0  0  0  0
    0.9967   -2.0690   -0.3588 C   0  0  0  0  0  0  0  0  0  0  0  0
    0.2890   -1.1650    0.6353 C   0  0  0  0  0  0  0  0  0  0  0  0
   -1.1795   -1.9090    1.4045 S   0  0  0  0  0  0  0  0  0  0  0  0
    1.8909   -1.5778   -0.7499 H   0  0  0  0  0  0  0  0  0  0  0  0
    0.3469   -2.3052   -1.2034 H   0  0  0  0  0  0  0  0  0  0  0  0
    1.2935   -3.0075    0.1099 H   0  0  0  0  0  0  0  0  0  0  0  0
    0.9430   -0.9313    1.4767 H   0  0  0  0  0  0  0  0  0  0  0  0
   -1.8865   -2.0692    0.2778 H   0  0  0  0  0  0  0  0  0  0  0  0
  1  2  3  0
  1  6  1  0
  2  3  1  0
  3  4  1  0
  3  5  1  0
  4  8  1  0
  4  9  1  0
  4 10  1  0
  5 11  1  0
  5 12  1  0
  5 13  1  0
  7 15  1  0
 14 15  1  0
 14 17  1  0
 14 18  1  0
 14 19  1  0
 15 16  1  0
 15 20  1  0
 16 21  1  0
M  RAD  1   3   2
M  END
>  <reaction>  (6) 
rxn_1324

>  <mol_properties>  (6) 
{"1": {"label": "*0", "atom_type": "Ct"}, "2": {"label": "*1", "atom_type": "Cs"}, "6": {"label": "*2", "atom_type": "H0"}, "14": {"label": "*3", "atom_type": "Cs"}, "15": {"label": "*4", "atom_type": "S2s"}}

>  <type>  (6) 
unop_2

>  <geom_source>  (6) 
Heuristics

$$$$

     RDKit          3D

 21 19  0  0  0  0  0  0  0  0999 V2000
   -0.0994    1.4016   -2.6686 C   0  0  0  0  0  0  0  0  0  0  0  0
   -0.0994    1.4016   -1.4705 C   0  0  0  0  0  0  0  0  0  0  0  0
   -0.0994    1.4256   -0.0067 C   0  0  0  0  0  3  0  0  0  0  0  0
   -1.3655    2.1021    0.5277 C   0  0  0  0  0  0  0  0  0  0  0  0
    1.1668    2.1020    0.5277 C   0  0  0  0  0  0  0  0  0  0  0  0
   -0.0994    1.4016   -3.7319 H   0  0  0  0  0  0  0  0  0  0  0  0
   -0.0994    0.1769    0.4012 H   0  0  0  0  0  0  0  0  0  0  0  0
   -2.2625    1.6028    0.1617 H   0  0  0  0  0  0  0  0  0  0  0  0
   -1.4028    3.1456    0.2101 H   0  0  0  0  0  0  0  0  0  0  0  0
   -1.3728    2.0741    1.6187 H   0  0  0  0  0  0  0  0  0  0  0  0
    1.2041    3.1455    0.2101 H   0  0  0  0  0  0  0  0  0  0  0  0
    2.0638    1.6027    0.1617 H   0  0  0  0  0  0  0  0  0  0  0  0
    1.1741    2.0740    1.6187 H   0  0  0  0  0  0  0  0  0  0  0  0
    0.6083   -1.2090    2.1434 C   0  0  0  0  0  0  0  0  0  0  0  0
   -0.0994   -1.0662    0.8073 C   0  0  0  0  0  0  0  0  0  0  0  0
   -0.0577   -2.5634   -0.2216 S   0  0  0  0  0  0  0  0  0  0  0  0
    0.5086   -0.2904    2.7266 H   0  0  0  0  0  0  0  0  0  0  0  0
    1.6730   -1.4035    2.0028 H   0  0  0  0  0  0  0  0  0  0  0  0
    0.1891   -2.0334    2.7207 H   0  0  0  0  0  0  0  0  0  0  0  0
   -1.1627   -0.8710    0.9536 H   0  0  0  0  0  0  0  0  0  0  0  0
    1.2734   -2.6247   -0.3608 H   0  0  0  0  0  0  0  0  0  0  0  0
  1  2  3  0
  1  6  1  0
  2  3  1  0
  3  4  1  0
  3  5  1  0
  4  8  1  0
  4  9  1  0
  4 10  1  0
  5 11  1  0
  5 12  1  0
  5 13  1  0
  7 15  1  0
 14 15  1  0
 14 17  1  0
 14 18  1  0
 14 19  1  0
 15 16  1  0
 15 20  1  0
 16 21  1  0
M  RAD  1   3   2
M  END
>  <reaction>  (7) 
rxn_1324

>  <mol_properties>  (7) 
{"1": {"label": "*0", "atom_type": "Ct"}, "2": {"label": "*1", "atom_type": "Cs"}, "6": {"label": "*2", "atom_type": "H0"}, "14": {"label": "*3", "atom_type": "Cs"}, "15": {"label": "*4", "atom_type": "S2s"}}

>  <type>  (7) 
unop_3

>  <geom_source>  (7) 
Heuristics

$$$$

     RDKit          3D

 21 19  0  0  0  0  0  0  0  0999 V2000
    0.2042    0.8986   -3.1234 C   0  0  0  0  0  0  0  0  0  0  0  0
    0.2042    0.8986   -1.9253 C   0  0  0  0  0  0  0  0  0  0  0  0
    0.2042    0.9226   -0.4615 C   0  0  0  0  0  3  0  0  0  0  0  0
   -1.0619    1.5990    0.0729 C   0  0  0  0  0  0  0  0  0  0  0  0
    1.4703    1.5990    0.0729 C   0  0  0  0  0  0  0  0  0  0  0  0
    0.2042    0.8986   -4.1867 H   0  0  0  0  0  0  0  0  0  0  0  0
    0.2042   -0.3261   -0.0536 H   0  0  0  0  0  0  0  0  0  0  0  0
   -1.9590    1.0997   -0.2931 H   0  0  0  0  0  0  0  0  0  0  0  0
   -1.0993    2.6425   -0.2447 H   0  0  0  0  0  0  0  0  0  0  0  0
   -1.0693    1.5710    1.1639 H   0  0  0  0  0  0  0  0  0  0  0  0
    1.5077    2.6425   -0.2447 H   0  0  0  0  0  0  0  0  0  0  0  0
    2.3674    1.0997   -0.2931 H   0  0  0  0  0  0  0  0  0  0  0  0
    1.4776    1.5710    1.1639 H   0  0  0  0  0  0  0  0  0  0  0  0
   -1.0216   -2.3123   -0.1492 C   0  0  0  0  0  0  0  0  0  0  0  0
    0.2041   -1.5692    0.3525 C   0  0  0  0  0  0  0  0  0  0  0  0
   -0.0033   -0.8106    1.9905 S   0  0  0  0  0  0  0  0  0  0  0  0
   -0.8149   -2.7779   -1.1158 H   0  0  0  0  0  0  0  0  0  0  0  0
   -1.8654   -1.6321   -0.2779 H   0  0  0  0  0  0  0  0  0  0  0  0
   -1.3209   -3.0903    0.5535 H   0  0  0  0  0  0  0  0  0  0  0  0
    1.0446   -2.2534    0.4784 H   0  0  0  0  0  0  0  0  0  0  0  0
   -0.9962    0.0243    1.6556 H   0  0  0  0  0  0  0  0  0  0  0  0
  1  2  3  0
  1  6  1  0
  2  3  1  0
  3  4  1  0
  3  5  1  0
  4  8  1  0
  4  9  1  0
  4 10  1  0
  5 11  1  0
  5 12  1  0
  5 13  1  0
  7 15  1  0
 14 15  1  0
 14 17  1  0
 14 18  1  0
 14 19  1  0
 15 16  1  0
 15 20  1  0
 16 21  1  0
M  RAD  1   3   2
M  END
>  <reaction>  (8) 
rxn_1324

>  <mol_properties>  (8) 
{"1": {"label": "*0", "atom_type": "Ct"}, "2": {"label": "*1", "atom_type": "Cs"}, "6": {"label": "*2", "atom_type": "H0"}, "14": {"label": "*3", "atom_type": "Cs"}, "15": {"label": "*4", "atom_type": "S2s"}}

>  <type>  (8) 
unop_4

>  <geom_source>  (8) 
Heuristics

$$$$

     RDKit          3D

 21 19  0  0  0  0  0  0  0  0999 V2000
   -0.3523    1.2361   -2.7514 C   0  0  0  0  0  0  0  0  0  0  0  0
   -0.3523    1.2361   -1.5533 C   0  0  0  0  0  0  0  0  0  0  0  0
   -0.3523    1.2601   -0.0895 C   0  0  0  0  0  3  0  0  0  0  0  0
   -1.6184    1.9365    0.4448 C   0  0  0  0  0  0  0  0  0  0  0  0
    0.9138    1.9365    0.4448 C   0  0  0  0  0  0  0  0  0  0  0  0
   -0.3523    1.2361   -3.8147 H   0  0  0  0  0  0  0  0  0  0  0  0
   -0.3523    0.0114    0.3184 H   0  0  0  0  0  0  0  0  0  0  0  0
   -2.5155    1.4372    0.0789 H   0  0  0  0  0  0  0  0  0  0  0  0
   -1.6557    2.9801    0.1273 H   0  0  0  0  0  0  0  0  0  0  0  0
   -1.6257    1.9085    1.5359 H   0  0  0  0  0  0  0  0  0  0  0  0
    0.9512    2.9800    0.1273 H   0  0  0  0  0  0  0  0  0  0  0  0
    1.8109    1.4372    0.0789 H   0  0  0  0  0  0  0  0  0  0  0  0
    0.9212    1.9085    1.5359 H   0  0  0  0  0  0  0  0  0  0  0  0
   -0.3523   -1.3156    2.2408 C   0  0  0  0  0  0  0  0  0  0  0  0
   -0.3523   -1.2317    0.7244 C   0  0  0  0  0  0  0  0  0  0  0  0
    1.0237   -2.1129   -0.0704 S   0  0  0  0  0  0  0  0  0  0  0  0
   -1.2260   -0.8028    2.6500 H   0  0  0  0  0  0  0  0  0  0  0  0
    0.5394   -0.8446    2.6582 H   0  0  0  0  0  0  0  0  0  0  0  0
   -0.3718   -2.3535    2.5741 H   0  0  0  0  0  0  0  0  0  0  0  0
   -1.2460   -1.7029    0.3127 H   0  0  0  0  0  0  0  0  0  0  0  0
    2.0120   -1.3904    0.4738 H   0  0  0  0  0  0  0  0  0  0  0  0
  1  2  3  0
  1  6  1  0
  2  3  1  0
  3  4  1  0
  3  5  1  0
  4  8  1  0
  4  9  1  0
  4 10  1  0
  5 11  1  0
  5 12  1  0
  5 13  1  0
  7 15  1  0
 14 15  1  0
 14 17  1  0
 14 18  1  0
 14 19  1  0
 15 16  1  0
 15 20  1  0
 16 21  1  0
M  RAD  1   3   2
M  END
>  <reaction>  (9) 
rxn_1324

>  <mol_properties>  (9) 
{"1": {"label": "*0", "atom_type": "Ct"}, "2": {"label": "*1", "atom_type": "Cs"}, "6": {"label": "*2", "atom_type": "H0"}, "14": {"label": "*3", "atom_type": "Cs"}, "15": {"label": "*4", "atom_type": "S2s"}}

>  <type>  (9) 
unop_5

>  <geom_source>  (9) 
Heuristics

$$$$

     RDKit          3D

 21 19  0  0  0  0  0  0  0  0999 V2000
    0.0121    0.8331   -3.1552 C   0  0  0  0  0  0  0  0  0  0  0  0
    0.0121    0.8331   -1.9571 C   0  0  0  0  0  0  0  0  0  0  0  0
    0.0121    0.8570   -0.4933 C   0  0  0  0  0  3  0  0  0  0  0  0
   -1.2540    1.5335    0.0411 C   0  0  0  0  0  0  0  0  0  0  0  0
    1.2782    1.5335    0.0411 C   0  0  0  0  0  0  0  0  0  0  0  0
    0.0121    0.8331   -4.2185 H   0  0  0  0  0  0  0  0  0  0  0  0
    0.0121   -0.3916   -0.0854 H   0  0  0  0  0  0  0  0  0  0  0  0
   -2.1511    1.0342   -0.3248 H   0  0  0  0  0  0  0  0  0  0  0  0
   -1.2913    2.5770   -0.2764 H   0  0  0  0  0  0  0  0  0  0  0  0
   -1.2613    1.5055    1.1321 H   0  0  0  0  0  0  0  0  0  0  0  0
    1.3156    2.5770   -0.2764 H   0  0  0  0  0  0  0  0  0  0  0  0
    2.1753    1.0341   -0.3248 H   0  0  0  0  0  0  0  0  0  0  0  0
    1.2856    1.5055    1.1321 H   0  0  0  0  0  0  0  0  0  0  0  0
   -1.4033   -2.1581    0.4917 C   0  0  0  0  0  0  0  0  0  0  0  0
    0.0121   -1.6347    0.3207 C   0  0  0  0  0  0  0  0  0  0  0  0
    0.6489   -0.7252    1.7591 S   0  0  0  0  0  0  0  0  0  0  0  0
   -1.7066   -2.7289   -0.3892 H   0  0  0  0  0  0  0  0  0  0  0  0
   -2.1108   -1.3369    0.6195 H   0  0  0  0  0  0  0  0  0  0  0  0
   -1.4771   -2.8048    1.3663 H   0  0  0  0  0  0  0  0  0  0  0  0
    0.7147   -2.4594    0.1924 H   0  0  0  0  0  0  0  0  0  0  0  0
   -0.2583    0.2606    1.7394 H   0  0  0  0  0  0  0  0  0  0  0  0
  1  2  3  0
  1  6  1  0
  2  3  1  0
  3  4  1  0
  3  5  1  0
  4  8  1  0
  4  9  1  0
  4 10  1  0
  5 11  1  0
  5 12  1  0
  5 13  1  0
  7 15  1  0
 14 15  1  0
 14 17  1  0
 14 18  1  0
 14 19  1  0
 15 16  1  0
 15 20  1  0
 16 21  1  0
M  RAD  1   3   2
M  END
>  <reaction>  (10) 
rxn_1324

>  <mol_properties>  (10) 
{"1": {"label": "*0", "atom_type": "Ct"}, "2": {"label": "*1", "atom_type": "Cs"}, "6": {"label": "*2", "atom_type": "H0"}, "14": {"label": "*3", "atom_type": "Cs"}, "15": {"label": "*4", "atom_type": "S2s"}}

>  <type>  (10) 
unop_6

>  <geom_source>  (10) 
Heuristics

$$$$

     RDKit          3D

 21 19  0  0  0  0  0  0  0  0999 V2000
   -0.1986    0.8455   -3.1066 C   0  0  0  0  0  0  0  0  0  0  0  0
   -0.1986    0.8455   -1.9085 C   0  0  0  0  0  0  0  0  0  0  0  0
   -0.1986    0.8694   -0.4447 C   0  0  0  0  0  3  0  0  0  0  0  0
   -1.4647    1.5459    0.0896 C   0  0  0  0  0  0  0  0  0  0  0  0
    1.0675    1.5459    0.0896 C   0  0  0  0  0  0  0  0  0  0  0  0
   -0.1986    0.8455   -4.1699 H   0  0  0  0  0  0  0  0  0  0  0  0
   -0.1986   -0.3792   -0.0368 H   0  0  0  0  0  0  0  0  0  0  0  0
   -2.3618    1.0466   -0.2763 H   0  0  0  0  0  0  0  0  0  0  0  0
   -1.5020    2.5894   -0.2279 H   0  0  0  0  0  0  0  0  0  0  0  0
   -1.4720    1.5179    1.1807 H   0  0  0  0  0  0  0  0  0  0  0  0
    1.1049    2.5894   -0.2279 H   0  0  0  0  0  0  0  0  0  0  0  0
    1.9646    1.0465   -0.2763 H   0  0  0  0  0  0  0  0  0  0  0  0
    1.0749    1.5178    1.1807 H   0  0  0  0  0  0  0  0  0  0  0  0
   -1.4243   -1.9260    1.2129 C   0  0  0  0  0  0  0  0  0  0  0  0
   -0.1986   -1.6224    0.3693 C   0  0  0  0  0  0  0  0  0  0  0  0
    1.1727   -0.8676    1.2921 S   0  0  0  0  0  0  0  0  0  0  0  0
   -2.1910   -2.4152    0.6075 H   0  0  0  0  0  0  0  0  0  0  0  0
   -1.8538   -1.0098    1.6221 H   0  0  0  0  0  0  0  0  0  0  0  0
   -1.1713   -2.5806    2.0472 H   0  0  0  0  0  0  0  0  0  0  0  0
    0.2259   -2.5412   -0.0379 H   0  0  0  0  0  0  0  0  0  0  0  0
    0.5249    0.2466    1.6584 H   0  0  0  0  0  0  0  0  0  0  0  0
  1  2  3  0
  1  6  1  0
  2  3  1  0
  3  4  1  0
  3  5  1  0
  4  8  1  0
  4  9  1  0
  4 10  1  0
  5 11  1  0
  5 12  1  0
  5 13  1  0
  7 15  1  0
 14 15  1  0
 14 17  1  0
 14 18  1  0
 14 19  1  0
 15 16  1  0
 15 20  1  0
 16 21  1  0
M  RAD  1   3   2
M  END
>  <reaction>  (11) 
rxn_1324

>  <mol_properties>  (11) 
{"1": {"label": "*0", "atom_type": "Ct"}, "2": {"label": "*1", "atom_type": "Cs"}, "6": {"label": "*2", "atom_type": "H0"}, "14": {"label": "*3", "atom_type": "Cs"}, "15": {"label": "*4", "atom_type": "S2s"}}

>  <type>  (11) 
unop_7

>  <geom_source>  (11) 
Heuristics

$$$$

     RDKit          3D

 21 19  0  0  0  0  0  0  0  0999 V2000
    0.1500    1.3982   -2.7667 C   0  0  0  0  0  0  0  0  0  0  0  0
    0.1500    1.3982   -1.5686 C   0  0  0  0  0  0  0  0  0  0  0  0
    0.1500    1.4221   -0.1048 C   0  0  0  0  0  3  0  0  0  0  0  0
   -1.1161    2.0986    0.4296 C   0  0  0  0  0  0  0  0  0  0  0  0
    1.4161    2.0986    0.4296 C   0  0  0  0  0  0  0  0  0  0  0  0
    0.1500    1.3982   -3.8300 H   0  0  0  0  0  0  0  0  0  0  0  0
    0.1499    0.1735    0.3031 H   0  0  0  0  0  0  0  0  0  0  0  0
   -2.0132    1.5993    0.0636 H   0  0  0  0  0  0  0  0  0  0  0  0
   -1.1535    3.1421    0.1120 H   0  0  0  0  0  0  0  0  0  0  0  0
   -1.1235    2.0706    1.5206 H   0  0  0  0  0  0  0  0  0  0  0  0
    1.4535    3.1421    0.1120 H   0  0  0  0  0  0  0  0  0  0  0  0
    2.3131    1.5992    0.0636 H   0  0  0  0  0  0  0  0  0  0  0  0
    1.4234    2.0706    1.5206 H   0  0  0  0  0  0  0  0  0  0  0  0
    1.5653   -1.5930    0.8801 C   0  0  0  0  0  0  0  0  0  0  0  0
    0.1499   -1.0696    0.7092 C   0  0  0  0  0  0  0  0  0  0  0  0
   -1.1197   -2.3672    0.6304 S   0  0  0  0  0  0  0  0  0  0  0  0
    2.2705   -0.7626    0.9626 H   0  0  0  0  0  0  0  0  0  0  0  0
    1.8626   -2.2022    0.0247 H   0  0  0  0  0  0  0  0  0  0  0  0
    1.6480   -2.2085    1.7763 H   0  0  0  0  0  0  0  0  0  0  0  0
   -0.1417   -0.4609    1.5662 H   0  0  0  0  0  0  0  0  0  0  0  0
   -0.6671   -2.9666   -0.4791 H   0  0  0  0  0  0  0  0  0  0  0  0
  1  2  3  0
  1  6  1  0
  2  3  1  0
  3  4  1  0
  3  5  1  0
  4  8  1  0
  4  9  1  0
  4 10  1  0
  5 11  1  0
  5 12  1  0
  5 13  1  0
  7 15  1  0
 14 15  1  0
 14 17  1  0
 14 18  1  0
 14 19  1  0
 15 16  1  0
 15 20  1  0
 16 21  1  0
M  RAD  1   3   2
M  END
>  <reaction>  (12) 
rxn_1324

>  <mol_properties>  (12) 
{"1": {"label": "*0", "atom_type": "Ct"}, "2": {"label": "*1", "atom_type": "Cs"}, "6": {"label": "*2", "atom_type": "H0"}, "14": {"label": "*3", "atom_type": "Cs"}, "15": {"label": "*4", "atom_type": "S2s"}}

>  <type>  (12) 
unop_8

>  <geom_source>  (12) 
Heuristics

$$$$

     RDKit          3D

 21 19  0  0  0  0  0  0  0  0999 V2000
    0.3307    1.0265   -3.0305 C   0  0  0  0  0  0  0  0  0  0  0  0
    0.3307    1.0265   -1.8324 C   0  0  0  0  0  0  0  0  0  0  0  0
    0.3307    1.0505   -0.3686 C   0  0  0  0  0  3  0  0  0  0  0  0
   -0.9354    1.7269    0.1658 C   0  0  0  0  0  0  0  0  0  0  0  0
    1.5969    1.7269    0.1658 C   0  0  0  0  0  0  0  0  0  0  0  0
    0.3307    1.0265   -4.0938 H   0  0  0  0  0  0  0  0  0  0  0  0
    0.3307   -0.1982    0.0393 H   0  0  0  0  0  0  0  0  0  0  0  0
   -1.8324    1.2276   -0.2002 H   0  0  0  0  0  0  0  0  0  0  0  0
   -0.9727    2.7705   -0.1518 H   0  0  0  0  0  0  0  0  0  0  0  0
   -0.9427    1.6989    1.2568 H   0  0  0  0  0  0  0  0  0  0  0  0
    1.6342    2.7704   -0.1518 H   0  0  0  0  0  0  0  0  0  0  0  0
    2.4939    1.2276   -0.2002 H   0  0  0  0  0  0  0  0  0  0  0  0
    1.6042    1.6989    1.2568 H   0  0  0  0  0  0  0  0  0  0  0  0
   -0.3770   -2.3453   -0.5488 C   0  0  0  0  0  0  0  0  0  0  0  0
    0.3307   -1.4413    0.4454 C   0  0  0  0  0  0  0  0  0  0  0  0
   -0.6213   -1.1062    1.9564 S   0  0  0  0  0  0  0  0  0  0  0  0
    0.2657   -2.5392   -1.4108 H   0  0  0  0  0  0  0  0  0  0  0  0
   -1.2959   -1.8822   -0.9126 H   0  0  0  0  0  0  0  0  0  0  0  0
   -0.6396   -3.2990   -0.0905 H   0  0  0  0  0  0  0  0  0  0  0  0
    1.2487   -1.9084    0.8050 H   0  0  0  0  0  0  0  0  0  0  0  0
   -1.6529   -0.4913    1.3624 H   0  0  0  0  0  0  0  0  0  0  0  0
  1  2  3  0
  1  6  1  0
  2  3  1  0
  3  4  1  0
  3  5  1  0
  4  8  1  0
  4  9  1  0
  4 10  1  0
  5 11  1  0
  5 12  1  0
  5 13  1  0
  7 15  1  0
 14 15  1  0
 14 17  1  0
 14 18  1  0
 14 19  1  0
 15 16  1  0
 15 20  1  0
 16 21  1  0
M  RAD  1   3   2
M  END
>  <reaction>  (13) 
rxn_1324

>  <mol_properties>  (13) 
{"1": {"label": "*0", "atom_type": "Ct"}, "2": {"label": "*1", "atom_type": "Cs"}, "6": {"label": "*2", "atom_type": "H0"}, "14": {"label": "*3", "atom_type": "Cs"}, "15": {"label": "*4", "atom_type": "S2s"}}

>  <type>  (13) 
unop_9

>  <geom_source>  (13) 
Heuristics

$$$$

     RDKit          3D

 21 19  0  0  0  0  0  0  0  0999 V2000
    0.2119    1.3673   -2.8012 C   0  0  0  0  0  0  0  0  0  0  0  0
    0.2119    1.3673   -1.6031 C   0  0  0  0  0  0  0  0  0  0  0  0
    0.2119    1.3912   -0.1393 C   0  0  0  0  0  3  0  0  0  0  0  0
   -1.0542    2.0677    0.3950 C   0  0  0  0  0  0  0  0  0  0  0  0
    1.4780    2.0676    0.3950 C   0  0  0  0  0  0  0  0  0  0  0  0
    0.2119    1.3673   -3.8645 H   0  0  0  0  0  0  0  0  0  0  0  0
    0.2118    0.1426    0.2686 H   0  0  0  0  0  0  0  0  0  0  0  0
   -1.9513    1.5684    0.0291 H   0  0  0  0  0  0  0  0  0  0  0  0
   -1.0916    3.1112    0.0775 H   0  0  0  0  0  0  0  0  0  0  0  0
   -1.0616    2.0397    1.4861 H   0  0  0  0  0  0  0  0  0  0  0  0
    1.5154    3.1112    0.0775 H   0  0  0  0  0  0  0  0  0  0  0  0
    2.3750    1.5683    0.0291 H   0  0  0  0  0  0  0  0  0  0  0  0
    1.4853    2.0396    1.4861 H   0  0  0  0  0  0  0  0  0  0  0  0
    1.4375   -1.8437    0.1729 C   0  0  0  0  0  0  0  0  0  0  0  0
    0.2118   -1.1006    0.6747 C   0  0  0  0  0  0  0  0  0  0  0  0
   -1.2056   -2.1723    1.0544 S   0  0  0  0  0  0  0  0  0  0  0  0
    2.2624   -1.1471    0.0053 H   0  0  0  0  0  0  0  0  0  0  0  0
    1.2284   -2.3498   -0.7712 H   0  0  0  0  0  0  0  0  0  0  0  0
    1.7598   -2.5958    0.8934 H   0  0  0  0  0  0  0  0  0  0  0  0
    0.4266   -0.5959    1.6178 H   0  0  0  0  0  0  0  0  0  0  0  0
   -1.3797   -2.6521   -0.1843 H   0  0  0  0  0  0  0  0  0  0  0  0
  1  2  3  0
  1  6  1  0
  2  3  1  0
  3  4  1  0
  3  5  1  0
  4  8  1  0
  4  9  1  0
  4 10  1  0
  5 11  1  0
  5 12  1  0
  5 13  1  0
  7 15  1  0
 14 15  1  0
 14 17  1  0
 14 18  1  0
 14 19  1  0
 15 16  1  0
 15 20  1  0
 16 21  1  0
M  RAD  1   3   2
M  END
>  <reaction>  (14) 
rxn_1324

>  <mol_properties>  (14) 
{"1": {"label": "*0", "atom_type": "Ct"}, "2": {"label": "*1", "atom_type": "Cs"}, "6": {"label": "*2", "atom_type": "H0"}, "14": {"label": "*3", "atom_type": "Cs"}, "15": {"label": "*4", "atom_type": "S2s"}}

>  <type>  (14) 
unop_10

>  <geom_source>  (14) 
Heuristics

$$$$

     RDKit          3D

 21 19  0  0  0  0  0  0  0  0999 V2000
   -0.3729    0.9708   -2.9648 C   0  0  0  0  0  0  0  0  0  0  0  0
   -0.3729    0.9708   -1.7667 C   0  0  0  0  0  0  0  0  0  0  0  0
   -0.3729    0.9947   -0.3029 C   0  0  0  0  0  3  0  0  0  0  0  0
   -1.6390    1.6712    0.2315 C   0  0  0  0  0  0  0  0  0  0  0  0
    0.8932    1.6711    0.2315 C   0  0  0  0  0  0  0  0  0  0  0  0
   -0.3729    0.9708   -4.0281 H   0  0  0  0  0  0  0  0  0  0  0  0
   -0.3730   -0.2540    0.1050 H   0  0  0  0  0  0  0  0  0  0  0  0
   -2.5361    1.1719   -0.1345 H   0  0  0  0  0  0  0  0  0  0  0  0
   -1.6764    2.7147   -0.0861 H   0  0  0  0  0  0  0  0  0  0  0  0
   -1.6464    1.6432    1.3225 H   0  0  0  0  0  0  0  0  0  0  0  0
    0.9306    2.7146   -0.0861 H   0  0  0  0  0  0  0  0  0  0  0  0
    1.7902    1.1718   -0.1345 H   0  0  0  0  0  0  0  0  0  0  0  0
    0.9005    1.6431    1.3225 H   0  0  0  0  0  0  0  0  0  0  0  0
   -1.0806   -1.6399    1.8472 C   0  0  0  0  0  0  0  0  0  0  0  0
   -0.3730   -1.4971    0.5111 C   0  0  0  0  0  0  0  0  0  0  0  0
    1.4301   -1.3114    0.6391 S   0  0  0  0  0  0  0  0  0  0  0  0
   -2.1523   -1.7898    1.6958 H   0  0  0  0  0  0  0  0  0  0  0  0
   -0.9499   -0.7437    2.4563 H   0  0  0  0  0  0  0  0  0  0  0  0
   -0.6876   -2.4881    2.4081 H   0  0  0  0  0  0  0  0  0  0  0  0
   -0.5077   -2.3948   -0.0940 H   0  0  0  0  0  0  0  0  0  0  0  0
    1.4239   -0.1639    1.3308 H   0  0  0  0  0  0  0  0  0  0  0  0
  1  2  3  0
  1  6  1  0
  2  3  1  0
  3  4  1  0
  3  5  1  0
  4  8  1  0
  4  9  1  0
  4 10  1  0
  5 11  1  0
  5 12  1  0
  5 13  1  0
  7 15  1  0
 14 15  1  0
 14 17  1  0
 14 18  1  0
 14 19  1  0
 15 16  1  0
 15 20  1  0
 16 21  1  0
M  RAD  1   3   2
M  END
>  <reaction>  (15) 
rxn_1324

>  <mol_properties>  (15) 
{"1": {"label": "*0", "atom_type": "Ct"}, "2": {"label": "*1", "atom_type": "Cs"}, "6": {"label": "*2", "atom_type": "H0"}, "14": {"label": "*3", "atom_type": "Cs"}, "15": {"label": "*4", "atom_type": "S2s"}}

>  <type>  (15) 
unop_11

>  <geom_source>  (15) 
Heuristics

$$$$

     RDKit          3D

 21 19  0  0  0  0  0  0  0  0999 V2000
    0.3523    1.1814   -2.9190 C   0  0  0  0  0  0  0  0  0  0  0  0
    0.3523    1.1814   -1.7209 C   0  0  0  0  0  0  0  0  0  0  0  0
    0.3523    1.2053   -0.2571 C   0  0  0  0  0  3  0  0  0  0  0  0
   -0.9138    1.8818    0.2772 C   0  0  0  0  0  0  0  0  0  0  0  0
    1.6185    1.8817    0.2772 C   0  0  0  0  0  0  0  0  0  0  0  0
    0.3523    1.1814   -3.9824 H   0  0  0  0  0  0  0  0  0  0  0  0
    0.3523   -0.0433    0.1507 H   0  0  0  0  0  0  0  0  0  0  0  0
   -1.8108    1.3825   -0.0887 H   0  0  0  0  0  0  0  0  0  0  0  0
   -0.9511    2.9253   -0.0403 H   0  0  0  0  0  0  0  0  0  0  0  0
   -0.9211    1.8538    1.3683 H   0  0  0  0  0  0  0  0  0  0  0  0
    1.6558    2.9253   -0.0403 H   0  0  0  0  0  0  0  0  0  0  0  0
    2.5155    1.3824   -0.0887 H   0  0  0  0  0  0  0  0  0  0  0  0
    1.6258    1.8537    1.3683 H   0  0  0  0  0  0  0  0  0  0  0  0
    0.3523   -2.2493   -0.6176 C   0  0  0  0  0  0  0  0  0  0  0  0
    0.3523   -1.2865    0.5568 C   0  0  0  0  0  0  0  0  0  0  0  0
   -1.0237   -1.5285    1.7186 S   0  0  0  0  0  0  0  0  0  0  0  0
    1.2259   -2.0770   -1.2507 H   0  0  0  0  0  0  0  0  0  0  0  0
   -0.5395   -2.1156   -1.2325 H   0  0  0  0  0  0  0  0  0  0  0  0
    0.3717   -3.2838   -0.2739 H   0  0  0  0  0  0  0  0  0  0  0  0
    1.2460   -1.4237    1.1674 H   0  0  0  0  0  0  0  0  0  0  0  0
   -2.0120   -1.2666    0.8528 H   0  0  0  0  0  0  0  0  0  0  0  0
  1  2  3  0
  1  6  1  0
  2  3  1  0
  3  4  1  0
  3  5  1  0
  4  8  1  0
  4  9  1  0
  4 10  1  0
  5 11  1  0
  5 12  1  0
  5 13  1  0
  7 15  1  0
 14 15  1  0
 14 17  1  0
 14 18  1  0
 14 19  1  0
 15 16  1  0
 15 20  1  0
 16 21  1  0
M  RAD  1   3   2
M  END
>  <reaction>  (16) 
rxn_1324

>  <mol_properties>  (16) 
{"1": {"label": "*0", "atom_type": "Ct"}, "2": {"label": "*1", "atom_type": "Cs"}, "6": {"label": "*2", "atom_type": "H0"}, "14": {"label": "*3", "atom_type": "Cs"}, "15": {"label": "*4", "atom_type": "S2s"}}

>  <type>  (16) 
unop_12

>  <geom_source>  (16) 
Heuristics

$$$$

     RDKit          3D

 21 19  0  0  0  0  0  0  0  0999 V2000
    1.8207    0.6006    2.0417 S   0  0  0  0  0  0  0  0  0  0  0  0
    1.6664   -0.0051    0.3344 C   0  0  0  0  0  3  0  0  0  0  0  0
    2.5754    0.7895   -0.5893 C   0  0  0  0  0  0  0  0  0  0  0  0
   -1.1275   -1.0832   -1.3560 C   0  0  0  0  0  0  0  0  0  0  0  0
   -1.4808   -0.9475    1.1421 C   0  0  0  0  0  0  0  0  0  0  0  0
   -0.9003   -0.2570   -0.0910 C   0  0  0  0  0  0  0  0  0  0  0  0
   -1.4694    1.0904   -0.2446 C   0  0  0  0  0  0  0  0  0  0  0  0
   -1.9351    2.1954   -0.3705 C   0  0  0  0  0  0  0  0  0  0  0  0
    1.9456   -1.0795    0.3000 H   0  0  0  0  0  0  0  0  0  0  0  0
    0.3773    0.1319   -0.0744 H   0  0  0  0  0  0  0  0  0  0  0  0
    2.4693    0.4116   -1.6276 H   0  0  0  0  0  0  0  0  0  0  0  0
    2.2931    1.8632   -0.5690 H   0  0  0  0  0  0  0  0  0  0  0  0
    3.6344    0.6799   -0.2728 H   0  0  0  0  0  0  0  0  0  0  0  0
   -0.6621   -0.5764   -2.2281 H   0  0  0  0  0  0  0  0  0  0  0  0
   -0.6546   -2.0817   -1.2446 H   0  0  0  0  0  0  0  0  0  0  0  0
   -2.2139   -1.2164   -1.5503 H   0  0  0  0  0  0  0  0  0  0  0  0
   -1.0107   -1.9450    1.2725 H   0  0  0  0  0  0  0  0  0  0  0  0
   -1.2673   -0.3441    2.0500 H   0  0  0  0  0  0  0  0  0  0  0  0
   -2.5805   -1.0757    1.0413 H   0  0  0  0  0  0  0  0  0  0  0  0
    0.8639   -0.3159    2.5170 H   0  0  0  0  0  0  0  0  0  0  0  0
   -2.3440    3.1651   -0.4810 H   0  0  0  0  0  0  0  0  0  0  0  0
  1  2  1  0
  1 20  1  0
  2  3  1  0
  2  9  1  0
  3 11  1  0
  3 12  1  0
  3 13  1  0
  4  6  1  0
  4 14  1  0
  4 15  1  0
  4 16  1  0
  5  6  1  0
  5 17  1  0
  5 18  1  0
  5 19  1  0
  6  7  1  0
  6 10  1  0
  7  8  3  0
  8 21  1  0
M  RAD  1   2   2
M  END
>  <reaction>  (17) 
rxn_1324

>  <mol_properties>  (17) 
{"1": {"label": "*0", "atom_type": "Ct"}, "2": {"label": "*1", "atom_type": "Cs"}, "6": {"label": "*2", "atom_type": "H0"}, "14": {"label": "*3", "atom_type": "Cs"}, "15": {"label": "*4", "atom_type": "S2s"}}

>  <type>  (17) 
unop_13

>  <geom_source>  (17) 
AutoTST

$$$$
