
     RDKit          3D

 10  9  0  0  0  0  0  0  0  0999 V2000
   -1.1508    0.0666    0.2839 C   0  0  0  0  0  0  0  0  0  0  0  0
    0.1022   -0.3749   -0.4771 C   0  0  0  0  0  0  0  0  0  0  0  0
    1.3428    0.1620    0.1542 C   0  0  0  0  0  0  0  0  0  0  0  0
    2.5613   -0.6971    0.7526 S   0  0  0  0  0  0  0  0  0  0  0  0
   -1.2137    1.1546    0.3481 H   0  0  0  0  0  0  0  0  0  0  0  0
   -2.0472   -0.2935   -0.2212 H   0  0  0  0  0  0  0  0  0  0  0  0
   -1.1467   -0.3334    1.2987 H   0  0  0  0  0  0  0  0  0  0  0  0
    0.1602   -1.4616   -0.5369 H   0  0  0  0  0  0  0  0  0  0  0  0
    0.0536    0.0174   -1.4997 H   0  0  0  0  0  0  0  0  0  0  0  0
    1.3824    1.2528    0.2110 H   0  0  0  0  0  0  0  0  0  0  0  0
  1  2  1  0
  1  5  1  0
  1  6  1  0
  1  7  1  0
  2  3  1  0
  2  8  1  0
  2  9  1  0
  3  4  2  0
  3 10  1  0
M  END
>  <reaction>  (1) 
rxn_2007

>  <mol_properties>  (1) 
{"1": {"label": "donator", "atom_type": "Cs"}, "7": {"label": "d_hydrogen", "atom_type": "H0"}}

>  <type>  (1) 
r1h

$$$$

     RDKit          3D

 12 11  0  0  0  0  0  0  0  0999 V2000
    2.5164   -0.5559   -0.0242 C   0  0  0  0  0  0  0  0  0  0  0  0
    1.3287   -0.2938   -0.0132 C   0  0  0  0  0  0  0  0  0  0  0  0
   -0.0146    0.0027   -0.0006 C   0  0  0  0  0  3  0  0  0  0  0  0
   -1.0396   -1.0729   -0.1642 C   0  0  0  0  0  0  0  0  0  0  0  0
   -0.4887    1.4091    0.1769 C   0  0  0  0  0  0  0  0  0  0  0  0
    3.5543   -0.7850   -0.0339 H   0  0  0  0  0  0  0  0  0  0  0  0
   -1.7064   -1.1056    0.7044 H   0  0  0  0  0  0  0  0  0  0  0  0
   -0.5831   -2.0533   -0.2854 H   0  0  0  0  0  0  0  0  0  0  0  0
   -1.6716   -0.8741   -1.0367 H   0  0  0  0  0  0  0  0  0  0  0  0
   -1.0951    1.7228   -0.6798 H   0  0  0  0  0  0  0  0  0  0  0  0
    0.3401    2.1059    0.2861 H   0  0  0  0  0  0  0  0  0  0  0  0
   -1.1300    1.4913    1.0613 H   0  0  0  0  0  0  0  0  0  0  0  0
  1  2  3  0
  1  6  1  0
  2  3  1  0
  3  4  1  0
  3  5  1  0
  4  7  1  0
  4  8  1  0
  4  9  1  0
  5 10  1  0
  5 11  1  0
  5 12  1  0
M  RAD  1   3   2
M  END
>  <reaction>  (2) 
rxn_2007

>  <mol_properties>  (2) 
{"2": {"label": "acceptor", "atom_type": "Cs"}}

>  <type>  (2) 
r2

$$$$

     RDKit          3D

 13 12  0  0  0  0  0  0  0  0999 V2000
    2.2975   -0.6134    0.7685 C   0  0  0  0  0  0  0  0  0  0  0  0
    1.1676   -0.5248    0.3802 C   0  0  0  0  0  0  0  0  0  0  0  0
   -0.2109   -0.3926   -0.0948 C   0  0  0  0  0  0  0  0  0  0  0  0
   -0.2501    0.2584   -1.4808 C   0  0  0  0  0  0  0  0  0  0  0  0
   -1.0633    0.3831    0.9141 C   0  0  0  0  0  0  0  0  0  0  0  0
    3.2999   -0.6974    1.1133 H   0  0  0  0  0  0  0  0  0  0  0  0
   -0.6209   -1.4038   -0.1814 H   0  0  0  0  0  0  0  0  0  0  0  0
    0.3402   -0.3102   -2.1992 H   0  0  0  0  0  0  0  0  0  0  0  0
    0.1511    1.2724   -1.4369 H   0  0  0  0  0  0  0  0  0  0  0  0
   -1.2791    0.3109   -1.8407 H   0  0  0  0  0  0  0  0  0  0  0  0
   -0.6861    1.4008    1.0287 H   0  0  0  0  0  0  0  0  0  0  0  0
   -1.0492   -0.0971    1.8924 H   0  0  0  0  0  0  0  0  0  0  0  0
   -2.0971    0.4363    0.5680 H   0  0  0  0  0  0  0  0  0  0  0  0
  1  2  3  0
  1  6  1  0
  2  3  1  0
  3  4  1  0
  3  5  1  0
  3  7  1  0
  4  8  1  0
  4  9  1  0
  4 10  1  0
  5 11  1  0
  5 12  1  0
  5 13  1  0
M  END
>  <reaction>  (3) 
rxn_2007

>  <mol_properties>  (3) 
{"2": {"label": "acceptor", "atom_type": "Cs"}, "12": {"label": "a_hydrogen", "atom_type": "H0"}}

>  <type>  (3) 
r2h

$$$$

     RDKit          3D

 22 20  0  0  0  0  0  0  0  0999 V2000
   -0.0459   -0.5725    2.8157 C   0  0  0  0  0  0  0  0  0  0  0  0
   -0.3043   -0.9087    1.6892 C   0  0  0  0  0  0  0  0  0  0  0  0
   -0.5708   -1.2567    0.3371 C   0  0  0  0  0  3  0  0  0  0  0  0
   -1.9705   -0.9990   -0.1650 C   0  0  0  0  0  0  0  0  0  0  0  0
    0.0919   -2.5099   -0.1817 C   0  0  0  0  0  0  0  0  0  0  0  0
    0.1722   -0.2897    3.8174 H   0  0  0  0  0  0  0  0  0  0  0  0
   -1.9866   -1.0246   -1.2570 H   0  0  0  0  0  0  0  0  0  0  0  0
   -2.3434   -0.0326    0.1731 H   0  0  0  0  0  0  0  0  0  0  0  0
   -2.6526   -1.7732    0.1978 H   0  0  0  0  0  0  0  0  0  0  0  0
   -0.4641   -3.3934    0.1467 H   0  0  0  0  0  0  0  0  0  0  0  0
    1.1149   -2.5982    0.1806 H   0  0  0  0  0  0  0  0  0  0  0  0
    0.1041   -2.5045   -1.2735 H   0  0  0  0  0  0  0  0  0  0  0  0
    2.2370    0.0523   -0.8705 C   0  0  0  0  0  0  0  0  0  0  0  0
    0.8348    0.5706   -1.0544 C   0  0  0  0  0  0  0  0  0  0  0  0
    0.2071    0.5617   -2.3503 C   0  0  0  0  0  0  0  0  0  0  0  0
    0.6412   -0.3347   -3.6469 S   0  0  0  0  0  0  0  0  0  0  0  0
    2.9614    0.7639   -1.2729 H   0  0  0  0  0  0  0  0  0  0  0  0
    2.4522   -0.0918    0.1893 H   0  0  0  0  0  0  0  0  0  0  0  0
    2.3771   -0.8911   -1.3967 H   0  0  0  0  0  0  0  0  0  0  0  0
    0.1162   -0.2644   -0.3798 H   0  0  0  0  0  0  0  0  0  0  0  0
    0.6063    1.4657   -0.4741 H   0  0  0  0  0  0  0  0  0  0  0  0
   -0.6790    1.1920   -2.4303 H   0  0  0  0  0  0  0  0  0  0  0  0
  1  2  3  0
  1  6  1  0
  2  3  1  0
  3  4  1  0
  3  5  1  0
  4  7  1  0
  4  8  1  0
  4  9  1  0
  5 10  1  0
  5 11  1  0
  5 12  1  0
 13 14  1  0
 13 17  1  0
 13 18  1  0
 13 19  1  0
 14 15  1  0
 14 20  1  0
 14 21  1  0
 15 16  2  0
 15 22  1  0
M  RAD  1   3   2
M  END
>  <reaction>  (4) 
rxn_2007

>  <mol_properties>  (4) 
{"1": {"label": "*4", "atom_type": "Ct"}, "2": {"label": "*3", "atom_type": "Cs"}, "13": {"label": "*1", "atom_type": "Cs"}, "14": {"label": "*0", "atom_type": "CS"}, "19": {"label": "*2", "atom_type": "H0"}}

>  <type>  (4) 
ts

$$$$

     RDKit          3D

 22 20  0  0  0  0  0  0  0  0999 V2000
    0.1298   -3.1091    1.5123 C   0  0  0  0  0  0  0  0  0  0  0  0
   -0.2860   -2.2100    0.8384 C   0  0  0  0  0  0  0  0  0  0  0  0
   -0.8119   -1.1080    0.0307 C   0  0  0  0  0  3  0  0  0  0  0  0
   -0.7833    0.2063    0.8168 C   0  0  0  0  0  0  0  0  0  0  0  0
   -2.2212   -1.4281   -0.4768 C   0  0  0  0  0  0  0  0  0  0  0  0
    0.4988   -3.9071    2.1103 H   0  0  0  0  0  0  0  0  0  0  0  0
   -1.1369    1.0259    0.1887 H   0  0  0  0  0  0  0  0  0  0  0  0
    0.2258    0.4397    1.1562 H   0  0  0  0  0  0  0  0  0  0  0  0
   -1.4308    0.1404    1.6929 H   0  0  0  0  0  0  0  0  0  0  0  0
   -2.9111   -1.5422    0.3611 H   0  0  0  0  0  0  0  0  0  0  0  0
   -2.2309   -2.3526   -1.0539 H   0  0  0  0  0  0  0  0  0  0  0  0
   -2.5831   -0.6180   -1.1124 H   0  0  0  0  0  0  0  0  0  0  0  0
    1.2479    0.2136   -2.4397 C   0  0  0  0  0  0  0  0  0  0  0  0
    1.2479    0.2136   -0.9086 C   0  0  0  0  0  0  0  0  0  0  0  0
    1.2479    1.6018   -0.3619 C   0  0  0  0  0  0  0  0  0  0  0  0
    0.1284    2.2575    0.5856 S   0  0  0  0  0  0  0  0  0  0  0  0
    2.1031    0.7638   -2.8368 H   0  0  0  0  0  0  0  0  0  0  0  0
    1.2987   -0.8073   -2.8184 H   0  0  0  0  0  0  0  0  0  0  0  0
    0.3384    0.6760   -2.8254 H   0  0  0  0  0  0  0  0  0  0  0  0
    0.2202   -0.4457   -0.4400 H   0  0  0  0  0  0  0  0  0  0  0  0
    2.1583   -0.2831   -0.5532 H   0  0  0  0  0  0  0  0  0  0  0  0
    2.1034    2.2071   -0.6723 H   0  0  0  0  0  0  0  0  0  0  0  0
  1  2  3  0
  1  6  1  0
  2  3  1  0
  3  4  1  0
  3  5  1  0
  4  7  1  0
  4  8  1  0
  4  9  1  0
  5 10  1  0
  5 11  1  0
  5 12  1  0
 13 14  1  0
 13 17  1  0
 13 18  1  0
 13 19  1  0
 14 15  1  0
 14 20  1  0
 14 21  1  0
 15 16  2  0
 15 22  1  0
M  RAD  1   3   2
M  END
>  <reaction>  (5) 
rxn_2007

>  <mol_properties>  (5) 
{"1": {"label": "*4", "atom_type": "Ct"}, "2": {"label": "*3", "atom_type": "Cs"}, "13": {"label": "*1", "atom_type": "Cs"}, "14": {"label": "*0", "atom_type": "CS"}, "19": {"label": "*2", "atom_type": "H0"}}

>  <type>  (5) 
unop_1

>  <geom_source>  (5) 
Heuristics

$$$$

     RDKit          3D

 22 20  0  0  0  0  0  0  0  0999 V2000
   -1.3010   -2.9267   -1.4253 C   0  0  0  0  0  0  0  0  0  0  0  0
   -1.0233   -2.0654   -0.6401 C   0  0  0  0  0  0  0  0  0  0  0  0
   -0.6964   -1.0246    0.3362 C   0  0  0  0  0  3  0  0  0  0  0  0
    0.1208   -1.6021    1.4959 C   0  0  0  0  0  0  0  0  0  0  0  0
   -1.9655   -0.3277    0.8359 C   0  0  0  0  0  0  0  0  0  0  0  0
   -1.5475   -3.6911   -2.1222 H   0  0  0  0  0  0  0  0  0  0  0  0
    0.3942   -0.8080    2.1930 H   0  0  0  0  0  0  0  0  0  0  0  0
    1.0333   -2.0772    1.1359 H   0  0  0  0  0  0  0  0  0  0  0  0
   -0.4617   -2.3496    2.0373 H   0  0  0  0  0  0  0  0  0  0  0  0
   -2.6095   -1.0375    1.3579 H   0  0  0  0  0  0  0  0  0  0  0  0
   -2.5311    0.1001    0.0083 H   0  0  0  0  0  0  0  0  0  0  0  0
   -1.7041    0.4738    1.5292 H   0  0  0  0  0  0  0  0  0  0  0  0
    1.3635    0.2970   -2.1343 C   0  0  0  0  0  0  0  0  0  0  0  0
    1.3635    0.2970   -0.6032 C   0  0  0  0  0  0  0  0  0  0  0  0
    1.3635    1.6852   -0.0565 C   0  0  0  0  0  0  0  0  0  0  0  0
    0.2439    2.3408    0.8910 S   0  0  0  0  0  0  0  0  0  0  0  0
    2.2187    0.8471   -2.5314 H   0  0  0  0  0  0  0  0  0  0  0  0
    1.4143   -0.7239   -2.5129 H   0  0  0  0  0  0  0  0  0  0  0  0
    0.4540    0.7593   -2.5199 H   0  0  0  0  0  0  0  0  0  0  0  0
    0.3358   -0.3624   -0.1345 H   0  0  0  0  0  0  0  0  0  0  0  0
    2.2738   -0.1997   -0.2478 H   0  0  0  0  0  0  0  0  0  0  0  0
    2.2189    2.2904   -0.3668 H   0  0  0  0  0  0  0  0  0  0  0  0
  1  2  3  0
  1  6  1  0
  2  3  1  0
  3  4  1  0
  3  5  1  0
  4  7  1  0
  4  8  1  0
  4  9  1  0
  5 10  1  0
  5 11  1  0
  5 12  1  0
 13 14  1  0
 13 17  1  0
 13 18  1  0
 13 19  1  0
 14 15  1  0
 14 20  1  0
 14 21  1  0
 15 16  2  0
 15 22  1  0
M  RAD  1   3   2
M  END
>  <reaction>  (6) 
rxn_2007

>  <mol_properties>  (6) 
{"1": {"label": "*4", "atom_type": "Ct"}, "2": {"label": "*3", "atom_type": "Cs"}, "13": {"label": "*1", "atom_type": "Cs"}, "14": {"label": "*0", "atom_type": "CS"}, "19": {"label": "*2", "atom_type": "H0"}}

>  <type>  (6) 
unop_2

>  <geom_source>  (6) 
Heuristics

$$$$

     RDKit          3D

 22 20  0  0  0  0  0  0  0  0999 V2000
   -0.0428   -2.2215    2.3452 C   0  0  0  0  0  0  0  0  0  0  0  0
   -0.3546   -1.7536    1.2872 C   0  0  0  0  0  0  0  0  0  0  0  0
   -0.7584   -1.1816    0.0014 C   0  0  0  0  0  3  0  0  0  0  0  0
   -1.3902    0.2004    0.1937 C   0  0  0  0  0  0  0  0  0  0  0  0
   -1.7004   -2.1306   -0.7458 C   0  0  0  0  0  0  0  0  0  0  0  0
    0.2338   -2.6367    3.2841 H   0  0  0  0  0  0  0  0  0  0  0  0
   -1.6464    0.6329   -0.7751 H   0  0  0  0  0  0  0  0  0  0  0  0
   -0.7069    0.8774    0.7061 H   0  0  0  0  0  0  0  0  0  0  0  0
   -2.3024    0.1229    0.7878 H   0  0  0  0  0  0  0  0  0  0  0  0
   -2.6218   -2.2768   -0.1794 H   0  0  0  0  0  0  0  0  0  0  0  0
   -1.2369   -3.1050   -0.8989 H   0  0  0  0  0  0  0  0  0  0  0  0
   -1.9584   -1.7115   -1.7200 H   0  0  0  0  0  0  0  0  0  0  0  0
    1.3014    0.1400   -2.4690 C   0  0  0  0  0  0  0  0  0  0  0  0
    1.3014    0.1400   -0.9379 C   0  0  0  0  0  0  0  0  0  0  0  0
    1.3014    1.5282   -0.3912 C   0  0  0  0  0  0  0  0  0  0  0  0
    0.1819    2.1839    0.5563 S   0  0  0  0  0  0  0  0  0  0  0  0
    2.1566    0.6901   -2.8661 H   0  0  0  0  0  0  0  0  0  0  0  0
    1.3523   -0.8809   -2.8477 H   0  0  0  0  0  0  0  0  0  0  0  0
    0.3919    0.6024   -2.8546 H   0  0  0  0  0  0  0  0  0  0  0  0
    0.2738   -0.5194   -0.4693 H   0  0  0  0  0  0  0  0  0  0  0  0
    2.2118   -0.3567   -0.5825 H   0  0  0  0  0  0  0  0  0  0  0  0
    2.1569    2.1334   -0.7016 H   0  0  0  0  0  0  0  0  0  0  0  0
  1  2  3  0
  1  6  1  0
  2  3  1  0
  3  4  1  0
  3  5  1  0
  4  7  1  0
  4  8  1  0
  4  9  1  0
  5 10  1  0
  5 11  1  0
  5 12  1  0
 13 14  1  0
 13 17  1  0
 13 18  1  0
 13 19  1  0
 14 15  1  0
 14 20  1  0
 14 21  1  0
 15 16  2  0
 15 22  1  0
M  RAD  1   3   2
M  END
>  <reaction>  (7) 
rxn_2007

>  <mol_properties>  (7) 
{"1": {"label": "*4", "atom_type": "Ct"}, "2": {"label": "*3", "atom_type": "Cs"}, "13": {"label": "*1", "atom_type": "Cs"}, "14": {"label": "*0", "atom_type": "CS"}, "19": {"label": "*2", "atom_type": "H0"}}

>  <type>  (7) 
unop_3

>  <geom_source>  (7) 
Heuristics

$$$$

     RDKit          3D

 22 20  0  0  0  0  0  0  0  0999 V2000
   -2.7477   -0.1507   -0.6574 C   0  0  0  0  0  0  0  0  0  0  0  0
   -1.7526   -0.6911   -0.2660 C   0  0  0  0  0  0  0  0  0  0  0  0
   -0.5482   -1.3577    0.2323 C   0  0  0  0  0  3  0  0  0  0  0  0
   -0.7941   -2.8575    0.4225 C   0  0  0  0  0  0  0  0  0  0  0  0
   -0.0569   -0.7008    1.5259 C   0  0  0  0  0  0  0  0  0  0  0  0
   -3.6309    0.3289   -1.0047 H   0  0  0  0  0  0  0  0  0  0  0  0
    0.1233   -3.3484    0.7522 H   0  0  0  0  0  0  0  0  0  0  0  0
   -1.1221   -3.3233   -0.5067 H   0  0  0  0  0  0  0  0  0  0  0  0
   -1.5641   -3.0246    1.1777 H   0  0  0  0  0  0  0  0  0  0  0  0
   -0.8052   -0.8042    2.3136 H   0  0  0  0  0  0  0  0  0  0  0  0
    0.1374    0.3614    1.3784 H   0  0  0  0  0  0  0  0  0  0  0  0
    0.8647   -1.1792    1.8620 H   0  0  0  0  0  0  0  0  0  0  0  0
    1.5117   -0.0361   -2.2381 C   0  0  0  0  0  0  0  0  0  0  0  0
    1.5117   -0.0361   -0.7071 C   0  0  0  0  0  0  0  0  0  0  0  0
    1.5117    1.3521   -0.1604 C   0  0  0  0  0  0  0  0  0  0  0  0
    0.3921    2.0078    0.7871 S   0  0  0  0  0  0  0  0  0  0  0  0
    2.3669    0.5141   -2.6353 H   0  0  0  0  0  0  0  0  0  0  0  0
    1.5625   -1.0570   -2.6168 H   0  0  0  0  0  0  0  0  0  0  0  0
    0.6022    0.4263   -2.6238 H   0  0  0  0  0  0  0  0  0  0  0  0
    0.4840   -0.6954   -0.2384 H   0  0  0  0  0  0  0  0  0  0  0  0
    2.4220   -0.5328   -0.3516 H   0  0  0  0  0  0  0  0  0  0  0  0
    2.3671    1.9574   -0.4707 H   0  0  0  0  0  0  0  0  0  0  0  0
  1  2  3  0
  1  6  1  0
  2  3  1  0
  3  4  1  0
  3  5  1  0
  4  7  1  0
  4  8  1  0
  4  9  1  0
  5 10  1  0
  5 11  1  0
  5 12  1  0
 13 14  1  0
 13 17  1  0
 13 18  1  0
 13 19  1  0
 14 15  1  0
 14 20  1  0
 14 21  1  0
 15 16  2  0
 15 22  1  0
M  RAD  1   3   2
M  END
>  <reaction>  (8) 
rxn_2007

>  <mol_properties>  (8) 
{"1": {"label": "*4", "atom_type": "Ct"}, "2": {"label": "*3", "atom_type": "Cs"}, "13": {"label": "*1", "atom_type": "Cs"}, "14": {"label": "*0", "atom_type": "CS"}, "19": {"label": "*2", "atom_type": "H0"}}

>  <type>  (8) 
unop_4

>  <geom_source>  (8) 
Heuristics

$$$$

     RDKit          3D

 22 20  0  0  0  0  0  0  0  0999 V2000
   -0.5858   -1.1225    2.6637 C   0  0  0  0  0  0  0  0  0  0  0  0
   -0.6369   -1.1553    1.4671 C   0  0  0  0  0  0  0  0  0  0  0  0
   -0.7196   -1.2083    0.0064 C   0  0  0  0  0  3  0  0  0  0  0  0
   -1.9947   -0.5221   -0.4929 C   0  0  0  0  0  0  0  0  0  0  0  0
   -0.6272   -2.6534   -0.4929 C   0  0  0  0  0  0  0  0  0  0  0  0
   -0.5404   -1.0933    3.7256 H   0  0  0  0  0  0  0  0  0  0  0  0
   -2.0217   -0.5308   -1.5840 H   0  0  0  0  0  0  0  0  0  0  0  0
   -2.0438    0.5122   -0.1528 H   0  0  0  0  0  0  0  0  0  0  0  0
   -2.8785   -1.0448   -0.1228 H   0  0  0  0  0  0  0  0  0  0  0  0
   -1.4707   -3.2389   -0.1228 H   0  0  0  0  0  0  0  0  0  0  0  0
    0.2925   -3.1291   -0.1528 H   0  0  0  0  0  0  0  0  0  0  0  0
   -0.6463   -2.6744   -1.5840 H   0  0  0  0  0  0  0  0  0  0  0  0
    1.3403    0.1133   -2.4640 C   0  0  0  0  0  0  0  0  0  0  0  0
    1.3403    0.1133   -0.9329 C   0  0  0  0  0  0  0  0  0  0  0  0
    1.3403    1.5015   -0.3862 C   0  0  0  0  0  0  0  0  0  0  0  0
    0.2207    2.1572    0.5613 S   0  0  0  0  0  0  0  0  0  0  0  0
    2.1955    0.6635   -2.8611 H   0  0  0  0  0  0  0  0  0  0  0  0
    1.3911   -0.9076   -2.8427 H   0  0  0  0  0  0  0  0  0  0  0  0
    0.4308    0.5757   -2.8496 H   0  0  0  0  0  0  0  0  0  0  0  0
    0.3126   -0.5461   -0.4643 H   0  0  0  0  0  0  0  0  0  0  0  0
    2.2506   -0.3834   -0.5775 H   0  0  0  0  0  0  0  0  0  0  0  0
    2.1957    2.1067   -0.6966 H   0  0  0  0  0  0  0  0  0  0  0  0
  1  2  3  0
  1  6  1  0
  2  3  1  0
  3  4  1  0
  3  5  1  0
  4  7  1  0
  4  8  1  0
  4  9  1  0
  5 10  1  0
  5 11  1  0
  5 12  1  0
 13 14  1  0
 13 17  1  0
 13 18  1  0
 13 19  1  0
 14 15  1  0
 14 20  1  0
 14 21  1  0
 15 16  2  0
 15 22  1  0
M  RAD  1   3   2
M  END
>  <reaction>  (9) 
rxn_2007

>  <mol_properties>  (9) 
{"1": {"label": "*4", "atom_type": "Ct"}, "2": {"label": "*3", "atom_type": "Cs"}, "13": {"label": "*1", "atom_type": "Cs"}, "14": {"label": "*0", "atom_type": "CS"}, "19": {"label": "*2", "atom_type": "H0"}}

>  <type>  (9) 
unop_5

>  <geom_source>  (9) 
Heuristics

$$$$

     RDKit          3D

 22 20  0  0  0  0  0  0  0  0999 V2000
   -2.5955    0.3562    0.4138 C   0  0  0  0  0  0  0  0  0  0  0  0
   -1.6943   -0.4202    0.2706 C   0  0  0  0  0  0  0  0  0  0  0  0
   -0.5997   -1.3799    0.1159 C   0  0  0  0  0  3  0  0  0  0  0  0
   -1.1407   -2.8056   -0.0290 C   0  0  0  0  0  0  0  0  0  0  0  0
    0.3901   -1.2705    1.2798 C   0  0  0  0  0  0  0  0  0  0  0  0
   -3.3952    1.0453    0.5410 H   0  0  0  0  0  0  0  0  0  0  0  0
   -0.3171   -3.5042   -0.1869 H   0  0  0  0  0  0  0  0  0  0  0  0
   -1.8271   -2.8821   -0.8721 H   0  0  0  0  0  0  0  0  0  0  0  0
   -1.6759   -3.1035    0.8743 H   0  0  0  0  0  0  0  0  0  0  0  0
   -0.1001   -1.5232    2.2216 H   0  0  0  0  0  0  0  0  0  0  0  0
    0.7881   -0.2594    1.3639 H   0  0  0  0  0  0  0  0  0  0  0  0
    1.2225   -1.9603    1.1294 H   0  0  0  0  0  0  0  0  0  0  0  0
    1.4602   -0.0583   -2.3546 C   0  0  0  0  0  0  0  0  0  0  0  0
    1.4602   -0.0583   -0.8235 C   0  0  0  0  0  0  0  0  0  0  0  0
    1.4602    1.3299   -0.2768 C   0  0  0  0  0  0  0  0  0  0  0  0
    0.3406    1.9856    0.6707 S   0  0  0  0  0  0  0  0  0  0  0  0
    2.3154    0.4918   -2.7517 H   0  0  0  0  0  0  0  0  0  0  0  0
    1.5110   -1.0792   -2.7332 H   0  0  0  0  0  0  0  0  0  0  0  0
    0.5507    0.4041   -2.7402 H   0  0  0  0  0  0  0  0  0  0  0  0
    0.4325   -0.7177   -0.3548 H   0  0  0  0  0  0  0  0  0  0  0  0
    2.3705   -0.5550   -0.4681 H   0  0  0  0  0  0  0  0  0  0  0  0
    2.3156    1.9351   -0.5871 H   0  0  0  0  0  0  0  0  0  0  0  0
  1  2  3  0
  1  6  1  0
  2  3  1  0
  3  4  1  0
  3  5  1  0
  4  7  1  0
  4  8  1  0
  4  9  1  0
  5 10  1  0
  5 11  1  0
  5 12  1  0
 13 14  1  0
 13 17  1  0
 13 18  1  0
 13 19  1  0
 14 15  1  0
 14 20  1  0
 14 21  1  0
 15 16  2  0
 15 22  1  0
M  RAD  1   3   2
M  END
>  <reaction>  (10) 
rxn_2007

>  <mol_properties>  (10) 
{"1": {"label": "*4", "atom_type": "Ct"}, "2": {"label": "*3", "atom_type": "Cs"}, "13": {"label": "*1", "atom_type": "Cs"}, "14": {"label": "*0", "atom_type": "CS"}, "19": {"label": "*2", "atom_type": "H0"}}

>  <type>  (10) 
unop_6

>  <geom_source>  (10) 
Heuristics

$$$$

     RDKit          3D

 22 20  0  0  0  0  0  0  0  0999 V2000
   -2.0934    0.3559    1.5123 C   0  0  0  0  0  0  0  0  0  0  0  0
   -1.4494   -0.3968    0.8384 C   0  0  0  0  0  0  0  0  0  0  0  0
   -0.6669   -1.3341    0.0307 C   0  0  0  0  0  3  0  0  0  0  0  0
   -1.5451   -2.4818   -0.4768 C   0  0  0  0  0  0  0  0  0  0  0  0
    0.5398   -1.8558    0.8168 C   0  0  0  0  0  0  0  0  0  0  0  0
   -2.6650    1.0240    2.1103 H   0  0  0  0  0  0  0  0  0  0  0  0
   -0.9596   -3.1484   -1.1124 H   0  0  0  0  0  0  0  0  0  0  0  0
   -2.3896   -2.1053   -1.0539 H   0  0  0  0  0  0  0  0  0  0  0  0
   -1.9364   -3.0613    0.3611 H   0  0  0  0  0  0  0  0  0  0  0  0
    0.2100   -2.4169    1.6929 H   0  0  0  0  0  0  0  0  0  0  0  0
    1.1725   -1.0359    1.1562 H   0  0  0  0  0  0  0  0  0  0  0  0
    1.1375   -2.5188    0.1887 H   0  0  0  0  0  0  0  0  0  0  0  0
    1.3930   -0.0125   -2.4397 C   0  0  0  0  0  0  0  0  0  0  0  0
    1.3930   -0.0125   -0.9086 C   0  0  0  0  0  0  0  0  0  0  0  0
    1.3930    1.3757   -0.3619 C   0  0  0  0  0  0  0  0  0  0  0  0
    0.2734    2.0314    0.5856 S   0  0  0  0  0  0  0  0  0  0  0  0
    2.2482    0.5377   -2.8368 H   0  0  0  0  0  0  0  0  0  0  0  0
    1.4438   -1.0334   -2.8184 H   0  0  0  0  0  0  0  0  0  0  0  0
    0.4835    0.4499   -2.8254 H   0  0  0  0  0  0  0  0  0  0  0  0
    0.3653   -0.6718   -0.4400 H   0  0  0  0  0  0  0  0  0  0  0  0
    2.3033   -0.5092   -0.5532 H   0  0  0  0  0  0  0  0  0  0  0  0
    2.2484    1.9810   -0.6723 H   0  0  0  0  0  0  0  0  0  0  0  0
  1  2  3  0
  1  6  1  0
  2  3  1  0
  3  4  1  0
  3  5  1  0
  4  7  1  0
  4  8  1  0
  4  9  1  0
  5 10  1  0
  5 11  1  0
  5 12  1  0
 13 14  1  0
 13 17  1  0
 13 18  1  0
 13 19  1  0
 14 15  1  0
 14 20  1  0
 14 21  1  0
 15 16  2  0
 15 22  1  0
M  RAD  1   3   2
M  END
>  <reaction>  (11) 
rxn_2007

>  <mol_properties>  (11) 
{"1": {"label": "*4", "atom_type": "Ct"}, "2": {"label": "*3", "atom_type": "Cs"}, "13": {"label": "*1", "atom_type": "Cs"}, "14": {"label": "*0", "atom_type": "CS"}, "19": {"label": "*2", "atom_type": "H0"}}

>  <type>  (11) 
unop_7

>  <geom_source>  (11) 
Heuristics

$$$$

     RDKit          3D

 22 20  0  0  0  0  0  0  0  0999 V2000
   -0.0792   -3.5656    0.4138 C   0  0  0  0  0  0  0  0  0  0  0  0
   -0.4094   -2.4229    0.2706 C   0  0  0  0  0  0  0  0  0  0  0  0
   -0.8256   -1.0278    0.1159 C   0  0  0  0  0  3  0  0  0  0  0  0
   -0.3137   -0.1737    1.2798 C   0  0  0  0  0  0  0  0  0  0  0  0
   -2.3470   -0.9254   -0.0290 C   0  0  0  0  0  0  0  0  0  0  0  0
    0.2139   -4.5798    0.5410 H   0  0  0  0  0  0  0  0  0  0  0  0
   -0.5937    0.8704    1.1294 H   0  0  0  0  0  0  0  0  0  0  0  0
    0.7714   -0.2333    1.3639 H   0  0  0  0  0  0  0  0  0  0  0  0
   -0.7476   -0.5140    2.2216 H   0  0  0  0  0  0  0  0  0  0  0  0
   -2.8409   -1.2878    0.8743 H   0  0  0  0  0  0  0  0  0  0  0  0
   -2.7026   -1.5175   -0.8721 H   0  0  0  0  0  0  0  0  0  0  0  0
   -2.6388    0.1143   -0.1869 H   0  0  0  0  0  0  0  0  0  0  0  0
    1.2342    0.2938   -2.3546 C   0  0  0  0  0  0  0  0  0  0  0  0
    1.2342    0.2938   -0.8235 C   0  0  0  0  0  0  0  0  0  0  0  0
    1.2342    1.6820   -0.2768 C   0  0  0  0  0  0  0  0  0  0  0  0
    0.1147    2.3377    0.6707 S   0  0  0  0  0  0  0  0  0  0  0  0
    2.0894    0.8440   -2.7517 H   0  0  0  0  0  0  0  0  0  0  0  0
    1.2851   -0.7271   -2.7332 H   0  0  0  0  0  0  0  0  0  0  0  0
    0.3247    0.7562   -2.7402 H   0  0  0  0  0  0  0  0  0  0  0  0
    0.2066   -0.3656   -0.3548 H   0  0  0  0  0  0  0  0  0  0  0  0
    2.1446   -0.2029   -0.4681 H   0  0  0  0  0  0  0  0  0  0  0  0
    2.0897    2.2873   -0.5871 H   0  0  0  0  0  0  0  0  0  0  0  0
  1  2  3  0
  1  6  1  0
  2  3  1  0
  3  4  1  0
  3  5  1  0
  4  7  1  0
  4  8  1  0
  4  9  1  0
  5 10  1  0
  5 11  1  0
  5 12  1  0
 13 14  1  0
 13 17  1  0
 13 18  1  0
 13 19  1  0
 14 15  1  0
 14 20  1  0
 14 21  1  0
 15 16  2  0
 15 22  1  0
M  RAD  1   3   2
M  END
>  <reaction>  (12) 
rxn_2007

>  <mol_properties>  (12) 
{"1": {"label": "*4", "atom_type": "Ct"}, "2": {"label": "*3", "atom_type": "Cs"}, "13": {"label": "*1", "atom_type": "Cs"}, "14": {"label": "*0", "atom_type": "CS"}, "19": {"label": "*2", "atom_type": "H0"}}

>  <type>  (12) 
unop_8

>  <geom_source>  (12) 
Heuristics

$$$$

     RDKit          3D

 22 20  0  0  0  0  0  0  0  0999 V2000
   -2.5239   -1.0207   -1.4253 C   0  0  0  0  0  0  0  0  0  0  0  0
   -1.6253   -1.1272   -0.6401 C   0  0  0  0  0  0  0  0  0  0  0  0
   -0.5429   -1.2638    0.3362 C   0  0  0  0  0  3  0  0  0  0  0  0
   -0.4383   -2.7079    0.8359 C   0  0  0  0  0  0  0  0  0  0  0  0
   -0.7273   -0.2803    1.4959 C   0  0  0  0  0  0  0  0  0  0  0  0
   -3.3215   -0.9262   -2.1222 H   0  0  0  0  0  0  0  0  0  0  0  0
    0.3991   -2.8043    1.5292 H   0  0  0  0  0  0  0  0  0  0  0  0
   -0.2851   -3.4004    0.0083 H   0  0  0  0  0  0  0  0  0  0  0  0
   -1.3520   -2.9975    1.3579 H   0  0  0  0  0  0  0  0  0  0  0  0
   -1.6495   -0.4983    2.0373 H   0  0  0  0  0  0  0  0  0  0  0  0
   -0.7789    0.7471    1.1359 H   0  0  0  0  0  0  0  0  0  0  0  0
    0.1085   -0.3627    2.1930 H   0  0  0  0  0  0  0  0  0  0  0  0
    1.5169    0.0578   -2.1343 C   0  0  0  0  0  0  0  0  0  0  0  0
    1.5169    0.0578   -0.6032 C   0  0  0  0  0  0  0  0  0  0  0  0
    1.5169    1.4460   -0.0565 C   0  0  0  0  0  0  0  0  0  0  0  0
    0.3974    2.1017    0.8910 S   0  0  0  0  0  0  0  0  0  0  0  0
    2.3721    0.6080   -2.5314 H   0  0  0  0  0  0  0  0  0  0  0  0
    1.5677   -0.9631   -2.5129 H   0  0  0  0  0  0  0  0  0  0  0  0
    0.6074    0.5202   -2.5199 H   0  0  0  0  0  0  0  0  0  0  0  0
    0.4892   -0.6015   -0.1345 H   0  0  0  0  0  0  0  0  0  0  0  0
    2.4273   -0.4389   -0.2478 H   0  0  0  0  0  0  0  0  0  0  0  0
    2.3724    2.0513   -0.3668 H   0  0  0  0  0  0  0  0  0  0  0  0
  1  2  3  0
  1  6  1  0
  2  3  1  0
  3  4  1  0
  3  5  1  0
  4  7  1  0
  4  8  1  0
  4  9  1  0
  5 10  1  0
  5 11  1  0
  5 12  1  0
 13 14  1  0
 13 17  1  0
 13 18  1  0
 13 19  1  0
 14 15  1  0
 14 20  1  0
 14 21  1  0
 15 16  2  0
 15 22  1  0
M  RAD  1   3   2
M  END
>  <reaction>  (13) 
rxn_2007

>  <mol_properties>  (13) 
{"1": {"label": "*4", "atom_type": "Ct"}, "2": {"label": "*3", "atom_type": "Cs"}, "13": {"label": "*1", "atom_type": "Cs"}, "14": {"label": "*0", "atom_type": "CS"}, "19": {"label": "*2", "atom_type": "H0"}}

>  <type>  (13) 
unop_9

>  <geom_source>  (13) 
Heuristics

$$$$

     RDKit          3D

 22 20  0  0  0  0  0  0  0  0999 V2000
   -0.6034   -3.4927   -0.6574 C   0  0  0  0  0  0  0  0  0  0  0  0
   -0.6799   -2.3629   -0.2660 C   0  0  0  0  0  0  0  0  0  0  0  0
   -0.7839   -0.9903    0.2323 C   0  0  0  0  0  3  0  0  0  0  0  0
    0.0179   -0.8175    1.5259 C   0  0  0  0  0  0  0  0  0  0  0  0
   -2.2498   -0.5887    0.4225 C   0  0  0  0  0  0  0  0  0  0  0  0
   -0.5355   -4.4954   -1.0047 H   0  0  0  0  0  0  0  0  0  0  0  0
   -0.0328    0.2197    1.8620 H   0  0  0  0  0  0  0  0  0  0  0  0
    1.0645   -1.0836    1.3784 H   0  0  0  0  0  0  0  0  0  0  0  0
   -0.3879   -1.4546    2.3136 H   0  0  0  0  0  0  0  0  0  0  0  0
   -2.7225   -1.2191    1.1777 H   0  0  0  0  0  0  0  0  0  0  0  0
   -2.8099   -0.6928   -0.5067 H   0  0  0  0  0  0  0  0  0  0  0  0
   -2.3137    0.4497    0.7522 H   0  0  0  0  0  0  0  0  0  0  0  0
    1.2759    0.3313   -2.2381 C   0  0  0  0  0  0  0  0  0  0  0  0
    1.2759    0.3313   -0.7071 C   0  0  0  0  0  0  0  0  0  0  0  0
    1.2759    1.7195   -0.1604 C   0  0  0  0  0  0  0  0  0  0  0  0
    0.1564    2.3752    0.7871 S   0  0  0  0  0  0  0  0  0  0  0  0
    2.1311    0.8815   -2.6353 H   0  0  0  0  0  0  0  0  0  0  0  0
    1.3267   -0.6896   -2.6168 H   0  0  0  0  0  0  0  0  0  0  0  0
    0.3664    0.7937   -2.6238 H   0  0  0  0  0  0  0  0  0  0  0  0
    0.2483   -0.3280   -0.2384 H   0  0  0  0  0  0  0  0  0  0  0  0
    2.1863   -0.1654   -0.3516 H   0  0  0  0  0  0  0  0  0  0  0  0
    2.1314    2.3248   -0.4707 H   0  0  0  0  0  0  0  0  0  0  0  0
  1  2  3  0
  1  6  1  0
  2  3  1  0
  3  4  1  0
  3  5  1  0
  4  7  1  0
  4  8  1  0
  4  9  1  0
  5 10  1  0
  5 11  1  0
  5 12  1  0
 13 14  1  0
 13 17  1  0
 13 18  1  0
 13 19  1  0
 14 15  1  0
 14 20  1  0
 14 21  1  0
 15 16  2  0
 15 22  1  0
M  RAD  1   3   2
M  END
>  <reaction>  (14) 
rxn_2007

>  <mol_properties>  (14) 
{"1": {"label": "*4", "atom_type": "Ct"}, "2": {"label": "*3", "atom_type": "Cs"}, "13": {"label": "*1", "atom_type": "Cs"}, "14": {"label": "*0", "atom_type": "CS"}, "19": {"label": "*2", "atom_type": "H0"}}

>  <type>  (14) 
unop_10

>  <geom_source>  (14) 
Heuristics

$$$$

     RDKit          3D

 22 20  0  0  0  0  0  0  0  0999 V2000
   -1.3585   -0.1709    2.3452 C   0  0  0  0  0  0  0  0  0  0  0  0
   -1.0631   -0.6493    1.2872 C   0  0  0  0  0  0  0  0  0  0  0  0
   -0.7115   -1.2548    0.0014 C   0  0  0  0  0  3  0  0  0  0  0  0
   -1.9667   -1.7156   -0.7458 C   0  0  0  0  0  0  0  0  0  0  0  0
    0.2815   -2.4050    0.1937 C   0  0  0  0  0  0  0  0  0  0  0  0
   -1.6207    0.2536    3.2841 H   0  0  0  0  0  0  0  0  0  0  0  0
   -1.6933   -2.1247   -1.7200 H   0  0  0  0  0  0  0  0  0  0  0  0
   -2.6593   -0.8881   -0.8989 H   0  0  0  0  0  0  0  0  0  0  0  0
   -2.4836   -2.4922   -0.1794 H   0  0  0  0  0  0  0  0  0  0  0  0
   -0.1691   -3.2020    0.7878 H   0  0  0  0  0  0  0  0  0  0  0  0
    1.1817   -2.0660    0.7062 H   0  0  0  0  0  0  0  0  0  0  0  0
    0.5679   -2.8182   -0.7751 H   0  0  0  0  0  0  0  0  0  0  0  0
    1.3483    0.0669   -2.4690 C   0  0  0  0  0  0  0  0  0  0  0  0
    1.3483    0.0669   -0.9379 C   0  0  0  0  0  0  0  0  0  0  0  0
    1.3483    1.4550   -0.3912 C   0  0  0  0  0  0  0  0  0  0  0  0
    0.2288    2.1107    0.5563 S   0  0  0  0  0  0  0  0  0  0  0  0
    2.2035    0.6170   -2.8661 H   0  0  0  0  0  0  0  0  0  0  0  0
    1.3992   -0.9541   -2.8477 H   0  0  0  0  0  0  0  0  0  0  0  0
    0.4388    0.5292   -2.8546 H   0  0  0  0  0  0  0  0  0  0  0  0
    0.3207   -0.5925   -0.4693 H   0  0  0  0  0  0  0  0  0  0  0  0
    2.2587   -0.4298   -0.5825 H   0  0  0  0  0  0  0  0  0  0  0  0
    2.2038    2.0603   -0.7016 H   0  0  0  0  0  0  0  0  0  0  0  0
  1  2  3  0
  1  6  1  0
  2  3  1  0
  3  4  1  0
  3  5  1  0
  4  7  1  0
  4  8  1  0
  4  9  1  0
  5 10  1  0
  5 11  1  0
  5 12  1  0
 13 14  1  0
 13 17  1  0
 13 18  1  0
 13 19  1  0
 14 15  1  0
 14 20  1  0
 14 21  1  0
 15 16  2  0
 15 22  1  0
M  RAD  1   3   2
M  END
>  <reaction>  (15) 
rxn_2007

>  <mol_properties>  (15) 
{"1": {"label": "*4", "atom_type": "Ct"}, "2": {"label": "*3", "atom_type": "Cs"}, "13": {"label": "*1", "atom_type": "Cs"}, "14": {"label": "*0", "atom_type": "CS"}, "19": {"label": "*2", "atom_type": "H0"}}

>  <type>  (15) 
unop_11

>  <geom_source>  (15) 
Heuristics

$$$$

     RDKit          3D

 22 20  0  0  0  0  0  0  0  0999 V2000
   -1.9962   -2.0274   -1.7023 C   0  0  0  0  0  0  0  0  0  0  0  0
   -1.3604   -1.6195   -0.7724 C   0  0  0  0  0  0  0  0  0  0  0  0
   -0.5992   -1.1311    0.3789 C   0  0  0  0  0  3  0  0  0  0  0  0
   -0.0738   -2.2983    1.2201 C   0  0  0  0  0  0  0  0  0  0  0  0
   -1.4413   -0.1671    1.2201 C   0  0  0  0  0  0  0  0  0  0  0  0
   -2.5605   -2.3895   -2.5276 H   0  0  0  0  0  0  0  0  0  0  0  0
    0.5274   -1.9213    2.0493 H   0  0  0  0  0  0  0  0  0  0  0  0
    0.5426   -2.9687    0.6213 H   0  0  0  0  0  0  0  0  0  0  0  0
   -0.9039   -2.8753    1.6316 H   0  0  0  0  0  0  0  0  0  0  0  0
   -2.3117   -0.6811    1.6316 H   0  0  0  0  0  0  0  0  0  0  0  0
   -1.7937    0.6726    0.6213 H   0  0  0  0  0  0  0  0  0  0  0  0
   -0.8480    0.2223    2.0493 H   0  0  0  0  0  0  0  0  0  0  0  0
    1.4606    0.1905   -2.0916 C   0  0  0  0  0  0  0  0  0  0  0  0
    1.4606    0.1905   -0.5605 C   0  0  0  0  0  0  0  0  0  0  0  0
    1.4606    1.5787   -0.0138 C   0  0  0  0  0  0  0  0  0  0  0  0
    0.3410    2.2344    0.9337 S   0  0  0  0  0  0  0  0  0  0  0  0
    2.3158    0.7407   -2.4887 H   0  0  0  0  0  0  0  0  0  0  0  0
    1.5114   -0.8304   -2.4702 H   0  0  0  0  0  0  0  0  0  0  0  0
    0.5511    0.6529   -2.4772 H   0  0  0  0  0  0  0  0  0  0  0  0
    0.4329   -0.4689   -0.0918 H   0  0  0  0  0  0  0  0  0  0  0  0
    2.3709   -0.3062   -0.2051 H   0  0  0  0  0  0  0  0  0  0  0  0
    2.3160    2.1839   -0.3241 H   0  0  0  0  0  0  0  0  0  0  0  0
  1  2  3  0
  1  6  1  0
  2  3  1  0
  3  4  1  0
  3  5  1  0
  4  7  1  0
  4  8  1  0
  4  9  1  0
  5 10  1  0
  5 11  1  0
  5 12  1  0
 13 14  1  0
 13 17  1  0
 13 18  1  0
 13 19  1  0
 14 15  1  0
 14 20  1  0
 14 21  1  0
 15 16  2  0
 15 22  1  0
M  RAD  1   3   2
M  END
>  <reaction>  (16) 
rxn_2007

>  <mol_properties>  (16) 
{"1": {"label": "*4", "atom_type": "Ct"}, "2": {"label": "*3", "atom_type": "Cs"}, "13": {"label": "*1", "atom_type": "Cs"}, "14": {"label": "*0", "atom_type": "CS"}, "19": {"label": "*2", "atom_type": "H0"}}

>  <type>  (16) 
unop_12

>  <geom_source>  (16) 
Heuristics

$$$$

     RDKit          3D

 22 20  0  0  0  0  0  0  0  0999 V2000
   -1.7395   -2.5346   -0.2200 S   0  0  0  0  0  1  0  0  0  0  0  0
    0.9119   -0.1458    0.2156 C   0  0  0  0  0  0  0  0  0  0  0  0
    1.1526   -0.9263    1.5085 C   0  0  0  0  0  0  0  0  0  0  0  0
    1.6217   -0.8087   -0.9656 C   0  0  0  0  0  0  0  0  0  0  0  0
   -1.8470    1.2979   -0.4468 C   0  0  0  0  0  0  0  0  0  0  0  0
   -1.4538   -0.1031   -0.8972 C   0  0  0  0  0  0  0  0  0  0  0  0
   -2.1140   -1.1592   -0.0621 C   0  0  0  0  0  0  0  0  0  0  0  0
    1.3761    1.2413    0.3696 C   0  0  0  0  0  0  0  0  0  0  0  0
    1.7556    2.3788    0.4956 C   0  0  0  0  0  0  0  0  0  0  0  0
   -0.3806   -0.1264   -0.0285 H   0  0  0  0  0  0  0  0  0  0  0  0
    0.6099   -0.4454    2.3503 H   0  0  0  0  0  0  0  0  0  0  0  0
    0.7724   -1.9643    1.4012 H   0  0  0  0  0  0  0  0  0  0  0  0
    2.2368   -0.9633    1.7519 H   0  0  0  0  0  0  0  0  0  0  0  0
    1.4157   -0.2434   -1.8997 H   0  0  0  0  0  0  0  0  0  0  0  0
    2.7204   -0.8420   -0.7985 H   0  0  0  0  0  0  0  0  0  0  0  0
    1.2467   -1.8454   -1.1002 H   0  0  0  0  0  0  0  0  0  0  0  0
   -1.3204    2.0464   -1.0746 H   0  0  0  0  0  0  0  0  0  0  0  0
   -2.9429    1.4452   -0.5545 H   0  0  0  0  0  0  0  0  0  0  0  0
   -1.5537    1.4543    0.6129 H   0  0  0  0  0  0  0  0  0  0  0  0
   -1.7201   -0.2406   -1.9680 H   0  0  0  0  0  0  0  0  0  0  0  0
   -2.8365   -0.8926    0.7038 H   0  0  0  0  0  0  0  0  0  0  0  0
    2.0888    3.3771    0.6062 H   0  0  0  0  0  0  0  0  0  0  0  0
  1  7  1  0
  2  3  1  0
  2  4  1  0
  2  8  1  0
  2 10  1  0
  3 11  1  0
  3 12  1  0
  3 13  1  0
  4 14  1  0
  4 15  1  0
  4 16  1  0
  5  6  1  0
  5 17  1  0
  5 18  1  0
  5 19  1  0
  6  7  2  3
  6 20  1  0
  7 21  1  0
  8  9  3  0
  9 22  1  0
M  RAD  1   1   2
M  END
>  <reaction>  (17) 
rxn_2007

>  <mol_properties>  (17) 
{"1": {"label": "*4", "atom_type": "Ct"}, "2": {"label": "*3", "atom_type": "Cs"}, "13": {"label": "*1", "atom_type": "Cs"}, "14": {"label": "*0", "atom_type": "CS"}, "19": {"label": "*2", "atom_type": "H0"}}

>  <type>  (17) 
unop_13

>  <geom_source>  (17) 
AutoTST

$$$$
