
     RDKit          3D

 18 18  0  0  0  0  0  0  0  0999 V2000
   -2.4852    0.3210   -0.3966 C   0  0  0  0  0  0  0  0  0  0  0  0
   -1.5917   -0.2708    0.6941 C   0  0  0  0  0  0  0  0  0  0  0  0
   -0.1292   -0.1692    0.3493 C   0  0  0  0  0  0  0  0  0  0  0  0
    0.6099    0.9558    0.7015 C   0  0  0  0  0  0  0  0  0  0  0  0
    1.9447    1.0728    0.3458 C   0  0  0  0  0  0  0  0  0  0  0  0
    2.5646    0.0613   -0.3720 C   0  0  0  0  0  0  0  0  0  0  0  0
    1.8399   -1.0657   -0.7287 C   0  0  0  0  0  0  0  0  0  0  0  0
    0.5055   -1.1769   -0.3700 C   0  0  0  0  0  0  0  0  0  0  0  0
   -2.3325   -0.1971   -1.3452 H   0  0  0  0  0  0  0  0  0  0  0  0
   -2.2554    1.3763   -0.5546 H   0  0  0  0  0  0  0  0  0  0  0  0
   -3.5397    0.2376   -0.1280 H   0  0  0  0  0  0  0  0  0  0  0  0
   -1.7801    0.2462    1.6380 H   0  0  0  0  0  0  0  0  0  0  0  0
   -1.8568   -1.3190    0.8516 H   0  0  0  0  0  0  0  0  0  0  0  0
    0.1327    1.7497    1.2656 H   0  0  0  0  0  0  0  0  0  0  0  0
    2.5033    1.9550    0.6330 H   0  0  0  0  0  0  0  0  0  0  0  0
    3.6077    0.1491   -0.6484 H   0  0  0  0  0  0  0  0  0  0  0  0
    2.3163   -1.8632   -1.2854 H   0  0  0  0  0  0  0  0  0  0  0  0
   -0.0540   -2.0629   -0.6500 H   0  0  0  0  0  0  0  0  0  0  0  0
  1  2  1  0
  1  9  1  0
  1 10  1  0
  1 11  1  0
  2  3  1  0
  2 12  1  0
  2 13  1  0
  3  4  2  0
  3  8  1  0
  4  5  1  0
  4 14  1  0
  5  6  2  0
  5 15  1  0
  6  7  1  0
  6 16  1  0
  7  8  2  0
  7 17  1  0
  8 18  1  0
M  END
>  <reaction>  (1) 
rxn_1489

>  <mol_properties>  (1) 
{"1": {"label": "donator", "atom_type": "Cs"}, "11": {"label": "d_hydrogen", "atom_type": "H0"}}

>  <type>  (1) 
r1h

$$$$

     RDKit          3D

 12 11  0  0  0  0  0  0  0  0999 V2000
    2.5164   -0.5559   -0.0242 C   0  0  0  0  0  0  0  0  0  0  0  0
    1.3287   -0.2938   -0.0132 C   0  0  0  0  0  0  0  0  0  0  0  0
   -0.0146    0.0027   -0.0006 C   0  0  0  0  0  3  0  0  0  0  0  0
   -1.0396   -1.0729   -0.1642 C   0  0  0  0  0  0  0  0  0  0  0  0
   -0.4887    1.4091    0.1769 C   0  0  0  0  0  0  0  0  0  0  0  0
    3.5543   -0.7850   -0.0339 H   0  0  0  0  0  0  0  0  0  0  0  0
   -1.7064   -1.1056    0.7044 H   0  0  0  0  0  0  0  0  0  0  0  0
   -0.5831   -2.0533   -0.2854 H   0  0  0  0  0  0  0  0  0  0  0  0
   -1.6716   -0.8741   -1.0367 H   0  0  0  0  0  0  0  0  0  0  0  0
   -1.0951    1.7228   -0.6798 H   0  0  0  0  0  0  0  0  0  0  0  0
    0.3401    2.1059    0.2861 H   0  0  0  0  0  0  0  0  0  0  0  0
   -1.1300    1.4913    1.0613 H   0  0  0  0  0  0  0  0  0  0  0  0
  1  2  3  0
  1  6  1  0
  2  3  1  0
  3  4  1  0
  3  5  1  0
  4  7  1  0
  4  8  1  0
  4  9  1  0
  5 10  1  0
  5 11  1  0
  5 12  1  0
M  RAD  1   3   2
M  END
>  <reaction>  (2) 
rxn_1489

>  <mol_properties>  (2) 
{"2": {"label": "acceptor", "atom_type": "Cs"}}

>  <type>  (2) 
r2

$$$$

     RDKit          3D

 13 12  0  0  0  0  0  0  0  0999 V2000
    2.2975   -0.6134    0.7685 C   0  0  0  0  0  0  0  0  0  0  0  0
    1.1676   -0.5248    0.3802 C   0  0  0  0  0  0  0  0  0  0  0  0
   -0.2109   -0.3926   -0.0948 C   0  0  0  0  0  0  0  0  0  0  0  0
   -0.2501    0.2584   -1.4808 C   0  0  0  0  0  0  0  0  0  0  0  0
   -1.0633    0.3831    0.9141 C   0  0  0  0  0  0  0  0  0  0  0  0
    3.2999   -0.6974    1.1133 H   0  0  0  0  0  0  0  0  0  0  0  0
   -0.6209   -1.4038   -0.1814 H   0  0  0  0  0  0  0  0  0  0  0  0
    0.3402   -0.3102   -2.1992 H   0  0  0  0  0  0  0  0  0  0  0  0
    0.1511    1.2724   -1.4369 H   0  0  0  0  0  0  0  0  0  0  0  0
   -1.2791    0.3109   -1.8407 H   0  0  0  0  0  0  0  0  0  0  0  0
   -0.6861    1.4008    1.0287 H   0  0  0  0  0  0  0  0  0  0  0  0
   -1.0492   -0.0971    1.8924 H   0  0  0  0  0  0  0  0  0  0  0  0
   -2.0971    0.4363    0.5680 H   0  0  0  0  0  0  0  0  0  0  0  0
  1  2  3  0
  1  6  1  0
  2  3  1  0
  3  4  1  0
  3  5  1  0
  3  7  1  0
  4  8  1  0
  4  9  1  0
  4 10  1  0
  5 11  1  0
  5 12  1  0
  5 13  1  0
M  END
>  <reaction>  (3) 
rxn_1489

>  <mol_properties>  (3) 
{"2": {"label": "acceptor", "atom_type": "Cs"}, "12": {"label": "a_hydrogen", "atom_type": "H0"}}

>  <type>  (3) 
r2h

$$$$

     RDKit          3D

 30 29  0  0  0  0  0  0  0  0999 V2000
   -1.3781   -3.9337   -1.2050 C   0  0  0  0  0  0  0  0  0  0  0  0
   -1.1469   -3.0175   -0.4601 C   0  0  0  0  0  0  0  0  0  0  0  0
   -0.8369   -1.9057    0.3830 C   0  0  0  0  0  0  0  0  0  0  0  0
    0.0076   -2.2312    1.5974 C   0  0  0  0  0  0  0  0  0  0  0  0
   -1.9833   -0.9515    0.6436 C   0  0  0  0  0  0  0  0  0  0  0  0
   -1.5924   -4.7495   -1.8523 H   0  0  0  0  0  0  0  0  0  0  0  0
    0.3558   -1.3087    2.0664 H   0  0  0  0  0  0  0  0  0  0  0  0
    0.8740   -2.8345    1.3254 H   0  0  0  0  0  0  0  0  0  0  0  0
   -0.5739   -2.7889    2.3376 H   0  0  0  0  0  0  0  0  0  0  0  0
   -2.7147   -1.3997    1.3229 H   0  0  0  0  0  0  0  0  0  0  0  0
   -2.4985   -0.6916   -0.2815 H   0  0  0  0  0  0  0  0  0  0  0  0
   -1.6101   -0.0337    1.1020 H   0  0  0  0  0  0  0  0  0  0  0  0
    0.1472   -0.3823   -2.4361 C   0  0  0  0  0  0  0  0  0  0  0  0
    0.7862   -0.3327   -1.0736 C   0  0  0  0  0  0  0  0  0  0  0  0
    0.8077    0.9215   -0.3131 C   0  0  0  0  0  0  0  0  0  0  0  0
   -0.0576    1.9838   -0.5935 C   0  0  0  0  0  3  0  0  0  0  0  0
   -0.0593    3.1273    0.1881 C   0  0  0  0  0  0  0  0  0  0  0  0
    0.8001    3.2409    1.2706 C   0  0  0  0  0  0  0  0  0  0  0  0
    1.6704    2.1978    1.5604 C   0  0  0  0  0  0  0  0  0  0  0  0
    1.6736    1.0573    0.7794 C   0  0  0  0  0  0  0  0  0  0  0  0
    0.6482    0.2900   -3.1393 H   0  0  0  0  0  0  0  0  0  0  0  0
   -0.9063   -0.0968   -2.3990 H   0  0  0  0  0  0  0  0  0  0  0  0
    0.1929   -1.3940   -2.8383 H   0  0  0  0  0  0  0  0  0  0  0  0
   -0.0017   -1.1560   -0.3543 H   0  0  0  0  0  0  0  0  0  0  0  0
    1.7239   -0.8835   -1.0084 H   0  0  0  0  0  0  0  0  0  0  0  0
   -0.7369    1.9169   -1.4335 H   0  0  0  0  0  0  0  0  0  0  0  0
   -0.7372    3.9373   -0.0512 H   0  0  0  0  0  0  0  0  0  0  0  0
    0.7969    4.1354    1.8800 H   0  0  0  0  0  0  0  0  0  0  0  0
    2.3519    2.2774    2.3984 H   0  0  0  0  0  0  0  0  0  0  0  0
    2.3572    0.2481    1.0113 H   0  0  0  0  0  0  0  0  0  0  0  0
  1  2  3  0
  1  6  1  0
  2  3  1  0
  3  4  1  0
  3  5  1  0
  3 24  1  0
  4  7  1  0
  4  8  1  0
  4  9  1  0
  5 10  1  0
  5 11  1  0
  5 12  1  0
 13 14  1  0
 13 21  1  0
 13 22  1  0
 13 23  1  0
 14 15  2  3
 14 25  1  0
 15 16  1  0
 15 20  1  0
 16 17  1  0
 16 26  1  0
 17 18  2  0
 17 27  1  0
 18 19  1  0
 18 28  1  0
 19 20  2  0
 19 29  1  0
 20 30  1  0
M  RAD  1  16   2
M  END
>  <reaction>  (4) 
rxn_1489

>  <mol_properties>  (4) 
{"1": {"label": "*0", "atom_type": "Ct"}, "2": {"label": "*1", "atom_type": "Cs"}, "13": {"label": "*3", "atom_type": "Cd"}, "14": {"label": "*4", "atom_type": "Cd"}, "23": {"label": "*2", "atom_type": "H0"}}

>  <type>  (4) 
ts

$$$$

     RDKit          3D

 30 29  0  0  0  0  0  0  0  0999 V2000
   -0.3929   -3.9054    1.4734 C   0  0  0  0  0  0  0  0  0  0  0  0
   -0.7776   -2.9895    0.8036 C   0  0  0  0  0  0  0  0  0  0  0  0
   -1.2657   -1.8670    0.0004 C   0  0  0  0  0  3  0  0  0  0  0  0
   -1.2335   -0.5650    0.8065 C   0  0  0  0  0  0  0  0  0  0  0  0
   -2.6678   -2.1555   -0.5446 C   0  0  0  0  0  0  0  0  0  0  0  0
   -0.0515   -4.7182    2.0679 H   0  0  0  0  0  0  0  0  0  0  0  0
   -1.5584    0.2696    0.1826 H   0  0  0  0  0  0  0  0  0  0  0  0
   -0.2290   -0.3539    1.1728 H   0  0  0  0  0  0  0  0  0  0  0  0
   -1.9025   -0.6325    1.6662 H   0  0  0  0  0  0  0  0  0  0  0  0
   -3.3791   -2.2700    0.2753 H   0  0  0  0  0  0  0  0  0  0  0  0
   -2.6795   -3.0712   -1.1355 H   0  0  0  0  0  0  0  0  0  0  0  0
   -3.0010   -1.3301   -1.1762 H   0  0  0  0  0  0  0  0  0  0  0  0
    0.8402   -0.5658   -2.4010 C   0  0  0  0  0  0  0  0  0  0  0  0
    0.8402   -0.5658   -0.8719 C   0  0  0  0  0  0  0  0  0  0  0  0
    0.8402    0.8285   -0.3025 C   0  0  0  0  0  0  0  0  0  0  0  0
   -0.3543    1.4974   -0.0548 C   0  0  0  0  0  0  0  0  0  0  0  0
   -0.3576    2.7976    0.4262 C   0  0  0  0  0  0  0  0  0  0  0  0
    0.8402    3.4530    0.6679 C   0  0  0  0  0  0  0  0  0  0  0  0
    2.0380    2.7976    0.4262 C   0  0  0  0  0  0  0  0  0  0  0  0
    2.0347    1.4974   -0.0548 C   0  0  0  0  0  0  0  0  0  0  0  0
    1.7215   -0.0507   -2.7879 H   0  0  0  0  0  0  0  0  0  0  0  0
   -0.0411   -0.0507   -2.7879 H   0  0  0  0  0  0  0  0  0  0  0  0
    0.8402   -1.5842   -2.7934 H   0  0  0  0  0  0  0  0  0  0  0  0
   -0.2118   -1.2158   -0.4362 H   0  0  0  0  0  0  0  0  0  0  0  0
    1.7168   -1.1075   -0.5088 H   0  0  0  0  0  0  0  0  0  0  0  0
   -1.2952    0.9903   -0.2385 H   0  0  0  0  0  0  0  0  0  0  0  0
   -1.2984    3.2993    0.6161 H   0  0  0  0  0  0  0  0  0  0  0  0
    0.8402    4.4673    1.0463 H   0  0  0  0  0  0  0  0  0  0  0  0
    2.9788    3.2993    0.6161 H   0  0  0  0  0  0  0  0  0  0  0  0
    2.9756    0.9903   -0.2385 H   0  0  0  0  0  0  0  0  0  0  0  0
  1  2  3  0
  1  6  1  0
  2  3  1  0
  3  4  1  0
  3  5  1  0
  4  7  1  0
  4  8  1  0
  4  9  1  0
  5 10  1  0
  5 11  1  0
  5 12  1  0
 13 14  1  0
 13 21  1  0
 13 22  1  0
 13 23  1  0
 14 15  1  0
 14 24  1  0
 14 25  1  0
 15 16  2  0
 15 20  1  0
 16 17  1  0
 16 26  1  0
 17 18  2  0
 17 27  1  0
 18 19  1  0
 18 28  1  0
 19 20  2  0
 19 29  1  0
 20 30  1  0
M  RAD  1   3   2
M  END
>  <reaction>  (5) 
rxn_1489

>  <mol_properties>  (5) 
{"1": {"label": "*0", "atom_type": "Ct"}, "2": {"label": "*1", "atom_type": "Cs"}, "13": {"label": "*3", "atom_type": "Cd"}, "14": {"label": "*4", "atom_type": "Cd"}, "23": {"label": "*2", "atom_type": "H0"}}

>  <type>  (5) 
unop_1

>  <geom_source>  (5) 
Heuristics

$$$$

     RDKit          3D

 30 29  0  0  0  0  0  0  0  0999 V2000
   -1.7712   -3.6700   -1.5509 C   0  0  0  0  0  0  0  0  0  0  0  0
   -1.4976   -2.8251   -0.7467 C   0  0  0  0  0  0  0  0  0  0  0  0
   -1.1763   -1.8044    0.2524 C   0  0  0  0  0  3  0  0  0  0  0  0
   -0.3965   -2.4126    1.4221 C   0  0  0  0  0  0  0  0  0  0  0  0
   -2.4449   -1.0931    0.7328 C   0  0  0  0  0  0  0  0  0  0  0  0
   -2.0140   -4.4198   -2.2647 H   0  0  0  0  0  0  0  0  0  0  0  0
   -0.1262   -1.6335    2.1372 H   0  0  0  0  0  0  0  0  0  0  0  0
    0.5161   -2.8979    1.0764 H   0  0  0  0  0  0  0  0  0  0  0  0
   -1.0041   -3.1577    1.9386 H   0  0  0  0  0  0  0  0  0  0  0  0
   -3.1130   -1.7993    1.2289 H   0  0  0  0  0  0  0  0  0  0  0  0
   -2.9837   -0.6436   -0.1012 H   0  0  0  0  0  0  0  0  0  0  0  0
   -2.1866   -0.3064    1.4439 H   0  0  0  0  0  0  0  0  0  0  0  0
    0.9296   -0.5031   -2.1490 C   0  0  0  0  0  0  0  0  0  0  0  0
    0.9296   -0.5031   -0.6199 C   0  0  0  0  0  0  0  0  0  0  0  0
    0.9296    0.8912   -0.0505 C   0  0  0  0  0  0  0  0  0  0  0  0
   -0.2649    1.5601    0.1972 C   0  0  0  0  0  0  0  0  0  0  0  0
   -0.2682    2.8603    0.6781 C   0  0  0  0  0  0  0  0  0  0  0  0
    0.9296    3.5157    0.9199 C   0  0  0  0  0  0  0  0  0  0  0  0
    2.1274    2.8603    0.6781 C   0  0  0  0  0  0  0  0  0  0  0  0
    2.1241    1.5601    0.1972 C   0  0  0  0  0  0  0  0  0  0  0  0
    1.8109    0.0119   -2.5359 H   0  0  0  0  0  0  0  0  0  0  0  0
    0.0483    0.0119   -2.5359 H   0  0  0  0  0  0  0  0  0  0  0  0
    0.9296   -1.5215   -2.5414 H   0  0  0  0  0  0  0  0  0  0  0  0
   -0.1224   -1.1531   -0.1842 H   0  0  0  0  0  0  0  0  0  0  0  0
    1.8062   -1.0448   -0.2568 H   0  0  0  0  0  0  0  0  0  0  0  0
   -1.2058    1.0529    0.0135 H   0  0  0  0  0  0  0  0  0  0  0  0
   -1.2090    3.3620    0.8681 H   0  0  0  0  0  0  0  0  0  0  0  0
    0.9296    4.5300    1.2983 H   0  0  0  0  0  0  0  0  0  0  0  0
    3.0682    3.3620    0.8681 H   0  0  0  0  0  0  0  0  0  0  0  0
    3.0650    1.0529    0.0135 H   0  0  0  0  0  0  0  0  0  0  0  0
  1  2  3  0
  1  6  1  0
  2  3  1  0
  3  4  1  0
  3  5  1  0
  4  7  1  0
  4  8  1  0
  4  9  1  0
  5 10  1  0
  5 11  1  0
  5 12  1  0
 13 14  1  0
 13 21  1  0
 13 22  1  0
 13 23  1  0
 14 15  1  0
 14 24  1  0
 14 25  1  0
 15 16  2  0
 15 20  1  0
 16 17  1  0
 16 26  1  0
 17 18  2  0
 17 27  1  0
 18 19  1  0
 18 28  1  0
 19 20  2  0
 19 29  1  0
 20 30  1  0
M  RAD  1   3   2
M  END
>  <reaction>  (6) 
rxn_1489

>  <mol_properties>  (6) 
{"1": {"label": "*0", "atom_type": "Ct"}, "2": {"label": "*1", "atom_type": "Cs"}, "13": {"label": "*3", "atom_type": "Cd"}, "14": {"label": "*4", "atom_type": "Cd"}, "23": {"label": "*2", "atom_type": "H0"}}

>  <type>  (6) 
unop_2

>  <geom_source>  (6) 
Heuristics

$$$$

     RDKit          3D

 30 29  0  0  0  0  0  0  0  0999 V2000
   -0.5800   -3.0134    2.3206 C   0  0  0  0  0  0  0  0  0  0  0  0
   -0.8588   -2.5249    1.2628 C   0  0  0  0  0  0  0  0  0  0  0  0
   -1.2226   -1.9274   -0.0233 C   0  0  0  0  0  3  0  0  0  0  0  0
   -1.8354   -0.5377    0.1748 C   0  0  0  0  0  0  0  0  0  0  0  0
   -2.1625   -2.8491   -0.8064 C   0  0  0  0  0  0  0  0  0  0  0  0
   -0.3325   -3.4469    3.2595 H   0  0  0  0  0  0  0  0  0  0  0  0
   -2.0614   -0.0868   -0.7931 H   0  0  0  0  0  0  0  0  0  0  0  0
   -1.1530    0.1200    0.7131 H   0  0  0  0  0  0  0  0  0  0  0  0
   -2.7625   -0.6081    0.7463 H   0  0  0  0  0  0  0  0  0  0  0  0
   -3.0993   -2.9877   -0.2638 H   0  0  0  0  0  0  0  0  0  0  0  0
   -1.7120   -3.8290   -0.9632 H   0  0  0  0  0  0  0  0  0  0  0  0
   -2.3904   -2.4116   -1.7800 H   0  0  0  0  0  0  0  0  0  0  0  0
    0.8834   -0.6262   -2.4248 C   0  0  0  0  0  0  0  0  0  0  0  0
    0.8834   -0.6262   -0.8957 C   0  0  0  0  0  0  0  0  0  0  0  0
    0.8834    0.7681   -0.3263 C   0  0  0  0  0  0  0  0  0  0  0  0
   -0.3112    1.4370   -0.0785 C   0  0  0  0  0  0  0  0  0  0  0  0
   -0.3145    2.7373    0.4024 C   0  0  0  0  0  0  0  0  0  0  0  0
    0.8833    3.3926    0.6442 C   0  0  0  0  0  0  0  0  0  0  0  0
    2.0812    2.7373    0.4024 C   0  0  0  0  0  0  0  0  0  0  0  0
    2.0779    1.4370   -0.0785 C   0  0  0  0  0  0  0  0  0  0  0  0
    1.7646   -0.1111   -2.8116 H   0  0  0  0  0  0  0  0  0  0  0  0
    0.0021   -0.1111   -2.8116 H   0  0  0  0  0  0  0  0  0  0  0  0
    0.8834   -1.6446   -2.8171 H   0  0  0  0  0  0  0  0  0  0  0  0
   -0.1686   -1.2762   -0.4599 H   0  0  0  0  0  0  0  0  0  0  0  0
    1.7600   -1.1679   -0.5325 H   0  0  0  0  0  0  0  0  0  0  0  0
   -1.2521    0.9299   -0.2623 H   0  0  0  0  0  0  0  0  0  0  0  0
   -1.2552    3.2390    0.5923 H   0  0  0  0  0  0  0  0  0  0  0  0
    0.8833    4.4070    1.0226 H   0  0  0  0  0  0  0  0  0  0  0  0
    3.0219    3.2390    0.5923 H   0  0  0  0  0  0  0  0  0  0  0  0
    3.0188    0.9299   -0.2623 H   0  0  0  0  0  0  0  0  0  0  0  0
  1  2  3  0
  1  6  1  0
  2  3  1  0
  3  4  1  0
  3  5  1  0
  4  7  1  0
  4  8  1  0
  4  9  1  0
  5 10  1  0
  5 11  1  0
  5 12  1  0
 13 14  1  0
 13 21  1  0
 13 22  1  0
 13 23  1  0
 14 15  1  0
 14 24  1  0
 14 25  1  0
 15 16  2  0
 15 20  1  0
 16 17  1  0
 16 26  1  0
 17 18  2  0
 17 27  1  0
 18 19  1  0
 18 28  1  0
 19 20  2  0
 19 29  1  0
 20 30  1  0
M  RAD  1   3   2
M  END
>  <reaction>  (7) 
rxn_1489

>  <mol_properties>  (7) 
{"1": {"label": "*0", "atom_type": "Ct"}, "2": {"label": "*1", "atom_type": "Cs"}, "13": {"label": "*3", "atom_type": "Cd"}, "14": {"label": "*4", "atom_type": "Cd"}, "23": {"label": "*2", "atom_type": "H0"}}

>  <type>  (7) 
unop_3

>  <geom_source>  (7) 
Heuristics

$$$$

     RDKit          3D

 30 29  0  0  0  0  0  0  0  0999 V2000
   -3.2155   -0.8192   -0.7560 C   0  0  0  0  0  0  0  0  0  0  0  0
   -2.2392   -1.3822   -0.3496 C   0  0  0  0  0  0  0  0  0  0  0  0
   -1.0582   -2.0765    0.1665 C   0  0  0  0  0  3  0  0  0  0  0  0
   -1.3337   -3.5745    0.3285 C   0  0  0  0  0  0  0  0  0  0  0  0
   -0.5865   -1.4471    1.4809 C   0  0  0  0  0  0  0  0  0  0  0  0
   -4.0821   -0.3195   -1.1166 H   0  0  0  0  0  0  0  0  0  0  0  0
   -0.4327   -4.0858    0.6722 H   0  0  0  0  0  0  0  0  0  0  0  0
   -1.6475   -4.0210   -0.6149 H   0  0  0  0  0  0  0  0  0  0  0  0
   -2.1239   -3.7393    1.0630 H   0  0  0  0  0  0  0  0  0  0  0  0
   -1.3548   -1.5491    2.2494 H   0  0  0  0  0  0  0  0  0  0  0  0
   -0.3710   -0.3863    1.3539 H   0  0  0  0  0  0  0  0  0  0  0  0
    0.3188   -1.9460    1.8312 H   0  0  0  0  0  0  0  0  0  0  0  0
    1.0477   -0.7753   -2.2349 C   0  0  0  0  0  0  0  0  0  0  0  0
    1.0477   -0.7753   -0.7058 C   0  0  0  0  0  0  0  0  0  0  0  0
    1.0477    0.6190   -0.1364 C   0  0  0  0  0  0  0  0  0  0  0  0
   -0.1468    1.2879    0.1114 C   0  0  0  0  0  0  0  0  0  0  0  0
   -0.1501    2.5882    0.5923 C   0  0  0  0  0  0  0  0  0  0  0  0
    1.0477    3.2435    0.8341 C   0  0  0  0  0  0  0  0  0  0  0  0
    2.2455    2.5882    0.5923 C   0  0  0  0  0  0  0  0  0  0  0  0
    2.2423    1.2879    0.1114 C   0  0  0  0  0  0  0  0  0  0  0  0
    1.9290   -0.2602   -2.6217 H   0  0  0  0  0  0  0  0  0  0  0  0
    0.1665   -0.2602   -2.6217 H   0  0  0  0  0  0  0  0  0  0  0  0
    1.0477   -1.7937   -2.6272 H   0  0  0  0  0  0  0  0  0  0  0  0
   -0.0042   -1.4253   -0.2700 H   0  0  0  0  0  0  0  0  0  0  0  0
    1.9244   -1.3170   -0.3427 H   0  0  0  0  0  0  0  0  0  0  0  0
   -1.0877    0.7808   -0.0724 H   0  0  0  0  0  0  0  0  0  0  0  0
   -1.0909    3.0899    0.7822 H   0  0  0  0  0  0  0  0  0  0  0  0
    1.0477    4.2579    1.2124 H   0  0  0  0  0  0  0  0  0  0  0  0
    3.1863    3.0899    0.7822 H   0  0  0  0  0  0  0  0  0  0  0  0
    3.1832    0.7808   -0.0724 H   0  0  0  0  0  0  0  0  0  0  0  0
  1  2  3  0
  1  6  1  0
  2  3  1  0
  3  4  1  0
  3  5  1  0
  4  7  1  0
  4  8  1  0
  4  9  1  0
  5 10  1  0
  5 11  1  0
  5 12  1  0
 13 14  1  0
 13 21  1  0
 13 22  1  0
 13 23  1  0
 14 15  1  0
 14 24  1  0
 14 25  1  0
 15 16  2  0
 15 20  1  0
 16 17  1  0
 16 26  1  0
 17 18  2  0
 17 27  1  0
 18 19  1  0
 18 28  1  0
 19 20  2  0
 19 29  1  0
 20 30  1  0
M  RAD  1   3   2
M  END
>  <reaction>  (8) 
rxn_1489

>  <mol_properties>  (8) 
{"1": {"label": "*0", "atom_type": "Ct"}, "2": {"label": "*1", "atom_type": "Cs"}, "13": {"label": "*3", "atom_type": "Cd"}, "14": {"label": "*4", "atom_type": "Cd"}, "23": {"label": "*2", "atom_type": "H0"}}

>  <type>  (8) 
unop_4

>  <geom_source>  (8) 
Heuristics

$$$$

     RDKit          3D

 30 29  0  0  0  0  0  0  0  0999 V2000
   -1.1188   -1.9049    2.6418 C   0  0  0  0  0  0  0  0  0  0  0  0
   -1.1423   -1.9194    1.4440 C   0  0  0  0  0  0  0  0  0  0  0  0
   -1.1914   -1.9498   -0.0188 C   0  0  0  0  0  3  0  0  0  0  0  0
   -2.4427   -1.2346   -0.5374 C   0  0  0  0  0  0  0  0  0  0  0  0
   -1.1116   -3.3888   -0.5374 C   0  0  0  0  0  0  0  0  0  0  0  0
   -1.0979   -1.8920    3.7048 H   0  0  0  0  0  0  0  0  0  0  0  0
   -2.4442   -1.2269   -1.6289 H   0  0  0  0  0  0  0  0  0  0  0  0
   -2.4824   -0.2047   -0.1831 H   0  0  0  0  0  0  0  0  0  0  0  0
   -3.3436   -1.7474   -0.1959 H   0  0  0  0  0  0  0  0  0  0  0  0
   -1.9732   -3.9651   -0.1959 H   0  0  0  0  0  0  0  0  0  0  0  0
   -0.2083   -3.8851   -0.1831 H   0  0  0  0  0  0  0  0  0  0  0  0
   -1.1054   -3.3936   -1.6289 H   0  0  0  0  0  0  0  0  0  0  0  0
    0.9145   -0.6485   -2.4203 C   0  0  0  0  0  0  0  0  0  0  0  0
    0.9145   -0.6485   -0.8912 C   0  0  0  0  0  0  0  0  0  0  0  0
    0.9145    0.7458   -0.3218 C   0  0  0  0  0  0  0  0  0  0  0  0
   -0.2800    1.4147   -0.0740 C   0  0  0  0  0  0  0  0  0  0  0  0
   -0.2833    2.7149    0.4069 C   0  0  0  0  0  0  0  0  0  0  0  0
    0.9145    3.3703    0.6487 C   0  0  0  0  0  0  0  0  0  0  0  0
    2.1123    2.7149    0.4069 C   0  0  0  0  0  0  0  0  0  0  0  0
    2.1091    1.4147   -0.0740 C   0  0  0  0  0  0  0  0  0  0  0  0
    1.7958   -0.1335   -2.8071 H   0  0  0  0  0  0  0  0  0  0  0  0
    0.0332   -0.1335   -2.8071 H   0  0  0  0  0  0  0  0  0  0  0  0
    0.9145   -1.6669   -2.8126 H   0  0  0  0  0  0  0  0  0  0  0  0
   -0.1374   -1.2985   -0.4554 H   0  0  0  0  0  0  0  0  0  0  0  0
    1.7912   -1.1902   -0.5281 H   0  0  0  0  0  0  0  0  0  0  0  0
   -1.2209    0.9075   -0.2578 H   0  0  0  0  0  0  0  0  0  0  0  0
   -1.2241    3.2166    0.5968 H   0  0  0  0  0  0  0  0  0  0  0  0
    0.9145    4.3846    1.0271 H   0  0  0  0  0  0  0  0  0  0  0  0
    3.0531    3.2166    0.5968 H   0  0  0  0  0  0  0  0  0  0  0  0
    3.0499    0.9075   -0.2578 H   0  0  0  0  0  0  0  0  0  0  0  0
  1  2  3  0
  1  6  1  0
  2  3  1  0
  3  4  1  0
  3  5  1  0
  4  7  1  0
  4  8  1  0
  4  9  1  0
  5 10  1  0
  5 11  1  0
  5 12  1  0
 13 14  1  0
 13 21  1  0
 13 22  1  0
 13 23  1  0
 14 15  1  0
 14 24  1  0
 14 25  1  0
 15 16  2  0
 15 20  1  0
 16 17  1  0
 16 26  1  0
 17 18  2  0
 17 27  1  0
 18 19  1  0
 18 28  1  0
 19 20  2  0
 19 29  1  0
 20 30  1  0
M  RAD  1   3   2
M  END
>  <reaction>  (9) 
rxn_1489

>  <mol_properties>  (9) 
{"1": {"label": "*0", "atom_type": "Ct"}, "2": {"label": "*1", "atom_type": "Cs"}, "13": {"label": "*3", "atom_type": "Cd"}, "14": {"label": "*4", "atom_type": "Cd"}, "23": {"label": "*2", "atom_type": "H0"}}

>  <type>  (9) 
unop_5

>  <geom_source>  (9) 
Heuristics

$$$$

     RDKit          3D

 30 29  0  0  0  0  0  0  0  0999 V2000
   -3.0710   -0.3270    0.3478 C   0  0  0  0  0  0  0  0  0  0  0  0
   -2.1799   -1.1166    0.2140 C   0  0  0  0  0  0  0  0  0  0  0  0
   -1.0982   -2.0925    0.0705 C   0  0  0  0  0  3  0  0  0  0  0  0
   -1.6595   -3.5065   -0.1082 C   0  0  0  0  0  0  0  0  0  0  0  0
   -0.1344   -2.0171    1.2586 C   0  0  0  0  0  0  0  0  0  0  0  0
   -3.8618    0.3738    0.4665 H   0  0  0  0  0  0  0  0  0  0  0  0
   -0.8443   -4.2167   -0.2574 H   0  0  0  0  0  0  0  0  0  0  0  0
   -2.3271   -3.5589   -0.9682 H   0  0  0  0  0  0  0  0  0  0  0  0
   -2.2208   -3.8083    0.7778 H   0  0  0  0  0  0  0  0  0  0  0  0
   -0.6508   -2.2750    2.1849 H   0  0  0  0  0  0  0  0  0  0  0  0
    0.2785   -1.0143    1.3671 H   0  0  0  0  0  0  0  0  0  0  0  0
    0.6896   -2.7187    1.1174 H   0  0  0  0  0  0  0  0  0  0  0  0
    1.0077   -0.7913   -2.3310 C   0  0  0  0  0  0  0  0  0  0  0  0
    1.0077   -0.7913   -0.8019 C   0  0  0  0  0  0  0  0  0  0  0  0
    1.0077    0.6030   -0.2325 C   0  0  0  0  0  0  0  0  0  0  0  0
   -0.1868    1.2719    0.0153 C   0  0  0  0  0  0  0  0  0  0  0  0
   -0.1901    2.5721    0.4962 C   0  0  0  0  0  0  0  0  0  0  0  0
    1.0077    3.2275    0.7380 C   0  0  0  0  0  0  0  0  0  0  0  0
    2.2055    2.5721    0.4962 C   0  0  0  0  0  0  0  0  0  0  0  0
    2.2023    1.2719    0.0153 C   0  0  0  0  0  0  0  0  0  0  0  0
    1.8890   -0.2762   -2.7178 H   0  0  0  0  0  0  0  0  0  0  0  0
    0.1265   -0.2762   -2.7178 H   0  0  0  0  0  0  0  0  0  0  0  0
    1.0077   -1.8097   -2.7233 H   0  0  0  0  0  0  0  0  0  0  0  0
   -0.0442   -1.4413   -0.3661 H   0  0  0  0  0  0  0  0  0  0  0  0
    1.8844   -1.3330   -0.4387 H   0  0  0  0  0  0  0  0  0  0  0  0
   -1.1277    0.7648   -0.1685 H   0  0  0  0  0  0  0  0  0  0  0  0
   -1.1309    3.0738    0.6861 H   0  0  0  0  0  0  0  0  0  0  0  0
    1.0077    4.2418    1.1164 H   0  0  0  0  0  0  0  0  0  0  0  0
    3.1463    3.0738    0.6861 H   0  0  0  0  0  0  0  0  0  0  0  0
    3.1432    0.7648   -0.1685 H   0  0  0  0  0  0  0  0  0  0  0  0
  1  2  3  0
  1  6  1  0
  2  3  1  0
  3  4  1  0
  3  5  1  0
  4  7  1  0
  4  8  1  0
  4  9  1  0
  5 10  1  0
  5 11  1  0
  5 12  1  0
 13 14  1  0
 13 21  1  0
 13 22  1  0
 13 23  1  0
 14 15  1  0
 14 24  1  0
 14 25  1  0
 15 16  2  0
 15 20  1  0
 16 17  1  0
 16 26  1  0
 17 18  2  0
 17 27  1  0
 18 19  1  0
 18 28  1  0
 19 20  2  0
 19 29  1  0
 20 30  1  0
M  RAD  1   3   2
M  END
>  <reaction>  (10) 
rxn_1489

>  <mol_properties>  (10) 
{"1": {"label": "*0", "atom_type": "Ct"}, "2": {"label": "*1", "atom_type": "Cs"}, "13": {"label": "*3", "atom_type": "Cd"}, "14": {"label": "*4", "atom_type": "Cd"}, "23": {"label": "*2", "atom_type": "H0"}}

>  <type>  (10) 
unop_6

>  <geom_source>  (10) 
Heuristics

$$$$

     RDKit          3D

 30 29  0  0  0  0  0  0  0  0999 V2000
   -2.5831   -0.3608    1.4734 C   0  0  0  0  0  0  0  0  0  0  0  0
   -1.9361   -1.1145    0.8036 C   0  0  0  0  0  0  0  0  0  0  0  0
   -1.1506   -2.0533    0.0004 C   0  0  0  0  0  3  0  0  0  0  0  0
   -2.0359   -3.1782   -0.5446 C   0  0  0  0  0  0  0  0  0  0  0  0
    0.0282   -2.6070    0.8065 C   0  0  0  0  0  0  0  0  0  0  0  0
   -3.1573    0.3082    2.0679 H   0  0  0  0  0  0  0  0  0  0  0  0
   -1.4468   -3.8454   -1.1762 H   0  0  0  0  0  0  0  0  0  0  0  0
   -2.8601   -2.7789   -1.1355 H   0  0  0  0  0  0  0  0  0  0  0  0
   -2.4565   -3.7631    0.2753 H   0  0  0  0  0  0  0  0  0  0  0  0
   -0.3314   -3.1750    1.6662 H   0  0  0  0  0  0  0  0  0  0  0  0
    0.6665   -1.8030    1.1728 H   0  0  0  0  0  0  0  0  0  0  0  0
    0.6293   -3.2709    0.1826 H   0  0  0  0  0  0  0  0  0  0  0  0
    0.9553   -0.7520   -2.4010 C   0  0  0  0  0  0  0  0  0  0  0  0
    0.9553   -0.7520   -0.8719 C   0  0  0  0  0  0  0  0  0  0  0  0
    0.9553    0.6423   -0.3025 C   0  0  0  0  0  0  0  0  0  0  0  0
   -0.2393    1.3112   -0.0548 C   0  0  0  0  0  0  0  0  0  0  0  0
   -0.2425    2.6114    0.4262 C   0  0  0  0  0  0  0  0  0  0  0  0
    0.9553    3.2668    0.6679 C   0  0  0  0  0  0  0  0  0  0  0  0
    2.1531    2.6114    0.4262 C   0  0  0  0  0  0  0  0  0  0  0  0
    2.1498    1.3112   -0.0548 C   0  0  0  0  0  0  0  0  0  0  0  0
    1.8366   -0.2369   -2.7879 H   0  0  0  0  0  0  0  0  0  0  0  0
    0.0740   -0.2369   -2.7879 H   0  0  0  0  0  0  0  0  0  0  0  0
    0.9553   -1.7704   -2.7934 H   0  0  0  0  0  0  0  0  0  0  0  0
   -0.0967   -1.4020   -0.4362 H   0  0  0  0  0  0  0  0  0  0  0  0
    1.8319   -1.2937   -0.5088 H   0  0  0  0  0  0  0  0  0  0  0  0
   -1.1801    0.8041   -0.2385 H   0  0  0  0  0  0  0  0  0  0  0  0
   -1.1833    3.1131    0.6161 H   0  0  0  0  0  0  0  0  0  0  0  0
    0.9553    4.2811    1.0463 H   0  0  0  0  0  0  0  0  0  0  0  0
    3.0939    3.1131    0.6161 H   0  0  0  0  0  0  0  0  0  0  0  0
    3.0907    0.8041   -0.2385 H   0  0  0  0  0  0  0  0  0  0  0  0
  1  2  3  0
  1  6  1  0
  2  3  1  0
  3  4  1  0
  3  5  1  0
  4  7  1  0
  4  8  1  0
  4  9  1  0
  5 10  1  0
  5 11  1  0
  5 12  1  0
 13 14  1  0
 13 21  1  0
 13 22  1  0
 13 23  1  0
 14 15  1  0
 14 24  1  0
 14 25  1  0
 15 16  2  0
 15 20  1  0
 16 17  1  0
 16 26  1  0
 17 18  2  0
 17 27  1  0
 18 19  1  0
 18 28  1  0
 19 20  2  0
 19 29  1  0
 20 30  1  0
M  RAD  1   3   2
M  END
>  <reaction>  (11) 
rxn_1489

>  <mol_properties>  (11) 
{"1": {"label": "*0", "atom_type": "Ct"}, "2": {"label": "*1", "atom_type": "Cs"}, "13": {"label": "*3", "atom_type": "Cd"}, "14": {"label": "*4", "atom_type": "Cd"}, "23": {"label": "*2", "atom_type": "H0"}}

>  <type>  (11) 
unop_7

>  <geom_source>  (11) 
Heuristics

$$$$

     RDKit          3D

 30 29  0  0  0  0  0  0  0  0999 V2000
   -0.5809   -4.3568    0.3478 C   0  0  0  0  0  0  0  0  0  0  0  0
   -0.8885   -3.2066    0.2140 C   0  0  0  0  0  0  0  0  0  0  0  0
   -1.2774   -1.8025    0.0705 C   0  0  0  0  0  3  0  0  0  0  0  0
   -0.7787   -0.9744    1.2586 C   0  0  0  0  0  0  0  0  0  0  0  0
   -2.7930   -1.6720   -0.1082 C   0  0  0  0  0  0  0  0  0  0  0  0
   -0.3080   -5.3776    0.4665 H   0  0  0  0  0  0  0  0  0  0  0  0
   -1.0376    0.0765    1.1174 H   0  0  0  0  0  0  0  0  0  0  0  0
    0.3029   -1.0537    1.3671 H   0  0  0  0  0  0  0  0  0  0  0  0
   -1.2404   -1.3208    2.1849 H   0  0  0  0  0  0  0  0  0  0  0  0
   -3.3141   -2.0390    0.7778 H   0  0  0  0  0  0  0  0  0  0  0  0
   -3.1385   -2.2456   -0.9682 H   0  0  0  0  0  0  0  0  0  0  0  0
   -3.0636   -0.6252   -0.2574 H   0  0  0  0  0  0  0  0  0  0  0  0
    0.8285   -0.5013   -2.3310 C   0  0  0  0  0  0  0  0  0  0  0  0
    0.8285   -0.5013   -0.8019 C   0  0  0  0  0  0  0  0  0  0  0  0
    0.8285    0.8930   -0.2325 C   0  0  0  0  0  0  0  0  0  0  0  0
   -0.3660    1.5619    0.0153 C   0  0  0  0  0  0  0  0  0  0  0  0
   -0.3693    2.8622    0.4962 C   0  0  0  0  0  0  0  0  0  0  0  0
    0.8285    3.5175    0.7380 C   0  0  0  0  0  0  0  0  0  0  0  0
    2.0263    2.8622    0.4962 C   0  0  0  0  0  0  0  0  0  0  0  0
    2.0231    1.5619    0.0153 C   0  0  0  0  0  0  0  0  0  0  0  0
    1.7098    0.0138   -2.7178 H   0  0  0  0  0  0  0  0  0  0  0  0
   -0.0527    0.0138   -2.7178 H   0  0  0  0  0  0  0  0  0  0  0  0
    0.8285   -1.5197   -2.7233 H   0  0  0  0  0  0  0  0  0  0  0  0
   -0.2234   -1.1513   -0.3661 H   0  0  0  0  0  0  0  0  0  0  0  0
    1.7052   -1.0430   -0.4387 H   0  0  0  0  0  0  0  0  0  0  0  0
   -1.3069    1.0548   -0.1685 H   0  0  0  0  0  0  0  0  0  0  0  0
   -1.3101    3.3639    0.6861 H   0  0  0  0  0  0  0  0  0  0  0  0
    0.8285    4.5318    1.1164 H   0  0  0  0  0  0  0  0  0  0  0  0
    2.9671    3.3639    0.6861 H   0  0  0  0  0  0  0  0  0  0  0  0
    2.9640    1.0548   -0.1685 H   0  0  0  0  0  0  0  0  0  0  0  0
  1  2  3  0
  1  6  1  0
  2  3  1  0
  3  4  1  0
  3  5  1  0
  4  7  1  0
  4  8  1  0
  4  9  1  0
  5 10  1  0
  5 11  1  0
  5 12  1  0
 13 14  1  0
 13 21  1  0
 13 22  1  0
 13 23  1  0
 14 15  1  0
 14 24  1  0
 14 25  1  0
 15 16  2  0
 15 20  1  0
 16 17  1  0
 16 26  1  0
 17 18  2  0
 17 27  1  0
 18 19  1  0
 18 28  1  0
 19 20  2  0
 19 29  1  0
 20 30  1  0
M  RAD  1   3   2
M  END
>  <reaction>  (12) 
rxn_1489

>  <mol_properties>  (12) 
{"1": {"label": "*0", "atom_type": "Ct"}, "2": {"label": "*1", "atom_type": "Cs"}, "13": {"label": "*3", "atom_type": "Cd"}, "14": {"label": "*4", "atom_type": "Cd"}, "23": {"label": "*2", "atom_type": "H0"}}

>  <type>  (12) 
unop_8

>  <geom_source>  (12) 
Heuristics

$$$$

     RDKit          3D

 30 29  0  0  0  0  0  0  0  0999 V2000
   -2.9892   -1.6987   -1.5509 C   0  0  0  0  0  0  0  0  0  0  0  0
   -2.1112   -1.8320   -0.7467 C   0  0  0  0  0  0  0  0  0  0  0  0
   -1.0546   -2.0013    0.2524 C   0  0  0  0  0  3  0  0  0  0  0  0
   -0.9861   -3.4541    0.7328 C   0  0  0  0  0  0  0  0  0  0  0  0
   -1.2497   -1.0318    1.4221 C   0  0  0  0  0  0  0  0  0  0  0  0
   -3.7684   -1.5804   -2.2647 H   0  0  0  0  0  0  0  0  0  0  0  0
   -0.1669   -3.5750    1.4439 H   0  0  0  0  0  0  0  0  0  0  0  0
   -0.8251   -4.1370   -0.1012 H   0  0  0  0  0  0  0  0  0  0  0  0
   -1.9165   -3.7356    1.2289 H   0  0  0  0  0  0  0  0  0  0  0  0
   -2.1879   -1.2418    1.9385 H   0  0  0  0  0  0  0  0  0  0  0  0
   -1.2755    0.0015    1.0764 H   0  0  0  0  0  0  0  0  0  0  0  0
   -0.4320   -1.1387    2.1372 H   0  0  0  0  0  0  0  0  0  0  0  0
    1.0513   -0.7001   -2.1490 C   0  0  0  0  0  0  0  0  0  0  0  0
    1.0513   -0.7001   -0.6199 C   0  0  0  0  0  0  0  0  0  0  0  0
    1.0513    0.6942   -0.0505 C   0  0  0  0  0  0  0  0  0  0  0  0
   -0.1432    1.3631    0.1972 C   0  0  0  0  0  0  0  0  0  0  0  0
   -0.1465    2.6634    0.6781 C   0  0  0  0  0  0  0  0  0  0  0  0
    1.0513    3.3187    0.9199 C   0  0  0  0  0  0  0  0  0  0  0  0
    2.2491    2.6634    0.6781 C   0  0  0  0  0  0  0  0  0  0  0  0
    2.2458    1.3631    0.1972 C   0  0  0  0  0  0  0  0  0  0  0  0
    1.9326   -0.1850   -2.5359 H   0  0  0  0  0  0  0  0  0  0  0  0
    0.1700   -0.1850   -2.5359 H   0  0  0  0  0  0  0  0  0  0  0  0
    1.0513   -1.7185   -2.5414 H   0  0  0  0  0  0  0  0  0  0  0  0
   -0.0007   -1.3501   -0.1842 H   0  0  0  0  0  0  0  0  0  0  0  0
    1.9279   -1.2418   -0.2568 H   0  0  0  0  0  0  0  0  0  0  0  0
   -1.0841    0.8560    0.0135 H   0  0  0  0  0  0  0  0  0  0  0  0
   -1.0873    3.1651    0.8681 H   0  0  0  0  0  0  0  0  0  0  0  0
    1.0513    4.3331    1.2983 H   0  0  0  0  0  0  0  0  0  0  0  0
    3.1899    3.1651    0.8681 H   0  0  0  0  0  0  0  0  0  0  0  0
    3.1867    0.8560    0.0135 H   0  0  0  0  0  0  0  0  0  0  0  0
  1  2  3  0
  1  6  1  0
  2  3  1  0
  3  4  1  0
  3  5  1  0
  4  7  1  0
  4  8  1  0
  4  9  1  0
  5 10  1  0
  5 11  1  0
  5 12  1  0
 13 14  1  0
 13 21  1  0
 13 22  1  0
 13 23  1  0
 14 15  1  0
 14 24  1  0
 14 25  1  0
 15 16  2  0
 15 20  1  0
 16 17  1  0
 16 26  1  0
 17 18  2  0
 17 27  1  0
 18 19  1  0
 18 28  1  0
 19 20  2  0
 19 29  1  0
 20 30  1  0
M  RAD  1   3   2
M  END
>  <reaction>  (13) 
rxn_1489

>  <mol_properties>  (13) 
{"1": {"label": "*0", "atom_type": "Ct"}, "2": {"label": "*1", "atom_type": "Cs"}, "13": {"label": "*3", "atom_type": "Cd"}, "14": {"label": "*4", "atom_type": "Cd"}, "23": {"label": "*2", "atom_type": "H0"}}

>  <type>  (13) 
unop_9

>  <geom_source>  (13) 
Heuristics

$$$$

     RDKit          3D

 30 29  0  0  0  0  0  0  0  0999 V2000
   -1.0858   -4.2659   -0.7560 C   0  0  0  0  0  0  0  0  0  0  0  0
   -1.1525   -3.1408   -0.3496 C   0  0  0  0  0  0  0  0  0  0  0  0
   -1.2451   -1.7739    0.1665 C   0  0  0  0  0  3  0  0  0  0  0  0
   -0.4712   -1.6337    1.4809 C   0  0  0  0  0  0  0  0  0  0  0  0
   -2.7081   -1.3501    0.3285 C   0  0  0  0  0  0  0  0  0  0  0  0
   -1.0266   -5.2644   -1.1166 H   0  0  0  0  0  0  0  0  0  0  0  0
   -0.5124   -0.6009    1.8312 H   0  0  0  0  0  0  0  0  0  0  0  0
    0.5739   -1.9156    1.3539 H   0  0  0  0  0  0  0  0  0  0  0  0
   -0.9061   -2.2752    2.2494 H   0  0  0  0  0  0  0  0  0  0  0  0
   -3.2091   -1.9832    1.0630 H   0  0  0  0  0  0  0  0  0  0  0  0
   -3.2478   -1.4311   -0.6149 H   0  0  0  0  0  0  0  0  0  0  0  0
   -2.7623   -0.3156    0.6722 H   0  0  0  0  0  0  0  0  0  0  0  0
    0.8608   -0.4727   -2.2349 C   0  0  0  0  0  0  0  0  0  0  0  0
    0.8608   -0.4727   -0.7058 C   0  0  0  0  0  0  0  0  0  0  0  0
    0.8608    0.9216   -0.1364 C   0  0  0  0  0  0  0  0  0  0  0  0
   -0.3338    1.5905    0.1114 C   0  0  0  0  0  0  0  0  0  0  0  0
   -0.3370    2.8908    0.5923 C   0  0  0  0  0  0  0  0  0  0  0  0
    0.8608    3.5461    0.8341 C   0  0  0  0  0  0  0  0  0  0  0  0
    2.0586    2.8908    0.5923 C   0  0  0  0  0  0  0  0  0  0  0  0
    2.0553    1.5905    0.1114 C   0  0  0  0  0  0  0  0  0  0  0  0
    1.7420    0.0424   -2.6217 H   0  0  0  0  0  0  0  0  0  0  0  0
   -0.0205    0.0424   -2.6217 H   0  0  0  0  0  0  0  0  0  0  0  0
    0.8608   -1.4911   -2.6272 H   0  0  0  0  0  0  0  0  0  0  0  0
   -0.1912   -1.1227   -0.2700 H   0  0  0  0  0  0  0  0  0  0  0  0
    1.7374   -1.0143   -0.3427 H   0  0  0  0  0  0  0  0  0  0  0  0
   -1.2747    1.0834   -0.0724 H   0  0  0  0  0  0  0  0  0  0  0  0
   -1.2778    3.3925    0.7822 H   0  0  0  0  0  0  0  0  0  0  0  0
    0.8608    4.5605    1.2124 H   0  0  0  0  0  0  0  0  0  0  0  0
    2.9994    3.3925    0.7822 H   0  0  0  0  0  0  0  0  0  0  0  0
    2.9962    1.0834   -0.0724 H   0  0  0  0  0  0  0  0  0  0  0  0
  1  2  3  0
  1  6  1  0
  2  3  1  0
  3  4  1  0
  3  5  1  0
  4  7  1  0
  4  8  1  0
  4  9  1  0
  5 10  1  0
  5 11  1  0
  5 12  1  0
 13 14  1  0
 13 21  1  0
 13 22  1  0
 13 23  1  0
 14 15  1  0
 14 24  1  0
 14 25  1  0
 15 16  2  0
 15 20  1  0
 16 17  1  0
 16 26  1  0
 17 18  2  0
 17 27  1  0
 18 19  1  0
 18 28  1  0
 19 20  2  0
 19 29  1  0
 20 30  1  0
M  RAD  1   3   2
M  END
>  <reaction>  (14) 
rxn_1489

>  <mol_properties>  (14) 
{"1": {"label": "*0", "atom_type": "Ct"}, "2": {"label": "*1", "atom_type": "Cs"}, "13": {"label": "*3", "atom_type": "Cd"}, "14": {"label": "*4", "atom_type": "Cd"}, "23": {"label": "*2", "atom_type": "H0"}}

>  <type>  (14) 
unop_10

>  <geom_source>  (14) 
Heuristics

$$$$

     RDKit          3D

 30 29  0  0  0  0  0  0  0  0999 V2000
   -1.8691   -0.9271    2.3206 C   0  0  0  0  0  0  0  0  0  0  0  0
   -1.5569   -1.3950    1.2628 C   0  0  0  0  0  0  0  0  0  0  0  0
   -1.1853   -1.9877   -0.0233 C   0  0  0  0  0  3  0  0  0  0  0  0
   -2.4302   -2.4160   -0.8064 C   0  0  0  0  0  0  0  0  0  0  0  0
   -0.2166   -3.1575    0.1748 C   0  0  0  0  0  0  0  0  0  0  0  0
   -2.1461   -0.5118    3.2595 H   0  0  0  0  0  0  0  0  0  0  0  0
   -2.1408   -2.8155   -1.7800 H   0  0  0  0  0  0  0  0  0  0  0  0
   -3.1050   -1.5746   -0.9632 H   0  0  0  0  0  0  0  0  0  0  0  0
   -2.9732   -3.1918   -0.2638 H   0  0  0  0  0  0  0  0  0  0  0  0
   -0.6944   -3.9551    0.7463 H   0  0  0  0  0  0  0  0  0  0  0  0
    0.6768   -2.8414    0.7131 H   0  0  0  0  0  0  0  0  0  0  0  0
    0.0855   -3.5613   -0.7931 H   0  0  0  0  0  0  0  0  0  0  0  0
    0.9206   -0.6864   -2.4248 C   0  0  0  0  0  0  0  0  0  0  0  0
    0.9206   -0.6864   -0.8957 C   0  0  0  0  0  0  0  0  0  0  0  0
    0.9206    0.7079   -0.3263 C   0  0  0  0  0  0  0  0  0  0  0  0
   -0.2740    1.3768   -0.0785 C   0  0  0  0  0  0  0  0  0  0  0  0
   -0.2772    2.6770    0.4024 C   0  0  0  0  0  0  0  0  0  0  0  0
    0.9206    3.3324    0.6442 C   0  0  0  0  0  0  0  0  0  0  0  0
    2.1184    2.6770    0.4024 C   0  0  0  0  0  0  0  0  0  0  0  0
    2.1151    1.3768   -0.0785 C   0  0  0  0  0  0  0  0  0  0  0  0
    1.8018   -0.1713   -2.8116 H   0  0  0  0  0  0  0  0  0  0  0  0
    0.0393   -0.1713   -2.8116 H   0  0  0  0  0  0  0  0  0  0  0  0
    0.9206   -1.7048   -2.8171 H   0  0  0  0  0  0  0  0  0  0  0  0
   -0.1314   -1.3364   -0.4599 H   0  0  0  0  0  0  0  0  0  0  0  0
    1.7972   -1.2281   -0.5325 H   0  0  0  0  0  0  0  0  0  0  0  0
   -1.2149    0.8697   -0.2623 H   0  0  0  0  0  0  0  0  0  0  0  0
   -1.2180    3.1787    0.5923 H   0  0  0  0  0  0  0  0  0  0  0  0
    0.9206    4.3467    1.0226 H   0  0  0  0  0  0  0  0  0  0  0  0
    3.0592    3.1787    0.5923 H   0  0  0  0  0  0  0  0  0  0  0  0
    3.0560    0.8697   -0.2623 H   0  0  0  0  0  0  0  0  0  0  0  0
  1  2  3  0
  1  6  1  0
  2  3  1  0
  3  4  1  0
  3  5  1  0
  4  7  1  0
  4  8  1  0
  4  9  1  0
  5 10  1  0
  5 11  1  0
  5 12  1  0
 13 14  1  0
 13 21  1  0
 13 22  1  0
 13 23  1  0
 14 15  1  0
 14 24  1  0
 14 25  1  0
 15 16  2  0
 15 20  1  0
 16 17  1  0
 16 26  1  0
 17 18  2  0
 17 27  1  0
 18 19  1  0
 18 28  1  0
 19 20  2  0
 19 29  1  0
 20 30  1  0
M  RAD  1   3   2
M  END
>  <reaction>  (15) 
rxn_1489

>  <mol_properties>  (15) 
{"1": {"label": "*0", "atom_type": "Ct"}, "2": {"label": "*1", "atom_type": "Cs"}, "13": {"label": "*3", "atom_type": "Cd"}, "14": {"label": "*4", "atom_type": "Cd"}, "23": {"label": "*2", "atom_type": "H0"}}

>  <type>  (15) 
unop_11

>  <geom_source>  (15) 
Heuristics

$$$$

     RDKit          3D

 30 29  0  0  0  0  0  0  0  0999 V2000
   -2.4619   -2.7348   -1.8386 C   0  0  0  0  0  0  0  0  0  0  0  0
   -1.8414   -2.3514   -0.8881 C   0  0  0  0  0  0  0  0  0  0  0  0
   -1.0995   -1.8930    0.2877 C   0  0  0  0  0  3  0  0  0  0  0  0
   -0.6137   -3.0812    1.1235 C   0  0  0  0  0  0  0  0  0  0  0  0
   -1.9448   -0.9270    1.1235 C   0  0  0  0  0  0  0  0  0  0  0  0
   -3.0126   -3.0751   -2.6822 H   0  0  0  0  0  0  0  0  0  0  0  0
   -0.0259   -2.7266    1.9720 H   0  0  0  0  0  0  0  0  0  0  0  0
    0.0053   -3.7532    0.5292 H   0  0  0  0  0  0  0  0  0  0  0  0
   -1.4628   -3.6497    1.5068 H   0  0  0  0  0  0  0  0  0  0  0  0
   -2.8331   -1.4320    1.5068 H   0  0  0  0  0  0  0  0  0  0  0  0
   -2.2689   -0.0727    0.5292 H   0  0  0  0  0  0  0  0  0  0  0  0
   -1.3647   -0.5599    1.9720 H   0  0  0  0  0  0  0  0  0  0  0  0
    1.0064   -0.5917   -2.1137 C   0  0  0  0  0  0  0  0  0  0  0  0
    1.0064   -0.5917   -0.5846 C   0  0  0  0  0  0  0  0  0  0  0  0
    1.0064    0.8026   -0.0152 C   0  0  0  0  0  0  0  0  0  0  0  0
   -0.1881    1.4715    0.2325 C   0  0  0  0  0  0  0  0  0  0  0  0
   -0.1914    2.7717    0.7135 C   0  0  0  0  0  0  0  0  0  0  0  0
    1.0064    3.4271    0.9553 C   0  0  0  0  0  0  0  0  0  0  0  0
    2.2042    2.7717    0.7135 C   0  0  0  0  0  0  0  0  0  0  0  0
    2.2010    1.4715    0.2325 C   0  0  0  0  0  0  0  0  0  0  0  0
    1.8877   -0.0767   -2.5005 H   0  0  0  0  0  0  0  0  0  0  0  0
    0.1252   -0.0767   -2.5005 H   0  0  0  0  0  0  0  0  0  0  0  0
    1.0064   -1.6101   -2.5060 H   0  0  0  0  0  0  0  0  0  0  0  0
   -0.0455   -1.2417   -0.1489 H   0  0  0  0  0  0  0  0  0  0  0  0
    1.8831   -1.1334   -0.2215 H   0  0  0  0  0  0  0  0  0  0  0  0
   -1.1290    0.9643    0.0488 H   0  0  0  0  0  0  0  0  0  0  0  0
   -1.1322    3.2734    0.9034 H   0  0  0  0  0  0  0  0  0  0  0  0
    1.0064    4.4414    1.3336 H   0  0  0  0  0  0  0  0  0  0  0  0
    3.1450    3.2734    0.9034 H   0  0  0  0  0  0  0  0  0  0  0  0
    3.1419    0.9643    0.0488 H   0  0  0  0  0  0  0  0  0  0  0  0
  1  2  3  0
  1  6  1  0
  2  3  1  0
  3  4  1  0
  3  5  1  0
  4  7  1  0
  4  8  1  0
  4  9  1  0
  5 10  1  0
  5 11  1  0
  5 12  1  0
 13 14  1  0
 13 21  1  0
 13 22  1  0
 13 23  1  0
 14 15  1  0
 14 24  1  0
 14 25  1  0
 15 16  2  0
 15 20  1  0
 16 17  1  0
 16 26  1  0
 17 18  2  0
 17 27  1  0
 18 19  1  0
 18 28  1  0
 19 20  2  0
 19 29  1  0
 20 30  1  0
M  RAD  1   3   2
M  END
>  <reaction>  (16) 
rxn_1489

>  <mol_properties>  (16) 
{"1": {"label": "*0", "atom_type": "Ct"}, "2": {"label": "*1", "atom_type": "Cs"}, "13": {"label": "*3", "atom_type": "Cd"}, "14": {"label": "*4", "atom_type": "Cd"}, "23": {"label": "*2", "atom_type": "H0"}}

>  <type>  (16) 
unop_12

>  <geom_source>  (16) 
Heuristics

$$$$

     RDKit          3D

 30 29  0  0  0  0  0  0  0  0999 V2000
    2.0165    0.4569    0.0178 C   0  0  0  0  0  0  0  0  0  0  0  0
    2.3429    1.5745    1.0093 C   0  0  0  0  0  0  0  0  0  0  0  0
    1.8518    1.0106   -1.3981 C   0  0  0  0  0  0  0  0  0  0  0  0
   -0.3191   -2.5804    0.0140 C   0  0  0  0  0  0  0  0  0  0  0  0
   -1.3584   -0.3122    0.0853 C   0  0  0  0  0  0  0  0  0  0  0  0
   -0.0731   -1.0820    0.1335 C   0  0  0  0  0  0  0  0  0  0  0  0
   -1.7784    0.2615   -1.1230 C   0  0  0  0  0  3  0  0  0  0  0  0
   -2.1621   -0.1861    1.2298 C   0  0  0  0  0  0  0  0  0  0  0  0
   -2.9856    0.9654   -1.1838 C   0  0  0  0  0  0  0  0  0  0  0  0
   -3.7797    1.0945   -0.0403 C   0  0  0  0  0  0  0  0  0  0  0  0
   -3.3686    0.5183    1.1655 C   0  0  0  0  0  0  0  0  0  0  0  0
    3.0757   -0.5634    0.0408 C   0  0  0  0  0  0  0  0  0  0  0  0
    3.9432   -1.4005    0.0599 C   0  0  0  0  0  0  0  0  0  0  0  0
    0.8863   -0.1098    0.3811 H   0  0  0  0  0  0  0  0  0  0  0  0
    3.2961    2.0782    0.7376 H   0  0  0  0  0  0  0  0  0  0  0  0
    1.5266    2.3276    1.0140 H   0  0  0  0  0  0  0  0  0  0  0  0
    2.4343    1.1584    2.0356 H   0  0  0  0  0  0  0  0  0  0  0  0
    1.5906    0.1897   -2.1000 H   0  0  0  0  0  0  0  0  0  0  0  0
    2.7898    1.4968   -1.7441 H   0  0  0  0  0  0  0  0  0  0  0  0
    1.0301    1.7575   -1.4200 H   0  0  0  0  0  0  0  0  0  0  0  0
   -0.8473   -2.8059   -0.9366 H   0  0  0  0  0  0  0  0  0  0  0  0
   -0.9269   -2.9425    0.8704 H   0  0  0  0  0  0  0  0  0  0  0  0
    0.6546   -3.1127    0.0142 H   0  0  0  0  0  0  0  0  0  0  0  0
    0.4884   -0.8534    1.0652 H   0  0  0  0  0  0  0  0  0  0  0  0
   -1.1722    0.1631   -2.0152 H   0  0  0  0  0  0  0  0  0  0  0  0
   -3.3063    1.4090   -2.1175 H   0  0  0  0  0  0  0  0  0  0  0  0
   -1.8544   -0.6328    2.1673 H   0  0  0  0  0  0  0  0  0  0  0  0
   -4.7139    1.6388   -0.0890 H   0  0  0  0  0  0  0  0  0  0  0  0
   -3.9855    0.6160    2.0494 H   0  0  0  0  0  0  0  0  0  0  0  0
    4.7048   -2.1352    0.0766 H   0  0  0  0  0  0  0  0  0  0  0  0
  1  2  1  0
  1  3  1  0
  1 12  1  0
  1 14  1  0
  2 15  1  0
  2 16  1  0
  2 17  1  0
  3 18  1  0
  3 19  1  0
  3 20  1  0
  4  6  1  0
  4 21  1  0
  4 22  1  0
  4 23  1  0
  5  6  2  3
  5  7  1  0
  5  8  1  0
  6 24  1  0
  7  9  1  0
  7 25  1  0
  8 11  2  0
  8 27  1  0
  9 10  2  0
  9 26  1  0
 10 11  1  0
 10 28  1  0
 11 29  1  0
 12 13  3  0
 13 30  1  0
M  RAD  1   7   2
M  END
>  <reaction>  (17) 
rxn_1489

>  <mol_properties>  (17) 
{"1": {"label": "*0", "atom_type": "Ct"}, "2": {"label": "*1", "atom_type": "Cs"}, "13": {"label": "*3", "atom_type": "Cd"}, "14": {"label": "*4", "atom_type": "Cd"}, "23": {"label": "*2", "atom_type": "H0"}}

>  <type>  (17) 
unop_13

>  <geom_source>  (17) 
AutoTST

$$$$
