
     RDKit          3D

  9  8  0  0  0  0  0  0  0  0999 V2000
   -2.1022   -0.6873    0.3932 C   0  0  0  0  0  0  0  0  0  0  0  0
   -1.2072   -0.1086   -0.1482 C   0  0  0  0  0  0  0  0  0  0  0  0
   -0.1242    0.6105   -0.8193 C   0  0  0  0  0  0  0  0  0  0  0  0
    1.2067    0.1106   -0.4741 C   0  0  0  0  0  0  0  0  0  0  0  0
    2.3005   -0.2875   -0.2012 C   0  0  0  0  0  0  0  0  0  0  0  0
   -2.8942   -1.2059    0.8778 H   0  0  0  0  0  0  0  0  0  0  0  0
   -0.1862    1.6723   -0.5649 H   0  0  0  0  0  0  0  0  0  0  0  0
   -0.2641    0.5418   -1.9017 H   0  0  0  0  0  0  0  0  0  0  0  0
    3.2709   -0.6459    0.0455 H   0  0  0  0  0  0  0  0  0  0  0  0
  1  2  3  0
  1  6  1  0
  2  3  1  0
  3  4  1  0
  3  7  1  0
  3  8  1  0
  4  5  3  0
  5  9  1  0
M  END
>  <reaction>  (1) 
rxn_1372

>  <mol_properties>  (1) 
{"2": {"label": "donator", "atom_type": "Cs"}, "6": {"label": "d_hydrogen", "atom_type": "H0"}}

>  <type>  (1) 
r1h

$$$$

     RDKit          3D

 12 11  0  0  0  0  0  0  0  0999 V2000
    2.7049    0.9350   -0.4404 S   0  0  0  0  0  1  0  0  0  0  0  0
    1.0313    1.0813   -0.4080 C   0  0  0  0  0  0  0  0  0  0  0  0
    0.1364    0.1019   -0.0473 C   0  0  0  0  0  0  0  0  0  0  0  0
    0.5360   -1.2679    0.3784 C   0  0  0  0  0  0  0  0  0  0  0  0
   -1.3304    0.3842   -0.0689 C   0  0  0  0  0  0  0  0  0  0  0  0
    0.6069    2.0398   -0.6990 H   0  0  0  0  0  0  0  0  0  0  0  0
    0.1578   -1.4699    1.3849 H   0  0  0  0  0  0  0  0  0  0  0  0
    0.0783   -2.0109   -0.2814 H   0  0  0  0  0  0  0  0  0  0  0  0
    1.6154   -1.3973    0.3689 H   0  0  0  0  0  0  0  0  0  0  0  0
   -1.8406   -0.3126   -0.7406 H   0  0  0  0  0  0  0  0  0  0  0  0
   -1.5514    1.4016   -0.3887 H   0  0  0  0  0  0  0  0  0  0  0  0
   -1.7610    0.2281    0.9247 H   0  0  0  0  0  0  0  0  0  0  0  0
  1  2  1  0
  2  3  2  3
  2  6  1  0
  3  4  1  0
  3  5  1  0
  4  7  1  0
  4  8  1  0
  4  9  1  0
  5 10  1  0
  5 11  1  0
  5 12  1  0
M  RAD  1   1   2
M  END
>  <reaction>  (2) 
rxn_1372

>  <mol_properties>  (2) 
{"2": {"label": "acceptor", "atom_type": "Cs"}}

>  <type>  (2) 
r2

$$$$

     RDKit          3D

 13 12  0  0  0  0  0  0  0  0999 V2000
    2.7452   -1.1134   -0.3601 S   0  0  0  0  0  0  0  0  0  0  0  0
    1.4120   -0.4899    0.2856 C   0  0  0  0  0  0  0  0  0  0  0  0
    0.1714   -0.0257   -0.4180 C   0  0  0  0  0  0  0  0  0  0  0  0
   -0.0717    1.4493   -0.0658 C   0  0  0  0  0  0  0  0  0  0  0  0
    0.1609   -0.2576   -1.9191 C   0  0  0  0  0  0  0  0  0  0  0  0
    1.3665   -0.3550    1.3690 H   0  0  0  0  0  0  0  0  0  0  0  0
   -0.6453   -0.6023    0.0382 H   0  0  0  0  0  0  0  0  0  0  0  0
    0.7161    2.0755   -0.4895 H   0  0  0  0  0  0  0  0  0  0  0  0
   -0.0915    1.6095    1.0136 H   0  0  0  0  0  0  0  0  0  0  0  0
   -1.0268    1.7797   -0.4755 H   0  0  0  0  0  0  0  0  0  0  0  0
    0.3131   -1.3093   -2.1616 H   0  0  0  0  0  0  0  0  0  0  0  0
    0.9567    0.3095   -2.4051 H   0  0  0  0  0  0  0  0  0  0  0  0
   -0.7945    0.0619   -2.3384 H   0  0  0  0  0  0  0  0  0  0  0  0
  1  2  2  0
  2  3  1  0
  2  6  1  0
  3  4  1  0
  3  5  1  0
  3  7  1  0
  4  8  1  0
  4  9  1  0
  4 10  1  0
  5 11  1  0
  5 12  1  0
  5 13  1  0
M  END
>  <reaction>  (3) 
rxn_1372

>  <mol_properties>  (3) 
{"0": {"label": "a_hydrogen", "atom_type": "H0"}, "3": {"label": "acceptor", "atom_type": "Cs"}}

>  <type>  (3) 
r2h

$$$$

     RDKit          3D

 21 19  0  0  0  0  0  0  0  0999 V2000
   -2.7790   -0.4701   -0.1654 C   0  0  0  0  0  0  0  0  0  0  0  0
   -1.7213   -0.8474   -0.5926 C   0  0  0  0  0  0  0  0  0  0  0  0
   -0.4395   -1.2416   -1.0668 C   0  0  0  0  0  3  0  0  0  0  0  0
    0.0108   -2.5676   -0.8127 C   0  0  0  0  0  0  0  0  0  0  0  0
    0.4594   -3.6536   -0.5649 C   0  0  0  0  0  0  0  0  0  0  0  0
   -3.7268   -0.1528    0.1985 H   0  0  0  0  0  0  0  0  0  0  0  0
    0.4772   -0.4817   -0.3130 H   0  0  0  0  0  0  0  0  0  0  0  0
   -0.1642   -0.8418   -2.0414 H   0  0  0  0  0  0  0  0  0  0  0  0
    0.8353   -4.6283   -0.3647 H   0  0  0  0  0  0  0  0  0  0  0  0
    3.4331    0.5029   -1.1501 S   0  0  0  0  0  0  0  0  0  0  0  0
    2.5157   -0.1571    0.0218 C   0  0  0  0  0  0  0  0  0  0  0  0
    1.2000    0.2753    0.4537 C   0  0  0  0  0  0  0  0  0  0  0  0
    0.7673   -0.2019    1.8229 C   0  0  0  0  0  0  0  0  0  0  0  0
    0.7234    1.6550    0.0752 C   0  0  0  0  0  0  0  0  0  0  0  0
    2.8756   -1.0584    0.5197 H   0  0  0  0  0  0  0  0  0  0  0  0
    1.2185    0.4188    2.6018 H   0  0  0  0  0  0  0  0  0  0  0  0
   -0.3169   -0.1324    1.9268 H   0  0  0  0  0  0  0  0  0  0  0  0
    1.0628   -1.2378    1.9956 H   0  0  0  0  0  0  0  0  0  0  0  0
   -0.3568    1.7305    0.2105 H   0  0  0  0  0  0  0  0  0  0  0  0
    0.9761    1.8941   -0.9566 H   0  0  0  0  0  0  0  0  0  0  0  0
    1.1996    2.4030    0.7149 H   0  0  0  0  0  0  0  0  0  0  0  0
  1  2  3  0
  1  6  1  0
  2  3  1  0
  3  4  1  0
  3  8  1  0
  4  5  3  0
  5  9  1  0
  7 12  1  0
 10 11  2  0
 11 12  1  0
 11 15  1  0
 12 13  1  0
 12 14  1  0
 13 16  1  0
 13 17  1  0
 13 18  1  0
 14 19  1  0
 14 20  1  0
 14 21  1  0
M  RAD  1   3   2
M  END
>  <reaction>  (4) 
rxn_1372

>  <mol_properties>  (4) 
{"1": {"label": "*4", "atom_type": "Ct"}, "2": {"label": "*3", "atom_type": "Cs"}, "6": {"label": "*2", "atom_type": "H0"}, "10": {"label": "*0", "atom_type": "CS"}, "11": {"label": "*1", "atom_type": "Cs"}}

>  <type>  (4) 
ts

$$$$

     RDKit          3D

 21 19  0  0  0  0  0  0  0  0999 V2000
   -0.5234   -1.3164   -3.5312 C   0  0  0  0  0  0  0  0  0  0  0  0
   -0.5234   -1.3164   -2.3357 C   0  0  0  0  0  0  0  0  0  0  0  0
   -0.5234   -1.3164   -0.8727 C   0  0  0  0  0  0  0  0  0  0  0  0
   -1.8374   -1.0408   -0.2916 C   0  0  0  0  0  0  0  0  0  0  0  0
   -2.9112   -0.8155    0.1833 C   0  0  0  0  0  0  0  0  0  0  0  0
   -0.5234   -1.3164   -4.5947 H   0  0  0  0  0  0  0  0  0  0  0  0
    0.3347   -0.4220   -0.4417 H   0  0  0  0  0  0  0  0  0  0  0  0
   -0.1680   -2.2862   -0.5135 H   0  0  0  0  0  0  0  0  0  0  0  0
   -3.8664   -0.6152    0.6058 H   0  0  0  0  0  0  0  0  0  0  0  0
   -0.0183    1.3364    2.3567 S   0  0  0  0  0  1  0  0  0  0  0  0
    0.3794    1.4374    0.8028 C   0  0  0  0  0  0  0  0  0  0  0  0
    1.1970    0.4768   -0.0085 C   0  0  0  0  0  0  0  0  0  0  0  0
    2.3986    1.2295   -0.5989 C   0  0  0  0  0  0  0  0  0  0  0  0
    1.6242   -0.7818    0.7269 C   0  0  0  0  0  0  0  0  0  0  0  0
    0.0461    2.3065    0.2306 H   0  0  0  0  0  0  0  0  0  0  0  0
    3.0789    1.5415    0.1961 H   0  0  0  0  0  0  0  0  0  0  0  0
    2.9480    0.5809   -1.2822 H   0  0  0  0  0  0  0  0  0  0  0  0
    2.0878    2.1185   -1.1506 H   0  0  0  0  0  0  0  0  0  0  0  0
    2.1678   -1.4423    0.0494 H   0  0  0  0  0  0  0  0  0  0  0  0
    0.7656   -1.3221    1.1253 H   0  0  0  0  0  0  0  0  0  0  0  0
    2.2769   -0.5380    1.5668 H   0  0  0  0  0  0  0  0  0  0  0  0
  1  2  3  0
  1  6  1  0
  2  3  1  0
  3  4  1  0
  3  7  1  0
  3  8  1  0
  4  5  3  0
  5  9  1  0
 10 11  1  0
 11 12  2  3
 11 15  1  0
 12 13  1  0
 12 14  1  0
 13 16  1  0
 13 17  1  0
 13 18  1  0
 14 19  1  0
 14 20  1  0
 14 21  1  0
M  RAD  1  10   2
M  END
>  <reaction>  (5) 
rxn_1372

>  <mol_properties>  (5) 
{"1": {"label": "*4", "atom_type": "Ct"}, "2": {"label": "*3", "atom_type": "Cs"}, "6": {"label": "*2", "atom_type": "H0"}, "10": {"label": "*0", "atom_type": "CS"}, "11": {"label": "*1", "atom_type": "Cs"}}

>  <type>  (5) 
unop_1

>  <geom_source>  (5) 
Heuristics

$$$$

     RDKit          3D

 21 19  0  0  0  0  0  0  0  0999 V2000
   -0.6151   -1.7202   -2.8055 C   0  0  0  0  0  0  0  0  0  0  0  0
   -0.6151   -1.7202   -1.6100 C   0  0  0  0  0  0  0  0  0  0  0  0
   -0.6151   -1.7202   -0.1470 C   0  0  0  0  0  0  0  0  0  0  0  0
   -1.9291   -1.4446    0.4342 C   0  0  0  0  0  0  0  0  0  0  0  0
   -3.0029   -1.2194    0.9091 C   0  0  0  0  0  0  0  0  0  0  0  0
   -0.6151   -1.7202   -3.8689 H   0  0  0  0  0  0  0  0  0  0  0  0
    0.2430   -0.8258    0.2841 H   0  0  0  0  0  0  0  0  0  0  0  0
   -0.2597   -2.6901    0.2122 H   0  0  0  0  0  0  0  0  0  0  0  0
   -3.9581   -1.0191    1.3316 H   0  0  0  0  0  0  0  0  0  0  0  0
    0.4521    2.5962   -0.2913 S   0  0  0  0  0  1  0  0  0  0  0  0
    1.1207    1.1354   -0.3412 C   0  0  0  0  0  0  0  0  0  0  0  0
    1.1054    0.0729    0.7172 C   0  0  0  0  0  0  0  0  0  0  0  0
    2.5551   -0.2832    1.0783 C   0  0  0  0  0  0  0  0  0  0  0  0
    0.2817    0.4069    1.9490 C   0  0  0  0  0  0  0  0  0  0  0  0
    1.6793    0.8436   -1.2338 H   0  0  0  0  0  0  0  0  0  0  0  0
    3.0431    0.5625    1.5672 H   0  0  0  0  0  0  0  0  0  0  0  0
    2.5728   -1.1301    1.7651 H   0  0  0  0  0  0  0  0  0  0  0  0
    3.1382   -0.5498    0.1951 H   0  0  0  0  0  0  0  0  0  0  0  0
    0.2856   -0.4380    2.6397 H   0  0  0  0  0  0  0  0  0  0  0  0
   -0.7509    0.6382    1.6880 H   0  0  0  0  0  0  0  0  0  0  0  0
    0.6918    1.2759    2.4664 H   0  0  0  0  0  0  0  0  0  0  0  0
  1  2  3  0
  1  6  1  0
  2  3  1  0
  3  4  1  0
  3  7  1  0
  3  8  1  0
  4  5  3  0
  5  9  1  0
 10 11  1  0
 11 12  2  3
 11 15  1  0
 12 13  1  0
 12 14  1  0
 13 16  1  0
 13 17  1  0
 13 18  1  0
 14 19  1  0
 14 20  1  0
 14 21  1  0
M  RAD  1  10   2
M  END
>  <reaction>  (6) 
rxn_1372

>  <mol_properties>  (6) 
{"1": {"label": "*4", "atom_type": "Ct"}, "2": {"label": "*3", "atom_type": "Cs"}, "6": {"label": "*2", "atom_type": "H0"}, "10": {"label": "*0", "atom_type": "CS"}, "11": {"label": "*1", "atom_type": "Cs"}}

>  <type>  (6) 
unop_2

>  <geom_source>  (6) 
Heuristics

$$$$

     RDKit          3D

 21 19  0  0  0  0  0  0  0  0999 V2000
   -0.7644   -1.1517   -3.5833 C   0  0  0  0  0  0  0  0  0  0  0  0
   -0.7644   -1.1517   -2.3878 C   0  0  0  0  0  0  0  0  0  0  0  0
   -0.7644   -1.1517   -0.9248 C   0  0  0  0  0  0  0  0  0  0  0  0
   -2.0784   -0.8761   -0.3436 C   0  0  0  0  0  0  0  0  0  0  0  0
   -3.1521   -0.6509    0.1313 C   0  0  0  0  0  0  0  0  0  0  0  0
   -0.7644   -1.1517   -4.6468 H   0  0  0  0  0  0  0  0  0  0  0  0
    0.0938   -0.2573   -0.4937 H   0  0  0  0  0  0  0  0  0  0  0  0
   -0.4090   -2.1215   -0.5656 H   0  0  0  0  0  0  0  0  0  0  0  0
   -4.1073   -0.4505    0.5537 H   0  0  0  0  0  0  0  0  0  0  0  0
    0.8117    0.6319    2.7304 S   0  0  0  0  0  1  0  0  0  0  0  0
    0.4006    1.1091    1.2517 C   0  0  0  0  0  0  0  0  0  0  0  0
    0.9561    0.6415   -0.0606 C   0  0  0  0  0  0  0  0  0  0  0  0
    1.5143    1.8546   -0.8193 C   0  0  0  0  0  0  0  0  0  0  0  0
    1.9745   -0.4812    0.0378 C   0  0  0  0  0  0  0  0  0  0  0  0
   -0.3652    1.8809    1.1427 H   0  0  0  0  0  0  0  0  0  0  0  0
    2.3846    2.2599   -0.2992 H   0  0  0  0  0  0  0  0  0  0  0  0
    1.8240    1.5591   -1.8223 H   0  0  0  0  0  0  0  0  0  0  0  0
    0.7722    2.6494   -0.9133 H   0  0  0  0  0  0  0  0  0  0  0  0
    2.2850   -0.7907   -0.9614 H   0  0  0  0  0  0  0  0  0  0  0  0
    1.5653   -1.3467    0.5588 H   0  0  0  0  0  0  0  0  0  0  0  0
    2.8594   -0.1556    0.5874 H   0  0  0  0  0  0  0  0  0  0  0  0
  1  2  3  0
  1  6  1  0
  2  3  1  0
  3  4  1  0
  3  7  1  0
  3  8  1  0
  4  5  3  0
  5  9  1  0
 10 11  1  0
 11 12  2  3
 11 15  1  0
 12 13  1  0
 12 14  1  0
 13 16  1  0
 13 17  1  0
 13 18  1  0
 14 19  1  0
 14 20  1  0
 14 21  1  0
M  RAD  1  10   2
M  END
>  <reaction>  (7) 
rxn_1372

>  <mol_properties>  (7) 
{"1": {"label": "*4", "atom_type": "Ct"}, "2": {"label": "*3", "atom_type": "Cs"}, "6": {"label": "*2", "atom_type": "H0"}, "10": {"label": "*0", "atom_type": "CS"}, "11": {"label": "*1", "atom_type": "Cs"}}

>  <type>  (7) 
unop_3

>  <geom_source>  (7) 
Heuristics

$$$$

     RDKit          3D

 21 19  0  0  0  0  0  0  0  0999 V2000
   -1.3073   -1.2262   -2.8768 C   0  0  0  0  0  0  0  0  0  0  0  0
   -1.3073   -1.2262   -1.6813 C   0  0  0  0  0  0  0  0  0  0  0  0
   -1.3073   -1.2262   -0.2183 C   0  0  0  0  0  0  0  0  0  0  0  0
   -2.6213   -0.9506    0.3629 C   0  0  0  0  0  0  0  0  0  0  0  0
   -3.6951   -0.7254    0.8378 C   0  0  0  0  0  0  0  0  0  0  0  0
   -1.3073   -1.2262   -3.9403 H   0  0  0  0  0  0  0  0  0  0  0  0
   -0.4492   -0.3318    0.2127 H   0  0  0  0  0  0  0  0  0  0  0  0
   -0.9519   -2.1960    0.1409 H   0  0  0  0  0  0  0  0  0  0  0  0
   -4.6503   -0.5250    1.2602 H   0  0  0  0  0  0  0  0  0  0  0  0
    3.0324    1.0360   -0.2086 S   0  0  0  0  0  1  0  0  0  0  0  0
    1.7363    0.1333    0.0885 C   0  0  0  0  0  0  0  0  0  0  0  0
    0.4132    0.5670    0.6459 C   0  0  0  0  0  0  0  0  0  0  0  0
    0.1303   -0.2361    1.9241 C   0  0  0  0  0  0  0  0  0  0  0  0
    0.2730    2.0621    0.8750 C   0  0  0  0  0  0  0  0  0  0  0  0
    1.7862   -0.9397   -0.1119 H   0  0  0  0  0  0  0  0  0  0  0  0
    0.8421    0.0334    2.7070 H   0  0  0  0  0  0  0  0  0  0  0  0
   -0.8746   -0.0192    2.2881 H   0  0  0  0  0  0  0  0  0  0  0  0
    0.2041   -1.3112    1.7511 H   0  0  0  0  0  0  0  0  0  0  0  0
   -0.7325    2.2914    1.2315 H   0  0  0  0  0  0  0  0  0  0  0  0
    0.4545    2.6249   -0.0405 H   0  0  0  0  0  0  0  0  0  0  0  0
    0.9899    2.4093    1.6211 H   0  0  0  0  0  0  0  0  0  0  0  0
  1  2  3  0
  1  6  1  0
  2  3  1  0
  3  4  1  0
  3  7  1  0
  3  8  1  0
  4  5  3  0
  5  9  1  0
 10 11  1  0
 11 12  2  3
 11 15  1  0
 12 13  1  0
 12 14  1  0
 13 16  1  0
 13 17  1  0
 13 18  1  0
 14 19  1  0
 14 20  1  0
 14 21  1  0
M  RAD  1  10   2
M  END
>  <reaction>  (8) 
rxn_1372

>  <mol_properties>  (8) 
{"1": {"label": "*4", "atom_type": "Ct"}, "2": {"label": "*3", "atom_type": "Cs"}, "6": {"label": "*2", "atom_type": "H0"}, "10": {"label": "*0", "atom_type": "CS"}, "11": {"label": "*1", "atom_type": "Cs"}}

>  <type>  (8) 
unop_4

>  <geom_source>  (8) 
Heuristics

$$$$

     RDKit          3D

 21 19  0  0  0  0  0  0  0  0999 V2000
   -0.9939   -1.1292   -3.5094 C   0  0  0  0  0  0  0  0  0  0  0  0
   -0.9939   -1.1292   -2.3139 C   0  0  0  0  0  0  0  0  0  0  0  0
   -0.9939   -1.1292   -0.8509 C   0  0  0  0  0  0  0  0  0  0  0  0
   -2.3080   -0.8536   -0.2697 C   0  0  0  0  0  0  0  0  0  0  0  0
   -3.3817   -0.6284    0.2052 C   0  0  0  0  0  0  0  0  0  0  0  0
   -0.9939   -1.1292   -4.5729 H   0  0  0  0  0  0  0  0  0  0  0  0
   -0.1358   -0.2348   -0.4198 H   0  0  0  0  0  0  0  0  0  0  0  0
   -0.6386   -2.0990   -0.4917 H   0  0  0  0  0  0  0  0  0  0  0  0
   -4.3369   -0.4280    0.6276 H   0  0  0  0  0  0  0  0  0  0  0  0
    1.8415    0.3056    2.5508 S   0  0  0  0  0  1  0  0  0  0  0  0
    0.6497    0.5840    1.5090 C   0  0  0  0  0  0  0  0  0  0  0  0
    0.7265    0.6640    0.0133 C   0  0  0  0  0  0  0  0  0  0  0  0
    0.2035    2.0371   -0.4338 C   0  0  0  0  0  0  0  0  0  0  0  0
    2.0935    0.3606   -0.5756 C   0  0  0  0  0  0  0  0  0  0  0  0
   -0.3571    0.7575    1.8966 H   0  0  0  0  0  0  0  0  0  0  0  0
    0.8771    2.8278   -0.0971 H   0  0  0  0  0  0  0  0  0  0  0  0
    0.1454    2.0796   -1.5220 H   0  0  0  0  0  0  0  0  0  0  0  0
   -0.7905    2.2418   -0.0323 H   0  0  0  0  0  0  0  0  0  0  0  0
    2.0446    0.3921   -1.6653 H   0  0  0  0  0  0  0  0  0  0  0  0
    2.4495   -0.6236   -0.2715 H   0  0  0  0  0  0  0  0  0  0  0  0
    2.8307    1.0933   -0.2432 H   0  0  0  0  0  0  0  0  0  0  0  0
  1  2  3  0
  1  6  1  0
  2  3  1  0
  3  4  1  0
  3  7  1  0
  3  8  1  0
  4  5  3  0
  5  9  1  0
 10 11  1  0
 11 12  2  3
 11 15  1  0
 12 13  1  0
 12 14  1  0
 13 16  1  0
 13 17  1  0
 13 18  1  0
 14 19  1  0
 14 20  1  0
 14 21  1  0
M  RAD  1  10   2
M  END
>  <reaction>  (9) 
rxn_1372

>  <mol_properties>  (9) 
{"1": {"label": "*4", "atom_type": "Ct"}, "2": {"label": "*3", "atom_type": "Cs"}, "6": {"label": "*2", "atom_type": "H0"}, "10": {"label": "*0", "atom_type": "CS"}, "11": {"label": "*1", "atom_type": "Cs"}}

>  <type>  (9) 
unop_5

>  <geom_source>  (9) 
Heuristics

$$$$

     RDKit          3D

 21 19  0  0  0  0  0  0  0  0999 V2000
   -1.3021   -1.1175   -3.1152 C   0  0  0  0  0  0  0  0  0  0  0  0
   -1.3021   -1.1175   -1.9197 C   0  0  0  0  0  0  0  0  0  0  0  0
   -1.3021   -1.1175   -0.4567 C   0  0  0  0  0  0  0  0  0  0  0  0
   -2.6162   -0.8419    0.1244 C   0  0  0  0  0  0  0  0  0  0  0  0
   -3.6899   -0.6166    0.5993 C   0  0  0  0  0  0  0  0  0  0  0  0
   -1.3021   -1.1175   -4.1787 H   0  0  0  0  0  0  0  0  0  0  0  0
   -0.4440   -0.2231   -0.0257 H   0  0  0  0  0  0  0  0  0  0  0  0
   -0.9468   -2.0873   -0.0975 H   0  0  0  0  0  0  0  0  0  0  0  0
   -4.6451   -0.4163    1.0218 H   0  0  0  0  0  0  0  0  0  0  0  0
    3.2015    0.5445    0.6251 S   0  0  0  0  0  1  0  0  0  0  0  0
    1.7167   -0.0642    0.5344 C   0  0  0  0  0  0  0  0  0  0  0  0
    0.4183    0.6757    0.4074 C   0  0  0  0  0  0  0  0  0  0  0  0
   -0.4861    0.2889    1.5869 C   0  0  0  0  0  0  0  0  0  0  0  0
    0.5501    2.1824    0.2665 C   0  0  0  0  0  0  0  0  0  0  0  0
    1.5896   -1.1483    0.5828 H   0  0  0  0  0  0  0  0  0  0  0  0
   -0.0669    0.6602    2.5243 H   0  0  0  0  0  0  0  0  0  0  0  0
   -1.4763    0.7277    1.4592 H   0  0  0  0  0  0  0  0  0  0  0  0
   -0.6022   -0.7931    1.6699 H   0  0  0  0  0  0  0  0  0  0  0  0
   -0.4352    2.6310    0.1294 H   0  0  0  0  0  0  0  0  0  0  0  0
    1.1759    2.4504   -0.5846 H   0  0  0  0  0  0  0  0  0  0  0  0
    1.0050    2.6174    1.1580 H   0  0  0  0  0  0  0  0  0  0  0  0
  1  2  3  0
  1  6  1  0
  2  3  1  0
  3  4  1  0
  3  7  1  0
  3  8  1  0
  4  5  3  0
  5  9  1  0
 10 11  1  0
 11 12  2  3
 11 15  1  0
 12 13  1  0
 12 14  1  0
 13 16  1  0
 13 17  1  0
 13 18  1  0
 14 19  1  0
 14 20  1  0
 14 21  1  0
M  RAD  1  10   2
M  END
>  <reaction>  (10) 
rxn_1372

>  <mol_properties>  (10) 
{"1": {"label": "*4", "atom_type": "Ct"}, "2": {"label": "*3", "atom_type": "Cs"}, "6": {"label": "*2", "atom_type": "H0"}, "10": {"label": "*0", "atom_type": "CS"}, "11": {"label": "*1", "atom_type": "Cs"}}

>  <type>  (10) 
unop_6

>  <geom_source>  (10) 
Heuristics

$$$$

     RDKit          3D

 21 19  0  0  0  0  0  0  0  0999 V2000
   -1.2106   -1.1099   -3.3137 C   0  0  0  0  0  0  0  0  0  0  0  0
   -1.2106   -1.1099   -2.1182 C   0  0  0  0  0  0  0  0  0  0  0  0
   -1.2106   -1.1099   -0.6552 C   0  0  0  0  0  0  0  0  0  0  0  0
   -2.5246   -0.8343   -0.0740 C   0  0  0  0  0  0  0  0  0  0  0  0
   -3.5984   -0.6091    0.4009 C   0  0  0  0  0  0  0  0  0  0  0  0
   -1.2106   -1.1099   -4.3772 H   0  0  0  0  0  0  0  0  0  0  0  0
   -0.3524   -0.2155   -0.2242 H   0  0  0  0  0  0  0  0  0  0  0  0
   -0.8552   -2.0797   -0.2960 H   0  0  0  0  0  0  0  0  0  0  0  0
   -4.5535   -0.4087    0.8233 H   0  0  0  0  0  0  0  0  0  0  0  0
    2.9907    0.3391    1.4490 S   0  0  0  0  0  1  0  0  0  0  0  0
    1.5035   -0.0939    1.0203 C   0  0  0  0  0  0  0  0  0  0  0  0
    0.5099    0.6833    0.2090 C   0  0  0  0  0  0  0  0  0  0  0  0
   -0.7705    0.8621    1.0381 C   0  0  0  0  0  0  0  0  0  0  0  0
    1.0209    2.0065   -0.3345 C   0  0  0  0  0  0  0  0  0  0  0  0
    1.1217   -1.0622    1.3530 H   0  0  0  0  0  0  0  0  0  0  0  0
   -0.5785    1.5061    1.8987 H   0  0  0  0  0  0  0  0  0  0  0  0
   -1.5478    1.3276    0.4311 H   0  0  0  0  0  0  0  0  0  0  0  0
   -1.1518   -0.0926    1.4046 H   0  0  0  0  0  0  0  0  0  0  0  0
    0.2532    2.4771   -0.9509 H   0  0  0  0  0  0  0  0  0  0  0  0
    1.9175    1.8701   -0.9390 H   0  0  0  0  0  0  0  0  0  0  0  0
    1.2744    2.6883    0.4791 H   0  0  0  0  0  0  0  0  0  0  0  0
  1  2  3  0
  1  6  1  0
  2  3  1  0
  3  4  1  0
  3  7  1  0
  3  8  1  0
  4  5  3  0
  5  9  1  0
 10 11  1  0
 11 12  2  3
 11 15  1  0
 12 13  1  0
 12 14  1  0
 13 16  1  0
 13 17  1  0
 13 18  1  0
 14 19  1  0
 14 20  1  0
 14 21  1  0
M  RAD  1  10   2
M  END
>  <reaction>  (11) 
rxn_1372

>  <mol_properties>  (11) 
{"1": {"label": "*4", "atom_type": "Ct"}, "2": {"label": "*3", "atom_type": "Cs"}, "6": {"label": "*2", "atom_type": "H0"}, "10": {"label": "*0", "atom_type": "CS"}, "11": {"label": "*1", "atom_type": "Cs"}}

>  <type>  (11) 
unop_7

>  <geom_source>  (11) 
Heuristics

$$$$

     RDKit          3D

 21 19  0  0  0  0  0  0  0  0999 V2000
   -0.3975   -1.5219   -3.3379 C   0  0  0  0  0  0  0  0  0  0  0  0
   -0.3975   -1.5219   -2.1424 C   0  0  0  0  0  0  0  0  0  0  0  0
   -0.3975   -1.5219   -0.6794 C   0  0  0  0  0  0  0  0  0  0  0  0
   -1.7115   -1.2463   -0.0982 C   0  0  0  0  0  0  0  0  0  0  0  0
   -2.7853   -1.0211    0.3767 C   0  0  0  0  0  0  0  0  0  0  0  0
   -0.3975   -1.5219   -4.4014 H   0  0  0  0  0  0  0  0  0  0  0  0
    0.4606   -0.6275   -0.2484 H   0  0  0  0  0  0  0  0  0  0  0  0
   -0.0422   -2.4917   -0.3202 H   0  0  0  0  0  0  0  0  0  0  0  0
   -3.7405   -0.8207    0.7991 H   0  0  0  0  0  0  0  0  0  0  0  0
   -0.3629    2.0300    1.5542 S   0  0  0  0  0  1  0  0  0  0  0  0
    0.5300    1.5380    0.3117 C   0  0  0  0  0  0  0  0  0  0  0  0
    1.3229    0.2713    0.1848 C   0  0  0  0  0  0  0  0  0  0  0  0
    2.7900    0.6342   -0.0888 C   0  0  0  0  0  0  0  0  0  0  0  0
    1.1868   -0.6901    1.3529 C   0  0  0  0  0  0  0  0  0  0  0  0
    0.6098    2.1837   -0.5662 H   0  0  0  0  0  0  0  0  0  0  0  0
    3.2276    1.1276    0.7814 H   0  0  0  0  0  0  0  0  0  0  0  0
    3.3669   -0.2681   -0.2946 H   0  0  0  0  0  0  0  0  0  0  0  0
    2.8884    1.3030   -0.9456 H   0  0  0  0  0  0  0  0  0  0  0  0
    1.7538   -1.6009    1.1534 H   0  0  0  0  0  0  0  0  0  0  0  0
    0.1455   -0.9599    1.5284 H   0  0  0  0  0  0  0  0  0  0  0  0
    1.5688   -0.2415    2.2715 H   0  0  0  0  0  0  0  0  0  0  0  0
  1  2  3  0
  1  6  1  0
  2  3  1  0
  3  4  1  0
  3  7  1  0
  3  8  1  0
  4  5  3  0
  5  9  1  0
 10 11  1  0
 11 12  2  3
 11 15  1  0
 12 13  1  0
 12 14  1  0
 13 16  1  0
 13 17  1  0
 13 18  1  0
 14 19  1  0
 14 20  1  0
 14 21  1  0
M  RAD  1  10   2
M  END
>  <reaction>  (12) 
rxn_1372

>  <mol_properties>  (12) 
{"1": {"label": "*4", "atom_type": "Ct"}, "2": {"label": "*3", "atom_type": "Cs"}, "6": {"label": "*2", "atom_type": "H0"}, "10": {"label": "*0", "atom_type": "CS"}, "11": {"label": "*1", "atom_type": "Cs"}}

>  <type>  (12) 
unop_8

>  <geom_source>  (12) 
Heuristics

$$$$

     RDKit          3D

 21 19  0  0  0  0  0  0  0  0999 V2000
   -1.1721   -1.4236   -2.6912 C   0  0  0  0  0  0  0  0  0  0  0  0
   -1.1721   -1.4236   -1.4957 C   0  0  0  0  0  0  0  0  0  0  0  0
   -1.1721   -1.4236   -0.0327 C   0  0  0  0  0  0  0  0  0  0  0  0
   -2.4861   -1.1480    0.5484 C   0  0  0  0  0  0  0  0  0  0  0  0
   -3.5598   -0.9228    1.0233 C   0  0  0  0  0  0  0  0  0  0  0  0
   -1.1721   -1.4236   -3.7547 H   0  0  0  0  0  0  0  0  0  0  0  0
   -0.3139   -0.5292    0.3983 H   0  0  0  0  0  0  0  0  0  0  0  0
   -0.8167   -2.3935    0.3265 H   0  0  0  0  0  0  0  0  0  0  0  0
   -4.5150   -0.7225    1.4458 H   0  0  0  0  0  0  0  0  0  0  0  0
    2.4011    1.7186   -0.7680 S   0  0  0  0  0  1  0  0  0  0  0  0
    1.6094    0.4287   -0.2270 C   0  0  0  0  0  0  0  0  0  0  0  0
    0.5484    0.3695    0.8314 C   0  0  0  0  0  0  0  0  0  0  0  0
    1.0099   -0.5903    1.9380 C   0  0  0  0  0  0  0  0  0  0  0  0
    0.1258    1.7167    1.3917 C   0  0  0  0  0  0  0  0  0  0  0  0
    1.8539   -0.5510   -0.6443 H   0  0  0  0  0  0  0  0  0  0  0  0
    1.8751   -0.1783    2.4613 H   0  0  0  0  0  0  0  0  0  0  0  0
    0.2101   -0.7363    2.6648 H   0  0  0  0  0  0  0  0  0  0  0  0
    1.2868   -1.5669    1.5370 H   0  0  0  0  0  0  0  0  0  0  0  0
   -0.6808    1.5828    2.1143 H   0  0  0  0  0  0  0  0  0  0  0  0
   -0.2202    2.3858    0.6039 H   0  0  0  0  0  0  0  0  0  0  0  0
    0.9608    2.2070    1.8952 H   0  0  0  0  0  0  0  0  0  0  0  0
  1  2  3  0
  1  6  1  0
  2  3  1  0
  3  4  1  0
  3  7  1  0
  3  8  1  0
  4  5  3  0
  5  9  1  0
 10 11  1  0
 11 12  2  3
 11 15  1  0
 12 13  1  0
 12 14  1  0
 13 16  1  0
 13 17  1  0
 13 18  1  0
 14 19  1  0
 14 20  1  0
 14 21  1  0
M  RAD  1  10   2
M  END
>  <reaction>  (13) 
rxn_1372

>  <mol_properties>  (13) 
{"1": {"label": "*4", "atom_type": "Ct"}, "2": {"label": "*3", "atom_type": "Cs"}, "6": {"label": "*2", "atom_type": "H0"}, "10": {"label": "*0", "atom_type": "CS"}, "11": {"label": "*1", "atom_type": "Cs"}}

>  <type>  (13) 
unop_9

>  <geom_source>  (13) 
Heuristics

$$$$

     RDKit          3D

 21 19  0  0  0  0  0  0  0  0999 V2000
   -0.4278   -1.6756   -3.0662 C   0  0  0  0  0  0  0  0  0  0  0  0
   -0.4278   -1.6756   -1.8707 C   0  0  0  0  0  0  0  0  0  0  0  0
   -0.4278   -1.6756   -0.4077 C   0  0  0  0  0  0  0  0  0  0  0  0
   -1.7418   -1.4000    0.1734 C   0  0  0  0  0  0  0  0  0  0  0  0
   -2.8156   -1.1748    0.6483 C   0  0  0  0  0  0  0  0  0  0  0  0
   -0.4278   -1.6756   -4.1297 H   0  0  0  0  0  0  0  0  0  0  0  0
    0.4303   -0.7812    0.0233 H   0  0  0  0  0  0  0  0  0  0  0  0
   -0.0725   -2.6455   -0.0485 H   0  0  0  0  0  0  0  0  0  0  0  0
   -3.7708   -0.9745    1.0708 H   0  0  0  0  0  0  0  0  0  0  0  0
   -0.1907    2.4828    0.5819 S   0  0  0  0  0  1  0  0  0  0  0  0
    0.8045    1.4216   -0.1010 C   0  0  0  0  0  0  0  0  0  0  0  0
    1.2926    0.1175    0.4565 C   0  0  0  0  0  0  0  0  0  0  0  0
    2.8277    0.1438    0.4984 C   0  0  0  0  0  0  0  0  0  0  0  0
    0.6969   -0.2688    1.7993 C   0  0  0  0  0  0  0  0  0  0  0  0
    1.2131    1.6452   -1.0894 H   0  0  0  0  0  0  0  0  0  0  0  0
    3.1749    0.8820    1.2242 H   0  0  0  0  0  0  0  0  0  0  0  0
    3.2110   -0.8329    0.7960 H   0  0  0  0  0  0  0  0  0  0  0  0
    3.2548    0.3943   -0.4742 H   0  0  0  0  0  0  0  0  0  0  0  0
    1.0676   -1.2493    2.1027 H   0  0  0  0  0  0  0  0  0  0  0  0
   -0.3915   -0.3060    1.7572 H   0  0  0  0  0  0  0  0  0  0  0  0
    0.9709    0.4555    2.5683 H   0  0  0  0  0  0  0  0  0  0  0  0
  1  2  3  0
  1  6  1  0
  2  3  1  0
  3  4  1  0
  3  7  1  0
  3  8  1  0
  4  5  3  0
  5  9  1  0
 10 11  1  0
 11 12  2  3
 11 15  1  0
 12 13  1  0
 12 14  1  0
 13 16  1  0
 13 17  1  0
 13 18  1  0
 14 19  1  0
 14 20  1  0
 14 21  1  0
M  RAD  1  10   2
M  END
>  <reaction>  (14) 
rxn_1372

>  <mol_properties>  (14) 
{"1": {"label": "*4", "atom_type": "Ct"}, "2": {"label": "*3", "atom_type": "Cs"}, "6": {"label": "*2", "atom_type": "H0"}, "10": {"label": "*0", "atom_type": "CS"}, "11": {"label": "*1", "atom_type": "Cs"}}

>  <type>  (14) 
unop_10

>  <geom_source>  (14) 
Heuristics

$$$$

     RDKit          3D

 21 19  0  0  0  0  0  0  0  0999 V2000
   -1.1068   -1.1457   -3.4283 C   0  0  0  0  0  0  0  0  0  0  0  0
   -1.1068   -1.1457   -2.2328 C   0  0  0  0  0  0  0  0  0  0  0  0
   -1.1068   -1.1457   -0.7698 C   0  0  0  0  0  0  0  0  0  0  0  0
   -2.4208   -0.8701   -0.1887 C   0  0  0  0  0  0  0  0  0  0  0  0
   -3.4946   -0.6449    0.2862 C   0  0  0  0  0  0  0  0  0  0  0  0
   -1.1068   -1.1457   -4.4918 H   0  0  0  0  0  0  0  0  0  0  0  0
   -0.2487   -0.2513   -0.3388 H   0  0  0  0  0  0  0  0  0  0  0  0
   -0.7514   -2.1155   -0.4107 H   0  0  0  0  0  0  0  0  0  0  0  0
   -4.4498   -0.4445    0.7087 H   0  0  0  0  0  0  0  0  0  0  0  0
    2.5476    0.3123    2.0838 S   0  0  0  0  0  1  0  0  0  0  0  0
    1.1039    0.1118    1.4067 C   0  0  0  0  0  0  0  0  0  0  0  0
    0.6137    0.6475    0.0943 C   0  0  0  0  0  0  0  0  0  0  0  0
   -0.6416    1.4957    0.3467 C   0  0  0  0  0  0  0  0  0  0  0  0
    1.6519    1.4021   -0.7182 C   0  0  0  0  0  0  0  0  0  0  0  0
    0.3484   -0.4682    1.9422 H   0  0  0  0  0  0  0  0  0  0  0  0
   -0.3856    2.3931    0.9135 H   0  0  0  0  0  0  0  0  0  0  0  0
   -1.0811    1.8058   -0.6019 H   0  0  0  0  0  0  0  0  0  0  0  0
   -1.3978    0.9426    0.9067 H   0  0  0  0  0  0  0  0  0  0  0  0
    1.2247    1.7099   -1.6740 H   0  0  0  0  0  0  0  0  0  0  0  0
    2.5310    0.7877   -0.9116 H   0  0  0  0  0  0  0  0  0  0  0  0
    1.9861    2.2952   -0.1873 H   0  0  0  0  0  0  0  0  0  0  0  0
  1  2  3  0
  1  6  1  0
  2  3  1  0
  3  4  1  0
  3  7  1  0
  3  8  1  0
  4  5  3  0
  5  9  1  0
 10 11  1  0
 11 12  2  3
 11 15  1  0
 12 13  1  0
 12 14  1  0
 13 16  1  0
 13 17  1  0
 13 18  1  0
 14 19  1  0
 14 20  1  0
 14 21  1  0
M  RAD  1  10   2
M  END
>  <reaction>  (15) 
rxn_1372

>  <mol_properties>  (15) 
{"1": {"label": "*4", "atom_type": "Ct"}, "2": {"label": "*3", "atom_type": "Cs"}, "6": {"label": "*2", "atom_type": "H0"}, "10": {"label": "*0", "atom_type": "CS"}, "11": {"label": "*1", "atom_type": "Cs"}}

>  <type>  (15) 
unop_11

>  <geom_source>  (15) 
Heuristics

$$$$

     RDKit          3D

 21 19  0  0  0  0  0  0  0  0999 V2000
   -0.9054   -1.6248   -2.6572 C   0  0  0  0  0  0  0  0  0  0  0  0
   -0.9054   -1.6248   -1.4617 C   0  0  0  0  0  0  0  0  0  0  0  0
   -0.9054   -1.6248    0.0012 C   0  0  0  0  0  0  0  0  0  0  0  0
   -2.2194   -1.3492    0.5824 C   0  0  0  0  0  0  0  0  0  0  0  0
   -3.2932   -1.1240    1.0573 C   0  0  0  0  0  0  0  0  0  0  0  0
   -0.9054   -1.6248   -3.7207 H   0  0  0  0  0  0  0  0  0  0  0  0
   -0.0473   -0.7304    0.4323 H   0  0  0  0  0  0  0  0  0  0  0  0
   -0.5500   -2.5946    0.3604 H   0  0  0  0  0  0  0  0  0  0  0  0
   -4.2484   -0.9236    1.4798 H   0  0  0  0  0  0  0  0  0  0  0  0
    1.4241    2.3238   -0.8061 S   0  0  0  0  0  1  0  0  0  0  0  0
    1.3973    0.7753   -0.3764 C   0  0  0  0  0  0  0  0  0  0  0  0
    0.8151    0.1684    0.8654 C   0  0  0  0  0  0  0  0  0  0  0  0
    1.9227   -0.5954    1.6061 C   0  0  0  0  0  0  0  0  0  0  0  0
    0.0937    1.1447    1.7786 C   0  0  0  0  0  0  0  0  0  0  0  0
    1.8643    0.0391   -1.0351 H   0  0  0  0  0  0  0  0  0  0  0  0
    2.6745    0.0996    1.9855 H   0  0  0  0  0  0  0  0  0  0  0  0
    1.5015   -1.1374    2.4536 H   0  0  0  0  0  0  0  0  0  0  0  0
    2.4214   -1.3162    0.9559 H   0  0  0  0  0  0  0  0  0  0  0  0
   -0.3392    0.6110    2.6263 H   0  0  0  0  0  0  0  0  0  0  0  0
   -0.7045    1.6680    1.2524 H   0  0  0  0  0  0  0  0  0  0  0  0
    0.7829    1.8987    2.1627 H   0  0  0  0  0  0  0  0  0  0  0  0
  1  2  3  0
  1  6  1  0
  2  3  1  0
  3  4  1  0
  3  7  1  0
  3  8  1  0
  4  5  3  0
  5  9  1  0
 10 11  1  0
 11 12  2  3
 11 15  1  0
 12 13  1  0
 12 14  1  0
 13 16  1  0
 13 17  1  0
 13 18  1  0
 14 19  1  0
 14 20  1  0
 14 21  1  0
M  RAD  1  10   2
M  END
>  <reaction>  (16) 
rxn_1372

>  <mol_properties>  (16) 
{"1": {"label": "*4", "atom_type": "Ct"}, "2": {"label": "*3", "atom_type": "Cs"}, "6": {"label": "*2", "atom_type": "H0"}, "10": {"label": "*0", "atom_type": "CS"}, "11": {"label": "*1", "atom_type": "Cs"}}

>  <type>  (16) 
unop_12

>  <geom_source>  (16) 
Heuristics

$$$$

     RDKit          3D

 21 19  0  0  0  0  0  0  0  0999 V2000
   -1.2550   -0.7408    2.6771 S   0  0  0  0  0  0  0  0  0  0  0  0
   -1.0931   -0.1662    0.1823 C   0  0  0  0  0  0  0  0  0  0  0  0
   -1.0501    1.3661    0.2181 C   0  0  0  0  0  0  0  0  0  0  0  0
   -1.7300   -0.6493   -1.1242 C   0  0  0  0  0  0  0  0  0  0  0  0
   -1.8518   -0.7106    1.3698 C   0  0  0  0  0  0  0  0  0  0  0  0
    1.4504   -0.6502   -0.1910 C   0  0  0  0  0  3  0  0  0  0  0  0
    2.2737   -0.4623    1.0051 C   0  0  0  0  0  0  0  0  0  0  0  0
    1.8749    0.2838   -1.2357 C   0  0  0  0  0  0  0  0  0  0  0  0
    2.9506   -0.3090    1.9911 C   0  0  0  0  0  0  0  0  0  0  0  0
    2.2229    1.0523   -2.0972 C   0  0  0  0  0  0  0  0  0  0  0  0
    0.1412   -0.6203    0.2121 H   0  0  0  0  0  0  0  0  0  0  0  0
   -0.5299    1.7145    1.1353 H   0  0  0  0  0  0  0  0  0  0  0  0
   -0.4899    1.7526   -0.6597 H   0  0  0  0  0  0  0  0  0  0  0  0
   -2.0784    1.7878    0.2044 H   0  0  0  0  0  0  0  0  0  0  0  0
   -2.7742   -0.2789   -1.2151 H   0  0  0  0  0  0  0  0  0  0  0  0
   -1.7370   -1.7598   -1.1548 H   0  0  0  0  0  0  0  0  0  0  0  0
   -1.1416   -0.2844   -1.9927 H   0  0  0  0  0  0  0  0  0  0  0  0
   -2.8179   -1.1865    1.2295 H   0  0  0  0  0  0  0  0  0  0  0  0
    1.5620   -1.6915   -0.5576 H   0  0  0  0  0  0  0  0  0  0  0  0
    3.5447   -0.1742    2.8564 H   0  0  0  0  0  0  0  0  0  0  0  0
    2.5285    1.7269   -2.8532 H   0  0  0  0  0  0  0  0  0  0  0  0
  1  5  2  0
  2  3  1  0
  2  4  1  0
  2  5  1  0
  2 11  1  0
  3 12  1  0
  3 13  1  0
  3 14  1  0
  4 15  1  0
  4 16  1  0
  4 17  1  0
  5 18  1  0
  6  7  1  0
  6  8  1  0
  6 19  1  0
  7  9  3  0
  8 10  3  0
  9 20  1  0
 10 21  1  0
M  RAD  1   6   2
M  END
>  <reaction>  (17) 
rxn_1372

>  <mol_properties>  (17) 
{"1": {"label": "*4", "atom_type": "Ct"}, "2": {"label": "*3", "atom_type": "Cs"}, "6": {"label": "*2", "atom_type": "H0"}, "10": {"label": "*0", "atom_type": "CS"}, "11": {"label": "*1", "atom_type": "Cs"}}

>  <type>  (17) 
unop_13

>  <geom_source>  (17) 
AutoTST

$$$$

     RDKit          3D

 21 19  0  0  0  0  0  0  0  0999 V2000
   -0.6151   -1.7202   -2.8055 C   0  0  0  0  0  0  0  0  0  0  0  0
   -0.6151   -1.7202   -1.6100 C   0  0  0  0  0  0  0  0  0  0  0  0
   -0.6151   -1.7202   -0.1470 C   0  0  0  0  0  0  0  0  0  0  0  0
   -1.9291   -1.4446    0.4342 C   0  0  0  0  0  0  0  0  0  0  0  0
   -3.0029   -1.2194    0.9091 C   0  0  0  0  0  0  0  0  0  0  0  0
   -0.6151   -1.7202   -3.8689 H   0  0  0  0  0  0  0  0  0  0  0  0
    0.2430   -0.8258    0.2841 H   0  0  0  0  0  0  0  0  0  0  0  0
   -0.2597   -2.6901    0.2122 H   0  0  0  0  0  0  0  0  0  0  0  0
   -3.9581   -1.0191    1.3316 H   0  0  0  0  0  0  0  0  0  0  0  0
    0.4521    2.5962   -0.2913 S   0  0  0  0  0  1  0  0  0  0  0  0
    1.1206    1.1354   -0.3412 C   0  0  0  0  0  0  0  0  0  0  0  0
    1.1054    0.0729    0.7172 C   0  0  0  0  0  0  0  0  0  0  0  0
    2.5551   -0.2832    1.0783 C   0  0  0  0  0  0  0  0  0  0  0  0
    0.2817    0.4069    1.9490 C   0  0  0  0  0  0  0  0  0  0  0  0
    1.6793    0.8436   -1.2338 H   0  0  0  0  0  0  0  0  0  0  0  0
    3.0431    0.5625    1.5672 H   0  0  0  0  0  0  0  0  0  0  0  0
    2.5728   -1.1301    1.7651 H   0  0  0  0  0  0  0  0  0  0  0  0
    3.1382   -0.5498    0.1951 H   0  0  0  0  0  0  0  0  0  0  0  0
    0.2856   -0.4380    2.6397 H   0  0  0  0  0  0  0  0  0  0  0  0
   -0.7509    0.6381    1.6880 H   0  0  0  0  0  0  0  0  0  0  0  0
    0.6918    1.2759    2.4664 H   0  0  0  0  0  0  0  0  0  0  0  0
  1  2  3  0
  1  6  1  0
  2  3  1  0
  3  4  1  0
  3  7  1  0
  3  8  1  0
  4  5  3  0
  5  9  1  0
 10 11  1  0
 11 12  2  3
 11 15  1  0
 12 13  1  0
 12 14  1  0
 13 16  1  0
 13 17  1  0
 13 18  1  0
 14 19  1  0
 14 20  1  0
 14 21  1  0
M  RAD  1  10   2
M  END
>  <reaction>  (18) 
rxn_1372

>  <mol_properties>  (18) 
{"1": {"label": "*4", "atom_type": "Ct"}, "2": {"label": "*3", "atom_type": "Cs"}, "6": {"label": "*2", "atom_type": "H0"}, "10": {"label": "*0", "atom_type": "CS"}, "11": {"label": "*1", "atom_type": "Cs"}}

>  <type>  (18) 
unop_14

>  <geom_source>  (18) 
gaussian_log

$$$$
