
     RDKit          3D

  6  5  0  0  0  0  0  0  0  0999 V2000
   -0.5072   -0.0291   -0.0097 C   0  0  0  0  0  0  0  0  0  0  0  0
    1.1321   -0.1527   -0.7687 S   0  0  0  0  0  0  0  0  0  0  0  0
   -0.6174   -0.7330    0.8127 H   0  0  0  0  0  0  0  0  0  0  0  0
   -0.5863    0.9827    0.3845 H   0  0  0  0  0  0  0  0  0  0  0  0
   -1.2962   -0.1800   -0.7434 H   0  0  0  0  0  0  0  0  0  0  0  0
    1.0312   -1.4237   -1.1764 H   0  0  0  0  0  0  0  0  0  0  0  0
  1  2  1  0
  1  3  1  0
  1  4  1  0
  1  5  1  0
  2  6  1  0
M  END
>  <reaction>  (1) 
rxn_1854

>  <mol_properties>  (1) 
{"0": {"label": "donator", "atom_type": "Cs"}, "2": {"label": "d_hydrogen", "atom_type": "H0"}}

>  <type>  (1) 
r1h

$$$$

     RDKit          3D

  7  6  0  0  0  0  0  0  0  0999 V2000
   -2.0652    0.3855   -0.2963 S   0  0  0  0  0  0  0  0  0  0  0  0
   -0.7169   -0.5853    0.1792 C   0  0  0  0  0  3  0  0  0  0  0  0
    0.5987   -0.2168    0.0254 C   0  0  0  0  0  0  0  0  0  0  0  0
    1.7547    0.1211   -0.1163 C   0  0  0  0  0  0  0  0  0  0  0  0
   -1.3643    1.4227   -0.7731 H   0  0  0  0  0  0  0  0  0  0  0  0
   -0.9781   -1.5363    0.6220 H   0  0  0  0  0  0  0  0  0  0  0  0
    2.7711    0.4089   -0.2366 H   0  0  0  0  0  0  0  0  0  0  0  0
  1  2  1  0
  1  5  1  0
  2  3  1  0
  2  6  1  0
  3  4  3  0
  4  7  1  0
M  RAD  1   2   2
M  END
>  <reaction>  (2) 
rxn_1854

>  <mol_properties>  (2) 
{"1": {"label": "acceptor", "atom_type": "Cs"}}

>  <type>  (2) 
r2

$$$$

     RDKit          3D

  8  7  0  0  0  0  0  0  0  0999 V2000
   -0.7014    1.0753    1.5530 S   0  0  0  0  0  0  0  0  0  0  0  0
   -0.3105   -0.4583    0.6462 C   0  0  0  0  0  0  0  0  0  0  0  0
    0.0935   -0.2424   -0.7319 C   0  0  0  0  0  0  0  0  0  0  0  0
    0.4431   -0.0604   -1.8621 C   0  0  0  0  0  0  0  0  0  0  0  0
    0.4994    1.6466    1.3970 H   0  0  0  0  0  0  0  0  0  0  0  0
   -1.2277   -1.0477    0.6819 H   0  0  0  0  0  0  0  0  0  0  0  0
    0.4563   -1.0151    1.1841 H   0  0  0  0  0  0  0  0  0  0  0  0
    0.7474    0.1020   -2.8681 H   0  0  0  0  0  0  0  0  0  0  0  0
  1  2  1  0
  1  5  1  0
  2  3  1  0
  2  6  1  0
  2  7  1  0
  3  4  3  0
  4  8  1  0
M  END
>  <reaction>  (3) 
rxn_1854

>  <mol_properties>  (3) 
{"1": {"label": "acceptor", "atom_type": "Cs"}, "7": {"label": "a_hydrogen", "atom_type": "H0"}}

>  <type>  (3) 
r2h

$$$$

     RDKit          3D

 13 11  0  0  0  0  0  0  0  0999 V2000
   -1.6800    1.4196    0.4900 S   0  0  0  0  0  0  0  0  0  0  0  0
   -0.4965    0.4762    1.4445 C   0  0  0  0  0  0  0  0  0  0  0  0
    0.8217    1.0121    1.5644 C   0  0  0  0  0  0  0  0  0  0  0  0
    1.9582    1.4004    1.6046 C   0  0  0  0  0  0  0  0  0  0  0  0
   -0.9468    1.4634   -0.6323 H   0  0  0  0  0  0  0  0  0  0  0  0
   -0.9483    0.1992    2.3948 H   0  0  0  0  0  0  0  0  0  0  0  0
    2.9525    1.7727    1.6657 H   0  0  0  0  0  0  0  0  0  0  0  0
   -0.0765   -1.7597    0.0005 C   0  0  0  0  0  3  0  0  0  0  0  0
    0.6089   -1.1399   -1.4930 S   0  0  0  0  0  0  0  0  0  0  0  0
   -0.3426   -0.6571    0.8139 H   0  0  0  0  0  0  0  0  0  0  0  0
   -1.0523   -2.2028   -0.1761 H   0  0  0  0  0  0  0  0  0  0  0  0
    0.5864   -2.3773    0.5993 H   0  0  0  0  0  0  0  0  0  0  0  0
    1.7836   -0.7429   -0.9849 H   0  0  0  0  0  0  0  0  0  0  0  0
  1  2  1  0
  1  5  1  0
  2  3  1  0
  2  6  1  0
  2 10  1  0
  3  4  3  0
  4  7  1  0
  8  9  1  0
  8 11  1  0
  8 12  1  0
  9 13  1  0
M  RAD  1   8   2
M  END
>  <reaction>  (4) 
rxn_1854

>  <mol_properties>  (4) 
{"0": {"label": "*0", "atom_type": "S2s"}, "1": {"label": "*1", "atom_type": "Cs"}, "7": {"label": "*3", "atom_type": "Cs"}, "8": {"label": "*4", "atom_type": "S2s"}, "9": {"label": "*2", "atom_type": "H0"}}

>  <type>  (4) 
ts

$$$$

     RDKit          3D

 13 11  0  0  0  0  0  0  0  0999 V2000
   -1.2826    0.6646    1.7156 S   0  0  0  0  0  0  0  0  0  0  0  0
    0.2437    0.5478    0.7237 C   0  0  0  0  0  3  0  0  0  0  0  0
    0.7633    1.8315    0.2867 C   0  0  0  0  0  0  0  0  0  0  0  0
    1.1917    2.8896   -0.0735 C   0  0  0  0  0  0  0  0  0  0  0  0
   -0.7690    1.4358    2.6821 H   0  0  0  0  0  0  0  0  0  0  0  0
    1.0047    0.0081    1.2867 H   0  0  0  0  0  0  0  0  0  0  0  0
    1.5722    3.8297   -0.3935 H   0  0  0  0  0  0  0  0  0  0  0  0
    0.2437   -1.8871   -0.2292 C   0  0  0  0  0  0  0  0  0  0  0  0
    0.2437   -1.8871   -2.0398 S   0  0  0  0  0  0  0  0  0  0  0  0
    0.2437   -0.6713    0.2466 H   0  0  0  0  0  0  0  0  0  0  0  0
   -0.6770   -2.3812    0.0768 H   0  0  0  0  0  0  0  0  0  0  0  0
    1.0880   -2.4471    0.1673 H   0  0  0  0  0  0  0  0  0  0  0  0
    1.4140   -1.2590   -2.2062 H   0  0  0  0  0  0  0  0  0  0  0  0
  1  2  1  0
  1  5  1  0
  2  3  1  0
  2  6  1  0
  3  4  3  0
  4  7  1  0
  8  9  1  0
  8 10  1  0
  8 11  1  0
  8 12  1  0
  9 13  1  0
M  RAD  1   2   2
M  END
>  <reaction>  (5) 
rxn_1854

>  <mol_properties>  (5) 
{"0": {"label": "*0", "atom_type": "S2s"}, "1": {"label": "*1", "atom_type": "Cs"}, "7": {"label": "*3", "atom_type": "Cs"}, "8": {"label": "*4", "atom_type": "S2s"}, "9": {"label": "*2", "atom_type": "H0"}}

>  <type>  (5) 
unop_1

>  <geom_source>  (5) 
Heuristics

$$$$

     RDKit          3D

 13 11  0  0  0  0  0  0  0  0999 V2000
   -0.9953    1.4859   -0.2121 S   0  0  0  0  0  0  0  0  0  0  0  0
   -0.1141    0.4918    1.0378 C   0  0  0  0  0  3  0  0  0  0  0  0
    1.0511    1.1503    1.6014 C   0  0  0  0  0  0  0  0  0  0  0  0
    2.0115    1.6930    2.0659 C   0  0  0  0  0  0  0  0  0  0  0  0
   -1.2547    2.5280    0.5875 H   0  0  0  0  0  0  0  0  0  0  0  0
   -0.8043    0.2084    1.8319 H   0  0  0  0  0  0  0  0  0  0  0  0
    2.8649    2.1752    2.4787 H   0  0  0  0  0  0  0  0  0  0  0  0
   -0.1141   -1.9431    0.0850 C   0  0  0  0  0  0  0  0  0  0  0  0
   -0.1141   -1.9431   -1.7257 S   0  0  0  0  0  0  0  0  0  0  0  0
   -0.1141   -0.7273    0.5607 H   0  0  0  0  0  0  0  0  0  0  0  0
   -1.0348   -2.4372    0.3909 H   0  0  0  0  0  0  0  0  0  0  0  0
    0.7303   -2.5031    0.4815 H   0  0  0  0  0  0  0  0  0  0  0  0
    1.0562   -1.3150   -1.8921 H   0  0  0  0  0  0  0  0  0  0  0  0
  1  2  1  0
  1  5  1  0
  2  3  1  0
  2  6  1  0
  3  4  3  0
  4  7  1  0
  8  9  1  0
  8 10  1  0
  8 11  1  0
  8 12  1  0
  9 13  1  0
M  RAD  1   2   2
M  END
>  <reaction>  (6) 
rxn_1854

>  <mol_properties>  (6) 
{"0": {"label": "*0", "atom_type": "S2s"}, "1": {"label": "*1", "atom_type": "Cs"}, "7": {"label": "*3", "atom_type": "Cs"}, "8": {"label": "*4", "atom_type": "S2s"}, "9": {"label": "*2", "atom_type": "H0"}}

>  <type>  (6) 
unop_2

>  <geom_source>  (6) 
Heuristics

$$$$

     RDKit          3D

 13 11  0  0  0  0  0  0  0  0999 V2000
   -0.5956    0.4977    2.2370 S   0  0  0  0  0  0  0  0  0  0  0  0
    0.2855    0.6159    0.6444 C   0  0  0  0  0  3  0  0  0  0  0  0
    0.0752    1.8713   -0.0548 C   0  0  0  0  0  0  0  0  0  0  0  0
   -0.0981    2.9060   -0.6310 C   0  0  0  0  0  0  0  0  0  0  0  0
   -0.0252    1.5708    2.7987 H   0  0  0  0  0  0  0  0  0  0  0  0
    1.3507    0.4500    0.8032 H   0  0  0  0  0  0  0  0  0  0  0  0
   -0.2521    3.8253   -1.1430 H   0  0  0  0  0  0  0  0  0  0  0  0
    0.2855   -1.8190   -0.3085 C   0  0  0  0  0  0  0  0  0  0  0  0
    0.2855   -1.8190   -2.1191 S   0  0  0  0  0  0  0  0  0  0  0  0
    0.2855   -0.6032    0.1673 H   0  0  0  0  0  0  0  0  0  0  0  0
   -0.6351   -2.3131   -0.0025 H   0  0  0  0  0  0  0  0  0  0  0  0
    1.1299   -2.3790    0.0880 H   0  0  0  0  0  0  0  0  0  0  0  0
    1.4558   -1.1909   -2.2855 H   0  0  0  0  0  0  0  0  0  0  0  0
  1  2  1  0
  1  5  1  0
  2  3  1  0
  2  6  1  0
  3  4  3  0
  4  7  1  0
  8  9  1  0
  8 10  1  0
  8 11  1  0
  8 12  1  0
  9 13  1  0
M  RAD  1   2   2
M  END
>  <reaction>  (7) 
rxn_1854

>  <mol_properties>  (7) 
{"0": {"label": "*0", "atom_type": "S2s"}, "1": {"label": "*1", "atom_type": "Cs"}, "7": {"label": "*3", "atom_type": "Cs"}, "8": {"label": "*4", "atom_type": "S2s"}, "9": {"label": "*2", "atom_type": "H0"}}

>  <type>  (7) 
unop_3

>  <geom_source>  (7) 
Heuristics

$$$$

     RDKit          3D

 13 11  0  0  0  0  0  0  0  0999 V2000
    1.0448    1.7220    0.0104 S   0  0  0  0  0  0  0  0  0  0  0  0
   -0.4815    0.9629    0.6596 C   0  0  0  0  0  3  0  0  0  0  0  0
   -0.3058    0.2748    1.9263 C   0  0  0  0  0  0  0  0  0  0  0  0
   -0.1611   -0.2924    2.9704 C   0  0  0  0  0  0  0  0  0  0  0  0
    1.2748    2.5120    1.0666 H   0  0  0  0  0  0  0  0  0  0  0  0
   -1.2569    1.7229    0.7511 H   0  0  0  0  0  0  0  0  0  0  0  0
   -0.0324   -0.7964    3.8980 H   0  0  0  0  0  0  0  0  0  0  0  0
   -0.4815   -1.4720   -0.2932 C   0  0  0  0  0  0  0  0  0  0  0  0
   -0.4815   -1.4720   -2.1038 S   0  0  0  0  0  0  0  0  0  0  0  0
   -0.4815   -0.2561    0.1826 H   0  0  0  0  0  0  0  0  0  0  0  0
   -1.4021   -1.9661    0.0127 H   0  0  0  0  0  0  0  0  0  0  0  0
    0.3629   -2.0320    0.1033 H   0  0  0  0  0  0  0  0  0  0  0  0
    0.6889   -0.8438   -2.2702 H   0  0  0  0  0  0  0  0  0  0  0  0
  1  2  1  0
  1  5  1  0
  2  3  1  0
  2  6  1  0
  3  4  3  0
  4  7  1  0
  8  9  1  0
  8 10  1  0
  8 11  1  0
  8 12  1  0
  9 13  1  0
M  RAD  1   2   2
M  END
>  <reaction>  (8) 
rxn_1854

>  <mol_properties>  (8) 
{"0": {"label": "*0", "atom_type": "S2s"}, "1": {"label": "*1", "atom_type": "Cs"}, "7": {"label": "*3", "atom_type": "Cs"}, "8": {"label": "*4", "atom_type": "S2s"}, "9": {"label": "*2", "atom_type": "H0"}}

>  <type>  (8) 
unop_4

>  <geom_source>  (8) 
Heuristics

$$$$

     RDKit          3D

 13 11  0  0  0  0  0  0  0  0999 V2000
    0.3329    0.5865    2.3445 S   0  0  0  0  0  0  0  0  0  0  0  0
    0.3329    0.7908    0.5320 C   0  0  0  0  0  3  0  0  0  0  0  0
   -0.8087    1.5290    0.0212 C   0  0  0  0  0  0  0  0  0  0  0  0
   -1.7496    2.1375   -0.3998 C   0  0  0  0  0  0  0  0  0  0  0  0
    0.3152    1.8927    2.6380 H   0  0  0  0  0  0  0  0  0  0  0  0
    1.2595    1.2709    0.2186 H   0  0  0  0  0  0  0  0  0  0  0  0
   -2.5855    2.6781   -0.7739 H   0  0  0  0  0  0  0  0  0  0  0  0
    0.3329   -1.6441   -0.4209 C   0  0  0  0  0  0  0  0  0  0  0  0
    0.3329   -1.6441   -2.2315 S   0  0  0  0  0  0  0  0  0  0  0  0
    0.3329   -0.4283    0.0549 H   0  0  0  0  0  0  0  0  0  0  0  0
   -0.5878   -2.1382   -0.1149 H   0  0  0  0  0  0  0  0  0  0  0  0
    1.1772   -2.2041   -0.0244 H   0  0  0  0  0  0  0  0  0  0  0  0
    1.5032   -1.0160   -2.3979 H   0  0  0  0  0  0  0  0  0  0  0  0
  1  2  1  0
  1  5  1  0
  2  3  1  0
  2  6  1  0
  3  4  3  0
  4  7  1  0
  8  9  1  0
  8 10  1  0
  8 11  1  0
  8 12  1  0
  9 13  1  0
M  RAD  1   2   2
M  END
>  <reaction>  (9) 
rxn_1854

>  <mol_properties>  (9) 
{"0": {"label": "*0", "atom_type": "S2s"}, "1": {"label": "*1", "atom_type": "Cs"}, "7": {"label": "*3", "atom_type": "Cs"}, "8": {"label": "*4", "atom_type": "S2s"}, "9": {"label": "*2", "atom_type": "H0"}}

>  <type>  (9) 
unop_5

>  <geom_source>  (9) 
Heuristics

$$$$

     RDKit          3D

 13 11  0  0  0  0  0  0  0  0999 V2000
    1.4315    1.5180    0.6537 S   0  0  0  0  0  0  0  0  0  0  0  0
   -0.3309    1.0801    0.4823 C   0  0  0  0  0  3  0  0  0  0  0  0
   -0.8554    0.2996    1.5889 C   0  0  0  0  0  0  0  0  0  0  0  0
   -1.2878   -0.3438    2.5010 C   0  0  0  0  0  0  0  0  0  0  0  0
    1.3055    2.1765    1.8126 H   0  0  0  0  0  0  0  0  0  0  0  0
   -0.9212    1.9865    0.3507 H   0  0  0  0  0  0  0  0  0  0  0  0
   -1.6719   -0.9154    3.3114 H   0  0  0  0  0  0  0  0  0  0  0  0
   -0.3309   -1.3548   -0.4705 C   0  0  0  0  0  0  0  0  0  0  0  0
   -0.3309   -1.3548   -2.2812 S   0  0  0  0  0  0  0  0  0  0  0  0
   -0.3309   -0.1390    0.0052 H   0  0  0  0  0  0  0  0  0  0  0  0
   -1.2515   -1.8489   -0.1646 H   0  0  0  0  0  0  0  0  0  0  0  0
    0.5135   -1.9148   -0.0741 H   0  0  0  0  0  0  0  0  0  0  0  0
    0.8394   -0.7267   -2.4476 H   0  0  0  0  0  0  0  0  0  0  0  0
  1  2  1  0
  1  5  1  0
  2  3  1  0
  2  6  1  0
  3  4  3  0
  4  7  1  0
  8  9  1  0
  8 10  1  0
  8 11  1  0
  8 12  1  0
  9 13  1  0
M  RAD  1   2   2
M  END
>  <reaction>  (10) 
rxn_1854

>  <mol_properties>  (10) 
{"0": {"label": "*0", "atom_type": "S2s"}, "1": {"label": "*1", "atom_type": "Cs"}, "7": {"label": "*3", "atom_type": "Cs"}, "8": {"label": "*4", "atom_type": "S2s"}, "9": {"label": "*2", "atom_type": "H0"}}

>  <type>  (10) 
unop_6

>  <geom_source>  (10) 
Heuristics

$$$$

     RDKit          3D

 13 11  0  0  0  0  0  0  0  0999 V2000
    1.4435    1.2291    1.3730 S   0  0  0  0  0  0  0  0  0  0  0  0
   -0.0828    1.1123    0.3811 C   0  0  0  0  0  3  0  0  0  0  0  0
   -1.2012    0.5125    1.0871 C   0  0  0  0  0  0  0  0  0  0  0  0
   -2.1230    0.0182    1.6690 C   0  0  0  0  0  0  0  0  0  0  0  0
    0.9207    1.9711    2.3572 H   0  0  0  0  0  0  0  0  0  0  0  0
   -0.3577    2.1015    0.0162 H   0  0  0  0  0  0  0  0  0  0  0  0
   -2.9420   -0.4210    2.1861 H   0  0  0  0  0  0  0  0  0  0  0  0
   -0.0828   -1.3226   -0.5717 C   0  0  0  0  0  0  0  0  0  0  0  0
   -0.0828   -1.3226   -2.3824 S   0  0  0  0  0  0  0  0  0  0  0  0
   -0.0828   -0.1068   -0.0960 H   0  0  0  0  0  0  0  0  0  0  0  0
   -1.0034   -1.8168   -0.2658 H   0  0  0  0  0  0  0  0  0  0  0  0
    0.7616   -1.8826   -0.1753 H   0  0  0  0  0  0  0  0  0  0  0  0
    1.0875   -0.6945   -2.5488 H   0  0  0  0  0  0  0  0  0  0  0  0
  1  2  1  0
  1  5  1  0
  2  3  1  0
  2  6  1  0
  3  4  3  0
  4  7  1  0
  8  9  1  0
  8 10  1  0
  8 11  1  0
  8 12  1  0
  9 13  1  0
M  RAD  1   2   2
M  END
>  <reaction>  (11) 
rxn_1854

>  <mol_properties>  (11) 
{"0": {"label": "*0", "atom_type": "S2s"}, "1": {"label": "*1", "atom_type": "Cs"}, "7": {"label": "*3", "atom_type": "Cs"}, "8": {"label": "*4", "atom_type": "S2s"}, "9": {"label": "*2", "atom_type": "H0"}}

>  <type>  (11) 
unop_7

>  <geom_source>  (11) 
Heuristics

$$$$

     RDKit          3D

 13 11  0  0  0  0  0  0  0  0999 V2000
   -1.5594    0.9406    1.0041 S   0  0  0  0  0  0  0  0  0  0  0  0
    0.2029    0.5027    0.8327 C   0  0  0  0  0  3  0  0  0  0  0  0
    1.0926    1.6488    0.7701 C   0  0  0  0  0  0  0  0  0  0  0  0
    1.8258    2.5935    0.7184 C   0  0  0  0  0  0  0  0  0  0  0  0
   -1.4278    1.6289    2.1449 H   0  0  0  0  0  0  0  0  0  0  0  0
    0.4969   -0.1549    1.6503 H   0  0  0  0  0  0  0  0  0  0  0  0
    2.4773    3.4328    0.6726 H   0  0  0  0  0  0  0  0  0  0  0  0
    0.2029   -1.9322   -0.1201 C   0  0  0  0  0  0  0  0  0  0  0  0
    0.2029   -1.9322   -1.9307 S   0  0  0  0  0  0  0  0  0  0  0  0
    0.2029   -0.7164    0.3557 H   0  0  0  0  0  0  0  0  0  0  0  0
   -0.7178   -2.4264    0.1858 H   0  0  0  0  0  0  0  0  0  0  0  0
    1.0473   -2.4922    0.2764 H   0  0  0  0  0  0  0  0  0  0  0  0
    1.3732   -1.3041   -2.0971 H   0  0  0  0  0  0  0  0  0  0  0  0
  1  2  1  0
  1  5  1  0
  2  3  1  0
  2  6  1  0
  3  4  3  0
  4  7  1  0
  8  9  1  0
  8 10  1  0
  8 11  1  0
  8 12  1  0
  9 13  1  0
M  RAD  1   2   2
M  END
>  <reaction>  (12) 
rxn_1854

>  <mol_properties>  (12) 
{"0": {"label": "*0", "atom_type": "S2s"}, "1": {"label": "*1", "atom_type": "Cs"}, "7": {"label": "*3", "atom_type": "Cs"}, "8": {"label": "*4", "atom_type": "S2s"}, "9": {"label": "*2", "atom_type": "H0"}}

>  <type>  (12) 
unop_8

>  <geom_source>  (12) 
Heuristics

$$$$

     RDKit          3D

 13 11  0  0  0  0  0  0  0  0999 V2000
    0.3869    1.7825   -0.3921 S   0  0  0  0  0  0  0  0  0  0  0  0
   -0.4943    0.7883    0.8578 C   0  0  0  0  0  3  0  0  0  0  0  0
    0.3085    0.4574    2.0219 C   0  0  0  0  0  0  0  0  0  0  0  0
    0.9701    0.1846    2.9813 C   0  0  0  0  0  0  0  0  0  0  0  0
    0.6768    2.8092    0.4168 H   0  0  0  0  0  0  0  0  0  0  0  0
   -1.4015    1.3081    1.1645 H   0  0  0  0  0  0  0  0  0  0  0  0
    1.5580   -0.0578    3.8338 H   0  0  0  0  0  0  0  0  0  0  0  0
   -0.4943   -1.6465   -0.0950 C   0  0  0  0  0  0  0  0  0  0  0  0
   -0.4943   -1.6465   -1.9056 S   0  0  0  0  0  0  0  0  0  0  0  0
   -0.4943   -0.4307    0.3808 H   0  0  0  0  0  0  0  0  0  0  0  0
   -1.4149   -2.1407    0.2110 H   0  0  0  0  0  0  0  0  0  0  0  0
    0.3501   -2.2065    0.3015 H   0  0  0  0  0  0  0  0  0  0  0  0
    0.6761   -1.0184   -2.0720 H   0  0  0  0  0  0  0  0  0  0  0  0
  1  2  1  0
  1  5  1  0
  2  3  1  0
  2  6  1  0
  3  4  3  0
  4  7  1  0
  8  9  1  0
  8 10  1  0
  8 11  1  0
  8 12  1  0
  9 13  1  0
M  RAD  1   2   2
M  END
>  <reaction>  (13) 
rxn_1854

>  <mol_properties>  (13) 
{"0": {"label": "*0", "atom_type": "S2s"}, "1": {"label": "*1", "atom_type": "Cs"}, "7": {"label": "*3", "atom_type": "Cs"}, "8": {"label": "*4", "atom_type": "S2s"}, "9": {"label": "*2", "atom_type": "H0"}}

>  <type>  (13) 
unop_9

>  <geom_source>  (13) 
Heuristics

$$$$

     RDKit          3D

 13 11  0  0  0  0  0  0  0  0999 V2000
   -1.4345    1.2306    0.3086 S   0  0  0  0  0  0  0  0  0  0  0  0
    0.0917    0.4715    0.9578 C   0  0  0  0  0  3  0  0  0  0  0  0
    1.1547    1.4229    1.2295 C   0  0  0  0  0  0  0  0  0  0  0  0
    2.0309    2.2071    1.4535 C   0  0  0  0  0  0  0  0  0  0  0  0
   -1.6453    2.0461    1.3494 H   0  0  0  0  0  0  0  0  0  0  0  0
   -0.1383   -0.0993    1.8570 H   0  0  0  0  0  0  0  0  0  0  0  0
    2.8093    2.9038    1.6525 H   0  0  0  0  0  0  0  0  0  0  0  0
    0.0917   -1.9634    0.0050 C   0  0  0  0  0  0  0  0  0  0  0  0
    0.0917   -1.9634   -1.8056 S   0  0  0  0  0  0  0  0  0  0  0  0
    0.0917   -0.7475    0.4808 H   0  0  0  0  0  0  0  0  0  0  0  0
   -0.8290   -2.4575    0.3110 H   0  0  0  0  0  0  0  0  0  0  0  0
    0.9361   -2.5234    0.4015 H   0  0  0  0  0  0  0  0  0  0  0  0
    1.2620   -1.3352   -1.9720 H   0  0  0  0  0  0  0  0  0  0  0  0
  1  2  1  0
  1  5  1  0
  2  3  1  0
  2  6  1  0
  3  4  3  0
  4  7  1  0
  8  9  1  0
  8 10  1  0
  8 11  1  0
  8 12  1  0
  9 13  1  0
M  RAD  1   2   2
M  END
>  <reaction>  (14) 
rxn_1854

>  <mol_properties>  (14) 
{"0": {"label": "*0", "atom_type": "S2s"}, "1": {"label": "*1", "atom_type": "Cs"}, "7": {"label": "*3", "atom_type": "Cs"}, "8": {"label": "*4", "atom_type": "S2s"}, "9": {"label": "*2", "atom_type": "H0"}}

>  <type>  (14) 
unop_10

>  <geom_source>  (14) 
Heuristics

$$$$

     RDKit          3D

 13 11  0  0  0  0  0  0  0  0999 V2000
    1.0731    0.9006    1.9925 S   0  0  0  0  0  0  0  0  0  0  0  0
    0.1920    1.0188    0.3998 C   0  0  0  0  0  3  0  0  0  0  0  0
   -1.2528    0.9298    0.5166 C   0  0  0  0  0  0  0  0  0  0  0  0
   -2.4437    0.8564    0.6128 C   0  0  0  0  0  0  0  0  0  0  0  0
    0.4771    1.9529    2.5668 H   0  0  0  0  0  0  0  0  0  0  0  0
    0.4703    1.9442   -0.1036 H   0  0  0  0  0  0  0  0  0  0  0  0
   -3.5017    0.7912    0.6983 H   0  0  0  0  0  0  0  0  0  0  0  0
    0.1920   -1.4161   -0.5530 C   0  0  0  0  0  0  0  0  0  0  0  0
    0.1920   -1.4161   -2.3636 S   0  0  0  0  0  0  0  0  0  0  0  0
    0.1920   -0.2002   -0.0772 H   0  0  0  0  0  0  0  0  0  0  0  0
   -0.7287   -1.9102   -0.2470 H   0  0  0  0  0  0  0  0  0  0  0  0
    1.0363   -1.9761   -0.1565 H   0  0  0  0  0  0  0  0  0  0  0  0
    1.3623   -0.7879   -2.5300 H   0  0  0  0  0  0  0  0  0  0  0  0
  1  2  1  0
  1  5  1  0
  2  3  1  0
  2  6  1  0
  3  4  3  0
  4  7  1  0
  8  9  1  0
  8 10  1  0
  8 11  1  0
  8 12  1  0
  9 13  1  0
M  RAD  1   2   2
M  END
>  <reaction>  (15) 
rxn_1854

>  <mol_properties>  (15) 
{"0": {"label": "*0", "atom_type": "S2s"}, "1": {"label": "*1", "atom_type": "Cs"}, "7": {"label": "*3", "atom_type": "Cs"}, "8": {"label": "*4", "atom_type": "S2s"}, "9": {"label": "*2", "atom_type": "H0"}}

>  <type>  (15) 
unop_11

>  <geom_source>  (15) 
Heuristics

$$$$

     RDKit          3D

 13 11  0  0  0  0  0  0  0  0999 V2000
   -0.3514    1.6854   -0.4637 S   0  0  0  0  0  0  0  0  0  0  0  0
   -0.3514    0.6053    1.0061 C   0  0  0  0  0  3  0  0  0  0  0  0
    0.7902    0.8007    1.8822 C   0  0  0  0  0  0  0  0  0  0  0  0
    1.7310    0.9618    2.6044 C   0  0  0  0  0  0  0  0  0  0  0  0
   -0.3337    2.8439    0.2073 H   0  0  0  0  0  0  0  0  0  0  0  0
   -1.2780    0.7452    1.5620 H   0  0  0  0  0  0  0  0  0  0  0  0
    2.5670    1.1050    3.2460 H   0  0  0  0  0  0  0  0  0  0  0  0
   -0.3514   -1.8296    0.0532 C   0  0  0  0  0  0  0  0  0  0  0  0
   -0.3514   -1.8296   -1.7574 S   0  0  0  0  0  0  0  0  0  0  0  0
   -0.3514   -0.6138    0.5290 H   0  0  0  0  0  0  0  0  0  0  0  0
   -1.2721   -2.3238    0.3592 H   0  0  0  0  0  0  0  0  0  0  0  0
    0.4930   -2.3896    0.4497 H   0  0  0  0  0  0  0  0  0  0  0  0
    0.8189   -1.2015   -1.9238 H   0  0  0  0  0  0  0  0  0  0  0  0
  1  2  1  0
  1  5  1  0
  2  3  1  0
  2  6  1  0
  3  4  3  0
  4  7  1  0
  8  9  1  0
  8 10  1  0
  8 11  1  0
  8 12  1  0
  9 13  1  0
M  RAD  1   2   2
M  END
>  <reaction>  (16) 
rxn_1854

>  <mol_properties>  (16) 
{"0": {"label": "*0", "atom_type": "S2s"}, "1": {"label": "*1", "atom_type": "Cs"}, "7": {"label": "*3", "atom_type": "Cs"}, "8": {"label": "*4", "atom_type": "S2s"}, "9": {"label": "*2", "atom_type": "H0"}}

>  <type>  (16) 
unop_12

>  <geom_source>  (16) 
Heuristics

$$$$

     RDKit          3D

 13 11  0  0  0  0  0  0  0  0999 V2000
   -1.1546   -1.7568   -0.9286 S   0  0  0  0  0  0  0  0  0  0  0  0
    2.8466   -0.6265    0.0310 S   0  0  0  0  0  0  0  0  0  0  0  0
   -0.4318   -0.1039   -0.7197 C   0  0  0  0  0  3  0  0  0  0  0  0
    1.3941   -0.4576    1.1049 C   0  0  0  0  0  0  0  0  0  0  0  0
   -1.4967    0.8990   -0.6564 C   0  0  0  0  0  0  0  0  0  0  0  0
   -2.3727    1.7255   -0.6036 C   0  0  0  0  0  0  0  0  0  0  0  0
    0.2303    0.1183   -1.5817 H   0  0  0  0  0  0  0  0  0  0  0  0
    0.3129   -0.0658    0.4538 H   0  0  0  0  0  0  0  0  0  0  0  0
    1.1588   -1.4394    1.5645 H   0  0  0  0  0  0  0  0  0  0  0  0
    1.6064    0.2821    1.9043 H   0  0  0  0  0  0  0  0  0  0  0  0
   -1.7309   -1.7475    0.3563 H   0  0  0  0  0  0  0  0  0  0  0  0
    2.7795    0.7218   -0.3677 H   0  0  0  0  0  0  0  0  0  0  0  0
   -3.1419    2.4509   -0.5572 H   0  0  0  0  0  0  0  0  0  0  0  0
  1  3  1  0
  1 11  1  0
  2  4  1  0
  2 12  1  0
  3  5  1  0
  3  7  1  0
  4  8  1  0
  4  9  1  0
  4 10  1  0
  5  6  3  0
  6 13  1  0
M  RAD  1   3   2
M  END
>  <reaction>  (17) 
rxn_1854

>  <mol_properties>  (17) 
{"0": {"label": "*0", "atom_type": "S2s"}, "1": {"label": "*1", "atom_type": "Cs"}, "7": {"label": "*3", "atom_type": "Cs"}, "8": {"label": "*4", "atom_type": "S2s"}, "9": {"label": "*2", "atom_type": "H0"}}

>  <type>  (17) 
unop_13

>  <geom_source>  (17) 
AutoTST

$$$$
