
     RDKit          3D

  9  8  0  0  0  0  0  0  0  0999 V2000
   -0.8818   -0.3578    0.1297 C   0  0  0  0  0  0  0  0  0  0  0  0
    0.6153   -0.3021   -0.1188 C   0  0  0  0  0  0  0  0  0  0  0  0
    1.5354   -1.7170    0.5545 S   0  0  0  0  0  0  0  0  0  0  0  0
   -1.1018   -0.3317    1.1984 H   0  0  0  0  0  0  0  0  0  0  0  0
   -1.3114   -1.2723   -0.2799 H   0  0  0  0  0  0  0  0  0  0  0  0
   -1.3767    0.4976   -0.3363 H   0  0  0  0  0  0  0  0  0  0  0  0
    1.0467    0.6194    0.2718 H   0  0  0  0  0  0  0  0  0  0  0  0
    0.8295   -0.3275   -1.1882 H   0  0  0  0  0  0  0  0  0  0  0  0
    1.2306   -1.5077    1.8423 H   0  0  0  0  0  0  0  0  0  0  0  0
  1  2  1  0
  1  4  1  0
  1  5  1  0
  1  6  1  0
  2  3  1  0
  2  7  1  0
  2  8  1  0
  3  9  1  0
M  END
>  <reaction>  (1) 
rxn_1877

>  <mol_properties>  (1) 
{"1": {"label": "donator", "atom_type": "Cs"}, "6": {"label": "d_hydrogen", "atom_type": "H0"}}

>  <type>  (1) 
r1h

$$$$

     RDKit          3D

 11 10  0  0  0  0  0  0  0  0999 V2000
   -0.9580    1.1013   -2.2955 C   0  0  0  0  0  0  0  0  0  0  0  0
   -0.5129    0.5941   -1.2929 C   0  0  0  0  0  0  0  0  0  0  0  0
   -0.0301   -0.0160   -0.1357 C   0  0  0  0  0  3  0  0  0  0  0  0
   -0.6593   -1.2845    0.3661 C   0  0  0  0  0  0  0  0  0  0  0  0
    1.0691    0.5292    0.5269 C   0  0  0  0  0  0  0  0  0  0  0  0
    2.0168    0.9794    1.1266 C   0  0  0  0  0  0  0  0  0  0  0  0
   -1.3415    1.5561   -3.1769 H   0  0  0  0  0  0  0  0  0  0  0  0
   -1.7166   -1.3186    0.1054 H   0  0  0  0  0  0  0  0  0  0  0  0
   -0.1742   -2.1550   -0.0865 H   0  0  0  0  0  0  0  0  0  0  0  0
   -0.5505   -1.3663    1.4470 H   0  0  0  0  0  0  0  0  0  0  0  0
    2.8514    1.3842    1.6465 H   0  0  0  0  0  0  0  0  0  0  0  0
  1  2  3  0
  1  7  1  0
  2  3  1  0
  3  4  1  0
  3  5  1  0
  4  8  1  0
  4  9  1  0
  4 10  1  0
  5  6  3  0
  6 11  1  0
M  RAD  1   3   2
M  END
>  <reaction>  (2) 
rxn_1877

>  <mol_properties>  (2) 
{"2": {"label": "acceptor", "atom_type": "Cs"}}

>  <type>  (2) 
r2

$$$$

     RDKit          3D

 12 11  0  0  0  0  0  0  0  0999 V2000
    2.1696    0.6854    1.1310 C   0  0  0  0  0  0  0  0  0  0  0  0
    1.2518    0.4145    0.4134 C   0  0  0  0  0  0  0  0  0  0  0  0
    0.1391    0.0443   -0.4683 C   0  0  0  0  0  0  0  0  0  0  0  0
   -0.2054   -1.4492   -0.3339 C   0  0  0  0  0  0  0  0  0  0  0  0
   -1.0375    0.8853   -0.2222 C   0  0  0  0  0  0  0  0  0  0  0  0
   -2.0160    1.5463   -0.0311 C   0  0  0  0  0  0  0  0  0  0  0  0
    2.9819    0.9356    1.7702 H   0  0  0  0  0  0  0  0  0  0  0  0
    0.4629    0.2285   -1.4981 H   0  0  0  0  0  0  0  0  0  0  0  0
   -0.5327   -1.6703    0.6812 H   0  0  0  0  0  0  0  0  0  0  0  0
    0.6727   -2.0535   -0.5593 H   0  0  0  0  0  0  0  0  0  0  0  0
   -1.0064   -1.7081   -1.0256 H   0  0  0  0  0  0  0  0  0  0  0  0
   -2.8802    2.1413    0.1426 H   0  0  0  0  0  0  0  0  0  0  0  0
  1  2  3  0
  1  7  1  0
  2  3  1  0
  3  4  1  0
  3  5  1  0
  3  8  1  0
  4  9  1  0
  4 10  1  0
  4 11  1  0
  5  6  3  0
  6 12  1  0
M  END
>  <reaction>  (3) 
rxn_1877

>  <mol_properties>  (3) 
{"2": {"label": "acceptor", "atom_type": "Cs"}, "11": {"label": "a_hydrogen", "atom_type": "H0"}}

>  <type>  (3) 
r2h

$$$$

     RDKit          3D

 20 18  0  0  0  0  0  0  0  0999 V2000
    1.5513   -2.5000   -1.6988 C   0  0  0  0  0  0  0  0  0  0  0  0
    1.1399   -1.8648   -0.7676 C   0  0  0  0  0  0  0  0  0  0  0  0
    0.5748   -1.1117    0.3233 C   0  0  0  0  0  0  0  0  0  0  0  0
    0.0123   -1.9499    1.4656 C   0  0  0  0  0  0  0  0  0  0  0  0
    1.3589    0.0237    0.7384 C   0  0  0  0  0  0  0  0  0  0  0  0
    1.9513    1.0073    1.0892 C   0  0  0  0  0  0  0  0  0  0  0  0
    1.9365   -3.0636   -2.5140 H   0  0  0  0  0  0  0  0  0  0  0  0
   -0.6549   -2.7152    1.0694 H   0  0  0  0  0  0  0  0  0  0  0  0
    0.8138   -2.4406    2.0201 H   0  0  0  0  0  0  0  0  0  0  0  0
   -0.5475   -1.3109    2.1489 H   0  0  0  0  0  0  0  0  0  0  0  0
    2.5044    1.8592    1.4041 H   0  0  0  0  0  0  0  0  0  0  0  0
   -0.9213    0.8936   -1.8586 C   0  0  0  0  0  0  0  0  0  0  0  0
   -1.5678    0.1740   -0.7096 C   0  0  0  0  0  3  0  0  0  0  0  0
   -2.2268    1.1129    0.6259 S   0  0  0  0  0  0  0  0  0  0  0  0
   -0.1139    1.5385   -1.5047 H   0  0  0  0  0  0  0  0  0  0  0  0
   -1.6425    1.5151   -2.3967 H   0  0  0  0  0  0  0  0  0  0  0  0
   -0.4931    0.1734   -2.5578 H   0  0  0  0  0  0  0  0  0  0  0  0
   -0.4816   -0.5580   -0.1770 H   0  0  0  0  0  0  0  0  0  0  0  0
   -2.2724   -0.6096   -0.9807 H   0  0  0  0  0  0  0  0  0  0  0  0
   -1.1780    1.9368    0.7697 H   0  0  0  0  0  0  0  0  0  0  0  0
  1  2  3  0
  1  7  1  0
  2  3  1  0
  3  4  1  0
  3  5  1  0
  3 18  1  0
  4  8  1  0
  4  9  1  0
  4 10  1  0
  5  6  3  0
  6 11  1  0
 12 13  1  0
 12 15  1  0
 12 16  1  0
 12 17  1  0
 13 14  1  0
 13 19  1  0
 14 20  1  0
M  RAD  1  13   2
M  END
>  <reaction>  (4) 
rxn_1877

>  <mol_properties>  (4) 
{"1": {"label": "*0", "atom_type": "Ct"}, "2": {"label": "*1", "atom_type": "Cs"}, "12": {"label": "*3", "atom_type": "Cs"}, "13": {"label": "*4", "atom_type": "S2s"}, "17": {"label": "*2", "atom_type": "H0"}}

>  <type>  (4) 
ts

$$$$

     RDKit          3D

 20 18  0  0  0  0  0  0  0  0999 V2000
    2.3816    0.6855    1.5296 C   0  0  0  0  0  0  0  0  0  0  0  0
    1.6994   -0.0555    0.8844 C   0  0  0  0  0  0  0  0  0  0  0  0
    0.8954   -0.9762    0.0731 C   0  0  0  0  0  3  0  0  0  0  0  0
    1.7409   -2.1593   -0.4298 C   0  0  0  0  0  0  0  0  0  0  0  0
   -0.2853   -1.4418    0.8090 C   0  0  0  0  0  0  0  0  0  0  0  0
   -1.2472   -1.8492    1.3919 C   0  0  0  0  0  0  0  0  0  0  0  0
    2.9881    1.3443    2.1033 H   0  0  0  0  0  0  0  0  0  0  0  0
    2.5888   -1.7900   -1.0058 H   0  0  0  0  0  0  0  0  0  0  0  0
    2.1145   -2.7401    0.4125 H   0  0  0  0  0  0  0  0  0  0  0  0
    1.1331   -2.8068   -1.0610 H   0  0  0  0  0  0  0  0  0  0  0  0
   -2.1023   -2.2113    1.9101 H   0  0  0  0  0  0  0  0  0  0  0  0
   -1.1333    0.3857   -2.3961 C   0  0  0  0  0  0  0  0  0  0  0  0
   -1.1333    0.3857   -0.8774 C   0  0  0  0  0  0  0  0  0  0  0  0
   -1.1333    2.0431   -0.1325 S   0  0  0  0  0  0  0  0  0  0  0  0
   -0.2267    0.8512   -2.7869 H   0  0  0  0  0  0  0  0  0  0  0  0
   -1.9893    0.9369   -2.7862 H   0  0  0  0  0  0  0  0  0  0  0  0
   -1.1764   -0.6376   -2.7764 H   0  0  0  0  0  0  0  0  0  0  0  0
   -0.1214   -0.2936   -0.4033 H   0  0  0  0  0  0  0  0  0  0  0  0
   -2.0409   -0.0813   -0.4923 H   0  0  0  0  0  0  0  0  0  0  0  0
    0.0415    2.4448   -0.6360 H   0  0  0  0  0  0  0  0  0  0  0  0
  1  2  3  0
  1  7  1  0
  2  3  1  0
  3  4  1  0
  3  5  1  0
  4  8  1  0
  4  9  1  0
  4 10  1  0
  5  6  3  0
  6 11  1  0
 12 13  1  0
 12 15  1  0
 12 16  1  0
 12 17  1  0
 13 14  1  0
 13 18  1  0
 13 19  1  0
 14 20  1  0
M  RAD  1   3   2
M  END
>  <reaction>  (5) 
rxn_1877

>  <mol_properties>  (5) 
{"1": {"label": "*0", "atom_type": "Ct"}, "2": {"label": "*1", "atom_type": "Cs"}, "12": {"label": "*3", "atom_type": "Cs"}, "13": {"label": "*4", "atom_type": "S2s"}, "17": {"label": "*2", "atom_type": "H0"}}

>  <type>  (5) 
unop_1

>  <geom_source>  (5) 
Heuristics

$$$$

     RDKit          3D

 20 18  0  0  0  0  0  0  0  0999 V2000
    2.5643   -0.9368   -1.4488 C   0  0  0  0  0  0  0  0  0  0  0  0
    1.6764   -0.9939   -0.6494 C   0  0  0  0  0  0  0  0  0  0  0  0
    0.5823   -1.1026    0.3219 C   0  0  0  0  0  3  0  0  0  0  0  0
    0.4385   -2.5442    0.8404 C   0  0  0  0  0  0  0  0  0  0  0  0
    0.7565   -0.1549    1.4282 C   0  0  0  0  0  0  0  0  0  0  0  0
    0.8825    0.5971    2.3499 C   0  0  0  0  0  0  0  0  0  0  0  0
    3.3538   -0.8860   -2.1595 H   0  0  0  0  0  0  0  0  0  0  0  0
    0.2711   -3.2231    0.0049 H   0  0  0  0  0  0  0  0  0  0  0  0
    1.3440   -2.8480    1.3640 H   0  0  0  0  0  0  0  0  0  0  0  0
   -0.4036   -2.6078    1.5288 H   0  0  0  0  0  0  0  0  0  0  0  0
    0.9945    1.2657    3.1692 H   0  0  0  0  0  0  0  0  0  0  0  0
   -1.4464    0.2594   -2.1473 C   0  0  0  0  0  0  0  0  0  0  0  0
   -1.4464    0.2594   -0.6286 C   0  0  0  0  0  0  0  0  0  0  0  0
   -1.4464    1.9167    0.1164 S   0  0  0  0  0  0  0  0  0  0  0  0
   -0.5398    0.7248   -2.5380 H   0  0  0  0  0  0  0  0  0  0  0  0
   -2.3024    0.8106   -2.5374 H   0  0  0  0  0  0  0  0  0  0  0  0
   -1.4895   -0.7640   -2.5276 H   0  0  0  0  0  0  0  0  0  0  0  0
   -0.4345   -0.4200   -0.1545 H   0  0  0  0  0  0  0  0  0  0  0  0
   -2.3540   -0.2077   -0.2435 H   0  0  0  0  0  0  0  0  0  0  0  0
   -0.2716    2.3184   -0.3872 H   0  0  0  0  0  0  0  0  0  0  0  0
  1  2  3  0
  1  7  1  0
  2  3  1  0
  3  4  1  0
  3  5  1  0
  4  8  1  0
  4  9  1  0
  4 10  1  0
  5  6  3  0
  6 11  1  0
 12 13  1  0
 12 15  1  0
 12 16  1  0
 12 17  1  0
 13 14  1  0
 13 18  1  0
 13 19  1  0
 14 20  1  0
M  RAD  1   3   2
M  END
>  <reaction>  (6) 
rxn_1877

>  <mol_properties>  (6) 
{"1": {"label": "*0", "atom_type": "Ct"}, "2": {"label": "*1", "atom_type": "Cs"}, "12": {"label": "*3", "atom_type": "Cs"}, "13": {"label": "*4", "atom_type": "S2s"}, "17": {"label": "*2", "atom_type": "H0"}}

>  <type>  (6) 
unop_2

>  <geom_source>  (6) 
Heuristics

$$$$

     RDKit          3D

 20 18  0  0  0  0  0  0  0  0999 V2000
    1.6038    0.2804    2.4523 C   0  0  0  0  0  0  0  0  0  0  0  0
    1.2775   -0.2149    1.4136 C   0  0  0  0  0  0  0  0  0  0  0  0
    0.9134   -0.8138    0.1247 C   0  0  0  0  0  3  0  0  0  0  0  0
    2.1578   -1.3181   -0.6268 C   0  0  0  0  0  0  0  0  0  0  0  0
   -0.0746   -1.8847    0.2955 C   0  0  0  0  0  0  0  0  0  0  0  0
   -0.8683   -2.7725    0.4080 C   0  0  0  0  0  0  0  0  0  0  0  0
    1.8939    0.7209    3.3758 H   0  0  0  0  0  0  0  0  0  0  0  0
    2.8583   -0.4971   -0.7759 H   0  0  0  0  0  0  0  0  0  0  0  0
    2.6517   -2.1018   -0.0539 H   0  0  0  0  0  0  0  0  0  0  0  0
    1.8666   -1.7218   -1.5960 H   0  0  0  0  0  0  0  0  0  0  0  0
   -1.5739   -3.5618    0.5080 H   0  0  0  0  0  0  0  0  0  0  0  0
   -1.1153    0.5482   -2.3445 C   0  0  0  0  0  0  0  0  0  0  0  0
   -1.1153    0.5482   -0.8259 C   0  0  0  0  0  0  0  0  0  0  0  0
   -1.1153    2.2056   -0.0809 S   0  0  0  0  0  0  0  0  0  0  0  0
   -0.2086    1.0136   -2.7353 H   0  0  0  0  0  0  0  0  0  0  0  0
   -1.9712    1.0994   -2.7346 H   0  0  0  0  0  0  0  0  0  0  0  0
   -1.1584   -0.4752   -2.7248 H   0  0  0  0  0  0  0  0  0  0  0  0
   -0.1034   -0.1311   -0.3517 H   0  0  0  0  0  0  0  0  0  0  0  0
   -2.0229    0.0812   -0.4407 H   0  0  0  0  0  0  0  0  0  0  0  0
    0.0595    2.6072   -0.5844 H   0  0  0  0  0  0  0  0  0  0  0  0
  1  2  3  0
  1  7  1  0
  2  3  1  0
  3  4  1  0
  3  5  1  0
  4  8  1  0
  4  9  1  0
  4 10  1  0
  5  6  3  0
  6 11  1  0
 12 13  1  0
 12 15  1  0
 12 16  1  0
 12 17  1  0
 13 14  1  0
 13 18  1  0
 13 19  1  0
 14 20  1  0
M  RAD  1   3   2
M  END
>  <reaction>  (7) 
rxn_1877

>  <mol_properties>  (7) 
{"1": {"label": "*0", "atom_type": "Ct"}, "2": {"label": "*1", "atom_type": "Cs"}, "12": {"label": "*3", "atom_type": "Cs"}, "13": {"label": "*4", "atom_type": "S2s"}, "17": {"label": "*2", "atom_type": "H0"}}

>  <type>  (7) 
unop_3

>  <geom_source>  (7) 
Heuristics

$$$$

     RDKit          3D

 20 18  0  0  0  0  0  0  0  0999 V2000
    0.3967   -3.2578   -0.5324 C   0  0  0  0  0  0  0  0  0  0  0  0
    0.5286   -2.1338   -0.1450 C   0  0  0  0  0  0  0  0  0  0  0  0
    0.6549   -0.7581    0.3487 C   0  0  0  0  0  3  0  0  0  0  0  0
   -0.1432   -0.5571    1.6488 C   0  0  0  0  0  0  0  0  0  0  0  0
    2.0622   -0.3831    0.5258 C   0  0  0  0  0  0  0  0  0  0  0  0
    3.2006   -0.0570    0.6939 C   0  0  0  0  0  0  0  0  0  0  0  0
    0.2794   -4.2570   -0.8769 H   0  0  0  0  0  0  0  0  0  0  0  0
   -1.1911   -0.8040    1.4819 H   0  0  0  0  0  0  0  0  0  0  0  0
    0.2487   -1.2014    2.4347 H   0  0  0  0  0  0  0  0  0  0  0  0
   -0.0663    0.4800    1.9739 H   0  0  0  0  0  0  0  0  0  0  0  0
    4.2128    0.2331    0.8434 H   0  0  0  0  0  0  0  0  0  0  0  0
   -1.3738    0.6039   -2.1205 C   0  0  0  0  0  0  0  0  0  0  0  0
   -1.3738    0.6039   -0.6018 C   0  0  0  0  0  0  0  0  0  0  0  0
   -1.3738    2.2612    0.1432 S   0  0  0  0  0  0  0  0  0  0  0  0
   -0.4672    1.0693   -2.5112 H   0  0  0  0  0  0  0  0  0  0  0  0
   -2.2298    1.1551   -2.5106 H   0  0  0  0  0  0  0  0  0  0  0  0
   -1.4169   -0.4195   -2.5008 H   0  0  0  0  0  0  0  0  0  0  0  0
   -0.3619   -0.0755   -0.1277 H   0  0  0  0  0  0  0  0  0  0  0  0
   -2.2814    0.1368   -0.2167 H   0  0  0  0  0  0  0  0  0  0  0  0
   -0.1990    2.6629   -0.3604 H   0  0  0  0  0  0  0  0  0  0  0  0
  1  2  3  0
  1  7  1  0
  2  3  1  0
  3  4  1  0
  3  5  1  0
  4  8  1  0
  4  9  1  0
  4 10  1  0
  5  6  3  0
  6 11  1  0
 12 13  1  0
 12 15  1  0
 12 16  1  0
 12 17  1  0
 13 14  1  0
 13 18  1  0
 13 19  1  0
 14 20  1  0
M  RAD  1   3   2
M  END
>  <reaction>  (8) 
rxn_1877

>  <mol_properties>  (8) 
{"1": {"label": "*0", "atom_type": "Ct"}, "2": {"label": "*1", "atom_type": "Cs"}, "12": {"label": "*3", "atom_type": "Cs"}, "13": {"label": "*4", "atom_type": "S2s"}, "17": {"label": "*2", "atom_type": "H0"}}

>  <type>  (8) 
unop_4

>  <geom_source>  (8) 
Heuristics

$$$$

     RDKit          3D

 20 18  0  0  0  0  0  0  0  0999 V2000
    0.6693   -0.5997    2.8795 C   0  0  0  0  0  0  0  0  0  0  0  0
    0.7177   -0.6715    1.6865 C   0  0  0  0  0  0  0  0  0  0  0  0
    0.8003   -0.7270    0.2227 C   0  0  0  0  0  3  0  0  0  0  0  0
    2.0970   -0.0744   -0.2874 C   0  0  0  0  0  0  0  0  0  0  0  0
    0.6706   -2.1042   -0.2659 C   0  0  0  0  0  0  0  0  0  0  0  0
    0.5833   -3.2192   -0.6902 C   0  0  0  0  0  0  0  0  0  0  0  0
    0.6264   -0.5359    3.9401 H   0  0  0  0  0  0  0  0  0  0  0  0
    2.1514    0.9584    0.0554 H   0  0  0  0  0  0  0  0  0  0  0  0
    2.9641   -0.6156    0.0889 H   0  0  0  0  0  0  0  0  0  0  0  0
    2.1169   -0.0925   -1.3766 H   0  0  0  0  0  0  0  0  0  0  0  0
    0.5057   -4.2105   -1.0673 H   0  0  0  0  0  0  0  0  0  0  0  0
   -1.2284    0.6350   -2.2465 C   0  0  0  0  0  0  0  0  0  0  0  0
   -1.2284    0.6350   -0.7278 C   0  0  0  0  0  0  0  0  0  0  0  0
   -1.2284    2.2923    0.0172 S   0  0  0  0  0  0  0  0  0  0  0  0
   -0.3218    1.1004   -2.6372 H   0  0  0  0  0  0  0  0  0  0  0  0
   -2.0844    1.1862   -2.6366 H   0  0  0  0  0  0  0  0  0  0  0  0
   -1.2715   -0.3884   -2.6268 H   0  0  0  0  0  0  0  0  0  0  0  0
   -0.2165   -0.0444   -0.2537 H   0  0  0  0  0  0  0  0  0  0  0  0
   -2.1360    0.1679   -0.3427 H   0  0  0  0  0  0  0  0  0  0  0  0
   -0.0536    2.6940   -0.4864 H   0  0  0  0  0  0  0  0  0  0  0  0
  1  2  3  0
  1  7  1  0
  2  3  1  0
  3  4  1  0
  3  5  1  0
  4  8  1  0
  4  9  1  0
  4 10  1  0
  5  6  3  0
  6 11  1  0
 12 13  1  0
 12 15  1  0
 12 16  1  0
 12 17  1  0
 13 14  1  0
 13 18  1  0
 13 19  1  0
 14 20  1  0
M  RAD  1   3   2
M  END
>  <reaction>  (9) 
rxn_1877

>  <mol_properties>  (9) 
{"1": {"label": "*0", "atom_type": "Ct"}, "2": {"label": "*1", "atom_type": "Cs"}, "12": {"label": "*3", "atom_type": "Cs"}, "13": {"label": "*4", "atom_type": "S2s"}, "17": {"label": "*2", "atom_type": "H0"}}

>  <type>  (9) 
unop_5

>  <geom_source>  (9) 
Heuristics

$$$$

     RDKit          3D

 20 18  0  0  0  0  0  0  0  0999 V2000
   -0.1388   -3.2694    0.5852 C   0  0  0  0  0  0  0  0  0  0  0  0
    0.2467   -2.1466    0.4383 C   0  0  0  0  0  0  0  0  0  0  0  0
    0.6883   -0.7566    0.2795 C   0  0  0  0  0  3  0  0  0  0  0  0
    0.1968    0.1208    1.4441 C   0  0  0  0  0  0  0  0  0  0  0  0
    2.1456   -0.6747    0.1308 C   0  0  0  0  0  0  0  0  0  0  0  0
    3.3329   -0.5782    0.0230 C   0  0  0  0  0  0  0  0  0  0  0  0
   -0.4815   -4.2675    0.7159 H   0  0  0  0  0  0  0  0  0  0  0  0
   -0.8897    0.0745    1.5095 H   0  0  0  0  0  0  0  0  0  0  0  0
    0.6206   -0.2295    2.3843 H   0  0  0  0  0  0  0  0  0  0  0  0
    0.5030    1.1541    1.2840 H   0  0  0  0  0  0  0  0  0  0  0  0
    4.3886   -0.4924   -0.0727 H   0  0  0  0  0  0  0  0  0  0  0  0
   -1.3404    0.6054   -2.1897 C   0  0  0  0  0  0  0  0  0  0  0  0
   -1.3404    0.6054   -0.6711 C   0  0  0  0  0  0  0  0  0  0  0  0
   -1.3404    2.2627    0.0739 S   0  0  0  0  0  0  0  0  0  0  0  0
   -0.4337    1.0708   -2.5805 H   0  0  0  0  0  0  0  0  0  0  0  0
   -2.1963    1.1566   -2.5798 H   0  0  0  0  0  0  0  0  0  0  0  0
   -1.3834   -0.4180   -2.5700 H   0  0  0  0  0  0  0  0  0  0  0  0
   -0.3285   -0.0740   -0.1969 H   0  0  0  0  0  0  0  0  0  0  0  0
   -2.2480    0.1383   -0.2859 H   0  0  0  0  0  0  0  0  0  0  0  0
   -0.1656    2.6644   -0.4296 H   0  0  0  0  0  0  0  0  0  0  0  0
  1  2  3  0
  1  7  1  0
  2  3  1  0
  3  4  1  0
  3  5  1  0
  4  8  1  0
  4  9  1  0
  4 10  1  0
  5  6  3  0
  6 11  1  0
 12 13  1  0
 12 15  1  0
 12 16  1  0
 12 17  1  0
 13 14  1  0
 13 18  1  0
 13 19  1  0
 14 20  1  0
M  RAD  1   3   2
M  END
>  <reaction>  (10) 
rxn_1877

>  <mol_properties>  (10) 
{"1": {"label": "*0", "atom_type": "Ct"}, "2": {"label": "*1", "atom_type": "Cs"}, "12": {"label": "*3", "atom_type": "Cs"}, "13": {"label": "*4", "atom_type": "S2s"}, "17": {"label": "*2", "atom_type": "H0"}}

>  <type>  (10) 
unop_6

>  <geom_source>  (10) 
Heuristics

$$$$

     RDKit          3D

 20 18  0  0  0  0  0  0  0  0999 V2000
   -0.3229   -2.7414    1.7349 C   0  0  0  0  0  0  0  0  0  0  0  0
    0.1410   -1.8723    1.0564 C   0  0  0  0  0  0  0  0  0  0  0  0
    0.6888   -0.7795    0.2452 C   0  0  0  0  0  3  0  0  0  0  0  0
    0.6928    0.5463    1.0260 C   0  0  0  0  0  0  0  0  0  0  0  0
    2.0294   -1.1067   -0.2530 C   0  0  0  0  0  0  0  0  0  0  0  0
    3.1296   -1.3416   -0.6593 C   0  0  0  0  0  0  0  0  0  0  0  0
   -0.7354   -3.5141    2.3380 H   0  0  0  0  0  0  0  0  0  0  0  0
   -0.3187    0.7874    1.3513 H   0  0  0  0  0  0  0  0  0  0  0  0
    1.3338    0.4650    1.9029 H   0  0  0  0  0  0  0  0  0  0  0  0
    1.0663    1.3489    0.3909 H   0  0  0  0  0  0  0  0  0  0  0  0
    4.1078   -1.5505   -1.0206 H   0  0  0  0  0  0  0  0  0  0  0  0
   -1.3399    0.5825   -2.2240 C   0  0  0  0  0  0  0  0  0  0  0  0
   -1.3399    0.5825   -0.7053 C   0  0  0  0  0  0  0  0  0  0  0  0
   -1.3399    2.2398    0.0396 S   0  0  0  0  0  0  0  0  0  0  0  0
   -0.4332    1.0479   -2.6148 H   0  0  0  0  0  0  0  0  0  0  0  0
   -2.1958    1.1337   -2.6141 H   0  0  0  0  0  0  0  0  0  0  0  0
   -1.3829   -0.4409   -2.6043 H   0  0  0  0  0  0  0  0  0  0  0  0
   -0.3280   -0.0969   -0.2312 H   0  0  0  0  0  0  0  0  0  0  0  0
   -2.2475    0.1154   -0.3202 H   0  0  0  0  0  0  0  0  0  0  0  0
   -0.1651    2.6415   -0.4639 H   0  0  0  0  0  0  0  0  0  0  0  0
  1  2  3  0
  1  7  1  0
  2  3  1  0
  3  4  1  0
  3  5  1  0
  4  8  1  0
  4  9  1  0
  4 10  1  0
  5  6  3  0
  6 11  1  0
 12 13  1  0
 12 15  1  0
 12 16  1  0
 12 17  1  0
 13 14  1  0
 13 18  1  0
 13 19  1  0
 14 20  1  0
M  RAD  1   3   2
M  END
>  <reaction>  (11) 
rxn_1877

>  <mol_properties>  (11) 
{"1": {"label": "*0", "atom_type": "Ct"}, "2": {"label": "*1", "atom_type": "Cs"}, "12": {"label": "*3", "atom_type": "Cs"}, "13": {"label": "*4", "atom_type": "S2s"}, "17": {"label": "*2", "atom_type": "H0"}}

>  <type>  (11) 
unop_7

>  <geom_source>  (11) 
Heuristics

$$$$

     RDKit          3D

 20 18  0  0  0  0  0  0  0  0999 V2000
    2.8482    0.5720    0.3778 C   0  0  0  0  0  0  0  0  0  0  0  0
    1.9163   -0.1693    0.2643 C   0  0  0  0  0  0  0  0  0  0  0  0
    0.7970   -1.1044    0.1056 C   0  0  0  0  0  3  0  0  0  0  0  0
    1.2962   -2.5538   -0.0272 C   0  0  0  0  0  0  0  0  0  0  0  0
   -0.1664   -0.9727    1.2041 C   0  0  0  0  0  0  0  0  0  0  0  0
   -0.9599   -0.8969    2.0960 C   0  0  0  0  0  0  0  0  0  0  0  0
    3.6767    1.2311    0.4787 H   0  0  0  0  0  0  0  0  0  0  0  0
    1.9788   -2.6343   -0.8726 H   0  0  0  0  0  0  0  0  0  0  0  0
    1.8212   -2.8556    0.8781 H   0  0  0  0  0  0  0  0  0  0  0  0
    0.4512   -3.2235   -0.1833 H   0  0  0  0  0  0  0  0  0  0  0  0
   -1.6653   -0.8295    2.8890 H   0  0  0  0  0  0  0  0  0  0  0  0
   -1.2317    0.2576   -2.3636 C   0  0  0  0  0  0  0  0  0  0  0  0
   -1.2317    0.2576   -0.8450 C   0  0  0  0  0  0  0  0  0  0  0  0
   -1.2317    1.9150   -0.1000 S   0  0  0  0  0  0  0  0  0  0  0  0
   -0.3250    0.7230   -2.7544 H   0  0  0  0  0  0  0  0  0  0  0  0
   -2.0876    0.8088   -2.7537 H   0  0  0  0  0  0  0  0  0  0  0  0
   -1.2747   -0.7658   -2.7439 H   0  0  0  0  0  0  0  0  0  0  0  0
   -0.2197   -0.4217   -0.3708 H   0  0  0  0  0  0  0  0  0  0  0  0
   -2.1393   -0.2095   -0.4598 H   0  0  0  0  0  0  0  0  0  0  0  0
   -0.0569    2.3166   -0.6035 H   0  0  0  0  0  0  0  0  0  0  0  0
  1  2  3  0
  1  7  1  0
  2  3  1  0
  3  4  1  0
  3  5  1  0
  4  8  1  0
  4  9  1  0
  4 10  1  0
  5  6  3  0
  6 11  1  0
 12 13  1  0
 12 15  1  0
 12 16  1  0
 12 17  1  0
 13 14  1  0
 13 18  1  0
 13 19  1  0
 14 20  1  0
M  RAD  1   3   2
M  END
>  <reaction>  (12) 
rxn_1877

>  <mol_properties>  (12) 
{"1": {"label": "*0", "atom_type": "Ct"}, "2": {"label": "*1", "atom_type": "Cs"}, "12": {"label": "*3", "atom_type": "Cs"}, "13": {"label": "*4", "atom_type": "S2s"}, "17": {"label": "*2", "atom_type": "H0"}}

>  <type>  (12) 
unop_8

>  <geom_source>  (12) 
Heuristics

$$$$

     RDKit          3D

 20 18  0  0  0  0  0  0  0  0999 V2000
    1.1359   -2.7584   -1.3444 C   0  0  0  0  0  0  0  0  0  0  0  0
    0.9071   -1.8832   -0.5619 C   0  0  0  0  0  0  0  0  0  0  0  0
    0.5934   -0.8294    0.4095 C   0  0  0  0  0  3  0  0  0  0  0  0
   -0.2378   -1.3808    1.5810 C   0  0  0  0  0  0  0  0  0  0  0  0
    1.8118   -0.1667    0.8879 C   0  0  0  0  0  0  0  0  0  0  0  0
    2.7900    0.3799    1.3063 C   0  0  0  0  0  0  0  0  0  0  0  0
    1.3394   -3.5366   -2.0401 H   0  0  0  0  0  0  0  0  0  0  0  0
   -1.1548   -1.8325    1.2041 H   0  0  0  0  0  0  0  0  0  0  0  0
    0.3295   -2.1369    2.1222 H   0  0  0  0  0  0  0  0  0  0  0  0
   -0.4913   -0.5735    2.2674 H   0  0  0  0  0  0  0  0  0  0  0  0
    3.6598    0.8659    1.6783 H   0  0  0  0  0  0  0  0  0  0  0  0
   -1.4353    0.5326   -2.0597 C   0  0  0  0  0  0  0  0  0  0  0  0
   -1.4353    0.5326   -0.5411 C   0  0  0  0  0  0  0  0  0  0  0  0
   -1.4353    2.1899    0.2039 S   0  0  0  0  0  0  0  0  0  0  0  0
   -0.5286    0.9980   -2.4505 H   0  0  0  0  0  0  0  0  0  0  0  0
   -2.2912    1.0838   -2.4498 H   0  0  0  0  0  0  0  0  0  0  0  0
   -1.4783   -0.4908   -2.4400 H   0  0  0  0  0  0  0  0  0  0  0  0
   -0.4234   -0.1468   -0.0669 H   0  0  0  0  0  0  0  0  0  0  0  0
   -2.3429    0.0655   -0.1559 H   0  0  0  0  0  0  0  0  0  0  0  0
   -0.2605    2.5916   -0.2996 H   0  0  0  0  0  0  0  0  0  0  0  0
  1  2  3  0
  1  7  1  0
  2  3  1  0
  3  4  1  0
  3  5  1  0
  4  8  1  0
  4  9  1  0
  4 10  1  0
  5  6  3  0
  6 11  1  0
 12 13  1  0
 12 15  1  0
 12 16  1  0
 12 17  1  0
 13 14  1  0
 13 18  1  0
 13 19  1  0
 14 20  1  0
M  RAD  1   3   2
M  END
>  <reaction>  (13) 
rxn_1877

>  <mol_properties>  (13) 
{"1": {"label": "*0", "atom_type": "Ct"}, "2": {"label": "*1", "atom_type": "Cs"}, "12": {"label": "*3", "atom_type": "Cs"}, "13": {"label": "*4", "atom_type": "S2s"}, "17": {"label": "*2", "atom_type": "H0"}}

>  <type>  (13) 
unop_9

>  <geom_source>  (13) 
Heuristics

$$$$

     RDKit          3D

 20 18  0  0  0  0  0  0  0  0999 V2000
    2.9113   -0.0242   -0.7071 C   0  0  0  0  0  0  0  0  0  0  0  0
    1.9031   -0.5157   -0.2915 C   0  0  0  0  0  0  0  0  0  0  0  0
    0.6777   -1.1535    0.2022 C   0  0  0  0  0  3  0  0  0  0  0  0
    0.8805   -2.6646    0.4095 C   0  0  0  0  0  0  0  0  0  0  0  0
    0.1992   -0.5083    1.4299 C   0  0  0  0  0  0  0  0  0  0  0  0
   -0.2041   -0.0106    2.4401 C   0  0  0  0  0  0  0  0  0  0  0  0
    3.8077    0.4128   -1.0767 H   0  0  0  0  0  0  0  0  0  0  0  0
    1.1974   -3.1272   -0.5247 H   0  0  0  0  0  0  0  0  0  0  0  0
    1.6439   -2.8418    1.1659 H   0  0  0  0  0  0  0  0  0  0  0  0
   -0.0524   -3.1217    0.7379 H   0  0  0  0  0  0  0  0  0  0  0  0
   -0.5627    0.4318    3.3382 H   0  0  0  0  0  0  0  0  0  0  0  0
   -1.3510    0.2085   -2.2670 C   0  0  0  0  0  0  0  0  0  0  0  0
   -1.3510    0.2085   -0.7483 C   0  0  0  0  0  0  0  0  0  0  0  0
   -1.3510    1.8658   -0.0033 S   0  0  0  0  0  0  0  0  0  0  0  0
   -0.4444    0.6739   -2.6577 H   0  0  0  0  0  0  0  0  0  0  0  0
   -2.2070    0.7597   -2.6571 H   0  0  0  0  0  0  0  0  0  0  0  0
   -1.3941   -0.8149   -2.6473 H   0  0  0  0  0  0  0  0  0  0  0  0
   -0.3391   -0.4709   -0.2742 H   0  0  0  0  0  0  0  0  0  0  0  0
   -2.2586   -0.2586   -0.3632 H   0  0  0  0  0  0  0  0  0  0  0  0
   -0.1762    2.2675   -0.5069 H   0  0  0  0  0  0  0  0  0  0  0  0
  1  2  3  0
  1  7  1  0
  2  3  1  0
  3  4  1  0
  3  5  1  0
  4  8  1  0
  4  9  1  0
  4 10  1  0
  5  6  3  0
  6 11  1  0
 12 13  1  0
 12 15  1  0
 12 16  1  0
 12 17  1  0
 13 14  1  0
 13 18  1  0
 13 19  1  0
 14 20  1  0
M  RAD  1   3   2
M  END
>  <reaction>  (14) 
rxn_1877

>  <mol_properties>  (14) 
{"1": {"label": "*0", "atom_type": "Ct"}, "2": {"label": "*1", "atom_type": "Cs"}, "12": {"label": "*3", "atom_type": "Cs"}, "13": {"label": "*4", "atom_type": "S2s"}, "17": {"label": "*2", "atom_type": "H0"}}

>  <type>  (14) 
unop_10

>  <geom_source>  (14) 
Heuristics

$$$$

     RDKit          3D

 20 18  0  0  0  0  0  0  0  0999 V2000
   -0.0600   -1.7603    2.6016 C   0  0  0  0  0  0  0  0  0  0  0  0
    0.2819   -1.3310    1.5388 C   0  0  0  0  0  0  0  0  0  0  0  0
    0.6983   -0.7673    0.2499 C   0  0  0  0  0  3  0  0  0  0  0  0
    1.3662    0.6068    0.4323 C   0  0  0  0  0  0  0  0  0  0  0  0
    1.5750   -1.6920   -0.4772 C   0  0  0  0  0  0  0  0  0  0  0  0
    2.3043   -2.4203   -1.0842 C   0  0  0  0  0  0  0  0  0  0  0  0
   -0.3640   -2.1420    3.5465 H   0  0  0  0  0  0  0  0  0  0  0  0
    0.6819    1.2867    0.9389 H   0  0  0  0  0  0  0  0  0  0  0  0
    2.2712    0.5091    1.0304 H   0  0  0  0  0  0  0  0  0  0  0  0
    1.6304    1.0220   -0.5397 H   0  0  0  0  0  0  0  0  0  0  0  0
    2.9527   -3.0678   -1.6240 H   0  0  0  0  0  0  0  0  0  0  0  0
   -1.3304    0.5946   -2.2193 C   0  0  0  0  0  0  0  0  0  0  0  0
   -1.3304    0.5946   -0.7007 C   0  0  0  0  0  0  0  0  0  0  0  0
   -1.3304    2.2520    0.0443 S   0  0  0  0  0  0  0  0  0  0  0  0
   -0.4238    1.0601   -2.6101 H   0  0  0  0  0  0  0  0  0  0  0  0
   -2.1864    1.1458   -2.6094 H   0  0  0  0  0  0  0  0  0  0  0  0
   -1.3735   -0.4287   -2.5996 H   0  0  0  0  0  0  0  0  0  0  0  0
   -0.3185   -0.0847   -0.2265 H   0  0  0  0  0  0  0  0  0  0  0  0
   -2.2380    0.1276   -0.3155 H   0  0  0  0  0  0  0  0  0  0  0  0
   -0.1556    2.6537   -0.4592 H   0  0  0  0  0  0  0  0  0  0  0  0
  1  2  3  0
  1  7  1  0
  2  3  1  0
  3  4  1  0
  3  5  1  0
  4  8  1  0
  4  9  1  0
  4 10  1  0
  5  6  3  0
  6 11  1  0
 12 13  1  0
 12 15  1  0
 12 16  1  0
 12 17  1  0
 13 14  1  0
 13 18  1  0
 13 19  1  0
 14 20  1  0
M  RAD  1   3   2
M  END
>  <reaction>  (15) 
rxn_1877

>  <mol_properties>  (15) 
{"1": {"label": "*0", "atom_type": "Ct"}, "2": {"label": "*1", "atom_type": "Cs"}, "12": {"label": "*3", "atom_type": "Cs"}, "13": {"label": "*4", "atom_type": "S2s"}, "17": {"label": "*2", "atom_type": "H0"}}

>  <type>  (15) 
unop_11

>  <geom_source>  (15) 
Heuristics

$$$$

     RDKit          3D

 20 18  0  0  0  0  0  0  0  0999 V2000
    1.9145   -1.9227   -1.6736 C   0  0  0  0  0  0  0  0  0  0  0  0
    1.3124   -1.4791   -0.7401 C   0  0  0  0  0  0  0  0  0  0  0  0
    0.5521   -0.9687    0.4061 C   0  0  0  0  0  3  0  0  0  0  0  0
   -0.0027   -2.1194    1.2638 C   0  0  0  0  0  0  0  0  0  0  0  0
    1.3595   -0.0464    1.2123 C   0  0  0  0  0  0  0  0  0  0  0  0
    2.0005    0.6968    1.8960 C   0  0  0  0  0  0  0  0  0  0  0  0
    2.4498   -2.3171   -2.5036 H   0  0  0  0  0  0  0  0  0  0  0  0
   -0.6299   -2.7676    0.6527 H   0  0  0  0  0  0  0  0  0  0  0  0
    0.8146   -2.7090    1.6769 H   0  0  0  0  0  0  0  0  0  0  0  0
   -0.5953   -1.7168    2.0847 H   0  0  0  0  0  0  0  0  0  0  0  0
    2.5705    1.3575    2.5039 H   0  0  0  0  0  0  0  0  0  0  0  0
   -1.4766    0.3933   -2.0631 C   0  0  0  0  0  0  0  0  0  0  0  0
   -1.4766    0.3933   -0.5444 C   0  0  0  0  0  0  0  0  0  0  0  0
   -1.4766    2.0506    0.2005 S   0  0  0  0  0  0  0  0  0  0  0  0
   -0.5700    0.8587   -2.4539 H   0  0  0  0  0  0  0  0  0  0  0  0
   -2.3326    0.9445   -2.4532 H   0  0  0  0  0  0  0  0  0  0  0  0
   -1.5197   -0.6301   -2.4434 H   0  0  0  0  0  0  0  0  0  0  0  0
   -0.4647   -0.2861   -0.0703 H   0  0  0  0  0  0  0  0  0  0  0  0
   -2.3842   -0.0738   -0.1593 H   0  0  0  0  0  0  0  0  0  0  0  0
   -0.3018    2.4523   -0.3030 H   0  0  0  0  0  0  0  0  0  0  0  0
  1  2  3  0
  1  7  1  0
  2  3  1  0
  3  4  1  0
  3  5  1  0
  4  8  1  0
  4  9  1  0
  4 10  1  0
  5  6  3  0
  6 11  1  0
 12 13  1  0
 12 15  1  0
 12 16  1  0
 12 17  1  0
 13 14  1  0
 13 18  1  0
 13 19  1  0
 14 20  1  0
M  RAD  1   3   2
M  END
>  <reaction>  (16) 
rxn_1877

>  <mol_properties>  (16) 
{"1": {"label": "*0", "atom_type": "Ct"}, "2": {"label": "*1", "atom_type": "Cs"}, "12": {"label": "*3", "atom_type": "Cs"}, "13": {"label": "*4", "atom_type": "S2s"}, "17": {"label": "*2", "atom_type": "H0"}}

>  <type>  (16) 
unop_12

>  <geom_source>  (16) 
Heuristics

$$$$

     RDKit          3D

 20 18  0  0  0  0  0  0  0  0999 V2000
   -1.9953    1.9279    0.0627 S   0  0  0  0  0  0  0  0  0  0  0  0
    1.0550    0.0500    0.0480 C   0  0  0  0  0  0  0  0  0  0  0  0
    0.9415   -0.5913   -1.3332 C   0  0  0  0  0  0  0  0  0  0  0  0
   -2.3835   -0.7750   -0.2960 C   0  0  0  0  0  0  0  0  0  0  0  0
   -1.5190    0.2183    0.4638 C   0  0  0  0  0  3  0  0  0  0  0  0
    1.7676   -0.8432    0.9697 C   0  0  0  0  0  0  0  0  0  0  0  0
    1.7695    1.3295   -0.0394 C   0  0  0  0  0  0  0  0  0  0  0  0
    2.3512   -1.5778    1.7272 C   0  0  0  0  0  0  0  0  0  0  0  0
    2.3547    2.3814   -0.1114 C   0  0  0  0  0  0  0  0  0  0  0  0
   -0.1577    0.2711    0.5216 H   0  0  0  0  0  0  0  0  0  0  0  0
    0.3834   -1.5494   -1.2621 H   0  0  0  0  0  0  0  0  0  0  0  0
    0.3849    0.0820   -2.0198 H   0  0  0  0  0  0  0  0  0  0  0  0
    1.9480   -0.7914   -1.7621 H   0  0  0  0  0  0  0  0  0  0  0  0
   -3.4493   -0.6598   -0.0059 H   0  0  0  0  0  0  0  0  0  0  0  0
   -2.0543   -1.8073   -0.0565 H   0  0  0  0  0  0  0  0  0  0  0  0
   -2.2770   -0.6108   -1.3888 H   0  0  0  0  0  0  0  0  0  0  0  0
   -1.6094    0.0492    1.5577 H   0  0  0  0  0  0  0  0  0  0  0  0
   -3.2422    1.8146    0.7073 H   0  0  0  0  0  0  0  0  0  0  0  0
    2.8635   -2.2224    2.3920 H   0  0  0  0  0  0  0  0  0  0  0  0
    2.8684    3.3045   -0.1747 H   0  0  0  0  0  0  0  0  0  0  0  0
  1  5  1  0
  1 18  1  0
  2  3  1  0
  2  6  1  0
  2  7  1  0
  2 10  1  0
  3 11  1  0
  3 12  1  0
  3 13  1  0
  4  5  1  0
  4 14  1  0
  4 15  1  0
  4 16  1  0
  5 17  1  0
  6  8  3  0
  7  9  3  0
  8 19  1  0
  9 20  1  0
M  RAD  1   5   2
M  END
>  <reaction>  (17) 
rxn_1877

>  <mol_properties>  (17) 
{"1": {"label": "*0", "atom_type": "Ct"}, "2": {"label": "*1", "atom_type": "Cs"}, "12": {"label": "*3", "atom_type": "Cs"}, "13": {"label": "*4", "atom_type": "S2s"}, "17": {"label": "*2", "atom_type": "H0"}}

>  <type>  (17) 
unop_13

>  <geom_source>  (17) 
AutoTST

$$$$
