
     RDKit          3D

 25 26  0  0  0  0  0  0  0  0999 V2000
    2.0298   -1.1515    0.0571 C   0  0  0  0  0  0  0  0  0  0  0  0
    2.2278    0.2445    0.6528 C   0  0  0  0  0  0  0  0  0  0  0  0
    1.2292    1.2625    0.0947 C   0  0  0  0  0  0  0  0  0  0  0  0
   -0.1869    0.7454    0.2762 C   0  0  0  0  0  0  0  0  0  0  0  0
   -1.3415    1.5501   -0.3122 C   0  0  0  0  0  0  0  0  0  0  0  0
   -2.5060    0.5338   -0.4178 C   0  0  0  0  0  0  0  0  0  0  0  0
   -1.8709   -0.8658   -0.2234 C   0  0  0  0  0  0  0  0  0  0  0  0
   -0.3715   -0.6265   -0.3693 C   0  0  0  0  0  0  0  0  0  0  0  0
    0.5898   -1.6500    0.2086 C   0  0  0  0  0  0  0  0  0  0  0  0
    2.2820   -1.1226   -1.0088 H   0  0  0  0  0  0  0  0  0  0  0  0
    2.7243   -1.8549    0.5221 H   0  0  0  0  0  0  0  0  0  0  0  0
    2.1030    0.1885    1.7400 H   0  0  0  0  0  0  0  0  0  0  0  0
    3.2514    0.5819    0.4743 H   0  0  0  0  0  0  0  0  0  0  0  0
    1.3611    2.2304    0.5855 H   0  0  0  0  0  0  0  0  0  0  0  0
    1.4198    1.4194   -0.9737 H   0  0  0  0  0  0  0  0  0  0  0  0
   -0.3675    0.6209    1.3539 H   0  0  0  0  0  0  0  0  0  0  0  0
   -1.5992    2.4249    0.2862 H   0  0  0  0  0  0  0  0  0  0  0  0
   -1.0595    1.9116   -1.3055 H   0  0  0  0  0  0  0  0  0  0  0  0
   -3.2666    0.7244    0.3399 H   0  0  0  0  0  0  0  0  0  0  0  0
   -3.0030    0.6112   -1.3853 H   0  0  0  0  0  0  0  0  0  0  0  0
   -2.2549   -1.6039   -0.9288 H   0  0  0  0  0  0  0  0  0  0  0  0
   -2.0796   -1.2429    0.7821 H   0  0  0  0  0  0  0  0  0  0  0  0
   -0.1432   -0.5121   -1.4391 H   0  0  0  0  0  0  0  0  0  0  0  0
    0.4720   -2.6209   -0.2799 H   0  0  0  0  0  0  0  0  0  0  0  0
    0.3601   -1.7986    1.2704 H   0  0  0  0  0  0  0  0  0  0  0  0
  1  2  1  0
  1  9  1  0
  1 10  1  0
  1 11  1  0
  2  3  1  0
  2 12  1  0
  2 13  1  0
  3  4  1  0
  3 14  1  0
  3 15  1  0
  4  5  1  0
  4  8  1  0
  4 16  1  0
  5  6  1  0
  5 17  1  0
  5 18  1  0
  6  7  1  0
  6 19  1  0
  6 20  1  0
  7  8  1  0
  7 21  1  0
  7 22  1  0
  8  9  1  0
  8 23  1  0
  9 24  1  0
  9 25  1  0
M  END
>  <reaction>  (1) 
rxn_735

>  <mol_properties>  (1) 
{"8": {"label": "donator", "atom_type": "Cs"}, "24": {"label": "d_hydrogen", "atom_type": "H0"}}

>  <type>  (1) 
r1h

$$$$

     RDKit          3D

  1  0  0  0  0  0  0  0  0  0999 V2000
    0.0000    0.0000    0.0000 H   0  0  0  0  0 15  0  0  0  0  0  0
M  END
>  <reaction>  (2) 
rxn_735

>  <mol_properties>  (2) 
{"0": {"label": "acceptor", "atom_type": "H0"}}

>  <type>  (2) 
r2

$$$$

     RDKit          3D

  2  1  0  0  0  0  0  0  0  0999 V2000
    0.0000    0.0000    0.3721 H   0  0  0  0  0  0  0  0  0  0  0  0
    0.0000    0.0000   -0.3721 H   0  0  0  0  0  0  0  0  0  0  0  0
  1  2  1  0
M  END
>  <reaction>  (3) 
rxn_735

>  <mol_properties>  (3) 
{"0": {"label": "acceptor", "atom_type": "H0"}, "1": {"label": "a_hydrogen", "atom_type": "H0"}}

>  <type>  (3) 
r2h

$$$$

     RDKit          3D

 26 26  0  0  0  0  0  0  0  0999 V2000
    0.0906   -0.9112   -0.8863 C   0  0  0  0  0  0  0  0  0  0  0  0
   -0.4349    0.5567   -0.9396 C   0  0  0  0  0  0  0  0  0  0  0  0
    1.5108   -0.9990   -0.3181 C   0  0  0  0  0  0  0  0  0  0  0  0
   -0.9473   -1.6915   -0.0500 C   0  0  0  0  0  0  0  0  0  0  0  0
    0.6573    1.5976   -0.6981 C   0  0  0  0  0  0  0  0  0  0  0  0
    1.6805   -0.1121    0.9119 C   0  0  0  0  0  0  0  0  0  0  0  0
    1.4579    1.3774    0.5914 C   0  0  0  0  0  0  0  0  0  0  0  0
   -2.2002   -0.8139   -0.0132 C   0  0  0  0  0  0  0  0  0  0  0  0
   -1.6300    0.5833   -0.0072 C   0  0  0  0  0  0  0  0  0  0  0  0
    0.1031   -1.3157   -1.9005 H   0  0  0  0  0  0  0  0  0  0  0  0
   -0.8352    0.7417   -1.9439 H   0  0  0  0  0  0  0  0  0  0  0  0
   -0.5785   -1.8260    0.9702 H   0  0  0  0  0  0  0  0  0  0  0  0
   -1.1363   -2.6864   -0.4540 H   0  0  0  0  0  0  0  0  0  0  0  0
    1.7374   -2.0392   -0.0696 H   0  0  0  0  0  0  0  0  0  0  0  0
    2.2340   -0.7018   -1.0839 H   0  0  0  0  0  0  0  0  0  0  0  0
    0.9651   -0.4264    1.6766 H   0  0  0  0  0  0  0  0  0  0  0  0
    2.6700   -0.2600    1.3476 H   0  0  0  0  0  0  0  0  0  0  0  0
    2.4185    1.8871    0.4898 H   0  0  0  0  0  0  0  0  0  0  0  0
    0.9484    1.8520    1.4318 H   0  0  0  0  0  0  0  0  0  0  0  0
    1.3385    1.5628   -1.5531 H   0  0  0  0  0  0  0  0  0  0  0  0
    0.2223    2.6000   -0.7011 H   0  0  0  0  0  0  0  0  0  0  0  0
   -2.8443   -1.0190    0.8434 H   0  0  0  0  0  0  0  0  0  0  0  0
   -2.8029   -0.9605   -0.9171 H   0  0  0  0  0  0  0  0  0  0  0  0
   -2.3250    1.4123   -0.1340 H   0  0  0  0  0  0  0  0  0  0  0  0
   -1.0578    0.8298    2.1779 H   0  0  0  0  0 15  0  0  0  0  0  0
   -1.2420    0.7621    1.2292 H   0  0  0  0  0  0  0  0  0  0  0  0
  1  3  1  0
  1  4  1  0
  1  2  1  0
  1 10  1  0
  2  5  1  0
  2  9  1  0
  2 11  1  0
  3  6  1  0
  3 14  1  0
  3 15  1  0
  4  8  1  0
  4 12  1  0
  4 13  1  0
  5  7  1  0
  5 20  1  0
  5 21  1  0
  6  7  1  0
  6 16  1  0
  6 17  1  0
  7 18  1  0
  7 19  1  0
  8  9  1  0
  8 22  1  0
  8 23  1  0
  9 24  1  0
  9 26  1  0
M  END
>  <reaction>  (4) 
rxn_735

>  <mol_properties>  (4) 
{"1": {"label": "*4", "atom_type": "Cs"}, "8": {"label": "*3", "atom_type": "Cs"}, "24": {"label": "*1", "atom_type": "H0"}, "25": {"label": "*2", "atom_type": "H0"}}

>  <type>  (4) 
ts

$$$$

     RDKit          3D

 26 26  0  0  0  0  0  0  0  0999 V2000
    0.0726    0.6631   -0.3913 C   0  0  0  0  0  0  0  0  0  0  0  0
    0.2401   -0.4276    0.6471 C   0  0  0  0  0  0  0  0  0  0  0  0
   -1.3969    1.1216   -0.4590 C   0  0  0  0  0  0  0  0  0  0  0  0
    1.0959    1.7126    0.0128 C   0  0  0  0  0  0  0  0  0  0  0  0
   -0.4440   -1.7239    0.1796 C   0  0  0  0  0  0  0  0  0  0  0  0
   -2.3780   -0.0635   -0.2499 C   0  0  0  0  0  0  0  0  0  0  0  0
   -1.7549   -1.4347   -0.6006 C   0  0  0  0  0  0  0  0  0  0  0  0
    2.2619    0.9041    0.5980 C   0  0  0  0  0  0  0  0  0  0  0  0
    1.7416   -0.5164    0.8410 C   0  0  0  0  0  0  0  0  0  0  0  0
    0.3670    0.2664   -1.3926 H   0  0  0  0  0  0  0  0  0  0  0  0
   -0.2196   -0.0989    1.6097 H   0  0  0  0  0  0  0  0  0  0  0  0
   -1.5801    1.5862   -1.4522 H   0  0  0  0  0  0  0  0  0  0  0  0
   -1.6011    1.8933    0.3149 H   0  0  0  0  0  0  0  0  0  0  0  0
   -2.6983   -0.0872    0.8150 H   0  0  0  0  0  0  0  0  0  0  0  0
   -3.2895    0.0968   -0.8652 H   0  0  0  0  0  0  0  0  0  0  0  0
    1.4184    2.3179   -0.8620 H   0  0  0  0  0  0  0  0  0  0  0  0
    0.6803    2.3859    0.7950 H   0  0  0  0  0  0  0  0  0  0  0  0
   -1.5408   -1.4530   -1.6918 H   0  0  0  0  0  0  0  0  0  0  0  0
   -2.4933   -2.2397   -0.3958 H   0  0  0  0  0  0  0  0  0  0  0  0
   -0.6707   -2.3492    1.0703 H   0  0  0  0  0  0  0  0  0  0  0  0
    0.2421   -2.3059   -0.4744 H   0  0  0  0  0  0  0  0  0  0  0  0
    2.6145    1.3628    1.5476 H   0  0  0  0  0  0  0  0  0  0  0  0
    3.1051    0.8610   -0.1237 H   0  0  0  0  0  0  0  0  0  0  0  0
    1.9996   -0.8841    1.8578 H   0  0  0  0  0  0  0  0  0  0  0  0
    2.2897   -0.7204   -1.2807 H   0  0  0  0  0 15  0  0  0  0  0  0
    1.9381   -0.8673   -0.0497 H   0  0  0  0  0  0  0  0  0  0  0  0
  1  3  1  0
  1  4  1  0
  1  2  1  0
  1 10  1  0
  2  5  1  0
  2  9  1  0
  2 11  1  0
  3  6  1  0
  3 12  1  0
  3 13  1  0
  4  8  1  0
  4 16  1  0
  4 17  1  0
  5  7  1  0
  5 20  1  0
  5 21  1  0
  6  7  1  0
  6 14  1  0
  6 15  1  0
  7 18  1  0
  7 19  1  0
  8  9  1  0
  8 22  1  0
  8 23  1  0
  9 24  1  0
  9 26  1  0
M  END
>  <reaction>  (5) 
rxn_735

>  <mol_properties>  (5) 
{"1": {"label": "*4", "atom_type": "Cs"}, "8": {"label": "*3", "atom_type": "Cs"}, "24": {"label": "*1", "atom_type": "H0"}, "25": {"label": "*2", "atom_type": "H0"}}

>  <type>  (5) 
unop_1

>  <geom_source>  (5) 
AutoTST

$$$$

     RDKit          3D

 26 26  0  0  0  0  0  0  0  0999 V2000
    0.0726    0.6631   -0.3913 C   0  0  0  0  0  0  0  0  0  0  0  0
    0.2401   -0.4276    0.6471 C   0  0  0  0  0  0  0  0  0  0  0  0
   -1.3969    1.1216   -0.4590 C   0  0  0  0  0  0  0  0  0  0  0  0
    1.0959    1.7126    0.0128 C   0  0  0  0  0  0  0  0  0  0  0  0
   -0.4440   -1.7239    0.1796 C   0  0  0  0  0  0  0  0  0  0  0  0
   -2.3780   -0.0635   -0.2499 C   0  0  0  0  0  0  0  0  0  0  0  0
   -1.7549   -1.4347   -0.6006 C   0  0  0  0  0  0  0  0  0  0  0  0
    2.2619    0.9041    0.5980 C   0  0  0  0  0  0  0  0  0  0  0  0
    1.7416   -0.5164    0.8410 C   0  0  0  0  0  0  0  0  0  0  0  0
    0.3670    0.2664   -1.3926 H   0  0  0  0  0  0  0  0  0  0  0  0
   -0.2196   -0.0989    1.6097 H   0  0  0  0  0  0  0  0  0  0  0  0
   -1.5801    1.5862   -1.4522 H   0  0  0  0  0  0  0  0  0  0  0  0
   -1.6011    1.8933    0.3149 H   0  0  0  0  0  0  0  0  0  0  0  0
   -2.6983   -0.0872    0.8150 H   0  0  0  0  0  0  0  0  0  0  0  0
   -3.2895    0.0968   -0.8652 H   0  0  0  0  0  0  0  0  0  0  0  0
    1.4184    2.3179   -0.8620 H   0  0  0  0  0  0  0  0  0  0  0  0
    0.6803    2.3859    0.7950 H   0  0  0  0  0  0  0  0  0  0  0  0
   -1.5408   -1.4530   -1.6918 H   0  0  0  0  0  0  0  0  0  0  0  0
   -2.4933   -2.2397   -0.3958 H   0  0  0  0  0  0  0  0  0  0  0  0
   -0.6707   -2.3492    1.0703 H   0  0  0  0  0  0  0  0  0  0  0  0
    0.2421   -2.3059   -0.4744 H   0  0  0  0  0  0  0  0  0  0  0  0
    2.6145    1.3628    1.5476 H   0  0  0  0  0  0  0  0  0  0  0  0
    3.1051    0.8610   -0.1237 H   0  0  0  0  0  0  0  0  0  0  0  0
    1.9996   -0.8841    1.8578 H   0  0  0  0  0  0  0  0  0  0  0  0
    2.2897   -0.7204   -1.2807 H   0  0  0  0  0 15  0  0  0  0  0  0
    1.9381   -0.8673   -0.0497 H   0  0  0  0  0  0  0  0  0  0  0  0
  1  3  1  0
  1  4  1  0
  1  2  1  0
  1 10  1  0
  2  5  1  0
  2  9  1  0
  2 11  1  0
  3  6  1  0
  3 12  1  0
  3 13  1  0
  4  8  1  0
  4 16  1  0
  4 17  1  0
  5  7  1  0
  5 20  1  0
  5 21  1  0
  6  7  1  0
  6 14  1  0
  6 15  1  0
  7 18  1  0
  7 19  1  0
  8  9  1  0
  8 22  1  0
  8 23  1  0
  9 24  1  0
  9 26  1  0
M  END
>  <reaction>  (6) 
rxn_735

>  <mol_properties>  (6) 
{"1": {"label": "*4", "atom_type": "Cs"}, "8": {"label": "*3", "atom_type": "Cs"}, "24": {"label": "*1", "atom_type": "H0"}, "25": {"label": "*2", "atom_type": "H0"}}

>  <type>  (6) 
unop_2

>  <geom_source>  (6) 
gaussian_log

$$$$
