
     RDKit          3D

 10  9  0  0  0  0  0  0  0  0999 V2000
    2.2738    0.0217   -0.0992 C   0  0  0  0  0  0  0  0  0  0  0  0
    1.1083    0.2960   -0.0695 C   0  0  0  0  0  0  0  0  0  0  0  0
   -0.3173    0.6046   -0.0227 C   0  0  0  0  0  0  0  0  0  0  0  0
   -1.1561   -0.5495    0.5292 C   0  0  0  0  0  0  0  0  0  0  0  0
    3.3097   -0.2166   -0.1277 H   0  0  0  0  0  0  0  0  0  0  0  0
   -0.6542    0.8617   -1.0302 H   0  0  0  0  0  0  0  0  0  0  0  0
   -0.4633    1.4978    0.5900 H   0  0  0  0  0  0  0  0  0  0  0  0
   -0.8485   -0.7997    1.5447 H   0  0  0  0  0  0  0  0  0  0  0  0
   -2.2115   -0.2752    0.5459 H   0  0  0  0  0  0  0  0  0  0  0  0
   -1.0409   -1.4407   -0.0879 H   0  0  0  0  0  0  0  0  0  0  0  0
  1  2  3  0
  1  5  1  0
  2  3  1  0
  3  4  1  0
  3  6  1  0
  3  7  1  0
  4  8  1  0
  4  9  1  0
  4 10  1  0
M  END
>  <reaction>  (1) 
rxn_1259

>  <mol_properties>  (1) 
{"2": {"label": "donator", "atom_type": "Cs"}, "5": {"label": "d_hydrogen", "atom_type": "H0"}}

>  <type>  (1) 
r1h

$$$$

     RDKit          3D

  7  6  0  0  0  0  0  0  0  0999 V2000
   -0.6201    0.0189   -0.0017 C   0  0  0  0  0  0  0  0  0  0  0  0
    0.8589   -0.0553    0.0500 C   0  0  0  0  0  3  0  0  0  0  0  0
   -1.0738   -0.9730   -0.0559 H   0  0  0  0  0  0  0  0  0  0  0  0
   -0.9680    0.5706   -0.8872 H   0  0  0  0  0  0  0  0  0  0  0  0
   -1.0303    0.5369    0.8678 H   0  0  0  0  0  0  0  0  0  0  0  0
    1.3939   -0.8386   -0.4695 H   0  0  0  0  0  0  0  0  0  0  0  0
    1.4394    0.7404    0.4965 H   0  0  0  0  0  0  0  0  0  0  0  0
  1  2  1  0
  1  3  1  0
  1  4  1  0
  1  5  1  0
  2  6  1  0
  2  7  1  0
M  RAD  1   2   2
M  END
>  <reaction>  (2) 
rxn_1259

>  <mol_properties>  (2) 
{"1": {"label": "acceptor", "atom_type": "Cs"}}

>  <type>  (2) 
r2

$$$$

     RDKit          3D

  8  7  0  0  0  0  0  0  0  0999 V2000
    0.7610    0.0250    0.0051 C   0  0  0  0  0  0  0  0  0  0  0  0
   -0.7610   -0.0250   -0.0051 C   0  0  0  0  0  0  0  0  0  0  0  0
    1.1904   -0.9237   -0.3217 H   0  0  0  0  0  0  0  0  0  0  0  0
    1.1359    0.8041   -0.6609 H   0  0  0  0  0  0  0  0  0  0  0  0
    1.1435    0.2336    1.0058 H   0  0  0  0  0  0  0  0  0  0  0  0
   -1.1435   -0.2336   -1.0058 H   0  0  0  0  0  0  0  0  0  0  0  0
   -1.1904    0.9237    0.3216 H   0  0  0  0  0  0  0  0  0  0  0  0
   -1.1359   -0.8041    0.6609 H   0  0  0  0  0  0  0  0  0  0  0  0
  1  2  1  0
  1  3  1  0
  1  4  1  0
  1  5  1  0
  2  6  1  0
  2  7  1  0
  2  8  1  0
M  END
>  <reaction>  (3) 
rxn_1259

>  <mol_properties>  (3) 
{"0": {"label": "a_hydrogen", "atom_type": "H0"}, "2": {"label": "acceptor", "atom_type": "Cs"}}

>  <type>  (3) 
r2h

$$$$

     RDKit          3D

 17 15  0  0  0  0  0  0  0  0999 V2000
   -1.1951   -0.1960   -2.1324 C   0  0  0  0  0  0  0  0  0  0  0  0
   -1.1303    0.0536   -0.9582 C   0  0  0  0  0  0  0  0  0  0  0  0
   -0.9909    0.3240    0.4408 C   0  0  0  0  0  0  0  0  0  0  0  0
   -0.4789    1.7037    0.8053 C   0  0  0  0  0  0  0  0  0  0  0  0
   -1.2706   -0.4085   -3.1714 H   0  0  0  0  0  0  0  0  0  0  0  0
   -0.0946   -0.4991    0.8737 H   0  0  0  0  0  0  0  0  0  0  0  0
   -1.8744    0.0282    1.0068 H   0  0  0  0  0  0  0  0  0  0  0  0
   -1.1979    2.4793    0.5323 H   0  0  0  0  0  0  0  0  0  0  0  0
   -0.2983    1.7690    1.8793 H   0  0  0  0  0  0  0  0  0  0  0  0
    0.4558    1.9171    0.2852 H   0  0  0  0  0  0  0  0  0  0  0  0
    2.0799   -0.9621    0.2898 C   0  0  0  0  0  0  0  0  0  0  0  0
    0.9890   -1.3083    1.2600 C   0  0  0  0  0  3  0  0  0  0  0  0
    2.9570   -1.6037    0.4263 H   0  0  0  0  0  0  0  0  0  0  0  0
    2.4096    0.0710    0.4140 H   0  0  0  0  0  0  0  0  0  0  0  0
    1.7397   -1.0849   -0.7404 H   0  0  0  0  0  0  0  0  0  0  0  0
    1.1598   -1.0274    2.2968 H   0  0  0  0  0  0  0  0  0  0  0  0
    0.5625   -2.3035    1.1580 H   0  0  0  0  0  0  0  0  0  0  0  0
  1  2  3  0
  1  5  1  0
  2  3  1  0
  3  4  1  0
  3  6  1  0
  3  7  1  0
  4  8  1  0
  4  9  1  0
  4 10  1  0
 11 12  1  0
 11 13  1  0
 11 14  1  0
 11 15  1  0
 12 16  1  0
 12 17  1  0
M  RAD  1  12   2
M  END
>  <reaction>  (4) 
rxn_1259

>  <mol_properties>  (4) 
{"1": {"label": "*0", "atom_type": "Ct"}, "2": {"label": "*1", "atom_type": "Cs"}, "5": {"label": "*2", "atom_type": "H0"}, "10": {"label": "*4", "atom_type": "Cs"}, "11": {"label": "*3", "atom_type": "Cs"}}

>  <type>  (4) 
ts

$$$$

     RDKit          3D

 17 15  0  0  0  0  0  0  0  0999 V2000
   -0.9045    0.0258   -2.5985 C   0  0  0  0  0  0  0  0  0  0  0  0
   -0.9045    0.0258   -1.4008 C   0  0  0  0  0  0  0  0  0  0  0  0
   -0.9045    0.0540    0.0583 C   0  0  0  0  0  3  0  0  0  0  0  0
   -0.9045    1.4754    0.6239 C   0  0  0  0  0  0  0  0  0  0  0  0
   -0.9045    0.0258   -3.6618 H   0  0  0  0  0  0  0  0  0  0  0  0
    0.1461   -0.6001    0.4924 H   0  0  0  0  0  0  0  0  0  0  0  0
   -1.7800   -0.4911    0.4200 H   0  0  0  0  0  0  0  0  0  0  0  0
   -1.7867    2.0232    0.2925 H   0  0  0  0  0  0  0  0  0  0  0  0
   -0.9045    1.4481    1.7142 H   0  0  0  0  0  0  0  0  0  0  0  0
   -0.0222    2.0232    0.2925 H   0  0  0  0  0  0  0  0  0  0  0  0
    2.1003   -0.3548    1.7580 C   0  0  0  0  0  0  0  0  0  0  0  0
    1.1953   -1.2533    0.9258 C   0  0  0  0  0  0  0  0  0  0  0  0
    2.4996   -0.8873    2.6230 H   0  0  0  0  0  0  0  0  0  0  0  0
    1.5596    0.5180    2.1281 H   0  0  0  0  0  0  0  0  0  0  0  0
    2.9476    0.0055    1.1719 H   0  0  0  0  0  0  0  0  0  0  0  0
    0.3480   -1.6137    1.5120 H   0  0  0  0  0  0  0  0  0  0  0  0
    1.7360   -2.1262    0.5558 H   0  0  0  0  0  0  0  0  0  0  0  0
  1  2  3  0
  1  5  1  0
  2  3  1  0
  3  4  1  0
  3  7  1  0
  4  8  1  0
  4  9  1  0
  4 10  1  0
  6 12  1  0
 11 12  1  0
 11 13  1  0
 11 14  1  0
 11 15  1  0
 12 16  1  0
 12 17  1  0
M  RAD  1   3   2
M  END
>  <reaction>  (5) 
rxn_1259

>  <mol_properties>  (5) 
{"1": {"label": "*0", "atom_type": "Ct"}, "2": {"label": "*1", "atom_type": "Cs"}, "5": {"label": "*2", "atom_type": "H0"}, "10": {"label": "*4", "atom_type": "Cs"}, "11": {"label": "*3", "atom_type": "Cs"}}

>  <type>  (5) 
unop_1

>  <geom_source>  (5) 
Heuristics

$$$$

     RDKit          3D

 17 15  0  0  0  0  0  0  0  0999 V2000
   -0.9563    0.1683   -2.2646 C   0  0  0  0  0  0  0  0  0  0  0  0
   -0.9563    0.1683   -1.0669 C   0  0  0  0  0  0  0  0  0  0  0  0
   -0.9563    0.1965    0.3922 C   0  0  0  0  0  3  0  0  0  0  0  0
   -0.9563    1.6179    0.9578 C   0  0  0  0  0  0  0  0  0  0  0  0
   -0.9563    0.1683   -3.3279 H   0  0  0  0  0  0  0  0  0  0  0  0
    0.0943   -0.4576    0.8263 H   0  0  0  0  0  0  0  0  0  0  0  0
   -1.8318   -0.3485    0.7539 H   0  0  0  0  0  0  0  0  0  0  0  0
   -1.8385    2.1658    0.6264 H   0  0  0  0  0  0  0  0  0  0  0  0
   -0.9563    1.5906    2.0481 H   0  0  0  0  0  0  0  0  0  0  0  0
   -0.0741    2.1658    0.6264 H   0  0  0  0  0  0  0  0  0  0  0  0
    2.2983   -1.0192    0.2714 C   0  0  0  0  0  0  0  0  0  0  0  0
    1.1434   -1.1108    1.2598 C   0  0  0  0  0  0  0  0  0  0  0  0
    3.2470   -1.2749    0.7464 H   0  0  0  0  0  0  0  0  0  0  0  0
    2.3932   -0.0103   -0.1341 H   0  0  0  0  0  0  0  0  0  0  0  0
    2.1552   -1.7009   -0.5689 H   0  0  0  0  0  0  0  0  0  0  0  0
    1.2865   -0.4291    2.1000 H   0  0  0  0  0  0  0  0  0  0  0  0
    1.0485   -2.1197    1.6652 H   0  0  0  0  0  0  0  0  0  0  0  0
  1  2  3  0
  1  5  1  0
  2  3  1  0
  3  4  1  0
  3  7  1  0
  4  8  1  0
  4  9  1  0
  4 10  1  0
  6 12  1  0
 11 12  1  0
 11 13  1  0
 11 14  1  0
 11 15  1  0
 12 16  1  0
 12 17  1  0
M  RAD  1   3   2
M  END
>  <reaction>  (6) 
rxn_1259

>  <mol_properties>  (6) 
{"1": {"label": "*0", "atom_type": "Ct"}, "2": {"label": "*1", "atom_type": "Cs"}, "5": {"label": "*2", "atom_type": "H0"}, "10": {"label": "*4", "atom_type": "Cs"}, "11": {"label": "*3", "atom_type": "Cs"}}

>  <type>  (6) 
unop_2

>  <geom_source>  (6) 
Heuristics

$$$$

     RDKit          3D

 17 15  0  0  0  0  0  0  0  0999 V2000
   -0.8300    0.0903   -2.6854 C   0  0  0  0  0  0  0  0  0  0  0  0
   -0.8300    0.0903   -1.4877 C   0  0  0  0  0  0  0  0  0  0  0  0
   -0.8300    0.1185   -0.0286 C   0  0  0  0  0  3  0  0  0  0  0  0
   -0.8299    1.5399    0.5370 C   0  0  0  0  0  0  0  0  0  0  0  0
   -0.8300    0.0903   -3.7488 H   0  0  0  0  0  0  0  0  0  0  0  0
    0.2206   -0.5356    0.4055 H   0  0  0  0  0  0  0  0  0  0  0  0
   -1.7055   -0.4266    0.3331 H   0  0  0  0  0  0  0  0  0  0  0  0
   -1.7122    2.0878    0.2056 H   0  0  0  0  0  0  0  0  0  0  0  0
   -0.8299    1.5126    1.6273 H   0  0  0  0  0  0  0  0  0  0  0  0
    0.0523    2.0877    0.2056 H   0  0  0  0  0  0  0  0  0  0  0  0
    1.7567   -0.6311    2.1697 C   0  0  0  0  0  0  0  0  0  0  0  0
    1.2698   -1.1888    0.8389 C   0  0  0  0  0  0  0  0  0  0  0  0
    2.2443   -1.4030    2.7677 H   0  0  0  0  0  0  0  0  0  0  0  0
    0.9289   -0.2312    2.7579 H   0  0  0  0  0  0  0  0  0  0  0  0
    2.4765    0.1757    2.0211 H   0  0  0  0  0  0  0  0  0  0  0  0
    0.5500   -1.9957    0.9874 H   0  0  0  0  0  0  0  0  0  0  0  0
    2.0976   -1.5887    0.2507 H   0  0  0  0  0  0  0  0  0  0  0  0
  1  2  3  0
  1  5  1  0
  2  3  1  0
  3  4  1  0
  3  7  1  0
  4  8  1  0
  4  9  1  0
  4 10  1  0
  6 12  1  0
 11 12  1  0
 11 13  1  0
 11 14  1  0
 11 15  1  0
 12 16  1  0
 12 17  1  0
M  RAD  1   3   2
M  END
>  <reaction>  (7) 
rxn_1259

>  <mol_properties>  (7) 
{"1": {"label": "*0", "atom_type": "Ct"}, "2": {"label": "*1", "atom_type": "Cs"}, "5": {"label": "*2", "atom_type": "H0"}, "10": {"label": "*4", "atom_type": "Cs"}, "11": {"label": "*3", "atom_type": "Cs"}}

>  <type>  (7) 
unop_3

>  <geom_source>  (7) 
Heuristics

$$$$

     RDKit          3D

 17 15  0  0  0  0  0  0  0  0999 V2000
   -0.7381    0.4518   -2.3621 C   0  0  0  0  0  0  0  0  0  0  0  0
   -0.7381    0.4518   -1.1644 C   0  0  0  0  0  0  0  0  0  0  0  0
   -0.7381    0.4800    0.2948 C   0  0  0  0  0  3  0  0  0  0  0  0
   -0.7381    1.9014    0.8604 C   0  0  0  0  0  0  0  0  0  0  0  0
   -0.7381    0.4518   -3.4254 H   0  0  0  0  0  0  0  0  0  0  0  0
    0.3125   -0.1741    0.7288 H   0  0  0  0  0  0  0  0  0  0  0  0
   -1.6136   -0.0650    0.6565 H   0  0  0  0  0  0  0  0  0  0  0  0
   -1.6203    2.4493    0.5289 H   0  0  0  0  0  0  0  0  0  0  0  0
   -0.7381    1.8741    1.9507 H   0  0  0  0  0  0  0  0  0  0  0  0
    0.1441    2.4493    0.5289 H   0  0  0  0  0  0  0  0  0  0  0  0
    1.3415   -2.2767    0.6957 C   0  0  0  0  0  0  0  0  0  0  0  0
    1.3617   -0.8273    1.1623 C   0  0  0  0  0  0  0  0  0  0  0  0
    1.8161   -2.9343    1.4261 H   0  0  0  0  0  0  0  0  0  0  0  0
    1.8728   -2.3955   -0.2502 H   0  0  0  0  0  0  0  0  0  0  0  0
    0.3197   -2.6306    0.5475 H   0  0  0  0  0  0  0  0  0  0  0  0
    2.3834   -0.4734    1.3106 H   0  0  0  0  0  0  0  0  0  0  0  0
    0.8303   -0.7085    2.1083 H   0  0  0  0  0  0  0  0  0  0  0  0
  1  2  3  0
  1  5  1  0
  2  3  1  0
  3  4  1  0
  3  7  1  0
  4  8  1  0
  4  9  1  0
  4 10  1  0
  6 12  1  0
 11 12  1  0
 11 13  1  0
 11 14  1  0
 11 15  1  0
 12 16  1  0
 12 17  1  0
M  RAD  1   3   2
M  END
>  <reaction>  (8) 
rxn_1259

>  <mol_properties>  (8) 
{"1": {"label": "*0", "atom_type": "Ct"}, "2": {"label": "*1", "atom_type": "Cs"}, "5": {"label": "*2", "atom_type": "H0"}, "10": {"label": "*4", "atom_type": "Cs"}, "11": {"label": "*3", "atom_type": "Cs"}}

>  <type>  (8) 
unop_4

>  <geom_source>  (8) 
Heuristics

$$$$

     RDKit          3D

 17 15  0  0  0  0  0  0  0  0999 V2000
   -0.7569    0.1895   -2.7171 C   0  0  0  0  0  0  0  0  0  0  0  0
   -0.7569    0.1895   -1.5194 C   0  0  0  0  0  0  0  0  0  0  0  0
   -0.7569    0.2177   -0.0603 C   0  0  0  0  0  3  0  0  0  0  0  0
   -0.7569    1.6391    0.5054 C   0  0  0  0  0  0  0  0  0  0  0  0
   -0.7569    0.1895   -3.7804 H   0  0  0  0  0  0  0  0  0  0  0  0
    0.2937   -0.4364    0.3738 H   0  0  0  0  0  0  0  0  0  0  0  0
   -1.6324   -0.3273    0.3015 H   0  0  0  0  0  0  0  0  0  0  0  0
   -1.6391    2.1870    0.1739 H   0  0  0  0  0  0  0  0  0  0  0  0
   -0.7569    1.6118    1.5956 H   0  0  0  0  0  0  0  0  0  0  0  0
    0.1254    2.1870    0.1739 H   0  0  0  0  0  0  0  0  0  0  0  0
    1.3997   -1.0960    2.3290 C   0  0  0  0  0  0  0  0  0  0  0  0
    1.3429   -1.0896    0.8073 C   0  0  0  0  0  0  0  0  0  0  0  0
    2.2740   -1.6403    2.6902 H   0  0  0  0  0  0  0  0  0  0  0  0
    0.5149   -1.5712    2.7561 H   0  0  0  0  0  0  0  0  0  0  0  0
    1.4544   -0.0813    2.7273 H   0  0  0  0  0  0  0  0  0  0  0  0
    1.2881   -2.1042    0.4089 H   0  0  0  0  0  0  0  0  0  0  0  0
    2.2277   -0.6143    0.3801 H   0  0  0  0  0  0  0  0  0  0  0  0
  1  2  3  0
  1  5  1  0
  2  3  1  0
  3  4  1  0
  3  7  1  0
  4  8  1  0
  4  9  1  0
  4 10  1  0
  6 12  1  0
 11 12  1  0
 11 13  1  0
 11 14  1  0
 11 15  1  0
 12 16  1  0
 12 17  1  0
M  RAD  1   3   2
M  END
>  <reaction>  (9) 
rxn_1259

>  <mol_properties>  (9) 
{"1": {"label": "*0", "atom_type": "Ct"}, "2": {"label": "*1", "atom_type": "Cs"}, "5": {"label": "*2", "atom_type": "H0"}, "10": {"label": "*4", "atom_type": "Cs"}, "11": {"label": "*3", "atom_type": "Cs"}}

>  <type>  (9) 
unop_5

>  <geom_source>  (9) 
Heuristics

$$$$

     RDKit          3D

 17 15  0  0  0  0  0  0  0  0999 V2000
   -0.6850    0.4533   -2.4857 C   0  0  0  0  0  0  0  0  0  0  0  0
   -0.6850    0.4533   -1.2880 C   0  0  0  0  0  0  0  0  0  0  0  0
   -0.6850    0.4815    0.1711 C   0  0  0  0  0  3  0  0  0  0  0  0
   -0.6850    1.9029    0.7367 C   0  0  0  0  0  0  0  0  0  0  0  0
   -0.6850    0.4533   -3.5490 H   0  0  0  0  0  0  0  0  0  0  0  0
    0.3656   -0.1726    0.6052 H   0  0  0  0  0  0  0  0  0  0  0  0
   -1.5605   -0.0636    0.5328 H   0  0  0  0  0  0  0  0  0  0  0  0
   -1.5672    2.4507    0.4053 H   0  0  0  0  0  0  0  0  0  0  0  0
   -0.6850    1.8756    1.8270 H   0  0  0  0  0  0  0  0  0  0  0  0
    0.1972    2.4507    0.4053 H   0  0  0  0  0  0  0  0  0  0  0  0
    1.1003   -2.3015    1.2446 C   0  0  0  0  0  0  0  0  0  0  0  0
    1.4148   -0.8258    1.0386 C   0  0  0  0  0  0  0  0  0  0  0  0
    1.5830   -2.6872    2.1444 H   0  0  0  0  0  0  0  0  0  0  0  0
    1.4463   -2.9015    0.4011 H   0  0  0  0  0  0  0  0  0  0  0  0
    0.0265   -2.4666    1.3491 H   0  0  0  0  0  0  0  0  0  0  0  0
    2.4886   -0.6607    0.9342 H   0  0  0  0  0  0  0  0  0  0  0  0
    1.0688   -0.2259    1.8822 H   0  0  0  0  0  0  0  0  0  0  0  0
  1  2  3  0
  1  5  1  0
  2  3  1  0
  3  4  1  0
  3  7  1  0
  4  8  1  0
  4  9  1  0
  4 10  1  0
  6 12  1  0
 11 12  1  0
 11 13  1  0
 11 14  1  0
 11 15  1  0
 12 16  1  0
 12 17  1  0
M  RAD  1   3   2
M  END
>  <reaction>  (10) 
rxn_1259

>  <mol_properties>  (10) 
{"1": {"label": "*0", "atom_type": "Ct"}, "2": {"label": "*1", "atom_type": "Cs"}, "5": {"label": "*2", "atom_type": "H0"}, "10": {"label": "*4", "atom_type": "Cs"}, "11": {"label": "*3", "atom_type": "Cs"}}

>  <type>  (10) 
unop_6

>  <geom_source>  (10) 
Heuristics

$$$$

     RDKit          3D

 17 15  0  0  0  0  0  0  0  0999 V2000
   -0.6707    0.3965   -2.6057 C   0  0  0  0  0  0  0  0  0  0  0  0
   -0.6707    0.3965   -1.4080 C   0  0  0  0  0  0  0  0  0  0  0  0
   -0.6707    0.4247    0.0512 C   0  0  0  0  0  3  0  0  0  0  0  0
   -0.6707    1.8461    0.6168 C   0  0  0  0  0  0  0  0  0  0  0  0
   -0.6707    0.3965   -3.6690 H   0  0  0  0  0  0  0  0  0  0  0  0
    0.3799   -0.2294    0.4852 H   0  0  0  0  0  0  0  0  0  0  0  0
   -1.5462   -0.1204    0.4129 H   0  0  0  0  0  0  0  0  0  0  0  0
   -1.5529    2.3940    0.2853 H   0  0  0  0  0  0  0  0  0  0  0  0
   -0.6707    1.8188    1.7070 H   0  0  0  0  0  0  0  0  0  0  0  0
    0.2115    2.3939    0.2853 H   0  0  0  0  0  0  0  0  0  0  0  0
    1.0232   -2.0629    1.7910 C   0  0  0  0  0  0  0  0  0  0  0  0
    1.4290   -0.8826    0.9187 C   0  0  0  0  0  0  0  0  0  0  0  0
    1.6908   -2.1699    2.6478 H   0  0  0  0  0  0  0  0  0  0  0  0
    1.0532   -2.9986    1.2300 H   0  0  0  0  0  0  0  0  0  0  0  0
    0.0091   -1.9407    2.1756 H   0  0  0  0  0  0  0  0  0  0  0  0
    2.4431   -1.0048    0.5341 H   0  0  0  0  0  0  0  0  0  0  0  0
    1.3990    0.0531    1.4797 H   0  0  0  0  0  0  0  0  0  0  0  0
  1  2  3  0
  1  5  1  0
  2  3  1  0
  3  4  1  0
  3  7  1  0
  4  8  1  0
  4  9  1  0
  4 10  1  0
  6 12  1  0
 11 12  1  0
 11 13  1  0
 11 14  1  0
 11 15  1  0
 12 16  1  0
 12 17  1  0
M  RAD  1   3   2
M  END
>  <reaction>  (11) 
rxn_1259

>  <mol_properties>  (11) 
{"1": {"label": "*0", "atom_type": "Ct"}, "2": {"label": "*1", "atom_type": "Cs"}, "5": {"label": "*2", "atom_type": "H0"}, "10": {"label": "*4", "atom_type": "Cs"}, "11": {"label": "*3", "atom_type": "Cs"}}

>  <type>  (11) 
unop_7

>  <geom_source>  (11) 
Heuristics

$$$$

     RDKit          3D

 17 15  0  0  0  0  0  0  0  0999 V2000
   -0.9598    0.0175   -2.4773 C   0  0  0  0  0  0  0  0  0  0  0  0
   -0.9598    0.0175   -1.2796 C   0  0  0  0  0  0  0  0  0  0  0  0
   -0.9598    0.0457    0.1795 C   0  0  0  0  0  3  0  0  0  0  0  0
   -0.9598    1.4671    0.7452 C   0  0  0  0  0  0  0  0  0  0  0  0
   -0.9598    0.0175   -3.5406 H   0  0  0  0  0  0  0  0  0  0  0  0
    0.0908   -0.6084    0.6136 H   0  0  0  0  0  0  0  0  0  0  0  0
   -1.8353   -0.4993    0.5413 H   0  0  0  0  0  0  0  0  0  0  0  0
   -1.8420    2.0150    0.4137 H   0  0  0  0  0  0  0  0  0  0  0  0
   -0.9598    1.4398    1.8354 H   0  0  0  0  0  0  0  0  0  0  0  0
   -0.0775    2.0150    0.4137 H   0  0  0  0  0  0  0  0  0  0  0  0
    2.3392   -0.3368    1.2066 C   0  0  0  0  0  0  0  0  0  0  0  0
    1.1400   -1.2616    1.0471 C   0  0  0  0  0  0  0  0  0  0  0  0
    2.9110   -0.5812    2.1036 H   0  0  0  0  0  0  0  0  0  0  0  0
    2.0271    0.7058    1.2877 H   0  0  0  0  0  0  0  0  0  0  0  0
    3.0149   -0.4140    0.3530 H   0  0  0  0  0  0  0  0  0  0  0  0
    0.4643   -1.1845    1.9007 H   0  0  0  0  0  0  0  0  0  0  0  0
    1.4521   -2.3043    0.9660 H   0  0  0  0  0  0  0  0  0  0  0  0
  1  2  3  0
  1  5  1  0
  2  3  1  0
  3  4  1  0
  3  7  1  0
  4  8  1  0
  4  9  1  0
  4 10  1  0
  6 12  1  0
 11 12  1  0
 11 13  1  0
 11 14  1  0
 11 15  1  0
 12 16  1  0
 12 17  1  0
M  RAD  1   3   2
M  END
>  <reaction>  (12) 
rxn_1259

>  <mol_properties>  (12) 
{"1": {"label": "*0", "atom_type": "Ct"}, "2": {"label": "*1", "atom_type": "Cs"}, "5": {"label": "*2", "atom_type": "H0"}, "10": {"label": "*4", "atom_type": "Cs"}, "11": {"label": "*3", "atom_type": "Cs"}}

>  <type>  (12) 
unop_8

>  <geom_source>  (12) 
Heuristics

$$$$

     RDKit          3D

 17 15  0  0  0  0  0  0  0  0999 V2000
   -0.8158    0.3911   -2.2689 C   0  0  0  0  0  0  0  0  0  0  0  0
   -0.8158    0.3911   -1.0712 C   0  0  0  0  0  0  0  0  0  0  0  0
   -0.8158    0.4193    0.3879 C   0  0  0  0  0  3  0  0  0  0  0  0
   -0.8158    1.8407    0.9535 C   0  0  0  0  0  0  0  0  0  0  0  0
   -0.8158    0.3911   -3.3322 H   0  0  0  0  0  0  0  0  0  0  0  0
    0.2348   -0.2348    0.8220 H   0  0  0  0  0  0  0  0  0  0  0  0
   -1.6913   -0.1257    0.7496 H   0  0  0  0  0  0  0  0  0  0  0  0
   -1.6980    2.3886    0.6221 H   0  0  0  0  0  0  0  0  0  0  0  0
   -0.8158    1.8134    2.0438 H   0  0  0  0  0  0  0  0  0  0  0  0
    0.0664    2.3886    0.6221 H   0  0  0  0  0  0  0  0  0  0  0  0
    1.6819   -1.9966    0.2903 C   0  0  0  0  0  0  0  0  0  0  0  0
    1.2839   -0.8880    1.2554 C   0  0  0  0  0  0  0  0  0  0  0  0
    2.3300   -2.7293    0.7745 H   0  0  0  0  0  0  0  0  0  0  0  0
    2.2205   -1.5972   -0.5709 H   0  0  0  0  0  0  0  0  0  0  0  0
    0.8056   -2.5278   -0.0854 H   0  0  0  0  0  0  0  0  0  0  0  0
    2.1602   -0.3568    1.6311 H   0  0  0  0  0  0  0  0  0  0  0  0
    0.7453   -1.2874    2.1166 H   0  0  0  0  0  0  0  0  0  0  0  0
  1  2  3  0
  1  5  1  0
  2  3  1  0
  3  4  1  0
  3  7  1  0
  4  8  1  0
  4  9  1  0
  4 10  1  0
  6 12  1  0
 11 12  1  0
 11 13  1  0
 11 14  1  0
 11 15  1  0
 12 16  1  0
 12 17  1  0
M  RAD  1   3   2
M  END
>  <reaction>  (13) 
rxn_1259

>  <mol_properties>  (13) 
{"1": {"label": "*0", "atom_type": "Ct"}, "2": {"label": "*1", "atom_type": "Cs"}, "5": {"label": "*2", "atom_type": "H0"}, "10": {"label": "*4", "atom_type": "Cs"}, "11": {"label": "*3", "atom_type": "Cs"}}

>  <type>  (13) 
unop_9

>  <geom_source>  (13) 
Heuristics

$$$$

     RDKit          3D

 17 15  0  0  0  0  0  0  0  0999 V2000
   -0.9792    0.0695   -2.3547 C   0  0  0  0  0  0  0  0  0  0  0  0
   -0.9792    0.0695   -1.1570 C   0  0  0  0  0  0  0  0  0  0  0  0
   -0.9792    0.0977    0.3022 C   0  0  0  0  0  3  0  0  0  0  0  0
   -0.9792    1.5191    0.8678 C   0  0  0  0  0  0  0  0  0  0  0  0
   -0.9792    0.0695   -3.4180 H   0  0  0  0  0  0  0  0  0  0  0  0
    0.0714   -0.5564    0.7362 H   0  0  0  0  0  0  0  0  0  0  0  0
   -1.8547   -0.4474    0.6639 H   0  0  0  0  0  0  0  0  0  0  0  0
   -1.8614    2.0669    0.5363 H   0  0  0  0  0  0  0  0  0  0  0  0
   -0.9792    1.4918    1.9581 H   0  0  0  0  0  0  0  0  0  0  0  0
   -0.0970    2.0669    0.5363 H   0  0  0  0  0  0  0  0  0  0  0  0
    2.4112   -0.5802    0.6629 C   0  0  0  0  0  0  0  0  0  0  0  0
    1.1205   -1.2096    1.1697 C   0  0  0  0  0  0  0  0  0  0  0  0
    3.2219   -0.7051    1.3830 H   0  0  0  0  0  0  0  0  0  0  0  0
    2.2874    0.4898    0.4871 H   0  0  0  0  0  0  0  0  0  0  0  0
    2.7310   -1.0346   -0.2765 H   0  0  0  0  0  0  0  0  0  0  0  0
    0.8008   -0.7553    2.1092 H   0  0  0  0  0  0  0  0  0  0  0  0
    1.2444   -2.2797    1.3455 H   0  0  0  0  0  0  0  0  0  0  0  0
  1  2  3  0
  1  5  1  0
  2  3  1  0
  3  4  1  0
  3  7  1  0
  4  8  1  0
  4  9  1  0
  4 10  1  0
  6 12  1  0
 11 12  1  0
 11 13  1  0
 11 14  1  0
 11 15  1  0
 12 16  1  0
 12 17  1  0
M  RAD  1   3   2
M  END
>  <reaction>  (14) 
rxn_1259

>  <mol_properties>  (14) 
{"1": {"label": "*0", "atom_type": "Ct"}, "2": {"label": "*1", "atom_type": "Cs"}, "5": {"label": "*2", "atom_type": "H0"}, "10": {"label": "*4", "atom_type": "Cs"}, "11": {"label": "*3", "atom_type": "Cs"}}

>  <type>  (14) 
unop_10

>  <geom_source>  (14) 
Heuristics

$$$$

     RDKit          3D

 17 15  0  0  0  0  0  0  0  0999 V2000
   -0.6983    0.2991   -2.6895 C   0  0  0  0  0  0  0  0  0  0  0  0
   -0.6983    0.2991   -1.4918 C   0  0  0  0  0  0  0  0  0  0  0  0
   -0.6983    0.3273   -0.0326 C   0  0  0  0  0  3  0  0  0  0  0  0
   -0.6983    1.7487    0.5330 C   0  0  0  0  0  0  0  0  0  0  0  0
   -0.6983    0.2991   -3.7528 H   0  0  0  0  0  0  0  0  0  0  0  0
    0.3523   -0.3268    0.4014 H   0  0  0  0  0  0  0  0  0  0  0  0
   -1.5738   -0.2178    0.3291 H   0  0  0  0  0  0  0  0  0  0  0  0
   -1.5805    2.2965    0.2015 H   0  0  0  0  0  0  0  0  0  0  0  0
   -0.6983    1.7214    1.6233 H   0  0  0  0  0  0  0  0  0  0  0  0
    0.1839    2.2965    0.2015 H   0  0  0  0  0  0  0  0  0  0  0  0
    1.1315   -1.6226    2.1888 C   0  0  0  0  0  0  0  0  0  0  0  0
    1.4015   -0.9801    0.8349 C   0  0  0  0  0  0  0  0  0  0  0  0
    2.0485   -1.7136    2.7737 H   0  0  0  0  0  0  0  0  0  0  0  0
    0.7114   -2.6235    2.0753 H   0  0  0  0  0  0  0  0  0  0  0  0
    0.4241   -1.0317    2.7734 H   0  0  0  0  0  0  0  0  0  0  0  0
    2.1088   -1.5709    0.2503 H   0  0  0  0  0  0  0  0  0  0  0  0
    1.8216    0.0208    0.9484 H   0  0  0  0  0  0  0  0  0  0  0  0
  1  2  3  0
  1  5  1  0
  2  3  1  0
  3  4  1  0
  3  7  1  0
  4  8  1  0
  4  9  1  0
  4 10  1  0
  6 12  1  0
 11 12  1  0
 11 13  1  0
 11 14  1  0
 11 15  1  0
 12 16  1  0
 12 17  1  0
M  RAD  1   3   2
M  END
>  <reaction>  (15) 
rxn_1259

>  <mol_properties>  (15) 
{"1": {"label": "*0", "atom_type": "Ct"}, "2": {"label": "*1", "atom_type": "Cs"}, "5": {"label": "*2", "atom_type": "H0"}, "10": {"label": "*4", "atom_type": "Cs"}, "11": {"label": "*3", "atom_type": "Cs"}}

>  <type>  (15) 
unop_11

>  <geom_source>  (15) 
Heuristics

$$$$

     RDKit          3D

 17 15  0  0  0  0  0  0  0  0999 V2000
   -0.8963    0.2868   -2.2329 C   0  0  0  0  0  0  0  0  0  0  0  0
   -0.8963    0.2868   -1.0352 C   0  0  0  0  0  0  0  0  0  0  0  0
   -0.8963    0.3151    0.4240 C   0  0  0  0  0  3  0  0  0  0  0  0
   -0.8963    1.7364    0.9896 C   0  0  0  0  0  0  0  0  0  0  0  0
   -0.8963    0.2868   -3.2962 H   0  0  0  0  0  0  0  0  0  0  0  0
    0.1543   -0.3391    0.8580 H   0  0  0  0  0  0  0  0  0  0  0  0
   -1.7719   -0.2300    0.7857 H   0  0  0  0  0  0  0  0  0  0  0  0
   -1.7786    2.2843    0.6581 H   0  0  0  0  0  0  0  0  0  0  0  0
   -0.8963    1.7091    2.0798 H   0  0  0  0  0  0  0  0  0  0  0  0
   -0.0141    2.2843    0.6581 H   0  0  0  0  0  0  0  0  0  0  0  0
    2.0315   -1.5368    0.1353 C   0  0  0  0  0  0  0  0  0  0  0  0
    1.2034   -0.9923    1.2915 C   0  0  0  0  0  0  0  0  0  0  0  0
    2.9058   -2.0812    0.4965 H   0  0  0  0  0  0  0  0  0  0  0  0
    2.3870   -0.7320   -0.5105 H   0  0  0  0  0  0  0  0  0  0  0  0
    1.4474   -2.2219   -0.4817 H   0  0  0  0  0  0  0  0  0  0  0  0
    1.7875   -0.3071    1.9085 H   0  0  0  0  0  0  0  0  0  0  0  0
    0.8479   -1.7971    1.9373 H   0  0  0  0  0  0  0  0  0  0  0  0
  1  2  3  0
  1  5  1  0
  2  3  1  0
  3  4  1  0
  3  7  1  0
  4  8  1  0
  4  9  1  0
  4 10  1  0
  6 12  1  0
 11 12  1  0
 11 13  1  0
 11 14  1  0
 11 15  1  0
 12 16  1  0
 12 17  1  0
M  RAD  1   3   2
M  END
>  <reaction>  (16) 
rxn_1259

>  <mol_properties>  (16) 
{"1": {"label": "*0", "atom_type": "Ct"}, "2": {"label": "*1", "atom_type": "Cs"}, "5": {"label": "*2", "atom_type": "H0"}, "10": {"label": "*4", "atom_type": "Cs"}, "11": {"label": "*3", "atom_type": "Cs"}}

>  <type>  (16) 
unop_12

>  <geom_source>  (16) 
Heuristics

$$$$

     RDKit          3D

 17 15  0  0  0  0  0  0  0  0999 V2000
    1.5342   -0.5488   -0.4609 C   0  0  0  0  0  0  0  0  0  0  0  0
    2.5581    0.1720    0.3981 C   0  0  0  0  0  0  0  0  0  0  0  0
   -1.7615    0.6738   -1.1899 C   0  0  0  0  0  0  0  0  0  0  0  0
   -1.0297   -0.2096   -0.1900 C   0  0  0  0  0  3  0  0  0  0  0  0
   -1.6879   -0.1675    1.1203 C   0  0  0  0  0  0  0  0  0  0  0  0
   -2.2281   -0.1334    2.1975 C   0  0  0  0  0  0  0  0  0  0  0  0
    1.7494   -1.6381   -0.4697 H   0  0  0  0  0  0  0  0  0  0  0  0
    1.5745   -0.1609   -1.5005 H   0  0  0  0  0  0  0  0  0  0  0  0
    0.3783   -0.3586    0.0078 H   0  0  0  0  0  0  0  0  0  0  0  0
    3.5770    0.0070   -0.0111 H   0  0  0  0  0  0  0  0  0  0  0  0
    2.3400    1.2604    0.4070 H   0  0  0  0  0  0  0  0  0  0  0  0
    2.5149   -0.2160    1.4374 H   0  0  0  0  0  0  0  0  0  0  0  0
   -2.8064    0.3212   -1.3279 H   0  0  0  0  0  0  0  0  0  0  0  0
   -1.7692    1.7271   -0.8369 H   0  0  0  0  0  0  0  0  0  0  0  0
   -1.2375    0.6322   -2.1674 H   0  0  0  0  0  0  0  0  0  0  0  0
   -1.0035   -1.2573   -0.5570 H   0  0  0  0  0  0  0  0  0  0  0  0
   -2.7024   -0.1034    3.1431 H   0  0  0  0  0  0  0  0  0  0  0  0
  1  2  1  0
  1  7  1  0
  1  8  1  0
  1  9  1  0
  2 10  1  0
  2 11  1  0
  2 12  1  0
  3  4  1  0
  3 13  1  0
  3 14  1  0
  3 15  1  0
  4  5  1  0
  4 16  1  0
  5  6  3  0
  6 17  1  0
M  RAD  1   4   2
M  END
>  <reaction>  (17) 
rxn_1259

>  <mol_properties>  (17) 
{"1": {"label": "*0", "atom_type": "Ct"}, "2": {"label": "*1", "atom_type": "Cs"}, "5": {"label": "*2", "atom_type": "H0"}, "10": {"label": "*4", "atom_type": "Cs"}, "11": {"label": "*3", "atom_type": "Cs"}}

>  <type>  (17) 
unop_13

>  <geom_source>  (17) 
AutoTST

$$$$
