
     RDKit          3D

 11 10  0  0  0  0  0  0  0  0999 V2000
   -1.2710    0.1907   -0.2084 C   0  0  0  0  0  0  0  0  0  0  0  0
    0.0202   -0.6130   -0.2928 C   0  0  0  0  0  0  0  0  0  0  0  0
    0.1086   -1.6953    0.7756 C   0  0  0  0  0  0  0  0  0  0  0  0
   -1.3607    0.6851    0.7620 H   0  0  0  0  0  0  0  0  0  0  0  0
   -2.1429   -0.4567   -0.3299 H   0  0  0  0  0  0  0  0  0  0  0  0
   -1.3158    0.9602   -0.9809 H   0  0  0  0  0  0  0  0  0  0  0  0
    0.8757    0.0616   -0.1992 H   0  0  0  0  0  0  0  0  0  0  0  0
    0.0997   -1.0712   -1.2825 H   0  0  0  0  0  0  0  0  0  0  0  0
   -0.7198   -2.4022    0.6850 H   0  0  0  0  0  0  0  0  0  0  0  0
    1.0395   -2.2596    0.6989 H   0  0  0  0  0  0  0  0  0  0  0  0
    0.0624   -1.2603    1.7770 H   0  0  0  0  0  0  0  0  0  0  0  0
  1  2  1  0
  1  4  1  0
  1  5  1  0
  1  6  1  0
  2  3  1  0
  2  7  1  0
  2  8  1  0
  3  9  1  0
  3 10  1  0
  3 11  1  0
M  END
>  <reaction>  (1) 
rxn_943

>  <mol_properties>  (1) 
{"1": {"label": "donator", "atom_type": "Cs"}, "6": {"label": "d_hydrogen", "atom_type": "H0"}}

>  <type>  (1) 
r1h

$$$$

     RDKit          3D

  7  6  0  0  0  0  0  0  0  0999 V2000
   -2.0652    0.3855   -0.2963 S   0  0  0  0  0  0  0  0  0  0  0  0
   -0.7169   -0.5853    0.1792 C   0  0  0  0  0  3  0  0  0  0  0  0
    0.5987   -0.2168    0.0254 C   0  0  0  0  0  0  0  0  0  0  0  0
    1.7547    0.1211   -0.1163 C   0  0  0  0  0  0  0  0  0  0  0  0
   -1.3643    1.4227   -0.7731 H   0  0  0  0  0  0  0  0  0  0  0  0
   -0.9781   -1.5363    0.6220 H   0  0  0  0  0  0  0  0  0  0  0  0
    2.7711    0.4089   -0.2366 H   0  0  0  0  0  0  0  0  0  0  0  0
  1  2  1  0
  1  5  1  0
  2  3  1  0
  2  6  1  0
  3  4  3  0
  4  7  1  0
M  RAD  1   2   2
M  END
>  <reaction>  (2) 
rxn_943

>  <mol_properties>  (2) 
{"1": {"label": "acceptor", "atom_type": "Cs"}}

>  <type>  (2) 
r2

$$$$

     RDKit          3D

  8  7  0  0  0  0  0  0  0  0999 V2000
   -0.7014    1.0753    1.5530 S   0  0  0  0  0  0  0  0  0  0  0  0
   -0.3105   -0.4583    0.6462 C   0  0  0  0  0  0  0  0  0  0  0  0
    0.0935   -0.2424   -0.7319 C   0  0  0  0  0  0  0  0  0  0  0  0
    0.4431   -0.0604   -1.8621 C   0  0  0  0  0  0  0  0  0  0  0  0
    0.4994    1.6466    1.3970 H   0  0  0  0  0  0  0  0  0  0  0  0
   -1.2277   -1.0477    0.6819 H   0  0  0  0  0  0  0  0  0  0  0  0
    0.4563   -1.0151    1.1841 H   0  0  0  0  0  0  0  0  0  0  0  0
    0.7474    0.1020   -2.8681 H   0  0  0  0  0  0  0  0  0  0  0  0
  1  2  1  0
  1  5  1  0
  2  3  1  0
  2  6  1  0
  2  7  1  0
  3  4  3  0
  4  8  1  0
M  END
>  <reaction>  (3) 
rxn_943

>  <mol_properties>  (3) 
{"1": {"label": "acceptor", "atom_type": "Cs"}, "7": {"label": "a_hydrogen", "atom_type": "H0"}}

>  <type>  (3) 
r2h

$$$$

     RDKit          3D

 18 16  0  0  0  0  0  0  0  0999 V2000
    1.5746    0.7286    0.8401 S   0  0  0  0  0  0  0  0  0  0  0  0
    0.1979   -0.4078    1.0299 C   0  0  0  0  0  0  0  0  0  0  0  0
    0.4057   -1.7483    0.5832 C   0  0  0  0  0  0  0  0  0  0  0  0
    0.5354   -2.8570    0.1392 C   0  0  0  0  0  0  0  0  0  0  0  0
    1.8494    0.4170   -0.4332 H   0  0  0  0  0  0  0  0  0  0  0  0
   -0.1553   -0.3405    2.0574 H   0  0  0  0  0  0  0  0  0  0  0  0
    0.6635   -3.8452   -0.2315 H   0  0  0  0  0  0  0  0  0  0  0  0
   -1.1844    0.5761   -1.8317 C   0  0  0  0  0  0  0  0  0  0  0  0
   -1.8000    0.6113   -0.4627 C   0  0  0  0  0  3  0  0  0  0  0  0
   -2.0691    1.9639    0.1307 C   0  0  0  0  0  0  0  0  0  0  0  0
   -0.3057    1.2246   -1.8793 H   0  0  0  0  0  0  0  0  0  0  0  0
   -1.8900    0.9301   -2.5923 H   0  0  0  0  0  0  0  0  0  0  0  0
   -0.8813   -0.4359   -2.1067 H   0  0  0  0  0  0  0  0  0  0  0  0
   -0.8034    0.0633    0.3429 H   0  0  0  0  0  0  0  0  0  0  0  0
   -2.6002   -0.1141   -0.3176 H   0  0  0  0  0  0  0  0  0  0  0  0
   -2.8080    2.5150   -0.4631 H   0  0  0  0  0  0  0  0  0  0  0  0
   -2.4558    1.8887    1.1483 H   0  0  0  0  0  0  0  0  0  0  0  0
   -1.1563    2.5645    0.1557 H   0  0  0  0  0  0  0  0  0  0  0  0
  1  2  1  0
  1  5  1  0
  2  3  1  0
  2  6  1  0
  2 14  1  0
  3  4  3  0
  4  7  1  0
  8  9  1  0
  8 11  1  0
  8 12  1  0
  8 13  1  0
  9 10  1  0
  9 15  1  0
 10 16  1  0
 10 17  1  0
 10 18  1  0
M  RAD  1   9   2
M  END
>  <reaction>  (4) 
rxn_943

>  <mol_properties>  (4) 
{"0": {"label": "*0", "atom_type": "S2s"}, "1": {"label": "*1", "atom_type": "Cs"}, "7": {"label": "*4", "atom_type": "Cs"}, "8": {"label": "*3", "atom_type": "Cs"}, "13": {"label": "*2", "atom_type": "H0"}}

>  <type>  (4) 
ts

$$$$

     RDKit          3D

 18 16  0  0  0  0  0  0  0  0999 V2000
    1.2191    0.5458    1.2991 S   0  0  0  0  0  0  0  0  0  0  0  0
    0.2832   -0.6691    0.3117 C   0  0  0  0  0  0  0  0  0  0  0  0
    1.0835   -1.7818   -0.1683 C   0  0  0  0  0  0  0  0  0  0  0  0
    1.7431   -2.6989   -0.5639 C   0  0  0  0  0  0  0  0  0  0  0  0
    1.6283   -0.3153    2.2391 H   0  0  0  0  0  0  0  0  0  0  0  0
   -0.5614   -1.0387    0.8925 H   0  0  0  0  0  0  0  0  0  0  0  0
    2.3292   -3.5138   -0.9153 H   0  0  0  0  0  0  0  0  0  0  0  0
   -1.8132    0.6406   -2.0842 C   0  0  0  0  0  0  0  0  0  0  0  0
   -1.8132    0.6406   -0.5609 C   0  0  0  0  0  3  0  0  0  0  0  0
   -1.8132    2.0464    0.0258 C   0  0  0  0  0  0  0  0  0  0  0  0
   -0.9317    1.1549   -2.4749 H   0  0  0  0  0  0  0  0  0  0  0  0
   -2.6947    1.1549   -2.4749 H   0  0  0  0  0  0  0  0  0  0  0  0
   -1.8132   -0.3743   -2.4854 H   0  0  0  0  0  0  0  0  0  0  0  0
   -0.7638   -0.0150   -0.1241 H   0  0  0  0  0  0  0  0  0  0  0  0
   -2.6877    0.0942   -0.1969 H   0  0  0  0  0  0  0  0  0  0  0  0
   -2.6947    2.6050   -0.2983 H   0  0  0  0  0  0  0  0  0  0  0  0
   -1.8132    2.0257    1.1169 H   0  0  0  0  0  0  0  0  0  0  0  0
   -0.9317    2.6050   -0.2983 H   0  0  0  0  0  0  0  0  0  0  0  0
  1  2  1  0
  1  5  1  0
  2  3  1  0
  2  6  1  0
  2 14  1  0
  3  4  3  0
  4  7  1  0
  8  9  1  0
  8 11  1  0
  8 12  1  0
  8 13  1  0
  9 10  1  0
  9 15  1  0
 10 16  1  0
 10 17  1  0
 10 18  1  0
M  RAD  1   9   2
M  END
>  <reaction>  (5) 
rxn_943

>  <mol_properties>  (5) 
{"0": {"label": "*0", "atom_type": "S2s"}, "1": {"label": "*1", "atom_type": "Cs"}, "7": {"label": "*4", "atom_type": "Cs"}, "8": {"label": "*3", "atom_type": "Cs"}, "13": {"label": "*2", "atom_type": "H0"}}

>  <type>  (5) 
unop_1

>  <geom_source>  (5) 
Heuristics

$$$$

     RDKit          3D

 18 16  0  0  0  0  0  0  0  0999 V2000
    1.7132   -0.0872   -0.6443 S   0  0  0  0  0  0  0  0  0  0  0  0
    0.4394   -0.3304    0.6383 C   0  0  0  0  0  0  0  0  0  0  0  0
    0.3962   -1.6774    1.1795 C   0  0  0  0  0  0  0  0  0  0  0  0
    0.3606   -2.7875    1.6255 C   0  0  0  0  0  0  0  0  0  0  0  0
    2.7568   -0.4332    0.1198 H   0  0  0  0  0  0  0  0  0  0  0  0
    0.5876    0.3909    1.4415 H   0  0  0  0  0  0  0  0  0  0  0  0
    0.3290   -3.7739    2.0217 H   0  0  0  0  0  0  0  0  0  0  0  0
   -1.6570    0.9793   -1.7576 C   0  0  0  0  0  0  0  0  0  0  0  0
   -1.6570    0.9793   -0.2342 C   0  0  0  0  0  3  0  0  0  0  0  0
   -1.6570    2.3851    0.3525 C   0  0  0  0  0  0  0  0  0  0  0  0
   -0.7755    1.4935   -2.1482 H   0  0  0  0  0  0  0  0  0  0  0  0
   -2.5384    1.4935   -2.1482 H   0  0  0  0  0  0  0  0  0  0  0  0
   -1.6570   -0.0356   -2.1587 H   0  0  0  0  0  0  0  0  0  0  0  0
   -0.6075    0.3237    0.2026 H   0  0  0  0  0  0  0  0  0  0  0  0
   -2.5315    0.4329    0.1298 H   0  0  0  0  0  0  0  0  0  0  0  0
   -2.5384    2.9437    0.0284 H   0  0  0  0  0  0  0  0  0  0  0  0
   -1.6570    2.3644    1.4436 H   0  0  0  0  0  0  0  0  0  0  0  0
   -0.7755    2.9437    0.0284 H   0  0  0  0  0  0  0  0  0  0  0  0
  1  2  1  0
  1  5  1  0
  2  3  1  0
  2  6  1  0
  2 14  1  0
  3  4  3  0
  4  7  1  0
  8  9  1  0
  8 11  1  0
  8 12  1  0
  8 13  1  0
  9 10  1  0
  9 15  1  0
 10 16  1  0
 10 17  1  0
 10 18  1  0
M  RAD  1   9   2
M  END
>  <reaction>  (6) 
rxn_943

>  <mol_properties>  (6) 
{"0": {"label": "*0", "atom_type": "S2s"}, "1": {"label": "*1", "atom_type": "Cs"}, "7": {"label": "*4", "atom_type": "Cs"}, "8": {"label": "*3", "atom_type": "Cs"}, "13": {"label": "*2", "atom_type": "H0"}}

>  <type>  (6) 
unop_2

>  <geom_source>  (6) 
Heuristics

$$$$

     RDKit          3D

 18 16  0  0  0  0  0  0  0  0999 V2000
    0.7297    0.0399    1.8231 S   0  0  0  0  0  0  0  0  0  0  0  0
    0.3176   -0.7416    0.2273 C   0  0  0  0  0  0  0  0  0  0  0  0
    1.4731   -1.2156   -0.5137 C   0  0  0  0  0  0  0  0  0  0  0  0
    2.4256   -1.6062   -1.1244 C   0  0  0  0  0  0  0  0  0  0  0  0
    1.3531   -1.0222    2.3483 H   0  0  0  0  0  0  0  0  0  0  0  0
   -0.3829   -1.5600    0.3916 H   0  0  0  0  0  0  0  0  0  0  0  0
    3.2718   -1.9533   -1.6671 H   0  0  0  0  0  0  0  0  0  0  0  0
   -1.7788    0.5680   -2.1686 C   0  0  0  0  0  0  0  0  0  0  0  0
   -1.7788    0.5680   -0.6452 C   0  0  0  0  0  3  0  0  0  0  0  0
   -1.7788    1.9738   -0.0585 C   0  0  0  0  0  0  0  0  0  0  0  0
   -0.8973    1.0823   -2.5592 H   0  0  0  0  0  0  0  0  0  0  0  0
   -2.6602    1.0823   -2.5592 H   0  0  0  0  0  0  0  0  0  0  0  0
   -1.7788   -0.4469   -2.5697 H   0  0  0  0  0  0  0  0  0  0  0  0
   -0.7293   -0.0876   -0.2084 H   0  0  0  0  0  0  0  0  0  0  0  0
   -2.6533    0.0217   -0.2812 H   0  0  0  0  0  0  0  0  0  0  0  0
   -2.6602    2.5324   -0.3826 H   0  0  0  0  0  0  0  0  0  0  0  0
   -1.7788    1.9532    1.0326 H   0  0  0  0  0  0  0  0  0  0  0  0
   -0.8973    2.5324   -0.3826 H   0  0  0  0  0  0  0  0  0  0  0  0
  1  2  1  0
  1  5  1  0
  2  3  1  0
  2  6  1  0
  2 14  1  0
  3  4  3  0
  4  7  1  0
  8  9  1  0
  8 11  1  0
  8 12  1  0
  8 13  1  0
  9 10  1  0
  9 15  1  0
 10 16  1  0
 10 17  1  0
 10 18  1  0
M  RAD  1   9   2
M  END
>  <reaction>  (7) 
rxn_943

>  <mol_properties>  (7) 
{"0": {"label": "*0", "atom_type": "S2s"}, "1": {"label": "*1", "atom_type": "Cs"}, "7": {"label": "*4", "atom_type": "Cs"}, "8": {"label": "*3", "atom_type": "Cs"}, "13": {"label": "*2", "atom_type": "H0"}}

>  <type>  (7) 
unop_3

>  <geom_source>  (7) 
Heuristics

$$$$

     RDKit          3D

 18 16  0  0  0  0  0  0  0  0999 V2000
    0.8588   -1.9440   -0.4433 S   0  0  0  0  0  0  0  0  0  0  0  0
    1.0426   -0.2592    0.2310 C   0  0  0  0  0  0  0  0  0  0  0  0
    0.4023   -0.0663    1.5202 C   0  0  0  0  0  0  0  0  0  0  0  0
   -0.1253    0.0926    2.5827 C   0  0  0  0  0  0  0  0  0  0  0  0
    1.4367   -2.5762    0.5856 H   0  0  0  0  0  0  0  0  0  0  0  0
    2.1002   -0.0056    0.2969 H   0  0  0  0  0  0  0  0  0  0  0  0
   -0.5942    0.2339    3.5268 H   0  0  0  0  0  0  0  0  0  0  0  0
   -1.0538    1.0505   -2.1649 C   0  0  0  0  0  0  0  0  0  0  0  0
   -1.0538    1.0505   -0.6415 C   0  0  0  0  0  3  0  0  0  0  0  0
   -1.0538    2.4563   -0.0548 C   0  0  0  0  0  0  0  0  0  0  0  0
   -0.1723    1.5647   -2.5555 H   0  0  0  0  0  0  0  0  0  0  0  0
   -1.9353    1.5647   -2.5555 H   0  0  0  0  0  0  0  0  0  0  0  0
   -1.0538    0.0356   -2.5660 H   0  0  0  0  0  0  0  0  0  0  0  0
   -0.0044    0.3948   -0.2047 H   0  0  0  0  0  0  0  0  0  0  0  0
   -1.9283    0.5041   -0.2775 H   0  0  0  0  0  0  0  0  0  0  0  0
   -1.9353    3.0148   -0.3789 H   0  0  0  0  0  0  0  0  0  0  0  0
   -1.0538    2.4356    1.0363 H   0  0  0  0  0  0  0  0  0  0  0  0
   -0.1723    3.0148   -0.3789 H   0  0  0  0  0  0  0  0  0  0  0  0
  1  2  1  0
  1  5  1  0
  2  3  1  0
  2  6  1  0
  2 14  1  0
  3  4  3  0
  4  7  1  0
  8  9  1  0
  8 11  1  0
  8 12  1  0
  8 13  1  0
  9 10  1  0
  9 15  1  0
 10 16  1  0
 10 17  1  0
 10 18  1  0
M  RAD  1   9   2
M  END
>  <reaction>  (8) 
rxn_943

>  <mol_properties>  (8) 
{"0": {"label": "*0", "atom_type": "S2s"}, "1": {"label": "*1", "atom_type": "Cs"}, "7": {"label": "*4", "atom_type": "Cs"}, "8": {"label": "*3", "atom_type": "Cs"}, "13": {"label": "*2", "atom_type": "H0"}}

>  <type>  (8) 
unop_4

>  <geom_source>  (8) 
Heuristics

$$$$

     RDKit          3D

 18 16  0  0  0  0  0  0  0  0999 V2000
    0.3202   -0.8010    1.9235 S   0  0  0  0  0  0  0  0  0  0  0  0
    0.4417   -0.8769    0.1051 C   0  0  0  0  0  0  0  0  0  0  0  0
    1.6576   -0.2905   -0.4303 C   0  0  0  0  0  0  0  0  0  0  0  0
    2.6599    0.1928   -0.8715 C   0  0  0  0  0  0  0  0  0  0  0  0
    1.4451   -1.4829    2.1728 H   0  0  0  0  0  0  0  0  0  0  0  0
    0.3487   -1.9114   -0.2242 H   0  0  0  0  0  0  0  0  0  0  0  0
    3.5503    0.6221   -1.2636 H   0  0  0  0  0  0  0  0  0  0  0  0
   -1.6547    0.4328   -2.2908 C   0  0  0  0  0  0  0  0  0  0  0  0
   -1.6547    0.4328   -0.7675 C   0  0  0  0  0  3  0  0  0  0  0  0
   -1.6547    1.8386   -0.1808 C   0  0  0  0  0  0  0  0  0  0  0  0
   -0.7732    0.9471   -2.6814 H   0  0  0  0  0  0  0  0  0  0  0  0
   -2.5362    0.9471   -2.6814 H   0  0  0  0  0  0  0  0  0  0  0  0
   -1.6547   -0.5821   -2.6920 H   0  0  0  0  0  0  0  0  0  0  0  0
   -0.6053   -0.2228   -0.3307 H   0  0  0  0  0  0  0  0  0  0  0  0
   -2.5292   -0.1135   -0.4035 H   0  0  0  0  0  0  0  0  0  0  0  0
   -2.5362    2.3972   -0.5049 H   0  0  0  0  0  0  0  0  0  0  0  0
   -1.6547    1.8179    0.9103 H   0  0  0  0  0  0  0  0  0  0  0  0
   -0.7732    2.3972   -0.5049 H   0  0  0  0  0  0  0  0  0  0  0  0
  1  2  1  0
  1  5  1  0
  2  3  1  0
  2  6  1  0
  2 14  1  0
  3  4  3  0
  4  7  1  0
  8  9  1  0
  8 11  1  0
  8 12  1  0
  8 13  1  0
  9 10  1  0
  9 15  1  0
 10 16  1  0
 10 17  1  0
 10 18  1  0
M  RAD  1   9   2
M  END
>  <reaction>  (9) 
rxn_943

>  <mol_properties>  (9) 
{"0": {"label": "*0", "atom_type": "S2s"}, "1": {"label": "*1", "atom_type": "Cs"}, "7": {"label": "*4", "atom_type": "Cs"}, "8": {"label": "*3", "atom_type": "Cs"}, "13": {"label": "*2", "atom_type": "H0"}}

>  <type>  (9) 
unop_5

>  <geom_source>  (9) 
Heuristics

$$$$

     RDKit          3D

 18 16  0  0  0  0  0  0  0  0999 V2000
    0.4999   -2.1818    0.2002 S   0  0  0  0  0  0  0  0  0  0  0  0
    1.0575   -0.4522    0.0437 C   0  0  0  0  0  0  0  0  0  0  0  0
    0.7054    0.3863    1.1759 C   0  0  0  0  0  0  0  0  0  0  0  0
    0.4152    1.0774    2.1091 C   0  0  0  0  0  0  0  0  0  0  0  0
    1.1578   -2.4444    1.3363 H   0  0  0  0  0  0  0  0  0  0  0  0
    2.1348   -0.4291   -0.1183 H   0  0  0  0  0  0  0  0  0  0  0  0
    0.1574    1.6914    2.9383 H   0  0  0  0  0  0  0  0  0  0  0  0
   -1.0388    0.8575   -2.3522 C   0  0  0  0  0  0  0  0  0  0  0  0
   -1.0388    0.8575   -0.8289 C   0  0  0  0  0  3  0  0  0  0  0  0
   -1.0388    2.2633   -0.2422 C   0  0  0  0  0  0  0  0  0  0  0  0
   -0.1574    1.3717   -2.7429 H   0  0  0  0  0  0  0  0  0  0  0  0
   -1.9203    1.3717   -2.7429 H   0  0  0  0  0  0  0  0  0  0  0  0
   -1.0388   -0.1574   -2.7534 H   0  0  0  0  0  0  0  0  0  0  0  0
    0.0106    0.2019   -0.3921 H   0  0  0  0  0  0  0  0  0  0  0  0
   -1.9134    0.3111   -0.4649 H   0  0  0  0  0  0  0  0  0  0  0  0
   -1.9203    2.8219   -0.5663 H   0  0  0  0  0  0  0  0  0  0  0  0
   -1.0388    2.2426    0.8489 H   0  0  0  0  0  0  0  0  0  0  0  0
   -0.1574    2.8219   -0.5663 H   0  0  0  0  0  0  0  0  0  0  0  0
  1  2  1  0
  1  5  1  0
  2  3  1  0
  2  6  1  0
  2 14  1  0
  3  4  3  0
  4  7  1  0
  8  9  1  0
  8 11  1  0
  8 12  1  0
  8 13  1  0
  9 10  1  0
  9 15  1  0
 10 16  1  0
 10 17  1  0
 10 18  1  0
M  RAD  1   9   2
M  END
>  <reaction>  (10) 
rxn_943

>  <mol_properties>  (10) 
{"0": {"label": "*0", "atom_type": "S2s"}, "1": {"label": "*1", "atom_type": "Cs"}, "7": {"label": "*4", "atom_type": "Cs"}, "8": {"label": "*3", "atom_type": "Cs"}, "13": {"label": "*2", "atom_type": "H0"}}

>  <type>  (10) 
unop_6

>  <geom_source>  (10) 
Heuristics

$$$$

     RDKit          3D

 18 16  0  0  0  0  0  0  0  0999 V2000
    0.2655   -2.0595    0.9254 S   0  0  0  0  0  0  0  0  0  0  0  0
    0.9468   -0.6856   -0.0621 C   0  0  0  0  0  0  0  0  0  0  0  0
    1.0512    0.5679    0.6637 C   0  0  0  0  0  0  0  0  0  0  0  0
    1.1372    1.6011    1.2620 C   0  0  0  0  0  0  0  0  0  0  0  0
    1.1995   -2.0266    1.8840 H   0  0  0  0  0  0  0  0  0  0  0  0
    1.9206   -0.9697   -0.4600 H   0  0  0  0  0  0  0  0  0  0  0  0
    1.2136    2.5191    1.7935 H   0  0  0  0  0  0  0  0  0  0  0  0
   -1.1496    0.6241   -2.4580 C   0  0  0  0  0  0  0  0  0  0  0  0
   -1.1496    0.6241   -0.9346 C   0  0  0  0  0  3  0  0  0  0  0  0
   -1.1496    2.0299   -0.3479 C   0  0  0  0  0  0  0  0  0  0  0  0
   -0.2681    1.1384   -2.8486 H   0  0  0  0  0  0  0  0  0  0  0  0
   -2.0310    1.1384   -2.8486 H   0  0  0  0  0  0  0  0  0  0  0  0
   -1.1496   -0.3908   -2.8591 H   0  0  0  0  0  0  0  0  0  0  0  0
   -0.1001   -0.0315   -0.4978 H   0  0  0  0  0  0  0  0  0  0  0  0
   -2.0241    0.0777   -0.5706 H   0  0  0  0  0  0  0  0  0  0  0  0
   -2.0310    2.5885   -0.6721 H   0  0  0  0  0  0  0  0  0  0  0  0
   -1.1496    2.0092    0.7432 H   0  0  0  0  0  0  0  0  0  0  0  0
   -0.2681    2.5885   -0.6721 H   0  0  0  0  0  0  0  0  0  0  0  0
  1  2  1  0
  1  5  1  0
  2  3  1  0
  2  6  1  0
  2 14  1  0
  3  4  3  0
  4  7  1  0
  8  9  1  0
  8 11  1  0
  8 12  1  0
  8 13  1  0
  9 10  1  0
  9 15  1  0
 10 16  1  0
 10 17  1  0
 10 18  1  0
M  RAD  1   9   2
M  END
>  <reaction>  (11) 
rxn_943

>  <mol_properties>  (11) 
{"0": {"label": "*0", "atom_type": "S2s"}, "1": {"label": "*1", "atom_type": "Cs"}, "7": {"label": "*4", "atom_type": "Cs"}, "8": {"label": "*3", "atom_type": "Cs"}, "13": {"label": "*2", "atom_type": "H0"}}

>  <type>  (11) 
unop_7

>  <geom_source>  (11) 
Heuristics

$$$$

     RDKit          3D

 18 16  0  0  0  0  0  0  0  0999 V2000
    1.5790    0.6491    0.5825 S   0  0  0  0  0  0  0  0  0  0  0  0
    0.2692   -0.6106    0.4260 C   0  0  0  0  0  0  0  0  0  0  0  0
    0.7675   -1.9709    0.3248 C   0  0  0  0  0  0  0  0  0  0  0  0
    1.1782   -3.0921    0.2414 C   0  0  0  0  0  0  0  0  0  0  0  0
    2.1253    0.1526    1.6995 H   0  0  0  0  0  0  0  0  0  0  0  0
   -0.4207   -0.5263    1.2652 H   0  0  0  0  0  0  0  0  0  0  0  0
    1.5432   -4.0883    0.1673 H   0  0  0  0  0  0  0  0  0  0  0  0
   -1.8272    0.6990   -1.9699 C   0  0  0  0  0  0  0  0  0  0  0  0
   -1.8272    0.6990   -0.4466 C   0  0  0  0  0  3  0  0  0  0  0  0
   -1.8272    2.1049    0.1401 C   0  0  0  0  0  0  0  0  0  0  0  0
   -0.9458    1.2133   -2.3606 H   0  0  0  0  0  0  0  0  0  0  0  0
   -2.7087    1.2133   -2.3606 H   0  0  0  0  0  0  0  0  0  0  0  0
   -1.8272   -0.3159   -2.3711 H   0  0  0  0  0  0  0  0  0  0  0  0
   -0.7778    0.0434   -0.0098 H   0  0  0  0  0  0  0  0  0  0  0  0
   -2.7017    0.1527   -0.0826 H   0  0  0  0  0  0  0  0  0  0  0  0
   -2.7087    2.6634   -0.1840 H   0  0  0  0  0  0  0  0  0  0  0  0
   -1.8272    2.0842    1.2312 H   0  0  0  0  0  0  0  0  0  0  0  0
   -0.9458    2.6634   -0.1840 H   0  0  0  0  0  0  0  0  0  0  0  0
  1  2  1  0
  1  5  1  0
  2  3  1  0
  2  6  1  0
  2 14  1  0
  3  4  3  0
  4  7  1  0
  8  9  1  0
  8 11  1  0
  8 12  1  0
  8 13  1  0
  9 10  1  0
  9 15  1  0
 10 16  1  0
 10 17  1  0
 10 18  1  0
M  RAD  1   9   2
M  END
>  <reaction>  (12) 
rxn_943

>  <mol_properties>  (12) 
{"0": {"label": "*0", "atom_type": "S2s"}, "1": {"label": "*1", "atom_type": "Cs"}, "7": {"label": "*4", "atom_type": "Cs"}, "8": {"label": "*3", "atom_type": "Cs"}, "13": {"label": "*2", "atom_type": "H0"}}

>  <type>  (12) 
unop_8

>  <geom_source>  (12) 
Heuristics

$$$$

     RDKit          3D

 18 16  0  0  0  0  0  0  0  0999 V2000
    1.2425   -1.4075   -0.8407 S   0  0  0  0  0  0  0  0  0  0  0  0
    0.9024   -0.1560    0.4420 C   0  0  0  0  0  0  0  0  0  0  0  0
    0.2297   -0.6823    1.6165 C   0  0  0  0  0  0  0  0  0  0  0  0
   -0.3247   -1.1161    2.5846 C   0  0  0  0  0  0  0  0  0  0  0  0
    1.9822   -2.2115   -0.0668 H   0  0  0  0  0  0  0  0  0  0  0  0
    1.8324    0.3327    0.7310 H   0  0  0  0  0  0  0  0  0  0  0  0
   -0.8173   -1.5015    3.4448 H   0  0  0  0  0  0  0  0  0  0  0  0
   -1.1940    1.1536   -1.9539 C   0  0  0  0  0  0  0  0  0  0  0  0
   -1.1940    1.1536   -0.4306 C   0  0  0  0  0  3  0  0  0  0  0  0
   -1.1940    2.5595    0.1561 C   0  0  0  0  0  0  0  0  0  0  0  0
   -0.3125    1.6679   -2.3445 H   0  0  0  0  0  0  0  0  0  0  0  0
   -2.0754    1.6679   -2.3445 H   0  0  0  0  0  0  0  0  0  0  0  0
   -1.1940    0.1387   -2.3551 H   0  0  0  0  0  0  0  0  0  0  0  0
   -0.1445    0.4980    0.0062 H   0  0  0  0  0  0  0  0  0  0  0  0
   -2.0685    0.6073   -0.0666 H   0  0  0  0  0  0  0  0  0  0  0  0
   -2.0754    3.1180   -0.1680 H   0  0  0  0  0  0  0  0  0  0  0  0
   -1.1940    2.5388    1.2473 H   0  0  0  0  0  0  0  0  0  0  0  0
   -0.3125    3.1180   -0.1680 H   0  0  0  0  0  0  0  0  0  0  0  0
  1  2  1  0
  1  5  1  0
  2  3  1  0
  2  6  1  0
  2 14  1  0
  3  4  3  0
  4  7  1  0
  8  9  1  0
  8 11  1  0
  8 12  1  0
  8 13  1  0
  9 10  1  0
  9 15  1  0
 10 16  1  0
 10 17  1  0
 10 18  1  0
M  RAD  1   9   2
M  END
>  <reaction>  (13) 
rxn_943

>  <mol_properties>  (13) 
{"0": {"label": "*0", "atom_type": "S2s"}, "1": {"label": "*1", "atom_type": "Cs"}, "7": {"label": "*4", "atom_type": "Cs"}, "8": {"label": "*3", "atom_type": "Cs"}, "13": {"label": "*2", "atom_type": "H0"}}

>  <type>  (13) 
unop_9

>  <geom_source>  (13) 
Heuristics

$$$$

     RDKit          3D

 18 16  0  0  0  0  0  0  0  0999 V2000
    1.7400    0.4057   -0.1180 S   0  0  0  0  0  0  0  0  0  0  0  0
    0.3065   -0.4983    0.5564 C   0  0  0  0  0  0  0  0  0  0  0  0
    0.5575   -1.9085    0.7959 C   0  0  0  0  0  0  0  0  0  0  0  0
    0.7643   -3.0708    0.9934 C   0  0  0  0  0  0  0  0  0  0  0  0
    2.5726    0.1341    0.8947 H   0  0  0  0  0  0  0  0  0  0  0  0
   -0.0299   -0.0170    1.4742 H   0  0  0  0  0  0  0  0  0  0  0  0
    0.9481   -4.1035    1.1688 H   0  0  0  0  0  0  0  0  0  0  0  0
   -1.7899    0.8113   -1.8395 C   0  0  0  0  0  0  0  0  0  0  0  0
   -1.7899    0.8113   -0.3162 C   0  0  0  0  0  3  0  0  0  0  0  0
   -1.7899    2.2172    0.2705 C   0  0  0  0  0  0  0  0  0  0  0  0
   -0.9084    1.3256   -2.2301 H   0  0  0  0  0  0  0  0  0  0  0  0
   -2.6713    1.3256   -2.2301 H   0  0  0  0  0  0  0  0  0  0  0  0
   -1.7899   -0.2036   -2.2407 H   0  0  0  0  0  0  0  0  0  0  0  0
   -0.7404    0.1557    0.1206 H   0  0  0  0  0  0  0  0  0  0  0  0
   -2.6644    0.2650    0.0478 H   0  0  0  0  0  0  0  0  0  0  0  0
   -2.6713    2.7757   -0.0536 H   0  0  0  0  0  0  0  0  0  0  0  0
   -1.7899    2.1965    1.3617 H   0  0  0  0  0  0  0  0  0  0  0  0
   -0.9084    2.7757   -0.0536 H   0  0  0  0  0  0  0  0  0  0  0  0
  1  2  1  0
  1  5  1  0
  2  3  1  0
  2  6  1  0
  2 14  1  0
  3  4  3  0
  4  7  1  0
  8  9  1  0
  8 11  1  0
  8 12  1  0
  8 13  1  0
  9 10  1  0
  9 15  1  0
 10 16  1  0
 10 17  1  0
 10 18  1  0
M  RAD  1   9   2
M  END
>  <reaction>  (14) 
rxn_943

>  <mol_properties>  (14) 
{"0": {"label": "*0", "atom_type": "S2s"}, "1": {"label": "*1", "atom_type": "Cs"}, "7": {"label": "*4", "atom_type": "Cs"}, "8": {"label": "*3", "atom_type": "Cs"}, "13": {"label": "*2", "atom_type": "H0"}}

>  <type>  (14) 
unop_10

>  <geom_source>  (14) 
Heuristics

$$$$

     RDKit          3D

 18 16  0  0  0  0  0  0  0  0999 V2000
    0.1932   -1.5888    1.5563 S   0  0  0  0  0  0  0  0  0  0  0  0
    0.7149   -0.8757   -0.0394 C   0  0  0  0  0  0  0  0  0  0  0  0
    1.4082    0.3947    0.0802 C   0  0  0  0  0  0  0  0  0  0  0  0
    1.9797    1.4418    0.1789 C   0  0  0  0  0  0  0  0  0  0  0  0
    1.4174   -1.6508    2.0949 H   0  0  0  0  0  0  0  0  0  0  0  0
    1.3374   -1.5928   -0.5738 H   0  0  0  0  0  0  0  0  0  0  0  0
    2.4875    2.3721    0.2665 H   0  0  0  0  0  0  0  0  0  0  0  0
   -1.3815    0.4339   -2.4353 C   0  0  0  0  0  0  0  0  0  0  0  0
   -1.3815    0.4339   -0.9120 C   0  0  0  0  0  3  0  0  0  0  0  0
   -1.3815    1.8397   -0.3253 C   0  0  0  0  0  0  0  0  0  0  0  0
   -0.5000    0.9482   -2.8260 H   0  0  0  0  0  0  0  0  0  0  0  0
   -2.2629    0.9482   -2.8260 H   0  0  0  0  0  0  0  0  0  0  0  0
   -1.3815   -0.5810   -2.8365 H   0  0  0  0  0  0  0  0  0  0  0  0
   -0.3320   -0.2217   -0.4752 H   0  0  0  0  0  0  0  0  0  0  0  0
   -2.2560   -0.1124   -0.5480 H   0  0  0  0  0  0  0  0  0  0  0  0
   -2.2629    2.3983   -0.6494 H   0  0  0  0  0  0  0  0  0  0  0  0
   -1.3815    1.8191    0.7658 H   0  0  0  0  0  0  0  0  0  0  0  0
   -0.5000    2.3983   -0.6494 H   0  0  0  0  0  0  0  0  0  0  0  0
  1  2  1  0
  1  5  1  0
  2  3  1  0
  2  6  1  0
  2 14  1  0
  3  4  3  0
  4  7  1  0
  8  9  1  0
  8 11  1  0
  8 12  1  0
  8 13  1  0
  9 10  1  0
  9 15  1  0
 10 16  1  0
 10 17  1  0
 10 18  1  0
M  RAD  1   9   2
M  END
>  <reaction>  (15) 
rxn_943

>  <mol_properties>  (15) 
{"0": {"label": "*0", "atom_type": "S2s"}, "1": {"label": "*1", "atom_type": "Cs"}, "7": {"label": "*4", "atom_type": "Cs"}, "8": {"label": "*3", "atom_type": "Cs"}, "13": {"label": "*2", "atom_type": "H0"}}

>  <type>  (15) 
unop_11

>  <geom_source>  (15) 
Heuristics

$$$$

     RDKit          3D

 18 16  0  0  0  0  0  0  0  0999 V2000
    1.5416   -0.7296   -0.9037 S   0  0  0  0  0  0  0  0  0  0  0  0
    0.6680   -0.1838    0.6016 C   0  0  0  0  0  0  0  0  0  0  0  0
    0.2538   -1.2711    1.4707 C   0  0  0  0  0  0  0  0  0  0  0  0
   -0.0875   -2.1672    2.1870 C   0  0  0  0  0  0  0  0  0  0  0  0
    2.5333   -1.3700   -0.2721 H   0  0  0  0  0  0  0  0  0  0  0  0
    1.2934    0.5181    1.1525 H   0  0  0  0  0  0  0  0  0  0  0  0
   -0.3908   -2.9634    2.8234 H   0  0  0  0  0  0  0  0  0  0  0  0
   -1.4284    1.1259   -1.7943 C   0  0  0  0  0  0  0  0  0  0  0  0
   -1.4284    1.1259   -0.2710 C   0  0  0  0  0  3  0  0  0  0  0  0
   -1.4284    2.5317    0.3157 C   0  0  0  0  0  0  0  0  0  0  0  0
   -0.5469    1.6401   -2.1850 H   0  0  0  0  0  0  0  0  0  0  0  0
   -2.3098    1.6401   -2.1850 H   0  0  0  0  0  0  0  0  0  0  0  0
   -1.4284    0.1110   -2.1955 H   0  0  0  0  0  0  0  0  0  0  0  0
   -0.3789    0.4702    0.1658 H   0  0  0  0  0  0  0  0  0  0  0  0
   -2.3029    0.5795    0.0930 H   0  0  0  0  0  0  0  0  0  0  0  0
   -2.3098    3.0902   -0.0084 H   0  0  0  0  0  0  0  0  0  0  0  0
   -1.4284    2.5110    1.4068 H   0  0  0  0  0  0  0  0  0  0  0  0
   -0.5469    3.0902   -0.0084 H   0  0  0  0  0  0  0  0  0  0  0  0
  1  2  1  0
  1  5  1  0
  2  3  1  0
  2  6  1  0
  2 14  1  0
  3  4  3  0
  4  7  1  0
  8  9  1  0
  8 11  1  0
  8 12  1  0
  8 13  1  0
  9 10  1  0
  9 15  1  0
 10 16  1  0
 10 17  1  0
 10 18  1  0
M  RAD  1   9   2
M  END
>  <reaction>  (16) 
rxn_943

>  <mol_properties>  (16) 
{"0": {"label": "*0", "atom_type": "S2s"}, "1": {"label": "*1", "atom_type": "Cs"}, "7": {"label": "*4", "atom_type": "Cs"}, "8": {"label": "*3", "atom_type": "Cs"}, "13": {"label": "*2", "atom_type": "H0"}}

>  <type>  (16) 
unop_12

>  <geom_source>  (16) 
Heuristics

$$$$

     RDKit          3D

 18 16  0  0  0  0  0  0  0  0999 V2000
    1.8398   -0.8167   -1.6695 S   0  0  0  0  0  0  0  0  0  0  0  0
   -1.5193   -1.5916    0.0023 C   0  0  0  0  0  0  0  0  0  0  0  0
   -1.7701    0.9152   -0.0968 C   0  0  0  0  0  0  0  0  0  0  0  0
    1.2731    0.4968   -0.5506 C   0  0  0  0  0  3  0  0  0  0  0  0
   -0.9933   -0.2514    0.5011 C   0  0  0  0  0  0  0  0  0  0  0  0
    2.3893    0.9604    0.2758 C   0  0  0  0  0  0  0  0  0  0  0  0
    3.3075    1.3426    0.9571 C   0  0  0  0  0  0  0  0  0  0  0  0
    0.8830    1.3454   -1.1493 H   0  0  0  0  0  0  0  0  0  0  0  0
    0.2655    0.0098    0.2637 H   0  0  0  0  0  0  0  0  0  0  0  0
   -2.5817   -1.7246    0.2985 H   0  0  0  0  0  0  0  0  0  0  0  0
   -1.4328   -1.6488   -1.1032 H   0  0  0  0  0  0  0  0  0  0  0  0
   -0.9172   -2.4106    0.4477 H   0  0  0  0  0  0  0  0  0  0  0  0
   -1.3453    1.8693    0.2785 H   0  0  0  0  0  0  0  0  0  0  0  0
   -2.8401    0.8582    0.1964 H   0  0  0  0  0  0  0  0  0  0  0  0
   -1.6880    0.9018   -1.2041 H   0  0  0  0  0  0  0  0  0  0  0  0
   -1.0489   -0.2131    1.6104 H   0  0  0  0  0  0  0  0  0  0  0  0
    2.0649   -1.7206   -0.6133 H   0  0  0  0  0  0  0  0  0  0  0  0
    4.1136    1.6779    1.5552 H   0  0  0  0  0  0  0  0  0  0  0  0
  1  4  1  0
  1 17  1  0
  2  5  1  0
  2 10  1  0
  2 11  1  0
  2 12  1  0
  3  5  1  0
  3 13  1  0
  3 14  1  0
  3 15  1  0
  4  6  1  0
  4  8  1  0
  5  9  1  0
  5 16  1  0
  6  7  3  0
  7 18  1  0
M  RAD  1   4   2
M  END
>  <reaction>  (17) 
rxn_943

>  <mol_properties>  (17) 
{"0": {"label": "*0", "atom_type": "S2s"}, "1": {"label": "*1", "atom_type": "Cs"}, "7": {"label": "*4", "atom_type": "Cs"}, "8": {"label": "*3", "atom_type": "Cs"}, "13": {"label": "*2", "atom_type": "H0"}}

>  <type>  (17) 
unop_13

>  <geom_source>  (17) 
AutoTST

$$$$
