
     RDKit          3D

 12 11  0  0  0  0  0  0  0  0999 V2000
    2.1696    0.6854    1.1310 C   0  0  0  0  0  0  0  0  0  0  0  0
    1.2518    0.4145    0.4134 C   0  0  0  0  0  0  0  0  0  0  0  0
    0.1391    0.0443   -0.4683 C   0  0  0  0  0  0  0  0  0  0  0  0
   -0.2054   -1.4492   -0.3339 C   0  0  0  0  0  0  0  0  0  0  0  0
   -1.0375    0.8853   -0.2222 C   0  0  0  0  0  0  0  0  0  0  0  0
   -2.0160    1.5463   -0.0311 C   0  0  0  0  0  0  0  0  0  0  0  0
    2.9819    0.9356    1.7702 H   0  0  0  0  0  0  0  0  0  0  0  0
    0.4629    0.2285   -1.4981 H   0  0  0  0  0  0  0  0  0  0  0  0
   -0.5327   -1.6703    0.6812 H   0  0  0  0  0  0  0  0  0  0  0  0
    0.6727   -2.0535   -0.5593 H   0  0  0  0  0  0  0  0  0  0  0  0
   -1.0064   -1.7081   -1.0256 H   0  0  0  0  0  0  0  0  0  0  0  0
   -2.8802    2.1413    0.1426 H   0  0  0  0  0  0  0  0  0  0  0  0
  1  2  3  0
  1  7  1  0
  2  3  1  0
  3  4  1  0
  3  5  1  0
  3  8  1  0
  4  9  1  0
  4 10  1  0
  4 11  1  0
  5  6  3  0
  6 12  1  0
M  END
>  <reaction>  (1) 
rxn_1392

>  <mol_properties>  (1) 
{"2": {"label": "donator", "atom_type": "Cs"}, "7": {"label": "d_hydrogen", "atom_type": "H0"}}

>  <type>  (1) 
r1h

$$$$

     RDKit          3D

 10  9  0  0  0  0  0  0  0  0999 V2000
    1.2930    0.1441    0.3288 C   0  0  0  0  0  0  0  0  0  0  0  0
   -0.0374   -0.1647    0.9100 C   0  0  0  0  0  3  0  0  0  0  0  0
   -1.2664    0.4569    0.3567 C   0  0  0  0  0  0  0  0  0  0  0  0
    1.4384    1.2242    0.2174 H   0  0  0  0  0  0  0  0  0  0  0  0
    2.1077   -0.2477    0.9385 H   0  0  0  0  0  0  0  0  0  0  0  0
    1.4057   -0.2836   -0.6789 H   0  0  0  0  0  0  0  0  0  0  0  0
   -0.1309   -0.9912    1.6030 H   0  0  0  0  0  0  0  0  0  0  0  0
   -1.5005    0.0716   -0.6471 H   0  0  0  0  0  0  0  0  0  0  0  0
   -2.1382    0.2713    0.9849 H   0  0  0  0  0  0  0  0  0  0  0  0
   -1.1497    1.5406    0.2456 H   0  0  0  0  0  0  0  0  0  0  0  0
  1  2  1  0
  1  4  1  0
  1  5  1  0
  1  6  1  0
  2  3  1  0
  2  7  1  0
  3  8  1  0
  3  9  1  0
  3 10  1  0
M  RAD  1   2   2
M  END
>  <reaction>  (2) 
rxn_1392

>  <mol_properties>  (2) 
{"1": {"label": "acceptor", "atom_type": "Cs"}}

>  <type>  (2) 
r2

$$$$

     RDKit          3D

 11 10  0  0  0  0  0  0  0  0999 V2000
   -1.2710    0.1907   -0.2084 C   0  0  0  0  0  0  0  0  0  0  0  0
    0.0202   -0.6130   -0.2928 C   0  0  0  0  0  0  0  0  0  0  0  0
    0.1086   -1.6953    0.7756 C   0  0  0  0  0  0  0  0  0  0  0  0
   -1.3607    0.6851    0.7620 H   0  0  0  0  0  0  0  0  0  0  0  0
   -2.1429   -0.4567   -0.3299 H   0  0  0  0  0  0  0  0  0  0  0  0
   -1.3158    0.9602   -0.9809 H   0  0  0  0  0  0  0  0  0  0  0  0
    0.8757    0.0616   -0.1992 H   0  0  0  0  0  0  0  0  0  0  0  0
    0.0997   -1.0712   -1.2825 H   0  0  0  0  0  0  0  0  0  0  0  0
   -0.7198   -2.4022    0.6850 H   0  0  0  0  0  0  0  0  0  0  0  0
    1.0395   -2.2596    0.6989 H   0  0  0  0  0  0  0  0  0  0  0  0
    0.0624   -1.2603    1.7770 H   0  0  0  0  0  0  0  0  0  0  0  0
  1  2  1  0
  1  4  1  0
  1  5  1  0
  1  6  1  0
  2  3  1  0
  2  7  1  0
  2  8  1  0
  3  9  1  0
  3 10  1  0
  3 11  1  0
M  END
>  <reaction>  (3) 
rxn_1392

>  <mol_properties>  (3) 
{"0": {"label": "a_hydrogen", "atom_type": "H0"}, "2": {"label": "acceptor", "atom_type": "Cs"}}

>  <type>  (3) 
r2h

$$$$

     RDKit          3D

 22 20  0  0  0  0  0  0  0  0999 V2000
   -0.2620   -0.1166   -2.5624 C   0  0  0  0  0  0  0  0  0  0  0  0
   -0.5395   -0.0092   -1.4000 C   0  0  0  0  0  0  0  0  0  0  0  0
   -0.8084    0.1624    0.0076 C   0  0  0  0  0  0  0  0  0  0  0  0
   -1.4715    1.4896    0.3648 C   0  0  0  0  0  0  0  0  0  0  0  0
   -1.3989   -0.9910    0.6436 C   0  0  0  0  0  0  0  0  0  0  0  0
   -1.8564   -1.9358    1.2241 C   0  0  0  0  0  0  0  0  0  0  0  0
   -0.0370   -0.2227   -3.5962 H   0  0  0  0  0  0  0  0  0  0  0  0
    0.3491    0.2511    0.5339 H   0  0  0  0  0  0  0  0  0  0  0  0
   -2.4897    1.5341   -0.0245 H   0  0  0  0  0  0  0  0  0  0  0  0
   -0.9008    2.3148   -0.0612 H   0  0  0  0  0  0  0  0  0  0  0  0
   -1.5086    1.6051    1.4482 H   0  0  0  0  0  0  0  0  0  0  0  0
   -2.2744   -2.7770    1.7222 H   0  0  0  0  0  0  0  0  0  0  0  0
    2.2531    1.5315    0.2949 C   0  0  0  0  0  0  0  0  0  0  0  0
    1.6974    0.3435    1.0216 C   0  0  0  0  0  3  0  0  0  0  0  0
    2.2383   -1.0059    0.6568 C   0  0  0  0  0  0  0  0  0  0  0  0
    2.1414    1.4110   -0.7859 H   0  0  0  0  0  0  0  0  0  0  0  0
    1.7557    2.4564    0.5901 H   0  0  0  0  0  0  0  0  0  0  0  0
    3.3238    1.6519    0.5002 H   0  0  0  0  0  0  0  0  0  0  0  0
    1.5181    0.4939    2.0853 H   0  0  0  0  0  0  0  0  0  0  0  0
    3.2902   -1.1009    0.9519 H   0  0  0  0  0  0  0  0  0  0  0  0
    1.6802   -1.8052    1.1462 H   0  0  0  0  0  0  0  0  0  0  0  0
    2.1849   -1.1651   -0.4232 H   0  0  0  0  0  0  0  0  0  0  0  0
  1  2  3  0
  1  7  1  0
  2  3  1  0
  3  4  1  0
  3  5  1  0
  3  8  1  0
  4  9  1  0
  4 10  1  0
  4 11  1  0
  5  6  3  0
  6 12  1  0
 13 14  1  0
 13 16  1  0
 13 17  1  0
 13 18  1  0
 14 15  1  0
 14 19  1  0
 15 20  1  0
 15 21  1  0
 15 22  1  0
M  RAD  1  14   2
M  END
>  <reaction>  (4) 
rxn_1392

>  <mol_properties>  (4) 
{"1": {"label": "*0", "atom_type": "Ct"}, "2": {"label": "*1", "atom_type": "Cs"}, "7": {"label": "*2", "atom_type": "H0"}, "12": {"label": "*4", "atom_type": "Cs"}, "13": {"label": "*3", "atom_type": "Cs"}}

>  <type>  (4) 
ts

$$$$

     RDKit          3D

 22 20  0  0  0  0  0  0  0  0999 V2000
   -0.8182    0.1023   -2.7877 C   0  0  0  0  0  0  0  0  0  0  0  0
   -0.8182    0.1023   -1.5915 C   0  0  0  0  0  0  0  0  0  0  0  0
   -0.8182    0.1424   -0.1249 C   0  0  0  0  0  3  0  0  0  0  0  0
   -1.4562    1.4416    0.3971 C   0  0  0  0  0  0  0  0  0  0  0  0
   -1.4800   -1.0388    0.4398 C   0  0  0  0  0  0  0  0  0  0  0  0
   -2.0282   -1.9841    0.9263 C   0  0  0  0  0  0  0  0  0  0  0  0
   -0.8182    0.1023   -3.8511 H   0  0  0  0  0  0  0  0  0  0  0  0
    0.4354    0.1152    0.2682 H   0  0  0  0  0  0  0  0  0  0  0  0
   -2.4995    1.4989    0.0893 H   0  0  0  0  0  0  0  0  0  0  0  0
   -0.9236    2.3030   -0.0046 H   0  0  0  0  0  0  0  0  0  0  0  0
   -1.4090    1.4660    1.4853 H   0  0  0  0  0  0  0  0  0  0  0  0
   -2.5157   -2.8245    1.3588 H   0  0  0  0  0  0  0  0  0  0  0  0
    1.9944    1.3456    1.4636 C   0  0  0  0  0  0  0  0  0  0  0  0
    1.6873    0.0879    0.6608 C   0  0  0  0  0  0  0  0  0  0  0  0
    2.9443   -0.5977    0.1408 C   0  0  0  0  0  0  0  0  0  0  0  0
    2.5336    2.0756    0.8550 H   0  0  0  0  0  0  0  0  0  0  0  0
    1.0824    1.8221    1.8272 H   0  0  0  0  0  0  0  0  0  0  0  0
    2.6188    1.1134    2.3297 H   0  0  0  0  0  0  0  0  0  0  0  0
    1.1217   -0.6117    1.2824 H   0  0  0  0  0  0  0  0  0  0  0  0
    3.5987   -0.8912    0.9652 H   0  0  0  0  0  0  0  0  0  0  0  0
    2.7041   -1.4956   -0.4311 H   0  0  0  0  0  0  0  0  0  0  0  0
    3.5134    0.0710   -0.5095 H   0  0  0  0  0  0  0  0  0  0  0  0
  1  2  3  0
  1  7  1  0
  2  3  1  0
  3  4  1  0
  3  5  1  0
  4  9  1  0
  4 10  1  0
  4 11  1  0
  5  6  3  0
  6 12  1  0
  8 14  1  0
 13 14  1  0
 13 16  1  0
 13 17  1  0
 13 18  1  0
 14 15  1  0
 14 19  1  0
 15 20  1  0
 15 21  1  0
 15 22  1  0
M  RAD  1   3   2
M  END
>  <reaction>  (5) 
rxn_1392

>  <mol_properties>  (5) 
{"1": {"label": "*0", "atom_type": "Ct"}, "2": {"label": "*1", "atom_type": "Cs"}, "7": {"label": "*2", "atom_type": "H0"}, "12": {"label": "*4", "atom_type": "Cs"}, "13": {"label": "*3", "atom_type": "Cs"}}

>  <type>  (5) 
unop_1

>  <geom_source>  (5) 
Heuristics

$$$$

     RDKit          3D

 22 20  0  0  0  0  0  0  0  0999 V2000
   -0.8156    0.2406   -2.6933 C   0  0  0  0  0  0  0  0  0  0  0  0
   -0.8156    0.2406   -1.4971 C   0  0  0  0  0  0  0  0  0  0  0  0
   -0.8156    0.2807   -0.0306 C   0  0  0  0  0  3  0  0  0  0  0  0
   -1.4536    1.5799    0.4914 C   0  0  0  0  0  0  0  0  0  0  0  0
   -1.4774   -0.9005    0.5342 C   0  0  0  0  0  0  0  0  0  0  0  0
   -2.0257   -1.8458    1.0207 C   0  0  0  0  0  0  0  0  0  0  0  0
   -0.8156    0.2406   -3.7567 H   0  0  0  0  0  0  0  0  0  0  0  0
    0.4380    0.2535    0.3626 H   0  0  0  0  0  0  0  0  0  0  0  0
   -2.4969    1.6372    0.1837 H   0  0  0  0  0  0  0  0  0  0  0  0
   -0.9210    2.4414    0.0898 H   0  0  0  0  0  0  0  0  0  0  0  0
   -1.4064    1.6044    1.5797 H   0  0  0  0  0  0  0  0  0  0  0  0
   -2.5131   -2.6862    1.4532 H   0  0  0  0  0  0  0  0  0  0  0  0
    2.5665    0.8897   -0.2993 C   0  0  0  0  0  0  0  0  0  0  0  0
    1.6899    0.2263    0.7552 C   0  0  0  0  0  0  0  0  0  0  0  0
    2.3355   -1.0144    1.3589 C   0  0  0  0  0  0  0  0  0  0  0  0
    2.7774    0.2014   -1.1214 H   0  0  0  0  0  0  0  0  0  0  0  0
    2.0875    1.7756   -0.7197 H   0  0  0  0  0  0  0  0  0  0  0  0
    3.5246    1.1976    0.1266 H   0  0  0  0  0  0  0  0  0  0  0  0
    1.4689    0.9447    1.5494 H   0  0  0  0  0  0  0  0  0  0  0  0
    3.2863   -0.7665    1.8371 H   0  0  0  0  0  0  0  0  0  0  0  0
    1.6931   -1.4751    2.1113 H   0  0  0  0  0  0  0  0  0  0  0  0
    2.5391   -1.7627    0.5891 H   0  0  0  0  0  0  0  0  0  0  0  0
  1  2  3  0
  1  7  1  0
  2  3  1  0
  3  4  1  0
  3  5  1  0
  4  9  1  0
  4 10  1  0
  4 11  1  0
  5  6  3  0
  6 12  1  0
  8 14  1  0
 13 14  1  0
 13 16  1  0
 13 17  1  0
 13 18  1  0
 14 15  1  0
 14 19  1  0
 15 20  1  0
 15 21  1  0
 15 22  1  0
M  RAD  1   3   2
M  END
>  <reaction>  (6) 
rxn_1392

>  <mol_properties>  (6) 
{"1": {"label": "*0", "atom_type": "Ct"}, "2": {"label": "*1", "atom_type": "Cs"}, "7": {"label": "*2", "atom_type": "H0"}, "12": {"label": "*4", "atom_type": "Cs"}, "13": {"label": "*3", "atom_type": "Cs"}}

>  <type>  (6) 
unop_2

>  <geom_source>  (6) 
Heuristics

$$$$

     RDKit          3D

 22 20  0  0  0  0  0  0  0  0999 V2000
   -0.7991    0.0724   -2.8087 C   0  0  0  0  0  0  0  0  0  0  0  0
   -0.7991    0.0724   -1.6125 C   0  0  0  0  0  0  0  0  0  0  0  0
   -0.7991    0.1124   -0.1460 C   0  0  0  0  0  3  0  0  0  0  0  0
   -1.4371    1.4117    0.3760 C   0  0  0  0  0  0  0  0  0  0  0  0
   -1.4610   -1.0688    0.4188 C   0  0  0  0  0  0  0  0  0  0  0  0
   -2.0092   -2.0141    0.9053 C   0  0  0  0  0  0  0  0  0  0  0  0
   -0.7991    0.0724   -3.8722 H   0  0  0  0  0  0  0  0  0  0  0  0
    0.4545    0.0852    0.2471 H   0  0  0  0  0  0  0  0  0  0  0  0
   -2.4804    1.4689    0.0682 H   0  0  0  0  0  0  0  0  0  0  0  0
   -0.9045    2.2731   -0.0256 H   0  0  0  0  0  0  0  0  0  0  0  0
   -1.3900    1.4361    1.4642 H   0  0  0  0  0  0  0  0  0  0  0  0
   -2.4966   -2.8545    1.3378 H   0  0  0  0  0  0  0  0  0  0  0  0
    1.8406    0.8088    1.9584 C   0  0  0  0  0  0  0  0  0  0  0  0
    1.7063    0.0580    0.6397 C   0  0  0  0  0  0  0  0  0  0  0  0
    2.9698    0.1307   -0.2082 C   0  0  0  0  0  0  0  0  0  0  0  0
    2.0547    1.8663    1.7857 H   0  0  0  0  0  0  0  0  0  0  0  0
    0.9265    0.7452    2.5511 H   0  0  0  0  0  0  0  0  0  0  0  0
    2.6577    0.4011    2.5586 H   0  0  0  0  0  0  0  0  0  0  0  0
    1.4622   -0.9889    0.8402 H   0  0  0  0  0  0  0  0  0  0  0  0
    3.8224   -0.2984    0.3237 H   0  0  0  0  0  0  0  0  0  0  0  0
    2.8542   -0.4124   -1.1477 H   0  0  0  0  0  0  0  0  0  0  0  0
    3.2194    1.1669   -0.4491 H   0  0  0  0  0  0  0  0  0  0  0  0
  1  2  3  0
  1  7  1  0
  2  3  1  0
  3  4  1  0
  3  5  1  0
  4  9  1  0
  4 10  1  0
  4 11  1  0
  5  6  3  0
  6 12  1  0
  8 14  1  0
 13 14  1  0
 13 16  1  0
 13 17  1  0
 13 18  1  0
 14 15  1  0
 14 19  1  0
 15 20  1  0
 15 21  1  0
 15 22  1  0
M  RAD  1   3   2
M  END
>  <reaction>  (7) 
rxn_1392

>  <mol_properties>  (7) 
{"1": {"label": "*0", "atom_type": "Ct"}, "2": {"label": "*1", "atom_type": "Cs"}, "7": {"label": "*2", "atom_type": "H0"}, "12": {"label": "*4", "atom_type": "Cs"}, "13": {"label": "*3", "atom_type": "Cs"}}

>  <type>  (7) 
unop_3

>  <geom_source>  (7) 
Heuristics

$$$$

     RDKit          3D

 22 20  0  0  0  0  0  0  0  0999 V2000
   -0.6284    0.3531   -2.8604 C   0  0  0  0  0  0  0  0  0  0  0  0
   -0.6284    0.3531   -1.6642 C   0  0  0  0  0  0  0  0  0  0  0  0
   -0.6284    0.3932   -0.1976 C   0  0  0  0  0  3  0  0  0  0  0  0
   -1.2665    1.6924    0.3244 C   0  0  0  0  0  0  0  0  0  0  0  0
   -1.2903   -0.7881    0.3671 C   0  0  0  0  0  0  0  0  0  0  0  0
   -1.8385   -1.7333    0.8536 C   0  0  0  0  0  0  0  0  0  0  0  0
   -0.6284    0.3531   -3.9238 H   0  0  0  0  0  0  0  0  0  0  0  0
    0.6252    0.3659    0.1955 H   0  0  0  0  0  0  0  0  0  0  0  0
   -2.3097    1.7497    0.0166 H   0  0  0  0  0  0  0  0  0  0  0  0
   -0.7338    2.5538   -0.0773 H   0  0  0  0  0  0  0  0  0  0  0  0
   -1.2193    1.7168    1.4126 H   0  0  0  0  0  0  0  0  0  0  0  0
   -2.3259   -2.5738    1.2861 H   0  0  0  0  0  0  0  0  0  0  0  0
    2.5374   -0.9400    0.0887 C   0  0  0  0  0  0  0  0  0  0  0  0
    1.8770    0.3387    0.5881 C   0  0  0  0  0  0  0  0  0  0  0  0
    1.2450    0.1738    1.9643 C   0  0  0  0  0  0  0  0  0  0  0  0
    1.8103   -1.7525    0.0162 H   0  0  0  0  0  0  0  0  0  0  0  0
    2.9839   -0.8021   -0.8975 H   0  0  0  0  0  0  0  0  0  0  0  0
    3.3267   -1.2642    0.7712 H   0  0  0  0  0  0  0  0  0  0  0  0
    2.6183    1.1420    0.6218 H   0  0  0  0  0  0  0  0  0  0  0  0
    1.9936   -0.1153    2.7058 H   0  0  0  0  0  0  0  0  0  0  0  0
    0.7775    1.0994    2.3045 H   0  0  0  0  0  0  0  0  0  0  0  0
    0.4772   -0.6036    1.9509 H   0  0  0  0  0  0  0  0  0  0  0  0
  1  2  3  0
  1  7  1  0
  2  3  1  0
  3  4  1  0
  3  5  1  0
  4  9  1  0
  4 10  1  0
  4 11  1  0
  5  6  3  0
  6 12  1  0
  8 14  1  0
 13 14  1  0
 13 16  1  0
 13 17  1  0
 13 18  1  0
 14 15  1  0
 14 19  1  0
 15 20  1  0
 15 21  1  0
 15 22  1  0
M  RAD  1   3   2
M  END
>  <reaction>  (8) 
rxn_1392

>  <mol_properties>  (8) 
{"1": {"label": "*0", "atom_type": "Ct"}, "2": {"label": "*1", "atom_type": "Cs"}, "7": {"label": "*2", "atom_type": "H0"}, "12": {"label": "*4", "atom_type": "Cs"}, "13": {"label": "*3", "atom_type": "Cs"}}

>  <type>  (8) 
unop_4

>  <geom_source>  (8) 
Heuristics

$$$$

     RDKit          3D

 22 20  0  0  0  0  0  0  0  0999 V2000
   -0.7283    0.0233   -2.8571 C   0  0  0  0  0  0  0  0  0  0  0  0
   -0.7283    0.0233   -1.6610 C   0  0  0  0  0  0  0  0  0  0  0  0
   -0.7283    0.0634   -0.1944 C   0  0  0  0  0  3  0  0  0  0  0  0
   -1.3663    1.3626    0.3276 C   0  0  0  0  0  0  0  0  0  0  0  0
   -1.3902   -1.1178    0.3704 C   0  0  0  0  0  0  0  0  0  0  0  0
   -1.9384   -2.0631    0.8569 C   0  0  0  0  0  0  0  0  0  0  0  0
   -0.7283    0.0233   -3.9206 H   0  0  0  0  0  0  0  0  0  0  0  0
    0.5253    0.0362    0.1987 H   0  0  0  0  0  0  0  0  0  0  0  0
   -2.4096    1.4199    0.0198 H   0  0  0  0  0  0  0  0  0  0  0  0
   -0.8337    2.2241   -0.0741 H   0  0  0  0  0  0  0  0  0  0  0  0
   -1.3191    1.3871    1.4158 H   0  0  0  0  0  0  0  0  0  0  0  0
   -2.4258   -2.9035    1.2894 H   0  0  0  0  0  0  0  0  0  0  0  0
    1.8323    0.0489    2.1131 C   0  0  0  0  0  0  0  0  0  0  0  0
    1.7771    0.0090    0.5913 C   0  0  0  0  0  0  0  0  0  0  0  0
    2.5360    1.1616   -0.0537 C   0  0  0  0  0  0  0  0  0  0  0  0
    1.3992    0.9764    2.4955 H   0  0  0  0  0  0  0  0  0  0  0  0
    1.2836   -0.7838    2.5564 H   0  0  0  0  0  0  0  0  0  0  0  0
    2.8644   -0.0036    2.4681 H   0  0  0  0  0  0  0  0  0  0  0  0
    2.1876   -0.9406    0.2370 H   0  0  0  0  0  0  0  0  0  0  0  0
    3.5903    1.1442    0.2330 H   0  0  0  0  0  0  0  0  0  0  0  0
    2.4850    1.1158   -1.1429 H   0  0  0  0  0  0  0  0  0  0  0  0
    2.1251    2.1242    0.2604 H   0  0  0  0  0  0  0  0  0  0  0  0
  1  2  3  0
  1  7  1  0
  2  3  1  0
  3  4  1  0
  3  5  1  0
  4  9  1  0
  4 10  1  0
  4 11  1  0
  5  6  3  0
  6 12  1  0
  8 14  1  0
 13 14  1  0
 13 16  1  0
 13 17  1  0
 13 18  1  0
 14 15  1  0
 14 19  1  0
 15 20  1  0
 15 21  1  0
 15 22  1  0
M  RAD  1   3   2
M  END
>  <reaction>  (9) 
rxn_1392

>  <mol_properties>  (9) 
{"1": {"label": "*0", "atom_type": "Ct"}, "2": {"label": "*1", "atom_type": "Cs"}, "7": {"label": "*2", "atom_type": "H0"}, "12": {"label": "*4", "atom_type": "Cs"}, "13": {"label": "*3", "atom_type": "Cs"}}

>  <type>  (9) 
unop_5

>  <geom_source>  (9) 
Heuristics

$$$$

     RDKit          3D

 22 20  0  0  0  0  0  0  0  0999 V2000
   -0.5866    0.2827   -2.9270 C   0  0  0  0  0  0  0  0  0  0  0  0
   -0.5866    0.2827   -1.7308 C   0  0  0  0  0  0  0  0  0  0  0  0
   -0.5866    0.3228   -0.2642 C   0  0  0  0  0  3  0  0  0  0  0  0
   -1.2246    1.6220    0.2578 C   0  0  0  0  0  0  0  0  0  0  0  0
   -1.2484   -0.8585    0.3005 C   0  0  0  0  0  0  0  0  0  0  0  0
   -1.7967   -1.8037    0.7870 C   0  0  0  0  0  0  0  0  0  0  0  0
   -0.5866    0.2827   -3.9904 H   0  0  0  0  0  0  0  0  0  0  0  0
    0.6670    0.2955    0.1289 H   0  0  0  0  0  0  0  0  0  0  0  0
   -2.2679    1.6793   -0.0500 H   0  0  0  0  0  0  0  0  0  0  0  0
   -0.6920    2.4834   -0.1439 H   0  0  0  0  0  0  0  0  0  0  0  0
   -1.1774    1.6464    1.3460 H   0  0  0  0  0  0  0  0  0  0  0  0
   -2.2841   -2.6442    1.2195 H   0  0  0  0  0  0  0  0  0  0  0  0
    2.3591   -1.1774    0.7124 C   0  0  0  0  0  0  0  0  0  0  0  0
    1.9188    0.2683    0.5215 C   0  0  0  0  0  0  0  0  0  0  0  0
    1.1782    0.8209    1.7325 C   0  0  0  0  0  0  0  0  0  0  0  0
    1.4990   -1.8274    0.8907 H   0  0  0  0  0  0  0  0  0  0  0  0
    2.8873   -1.5551   -0.1647 H   0  0  0  0  0  0  0  0  0  0  0  0
    3.0272   -1.2721    1.5719 H   0  0  0  0  0  0  0  0  0  0  0  0
    2.7937    0.8909    0.3146 H   0  0  0  0  0  0  0  0  0  0  0  0
    1.8091    0.7892    2.6242 H   0  0  0  0  0  0  0  0  0  0  0  0
    0.8713    1.8565    1.5769 H   0  0  0  0  0  0  0  0  0  0  0  0
    0.2809    0.2340    1.9430 H   0  0  0  0  0  0  0  0  0  0  0  0
  1  2  3  0
  1  7  1  0
  2  3  1  0
  3  4  1  0
  3  5  1  0
  4  9  1  0
  4 10  1  0
  4 11  1  0
  5  6  3  0
  6 12  1  0
  8 14  1  0
 13 14  1  0
 13 16  1  0
 13 17  1  0
 13 18  1  0
 14 15  1  0
 14 19  1  0
 15 20  1  0
 15 21  1  0
 15 22  1  0
M  RAD  1   3   2
M  END
>  <reaction>  (10) 
rxn_1392

>  <mol_properties>  (10) 
{"1": {"label": "*0", "atom_type": "Ct"}, "2": {"label": "*1", "atom_type": "Cs"}, "7": {"label": "*2", "atom_type": "H0"}, "12": {"label": "*4", "atom_type": "Cs"}, "13": {"label": "*3", "atom_type": "Cs"}}

>  <type>  (10) 
unop_6

>  <geom_source>  (10) 
Heuristics

$$$$

     RDKit          3D

 22 20  0  0  0  0  0  0  0  0999 V2000
   -0.5794    0.1766   -2.9572 C   0  0  0  0  0  0  0  0  0  0  0  0
   -0.5794    0.1766   -1.7610 C   0  0  0  0  0  0  0  0  0  0  0  0
   -0.5794    0.2166   -0.2945 C   0  0  0  0  0  3  0  0  0  0  0  0
   -1.2174    1.5158    0.2275 C   0  0  0  0  0  0  0  0  0  0  0  0
   -1.2412   -0.9646    0.2703 C   0  0  0  0  0  0  0  0  0  0  0  0
   -1.7894   -1.9099    0.7568 C   0  0  0  0  0  0  0  0  0  0  0  0
   -0.5794    0.1766   -4.0207 H   0  0  0  0  0  0  0  0  0  0  0  0
    0.6742    0.1894    0.0986 H   0  0  0  0  0  0  0  0  0  0  0  0
   -2.2607    1.5731   -0.0803 H   0  0  0  0  0  0  0  0  0  0  0  0
   -0.6848    2.3773   -0.1741 H   0  0  0  0  0  0  0  0  0  0  0  0
   -1.1702    1.5403    1.3157 H   0  0  0  0  0  0  0  0  0  0  0  0
   -2.2769   -2.7503    1.1893 H   0  0  0  0  0  0  0  0  0  0  0  0
    2.1578   -1.0661    1.3620 C   0  0  0  0  0  0  0  0  0  0  0  0
    1.9261    0.1622    0.4912 C   0  0  0  0  0  0  0  0  0  0  0  0
    1.3340    1.3300    1.2698 C   0  0  0  0  0  0  0  0  0  0  0  0
    1.2212   -1.4134    1.8048 H   0  0  0  0  0  0  0  0  0  0  0  0
    2.5818   -1.8911    0.7871 H   0  0  0  0  0  0  0  0  0  0  0  0
    2.8455   -0.8405    2.1806 H   0  0  0  0  0  0  0  0  0  0  0  0
    2.8719    0.4699    0.0367 H   0  0  0  0  0  0  0  0  0  0  0  0
    1.9957    1.6312    2.0856 H   0  0  0  0  0  0  0  0  0  0  0  0
    1.1754    2.1996    0.6297 H   0  0  0  0  0  0  0  0  0  0  0  0
    0.3714    1.0583    1.7098 H   0  0  0  0  0  0  0  0  0  0  0  0
  1  2  3  0
  1  7  1  0
  2  3  1  0
  3  4  1  0
  3  5  1  0
  4  9  1  0
  4 10  1  0
  4 11  1  0
  5  6  3  0
  6 12  1  0
  8 14  1  0
 13 14  1  0
 13 16  1  0
 13 17  1  0
 13 18  1  0
 14 15  1  0
 14 19  1  0
 15 20  1  0
 15 21  1  0
 15 22  1  0
M  RAD  1   3   2
M  END
>  <reaction>  (11) 
rxn_1392

>  <mol_properties>  (11) 
{"1": {"label": "*0", "atom_type": "Ct"}, "2": {"label": "*1", "atom_type": "Cs"}, "7": {"label": "*2", "atom_type": "H0"}, "12": {"label": "*4", "atom_type": "Cs"}, "13": {"label": "*3", "atom_type": "Cs"}}

>  <type>  (11) 
unop_7

>  <geom_source>  (11) 
Heuristics

$$$$

     RDKit          3D

 22 20  0  0  0  0  0  0  0  0999 V2000
   -0.8279    0.1219   -2.7551 C   0  0  0  0  0  0  0  0  0  0  0  0
   -0.8279    0.1219   -1.5589 C   0  0  0  0  0  0  0  0  0  0  0  0
   -0.8279    0.1620   -0.0924 C   0  0  0  0  0  3  0  0  0  0  0  0
   -1.4660    1.4612    0.4296 C   0  0  0  0  0  0  0  0  0  0  0  0
   -1.4898   -1.0193    0.4724 C   0  0  0  0  0  0  0  0  0  0  0  0
   -2.0380   -1.9646    0.9589 C   0  0  0  0  0  0  0  0  0  0  0  0
   -0.8279    0.1219   -3.8186 H   0  0  0  0  0  0  0  0  0  0  0  0
    0.4257    0.1347    0.3007 H   0  0  0  0  0  0  0  0  0  0  0  0
   -2.5092    1.5184    0.1218 H   0  0  0  0  0  0  0  0  0  0  0  0
   -0.9333    2.3226    0.0279 H   0  0  0  0  0  0  0  0  0  0  0  0
   -1.4188    1.4856    1.5178 H   0  0  0  0  0  0  0  0  0  0  0  0
   -2.5254   -2.8050    1.3914 H   0  0  0  0  0  0  0  0  0  0  0  0
    2.2047    1.5323    0.8058 C   0  0  0  0  0  0  0  0  0  0  0  0
    1.6775    0.1075    0.6933 C   0  0  0  0  0  0  0  0  0  0  0  0
    2.7933   -0.9253    0.5990 C   0  0  0  0  0  0  0  0  0  0  0  0
    2.8149    1.7927   -0.0625 H   0  0  0  0  0  0  0  0  0  0  0  0
    1.3914    2.2569    0.8723 H   0  0  0  0  0  0  0  0  0  0  0  0
    2.8299    1.6484    1.6945 H   0  0  0  0  0  0  0  0  0  0  0  0
    1.0464   -0.1164    1.5578 H   0  0  0  0  0  0  0  0  0  0  0  0
    3.4370   -0.8865    1.4811 H   0  0  0  0  0  0  0  0  0  0  0  0
    2.3963   -1.9386    0.5192 H   0  0  0  0  0  0  0  0  0  0  0  0
    3.4220   -0.7423   -0.2758 H   0  0  0  0  0  0  0  0  0  0  0  0
  1  2  3  0
  1  7  1  0
  2  3  1  0
  3  4  1  0
  3  5  1  0
  4  9  1  0
  4 10  1  0
  4 11  1  0
  5  6  3  0
  6 12  1  0
  8 14  1  0
 13 14  1  0
 13 16  1  0
 13 17  1  0
 13 18  1  0
 14 15  1  0
 14 19  1  0
 15 20  1  0
 15 21  1  0
 15 22  1  0
M  RAD  1   3   2
M  END
>  <reaction>  (12) 
rxn_1392

>  <mol_properties>  (12) 
{"1": {"label": "*0", "atom_type": "Ct"}, "2": {"label": "*1", "atom_type": "Cs"}, "7": {"label": "*2", "atom_type": "H0"}, "12": {"label": "*4", "atom_type": "Cs"}, "13": {"label": "*3", "atom_type": "Cs"}}

>  <type>  (12) 
unop_8

>  <geom_source>  (12) 
Heuristics

$$$$

     RDKit          3D

 22 20  0  0  0  0  0  0  0  0999 V2000
   -0.6945    0.3698   -2.7798 C   0  0  0  0  0  0  0  0  0  0  0  0
   -0.6945    0.3698   -1.5836 C   0  0  0  0  0  0  0  0  0  0  0  0
   -0.6945    0.4099   -0.1171 C   0  0  0  0  0  3  0  0  0  0  0  0
   -1.3325    1.7091    0.4049 C   0  0  0  0  0  0  0  0  0  0  0  0
   -1.3563   -0.7714    0.4477 C   0  0  0  0  0  0  0  0  0  0  0  0
   -1.9046   -1.7167    0.9342 C   0  0  0  0  0  0  0  0  0  0  0  0
   -0.6945    0.3698   -3.8432 H   0  0  0  0  0  0  0  0  0  0  0  0
    0.5591    0.3826    0.2761 H   0  0  0  0  0  0  0  0  0  0  0  0
   -2.3758    1.7663    0.0972 H   0  0  0  0  0  0  0  0  0  0  0  0
   -0.7999    2.5705    0.0033 H   0  0  0  0  0  0  0  0  0  0  0  0
   -1.2853    1.7335    1.4932 H   0  0  0  0  0  0  0  0  0  0  0  0
   -2.3920   -2.5571    1.3667 H   0  0  0  0  0  0  0  0  0  0  0  0
    2.6441   -0.4164   -0.3466 C   0  0  0  0  0  0  0  0  0  0  0  0
    1.8109    0.3554    0.6687 C   0  0  0  0  0  0  0  0  0  0  0  0
    1.5261   -0.4517    1.9288 C   0  0  0  0  0  0  0  0  0  0  0  0
    2.1333   -1.3314   -0.6562 H   0  0  0  0  0  0  0  0  0  0  0  0
    2.8375    0.1776   -1.2414 H   0  0  0  0  0  0  0  0  0  0  0  0
    3.6085   -0.7052    0.0783 H   0  0  0  0  0  0  0  0  0  0  0  0
    2.3296    1.2797    0.9378 H   0  0  0  0  0  0  0  0  0  0  0  0
    2.4553   -0.7416    2.4254 H   0  0  0  0  0  0  0  0  0  0  0  0
    0.9288    0.1174    2.6432 H   0  0  0  0  0  0  0  0  0  0  0  0
    0.9801   -1.3678    1.6909 H   0  0  0  0  0  0  0  0  0  0  0  0
  1  2  3  0
  1  7  1  0
  2  3  1  0
  3  4  1  0
  3  5  1  0
  4  9  1  0
  4 10  1  0
  4 11  1  0
  5  6  3  0
  6 12  1  0
  8 14  1  0
 13 14  1  0
 13 16  1  0
 13 17  1  0
 13 18  1  0
 14 15  1  0
 14 19  1  0
 15 20  1  0
 15 21  1  0
 15 22  1  0
M  RAD  1   3   2
M  END
>  <reaction>  (13) 
rxn_1392

>  <mol_properties>  (13) 
{"1": {"label": "*0", "atom_type": "Ct"}, "2": {"label": "*1", "atom_type": "Cs"}, "7": {"label": "*2", "atom_type": "H0"}, "12": {"label": "*4", "atom_type": "Cs"}, "13": {"label": "*3", "atom_type": "Cs"}}

>  <type>  (13) 
unop_9

>  <geom_source>  (13) 
Heuristics

$$$$

     RDKit          3D

 22 20  0  0  0  0  0  0  0  0999 V2000
   -0.8316    0.1647   -2.7153 C   0  0  0  0  0  0  0  0  0  0  0  0
   -0.8316    0.1647   -1.5192 C   0  0  0  0  0  0  0  0  0  0  0  0
   -0.8316    0.2048   -0.0526 C   0  0  0  0  0  3  0  0  0  0  0  0
   -1.4697    1.5040    0.4694 C   0  0  0  0  0  0  0  0  0  0  0  0
   -1.4935   -0.9765    0.5122 C   0  0  0  0  0  0  0  0  0  0  0  0
   -2.0417   -1.9217    0.9986 C   0  0  0  0  0  0  0  0  0  0  0  0
   -0.8316    0.1647   -3.7788 H   0  0  0  0  0  0  0  0  0  0  0  0
    0.4219    0.1775    0.3405 H   0  0  0  0  0  0  0  0  0  0  0  0
   -2.5129    1.5613    0.1616 H   0  0  0  0  0  0  0  0  0  0  0  0
   -0.9371    2.3654    0.0677 H   0  0  0  0  0  0  0  0  0  0  0  0
   -1.4225    1.5284    1.5576 H   0  0  0  0  0  0  0  0  0  0  0  0
   -2.5291   -2.7622    1.4312 H   0  0  0  0  0  0  0  0  0  0  0  0
    2.4095    1.3576    0.1658 C   0  0  0  0  0  0  0  0  0  0  0  0
    1.6738    0.1503    0.7331 C   0  0  0  0  0  0  0  0  0  0  0  0
    2.6020   -1.0253    1.0103 C   0  0  0  0  0  0  0  0  0  0  0  0
    2.9046    1.1065   -0.7754 H   0  0  0  0  0  0  0  0  0  0  0  0
    1.7286    2.1886   -0.0260 H   0  0  0  0  0  0  0  0  0  0  0  0
    3.1781    1.7079    0.8590 H   0  0  0  0  0  0  0  0  0  0  0  0
    1.1629    0.4364    1.6566 H   0  0  0  0  0  0  0  0  0  0  0  0
    3.3766   -0.7501    1.7302 H   0  0  0  0  0  0  0  0  0  0  0  0
    2.0572   -1.8796    1.4158 H   0  0  0  0  0  0  0  0  0  0  0  0
    3.1031   -1.3515    0.0957 H   0  0  0  0  0  0  0  0  0  0  0  0
  1  2  3  0
  1  7  1  0
  2  3  1  0
  3  4  1  0
  3  5  1  0
  4  9  1  0
  4 10  1  0
  4 11  1  0
  5  6  3  0
  6 12  1  0
  8 14  1  0
 13 14  1  0
 13 16  1  0
 13 17  1  0
 13 18  1  0
 14 15  1  0
 14 19  1  0
 15 20  1  0
 15 21  1  0
 15 22  1  0
M  RAD  1   3   2
M  END
>  <reaction>  (14) 
rxn_1392

>  <mol_properties>  (14) 
{"1": {"label": "*0", "atom_type": "Ct"}, "2": {"label": "*1", "atom_type": "Cs"}, "7": {"label": "*2", "atom_type": "H0"}, "12": {"label": "*4", "atom_type": "Cs"}, "13": {"label": "*3", "atom_type": "Cs"}}

>  <type>  (14) 
unop_10

>  <geom_source>  (14) 
Heuristics

$$$$

     RDKit          3D

 22 20  0  0  0  0  0  0  0  0999 V2000
   -0.6240    0.0648   -2.9327 C   0  0  0  0  0  0  0  0  0  0  0  0
   -0.6240    0.0648   -1.7365 C   0  0  0  0  0  0  0  0  0  0  0  0
   -0.6240    0.1049   -0.2700 C   0  0  0  0  0  3  0  0  0  0  0  0
   -1.2620    1.4041    0.2520 C   0  0  0  0  0  0  0  0  0  0  0  0
   -1.2858   -1.0763    0.2948 C   0  0  0  0  0  0  0  0  0  0  0  0
   -1.8341   -2.0216    0.7813 C   0  0  0  0  0  0  0  0  0  0  0  0
   -0.6240    0.0648   -3.9961 H   0  0  0  0  0  0  0  0  0  0  0  0
    0.6296    0.0777    0.1232 H   0  0  0  0  0  0  0  0  0  0  0  0
   -2.3053    1.4614   -0.0557 H   0  0  0  0  0  0  0  0  0  0  0  0
   -0.7294    2.2655   -0.1496 H   0  0  0  0  0  0  0  0  0  0  0  0
   -1.2148    1.4286    1.3403 H   0  0  0  0  0  0  0  0  0  0  0  0
   -2.3215   -2.8620    1.2138 H   0  0  0  0  0  0  0  0  0  0  0  0
    1.9723   -0.6340    1.8736 C   0  0  0  0  0  0  0  0  0  0  0  0
    1.8814    0.0505    0.5158 C   0  0  0  0  0  0  0  0  0  0  0  0
    1.7764    1.5660    0.6285 C   0  0  0  0  0  0  0  0  0  0  0  0
    1.0911   -0.4145    2.4815 H   0  0  0  0  0  0  0  0  0  0  0  0
    2.0467   -1.7181    1.7722 H   0  0  0  0  0  0  0  0  0  0  0  0
    2.8487   -0.2887    2.4273 H   0  0  0  0  0  0  0  0  0  0  0  0
    2.7588   -0.2101   -0.0826 H   0  0  0  0  0  0  0  0  0  0  0  0
    2.6467    1.9807    1.1430 H   0  0  0  0  0  0  0  0  0  0  0  0
    1.7124    2.0378   -0.3534 H   0  0  0  0  0  0  0  0  0  0  0  0
    0.8891    1.8548    1.1971 H   0  0  0  0  0  0  0  0  0  0  0  0
  1  2  3  0
  1  7  1  0
  2  3  1  0
  3  4  1  0
  3  5  1  0
  4  9  1  0
  4 10  1  0
  4 11  1  0
  5  6  3  0
  6 12  1  0
  8 14  1  0
 13 14  1  0
 13 16  1  0
 13 17  1  0
 13 18  1  0
 14 15  1  0
 14 19  1  0
 15 20  1  0
 15 21  1  0
 15 22  1  0
M  RAD  1   3   2
M  END
>  <reaction>  (15) 
rxn_1392

>  <mol_properties>  (15) 
{"1": {"label": "*0", "atom_type": "Ct"}, "2": {"label": "*1", "atom_type": "Cs"}, "7": {"label": "*2", "atom_type": "H0"}, "12": {"label": "*4", "atom_type": "Cs"}, "13": {"label": "*3", "atom_type": "Cs"}}

>  <type>  (15) 
unop_11

>  <geom_source>  (15) 
Heuristics

$$$$

     RDKit          3D

 22 20  0  0  0  0  0  0  0  0999 V2000
   -0.7664    0.3247   -2.7147 C   0  0  0  0  0  0  0  0  0  0  0  0
   -0.7664    0.3247   -1.5186 C   0  0  0  0  0  0  0  0  0  0  0  0
   -0.7664    0.3648   -0.0520 C   0  0  0  0  0  3  0  0  0  0  0  0
   -1.4044    1.6640    0.4700 C   0  0  0  0  0  0  0  0  0  0  0  0
   -1.4283   -0.8165    0.5127 C   0  0  0  0  0  0  0  0  0  0  0  0
   -1.9765   -1.7618    0.9992 C   0  0  0  0  0  0  0  0  0  0  0  0
   -0.7664    0.3247   -3.7782 H   0  0  0  0  0  0  0  0  0  0  0  0
    0.4872    0.3375    0.3411 H   0  0  0  0  0  0  0  0  0  0  0  0
   -2.4477    1.7212    0.1622 H   0  0  0  0  0  0  0  0  0  0  0  0
   -0.8718    2.5254    0.0683 H   0  0  0  0  0  0  0  0  0  0  0  0
   -1.3573    1.6884    1.5582 H   0  0  0  0  0  0  0  0  0  0  0  0
   -2.4639   -2.6022    1.4317 H   0  0  0  0  0  0  0  0  0  0  0  0
    2.6513    0.2494   -0.4847 C   0  0  0  0  0  0  0  0  0  0  0  0
    1.7390    0.3103    0.7337 C   0  0  0  0  0  0  0  0  0  0  0  0
    1.9476   -0.8633    1.6821 C   0  0  0  0  0  0  0  0  0  0  0  0
    2.4778   -0.6649   -1.0574 H   0  0  0  0  0  0  0  0  0  0  0  0
    2.4873    1.0976   -1.1515 H   0  0  0  0  0  0  0  0  0  0  0  0
    3.7025    0.2566   -0.1864 H   0  0  0  0  0  0  0  0  0  0  0  0
    1.9110    1.2473    1.2707 H   0  0  0  0  0  0  0  0  0  0  0  0
    2.9766   -0.8912    2.0488 H   0  0  0  0  0  0  0  0  0  0  0  0
    1.2859   -0.8021    2.5478 H   0  0  0  0  0  0  0  0  0  0  0  0
    1.7519   -1.8127    1.1778 H   0  0  0  0  0  0  0  0  0  0  0  0
  1  2  3  0
  1  7  1  0
  2  3  1  0
  3  4  1  0
  3  5  1  0
  4  9  1  0
  4 10  1  0
  4 11  1  0
  5  6  3  0
  6 12  1  0
  8 14  1  0
 13 14  1  0
 13 16  1  0
 13 17  1  0
 13 18  1  0
 14 15  1  0
 14 19  1  0
 15 20  1  0
 15 21  1  0
 15 22  1  0
M  RAD  1   3   2
M  END
>  <reaction>  (16) 
rxn_1392

>  <mol_properties>  (16) 
{"1": {"label": "*0", "atom_type": "Ct"}, "2": {"label": "*1", "atom_type": "Cs"}, "7": {"label": "*2", "atom_type": "H0"}, "12": {"label": "*4", "atom_type": "Cs"}, "13": {"label": "*3", "atom_type": "Cs"}}

>  <type>  (16) 
unop_12

>  <geom_source>  (16) 
Heuristics

$$$$

     RDKit          3D

 22 20  0  0  0  0  0  0  0  0999 V2000
    1.3332   -0.4248    0.2094 C   0  0  0  0  0  0  0  0  0  0  0  0
    2.1592    0.7968    0.5974 C   0  0  0  0  0  0  0  0  0  0  0  0
    1.9665   -1.1759   -0.9566 C   0  0  0  0  0  0  0  0  0  0  0  0
   -1.6739    0.0552    1.5725 C   0  0  0  0  0  0  0  0  0  0  0  0
   -1.1853    0.1719    0.1316 C   0  0  0  0  0  3  0  0  0  0  0  0
   -1.5195    1.4885   -0.4251 C   0  0  0  0  0  0  0  0  0  0  0  0
   -1.7744   -0.8818   -0.7036 C   0  0  0  0  0  0  0  0  0  0  0  0
   -1.7925    2.5707   -0.8817 C   0  0  0  0  0  0  0  0  0  0  0  0
   -2.2570   -1.7485   -1.3893 C   0  0  0  0  0  0  0  0  0  0  0  0
    1.2499   -1.1055    1.0840 H   0  0  0  0  0  0  0  0  0  0  0  0
    0.1372   -0.0401   -0.1306 H   0  0  0  0  0  0  0  0  0  0  0  0
    2.2315    1.4994   -0.2597 H   0  0  0  0  0  0  0  0  0  0  0  0
    1.6687    1.3200    1.4447 H   0  0  0  0  0  0  0  0  0  0  0  0
    3.1801    0.4899    0.9100 H   0  0  0  0  0  0  0  0  0  0  0  0
    1.3391   -2.0548   -1.2138 H   0  0  0  0  0  0  0  0  0  0  0  0
    2.0348   -0.5156   -1.8471 H   0  0  0  0  0  0  0  0  0  0  0  0
    2.9827   -1.5307   -0.6818 H   0  0  0  0  0  0  0  0  0  0  0  0
   -1.3897   -0.9348    1.9886 H   0  0  0  0  0  0  0  0  0  0  0  0
   -2.7790    0.1676    1.6272 H   0  0  0  0  0  0  0  0  0  0  0  0
   -1.1987    0.8411    2.1973 H   0  0  0  0  0  0  0  0  0  0  0  0
   -2.0323    3.5203   -1.2824 H   0  0  0  0  0  0  0  0  0  0  0  0
   -2.6807   -2.5090   -1.9909 H   0  0  0  0  0  0  0  0  0  0  0  0
  1  2  1  0
  1  3  1  0
  1 10  1  0
  1 11  1  0
  2 12  1  0
  2 13  1  0
  2 14  1  0
  3 15  1  0
  3 16  1  0
  3 17  1  0
  4  5  1  0
  4 18  1  0
  4 19  1  0
  4 20  1  0
  5  6  1  0
  5  7  1  0
  6  8  3  0
  7  9  3  0
  8 21  1  0
  9 22  1  0
M  RAD  1   5   2
M  END
>  <reaction>  (17) 
rxn_1392

>  <mol_properties>  (17) 
{"1": {"label": "*0", "atom_type": "Ct"}, "2": {"label": "*1", "atom_type": "Cs"}, "7": {"label": "*2", "atom_type": "H0"}, "12": {"label": "*4", "atom_type": "Cs"}, "13": {"label": "*3", "atom_type": "Cs"}}

>  <type>  (17) 
unop_13

>  <geom_source>  (17) 
AutoTST

$$$$

     RDKit          3D

 22 20  0  0  0  0  0  0  0  0999 V2000
   -0.8156    0.2406   -2.6933 C   0  0  0  0  0  0  0  0  0  0  0  0
   -0.8156    0.2406   -1.4971 C   0  0  0  0  0  0  0  0  0  0  0  0
   -0.8156    0.2807   -0.0306 C   0  0  0  0  0  3  0  0  0  0  0  0
   -1.4536    1.5799    0.4914 C   0  0  0  0  0  0  0  0  0  0  0  0
   -1.4774   -0.9005    0.5342 C   0  0  0  0  0  0  0  0  0  0  0  0
   -2.0257   -1.8458    1.0207 C   0  0  0  0  0  0  0  0  0  0  0  0
   -0.8156    0.2406   -3.7567 H   0  0  0  0  0  0  0  0  0  0  0  0
    0.4380    0.2535    0.3626 H   0  0  0  0  0  0  0  0  0  0  0  0
   -2.4969    1.6372    0.1837 H   0  0  0  0  0  0  0  0  0  0  0  0
   -0.9210    2.4413    0.0898 H   0  0  0  0  0  0  0  0  0  0  0  0
   -1.4064    1.6044    1.5796 H   0  0  0  0  0  0  0  0  0  0  0  0
   -2.5131   -2.6862    1.4532 H   0  0  0  0  0  0  0  0  0  0  0  0
    2.5665    0.8897   -0.2993 C   0  0  0  0  0  0  0  0  0  0  0  0
    1.6899    0.2263    0.7552 C   0  0  0  0  0  0  0  0  0  0  0  0
    2.3355   -1.0144    1.3589 C   0  0  0  0  0  0  0  0  0  0  0  0
    2.7774    0.2014   -1.1214 H   0  0  0  0  0  0  0  0  0  0  0  0
    2.0875    1.7756   -0.7197 H   0  0  0  0  0  0  0  0  0  0  0  0
    3.5246    1.1975    0.1266 H   0  0  0  0  0  0  0  0  0  0  0  0
    1.4689    0.9447    1.5494 H   0  0  0  0  0  0  0  0  0  0  0  0
    3.2863   -0.7665    1.8371 H   0  0  0  0  0  0  0  0  0  0  0  0
    1.6931   -1.4751    2.1113 H   0  0  0  0  0  0  0  0  0  0  0  0
    2.5391   -1.7627    0.5891 H   0  0  0  0  0  0  0  0  0  0  0  0
  1  2  3  0
  1  7  1  0
  2  3  1  0
  3  4  1  0
  3  5  1  0
  4  9  1  0
  4 10  1  0
  4 11  1  0
  5  6  3  0
  6 12  1  0
  8 14  1  0
 13 14  1  0
 13 16  1  0
 13 17  1  0
 13 18  1  0
 14 15  1  0
 14 19  1  0
 15 20  1  0
 15 21  1  0
 15 22  1  0
M  RAD  1   3   2
M  END
>  <reaction>  (18) 
rxn_1392

>  <mol_properties>  (18) 
{"1": {"label": "*0", "atom_type": "Ct"}, "2": {"label": "*1", "atom_type": "Cs"}, "7": {"label": "*2", "atom_type": "H0"}, "12": {"label": "*4", "atom_type": "Cs"}, "13": {"label": "*3", "atom_type": "Cs"}}

>  <type>  (18) 
unop_14

>  <geom_source>  (18) 
gaussian_log

$$$$
