
     RDKit          3D

  7  6  0  0  0  0  0  0  0  0999 V2000
   -0.6782    0.0507    0.0301 C   0  0  0  0  0  0  0  0  0  0  0  0
    0.8092    0.0996    0.0213 C   0  0  0  0  0  0  0  0  0  0  0  0
    1.7473    0.7521    1.1507 S   0  0  0  0  0  0  0  0  0  0  0  0
   -1.0667    0.5456   -0.8653 H   0  0  0  0  0  0  0  0  0  0  0  0
   -1.0112   -0.9904   -0.0239 H   0  0  0  0  0  0  0  0  0  0  0  0
   -1.0920    0.5225    0.9188 H   0  0  0  0  0  0  0  0  0  0  0  0
    1.2740   -0.3620   -0.8520 H   0  0  0  0  0  0  0  0  0  0  0  0
  1  2  1  0
  1  4  1  0
  1  5  1  0
  1  6  1  0
  2  3  2  0
  2  7  1  0
M  END
>  <reaction>  (1) 
rxn_1963

>  <mol_properties>  (1) 
{"0": {"label": "donator", "atom_type": "Cs"}, "3": {"label": "d_hydrogen", "atom_type": "H0"}}

>  <type>  (1) 
r1h

$$$$

     RDKit          3D

 12 11  0  0  0  0  0  0  0  0999 V2000
    2.5164   -0.5559   -0.0242 C   0  0  0  0  0  0  0  0  0  0  0  0
    1.3287   -0.2938   -0.0132 C   0  0  0  0  0  0  0  0  0  0  0  0
   -0.0146    0.0027   -0.0006 C   0  0  0  0  0  3  0  0  0  0  0  0
   -1.0396   -1.0729   -0.1642 C   0  0  0  0  0  0  0  0  0  0  0  0
   -0.4887    1.4091    0.1769 C   0  0  0  0  0  0  0  0  0  0  0  0
    3.5543   -0.7850   -0.0339 H   0  0  0  0  0  0  0  0  0  0  0  0
   -1.7064   -1.1056    0.7044 H   0  0  0  0  0  0  0  0  0  0  0  0
   -0.5831   -2.0533   -0.2854 H   0  0  0  0  0  0  0  0  0  0  0  0
   -1.6716   -0.8741   -1.0367 H   0  0  0  0  0  0  0  0  0  0  0  0
   -1.0951    1.7228   -0.6798 H   0  0  0  0  0  0  0  0  0  0  0  0
    0.3401    2.1059    0.2861 H   0  0  0  0  0  0  0  0  0  0  0  0
   -1.1300    1.4913    1.0613 H   0  0  0  0  0  0  0  0  0  0  0  0
  1  2  3  0
  1  6  1  0
  2  3  1  0
  3  4  1  0
  3  5  1  0
  4  7  1  0
  4  8  1  0
  4  9  1  0
  5 10  1  0
  5 11  1  0
  5 12  1  0
M  RAD  1   3   2
M  END
>  <reaction>  (2) 
rxn_1963

>  <mol_properties>  (2) 
{"2": {"label": "acceptor", "atom_type": "Cs"}}

>  <type>  (2) 
r2

$$$$

     RDKit          3D

 13 12  0  0  0  0  0  0  0  0999 V2000
    2.2975   -0.6134    0.7685 C   0  0  0  0  0  0  0  0  0  0  0  0
    1.1676   -0.5248    0.3802 C   0  0  0  0  0  0  0  0  0  0  0  0
   -0.2109   -0.3926   -0.0948 C   0  0  0  0  0  0  0  0  0  0  0  0
   -0.2501    0.2584   -1.4808 C   0  0  0  0  0  0  0  0  0  0  0  0
   -1.0633    0.3831    0.9141 C   0  0  0  0  0  0  0  0  0  0  0  0
    3.2999   -0.6974    1.1133 H   0  0  0  0  0  0  0  0  0  0  0  0
   -0.6209   -1.4038   -0.1814 H   0  0  0  0  0  0  0  0  0  0  0  0
    0.3402   -0.3102   -2.1992 H   0  0  0  0  0  0  0  0  0  0  0  0
    0.1511    1.2724   -1.4369 H   0  0  0  0  0  0  0  0  0  0  0  0
   -1.2791    0.3109   -1.8407 H   0  0  0  0  0  0  0  0  0  0  0  0
   -0.6861    1.4008    1.0287 H   0  0  0  0  0  0  0  0  0  0  0  0
   -1.0492   -0.0971    1.8924 H   0  0  0  0  0  0  0  0  0  0  0  0
   -2.0971    0.4363    0.5680 H   0  0  0  0  0  0  0  0  0  0  0  0
  1  2  3  0
  1  6  1  0
  2  3  1  0
  3  4  1  0
  3  5  1  0
  3  7  1  0
  4  8  1  0
  4  9  1  0
  4 10  1  0
  5 11  1  0
  5 12  1  0
  5 13  1  0
M  END
>  <reaction>  (3) 
rxn_1963

>  <mol_properties>  (3) 
{"2": {"label": "acceptor", "atom_type": "Cs"}, "12": {"label": "a_hydrogen", "atom_type": "H0"}}

>  <type>  (3) 
r2h

$$$$

     RDKit          3D

 19 17  0  0  0  0  0  0  0  0999 V2000
   -0.5803    2.2745    2.8728 C   0  0  0  0  0  0  0  0  0  0  0  0
   -0.7754    1.3410    2.1400 C   0  0  0  0  0  0  0  0  0  0  0  0
   -0.9585    0.2479    1.2444 C   0  0  0  0  0  3  0  0  0  0  0  0
   -2.0691    0.3933    0.2300 C   0  0  0  0  0  0  0  0  0  0  0  0
   -0.7850   -1.1314    1.8329 C   0  0  0  0  0  0  0  0  0  0  0  0
   -0.4215    3.0973    3.5278 H   0  0  0  0  0  0  0  0  0  0  0  0
   -1.9463   -0.3412   -0.5680 H   0  0  0  0  0  0  0  0  0  0  0  0
   -2.0762    1.3905   -0.2084 H   0  0  0  0  0  0  0  0  0  0  0  0
   -3.0390    0.2236    0.7066 H   0  0  0  0  0  0  0  0  0  0  0  0
   -1.6692   -1.4075    2.4141 H   0  0  0  0  0  0  0  0  0  0  0  0
    0.0821   -1.1769    2.4913 H   0  0  0  0  0  0  0  0  0  0  0  0
   -0.6651   -1.8676    1.0351 H   0  0  0  0  0  0  0  0  0  0  0  0
    1.1273    0.3414   -0.4380 C   0  0  0  0  0  0  0  0  0  0  0  0
    1.3260   -1.0126   -0.8511 C   0  0  0  0  0  0  0  0  0  0  0  0
    0.5547   -1.7501   -2.0930 S   0  0  0  0  0  0  0  0  0  0  0  0
    0.1529    0.3111    0.4388 H   0  0  0  0  0  0  0  0  0  0  0  0
    1.9091    0.7884    0.1722 H   0  0  0  0  0  0  0  0  0  0  0  0
    0.6866    1.0071   -1.1753 H   0  0  0  0  0  0  0  0  0  0  0  0
    2.0153   -1.5984   -0.2426 H   0  0  0  0  0  0  0  0  0  0  0  0
  1  2  3  0
  1  6  1  0
  2  3  1  0
  3  4  1  0
  3  5  1  0
  4  7  1  0
  4  8  1  0
  4  9  1  0
  5 10  1  0
  5 11  1  0
  5 12  1  0
 13 14  1  0
 13 16  1  0
 13 17  1  0
 13 18  1  0
 14 15  2  0
 14 19  1  0
M  RAD  1   3   2
M  END
>  <reaction>  (4) 
rxn_1963

>  <mol_properties>  (4) 
{"1": {"label": "*4", "atom_type": "Ct"}, "2": {"label": "*3", "atom_type": "Cs"}, "12": {"label": "*1", "atom_type": "Cs"}, "13": {"label": "*0", "atom_type": "CS"}, "15": {"label": "*2", "atom_type": "H0"}}

>  <type>  (4) 
ts

$$$$

     RDKit          3D

 19 17  0  0  0  0  0  0  0  0999 V2000
   -0.0803    0.2782    3.6469 C   0  0  0  0  0  0  0  0  0  0  0  0
   -0.4684    0.2803    2.5134 C   0  0  0  0  0  0  0  0  0  0  0  0
   -0.9607    0.2972    1.1348 C   0  0  0  0  0  3  0  0  0  0  0  0
   -0.9289    1.7173    0.5617 C   0  0  0  0  0  0  0  0  0  0  0  0
   -2.3636   -0.3115    1.0491 C   0  0  0  0  0  0  0  0  0  0  0  0
    0.2641    0.2764    4.6529 H   0  0  0  0  0  0  0  0  0  0  0  0
   -1.2569    1.7083   -0.4792 H   0  0  0  0  0  0  0  0  0  0  0  0
    0.0762    2.1366    0.6052 H   0  0  0  0  0  0  0  0  0  0  0  0
   -1.5956    2.3711    1.1267 H   0  0  0  0  0  0  0  0  0  0  0  0
   -3.0726    0.2824    1.6286 H   0  0  0  0  0  0  0  0  0  0  0  0
   -2.3750   -1.3297    1.4380 H   0  0  0  0  0  0  0  0  0  0  0  0
   -2.6999   -0.3323    0.0110 H   0  0  0  0  0  0  0  0  0  0  0  0
    1.1423    0.3618   -0.4380 C   0  0  0  0  0  0  0  0  0  0  0  0
    1.1423   -0.8367   -1.3202 C   0  0  0  0  0  0  0  0  0  0  0  0
    1.1423   -0.8367   -2.9269 S   0  0  0  0  0  0  0  0  0  0  0  0
    0.0910    0.3295    0.3483 H   0  0  0  0  0  0  0  0  0  0  0  0
    2.0185    0.3349    0.2172 H   0  0  0  0  0  0  0  0  0  0  0  0
    1.1423    1.2855   -1.0127 H   0  0  0  0  0  0  0  0  0  0  0  0
    1.1423   -1.7911   -0.7903 H   0  0  0  0  0  0  0  0  0  0  0  0
  1  2  3  0
  1  6  1  0
  2  3  1  0
  3  4  1  0
  3  5  1  0
  4  7  1  0
  4  8  1  0
  4  9  1  0
  5 10  1  0
  5 11  1  0
  5 12  1  0
 13 14  1  0
 13 16  1  0
 13 17  1  0
 13 18  1  0
 14 15  2  0
 14 19  1  0
M  RAD  1   3   2
M  END
>  <reaction>  (5) 
rxn_1963

>  <mol_properties>  (5) 
{"1": {"label": "*4", "atom_type": "Ct"}, "2": {"label": "*3", "atom_type": "Cs"}, "12": {"label": "*1", "atom_type": "Cs"}, "13": {"label": "*0", "atom_type": "CS"}, "15": {"label": "*2", "atom_type": "H0"}}

>  <type>  (5) 
unop_1

>  <geom_source>  (5) 
Heuristics

$$$$

     RDKit          3D

 19 17  0  0  0  0  0  0  0  0999 V2000
   -1.4340   -1.9326    1.7078 C   0  0  0  0  0  0  0  0  0  0  0  0
   -1.1600   -0.7846    1.5016 C   0  0  0  0  0  0  0  0  0  0  0  0
   -0.8381    0.6244    1.2687 C   0  0  0  0  0  3  0  0  0  0  0  0
   -0.0543    1.2070    2.4486 C   0  0  0  0  0  0  0  0  0  0  0  0
   -2.1069    1.4337    0.9832 C   0  0  0  0  0  0  0  0  0  0  0  0
   -1.6772   -2.9514    1.8909 H   0  0  0  0  0  0  0  0  0  0  0  0
    0.2163    2.2441    2.2427 H   0  0  0  0  0  0  0  0  0  0  0  0
    0.8584    0.6403    2.6327 H   0  0  0  0  0  0  0  0  0  0  0  0
   -0.6591    1.1832    3.3568 H   0  0  0  0  0  0  0  0  0  0  0  0
   -2.7724    1.4165    1.8481 H   0  0  0  0  0  0  0  0  0  0  0  0
   -2.6486    1.0276    0.1290 H   0  0  0  0  0  0  0  0  0  0  0  0
   -1.8482    2.4721    0.7688 H   0  0  0  0  0  0  0  0  0  0  0  0
    1.2648    0.6890   -0.3041 C   0  0  0  0  0  0  0  0  0  0  0  0
    1.2648   -0.5095   -1.1863 C   0  0  0  0  0  0  0  0  0  0  0  0
    1.2648   -0.5095   -2.7930 S   0  0  0  0  0  0  0  0  0  0  0  0
    0.2135    0.6567    0.4822 H   0  0  0  0  0  0  0  0  0  0  0  0
    2.1410    0.6621    0.3511 H   0  0  0  0  0  0  0  0  0  0  0  0
    1.2648    1.6128   -0.8788 H   0  0  0  0  0  0  0  0  0  0  0  0
    1.2648   -1.4639   -0.6564 H   0  0  0  0  0  0  0  0  0  0  0  0
  1  2  3  0
  1  6  1  0
  2  3  1  0
  3  4  1  0
  3  5  1  0
  4  7  1  0
  4  8  1  0
  4  9  1  0
  5 10  1  0
  5 11  1  0
  5 12  1  0
 13 14  1  0
 13 16  1  0
 13 17  1  0
 13 18  1  0
 14 15  2  0
 14 19  1  0
M  RAD  1   3   2
M  END
>  <reaction>  (6) 
rxn_1963

>  <mol_properties>  (6) 
{"1": {"label": "*4", "atom_type": "Ct"}, "2": {"label": "*3", "atom_type": "Cs"}, "12": {"label": "*1", "atom_type": "Cs"}, "13": {"label": "*0", "atom_type": "CS"}, "15": {"label": "*2", "atom_type": "H0"}}

>  <type>  (6) 
unop_2

>  <geom_source>  (6) 
Heuristics

$$$$

     RDKit          3D

 19 17  0  0  0  0  0  0  0  0999 V2000
   -0.2513    1.4692    3.4420 C   0  0  0  0  0  0  0  0  0  0  0  0
   -0.5337    0.9056    2.4232 C   0  0  0  0  0  0  0  0  0  0  0  0
   -0.9018    0.2224    1.1818 C   0  0  0  0  0  3  0  0  0  0  0  0
   -1.5167    1.2048    0.1803 C   0  0  0  0  0  0  0  0  0  0  0  0
   -1.8420   -0.9533    1.4645 C   0  0  0  0  0  0  0  0  0  0  0  0
   -0.0006    1.9695    4.3462 H   0  0  0  0  0  0  0  0  0  0  0  0
   -1.7460    0.6913   -0.7551 H   0  0  0  0  0  0  0  0  0  0  0  0
   -0.8343    2.0272   -0.0335 H   0  0  0  0  0  0  0  0  0  0  0  0
   -2.4423    1.6247    0.5780 H   0  0  0  0  0  0  0  0  0  0  0  0
   -2.7772   -0.5970    1.9000 H   0  0  0  0  0  0  0  0  0  0  0  0
   -1.3900   -1.6599    2.1604 H   0  0  0  0  0  0  0  0  0  0  0  0
   -2.0732   -1.4793    0.5365 H   0  0  0  0  0  0  0  0  0  0  0  0
    1.2012    0.2869   -0.3910 C   0  0  0  0  0  0  0  0  0  0  0  0
    1.2012   -0.9115   -1.2732 C   0  0  0  0  0  0  0  0  0  0  0  0
    1.2012   -0.9115   -2.8798 S   0  0  0  0  0  0  0  0  0  0  0  0
    0.1498    0.2547    0.3953 H   0  0  0  0  0  0  0  0  0  0  0  0
    2.0773    0.2601    0.2642 H   0  0  0  0  0  0  0  0  0  0  0  0
    1.2012    1.2107   -0.9657 H   0  0  0  0  0  0  0  0  0  0  0  0
    1.2012   -1.8660   -0.7432 H   0  0  0  0  0  0  0  0  0  0  0  0
  1  2  3  0
  1  6  1  0
  2  3  1  0
  3  4  1  0
  3  5  1  0
  4  7  1  0
  4  8  1  0
  4  9  1  0
  5 10  1  0
  5 11  1  0
  5 12  1  0
 13 14  1  0
 13 16  1  0
 13 17  1  0
 13 18  1  0
 14 15  2  0
 14 19  1  0
M  RAD  1   3   2
M  END
>  <reaction>  (7) 
rxn_1963

>  <mol_properties>  (7) 
{"1": {"label": "*4", "atom_type": "Ct"}, "2": {"label": "*3", "atom_type": "Cs"}, "12": {"label": "*1", "atom_type": "Cs"}, "13": {"label": "*0", "atom_type": "CS"}, "15": {"label": "*2", "atom_type": "H0"}}

>  <type>  (7) 
unop_3

>  <geom_source>  (7) 
Heuristics

$$$$

     RDKit          3D

 19 17  0  0  0  0  0  0  0  0999 V2000
   -2.8388    0.3126   -0.0550 C   0  0  0  0  0  0  0  0  0  0  0  0
   -1.8604    0.3062    0.6364 C   0  0  0  0  0  0  0  0  0  0  0  0
   -0.6768    0.3106    1.4980 C   0  0  0  0  0  3  0  0  0  0  0  0
   -0.9490   -0.4447    2.8024 C   0  0  0  0  0  0  0  0  0  0  0  0
   -0.2030    1.7422    1.7666 C   0  0  0  0  0  0  0  0  0  0  0  0
   -3.7072    0.3182   -0.6686 H   0  0  0  0  0  0  0  0  0  0  0  0
   -0.0463   -0.4709    3.4152 H   0  0  0  0  0  0  0  0  0  0  0  0
   -1.2644   -1.4692    2.6052 H   0  0  0  0  0  0  0  0  0  0  0  0
   -1.7372    0.0507    3.3721 H   0  0  0  0  0  0  0  0  0  0  0  0
   -0.9692    2.3022    2.3057 H   0  0  0  0  0  0  0  0  0  0  0  0
    0.0102    2.2672    0.8355 H   0  0  0  0  0  0  0  0  0  0  0  0
    0.7041    1.7287    2.3734 H   0  0  0  0  0  0  0  0  0  0  0  0
    1.4262    0.3752   -0.0748 C   0  0  0  0  0  0  0  0  0  0  0  0
    1.4262   -0.8233   -0.9570 C   0  0  0  0  0  0  0  0  0  0  0  0
    1.4262   -0.8233   -2.5637 S   0  0  0  0  0  0  0  0  0  0  0  0
    0.3749    0.3429    0.7115 H   0  0  0  0  0  0  0  0  0  0  0  0
    2.3024    0.3483    0.5804 H   0  0  0  0  0  0  0  0  0  0  0  0
    1.4262    1.2990   -0.6495 H   0  0  0  0  0  0  0  0  0  0  0  0
    1.4262   -1.7777   -0.4271 H   0  0  0  0  0  0  0  0  0  0  0  0
  1  2  3  0
  1  6  1  0
  2  3  1  0
  3  4  1  0
  3  5  1  0
  4  7  1  0
  4  8  1  0
  4  9  1  0
  5 10  1  0
  5 11  1  0
  5 12  1  0
 13 14  1  0
 13 16  1  0
 13 17  1  0
 13 18  1  0
 14 15  2  0
 14 19  1  0
M  RAD  1   3   2
M  END
>  <reaction>  (8) 
rxn_1963

>  <mol_properties>  (8) 
{"1": {"label": "*4", "atom_type": "Ct"}, "2": {"label": "*3", "atom_type": "Cs"}, "12": {"label": "*1", "atom_type": "Cs"}, "13": {"label": "*0", "atom_type": "CS"}, "15": {"label": "*2", "atom_type": "H0"}}

>  <type>  (8) 
unop_4

>  <geom_source>  (8) 
Heuristics

$$$$

     RDKit          3D

 19 17  0  0  0  0  0  0  0  0999 V2000
   -0.7800    2.3809    2.7473 C   0  0  0  0  0  0  0  0  0  0  0  0
   -0.8065    1.4066    2.0506 C   0  0  0  0  0  0  0  0  0  0  0  0
   -0.8592    0.2093    1.2098 C   0  0  0  0  0  3  0  0  0  0  0  0
   -2.1132    0.2153    0.3302 C   0  0  0  0  0  0  0  0  0  0  0  0
   -0.7781   -1.0602    2.0630 C   0  0  0  0  0  0  0  0  0  0  0  0
   -0.7565    3.2456    3.3657 H   0  0  0  0  0  0  0  0  0  0  0  0
   -2.1174   -0.6601   -0.3216 H   0  0  0  0  0  0  0  0  0  0  0  0
   -2.1539    1.1103   -0.2905 H   0  0  0  0  0  0  0  0  0  0  0  0
   -3.0123    0.1882    0.9483 H   0  0  0  0  0  0  0  0  0  0  0  0
   -1.6378   -1.1250    2.7323 H   0  0  0  0  0  0  0  0  0  0  0  0
    0.1271   -1.0690    2.6701 H   0  0  0  0  0  0  0  0  0  0  0  0
   -0.7746   -1.9430    1.4212 H   0  0  0  0  0  0  0  0  0  0  0  0
    1.2437    0.2738   -0.3630 C   0  0  0  0  0  0  0  0  0  0  0  0
    1.2437   -0.9246   -1.2451 C   0  0  0  0  0  0  0  0  0  0  0  0
    1.2437   -0.9246   -2.8518 S   0  0  0  0  0  0  0  0  0  0  0  0
    0.1924    0.2415    0.4233 H   0  0  0  0  0  0  0  0  0  0  0  0
    2.1199    0.2469    0.2923 H   0  0  0  0  0  0  0  0  0  0  0  0
    1.2437    1.1976   -0.9376 H   0  0  0  0  0  0  0  0  0  0  0  0
    1.2437   -1.8791   -0.7152 H   0  0  0  0  0  0  0  0  0  0  0  0
  1  2  3  0
  1  6  1  0
  2  3  1  0
  3  4  1  0
  3  5  1  0
  4  7  1  0
  4  8  1  0
  4  9  1  0
  5 10  1  0
  5 11  1  0
  5 12  1  0
 13 14  1  0
 13 16  1  0
 13 17  1  0
 13 18  1  0
 14 15  2  0
 14 19  1  0
M  RAD  1   3   2
M  END
>  <reaction>  (9) 
rxn_1963

>  <mol_properties>  (9) 
{"1": {"label": "*4", "atom_type": "Ct"}, "2": {"label": "*3", "atom_type": "Cs"}, "12": {"label": "*1", "atom_type": "Cs"}, "13": {"label": "*0", "atom_type": "CS"}, "15": {"label": "*2", "atom_type": "H0"}}

>  <type>  (9) 
unop_5

>  <geom_source>  (9) 
Heuristics

$$$$

     RDKit          3D

 19 17  0  0  0  0  0  0  0  0999 V2000
   -2.7070    1.4620    0.1847 C   0  0  0  0  0  0  0  0  0  0  0  0
   -1.8148    0.8862    0.7395 C   0  0  0  0  0  0  0  0  0  0  0  0
   -0.7316    0.1922    1.4383 C   0  0  0  0  0  3  0  0  0  0  0  0
   -1.2907   -0.7878    2.4743 C   0  0  0  0  0  0  0  0  0  0  0  0
    0.2350    1.1939    2.0774 C   0  0  0  0  0  0  0  0  0  0  0  0
   -3.4988    1.9731   -0.3077 H   0  0  0  0  0  0  0  0  0  0  0  0
   -0.4745   -1.3290    2.9562 H   0  0  0  0  0  0  0  0  0  0  0  0
   -1.9603   -1.5115    2.0098 H   0  0  0  0  0  0  0  0  0  0  0  0
   -1.8492   -0.2515    3.2434 H   0  0  0  0  0  0  0  0  0  0  0  0
   -0.2785    1.7887    2.8348 H   0  0  0  0  0  0  0  0  0  0  0  0
    0.6463    1.8742    1.3318 H   0  0  0  0  0  0  0  0  0  0  0  0
    1.0600    0.6642    2.5571 H   0  0  0  0  0  0  0  0  0  0  0  0
    1.3714    0.2567   -0.1345 C   0  0  0  0  0  0  0  0  0  0  0  0
    1.3714   -0.9417   -1.0167 C   0  0  0  0  0  0  0  0  0  0  0  0
    1.3714   -0.9417   -2.6233 S   0  0  0  0  0  0  0  0  0  0  0  0
    0.3201    0.2245    0.6518 H   0  0  0  0  0  0  0  0  0  0  0  0
    2.2476    0.2299    0.5207 H   0  0  0  0  0  0  0  0  0  0  0  0
    1.3714    1.1805   -0.7092 H   0  0  0  0  0  0  0  0  0  0  0  0
    1.3714   -1.8961   -0.4867 H   0  0  0  0  0  0  0  0  0  0  0  0
  1  2  3  0
  1  6  1  0
  2  3  1  0
  3  4  1  0
  3  5  1  0
  4  7  1  0
  4  8  1  0
  4  9  1  0
  5 10  1  0
  5 11  1  0
  5 12  1  0
 13 14  1  0
 13 16  1  0
 13 17  1  0
 13 18  1  0
 14 15  2  0
 14 19  1  0
M  RAD  1   3   2
M  END
>  <reaction>  (10) 
rxn_1963

>  <mol_properties>  (10) 
{"1": {"label": "*4", "atom_type": "Ct"}, "2": {"label": "*3", "atom_type": "Cs"}, "12": {"label": "*1", "atom_type": "Cs"}, "13": {"label": "*0", "atom_type": "CS"}, "15": {"label": "*2", "atom_type": "H0"}}

>  <type>  (10) 
unop_6

>  <geom_source>  (10) 
Heuristics

$$$$

     RDKit          3D

 19 17  0  0  0  0  0  0  0  0999 V2000
   -2.2354    2.3371    0.8499 C   0  0  0  0  0  0  0  0  0  0  0  0
   -1.5886    1.3506    1.0595 C   0  0  0  0  0  0  0  0  0  0  0  0
   -0.8034    0.1469    1.3389 C   0  0  0  0  0  3  0  0  0  0  0  0
   -1.6879   -0.9571    1.9261 C   0  0  0  0  0  0  0  0  0  0  0  0
    0.3785    0.4682    2.2586 C   0  0  0  0  0  0  0  0  0  0  0  0
   -2.8093    3.2126    0.6640 H   0  0  0  0  0  0  0  0  0  0  0  0
   -1.0992   -1.8616    2.0887 H   0  0  0  0  0  0  0  0  0  0  0  0
   -2.5143   -1.1966    1.2571 H   0  0  0  0  0  0  0  0  0  0  0  0
   -2.1053   -0.6417    2.8840 H   0  0  0  0  0  0  0  0  0  0  0  0
    0.0221    0.8257    3.2263 H   0  0  0  0  0  0  0  0  0  0  0  0
    1.0162    1.2386    1.8252 H   0  0  0  0  0  0  0  0  0  0  0  0
    0.9793   -0.4281    2.4231 H   0  0  0  0  0  0  0  0  0  0  0  0
    1.2996    0.2115   -0.2339 C   0  0  0  0  0  0  0  0  0  0  0  0
    1.2996   -0.9870   -1.1161 C   0  0  0  0  0  0  0  0  0  0  0  0
    1.2996   -0.9870   -2.7228 S   0  0  0  0  0  0  0  0  0  0  0  0
    0.2482    0.1792    0.5524 H   0  0  0  0  0  0  0  0  0  0  0  0
    2.1757    0.1846    0.4213 H   0  0  0  0  0  0  0  0  0  0  0  0
    1.2996    1.1353   -0.8086 H   0  0  0  0  0  0  0  0  0  0  0  0
    1.2996   -1.9414   -0.5862 H   0  0  0  0  0  0  0  0  0  0  0  0
  1  2  3  0
  1  6  1  0
  2  3  1  0
  3  4  1  0
  3  5  1  0
  4  7  1  0
  4  8  1  0
  4  9  1  0
  5 10  1  0
  5 11  1  0
  5 12  1  0
 13 14  1  0
 13 16  1  0
 13 17  1  0
 13 18  1  0
 14 15  2  0
 14 19  1  0
M  RAD  1   3   2
M  END
>  <reaction>  (11) 
rxn_1963

>  <mol_properties>  (11) 
{"1": {"label": "*4", "atom_type": "Ct"}, "2": {"label": "*3", "atom_type": "Cs"}, "12": {"label": "*1", "atom_type": "Cs"}, "13": {"label": "*0", "atom_type": "CS"}, "15": {"label": "*2", "atom_type": "H0"}}

>  <type>  (11) 
unop_7

>  <geom_source>  (11) 
Heuristics

$$$$

     RDKit          3D

 19 17  0  0  0  0  0  0  0  0999 V2000
   -0.2746   -0.8619    3.3418 C   0  0  0  0  0  0  0  0  0  0  0  0
   -0.5846   -0.2891    2.3362 C   0  0  0  0  0  0  0  0  0  0  0  0
   -0.9765    0.4262    1.1204 C   0  0  0  0  0  3  0  0  0  0  0  0
   -0.4764    1.8736    1.1541 C   0  0  0  0  0  0  0  0  0  0  0  0
   -2.4928    0.3607    0.9140 C   0  0  0  0  0  0  0  0  0  0  0  0
    0.0006   -1.3703    4.2342 H   0  0  0  0  0  0  0  0  0  0  0  0
   -0.7376    2.3816    0.2240 H   0  0  0  0  0  0  0  0  0  0  0  0
    0.6056    1.9131    1.2790 H   0  0  0  0  0  0  0  0  0  0  0  0
   -0.9351    2.4159    1.9827 H   0  0  0  0  0  0  0  0  0  0  0  0
   -3.0110    0.8584    1.7356 H   0  0  0  0  0  0  0  0  0  0  0  0
   -2.8394   -0.6716    0.8688 H   0  0  0  0  0  0  0  0  0  0  0  0
   -2.7657    0.8600   -0.0174 H   0  0  0  0  0  0  0  0  0  0  0  0
    1.1265    0.4907   -0.4524 C   0  0  0  0  0  0  0  0  0  0  0  0
    1.1265   -0.7077   -1.3346 C   0  0  0  0  0  0  0  0  0  0  0  0
    1.1265   -0.7077   -2.9412 S   0  0  0  0  0  0  0  0  0  0  0  0
    0.0751    0.4585    0.3339 H   0  0  0  0  0  0  0  0  0  0  0  0
    2.0027    0.4639    0.2029 H   0  0  0  0  0  0  0  0  0  0  0  0
    1.1265    1.4145   -1.0270 H   0  0  0  0  0  0  0  0  0  0  0  0
    1.1265   -1.6622   -0.8046 H   0  0  0  0  0  0  0  0  0  0  0  0
  1  2  3  0
  1  6  1  0
  2  3  1  0
  3  4  1  0
  3  5  1  0
  4  7  1  0
  4  8  1  0
  4  9  1  0
  5 10  1  0
  5 11  1  0
  5 12  1  0
 13 14  1  0
 13 16  1  0
 13 17  1  0
 13 18  1  0
 14 15  2  0
 14 19  1  0
M  RAD  1   3   2
M  END
>  <reaction>  (12) 
rxn_1963

>  <mol_properties>  (12) 
{"1": {"label": "*4", "atom_type": "Ct"}, "2": {"label": "*3", "atom_type": "Cs"}, "12": {"label": "*1", "atom_type": "Cs"}, "13": {"label": "*0", "atom_type": "CS"}, "15": {"label": "*2", "atom_type": "H0"}}

>  <type>  (12) 
unop_8

>  <geom_source>  (12) 
Heuristics

$$$$

     RDKit          3D

 19 17  0  0  0  0  0  0  0  0999 V2000
   -2.6115   -0.8076    0.1796 C   0  0  0  0  0  0  0  0  0  0  0  0
   -1.7312   -0.2389    0.7602 C   0  0  0  0  0  0  0  0  0  0  0  0
   -0.6718    0.4655    1.4846 C   0  0  0  0  0  3  0  0  0  0  0  0
   -0.5993   -0.0066    2.9399 C   0  0  0  0  0  0  0  0  0  0  0  0
   -0.8658    1.9823    1.3954 C   0  0  0  0  0  0  0  0  0  0  0  0
   -3.3927   -1.3124   -0.3357 H   0  0  0  0  0  0  0  0  0  0  0  0
    0.2218    0.4944    3.4555 H   0  0  0  0  0  0  0  0  0  0  0  0
   -0.4392   -1.0832    2.9966 H   0  0  0  0  0  0  0  0  0  0  0  0
   -1.5280    0.2277    3.4631 H   0  0  0  0  0  0  0  0  0  0  0  0
   -1.8023    2.2753    1.8731 H   0  0  0  0  0  0  0  0  0  0  0  0
   -0.8944    2.3149    0.3579 H   0  0  0  0  0  0  0  0  0  0  0  0
   -0.0461    2.4949    1.9021 H   0  0  0  0  0  0  0  0  0  0  0  0
    1.4312    0.5301   -0.0882 C   0  0  0  0  0  0  0  0  0  0  0  0
    1.4312   -0.6684   -0.9704 C   0  0  0  0  0  0  0  0  0  0  0  0
    1.4312   -0.6684   -2.5771 S   0  0  0  0  0  0  0  0  0  0  0  0
    0.3798    0.4978    0.6981 H   0  0  0  0  0  0  0  0  0  0  0  0
    2.3073    0.5032    0.5670 H   0  0  0  0  0  0  0  0  0  0  0  0
    1.4312    1.4539   -0.6629 H   0  0  0  0  0  0  0  0  0  0  0  0
    1.4312   -1.6228   -0.4405 H   0  0  0  0  0  0  0  0  0  0  0  0
  1  2  3  0
  1  6  1  0
  2  3  1  0
  3  4  1  0
  3  5  1  0
  4  7  1  0
  4  8  1  0
  4  9  1  0
  5 10  1  0
  5 11  1  0
  5 12  1  0
 13 14  1  0
 13 16  1  0
 13 17  1  0
 13 18  1  0
 14 15  2  0
 14 19  1  0
M  RAD  1   3   2
M  END
>  <reaction>  (13) 
rxn_1963

>  <mol_properties>  (13) 
{"1": {"label": "*4", "atom_type": "Ct"}, "2": {"label": "*3", "atom_type": "Cs"}, "12": {"label": "*1", "atom_type": "Cs"}, "13": {"label": "*0", "atom_type": "CS"}, "15": {"label": "*2", "atom_type": "H0"}}

>  <type>  (13) 
unop_9

>  <geom_source>  (13) 
Heuristics

$$$$

     RDKit          3D

 19 17  0  0  0  0  0  0  0  0999 V2000
   -0.7707   -1.6633    2.6292 C   0  0  0  0  0  0  0  0  0  0  0  0
   -0.8384   -0.6701    1.9627 C   0  0  0  0  0  0  0  0  0  0  0  0
   -0.9323    0.5548    1.1663 C   0  0  0  0  0  3  0  0  0  0  0  0
   -0.1554    1.6967    1.8285 C   0  0  0  0  0  0  0  0  0  0  0  0
   -2.3957    0.9374    0.9248 C   0  0  0  0  0  0  0  0  0  0  0  0
   -0.7105   -2.5448    3.2208 H   0  0  0  0  0  0  0  0  0  0  0  0
   -0.1976    2.5902    1.2031 H   0  0  0  0  0  0  0  0  0  0  0  0
    0.8900    1.4266    1.9775 H   0  0  0  0  0  0  0  0  0  0  0  0
   -0.5871    1.9372    2.8015 H   0  0  0  0  0  0  0  0  0  0  0  0
   -2.8936    1.1555    1.8712 H   0  0  0  0  0  0  0  0  0  0  0  0
   -2.9376    0.1293    0.4336 H   0  0  0  0  0  0  0  0  0  0  0  0
   -2.4510    1.8265    0.2942 H   0  0  0  0  0  0  0  0  0  0  0  0
    1.1707    0.6193   -0.4065 C   0  0  0  0  0  0  0  0  0  0  0  0
    1.1707   -0.5792   -1.2887 C   0  0  0  0  0  0  0  0  0  0  0  0
    1.1707   -0.5792   -2.8953 S   0  0  0  0  0  0  0  0  0  0  0  0
    0.1193    0.5870    0.3798 H   0  0  0  0  0  0  0  0  0  0  0  0
    2.0468    0.5924    0.2487 H   0  0  0  0  0  0  0  0  0  0  0  0
    1.1706    1.5431   -0.9812 H   0  0  0  0  0  0  0  0  0  0  0  0
    1.1707   -1.5336   -0.7587 H   0  0  0  0  0  0  0  0  0  0  0  0
  1  2  3  0
  1  6  1  0
  2  3  1  0
  3  4  1  0
  3  5  1  0
  4  7  1  0
  4  8  1  0
  4  9  1  0
  5 10  1  0
  5 11  1  0
  5 12  1  0
 13 14  1  0
 13 16  1  0
 13 17  1  0
 13 18  1  0
 14 15  2  0
 14 19  1  0
M  RAD  1   3   2
M  END
>  <reaction>  (14) 
rxn_1963

>  <mol_properties>  (14) 
{"1": {"label": "*4", "atom_type": "Ct"}, "2": {"label": "*3", "atom_type": "Cs"}, "12": {"label": "*1", "atom_type": "Cs"}, "13": {"label": "*0", "atom_type": "CS"}, "15": {"label": "*2", "atom_type": "H0"}}

>  <type>  (14) 
unop_10

>  <geom_source>  (14) 
Heuristics

$$$$

     RDKit          3D

 19 17  0  0  0  0  0  0  0  0999 V2000
   -1.5308    2.6916    1.7814 C   0  0  0  0  0  0  0  0  0  0  0  0
   -1.2204    1.5616    1.5319 C   0  0  0  0  0  0  0  0  0  0  0  0
   -0.8509    0.1738    1.2478 C   0  0  0  0  0  3  0  0  0  0  0  0
   -2.0969   -0.7098    1.1337 C   0  0  0  0  0  0  0  0  0  0  0  0
    0.1205   -0.3594    2.3053 C   0  0  0  0  0  0  0  0  0  0  0  0
   -1.8062    3.6945    2.0027 H   0  0  0  0  0  0  0  0  0  0  0  0
   -1.8093   -1.7314    0.8790 H   0  0  0  0  0  0  0  0  0  0  0  0
   -2.7737   -0.3379    0.3645 H   0  0  0  0  0  0  0  0  0  0  0  0
   -2.6372   -0.7308    2.0817 H   0  0  0  0  0  0  0  0  0  0  0  0
   -0.3544   -0.3700    3.2879 H   0  0  0  0  0  0  0  0  0  0  0  0
    1.0147    0.2608    2.3662 H   0  0  0  0  0  0  0  0  0  0  0  0
    0.4209   -1.3789    2.0574 H   0  0  0  0  0  0  0  0  0  0  0  0
    1.2520    0.2383   -0.3250 C   0  0  0  0  0  0  0  0  0  0  0  0
    1.2520   -0.9601   -1.2072 C   0  0  0  0  0  0  0  0  0  0  0  0
    1.2520   -0.9601   -2.8138 S   0  0  0  0  0  0  0  0  0  0  0  0
    0.2007    0.2061    0.4613 H   0  0  0  0  0  0  0  0  0  0  0  0
    2.1282    0.2115    0.3302 H   0  0  0  0  0  0  0  0  0  0  0  0
    1.2520    1.1621   -0.8997 H   0  0  0  0  0  0  0  0  0  0  0  0
    1.2520   -1.9145   -0.6772 H   0  0  0  0  0  0  0  0  0  0  0  0
  1  2  3  0
  1  6  1  0
  2  3  1  0
  3  4  1  0
  3  5  1  0
  4  7  1  0
  4  8  1  0
  4  9  1  0
  5 10  1  0
  5 11  1  0
  5 12  1  0
 13 14  1  0
 13 16  1  0
 13 17  1  0
 13 18  1  0
 14 15  2  0
 14 19  1  0
M  RAD  1   3   2
M  END
>  <reaction>  (15) 
rxn_1963

>  <mol_properties>  (15) 
{"1": {"label": "*4", "atom_type": "Ct"}, "2": {"label": "*3", "atom_type": "Cs"}, "12": {"label": "*1", "atom_type": "Cs"}, "13": {"label": "*0", "atom_type": "CS"}, "15": {"label": "*2", "atom_type": "H0"}}

>  <type>  (15) 
unop_11

>  <geom_source>  (15) 
Heuristics

$$$$

     RDKit          3D

 19 17  0  0  0  0  0  0  0  0999 V2000
   -2.0993   -1.6194    0.8192 C   0  0  0  0  0  0  0  0  0  0  0  0
   -1.4771   -0.6268    1.0704 C   0  0  0  0  0  0  0  0  0  0  0  0
   -0.7331    0.5917    1.3942 C   0  0  0  0  0  3  0  0  0  0  0  0
   -0.2430    0.5622    2.8451 C   0  0  0  0  0  0  0  0  0  0  0  0
   -1.5781    1.8378    1.1123 C   0  0  0  0  0  0  0  0  0  0  0  0
   -2.6515   -2.5003    0.5962 H   0  0  0  0  0  0  0  0  0  0  0  0
    0.3462    1.4556    3.0594 H   0  0  0  0  0  0  0  0  0  0  0  0
    0.3757   -0.3150    3.0335 H   0  0  0  0  0  0  0  0  0  0  0  0
   -1.0901    0.5358    3.5328 H   0  0  0  0  0  0  0  0  0  0  0  0
   -2.4646    1.8489    1.7489 H   0  0  0  0  0  0  0  0  0  0  0  0
   -1.9053    1.8643    0.0729 H   0  0  0  0  0  0  0  0  0  0  0  0
   -0.9966    2.7385    1.3165 H   0  0  0  0  0  0  0  0  0  0  0  0
    1.3699    0.6563   -0.1786 C   0  0  0  0  0  0  0  0  0  0  0  0
    1.3699   -0.5422   -1.0608 C   0  0  0  0  0  0  0  0  0  0  0  0
    1.3699   -0.5422   -2.6675 S   0  0  0  0  0  0  0  0  0  0  0  0
    0.3185    0.6240    0.6077 H   0  0  0  0  0  0  0  0  0  0  0  0
    2.2460    0.6294    0.4766 H   0  0  0  0  0  0  0  0  0  0  0  0
    1.3699    1.5801   -0.7533 H   0  0  0  0  0  0  0  0  0  0  0  0
    1.3699   -1.4966   -0.5309 H   0  0  0  0  0  0  0  0  0  0  0  0
  1  2  3  0
  1  6  1  0
  2  3  1  0
  3  4  1  0
  3  5  1  0
  4  7  1  0
  4  8  1  0
  4  9  1  0
  5 10  1  0
  5 11  1  0
  5 12  1  0
 13 14  1  0
 13 16  1  0
 13 17  1  0
 13 18  1  0
 14 15  2  0
 14 19  1  0
M  RAD  1   3   2
M  END
>  <reaction>  (16) 
rxn_1963

>  <mol_properties>  (16) 
{"1": {"label": "*4", "atom_type": "Ct"}, "2": {"label": "*3", "atom_type": "Cs"}, "12": {"label": "*1", "atom_type": "Cs"}, "13": {"label": "*0", "atom_type": "CS"}, "15": {"label": "*2", "atom_type": "H0"}}

>  <type>  (16) 
unop_12

>  <geom_source>  (16) 
Heuristics

$$$$

     RDKit          3D

 19 17  0  0  0  0  0  0  0  0999 V2000
    3.1184    0.7059    1.2527 S   0  0  0  0  0  0  0  0  0  0  0  0
   -0.6882    0.1855   -0.1510 C   0  0  0  0  0  3  0  0  0  0  0  0
   -1.4535   -1.1313   -0.2859 C   0  0  0  0  0  0  0  0  0  0  0  0
   -0.6305    0.6398    1.3079 C   0  0  0  0  0  0  0  0  0  0  0  0
    1.7598   -0.5880   -0.4564 C   0  0  0  0  0  0  0  0  0  0  0  0
    2.7252   -0.5499    0.6820 C   0  0  0  0  0  0  0  0  0  0  0  0
   -1.3204    1.2241   -0.9787 C   0  0  0  0  0  0  0  0  0  0  0  0
   -1.8376    2.0756   -1.6578 C   0  0  0  0  0  0  0  0  0  0  0  0
    0.5845   -0.0044   -0.5971 H   0  0  0  0  0  0  0  0  0  0  0  0
   -2.5017   -1.0175    0.0667 H   0  0  0  0  0  0  0  0  0  0  0  0
   -1.4632   -1.4587   -1.3476 H   0  0  0  0  0  0  0  0  0  0  0  0
   -0.9556   -1.9222    0.3142 H   0  0  0  0  0  0  0  0  0  0  0  0
   -1.6531    0.8088    1.7102 H   0  0  0  0  0  0  0  0  0  0  0  0
   -0.1237   -0.1318    1.9253 H   0  0  0  0  0  0  0  0  0  0  0  0
   -0.0496    1.5834    1.3899 H   0  0  0  0  0  0  0  0  0  0  0  0
    3.0826   -1.4747    1.1232 H   0  0  0  0  0  0  0  0  0  0  0  0
    1.4844   -1.6391   -0.6835 H   0  0  0  0  0  0  0  0  0  0  0  0
    2.2139   -0.1287   -1.3603 H   0  0  0  0  0  0  0  0  0  0  0  0
   -2.2917    2.8230   -2.2537 H   0  0  0  0  0  0  0  0  0  0  0  0
  1  6  2  0
  2  3  1  0
  2  4  1  0
  2  7  1  0
  3 10  1  0
  3 11  1  0
  3 12  1  0
  4 13  1  0
  4 14  1  0
  4 15  1  0
  5  6  1  0
  5  9  1  0
  5 17  1  0
  5 18  1  0
  6 16  1  0
  7  8  3  0
  8 19  1  0
M  RAD  1   2   2
M  END
>  <reaction>  (17) 
rxn_1963

>  <mol_properties>  (17) 
{"1": {"label": "*4", "atom_type": "Ct"}, "2": {"label": "*3", "atom_type": "Cs"}, "12": {"label": "*1", "atom_type": "Cs"}, "13": {"label": "*0", "atom_type": "CS"}, "15": {"label": "*2", "atom_type": "H0"}}

>  <type>  (17) 
unop_13

>  <geom_source>  (17) 
AutoTST

$$$$
