
     RDKit          3D

 12 11  0  0  0  0  0  0  0  0999 V2000
    1.9877    0.1011    0.4814 C   0  0  0  0  0  0  0  0  0  0  0  0
    0.8179    0.5502    0.0525 C   0  0  0  0  0  0  0  0  0  0  0  0
   -0.2939   -0.2692   -0.5320 C   0  0  0  0  0  0  0  0  0  0  0  0
   -0.0292   -1.7631   -0.6328 C   0  0  0  0  0  0  0  0  0  0  0  0
    2.2522   -0.9490    0.4436 H   0  0  0  0  0  0  0  0  0  0  0  0
    2.7295    0.7757    0.8896 H   0  0  0  0  0  0  0  0  0  0  0  0
    0.6162    1.6164    0.1190 H   0  0  0  0  0  0  0  0  0  0  0  0
   -0.5268    0.1319   -1.5245 H   0  0  0  0  0  0  0  0  0  0  0  0
   -1.1959   -0.0938    0.0644 H   0  0  0  0  0  0  0  0  0  0  0  0
    0.1590   -2.1992    0.3502 H   0  0  0  0  0  0  0  0  0  0  0  0
    0.8382   -1.9701   -1.2626 H   0  0  0  0  0  0  0  0  0  0  0  0
   -0.8879   -2.2759   -1.0672 H   0  0  0  0  0  0  0  0  0  0  0  0
  1  2  2  3
  1  5  1  0
  1  6  1  0
  2  3  1  0
  2  7  1  0
  3  4  1  0
  3  8  1  0
  3  9  1  0
  4 10  1  0
  4 11  1  0
  4 12  1  0
M  END
>  <reaction>  (1) 
rxn_1050

>  <mol_properties>  (1) 
{"2": {"label": "donator", "atom_type": "Cs"}, "7": {"label": "d_hydrogen", "atom_type": "H0"}}

>  <type>  (1) 
r1h

$$$$

     RDKit          3D

 11 10  0  0  0  0  0  0  0  0999 V2000
   -0.9580    1.1013   -2.2955 C   0  0  0  0  0  0  0  0  0  0  0  0
   -0.5129    0.5941   -1.2929 C   0  0  0  0  0  0  0  0  0  0  0  0
   -0.0301   -0.0160   -0.1357 C   0  0  0  0  0  3  0  0  0  0  0  0
   -0.6593   -1.2845    0.3661 C   0  0  0  0  0  0  0  0  0  0  0  0
    1.0691    0.5292    0.5269 C   0  0  0  0  0  0  0  0  0  0  0  0
    2.0168    0.9794    1.1266 C   0  0  0  0  0  0  0  0  0  0  0  0
   -1.3415    1.5561   -3.1769 H   0  0  0  0  0  0  0  0  0  0  0  0
   -1.7166   -1.3186    0.1054 H   0  0  0  0  0  0  0  0  0  0  0  0
   -0.1742   -2.1550   -0.0865 H   0  0  0  0  0  0  0  0  0  0  0  0
   -0.5505   -1.3663    1.4470 H   0  0  0  0  0  0  0  0  0  0  0  0
    2.8514    1.3842    1.6465 H   0  0  0  0  0  0  0  0  0  0  0  0
  1  2  3  0
  1  7  1  0
  2  3  1  0
  3  4  1  0
  3  5  1  0
  4  8  1  0
  4  9  1  0
  4 10  1  0
  5  6  3  0
  6 11  1  0
M  RAD  1   3   2
M  END
>  <reaction>  (2) 
rxn_1050

>  <mol_properties>  (2) 
{"2": {"label": "acceptor", "atom_type": "Cs"}}

>  <type>  (2) 
r2

$$$$

     RDKit          3D

 12 11  0  0  0  0  0  0  0  0999 V2000
    2.1696    0.6854    1.1310 C   0  0  0  0  0  0  0  0  0  0  0  0
    1.2518    0.4145    0.4134 C   0  0  0  0  0  0  0  0  0  0  0  0
    0.1391    0.0443   -0.4683 C   0  0  0  0  0  0  0  0  0  0  0  0
   -0.2054   -1.4492   -0.3339 C   0  0  0  0  0  0  0  0  0  0  0  0
   -1.0375    0.8853   -0.2222 C   0  0  0  0  0  0  0  0  0  0  0  0
   -2.0160    1.5463   -0.0311 C   0  0  0  0  0  0  0  0  0  0  0  0
    2.9819    0.9356    1.7702 H   0  0  0  0  0  0  0  0  0  0  0  0
    0.4629    0.2285   -1.4981 H   0  0  0  0  0  0  0  0  0  0  0  0
   -0.5327   -1.6703    0.6812 H   0  0  0  0  0  0  0  0  0  0  0  0
    0.6727   -2.0535   -0.5593 H   0  0  0  0  0  0  0  0  0  0  0  0
   -1.0064   -1.7081   -1.0256 H   0  0  0  0  0  0  0  0  0  0  0  0
   -2.8802    2.1413    0.1426 H   0  0  0  0  0  0  0  0  0  0  0  0
  1  2  3  0
  1  7  1  0
  2  3  1  0
  3  4  1  0
  3  5  1  0
  3  8  1  0
  4  9  1  0
  4 10  1  0
  4 11  1  0
  5  6  3  0
  6 12  1  0
M  END
>  <reaction>  (3) 
rxn_1050

>  <mol_properties>  (3) 
{"2": {"label": "acceptor", "atom_type": "Cs"}, "11": {"label": "a_hydrogen", "atom_type": "H0"}}

>  <type>  (3) 
r2h

$$$$

     RDKit          3D

 23 21  0  0  0  0  0  0  0  0999 V2000
    2.1414   -1.1929   -0.6666 C   0  0  0  0  0  0  0  0  0  0  0  0
    1.4681   -0.5519    0.0935 C   0  0  0  0  0  0  0  0  0  0  0  0
    0.6006    0.1830    0.9687 C   0  0  0  0  0  0  0  0  0  0  0  0
   -0.0179   -0.6266    2.0985 C   0  0  0  0  0  0  0  0  0  0  0  0
    1.0509    1.5011    1.3186 C   0  0  0  0  0  0  0  0  0  0  0  0
    1.3630    2.6246    1.6040 C   0  0  0  0  0  0  0  0  0  0  0  0
    2.7546   -1.7556   -1.3283 H   0  0  0  0  0  0  0  0  0  0  0  0
   -0.4945   -1.5189    1.6914 H   0  0  0  0  0  0  0  0  0  0  0  0
    0.7423   -0.9353    2.8180 H   0  0  0  0  0  0  0  0  0  0  0  0
   -0.7660   -0.0282    2.6188 H   0  0  0  0  0  0  0  0  0  0  0  0
    1.6613    3.6122    1.8614 H   0  0  0  0  0  0  0  0  0  0  0  0
   -2.0167   -1.5848   -1.6346 C   0  0  0  0  0  0  0  0  0  0  0  0
   -2.1956   -0.6442   -0.6986 C   0  0  0  0  0  0  0  0  0  0  0  0
   -1.5165    0.6363   -0.6396 C   0  0  0  0  0  3  0  0  0  0  0  0
   -0.8000    1.1746   -1.8480 C   0  0  0  0  0  0  0  0  0  0  0  0
   -1.3513   -1.4376   -2.4761 H   0  0  0  0  0  0  0  0  0  0  0  0
   -2.5412   -2.5297   -1.5830 H   0  0  0  0  0  0  0  0  0  0  0  0
   -2.8749   -0.8584    0.1218 H   0  0  0  0  0  0  0  0  0  0  0  0
   -0.4724    0.4134    0.2020 H   0  0  0  0  0  0  0  0  0  0  0  0
   -2.0366    1.3895   -0.0497 H   0  0  0  0  0  0  0  0  0  0  0  0
   -1.5040    1.3906   -2.6569 H   0  0  0  0  0  0  0  0  0  0  0  0
   -0.0641    0.4615   -2.2237 H   0  0  0  0  0  0  0  0  0  0  0  0
   -0.2711    2.0949   -1.5993 H   0  0  0  0  0  0  0  0  0  0  0  0
  1  2  3  0
  1  7  1  0
  2  3  1  0
  3  4  1  0
  3  5  1  0
  3 19  1  0
  4  8  1  0
  4  9  1  0
  4 10  1  0
  5  6  3  0
  6 11  1  0
 12 13  2  3
 12 16  1  0
 12 17  1  0
 13 14  1  0
 13 18  1  0
 14 15  1  0
 14 20  1  0
 15 21  1  0
 15 22  1  0
 15 23  1  0
M  RAD  1  14   2
M  END
>  <reaction>  (4) 
rxn_1050

>  <mol_properties>  (4) 
{"1": {"label": "*0", "atom_type": "Ct"}, "2": {"label": "*1", "atom_type": "Cs"}, "12": {"label": "*4", "atom_type": "Cd"}, "13": {"label": "*3", "atom_type": "Cs"}, "18": {"label": "*2", "atom_type": "H0"}}

>  <type>  (4) 
ts

$$$$

     RDKit          3D

 23 21  0  0  0  0  0  0  0  0999 V2000
    2.3992    1.8807    0.3775 C   0  0  0  0  0  0  0  0  0  0  0  0
    1.6939    0.9367    0.5829 C   0  0  0  0  0  0  0  0  0  0  0  0
    0.8606   -0.2451    0.8307 C   0  0  0  0  0  0  0  0  0  0  0  0
    1.6912   -1.3994    1.4183 C   0  0  0  0  0  0  0  0  0  0  0  0
   -0.2814    0.0800    1.6923 C   0  0  0  0  0  0  0  0  0  0  0  0
   -1.2123    0.3144    2.4060 C   0  0  0  0  0  0  0  0  0  0  0  0
    3.0263    2.7200    0.1950 H   0  0  0  0  0  0  0  0  0  0  0  0
    2.5090   -1.6484    0.7427 H   0  0  0  0  0  0  0  0  0  0  0  0
    2.1076   -1.1108    2.3825 H   0  0  0  0  0  0  0  0  0  0  0  0
    1.0602   -2.2767    1.5564 H   0  0  0  0  0  0  0  0  0  0  0  0
   -2.0400    0.5227    3.0405 H   0  0  0  0  0  0  0  0  0  0  0  0
   -1.2255   -1.2865   -2.9783 C   0  0  0  0  0  0  0  0  0  0  0  0
   -1.2255   -1.2865   -1.6540 C   0  0  0  0  0  0  0  0  0  0  0  0
   -1.2255   -0.0820   -0.7605 C   0  0  0  0  0  3  0  0  0  0  0  0
   -1.2255    1.2638   -1.4682 C   0  0  0  0  0  0  0  0  0  0  0  0
   -1.2255   -0.3696   -3.5557 H   0  0  0  0  0  0  0  0  0  0  0  0
   -1.2255   -2.2138   -3.5370 H   0  0  0  0  0  0  0  0  0  0  0  0
   -1.2255   -2.2422   -1.1358 H   0  0  0  0  0  0  0  0  0  0  0  0
   -0.1822   -0.1636    0.0353 H   0  0  0  0  0  0  0  0  0  0  0  0
   -2.0949   -0.1500   -0.0974 H   0  0  0  0  0  0  0  0  0  0  0  0
   -2.1079    1.3788   -2.1006 H   0  0  0  0  0  0  0  0  0  0  0  0
   -0.3430    1.3788   -2.1006 H   0  0  0  0  0  0  0  0  0  0  0  0
   -1.2255    2.0781   -0.7429 H   0  0  0  0  0  0  0  0  0  0  0  0
  1  2  3  0
  1  7  1  0
  2  3  1  0
  3  4  1  0
  3  5  1  0
  3 19  1  0
  4  8  1  0
  4  9  1  0
  4 10  1  0
  5  6  3  0
  6 11  1  0
 12 13  2  3
 12 16  1  0
 12 17  1  0
 13 14  1  0
 13 18  1  0
 14 15  1  0
 14 20  1  0
 15 21  1  0
 15 22  1  0
 15 23  1  0
M  RAD  1  14   2
M  END
>  <reaction>  (5) 
rxn_1050

>  <mol_properties>  (5) 
{"1": {"label": "*0", "atom_type": "Ct"}, "2": {"label": "*1", "atom_type": "Cs"}, "12": {"label": "*4", "atom_type": "Cd"}, "13": {"label": "*3", "atom_type": "Cs"}, "18": {"label": "*2", "atom_type": "H0"}}

>  <type>  (5) 
unop_1

>  <geom_source>  (5) 
Heuristics

$$$$

     RDKit          3D

 23 21  0  0  0  0  0  0  0  0999 V2000
    2.4442   -1.4602   -0.1884 C   0  0  0  0  0  0  0  0  0  0  0  0
    1.5943   -0.8412    0.3820 C   0  0  0  0  0  0  0  0  0  0  0  0
    0.5468   -0.1130    1.1065 C   0  0  0  0  0  0  0  0  0  0  0  0
    0.4381   -0.5959    2.5634 C   0  0  0  0  0  0  0  0  0  0  0  0
    0.7643    1.3365    1.0420 C   0  0  0  0  0  0  0  0  0  0  0  0
    0.9266    2.5213    1.0183 C   0  0  0  0  0  0  0  0  0  0  0  0
    3.1998   -2.0105   -0.6955 H   0  0  0  0  0  0  0  0  0  0  0  0
    0.2378   -1.6666    2.5845 H   0  0  0  0  0  0  0  0  0  0  0  0
    1.3690   -0.4021    3.0947 H   0  0  0  0  0  0  0  0  0  0  0  0
   -0.3710   -0.0694    3.0686 H   0  0  0  0  0  0  0  0  0  0  0  0
    1.0710    3.5747    0.9972 H   0  0  0  0  0  0  0  0  0  0  0  0
   -1.5393   -1.1544   -2.7025 C   0  0  0  0  0  0  0  0  0  0  0  0
   -1.5393   -1.1544   -1.3781 C   0  0  0  0  0  0  0  0  0  0  0  0
   -1.5393    0.0501   -0.4847 C   0  0  0  0  0  3  0  0  0  0  0  0
   -1.5393    1.3959   -1.1924 C   0  0  0  0  0  0  0  0  0  0  0  0
   -1.5393   -0.2375   -3.2799 H   0  0  0  0  0  0  0  0  0  0  0  0
   -1.5393   -2.0817   -3.2612 H   0  0  0  0  0  0  0  0  0  0  0  0
   -1.5393   -2.1101   -0.8600 H   0  0  0  0  0  0  0  0  0  0  0  0
   -0.4960   -0.0314    0.3111 H   0  0  0  0  0  0  0  0  0  0  0  0
   -2.4087   -0.0178    0.1785 H   0  0  0  0  0  0  0  0  0  0  0  0
   -2.4217    1.5109   -1.8248 H   0  0  0  0  0  0  0  0  0  0  0  0
   -0.6568    1.5109   -1.8248 H   0  0  0  0  0  0  0  0  0  0  0  0
   -1.5393    2.2103   -0.4671 H   0  0  0  0  0  0  0  0  0  0  0  0
  1  2  3  0
  1  7  1  0
  2  3  1  0
  3  4  1  0
  3  5  1  0
  3 19  1  0
  4  8  1  0
  4  9  1  0
  4 10  1  0
  5  6  3  0
  6 11  1  0
 12 13  2  3
 12 16  1  0
 12 17  1  0
 13 14  1  0
 13 18  1  0
 14 15  1  0
 14 20  1  0
 15 21  1  0
 15 22  1  0
 15 23  1  0
M  RAD  1  14   2
M  END
>  <reaction>  (6) 
rxn_1050

>  <mol_properties>  (6) 
{"1": {"label": "*0", "atom_type": "Ct"}, "2": {"label": "*1", "atom_type": "Cs"}, "12": {"label": "*4", "atom_type": "Cd"}, "13": {"label": "*3", "atom_type": "Cs"}, "18": {"label": "*2", "atom_type": "H0"}}

>  <type>  (6) 
unop_2

>  <geom_source>  (6) 
Heuristics

$$$$

     RDKit          3D

 23 21  0  0  0  0  0  0  0  0999 V2000
    1.6686    2.3834    1.2891 C   0  0  0  0  0  0  0  0  0  0  0  0
    1.2988    1.2722    1.0459 C   0  0  0  0  0  0  0  0  0  0  0  0
    0.8806   -0.0982    0.7302 C   0  0  0  0  0  0  0  0  0  0  0  0
    2.0930   -1.0389    0.6177 C   0  0  0  0  0  0  0  0  0  0  0  0
   -0.0902   -0.5975    1.7102 C   0  0  0  0  0  0  0  0  0  0  0  0
   -0.8711   -1.0351    2.5038 C   0  0  0  0  0  0  0  0  0  0  0  0
    1.9974    3.3714    1.5054 H   0  0  0  0  0  0  0  0  0  0  0  0
    2.7796   -0.6686   -0.1429 H   0  0  0  0  0  0  0  0  0  0  0  0
    2.6188   -1.0911    1.5702 H   0  0  0  0  0  0  0  0  0  0  0  0
    1.7608   -2.0399    0.3444 H   0  0  0  0  0  0  0  0  0  0  0  0
   -1.5652   -1.4240    3.2093 H   0  0  0  0  0  0  0  0  0  0  0  0
   -1.2055   -1.1396   -3.0787 C   0  0  0  0  0  0  0  0  0  0  0  0
   -1.2055   -1.1396   -1.7544 C   0  0  0  0  0  0  0  0  0  0  0  0
   -1.2055    0.0649   -0.8609 C   0  0  0  0  0  3  0  0  0  0  0  0
   -1.2055    1.4107   -1.5686 C   0  0  0  0  0  0  0  0  0  0  0  0
   -1.2055   -0.2227   -3.6562 H   0  0  0  0  0  0  0  0  0  0  0  0
   -1.2055   -2.0669   -3.6374 H   0  0  0  0  0  0  0  0  0  0  0  0
   -1.2055   -2.0953   -1.2362 H   0  0  0  0  0  0  0  0  0  0  0  0
   -0.1622   -0.0166   -0.0652 H   0  0  0  0  0  0  0  0  0  0  0  0
   -2.0749   -0.0031   -0.1978 H   0  0  0  0  0  0  0  0  0  0  0  0
   -2.0879    1.5257   -2.2011 H   0  0  0  0  0  0  0  0  0  0  0  0
   -0.3230    1.5257   -2.2011 H   0  0  0  0  0  0  0  0  0  0  0  0
   -1.2055    2.2250   -0.8433 H   0  0  0  0  0  0  0  0  0  0  0  0
  1  2  3  0
  1  7  1  0
  2  3  1  0
  3  4  1  0
  3  5  1  0
  3 19  1  0
  4  8  1  0
  4  9  1  0
  4 10  1  0
  5  6  3  0
  6 11  1  0
 12 13  2  3
 12 16  1  0
 12 17  1  0
 13 14  1  0
 13 18  1  0
 14 15  1  0
 14 20  1  0
 15 21  1  0
 15 22  1  0
 15 23  1  0
M  RAD  1  14   2
M  END
>  <reaction>  (7) 
rxn_1050

>  <mol_properties>  (7) 
{"1": {"label": "*0", "atom_type": "Ct"}, "2": {"label": "*1", "atom_type": "Cs"}, "12": {"label": "*4", "atom_type": "Cd"}, "13": {"label": "*3", "atom_type": "Cs"}, "18": {"label": "*2", "atom_type": "H0"}}

>  <type>  (7) 
unop_3

>  <geom_source>  (7) 
Heuristics

$$$$

     RDKit          3D

 23 21  0  0  0  0  0  0  0  0999 V2000
    0.3420   -2.1029    2.2632 C   0  0  0  0  0  0  0  0  0  0  0  0
    0.4829   -1.1063    1.6168 C   0  0  0  0  0  0  0  0  0  0  0  0
    0.6211    0.1298    0.8388 C   0  0  0  0  0  0  0  0  0  0  0  0
   -0.1180    1.2986    1.5136 C   0  0  0  0  0  0  0  0  0  0  0  0
    2.0321    0.4571    0.6057 C   0  0  0  0  0  0  0  0  0  0  0  0
    3.1745    0.7557    0.4147 C   0  0  0  0  0  0  0  0  0  0  0  0
    0.2168   -2.9888    2.8379 H   0  0  0  0  0  0  0  0  0  0  0  0
   -1.1706    1.0473    1.6402 H   0  0  0  0  0  0  0  0  0  0  0  0
    0.3145    1.5028    2.4922 H   0  0  0  0  0  0  0  0  0  0  0  0
   -0.0343    2.1940    0.8986 H   0  0  0  0  0  0  0  0  0  0  0  0
    4.1902    1.0211    0.2448 H   0  0  0  0  0  0  0  0  0  0  0  0
   -1.4650   -0.9116   -2.9701 C   0  0  0  0  0  0  0  0  0  0  0  0
   -1.4650   -0.9116   -1.6458 C   0  0  0  0  0  0  0  0  0  0  0  0
   -1.4650    0.2929   -0.7523 C   0  0  0  0  0  3  0  0  0  0  0  0
   -1.4650    1.6387   -1.4600 C   0  0  0  0  0  0  0  0  0  0  0  0
   -1.4650    0.0053   -3.5476 H   0  0  0  0  0  0  0  0  0  0  0  0
   -1.4650   -1.8389   -3.5288 H   0  0  0  0  0  0  0  0  0  0  0  0
   -1.4650   -1.8673   -1.1276 H   0  0  0  0  0  0  0  0  0  0  0  0
   -0.4218    0.2114    0.0434 H   0  0  0  0  0  0  0  0  0  0  0  0
   -2.3344    0.2249   -0.0892 H   0  0  0  0  0  0  0  0  0  0  0  0
   -2.3475    1.7537   -2.0925 H   0  0  0  0  0  0  0  0  0  0  0  0
   -0.5826    1.7537   -2.0925 H   0  0  0  0  0  0  0  0  0  0  0  0
   -1.4650    2.4530   -0.7347 H   0  0  0  0  0  0  0  0  0  0  0  0
  1  2  3  0
  1  7  1  0
  2  3  1  0
  3  4  1  0
  3  5  1  0
  3 19  1  0
  4  8  1  0
  4  9  1  0
  4 10  1  0
  5  6  3  0
  6 11  1  0
 12 13  2  3
 12 16  1  0
 12 17  1  0
 13 14  1  0
 13 18  1  0
 14 15  1  0
 14 20  1  0
 15 21  1  0
 15 22  1  0
 15 23  1  0
M  RAD  1  14   2
M  END
>  <reaction>  (8) 
rxn_1050

>  <mol_properties>  (8) 
{"1": {"label": "*0", "atom_type": "Ct"}, "2": {"label": "*1", "atom_type": "Cs"}, "12": {"label": "*4", "atom_type": "Cd"}, "13": {"label": "*3", "atom_type": "Cs"}, "18": {"label": "*2", "atom_type": "H0"}}

>  <type>  (8) 
unop_4

>  <geom_source>  (8) 
Heuristics

$$$$

     RDKit          3D

 23 21  0  0  0  0  0  0  0  0999 V2000
    0.7567    2.2077    2.2762 C   0  0  0  0  0  0  0  0  0  0  0  0
    0.7507    1.2264    1.5922 C   0  0  0  0  0  0  0  0  0  0  0  0
    0.7665    0.0420    0.7266 C   0  0  0  0  0  0  0  0  0  0  0  0
    2.0334    0.0063   -0.1459 C   0  0  0  0  0  0  0  0  0  0  0  0
    0.6252   -1.1910    1.5090 C   0  0  0  0  0  0  0  0  0  0  0  0
    0.5272   -2.2122    2.1240 C   0  0  0  0  0  0  0  0  0  0  0  0
    0.7619    3.0801    2.8844 H   0  0  0  0  0  0  0  0  0  0  0  0
    2.0955    0.9137   -0.7458 H   0  0  0  0  0  0  0  0  0  0  0  0
    2.9210   -0.0614    0.4817 H   0  0  0  0  0  0  0  0  0  0  0  0
    2.0035   -0.8594   -0.8068 H   0  0  0  0  0  0  0  0  0  0  0  0
    0.4400   -3.1201    2.6709 H   0  0  0  0  0  0  0  0  0  0  0  0
   -1.3196   -0.9994   -3.0824 C   0  0  0  0  0  0  0  0  0  0  0  0
   -1.3196   -0.9994   -1.7580 C   0  0  0  0  0  0  0  0  0  0  0  0
   -1.3196    0.2051   -0.8646 C   0  0  0  0  0  3  0  0  0  0  0  0
   -1.3196    1.5509   -1.5723 C   0  0  0  0  0  0  0  0  0  0  0  0
   -1.3196   -0.0825   -3.6598 H   0  0  0  0  0  0  0  0  0  0  0  0
   -1.3196   -1.9267   -3.6411 H   0  0  0  0  0  0  0  0  0  0  0  0
   -1.3196   -1.9551   -1.2398 H   0  0  0  0  0  0  0  0  0  0  0  0
   -0.2763    0.1236   -0.0688 H   0  0  0  0  0  0  0  0  0  0  0  0
   -2.1890    0.1372   -0.2014 H   0  0  0  0  0  0  0  0  0  0  0  0
   -2.2020    1.6659   -2.2047 H   0  0  0  0  0  0  0  0  0  0  0  0
   -0.4371    1.6659   -2.2047 H   0  0  0  0  0  0  0  0  0  0  0  0
   -1.3196    2.3652   -0.8470 H   0  0  0  0  0  0  0  0  0  0  0  0
  1  2  3  0
  1  7  1  0
  2  3  1  0
  3  4  1  0
  3  5  1  0
  3 19  1  0
  4  8  1  0
  4  9  1  0
  4 10  1  0
  5  6  3  0
  6 11  1  0
 12 13  2  3
 12 16  1  0
 12 17  1  0
 13 14  1  0
 13 18  1  0
 14 15  1  0
 14 20  1  0
 15 21  1  0
 15 22  1  0
 15 23  1  0
M  RAD  1  14   2
M  END
>  <reaction>  (9) 
rxn_1050

>  <mol_properties>  (9) 
{"1": {"label": "*0", "atom_type": "Ct"}, "2": {"label": "*1", "atom_type": "Cs"}, "12": {"label": "*4", "atom_type": "Cd"}, "13": {"label": "*3", "atom_type": "Cs"}, "18": {"label": "*2", "atom_type": "H0"}}

>  <type>  (9) 
unop_5

>  <geom_source>  (9) 
Heuristics

$$$$

     RDKit          3D

 23 21  0  0  0  0  0  0  0  0999 V2000
   -0.1401   -1.2196    2.9808 C   0  0  0  0  0  0  0  0  0  0  0  0
    0.2295   -0.6507    1.9956 C   0  0  0  0  0  0  0  0  0  0  0  0
    0.6526    0.0730    0.7916 C   0  0  0  0  0  0  0  0  0  0  0  0
    0.2084    1.5453    0.8413 C   0  0  0  0  0  0  0  0  0  0  0  0
    2.1008   -0.0384    0.5850 C   0  0  0  0  0  0  0  0  0  0  0  0
    3.2813   -0.1000    0.4016 C   0  0  0  0  0  0  0  0  0  0  0  0
   -0.4688   -1.7254    3.8566 H   0  0  0  0  0  0  0  0  0  0  0  0
   -0.8737    1.6018    0.9556 H   0  0  0  0  0  0  0  0  0  0  0  0
    0.6775    2.0519    1.6837 H   0  0  0  0  0  0  0  0  0  0  0  0
    0.4988    2.0509   -0.0790 H   0  0  0  0  0  0  0  0  0  0  0  0
    4.3307   -0.1549    0.2386 H   0  0  0  0  0  0  0  0  0  0  0  0
   -1.4334   -0.9684   -3.0174 C   0  0  0  0  0  0  0  0  0  0  0  0
   -1.4334   -0.9684   -1.6930 C   0  0  0  0  0  0  0  0  0  0  0  0
   -1.4334    0.2361   -0.7996 C   0  0  0  0  0  3  0  0  0  0  0  0
   -1.4334    1.5818   -1.5073 C   0  0  0  0  0  0  0  0  0  0  0  0
   -1.4334   -0.0515   -3.5948 H   0  0  0  0  0  0  0  0  0  0  0  0
   -1.4334   -1.8958   -3.5760 H   0  0  0  0  0  0  0  0  0  0  0  0
   -1.4334   -1.9241   -1.1748 H   0  0  0  0  0  0  0  0  0  0  0  0
   -0.3902    0.1545   -0.0038 H   0  0  0  0  0  0  0  0  0  0  0  0
   -2.3028    0.1681   -0.1364 H   0  0  0  0  0  0  0  0  0  0  0  0
   -2.3159    1.6968   -2.1397 H   0  0  0  0  0  0  0  0  0  0  0  0
   -0.5510    1.6968   -2.1397 H   0  0  0  0  0  0  0  0  0  0  0  0
   -1.4334    2.3962   -0.7820 H   0  0  0  0  0  0  0  0  0  0  0  0
  1  2  3  0
  1  7  1  0
  2  3  1  0
  3  4  1  0
  3  5  1  0
  3 19  1  0
  4  8  1  0
  4  9  1  0
  4 10  1  0
  5  6  3  0
  6 11  1  0
 12 13  2  3
 12 16  1  0
 12 17  1  0
 13 14  1  0
 13 18  1  0
 14 15  1  0
 14 20  1  0
 15 21  1  0
 15 22  1  0
 15 23  1  0
M  RAD  1  14   2
M  END
>  <reaction>  (10) 
rxn_1050

>  <mol_properties>  (10) 
{"1": {"label": "*0", "atom_type": "Ct"}, "2": {"label": "*1", "atom_type": "Cs"}, "12": {"label": "*4", "atom_type": "Cd"}, "13": {"label": "*3", "atom_type": "Cs"}, "18": {"label": "*2", "atom_type": "H0"}}

>  <type>  (10) 
unop_6

>  <geom_source>  (10) 
Heuristics

$$$$

     RDKit          3D

 23 21  0  0  0  0  0  0  0  0999 V2000
   -0.2754    0.0129    3.2846 C   0  0  0  0  0  0  0  0  0  0  0  0
    0.1502    0.0055    2.1667 C   0  0  0  0  0  0  0  0  0  0  0  0
    0.6517    0.0300    0.7882 C   0  0  0  0  0  0  0  0  0  0  0  0
    0.6812    1.4641    0.2314 C   0  0  0  0  0  0  0  0  0  0  0  0
    1.9705   -0.6053    0.6902 C   0  0  0  0  0  0  0  0  0  0  0  0
    3.0527   -1.1038    0.5849 C   0  0  0  0  0  0  0  0  0  0  0  0
   -0.6538    0.0195    4.2784 H   0  0  0  0  0  0  0  0  0  0  0  0
   -0.3161    1.9002    0.2786 H   0  0  0  0  0  0  0  0  0  0  0  0
    1.3624    2.0811    0.8159 H   0  0  0  0  0  0  0  0  0  0  0  0
    1.0190    1.4522   -0.8044 H   0  0  0  0  0  0  0  0  0  0  0  0
    4.0148   -1.5471    0.4914 H   0  0  0  0  0  0  0  0  0  0  0  0
   -1.4344   -1.0114   -3.0208 C   0  0  0  0  0  0  0  0  0  0  0  0
   -1.4344   -1.0114   -1.6964 C   0  0  0  0  0  0  0  0  0  0  0  0
   -1.4344    0.1931   -0.8030 C   0  0  0  0  0  3  0  0  0  0  0  0
   -1.4344    1.5389   -1.5107 C   0  0  0  0  0  0  0  0  0  0  0  0
   -1.4344   -0.0945   -3.5982 H   0  0  0  0  0  0  0  0  0  0  0  0
   -1.4344   -1.9387   -3.5794 H   0  0  0  0  0  0  0  0  0  0  0  0
   -1.4344   -1.9671   -1.1782 H   0  0  0  0  0  0  0  0  0  0  0  0
   -0.3911    0.1116   -0.0072 H   0  0  0  0  0  0  0  0  0  0  0  0
   -2.3038    0.1251   -0.1398 H   0  0  0  0  0  0  0  0  0  0  0  0
   -2.3168    1.6539   -2.1431 H   0  0  0  0  0  0  0  0  0  0  0  0
   -0.5519    1.6539   -2.1431 H   0  0  0  0  0  0  0  0  0  0  0  0
   -1.4344    2.3532   -0.7854 H   0  0  0  0  0  0  0  0  0  0  0  0
  1  2  3  0
  1  7  1  0
  2  3  1  0
  3  4  1  0
  3  5  1  0
  3 19  1  0
  4  8  1  0
  4  9  1  0
  4 10  1  0
  5  6  3  0
  6 11  1  0
 12 13  2  3
 12 16  1  0
 12 17  1  0
 13 14  1  0
 13 18  1  0
 14 15  1  0
 14 20  1  0
 15 21  1  0
 15 22  1  0
 15 23  1  0
M  RAD  1  14   2
M  END
>  <reaction>  (11) 
rxn_1050

>  <mol_properties>  (11) 
{"1": {"label": "*0", "atom_type": "Ct"}, "2": {"label": "*1", "atom_type": "Cs"}, "12": {"label": "*4", "atom_type": "Cd"}, "13": {"label": "*3", "atom_type": "Cs"}, "18": {"label": "*2", "atom_type": "H0"}}

>  <type>  (11) 
unop_7

>  <geom_source>  (11) 
Heuristics

$$$$

     RDKit          3D

 23 21  0  0  0  0  0  0  0  0999 V2000
    2.8091    0.8905   -0.2571 C   0  0  0  0  0  0  0  0  0  0  0  0
    1.8787    0.3710    0.2864 C   0  0  0  0  0  0  0  0  0  0  0  0
    0.7606   -0.2983    0.9602 C   0  0  0  0  0  0  0  0  0  0  0  0
    1.2643   -1.3167    1.9979 C   0  0  0  0  0  0  0  0  0  0  0  0
   -0.1525    0.6745    1.5704 C   0  0  0  0  0  0  0  0  0  0  0  0
   -0.9047    1.4455    2.0905 C   0  0  0  0  0  0  0  0  0  0  0  0
    3.6362    1.3525   -0.7403 H   0  0  0  0  0  0  0  0  0  0  0  0
    1.9080   -2.0507    1.5140 H   0  0  0  0  0  0  0  0  0  0  0  0
    1.8326   -0.8106    2.7771 H   0  0  0  0  0  0  0  0  0  0  0  0
    0.4182   -1.8280    2.4558 H   0  0  0  0  0  0  0  0  0  0  0  0
   -1.5734    2.1310    2.5530 H   0  0  0  0  0  0  0  0  0  0  0  0
   -1.3255   -1.3397   -2.8487 C   0  0  0  0  0  0  0  0  0  0  0  0
   -1.3255   -1.3397   -1.5244 C   0  0  0  0  0  0  0  0  0  0  0  0
   -1.3255   -0.1352   -0.6309 C   0  0  0  0  0  3  0  0  0  0  0  0
   -1.3255    1.2105   -1.3386 C   0  0  0  0  0  0  0  0  0  0  0  0
   -1.3255   -0.4228   -3.4262 H   0  0  0  0  0  0  0  0  0  0  0  0
   -1.3255   -2.2670   -3.4074 H   0  0  0  0  0  0  0  0  0  0  0  0
   -1.3255   -2.2954   -1.0062 H   0  0  0  0  0  0  0  0  0  0  0  0
   -0.2822   -0.2168    0.1648 H   0  0  0  0  0  0  0  0  0  0  0  0
   -2.1949   -0.2032    0.0322 H   0  0  0  0  0  0  0  0  0  0  0  0
   -2.2080    1.3256   -1.9711 H   0  0  0  0  0  0  0  0  0  0  0  0
   -0.4431    1.3256   -1.9711 H   0  0  0  0  0  0  0  0  0  0  0  0
   -1.3255    2.0249   -0.6133 H   0  0  0  0  0  0  0  0  0  0  0  0
  1  2  3  0
  1  7  1  0
  2  3  1  0
  3  4  1  0
  3  5  1  0
  3 19  1  0
  4  8  1  0
  4  9  1  0
  4 10  1  0
  5  6  3  0
  6 11  1  0
 12 13  2  3
 12 16  1  0
 12 17  1  0
 13 14  1  0
 13 18  1  0
 14 15  1  0
 14 20  1  0
 15 21  1  0
 15 22  1  0
 15 23  1  0
M  RAD  1  14   2
M  END
>  <reaction>  (12) 
rxn_1050

>  <mol_properties>  (12) 
{"1": {"label": "*0", "atom_type": "Ct"}, "2": {"label": "*1", "atom_type": "Cs"}, "12": {"label": "*4", "atom_type": "Cd"}, "13": {"label": "*3", "atom_type": "Cs"}, "18": {"label": "*2", "atom_type": "H0"}}

>  <type>  (12) 
unop_8

>  <geom_source>  (12) 
Heuristics

$$$$

     RDKit          3D

 23 21  0  0  0  0  0  0  0  0999 V2000
    1.0368   -2.4526    1.3475 C   0  0  0  0  0  0  0  0  0  0  0  0
    0.8373   -1.2893    1.1533 C   0  0  0  0  0  0  0  0  0  0  0  0
    0.5604    0.1354    0.9388 C   0  0  0  0  0  0  0  0  0  0  0  0
   -0.2119    0.7378    2.1254 C   0  0  0  0  0  0  0  0  0  0  0  0
    1.7943    0.8833    0.6731 C   0  0  0  0  0  0  0  0  0  0  0  0
    2.7865    1.5197    0.4696 C   0  0  0  0  0  0  0  0  0  0  0  0
    1.2141   -3.4869    1.5202 H   0  0  0  0  0  0  0  0  0  0  0  0
   -1.1417    0.1909    2.2780 H   0  0  0  0  0  0  0  0  0  0  0  0
    0.3855    0.6755    3.0341 H   0  0  0  0  0  0  0  0  0  0  0  0
   -0.4398    1.7844    1.9258 H   0  0  0  0  0  0  0  0  0  0  0  0
    3.6686    2.0854    0.2886 H   0  0  0  0  0  0  0  0  0  0  0  0
   -1.5256   -0.9060   -2.8702 C   0  0  0  0  0  0  0  0  0  0  0  0
   -1.5256   -0.9060   -1.5458 C   0  0  0  0  0  0  0  0  0  0  0  0
   -1.5256    0.2985   -0.6524 C   0  0  0  0  0  3  0  0  0  0  0  0
   -1.5256    1.6442   -1.3601 C   0  0  0  0  0  0  0  0  0  0  0  0
   -1.5256    0.0109   -3.4476 H   0  0  0  0  0  0  0  0  0  0  0  0
   -1.5256   -1.8334   -3.4289 H   0  0  0  0  0  0  0  0  0  0  0  0
   -1.5256   -1.8617   -1.0277 H   0  0  0  0  0  0  0  0  0  0  0  0
   -0.4824    0.2169    0.1434 H   0  0  0  0  0  0  0  0  0  0  0  0
   -2.3950    0.2305    0.0107 H   0  0  0  0  0  0  0  0  0  0  0  0
   -2.4081    1.7593   -1.9925 H   0  0  0  0  0  0  0  0  0  0  0  0
   -0.6432    1.7593   -1.9925 H   0  0  0  0  0  0  0  0  0  0  0  0
   -1.5256    2.4586   -0.6348 H   0  0  0  0  0  0  0  0  0  0  0  0
  1  2  3  0
  1  7  1  0
  2  3  1  0
  3  4  1  0
  3  5  1  0
  3 19  1  0
  4  8  1  0
  4  9  1  0
  4 10  1  0
  5  6  3  0
  6 11  1  0
 12 13  2  3
 12 16  1  0
 12 17  1  0
 13 14  1  0
 13 18  1  0
 14 15  1  0
 14 20  1  0
 15 21  1  0
 15 22  1  0
 15 23  1  0
M  RAD  1  14   2
M  END
>  <reaction>  (13) 
rxn_1050

>  <mol_properties>  (13) 
{"1": {"label": "*0", "atom_type": "Ct"}, "2": {"label": "*1", "atom_type": "Cs"}, "12": {"label": "*4", "atom_type": "Cd"}, "13": {"label": "*3", "atom_type": "Cs"}, "18": {"label": "*2", "atom_type": "H0"}}

>  <type>  (13) 
unop_9

>  <geom_source>  (13) 
Heuristics

$$$$

     RDKit          3D

 23 21  0  0  0  0  0  0  0  0999 V2000
    2.8218   -0.3294   -0.4587 C   0  0  0  0  0  0  0  0  0  0  0  0
    1.8376   -0.2769    0.2190 C   0  0  0  0  0  0  0  0  0  0  0  0
    0.6410   -0.2471    1.0673 C   0  0  0  0  0  0  0  0  0  0  0  0
    0.8648   -1.0279    2.3741 C   0  0  0  0  0  0  0  0  0  0  0  0
    0.2144    1.1303    1.3378 C   0  0  0  0  0  0  0  0  0  0  0  0
   -0.1459    2.2434    1.5868 C   0  0  0  0  0  0  0  0  0  0  0  0
    3.6969   -0.3761   -1.0613 H   0  0  0  0  0  0  0  0  0  0  0  0
    1.1421   -2.0569    2.1477 H   0  0  0  0  0  0  0  0  0  0  0  0
    1.6634   -0.5686    2.9552 H   0  0  0  0  0  0  0  0  0  0  0  0
   -0.0485   -1.0248    2.9683 H   0  0  0  0  0  0  0  0  0  0  0  0
   -0.4663    3.2330    1.8081 H   0  0  0  0  0  0  0  0  0  0  0  0
   -1.4451   -1.2885   -2.7416 C   0  0  0  0  0  0  0  0  0  0  0  0
   -1.4451   -1.2885   -1.4173 C   0  0  0  0  0  0  0  0  0  0  0  0
   -1.4451   -0.0840   -0.5238 C   0  0  0  0  0  3  0  0  0  0  0  0
   -1.4451    1.2618   -1.2315 C   0  0  0  0  0  0  0  0  0  0  0  0
   -1.4451   -0.3715   -3.3191 H   0  0  0  0  0  0  0  0  0  0  0  0
   -1.4451   -2.2158   -3.3003 H   0  0  0  0  0  0  0  0  0  0  0  0
   -1.4451   -2.2442   -0.8991 H   0  0  0  0  0  0  0  0  0  0  0  0
   -0.4018   -0.1655    0.2719 H   0  0  0  0  0  0  0  0  0  0  0  0
   -2.3145   -0.1519    0.1393 H   0  0  0  0  0  0  0  0  0  0  0  0
   -2.3275    1.3768   -1.8640 H   0  0  0  0  0  0  0  0  0  0  0  0
   -0.5626    1.3768   -1.8640 H   0  0  0  0  0  0  0  0  0  0  0  0
   -1.4451    2.0762   -0.5062 H   0  0  0  0  0  0  0  0  0  0  0  0
  1  2  3  0
  1  7  1  0
  2  3  1  0
  3  4  1  0
  3  5  1  0
  3 19  1  0
  4  8  1  0
  4  9  1  0
  4 10  1  0
  5  6  3  0
  6 11  1  0
 12 13  2  3
 12 16  1  0
 12 17  1  0
 13 14  1  0
 13 18  1  0
 14 15  1  0
 14 20  1  0
 15 21  1  0
 15 22  1  0
 15 23  1  0
M  RAD  1  14   2
M  END
>  <reaction>  (14) 
rxn_1050

>  <mol_properties>  (14) 
{"1": {"label": "*0", "atom_type": "Ct"}, "2": {"label": "*1", "atom_type": "Cs"}, "12": {"label": "*4", "atom_type": "Cd"}, "13": {"label": "*3", "atom_type": "Cs"}, "18": {"label": "*2", "atom_type": "H0"}}

>  <type>  (14) 
unop_10

>  <geom_source>  (14) 
Heuristics

$$$$

     RDKit          3D

 23 21  0  0  0  0  0  0  0  0999 V2000
    0.0198    1.2930    3.0422 C   0  0  0  0  0  0  0  0  0  0  0  0
    0.3092    0.7153    2.0355 C   0  0  0  0  0  0  0  0  0  0  0  0
    0.6617    0.0414    0.7809 C   0  0  0  0  0  0  0  0  0  0  0  0
    1.3266    1.0156   -0.2072 C   0  0  0  0  0  0  0  0  0  0  0  0
    1.5113   -1.1292    1.0259 C   0  0  0  0  0  0  0  0  0  0  0  0
    2.2176   -2.0795    1.1962 C   0  0  0  0  0  0  0  0  0  0  0  0
   -0.2375    1.8065    3.9371 H   0  0  0  0  0  0  0  0  0  0  0  0
    0.6611    1.8557   -0.4034 H   0  0  0  0  0  0  0  0  0  0  0  0
    2.2589    1.3956    0.2085 H   0  0  0  0  0  0  0  0  0  0  0  0
    1.5428    0.5028   -1.1439 H   0  0  0  0  0  0  0  0  0  0  0  0
    2.8455   -2.9243    1.3476 H   0  0  0  0  0  0  0  0  0  0  0  0
   -1.4244   -0.9999   -3.0281 C   0  0  0  0  0  0  0  0  0  0  0  0
   -1.4244   -0.9999   -1.7037 C   0  0  0  0  0  0  0  0  0  0  0  0
   -1.4244    0.2045   -0.8103 C   0  0  0  0  0  3  0  0  0  0  0  0
   -1.4244    1.5503   -1.5180 C   0  0  0  0  0  0  0  0  0  0  0  0
   -1.4244   -0.0830   -3.6055 H   0  0  0  0  0  0  0  0  0  0  0  0
   -1.4244   -1.9273   -3.5867 H   0  0  0  0  0  0  0  0  0  0  0  0
   -1.4244   -1.9557   -1.1855 H   0  0  0  0  0  0  0  0  0  0  0  0
   -0.3811    0.1230   -0.0145 H   0  0  0  0  0  0  0  0  0  0  0  0
   -2.2938    0.1366   -0.1471 H   0  0  0  0  0  0  0  0  0  0  0  0
   -2.3068    1.6653   -2.1504 H   0  0  0  0  0  0  0  0  0  0  0  0
   -0.5420    1.6653   -2.1504 H   0  0  0  0  0  0  0  0  0  0  0  0
   -1.4244    2.3647   -0.7927 H   0  0  0  0  0  0  0  0  0  0  0  0
  1  2  3  0
  1  7  1  0
  2  3  1  0
  3  4  1  0
  3  5  1  0
  3 19  1  0
  4  8  1  0
  4  9  1  0
  4 10  1  0
  5  6  3  0
  6 11  1  0
 12 13  2  3
 12 16  1  0
 12 17  1  0
 13 14  1  0
 13 18  1  0
 14 15  1  0
 14 20  1  0
 15 21  1  0
 15 22  1  0
 15 23  1  0
M  RAD  1  14   2
M  END
>  <reaction>  (15) 
rxn_1050

>  <mol_properties>  (15) 
{"1": {"label": "*0", "atom_type": "Ct"}, "2": {"label": "*1", "atom_type": "Cs"}, "12": {"label": "*4", "atom_type": "Cd"}, "13": {"label": "*3", "atom_type": "Cs"}, "18": {"label": "*2", "atom_type": "H0"}}

>  <type>  (15) 
unop_11

>  <geom_source>  (15) 
Heuristics

$$$$

     RDKit          3D

 23 21  0  0  0  0  0  0  0  0999 V2000
    1.7911   -2.2207    0.4660 C   0  0  0  0  0  0  0  0  0  0  0  0
    1.2291   -1.1951    0.7168 C   0  0  0  0  0  0  0  0  0  0  0  0
    0.5182    0.0437    1.0523 C   0  0  0  0  0  0  0  0  0  0  0  0
    0.0123    0.0199    2.5052 C   0  0  0  0  0  0  0  0  0  0  0  0
    1.3546    1.2224    0.8001 C   0  0  0  0  0  0  0  0  0  0  0  0
    2.0206    2.1992    0.6182 C   0  0  0  0  0  0  0  0  0  0  0  0
    2.2908   -3.1326    0.2430 H   0  0  0  0  0  0  0  0  0  0  0  0
   -0.6372   -0.8415    2.6570 H   0  0  0  0  0  0  0  0  0  0  0  0
    0.8523   -0.0474    3.1953 H   0  0  0  0  0  0  0  0  0  0  0  0
   -0.5451    0.9315    2.7181 H   0  0  0  0  0  0  0  0  0  0  0  0
    2.6128    3.0676    0.4565 H   0  0  0  0  0  0  0  0  0  0  0  0
   -1.5678   -0.9977   -2.7567 C   0  0  0  0  0  0  0  0  0  0  0  0
   -1.5678   -0.9977   -1.4323 C   0  0  0  0  0  0  0  0  0  0  0  0
   -1.5678    0.2068   -0.5389 C   0  0  0  0  0  3  0  0  0  0  0  0
   -1.5678    1.5526   -1.2466 C   0  0  0  0  0  0  0  0  0  0  0  0
   -1.5678   -0.0808   -3.3341 H   0  0  0  0  0  0  0  0  0  0  0  0
   -1.5678   -1.9250   -3.3154 H   0  0  0  0  0  0  0  0  0  0  0  0
   -1.5678   -1.9534   -0.9142 H   0  0  0  0  0  0  0  0  0  0  0  0
   -0.5246    0.1252    0.2569 H   0  0  0  0  0  0  0  0  0  0  0  0
   -2.4372    0.1388    0.1242 H   0  0  0  0  0  0  0  0  0  0  0  0
   -2.4503    1.6676   -1.8790 H   0  0  0  0  0  0  0  0  0  0  0  0
   -0.6854    1.6676   -1.8790 H   0  0  0  0  0  0  0  0  0  0  0  0
   -1.5678    2.3669   -0.5213 H   0  0  0  0  0  0  0  0  0  0  0  0
  1  2  3  0
  1  7  1  0
  2  3  1  0
  3  4  1  0
  3  5  1  0
  3 19  1  0
  4  8  1  0
  4  9  1  0
  4 10  1  0
  5  6  3  0
  6 11  1  0
 12 13  2  3
 12 16  1  0
 12 17  1  0
 13 14  1  0
 13 18  1  0
 14 15  1  0
 14 20  1  0
 15 21  1  0
 15 22  1  0
 15 23  1  0
M  RAD  1  14   2
M  END
>  <reaction>  (16) 
rxn_1050

>  <mol_properties>  (16) 
{"1": {"label": "*0", "atom_type": "Ct"}, "2": {"label": "*1", "atom_type": "Cs"}, "12": {"label": "*4", "atom_type": "Cd"}, "13": {"label": "*3", "atom_type": "Cs"}, "18": {"label": "*2", "atom_type": "H0"}}

>  <type>  (16) 
unop_12

>  <geom_source>  (16) 
Heuristics

$$$$

     RDKit          3D

 23 21  0  0  0  0  0  0  0  0999 V2000
    1.4410    0.0159    0.1218 C   0  0  0  0  0  0  0  0  0  0  0  0
    1.7822   -0.3889   -1.3106 C   0  0  0  0  0  0  0  0  0  0  0  0
   -1.9545    0.8570   -1.3749 C   0  0  0  0  0  0  0  0  0  0  0  0
   -1.1362    0.1077   -0.3304 C   0  0  0  0  0  3  0  0  0  0  0  0
   -1.9094   -0.1096    0.9379 C   0  0  0  0  0  0  0  0  0  0  0  0
   -2.9267   -0.9732    1.0031 C   0  0  0  0  0  0  0  0  0  0  0  0
    1.9613   -0.9756    1.0712 C   0  0  0  0  0  0  0  0  0  0  0  0
    2.0124    1.3323    0.4311 C   0  0  0  0  0  0  0  0  0  0  0  0
    2.3872   -1.7911    1.8509 C   0  0  0  0  0  0  0  0  0  0  0  0
    2.4802    2.4145    0.6846 C   0  0  0  0  0  0  0  0  0  0  0  0
    0.1481    0.0797    0.2488 H   0  0  0  0  0  0  0  0  0  0  0  0
    1.3310   -1.3771   -1.5437 H   0  0  0  0  0  0  0  0  0  0  0  0
    1.3693    0.3559   -2.0243 H   0  0  0  0  0  0  0  0  0  0  0  0
    2.8834   -0.4529   -1.4535 H   0  0  0  0  0  0  0  0  0  0  0  0
   -1.3209    1.0515   -2.2651 H   0  0  0  0  0  0  0  0  0  0  0  0
   -2.2983    1.8300   -0.9643 H   0  0  0  0  0  0  0  0  0  0  0  0
   -2.8340    0.2548   -1.6869 H   0  0  0  0  0  0  0  0  0  0  0  0
   -0.7677   -0.8589   -0.7367 H   0  0  0  0  0  0  0  0  0  0  0  0
   -1.6090    0.4300    1.8301 H   0  0  0  0  0  0  0  0  0  0  0  0
   -3.4564   -1.1183    1.9389 H   0  0  0  0  0  0  0  0  0  0  0  0
   -3.2347   -1.5410    0.1303 H   0  0  0  0  0  0  0  0  0  0  0  0
    2.7610   -2.5066    2.5350 H   0  0  0  0  0  0  0  0  0  0  0  0
    2.8908    3.3641    0.9070 H   0  0  0  0  0  0  0  0  0  0  0  0
  1  2  1  0
  1  7  1  0
  1  8  1  0
  1 11  1  0
  2 12  1  0
  2 13  1  0
  2 14  1  0
  3  4  1  0
  3 15  1  0
  3 16  1  0
  3 17  1  0
  4  5  1  0
  4 18  1  0
  5  6  2  3
  5 19  1  0
  6 20  1  0
  6 21  1  0
  7  9  3  0
  8 10  3  0
  9 22  1  0
 10 23  1  0
M  RAD  1   4   2
M  END
>  <reaction>  (17) 
rxn_1050

>  <mol_properties>  (17) 
{"1": {"label": "*0", "atom_type": "Ct"}, "2": {"label": "*1", "atom_type": "Cs"}, "12": {"label": "*4", "atom_type": "Cd"}, "13": {"label": "*3", "atom_type": "Cs"}, "18": {"label": "*2", "atom_type": "H0"}}

>  <type>  (17) 
unop_13

>  <geom_source>  (17) 
AutoTST

$$$$
