
     RDKit          3D

  4  3  0  0  0  0  0  0  0  0999 V2000
   -0.0057    0.0001   -0.0008 C   0  0  0  0  0  0  0  0  0  0  0  0
    1.1789   -0.0174    0.1563 O   0  0  0  0  0  0  0  0  0  0  0  0
   -0.5891    0.9399    0.0445 H   0  0  0  0  0  0  0  0  0  0  0  0
   -0.5841   -0.9226   -0.2001 H   0  0  0  0  0  0  0  0  0  0  0  0
  1  2  2  0
  1  3  1  0
  1  4  1  0
M  END
>  <reaction>  (1) 
rxn_365

>  <mol_properties>  (1) 
{"0": {"label": "donator", "atom_type": "CO"}, "2": {"label": "d_hydrogen", "atom_type": "H0"}}

>  <type>  (1) 
r1h

$$$$

     RDKit          3D

  5  4  0  0  0  0  0  0  0  0999 V2000
    0.0397    0.7134    0.0000 C   0  0  0  0  0  3  0  0  0  0  0  0
    0.0458   -0.5870    0.0000 C   0  0  0  0  0  0  0  0  0  0  0  0
   -0.6871    1.5118    0.0000 H   0  0  0  0  0  0  0  0  0  0  0  0
   -0.8806   -1.1637    0.0000 H   0  0  0  0  0  0  0  0  0  0  0  0
    0.9690   -1.1600    0.0000 H   0  0  0  0  0  0  0  0  0  0  0  0
  1  2  2  3
  1  3  1  0
  2  4  1  0
  2  5  1  0
M  RAD  1   1   2
M  END
>  <reaction>  (2) 
rxn_365

>  <mol_properties>  (2) 
{"0": {"label": "acceptor", "atom_type": "Cd"}}

>  <type>  (2) 
r2

$$$$

     RDKit          3D

  6  5  0  0  0  0  0  0  0  0999 V2000
    0.6594    0.0438   -0.0050 C   0  0  0  0  0  0  0  0  0  0  0  0
   -0.6594   -0.0438    0.0050 C   0  0  0  0  0  0  0  0  0  0  0  0
    1.1706    0.8681   -0.4881 H   0  0  0  0  0  0  0  0  0  0  0  0
    1.2824   -0.7051    0.4696 H   0  0  0  0  0  0  0  0  0  0  0  0
   -1.2824    0.7051   -0.4696 H   0  0  0  0  0  0  0  0  0  0  0  0
   -1.1706   -0.8681    0.4881 H   0  0  0  0  0  0  0  0  0  0  0  0
  1  2  2  3
  1  3  1  0
  1  4  1  0
  2  5  1  0
  2  6  1  0
M  END
>  <reaction>  (3) 
rxn_365

>  <mol_properties>  (3) 
{"0": {"label": "acceptor", "atom_type": "Cd"}, "5": {"label": "a_hydrogen", "atom_type": "H0"}}

>  <type>  (3) 
r2h

$$$$

     RDKit          3D

  9  7  0  0  0  0  0  0  0  0999 V2000
    0.0191    1.2756    0.7350 C   0  0  0  0  0  3  0  0  0  0  0  0
    0.0086    1.1572    2.0396 C   0  0  0  0  0  0  0  0  0  0  0  0
    0.0409    2.1642    0.1158 H   0  0  0  0  0  0  0  0  0  0  0  0
    0.0220    2.0257    2.6958 H   0  0  0  0  0  0  0  0  0  0  0  0
   -0.0140    0.1880    2.5299 H   0  0  0  0  0  0  0  0  0  0  0  0
   -0.0196   -1.0914   -0.6832 C   0  0  0  0  0  0  0  0  0  0  0  0
   -0.0129   -1.1246   -1.8678 O   0  0  0  0  0  0  0  0  0  0  0  0
   -0.0020   -0.0216   -0.0606 H   0  0  0  0  0  0  0  0  0  0  0  0
   -0.0421   -2.0072   -0.0507 H   0  0  0  0  0  0  0  0  0  0  0  0
  1  2  2  3
  1  3  1  0
  2  4  1  0
  2  5  1  0
  6  7  2  0
  6  8  1  0
  6  9  1  0
M  RAD  1   1   2
M  END
>  <reaction>  (4) 
rxn_365

>  <mol_properties>  (4) 
{"0": {"label": "*3", "atom_type": "Cd"}, "1": {"label": "*4", "atom_type": "Cd"}, "5": {"label": "*1", "atom_type": "CO"}, "6": {"label": "*0", "atom_type": "O2d"}, "7": {"label": "*2", "atom_type": "H0"}}

>  <type>  (4) 
ts

$$$$

     RDKit          3D

  9  7  0  0  0  0  0  0  0  0999 V2000
    0.2359    1.0922    0.8196 C   0  0  0  0  0  0  0  0  0  0  0  0
   -0.7387    1.3825    1.6639 C   0  0  0  0  0  0  0  0  0  0  0  0
    1.2778    1.2194    1.0887 H   0  0  0  0  0  0  0  0  0  0  0  0
   -0.5349    1.7594    2.6593 H   0  0  0  0  0  0  0  0  0  0  0  0
   -1.7806    1.2553    1.3948 H   0  0  0  0  0  0  0  0  0  0  0  0
    0.2359   -1.1380   -0.5721 C   0  0  0  0  0  3  0  0  0  0  0  0
    0.2359   -1.1380   -1.7672 O   0  0  0  0  0  0  0  0  0  0  0  0
    0.2359   -0.0110    0.1312 H   0  0  0  0  0  0  0  0  0  0  0  0
    0.2359   -2.0772    0.0140 H   0  0  0  0  0  0  0  0  0  0  0  0
  1  2  2  3
  1  3  1  0
  1  8  1  0
  2  4  1  0
  2  5  1  0
  6  7  2  0
  6  9  1  0
M  RAD  1   6   2
M  END
>  <reaction>  (5) 
rxn_365

>  <mol_properties>  (5) 
{"0": {"label": "*3", "atom_type": "Cd"}, "1": {"label": "*4", "atom_type": "Cd"}, "5": {"label": "*1", "atom_type": "CO"}, "6": {"label": "*0", "atom_type": "O2d"}, "7": {"label": "*2", "atom_type": "H0"}}

>  <type>  (5) 
unop_1

>  <geom_source>  (5) 
Heuristics

$$$$

     RDKit          3D

  9  7  0  0  0  0  0  0  0  0999 V2000
    0.1428    0.8843    1.1460 C   0  0  0  0  0  0  0  0  0  0  0  0
   -0.4199    1.9884    0.6863 C   0  0  0  0  0  0  0  0  0  0  0  0
    0.3715    0.7584    2.1977 H   0  0  0  0  0  0  0  0  0  0  0  0
   -0.6751    2.8121    1.3425 H   0  0  0  0  0  0  0  0  0  0  0  0
   -0.6486    2.1143   -0.3654 H   0  0  0  0  0  0  0  0  0  0  0  0
    0.1428   -1.3459   -0.2456 C   0  0  0  0  0  3  0  0  0  0  0  0
    0.1428   -1.3459   -1.4407 O   0  0  0  0  0  0  0  0  0  0  0  0
    0.1428   -0.2189    0.4576 H   0  0  0  0  0  0  0  0  0  0  0  0
    0.1428   -2.2851    0.3404 H   0  0  0  0  0  0  0  0  0  0  0  0
  1  2  2  3
  1  3  1  0
  1  8  1  0
  2  4  1  0
  2  5  1  0
  6  7  2  0
  6  9  1  0
M  RAD  1   6   2
M  END
>  <reaction>  (6) 
rxn_365

>  <mol_properties>  (6) 
{"0": {"label": "*3", "atom_type": "Cd"}, "1": {"label": "*4", "atom_type": "Cd"}, "5": {"label": "*1", "atom_type": "CO"}, "6": {"label": "*0", "atom_type": "O2d"}, "7": {"label": "*2", "atom_type": "H0"}}

>  <type>  (6) 
unop_2

>  <geom_source>  (6) 
Heuristics

$$$$

     RDKit          3D

  9  7  0  0  0  0  0  0  0  0999 V2000
    0.1306    1.1421    0.7372 C   0  0  0  0  0  0  0  0  0  0  0  0
   -0.4321    1.2143    1.9310 C   0  0  0  0  0  0  0  0  0  0  0  0
    1.0504    1.6677    0.5096 H   0  0  0  0  0  0  0  0  0  0  0  0
    0.0039    1.8021    2.7302 H   0  0  0  0  0  0  0  0  0  0  0  0
   -1.3520    0.6887    2.1585 H   0  0  0  0  0  0  0  0  0  0  0  0
    0.1306   -1.0882   -0.6545 C   0  0  0  0  0  3  0  0  0  0  0  0
    0.1306   -1.0882   -1.8496 O   0  0  0  0  0  0  0  0  0  0  0  0
    0.1306    0.0389    0.0488 H   0  0  0  0  0  0  0  0  0  0  0  0
    0.1306   -2.0274   -0.0684 H   0  0  0  0  0  0  0  0  0  0  0  0
  1  2  2  3
  1  3  1  0
  1  8  1  0
  2  4  1  0
  2  5  1  0
  6  7  2  0
  6  9  1  0
M  RAD  1   6   2
M  END
>  <reaction>  (7) 
rxn_365

>  <mol_properties>  (7) 
{"0": {"label": "*3", "atom_type": "Cd"}, "1": {"label": "*4", "atom_type": "Cd"}, "5": {"label": "*1", "atom_type": "CO"}, "6": {"label": "*0", "atom_type": "O2d"}, "7": {"label": "*2", "atom_type": "H0"}}

>  <type>  (7) 
unop_3

>  <geom_source>  (7) 
Heuristics

$$$$

     RDKit          3D

  9  7  0  0  0  0  0  0  0  0999 V2000
   -0.2450    0.9417    1.0569 C   0  0  0  0  0  0  0  0  0  0  0  0
    0.7296    1.8277    0.9466 C   0  0  0  0  0  0  0  0  0  0  0  0
   -0.7717    0.7895    1.9916 H   0  0  0  0  0  0  0  0  0  0  0  0
    1.0410    2.4376    1.7864 H   0  0  0  0  0  0  0  0  0  0  0  0
    1.2563    1.9799    0.0119 H   0  0  0  0  0  0  0  0  0  0  0  0
   -0.2450   -1.2885   -0.3348 C   0  0  0  0  0  3  0  0  0  0  0  0
   -0.2450   -1.2885   -1.5298 O   0  0  0  0  0  0  0  0  0  0  0  0
   -0.2450   -0.1615    0.3685 H   0  0  0  0  0  0  0  0  0  0  0  0
   -0.2450   -2.2278    0.2513 H   0  0  0  0  0  0  0  0  0  0  0  0
  1  2  2  3
  1  3  1  0
  1  8  1  0
  2  4  1  0
  2  5  1  0
  6  7  2  0
  6  9  1  0
M  RAD  1   6   2
M  END
>  <reaction>  (8) 
rxn_365

>  <mol_properties>  (8) 
{"0": {"label": "*3", "atom_type": "Cd"}, "1": {"label": "*4", "atom_type": "Cd"}, "5": {"label": "*1", "atom_type": "CO"}, "6": {"label": "*0", "atom_type": "O2d"}, "7": {"label": "*2", "atom_type": "H0"}}

>  <type>  (8) 
unop_4

>  <geom_source>  (8) 
Heuristics

$$$$

     RDKit          3D

  9  7  0  0  0  0  0  0  0  0999 V2000
    0.0000    1.1558    0.7097 C   0  0  0  0  0  0  0  0  0  0  0  0
    0.0000    1.1483    2.0314 C   0  0  0  0  0  0  0  0  0  0  0  0
    0.0000    2.0816    0.1466 H   0  0  0  0  0  0  0  0  0  0  0  0
    0.0000    2.0676    2.6051 H   0  0  0  0  0  0  0  0  0  0  0  0
   -0.0000    0.2224    2.5945 H   0  0  0  0  0  0  0  0  0  0  0  0
    0.0000   -1.0744   -0.6820 C   0  0  0  0  0  3  0  0  0  0  0  0
    0.0000   -1.0744   -1.8770 O   0  0  0  0  0  0  0  0  0  0  0  0
    0.0000    0.0526    0.0213 H   0  0  0  0  0  0  0  0  0  0  0  0
   -0.0000   -2.0136   -0.0959 H   0  0  0  0  0  0  0  0  0  0  0  0
  1  2  2  3
  1  3  1  0
  1  8  1  0
  2  4  1  0
  2  5  1  0
  6  7  2  0
  6  9  1  0
M  RAD  1   6   2
M  END
>  <reaction>  (9) 
rxn_365

>  <mol_properties>  (9) 
{"0": {"label": "*3", "atom_type": "Cd"}, "1": {"label": "*4", "atom_type": "Cd"}, "5": {"label": "*1", "atom_type": "CO"}, "6": {"label": "*0", "atom_type": "O2d"}, "7": {"label": "*2", "atom_type": "H0"}}

>  <type>  (9) 
unop_5

>  <geom_source>  (9) 
Heuristics

$$$$

     RDKit          3D

  9  7  0  0  0  0  0  0  0  0999 V2000
   -0.2787    1.0182    0.9370 C   0  0  0  0  0  0  0  0  0  0  0  0
    0.8466    1.6064    1.3040 C   0  0  0  0  0  0  0  0  0  0  0  0
   -1.1218    0.9324    1.6123 H   0  0  0  0  0  0  0  0  0  0  0  0
    0.9714    2.0265    2.2950 H   0  0  0  0  0  0  0  0  0  0  0  0
    1.6896    1.6922    0.6286 H   0  0  0  0  0  0  0  0  0  0  0  0
   -0.2787   -1.2120   -0.4547 C   0  0  0  0  0  3  0  0  0  0  0  0
   -0.2787   -1.2120   -1.6498 O   0  0  0  0  0  0  0  0  0  0  0  0
   -0.2787   -0.0849    0.2486 H   0  0  0  0  0  0  0  0  0  0  0  0
   -0.2787   -2.1512    0.1313 H   0  0  0  0  0  0  0  0  0  0  0  0
  1  2  2  3
  1  3  1  0
  1  8  1  0
  2  4  1  0
  2  5  1  0
  6  7  2  0
  6  9  1  0
M  RAD  1   6   2
M  END
>  <reaction>  (10) 
rxn_365

>  <mol_properties>  (10) 
{"0": {"label": "*3", "atom_type": "Cd"}, "1": {"label": "*4", "atom_type": "Cd"}, "5": {"label": "*1", "atom_type": "CO"}, "6": {"label": "*0", "atom_type": "O2d"}, "7": {"label": "*2", "atom_type": "H0"}}

>  <type>  (10) 
unop_6

>  <geom_source>  (10) 
Heuristics

$$$$

     RDKit          3D

  9  7  0  0  0  0  0  0  0  0999 V2000
   -0.2359    1.0922    0.8196 C   0  0  0  0  0  0  0  0  0  0  0  0
    0.7387    1.3825    1.6639 C   0  0  0  0  0  0  0  0  0  0  0  0
   -1.2778    1.2194    1.0887 H   0  0  0  0  0  0  0  0  0  0  0  0
    0.5349    1.7594    2.6593 H   0  0  0  0  0  0  0  0  0  0  0  0
    1.7806    1.2553    1.3948 H   0  0  0  0  0  0  0  0  0  0  0  0
   -0.2359   -1.1380   -0.5721 C   0  0  0  0  0  3  0  0  0  0  0  0
   -0.2359   -1.1380   -1.7672 O   0  0  0  0  0  0  0  0  0  0  0  0
   -0.2359   -0.0110    0.1312 H   0  0  0  0  0  0  0  0  0  0  0  0
   -0.2359   -2.0772    0.0140 H   0  0  0  0  0  0  0  0  0  0  0  0
  1  2  2  3
  1  3  1  0
  1  8  1  0
  2  4  1  0
  2  5  1  0
  6  7  2  0
  6  9  1  0
M  RAD  1   6   2
M  END
>  <reaction>  (11) 
rxn_365

>  <mol_properties>  (11) 
{"0": {"label": "*3", "atom_type": "Cd"}, "1": {"label": "*4", "atom_type": "Cd"}, "5": {"label": "*1", "atom_type": "CO"}, "6": {"label": "*0", "atom_type": "O2d"}, "7": {"label": "*2", "atom_type": "H0"}}

>  <type>  (11) 
unop_7

>  <geom_source>  (11) 
Heuristics

$$$$

     RDKit          3D

  9  7  0  0  0  0  0  0  0  0999 V2000
    0.2787    1.0182    0.9370 C   0  0  0  0  0  0  0  0  0  0  0  0
   -0.8466    1.6064    1.3040 C   0  0  0  0  0  0  0  0  0  0  0  0
    1.1218    0.9324    1.6123 H   0  0  0  0  0  0  0  0  0  0  0  0
   -0.9714    2.0265    2.2950 H   0  0  0  0  0  0  0  0  0  0  0  0
   -1.6896    1.6922    0.6286 H   0  0  0  0  0  0  0  0  0  0  0  0
    0.2787   -1.2120   -0.4547 C   0  0  0  0  0  3  0  0  0  0  0  0
    0.2787   -1.2120   -1.6498 O   0  0  0  0  0  0  0  0  0  0  0  0
    0.2787   -0.0849    0.2486 H   0  0  0  0  0  0  0  0  0  0  0  0
    0.2787   -2.1512    0.1313 H   0  0  0  0  0  0  0  0  0  0  0  0
  1  2  2  3
  1  3  1  0
  1  8  1  0
  2  4  1  0
  2  5  1  0
  6  7  2  0
  6  9  1  0
M  RAD  1   6   2
M  END
>  <reaction>  (12) 
rxn_365

>  <mol_properties>  (12) 
{"0": {"label": "*3", "atom_type": "Cd"}, "1": {"label": "*4", "atom_type": "Cd"}, "5": {"label": "*1", "atom_type": "CO"}, "6": {"label": "*0", "atom_type": "O2d"}, "7": {"label": "*2", "atom_type": "H0"}}

>  <type>  (12) 
unop_8

>  <geom_source>  (12) 
Heuristics

$$$$

     RDKit          3D

  9  7  0  0  0  0  0  0  0  0999 V2000
   -0.1428    0.8843    1.1460 C   0  0  0  0  0  0  0  0  0  0  0  0
    0.4199    1.9884    0.6863 C   0  0  0  0  0  0  0  0  0  0  0  0
   -0.3715    0.7584    2.1977 H   0  0  0  0  0  0  0  0  0  0  0  0
    0.6751    2.8121    1.3425 H   0  0  0  0  0  0  0  0  0  0  0  0
    0.6486    2.1143   -0.3654 H   0  0  0  0  0  0  0  0  0  0  0  0
   -0.1428   -1.3459   -0.2456 C   0  0  0  0  0  3  0  0  0  0  0  0
   -0.1428   -1.3459   -1.4407 O   0  0  0  0  0  0  0  0  0  0  0  0
   -0.1428   -0.2189    0.4576 H   0  0  0  0  0  0  0  0  0  0  0  0
   -0.1428   -2.2851    0.3404 H   0  0  0  0  0  0  0  0  0  0  0  0
  1  2  2  3
  1  3  1  0
  1  8  1  0
  2  4  1  0
  2  5  1  0
  6  7  2  0
  6  9  1  0
M  RAD  1   6   2
M  END
>  <reaction>  (13) 
rxn_365

>  <mol_properties>  (13) 
{"0": {"label": "*3", "atom_type": "Cd"}, "1": {"label": "*4", "atom_type": "Cd"}, "5": {"label": "*1", "atom_type": "CO"}, "6": {"label": "*0", "atom_type": "O2d"}, "7": {"label": "*2", "atom_type": "H0"}}

>  <type>  (13) 
unop_9

>  <geom_source>  (13) 
Heuristics

$$$$

     RDKit          3D

  9  7  0  0  0  0  0  0  0  0999 V2000
    0.2450    0.9417    1.0569 C   0  0  0  0  0  0  0  0  0  0  0  0
   -0.7296    1.8277    0.9466 C   0  0  0  0  0  0  0  0  0  0  0  0
    0.7717    0.7895    1.9916 H   0  0  0  0  0  0  0  0  0  0  0  0
   -1.0410    2.4376    1.7864 H   0  0  0  0  0  0  0  0  0  0  0  0
   -1.2563    1.9799    0.0119 H   0  0  0  0  0  0  0  0  0  0  0  0
    0.2450   -1.2885   -0.3348 C   0  0  0  0  0  3  0  0  0  0  0  0
    0.2450   -1.2885   -1.5298 O   0  0  0  0  0  0  0  0  0  0  0  0
    0.2450   -0.1615    0.3685 H   0  0  0  0  0  0  0  0  0  0  0  0
    0.2450   -2.2278    0.2513 H   0  0  0  0  0  0  0  0  0  0  0  0
  1  2  2  3
  1  3  1  0
  1  8  1  0
  2  4  1  0
  2  5  1  0
  6  7  2  0
  6  9  1  0
M  RAD  1   6   2
M  END
>  <reaction>  (14) 
rxn_365

>  <mol_properties>  (14) 
{"0": {"label": "*3", "atom_type": "Cd"}, "1": {"label": "*4", "atom_type": "Cd"}, "5": {"label": "*1", "atom_type": "CO"}, "6": {"label": "*0", "atom_type": "O2d"}, "7": {"label": "*2", "atom_type": "H0"}}

>  <type>  (14) 
unop_10

>  <geom_source>  (14) 
Heuristics

$$$$

     RDKit          3D

  9  7  0  0  0  0  0  0  0  0999 V2000
   -0.1306    1.1421    0.7372 C   0  0  0  0  0  0  0  0  0  0  0  0
    0.4321    1.2143    1.9310 C   0  0  0  0  0  0  0  0  0  0  0  0
   -1.0504    1.6677    0.5096 H   0  0  0  0  0  0  0  0  0  0  0  0
   -0.0039    1.8021    2.7302 H   0  0  0  0  0  0  0  0  0  0  0  0
    1.3520    0.6887    2.1585 H   0  0  0  0  0  0  0  0  0  0  0  0
   -0.1306   -1.0882   -0.6545 C   0  0  0  0  0  3  0  0  0  0  0  0
   -0.1306   -1.0882   -1.8496 O   0  0  0  0  0  0  0  0  0  0  0  0
   -0.1306    0.0389    0.0488 H   0  0  0  0  0  0  0  0  0  0  0  0
   -0.1306   -2.0274   -0.0684 H   0  0  0  0  0  0  0  0  0  0  0  0
  1  2  2  3
  1  3  1  0
  1  8  1  0
  2  4  1  0
  2  5  1  0
  6  7  2  0
  6  9  1  0
M  RAD  1   6   2
M  END
>  <reaction>  (15) 
rxn_365

>  <mol_properties>  (15) 
{"0": {"label": "*3", "atom_type": "Cd"}, "1": {"label": "*4", "atom_type": "Cd"}, "5": {"label": "*1", "atom_type": "CO"}, "6": {"label": "*0", "atom_type": "O2d"}, "7": {"label": "*2", "atom_type": "H0"}}

>  <type>  (15) 
unop_11

>  <geom_source>  (15) 
Heuristics

$$$$

     RDKit          3D

  9  7  0  0  0  0  0  0  0  0999 V2000
    0.0000    0.8630    1.1789 C   0  0  0  0  0  0  0  0  0  0  0  0
    0.0000    2.0469    0.5913 C   0  0  0  0  0  0  0  0  0  0  0  0
   -0.0000    0.7641    2.2580 H   0  0  0  0  0  0  0  0  0  0  0  0
   -0.0000    2.9662    1.1649 H   0  0  0  0  0  0  0  0  0  0  0  0
    0.0000    2.1458   -0.4878 H   0  0  0  0  0  0  0  0  0  0  0  0
    0.0000   -1.3672   -0.2128 C   0  0  0  0  0  3  0  0  0  0  0  0
    0.0000   -1.3672   -1.4078 O   0  0  0  0  0  0  0  0  0  0  0  0
    0.0000   -0.2402    0.4905 H   0  0  0  0  0  0  0  0  0  0  0  0
   -0.0000   -2.3064    0.3733 H   0  0  0  0  0  0  0  0  0  0  0  0
  1  2  2  3
  1  3  1  0
  1  8  1  0
  2  4  1  0
  2  5  1  0
  6  7  2  0
  6  9  1  0
M  RAD  1   6   2
M  END
>  <reaction>  (16) 
rxn_365

>  <mol_properties>  (16) 
{"0": {"label": "*3", "atom_type": "Cd"}, "1": {"label": "*4", "atom_type": "Cd"}, "5": {"label": "*1", "atom_type": "CO"}, "6": {"label": "*0", "atom_type": "O2d"}, "7": {"label": "*2", "atom_type": "H0"}}

>  <type>  (16) 
unop_12

>  <geom_source>  (16) 
Heuristics

$$$$

     RDKit          3D

  9  7  0  0  0  0  0  0  0  0999 V2000
    2.2454   -0.5513   -0.7177 O   0  0  0  0  0  0  0  0  0  0  0  0
   -1.6362   -0.3680    0.0734 C   0  0  0  0  0  0  0  0  0  0  0  0
   -0.6336    0.4228   -0.3001 C   0  0  0  0  0  0  0  0  0  0  0  0
    1.8544    0.0482    0.2696 C   0  0  0  0  0  3  0  0  0  0  0  0
   -2.5763   -0.3530   -0.4685 H   0  0  0  0  0  0  0  0  0  0  0  0
   -1.5175   -1.0322    0.9228 H   0  0  0  0  0  0  0  0  0  0  0  0
   -0.7487    1.0886   -1.1493 H   0  0  0  0  0  0  0  0  0  0  0  0
    0.4536    0.4026    0.3300 H   0  0  0  0  0  0  0  0  0  0  0  0
    2.5589    0.3424    1.0397 H   0  0  0  0  0  0  0  0  0  0  0  0
  1  4  2  0
  2  3  2  3
  2  5  1  0
  2  6  1  0
  3  7  1  0
  3  8  1  0
  4  9  1  0
M  RAD  1   4   2
M  END
>  <reaction>  (17) 
rxn_365

>  <mol_properties>  (17) 
{"0": {"label": "*3", "atom_type": "Cd"}, "1": {"label": "*4", "atom_type": "Cd"}, "5": {"label": "*1", "atom_type": "CO"}, "6": {"label": "*0", "atom_type": "O2d"}, "7": {"label": "*2", "atom_type": "H0"}}

>  <type>  (17) 
unop_13

>  <geom_source>  (17) 
AutoTST

$$$$
