
     RDKit          3D

  4  3  0  0  0  0  0  0  0  0999 V2000
    0.5949   -0.3853    0.2659 O   0  0  0  0  0  0  0  0  0  0  0  0
   -0.5918    0.4028    0.2462 O   0  0  0  0  0  0  0  0  0  0  0  0
    1.1865    0.1539   -0.2689 H   0  0  0  0  0  0  0  0  0  0  0  0
   -1.1896   -0.1714   -0.2432 H   0  0  0  0  0  0  0  0  0  0  0  0
  1  2  1  0
  1  3  1  0
  2  4  1  0
M  END
>  <reaction>  (1) 
rxn_438

>  <mol_properties>  (1) 
{"1": {"label": "donator", "atom_type": "O2s"}, "3": {"label": "d_hydrogen", "atom_type": "H0"}}

>  <type>  (1) 
r1h

$$$$

     RDKit          3D

  6  5  0  0  0  0  0  0  0  0999 V2000
   -0.7133   -0.0465   -0.1138 C   0  0  0  0  0  0  0  0  0  0  0  0
    0.6837    0.0990    0.1040 C   0  0  0  0  0  0  0  0  0  0  0  0
    1.4284   -0.8504    0.3164 O   0  0  0  0  0  1  0  0  0  0  0  0
   -1.3425    0.8143   -0.2988 H   0  0  0  0  0  0  0  0  0  0  0  0
   -1.1519   -1.0358   -0.0939 H   0  0  0  0  0  0  0  0  0  0  0  0
    1.0889    1.1261    0.0750 H   0  0  0  0  0  0  0  0  0  0  0  0
  1  2  2  3
  1  4  1  0
  1  5  1  0
  2  3  1  0
  2  6  1  0
M  RAD  1   3   2
M  END
>  <reaction>  (2) 
rxn_438

>  <mol_properties>  (2) 
{"2": {"label": "acceptor", "atom_type": "O2s"}}

>  <type>  (2) 
r2

$$$$

     RDKit          3D

  7  6  0  0  0  0  0  0  0  0999 V2000
   -0.8134   -0.1164    0.3300 C   0  0  0  0  0  0  0  0  0  0  0  0
    0.2313    0.4515   -0.2553 C   0  0  0  0  0  0  0  0  0  0  0  0
    1.4449   -0.1043   -0.4662 O   0  0  0  0  0  0  0  0  0  0  0  0
   -1.7342    0.4365    0.4394 H   0  0  0  0  0  0  0  0  0  0  0  0
   -0.7819   -1.1311    0.7105 H   0  0  0  0  0  0  0  0  0  0  0  0
    0.2022    1.4650   -0.6362 H   0  0  0  0  0  0  0  0  0  0  0  0
    1.4512   -1.0012   -0.1223 H   0  0  0  0  0  0  0  0  0  0  0  0
  1  2  2  3
  1  4  1  0
  1  5  1  0
  2  3  1  0
  2  6  1  0
  3  7  1  0
M  END
>  <reaction>  (3) 
rxn_438

>  <mol_properties>  (3) 
{"0": {"label": "a_hydrogen", "atom_type": "H0"}, "3": {"label": "acceptor", "atom_type": "O2s"}}

>  <type>  (3) 
r2h

$$$$

     RDKit          3D

 10  8  0  0  0  0  0  0  0  0999 V2000
    0.3135   -1.2900   -0.9005 O   0  0  0  0  0  0  0  0  0  0  0  0
   -0.9647   -0.8184   -0.8929 O   0  0  0  0  0  1  0  0  0  0  0  0
    0.2685   -2.0846   -0.3509 H   0  0  0  0  0  0  0  0  0  0  0  0
   -0.8708    0.2661   -0.3154 H   0  0  0  0  0  0  0  0  0  0  0  0
    1.5897    0.8920    0.3898 C   0  0  0  0  0  0  0  0  0  0  0  0
    0.4122    1.0246    1.0575 C   0  0  0  0  0  0  0  0  0  0  0  0
   -0.7554    1.0522    0.4984 O   0  0  0  0  0  0  0  0  0  0  0  0
    2.5182    0.8456    0.9416 H   0  0  0  0  0  0  0  0  0  0  0  0
    1.6228    0.8500   -0.6887 H   0  0  0  0  0  0  0  0  0  0  0  0
    0.4128    1.1058    2.1457 H   0  0  0  0  0  0  0  0  0  0  0  0
  1  2  1  0
  1  3  1  0
  4  7  1  0
  5  6  2  3
  5  8  1  0
  5  9  1  0
  6  7  1  0
  6 10  1  0
M  RAD  1   2   2
M  END
>  <reaction>  (4) 
rxn_438

>  <mol_properties>  (4) 
{"0": {"label": "*4", "atom_type": "O2s"}, "1": {"label": "*3", "atom_type": "O2s"}, "3": {"label": "*2", "atom_type": "H0"}, "5": {"label": "*0", "atom_type": "Cd"}, "6": {"label": "*1", "atom_type": "O2s"}}

>  <type>  (4) 
ts

$$$$

     RDKit          3D

 10  8  0  0  0  0  0  0  0  0999 V2000
    0.6112   -1.3124   -1.5809 O   0  0  0  0  0  0  0  0  0  0  0  0
    0.6112   -1.3124   -0.1562 O   0  0  0  0  0  1  0  0  0  0  0  0
    1.4719   -1.7007   -1.7679 H   0  0  0  0  0  0  0  0  0  0  0  0
    0.6112   -0.1793    0.0683 H   0  0  0  0  0  0  0  0  0  0  0  0
   -1.7281    0.8423    0.7923 C   0  0  0  0  0  0  0  0  0  0  0  0
   -0.4920    1.2704    1.0047 C   0  0  0  0  0  0  0  0  0  0  0  0
    0.6112    0.9514    0.2923 O   0  0  0  0  0  0  0  0  0  0  0  0
   -2.5291    1.1723    1.4364 H   0  0  0  0  0  0  0  0  0  0  0  0
   -1.9734    0.1622   -0.0156 H   0  0  0  0  0  0  0  0  0  0  0  0
   -0.2445    1.9498    1.8112 H   0  0  0  0  0  0  0  0  0  0  0  0
  1  2  1  0
  1  3  1  0
  4  7  1  0
  5  6  2  3
  5  8  1  0
  5  9  1  0
  6  7  1  0
  6 10  1  0
M  RAD  1   2   2
M  END
>  <reaction>  (5) 
rxn_438

>  <mol_properties>  (5) 
{"0": {"label": "*4", "atom_type": "O2s"}, "1": {"label": "*3", "atom_type": "O2s"}, "3": {"label": "*2", "atom_type": "H0"}, "5": {"label": "*0", "atom_type": "Cd"}, "6": {"label": "*1", "atom_type": "O2s"}}

>  <type>  (5) 
unop_1

>  <geom_source>  (5) 
Heuristics

$$$$

     RDKit          3D

 10  8  0  0  0  0  0  0  0  0999 V2000
    0.2605   -1.4323   -0.7795 O   0  0  0  0  0  0  0  0  0  0  0  0
    0.2605   -1.4323    0.6451 O   0  0  0  0  0  1  0  0  0  0  0  0
    1.1213   -1.8206   -0.9666 H   0  0  0  0  0  0  0  0  0  0  0  0
    0.2605   -0.2992    0.8696 H   0  0  0  0  0  0  0  0  0  0  0  0
   -0.6044    1.0460   -1.1290 C   0  0  0  0  0  0  0  0  0  0  0  0
   -0.3764    1.4887    0.0992 C   0  0  0  0  0  0  0  0  0  0  0  0
    0.2605    0.8316    1.0936 O   0  0  0  0  0  0  0  0  0  0  0  0
   -1.1277    1.6710   -1.8368 H   0  0  0  0  0  0  0  0  0  0  0  0
   -0.2817    0.0651   -1.4591 H   0  0  0  0  0  0  0  0  0  0  0  0
   -0.6978    2.4683    0.4312 H   0  0  0  0  0  0  0  0  0  0  0  0
  1  2  1  0
  1  3  1  0
  4  7  1  0
  5  6  2  3
  5  8  1  0
  5  9  1  0
  6  7  1  0
  6 10  1  0
M  RAD  1   2   2
M  END
>  <reaction>  (6) 
rxn_438

>  <mol_properties>  (6) 
{"0": {"label": "*4", "atom_type": "O2s"}, "1": {"label": "*3", "atom_type": "O2s"}, "3": {"label": "*2", "atom_type": "H0"}, "5": {"label": "*0", "atom_type": "Cd"}, "6": {"label": "*1", "atom_type": "O2s"}}

>  <type>  (6) 
unop_2

>  <geom_source>  (6) 
Heuristics

$$$$

     RDKit          3D

 10  8  0  0  0  0  0  0  0  0999 V2000
    0.4020   -1.2322   -1.8755 O   0  0  0  0  0  0  0  0  0  0  0  0
    0.4020   -1.2322   -0.4509 O   0  0  0  0  0  1  0  0  0  0  0  0
    1.2627   -1.6205   -2.0626 H   0  0  0  0  0  0  0  0  0  0  0  0
    0.4020   -0.0991   -0.2264 H   0  0  0  0  0  0  0  0  0  0  0  0
   -1.2475    0.5688    1.6706 C   0  0  0  0  0  0  0  0  0  0  0  0
   -0.2349    1.2600    1.1674 C   0  0  0  0  0  0  0  0  0  0  0  0
    0.4020    1.0317   -0.0024 O   0  0  0  0  0  0  0  0  0  0  0  0
   -1.6724    0.8533    2.6213 H   0  0  0  0  0  0  0  0  0  0  0  0
   -1.6749   -0.2860    1.1586 H   0  0  0  0  0  0  0  0  0  0  0  0
    0.1937    2.1143    1.6771 H   0  0  0  0  0  0  0  0  0  0  0  0
  1  2  1  0
  1  3  1  0
  4  7  1  0
  5  6  2  3
  5  8  1  0
  5  9  1  0
  6  7  1  0
  6 10  1  0
M  RAD  1   2   2
M  END
>  <reaction>  (7) 
rxn_438

>  <mol_properties>  (7) 
{"0": {"label": "*4", "atom_type": "O2s"}, "1": {"label": "*3", "atom_type": "O2s"}, "3": {"label": "*2", "atom_type": "H0"}, "5": {"label": "*0", "atom_type": "Cd"}, "6": {"label": "*1", "atom_type": "O2s"}}

>  <type>  (7) 
unop_3

>  <geom_source>  (7) 
Heuristics

$$$$

     RDKit          3D

 10  8  0  0  0  0  0  0  0  0999 V2000
   -0.5191   -1.4175   -0.9628 O   0  0  0  0  0  0  0  0  0  0  0  0
   -0.5191   -1.4175    0.4619 O   0  0  0  0  0  1  0  0  0  0  0  0
    0.3416   -1.8058   -1.1498 H   0  0  0  0  0  0  0  0  0  0  0  0
   -0.5191   -0.2844    0.6864 H   0  0  0  0  0  0  0  0  0  0  0  0
    1.1848    1.0701   -0.7572 C   0  0  0  0  0  0  0  0  0  0  0  0
    0.5840    1.4129    0.3733 C   0  0  0  0  0  0  0  0  0  0  0  0
   -0.5191    0.8464    0.9104 O   0  0  0  0  0  0  0  0  0  0  0  0
    2.0655    1.6040   -1.0808 H   0  0  0  0  0  0  0  0  0  0  0  0
    0.8227    0.2616   -1.3820 H   0  0  0  0  0  0  0  0  0  0  0  0
    0.9439    2.2203    0.9992 H   0  0  0  0  0  0  0  0  0  0  0  0
  1  2  1  0
  1  3  1  0
  4  7  1  0
  5  6  2  3
  5  8  1  0
  5  9  1  0
  6  7  1  0
  6 10  1  0
M  RAD  1   2   2
M  END
>  <reaction>  (8) 
rxn_438

>  <mol_properties>  (8) 
{"0": {"label": "*4", "atom_type": "O2s"}, "1": {"label": "*3", "atom_type": "O2s"}, "3": {"label": "*2", "atom_type": "H0"}, "5": {"label": "*0", "atom_type": "Cd"}, "6": {"label": "*1", "atom_type": "O2s"}}

>  <type>  (8) 
unop_4

>  <geom_source>  (8) 
Heuristics

$$$$

     RDKit          3D

 10  8  0  0  0  0  0  0  0  0999 V2000
   -0.0113   -1.1765   -2.0151 O   0  0  0  0  0  0  0  0  0  0  0  0
   -0.0113   -1.1765   -0.5904 O   0  0  0  0  0  1  0  0  0  0  0  0
    0.8495   -1.5648   -2.2021 H   0  0  0  0  0  0  0  0  0  0  0  0
   -0.0113   -0.0434   -0.3659 H   0  0  0  0  0  0  0  0  0  0  0  0
   -0.0113    0.3490    2.1360 C   0  0  0  0  0  0  0  0  0  0  0  0
   -0.0113    1.2826    1.1953 C   0  0  0  0  0  0  0  0  0  0  0  0
   -0.0113    1.0874   -0.1419 O   0  0  0  0  0  0  0  0  0  0  0  0
   -0.0113    0.6353    3.1769 H   0  0  0  0  0  0  0  0  0  0  0  0
   -0.0113   -0.7091    1.9002 H   0  0  0  0  0  0  0  0  0  0  0  0
   -0.0113    2.3403    1.4285 H   0  0  0  0  0  0  0  0  0  0  0  0
  1  2  1  0
  1  3  1  0
  4  7  1  0
  5  6  2  3
  5  8  1  0
  5  9  1  0
  6  7  1  0
  6 10  1  0
M  RAD  1   2   2
M  END
>  <reaction>  (9) 
rxn_438

>  <mol_properties>  (9) 
{"0": {"label": "*4", "atom_type": "O2s"}, "1": {"label": "*3", "atom_type": "O2s"}, "3": {"label": "*2", "atom_type": "H0"}, "5": {"label": "*0", "atom_type": "Cd"}, "6": {"label": "*1", "atom_type": "O2s"}}

>  <type>  (9) 
unop_5

>  <geom_source>  (9) 
Heuristics

$$$$

     RDKit          3D

 10  8  0  0  0  0  0  0  0  0999 V2000
   -0.6548   -1.3766   -1.2495 O   0  0  0  0  0  0  0  0  0  0  0  0
   -0.6548   -1.3766    0.1751 O   0  0  0  0  0  1  0  0  0  0  0  0
    0.2059   -1.7649   -1.4366 H   0  0  0  0  0  0  0  0  0  0  0  0
   -0.6548   -0.2435    0.3996 H   0  0  0  0  0  0  0  0  0  0  0  0
    1.6297    1.0093   -0.0837 C   0  0  0  0  0  0  0  0  0  0  0  0
    0.6190    1.3299    0.7113 C   0  0  0  0  0  0  0  0  0  0  0  0
   -0.6548    0.8872    0.6236 O   0  0  0  0  0  0  0  0  0  0  0  0
    2.6068    1.4331    0.0920 H   0  0  0  0  0  0  0  0  0  0  0  0
    1.5146    0.3269   -0.9182 H   0  0  0  0  0  0  0  0  0  0  0  0
    0.7315    2.0115    1.5456 H   0  0  0  0  0  0  0  0  0  0  0  0
  1  2  1  0
  1  3  1  0
  4  7  1  0
  5  6  2  3
  5  8  1  0
  5  9  1  0
  6  7  1  0
  6 10  1  0
M  RAD  1   2   2
M  END
>  <reaction>  (10) 
rxn_438

>  <mol_properties>  (10) 
{"0": {"label": "*4", "atom_type": "O2s"}, "1": {"label": "*3", "atom_type": "O2s"}, "3": {"label": "*2", "atom_type": "H0"}, "5": {"label": "*0", "atom_type": "Cd"}, "6": {"label": "*1", "atom_type": "O2s"}}

>  <type>  (10) 
unop_6

>  <geom_source>  (10) 
Heuristics

$$$$

     RDKit          3D

 10  8  0  0  0  0  0  0  0  0999 V2000
   -0.6337   -1.3124   -1.5809 O   0  0  0  0  0  0  0  0  0  0  0  0
   -0.6337   -1.3124   -0.1562 O   0  0  0  0  0  1  0  0  0  0  0  0
    0.2271   -1.7007   -1.7679 H   0  0  0  0  0  0  0  0  0  0  0  0
   -0.6337   -0.1793    0.0683 H   0  0  0  0  0  0  0  0  0  0  0  0
    1.7056    0.8423    0.7923 C   0  0  0  0  0  0  0  0  0  0  0  0
    0.4695    1.2704    1.0047 C   0  0  0  0  0  0  0  0  0  0  0  0
   -0.6337    0.9514    0.2923 O   0  0  0  0  0  0  0  0  0  0  0  0
    2.5066    1.1723    1.4364 H   0  0  0  0  0  0  0  0  0  0  0  0
    1.9509    0.1622   -0.0156 H   0  0  0  0  0  0  0  0  0  0  0  0
    0.2220    1.9498    1.8112 H   0  0  0  0  0  0  0  0  0  0  0  0
  1  2  1  0
  1  3  1  0
  4  7  1  0
  5  6  2  3
  5  8  1  0
  5  9  1  0
  6  7  1  0
  6 10  1  0
M  RAD  1   2   2
M  END
>  <reaction>  (11) 
rxn_438

>  <mol_properties>  (11) 
{"0": {"label": "*4", "atom_type": "O2s"}, "1": {"label": "*3", "atom_type": "O2s"}, "3": {"label": "*2", "atom_type": "H0"}, "5": {"label": "*0", "atom_type": "Cd"}, "6": {"label": "*1", "atom_type": "O2s"}}

>  <type>  (11) 
unop_7

>  <geom_source>  (11) 
Heuristics

$$$$

     RDKit          3D

 10  8  0  0  0  0  0  0  0  0999 V2000
    0.6323   -1.3766   -1.2495 O   0  0  0  0  0  0  0  0  0  0  0  0
    0.6323   -1.3766    0.1751 O   0  0  0  0  0  1  0  0  0  0  0  0
    1.4931   -1.7649   -1.4366 H   0  0  0  0  0  0  0  0  0  0  0  0
    0.6323   -0.2435    0.3996 H   0  0  0  0  0  0  0  0  0  0  0  0
   -1.6522    1.0093   -0.0837 C   0  0  0  0  0  0  0  0  0  0  0  0
   -0.6415    1.3299    0.7113 C   0  0  0  0  0  0  0  0  0  0  0  0
    0.6323    0.8872    0.6236 O   0  0  0  0  0  0  0  0  0  0  0  0
   -2.6293    1.4331    0.0920 H   0  0  0  0  0  0  0  0  0  0  0  0
   -1.5371    0.3269   -0.9182 H   0  0  0  0  0  0  0  0  0  0  0  0
   -0.7541    2.0114    1.5456 H   0  0  0  0  0  0  0  0  0  0  0  0
  1  2  1  0
  1  3  1  0
  4  7  1  0
  5  6  2  3
  5  8  1  0
  5  9  1  0
  6  7  1  0
  6 10  1  0
M  RAD  1   2   2
M  END
>  <reaction>  (12) 
rxn_438

>  <mol_properties>  (12) 
{"0": {"label": "*4", "atom_type": "O2s"}, "1": {"label": "*3", "atom_type": "O2s"}, "3": {"label": "*2", "atom_type": "H0"}, "5": {"label": "*0", "atom_type": "Cd"}, "6": {"label": "*1", "atom_type": "O2s"}}

>  <type>  (12) 
unop_8

>  <geom_source>  (12) 
Heuristics

$$$$

     RDKit          3D

 10  8  0  0  0  0  0  0  0  0999 V2000
   -0.2830   -1.4323   -0.7795 O   0  0  0  0  0  0  0  0  0  0  0  0
   -0.2830   -1.4323    0.6451 O   0  0  0  0  0  1  0  0  0  0  0  0
    0.5777   -1.8206   -0.9666 H   0  0  0  0  0  0  0  0  0  0  0  0
   -0.2830   -0.2992    0.8696 H   0  0  0  0  0  0  0  0  0  0  0  0
    0.5819    1.0460   -1.1290 C   0  0  0  0  0  0  0  0  0  0  0  0
    0.3539    1.4887    0.0992 C   0  0  0  0  0  0  0  0  0  0  0  0
   -0.2830    0.8316    1.0936 O   0  0  0  0  0  0  0  0  0  0  0  0
    1.1052    1.6710   -1.8368 H   0  0  0  0  0  0  0  0  0  0  0  0
    0.2592    0.0651   -1.4591 H   0  0  0  0  0  0  0  0  0  0  0  0
    0.6753    2.4683    0.4312 H   0  0  0  0  0  0  0  0  0  0  0  0
  1  2  1  0
  1  3  1  0
  4  7  1  0
  5  6  2  3
  5  8  1  0
  5  9  1  0
  6  7  1  0
  6 10  1  0
M  RAD  1   2   2
M  END
>  <reaction>  (13) 
rxn_438

>  <mol_properties>  (13) 
{"0": {"label": "*4", "atom_type": "O2s"}, "1": {"label": "*3", "atom_type": "O2s"}, "3": {"label": "*2", "atom_type": "H0"}, "5": {"label": "*0", "atom_type": "Cd"}, "6": {"label": "*1", "atom_type": "O2s"}}

>  <type>  (13) 
unop_9

>  <geom_source>  (13) 
Heuristics

$$$$

     RDKit          3D

 10  8  0  0  0  0  0  0  0  0999 V2000
    0.4966   -1.4175   -0.9628 O   0  0  0  0  0  0  0  0  0  0  0  0
    0.4966   -1.4175    0.4619 O   0  0  0  0  0  1  0  0  0  0  0  0
    1.3573   -1.8058   -1.1498 H   0  0  0  0  0  0  0  0  0  0  0  0
    0.4966   -0.2844    0.6864 H   0  0  0  0  0  0  0  0  0  0  0  0
   -1.2074    1.0701   -0.7572 C   0  0  0  0  0  0  0  0  0  0  0  0
   -0.6066    1.4129    0.3733 C   0  0  0  0  0  0  0  0  0  0  0  0
    0.4966    0.8464    0.9104 O   0  0  0  0  0  0  0  0  0  0  0  0
   -2.0880    1.6040   -1.0808 H   0  0  0  0  0  0  0  0  0  0  0  0
   -0.8452    0.2616   -1.3820 H   0  0  0  0  0  0  0  0  0  0  0  0
   -0.9665    2.2203    0.9992 H   0  0  0  0  0  0  0  0  0  0  0  0
  1  2  1  0
  1  3  1  0
  4  7  1  0
  5  6  2  3
  5  8  1  0
  5  9  1  0
  6  7  1  0
  6 10  1  0
M  RAD  1   2   2
M  END
>  <reaction>  (14) 
rxn_438

>  <mol_properties>  (14) 
{"0": {"label": "*4", "atom_type": "O2s"}, "1": {"label": "*3", "atom_type": "O2s"}, "3": {"label": "*2", "atom_type": "H0"}, "5": {"label": "*0", "atom_type": "Cd"}, "6": {"label": "*1", "atom_type": "O2s"}}

>  <type>  (14) 
unop_10

>  <geom_source>  (14) 
Heuristics

$$$$

     RDKit          3D

 10  8  0  0  0  0  0  0  0  0999 V2000
   -0.4245   -1.2322   -1.8755 O   0  0  0  0  0  0  0  0  0  0  0  0
   -0.4245   -1.2322   -0.4509 O   0  0  0  0  0  1  0  0  0  0  0  0
    0.4362   -1.6205   -2.0626 H   0  0  0  0  0  0  0  0  0  0  0  0
   -0.4245   -0.0991   -0.2264 H   0  0  0  0  0  0  0  0  0  0  0  0
    1.2250    0.5688    1.6706 C   0  0  0  0  0  0  0  0  0  0  0  0
    0.2124    1.2600    1.1674 C   0  0  0  0  0  0  0  0  0  0  0  0
   -0.4245    1.0317   -0.0024 O   0  0  0  0  0  0  0  0  0  0  0  0
    1.6499    0.8533    2.6213 H   0  0  0  0  0  0  0  0  0  0  0  0
    1.6523   -0.2860    1.1586 H   0  0  0  0  0  0  0  0  0  0  0  0
   -0.2163    2.1143    1.6771 H   0  0  0  0  0  0  0  0  0  0  0  0
  1  2  1  0
  1  3  1  0
  4  7  1  0
  5  6  2  3
  5  8  1  0
  5  9  1  0
  6  7  1  0
  6 10  1  0
M  RAD  1   2   2
M  END
>  <reaction>  (15) 
rxn_438

>  <mol_properties>  (15) 
{"0": {"label": "*4", "atom_type": "O2s"}, "1": {"label": "*3", "atom_type": "O2s"}, "3": {"label": "*2", "atom_type": "H0"}, "5": {"label": "*0", "atom_type": "Cd"}, "6": {"label": "*1", "atom_type": "O2s"}}

>  <type>  (15) 
unop_11

>  <geom_source>  (15) 
Heuristics

$$$$

     RDKit          3D

 10  8  0  0  0  0  0  0  0  0999 V2000
   -0.0113   -1.4332   -0.7194 O   0  0  0  0  0  0  0  0  0  0  0  0
   -0.0113   -1.4332    0.7053 O   0  0  0  0  0  1  0  0  0  0  0  0
    0.8495   -1.8215   -0.9064 H   0  0  0  0  0  0  0  0  0  0  0  0
   -0.0113   -0.3000    0.9298 H   0  0  0  0  0  0  0  0  0  0  0  0
   -0.0113    1.0166   -1.2336 C   0  0  0  0  0  0  0  0  0  0  0  0
   -0.0113    1.5210   -0.0081 C   0  0  0  0  0  0  0  0  0  0  0  0
   -0.0113    0.8307    1.1538 O   0  0  0  0  0  0  0  0  0  0  0  0
   -0.0113    1.6780   -2.0868 H   0  0  0  0  0  0  0  0  0  0  0  0
   -0.0113   -0.0516   -1.4190 H   0  0  0  0  0  0  0  0  0  0  0  0
   -0.0113    2.5877    0.1796 H   0  0  0  0  0  0  0  0  0  0  0  0
  1  2  1  0
  1  3  1  0
  4  7  1  0
  5  6  2  3
  5  8  1  0
  5  9  1  0
  6  7  1  0
  6 10  1  0
M  RAD  1   2   2
M  END
>  <reaction>  (16) 
rxn_438

>  <mol_properties>  (16) 
{"0": {"label": "*4", "atom_type": "O2s"}, "1": {"label": "*3", "atom_type": "O2s"}, "3": {"label": "*2", "atom_type": "H0"}, "5": {"label": "*0", "atom_type": "Cd"}, "6": {"label": "*1", "atom_type": "O2s"}}

>  <type>  (16) 
unop_12

>  <geom_source>  (16) 
Heuristics

$$$$

     RDKit          3D

 10  8  0  0  0  0  0  0  0  0999 V2000
   -0.0979   -0.6453   -0.6118 O   0  0  0  0  0  0  0  0  0  0  0  0
    3.0341    0.1126   -0.2850 O   0  0  0  0  0  0  0  0  0  0  0  0
    1.9688   -0.6228   -0.0480 O   0  0  0  0  0  1  0  0  0  0  0  0
   -1.3837   -0.2205   -0.2857 C   0  0  0  0  0  0  0  0  0  0  0  0
   -1.6192    0.4623    0.8298 C   0  0  0  0  0  0  0  0  0  0  0  0
   -2.2020   -0.4524   -0.9549 H   0  0  0  0  0  0  0  0  0  0  0  0
   -2.6249    0.7842    1.0667 H   0  0  0  0  0  0  0  0  0  0  0  0
   -0.8145    0.7042    1.5120 H   0  0  0  0  0  0  0  0  0  0  0  0
    0.7524   -0.4348    0.0305 H   0  0  0  0  0  0  0  0  0  0  0  0
    2.9870    0.3126   -1.2537 H   0  0  0  0  0  0  0  0  0  0  0  0
  1  4  1  0
  1  9  1  0
  2  3  1  0
  2 10  1  0
  4  5  2  3
  4  6  1  0
  5  7  1  0
  5  8  1  0
M  RAD  1   3   2
M  END
>  <reaction>  (17) 
rxn_438

>  <mol_properties>  (17) 
{"0": {"label": "*4", "atom_type": "O2s"}, "1": {"label": "*3", "atom_type": "O2s"}, "3": {"label": "*2", "atom_type": "H0"}, "5": {"label": "*0", "atom_type": "Cd"}, "6": {"label": "*1", "atom_type": "O2s"}}

>  <type>  (17) 
unop_13

>  <geom_source>  (17) 
AutoTST

$$$$

     RDKit          3D

 10  8  0  0  0  0  0  0  0  0999 V2000
    0.2605   -1.4323   -0.7795 O   0  0  0  0  0  0  0  0  0  0  0  0
    0.2605   -1.4323    0.6451 O   0  0  0  0  0  1  0  0  0  0  0  0
    1.1213   -1.8206   -0.9666 H   0  0  0  0  0  0  0  0  0  0  0  0
    0.2605   -0.2992    0.8696 H   0  0  0  0  0  0  0  0  0  0  0  0
   -0.6044    1.0460   -1.1290 C   0  0  0  0  0  0  0  0  0  0  0  0
   -0.3764    1.4887    0.0992 C   0  0  0  0  0  0  0  0  0  0  0  0
    0.2605    0.8316    1.0936 O   0  0  0  0  0  0  0  0  0  0  0  0
   -1.1278    1.6710   -1.8368 H   0  0  0  0  0  0  0  0  0  0  0  0
   -0.2817    0.0651   -1.4590 H   0  0  0  0  0  0  0  0  0  0  0  0
   -0.6978    2.4683    0.4312 H   0  0  0  0  0  0  0  0  0  0  0  0
  1  2  1  0
  1  3  1  0
  4  7  1  0
  5  6  2  3
  5  8  1  0
  5  9  1  0
  6  7  1  0
  6 10  1  0
M  RAD  1   2   2
M  END
>  <reaction>  (18) 
rxn_438

>  <mol_properties>  (18) 
{"0": {"label": "*4", "atom_type": "O2s"}, "1": {"label": "*3", "atom_type": "O2s"}, "3": {"label": "*2", "atom_type": "H0"}, "5": {"label": "*0", "atom_type": "Cd"}, "6": {"label": "*1", "atom_type": "O2s"}}

>  <type>  (18) 
unop_14

>  <geom_source>  (18) 
gaussian_log

$$$$
