
     RDKit          3D

  7  6  0  0  0  0  0  0  0  0999 V2000
    1.6964   -0.0938    0.0583 C   0  0  0  0  0  0  0  0  0  0  0  0
    0.5019   -0.0278    0.0173 C   0  0  0  0  0  0  0  0  0  0  0  0
   -0.9505    0.0525   -0.0327 C   0  0  0  0  0  0  0  0  0  0  0  0
    2.7574   -0.1524    0.0947 H   0  0  0  0  0  0  0  0  0  0  0  0
   -1.2692    0.9972   -0.4754 H   0  0  0  0  0  0  0  0  0  0  0  0
   -1.3749   -0.0147    0.9700 H   0  0  0  0  0  0  0  0  0  0  0  0
   -1.3610   -0.7611   -0.6323 H   0  0  0  0  0  0  0  0  0  0  0  0
  1  2  3  0
  1  4  1  0
  2  3  1  0
  3  5  1  0
  3  6  1  0
  3  7  1  0
M  END
>  <reaction>  (1) 
rxn_1243

>  <mol_properties>  (1) 
{"2": {"label": "donator", "atom_type": "Cs"}, "4": {"label": "d_hydrogen", "atom_type": "H0"}}

>  <type>  (1) 
r1h

$$$$

     RDKit          3D

  9  8  0  0  0  0  0  0  0  0999 V2000
    2.3991   -0.1292   -0.2384 S   0  0  0  0  0  0  0  0  0  0  0  0
    0.7460    0.2807    0.0931 C   0  0  0  0  0  3  0  0  0  0  0  0
   -0.3131   -0.5719   -0.2043 C   0  0  0  0  0  0  0  0  0  0  0  0
   -0.2286   -1.8095   -0.7775 C   0  0  0  0  0  0  0  0  0  0  0  0
    2.9373    1.0009    0.2312 H   0  0  0  0  0  0  0  0  0  0  0  0
    0.5618    1.2421    0.5487 H   0  0  0  0  0  0  0  0  0  0  0  0
   -1.2978   -0.1954    0.0537 H   0  0  0  0  0  0  0  0  0  0  0  0
    0.7207   -2.2479   -1.0607 H   0  0  0  0  0  0  0  0  0  0  0  0
   -1.1177   -2.3938   -0.9670 H   0  0  0  0  0  0  0  0  0  0  0  0
  1  2  1  0
  1  5  1  0
  2  3  1  0
  2  6  1  0
  3  4  2  3
  3  7  1  0
  4  8  1  0
  4  9  1  0
M  RAD  1   2   2
M  END
>  <reaction>  (2) 
rxn_1243

>  <mol_properties>  (2) 
{"1": {"label": "acceptor", "atom_type": "Cs"}}

>  <type>  (2) 
r2

$$$$

     RDKit          3D

 10  9  0  0  0  0  0  0  0  0999 V2000
    2.2097   -0.5315    0.2575 S   0  0  0  0  0  0  0  0  0  0  0  0
    0.5401   -0.7188   -0.4494 C   0  0  0  0  0  0  0  0  0  0  0  0
   -0.5263   -0.1678    0.4365 C   0  0  0  0  0  0  0  0  0  0  0  0
   -1.3394    0.8185    0.0912 C   0  0  0  0  0  0  0  0  0  0  0  0
    2.1701    0.8016    0.3806 H   0  0  0  0  0  0  0  0  0  0  0  0
    0.4238   -1.7978   -0.5701 H   0  0  0  0  0  0  0  0  0  0  0  0
    0.5053   -0.2663   -1.4400 H   0  0  0  0  0  0  0  0  0  0  0  0
   -0.6005   -0.6141    1.4236 H   0  0  0  0  0  0  0  0  0  0  0  0
   -2.0960    1.1907    0.7700 H   0  0  0  0  0  0  0  0  0  0  0  0
   -1.2784    1.2877   -0.8850 H   0  0  0  0  0  0  0  0  0  0  0  0
  1  2  1  0
  1  5  1  0
  2  3  1  0
  2  6  1  0
  2  7  1  0
  3  4  2  3
  3  8  1  0
  4  9  1  0
  4 10  1  0
M  END
>  <reaction>  (3) 
rxn_1243

>  <mol_properties>  (3) 
{"0": {"label": "a_hydrogen", "atom_type": "H0"}, "2": {"label": "acceptor", "atom_type": "Cs"}}

>  <type>  (3) 
r2h

$$$$

     RDKit          3D

 16 14  0  0  0  0  0  0  0  0999 V2000
    1.4056   -1.7019   -1.9854 C   0  0  0  0  0  0  0  0  0  0  0  0
    0.5388   -1.8733   -1.1676 C   0  0  0  0  0  0  0  0  0  0  0  0
   -0.4590   -1.9901   -0.1723 C   0  0  0  0  0  3  0  0  0  0  0  0
    2.1662   -1.5727   -2.7170 H   0  0  0  0  0  0  0  0  0  0  0  0
   -0.3713   -0.8299    0.5569 H   0  0  0  0  0  0  0  0  0  0  0  0
   -0.2870   -2.7561    0.5791 H   0  0  0  0  0  0  0  0  0  0  0  0
   -1.4853   -1.9546   -0.5290 H   0  0  0  0  0  0  0  0  0  0  0  0
   -1.9594    0.9014    1.1328 S   0  0  0  0  0  0  0  0  0  0  0  0
   -0.2740    0.3036    1.2465 C   0  0  0  0  0  0  0  0  0  0  0  0
    0.7670    1.0773    0.5848 C   0  0  0  0  0  0  0  0  0  0  0  0
    2.0221    1.1669    1.0286 C   0  0  0  0  0  0  0  0  0  0  0  0
   -1.7547    2.1125    1.6721 H   0  0  0  0  0  0  0  0  0  0  0  0
   -0.0097   -0.0652    2.2360 H   0  0  0  0  0  0  0  0  0  0  0  0
    0.4858    1.5676   -0.3419 H   0  0  0  0  0  0  0  0  0  0  0  0
    2.3328    0.6877    1.9503 H   0  0  0  0  0  0  0  0  0  0  0  0
    2.7731    1.7217    0.4819 H   0  0  0  0  0  0  0  0  0  0  0  0
  1  2  3  0
  1  4  1  0
  2  3  1  0
  3  6  1  0
  3  7  1  0
  5  9  1  0
  8  9  1  0
  8 12  1  0
  9 10  1  0
  9 13  1  0
 10 11  2  3
 10 14  1  0
 11 15  1  0
 11 16  1  0
M  RAD  1   3   2
M  END
>  <reaction>  (4) 
rxn_1243

>  <mol_properties>  (4) 
{"1": {"label": "*4", "atom_type": "Ct"}, "2": {"label": "*3", "atom_type": "Cs"}, "4": {"label": "*2", "atom_type": "H0"}, "7": {"label": "*0", "atom_type": "S2s"}, "8": {"label": "*1", "atom_type": "Cs"}}

>  <type>  (4) 
ts

$$$$

     RDKit          3D

 16 14  0  0  0  0  0  0  0  0999 V2000
   -0.0111   -2.0163   -3.0215 C   0  0  0  0  0  0  0  0  0  0  0  0
   -0.0111   -2.0163   -1.8244 C   0  0  0  0  0  0  0  0  0  0  0  0
   -0.0111   -2.0163   -0.3690 C   0  0  0  0  0  0  0  0  0  0  0  0
   -0.0111   -2.0163   -4.0847 H   0  0  0  0  0  0  0  0  0  0  0  0
    0.1003   -0.7967    0.0934 H   0  0  0  0  0  0  0  0  0  0  0  0
    0.8226   -2.6049    0.0164 H   0  0  0  0  0  0  0  0  0  0  0  0
   -0.9377   -2.4440    0.0164 H   0  0  0  0  0  0  0  0  0  0  0  0
   -1.3043    0.6632    1.5394 S   0  0  0  0  0  0  0  0  0  0  0  0
    0.2119    0.4240    0.5563 C   0  0  0  0  0  3  0  0  0  0  0  0
    0.8128    1.7113    0.1008 C   0  0  0  0  0  0  0  0  0  0  0  0
    2.0275    2.1201    0.4334 C   0  0  0  0  0  0  0  0  0  0  0  0
   -0.7471    1.4269    2.4881 H   0  0  0  0  0  0  0  0  0  0  0  0
    0.9293   -0.1699    1.1219 H   0  0  0  0  0  0  0  0  0  0  0  0
    0.1814    2.3341   -0.5257 H   0  0  0  0  0  0  0  0  0  0  0  0
    2.6735    1.5211    1.0663 H   0  0  0  0  0  0  0  0  0  0  0  0
    2.4205    3.0660    0.0836 H   0  0  0  0  0  0  0  0  0  0  0  0
  1  2  3  0
  1  4  1  0
  2  3  1  0
  3  5  1  0
  3  6  1  0
  3  7  1  0
  8  9  1  0
  8 12  1  0
  9 10  1  0
  9 13  1  0
 10 11  2  3
 10 14  1  0
 11 15  1  0
 11 16  1  0
M  RAD  1   9   2
M  END
>  <reaction>  (5) 
rxn_1243

>  <mol_properties>  (5) 
{"1": {"label": "*4", "atom_type": "Ct"}, "2": {"label": "*3", "atom_type": "Cs"}, "4": {"label": "*2", "atom_type": "H0"}, "7": {"label": "*0", "atom_type": "S2s"}, "8": {"label": "*1", "atom_type": "Cs"}}

>  <type>  (5) 
unop_1

>  <geom_source>  (5) 
Heuristics

$$$$

     RDKit          3D

 16 14  0  0  0  0  0  0  0  0999 V2000
   -0.2345   -2.0775   -2.7219 C   0  0  0  0  0  0  0  0  0  0  0  0
   -0.2345   -2.0775   -1.5249 C   0  0  0  0  0  0  0  0  0  0  0  0
   -0.2345   -2.0775   -0.0694 C   0  0  0  0  0  0  0  0  0  0  0  0
   -0.2345   -2.0775   -3.7852 H   0  0  0  0  0  0  0  0  0  0  0  0
   -0.1230   -0.8579    0.3930 H   0  0  0  0  0  0  0  0  0  0  0  0
    0.5993   -2.6660    0.3159 H   0  0  0  0  0  0  0  0  0  0  0  0
   -1.1610   -2.5052    0.3159 H   0  0  0  0  0  0  0  0  0  0  0  0
   -0.8053    1.3930   -0.4213 S   0  0  0  0  0  0  0  0  0  0  0  0
   -0.0114    0.3628    0.8559 C   0  0  0  0  0  3  0  0  0  0  0  0
    1.2405    0.9719    1.3919 C   0  0  0  0  0  0  0  0  0  0  0  0
    1.4170    1.3058    2.6610 C   0  0  0  0  0  0  0  0  0  0  0  0
   -0.9550    2.4845    0.3403 H   0  0  0  0  0  0  0  0  0  0  0  0
   -0.7221    0.1507    1.6540 H   0  0  0  0  0  0  0  0  0  0  0  0
    2.0274    1.1549    0.6665 H   0  0  0  0  0  0  0  0  0  0  0  0
    0.6424    1.1428    3.4028 H   0  0  0  0  0  0  0  0  0  0  0  0
    2.3417    1.7514    3.0044 H   0  0  0  0  0  0  0  0  0  0  0  0
  1  2  3  0
  1  4  1  0
  2  3  1  0
  3  5  1  0
  3  6  1  0
  3  7  1  0
  8  9  1  0
  8 12  1  0
  9 10  1  0
  9 13  1  0
 10 11  2  3
 10 14  1  0
 11 15  1  0
 11 16  1  0
M  RAD  1   9   2
M  END
>  <reaction>  (6) 
rxn_1243

>  <mol_properties>  (6) 
{"1": {"label": "*4", "atom_type": "Ct"}, "2": {"label": "*3", "atom_type": "Cs"}, "4": {"label": "*2", "atom_type": "H0"}, "7": {"label": "*0", "atom_type": "S2s"}, "8": {"label": "*1", "atom_type": "Cs"}}

>  <type>  (6) 
unop_2

>  <geom_source>  (6) 
Heuristics

$$$$

     RDKit          3D

 16 14  0  0  0  0  0  0  0  0999 V2000
    0.0111   -1.9912   -3.0521 C   0  0  0  0  0  0  0  0  0  0  0  0
    0.0111   -1.9912   -1.8550 C   0  0  0  0  0  0  0  0  0  0  0  0
    0.0111   -1.9912   -0.3996 C   0  0  0  0  0  0  0  0  0  0  0  0
    0.0111   -1.9912   -4.1153 H   0  0  0  0  0  0  0  0  0  0  0  0
    0.1226   -0.7716    0.0628 H   0  0  0  0  0  0  0  0  0  0  0  0
    0.8448   -2.5797   -0.0142 H   0  0  0  0  0  0  0  0  0  0  0  0
   -0.9155   -2.4189   -0.0142 H   0  0  0  0  0  0  0  0  0  0  0  0
   -0.6582    0.4016    2.1144 S   0  0  0  0  0  0  0  0  0  0  0  0
    0.2341    0.4491    0.5257 C   0  0  0  0  0  3  0  0  0  0  0  0
    0.0899    1.7568   -0.1778 C   0  0  0  0  0  0  0  0  0  0  0  0
    1.1049    2.5532   -0.4758 C   0  0  0  0  0  0  0  0  0  0  0  0
   -0.0299    1.4465    2.6688 H   0  0  0  0  0  0  0  0  0  0  0  0
    1.2825    0.1973    0.6829 H   0  0  0  0  0  0  0  0  0  0  0  0
   -0.9245    2.0504   -0.4301 H   0  0  0  0  0  0  0  0  0  0  0  0
    2.1263    2.2873   -0.2250 H   0  0  0  0  0  0  0  0  0  0  0  0
    0.9521    3.4973   -0.9825 H   0  0  0  0  0  0  0  0  0  0  0  0
  1  2  3  0
  1  4  1  0
  2  3  1  0
  3  5  1  0
  3  6  1  0
  3  7  1  0
  8  9  1  0
  8 12  1  0
  9 10  1  0
  9 13  1  0
 10 11  2  3
 10 14  1  0
 11 15  1  0
 11 16  1  0
M  RAD  1   9   2
M  END
>  <reaction>  (7) 
rxn_1243

>  <mol_properties>  (7) 
{"1": {"label": "*4", "atom_type": "Ct"}, "2": {"label": "*3", "atom_type": "Cs"}, "4": {"label": "*2", "atom_type": "H0"}, "7": {"label": "*0", "atom_type": "S2s"}, "8": {"label": "*1", "atom_type": "Cs"}}

>  <type>  (7) 
unop_3

>  <geom_source>  (7) 
Heuristics

$$$$

     RDKit          3D

 16 14  0  0  0  0  0  0  0  0999 V2000
   -0.5724   -1.6390   -3.0667 C   0  0  0  0  0  0  0  0  0  0  0  0
   -0.5724   -1.6390   -1.8697 C   0  0  0  0  0  0  0  0  0  0  0  0
   -0.5724   -1.6390   -0.4143 C   0  0  0  0  0  0  0  0  0  0  0  0
   -0.5724   -1.6390   -4.1300 H   0  0  0  0  0  0  0  0  0  0  0  0
   -0.4609   -0.4195    0.0482 H   0  0  0  0  0  0  0  0  0  0  0  0
    0.2614   -2.2276   -0.0289 H   0  0  0  0  0  0  0  0  0  0  0  0
   -1.4989   -2.0667   -0.0289 H   0  0  0  0  0  0  0  0  0  0  0  0
    1.2419    1.3838   -0.1605 S   0  0  0  0  0  0  0  0  0  0  0  0
   -0.3493    0.8013    0.5110 C   0  0  0  0  0  3  0  0  0  0  0  0
   -0.2005    0.0965    1.8175 C   0  0  0  0  0  0  0  0  0  0  0  0
   -0.7632    0.5015    2.9456 C   0  0  0  0  0  0  0  0  0  0  0  0
    1.5767    2.1446    0.8898 H   0  0  0  0  0  0  0  0  0  0  0  0
   -1.0457    1.6358    0.5881 H   0  0  0  0  0  0  0  0  0  0  0  0
    0.4285   -0.7885    1.8101 H   0  0  0  0  0  0  0  0  0  0  0  0
   -1.3872    1.3881    2.9811 H   0  0  0  0  0  0  0  0  0  0  0  0
   -0.6224   -0.0391    3.8727 H   0  0  0  0  0  0  0  0  0  0  0  0
  1  2  3  0
  1  4  1  0
  2  3  1  0
  3  5  1  0
  3  6  1  0
  3  7  1  0
  8  9  1  0
  8 12  1  0
  9 10  1  0
  9 13  1  0
 10 11  2  3
 10 14  1  0
 11 15  1  0
 11 16  1  0
M  RAD  1   9   2
M  END
>  <reaction>  (8) 
rxn_1243

>  <mol_properties>  (8) 
{"1": {"label": "*4", "atom_type": "Ct"}, "2": {"label": "*3", "atom_type": "Cs"}, "4": {"label": "*2", "atom_type": "H0"}, "7": {"label": "*0", "atom_type": "S2s"}, "8": {"label": "*1", "atom_type": "Cs"}}

>  <type>  (8) 
unop_4

>  <geom_source>  (8) 
Heuristics

$$$$

     RDKit          3D

 16 14  0  0  0  0  0  0  0  0999 V2000
    0.1056   -1.8832   -3.1189 C   0  0  0  0  0  0  0  0  0  0  0  0
    0.1056   -1.8832   -1.9219 C   0  0  0  0  0  0  0  0  0  0  0  0
    0.1056   -1.8832   -0.4664 C   0  0  0  0  0  0  0  0  0  0  0  0
    0.1056   -1.8832   -4.1822 H   0  0  0  0  0  0  0  0  0  0  0  0
    0.2171   -0.6637   -0.0040 H   0  0  0  0  0  0  0  0  0  0  0  0
    0.9393   -2.4718   -0.0811 H   0  0  0  0  0  0  0  0  0  0  0  0
   -0.8210   -2.3109   -0.0811 H   0  0  0  0  0  0  0  0  0  0  0  0
    0.3093    0.3457    2.2692 S   0  0  0  0  0  0  0  0  0  0  0  0
    0.3287    0.5571    0.4588 C   0  0  0  0  0  3  0  0  0  0  0  0
   -0.7892    1.4136   -0.0336 C   0  0  0  0  0  0  0  0  0  0  0  0
   -0.6170    2.5556   -0.6812 C   0  0  0  0  0  0  0  0  0  0  0  0
    0.3820    1.6485    2.5715 H   0  0  0  0  0  0  0  0  0  0  0  0
    1.2956    0.9471    0.1426 H   0  0  0  0  0  0  0  0  0  0  0  0
   -1.7914    1.0576    0.1850 H   0  0  0  0  0  0  0  0  0  0  0  0
    0.3739    2.9378   -0.9024 H   0  0  0  0  0  0  0  0  0  0  0  0
   -1.4591    3.1480   -1.0152 H   0  0  0  0  0  0  0  0  0  0  0  0
  1  2  3  0
  1  4  1  0
  2  3  1  0
  3  5  1  0
  3  6  1  0
  3  7  1  0
  8  9  1  0
  8 12  1  0
  9 10  1  0
  9 13  1  0
 10 11  2  3
 10 14  1  0
 11 15  1  0
 11 16  1  0
M  RAD  1   9   2
M  END
>  <reaction>  (9) 
rxn_1243

>  <mol_properties>  (9) 
{"1": {"label": "*4", "atom_type": "Ct"}, "2": {"label": "*3", "atom_type": "Cs"}, "4": {"label": "*2", "atom_type": "H0"}, "7": {"label": "*0", "atom_type": "S2s"}, "8": {"label": "*1", "atom_type": "Cs"}}

>  <type>  (9) 
unop_5

>  <geom_source>  (9) 
Heuristics

$$$$

     RDKit          3D

 16 14  0  0  0  0  0  0  0  0999 V2000
   -0.4067   -1.5451   -3.2307 C   0  0  0  0  0  0  0  0  0  0  0  0
   -0.4067   -1.5451   -2.0337 C   0  0  0  0  0  0  0  0  0  0  0  0
   -0.4067   -1.5451   -0.5783 C   0  0  0  0  0  0  0  0  0  0  0  0
   -0.4067   -1.5451   -4.2940 H   0  0  0  0  0  0  0  0  0  0  0  0
   -0.2952   -0.3256   -0.1159 H   0  0  0  0  0  0  0  0  0  0  0  0
    0.4270   -2.1337   -0.1929 H   0  0  0  0  0  0  0  0  0  0  0  0
   -1.3333   -1.9728   -0.1929 H   0  0  0  0  0  0  0  0  0  0  0  0
    1.6151    1.1450    0.5028 S   0  0  0  0  0  0  0  0  0  0  0  0
   -0.1837    0.8951    0.3470 C   0  0  0  0  0  3  0  0  0  0  0  0
   -0.7656    0.1563    1.5051 C   0  0  0  0  0  0  0  0  0  0  0  0
   -1.6921    0.6530    2.3102 C   0  0  0  0  0  0  0  0  0  0  0  0
    1.5730    1.8050    1.6675 H   0  0  0  0  0  0  0  0  0  0  0  0
   -0.6787    1.8546    0.1999 H   0  0  0  0  0  0  0  0  0  0  0  0
   -0.3698   -0.8395    1.6798 H   0  0  0  0  0  0  0  0  0  0  0  0
   -2.0959    1.6491    2.1631 H   0  0  0  0  0  0  0  0  0  0  0  0
   -2.0815    0.0819    3.1432 H   0  0  0  0  0  0  0  0  0  0  0  0
  1  2  3  0
  1  4  1  0
  2  3  1  0
  3  5  1  0
  3  6  1  0
  3  7  1  0
  8  9  1  0
  8 12  1  0
  9 10  1  0
  9 13  1  0
 10 11  2  3
 10 14  1  0
 11 15  1  0
 11 16  1  0
M  RAD  1   9   2
M  END
>  <reaction>  (10) 
rxn_1243

>  <mol_properties>  (10) 
{"1": {"label": "*4", "atom_type": "Ct"}, "2": {"label": "*3", "atom_type": "Cs"}, "4": {"label": "*2", "atom_type": "H0"}, "7": {"label": "*0", "atom_type": "S2s"}, "8": {"label": "*1", "atom_type": "Cs"}}

>  <type>  (10) 
unop_6

>  <geom_source>  (10) 
Heuristics

$$$$

     RDKit          3D

 16 14  0  0  0  0  0  0  0  0999 V2000
   -0.1628   -1.5491   -3.3031 C   0  0  0  0  0  0  0  0  0  0  0  0
   -0.1628   -1.5491   -2.1061 C   0  0  0  0  0  0  0  0  0  0  0  0
   -0.1628   -1.5491   -0.6507 C   0  0  0  0  0  0  0  0  0  0  0  0
   -0.1628   -1.5491   -4.3664 H   0  0  0  0  0  0  0  0  0  0  0  0
   -0.0514   -0.3295   -0.1883 H   0  0  0  0  0  0  0  0  0  0  0  0
    0.6709   -2.1377   -0.2653 H   0  0  0  0  0  0  0  0  0  0  0  0
   -1.0894   -1.9768   -0.2653 H   0  0  0  0  0  0  0  0  0  0  0  0
    1.5946    0.8515    1.2577 S   0  0  0  0  0  0  0  0  0  0  0  0
    0.0602    0.8912    0.2746 C   0  0  0  0  0  3  0  0  0  0  0  0
   -1.1230    0.3894    1.0321 C   0  0  0  0  0  0  0  0  0  0  0  0
   -2.1967    1.1180    1.2959 C   0  0  0  0  0  0  0  0  0  0  0  0
    1.1531    1.6308    2.2535 H   0  0  0  0  0  0  0  0  0  0  0  0
   -0.1101    1.8985   -0.1043 H   0  0  0  0  0  0  0  0  0  0  0  0
   -1.0586   -0.6340    1.3891 H   0  0  0  0  0  0  0  0  0  0  0  0
   -2.2807    2.1458    0.9595 H   0  0  0  0  0  0  0  0  0  0  0  0
   -3.0305    0.7132    1.8551 H   0  0  0  0  0  0  0  0  0  0  0  0
  1  2  3  0
  1  4  1  0
  2  3  1  0
  3  5  1  0
  3  6  1  0
  3  7  1  0
  8  9  1  0
  8 12  1  0
  9 10  1  0
  9 13  1  0
 10 11  2  3
 10 14  1  0
 11 15  1  0
 11 16  1  0
M  RAD  1   9   2
M  END
>  <reaction>  (11) 
rxn_1243

>  <mol_properties>  (11) 
{"1": {"label": "*4", "atom_type": "Ct"}, "2": {"label": "*3", "atom_type": "Cs"}, "4": {"label": "*2", "atom_type": "H0"}, "7": {"label": "*0", "atom_type": "S2s"}, "8": {"label": "*1", "atom_type": "Cs"}}

>  <type>  (11) 
unop_7

>  <geom_source>  (11) 
Heuristics

$$$$

     RDKit          3D

 16 14  0  0  0  0  0  0  0  0999 V2000
   -0.0048   -2.0479   -2.9412 C   0  0  0  0  0  0  0  0  0  0  0  0
   -0.0048   -2.0479   -1.7442 C   0  0  0  0  0  0  0  0  0  0  0  0
   -0.0048   -2.0479   -0.2887 C   0  0  0  0  0  0  0  0  0  0  0  0
   -0.0048   -2.0479   -4.0045 H   0  0  0  0  0  0  0  0  0  0  0  0
    0.1067   -0.8283    0.1737 H   0  0  0  0  0  0  0  0  0  0  0  0
    0.8289   -2.6364    0.0966 H   0  0  0  0  0  0  0  0  0  0  0  0
   -0.9314   -2.4756    0.0966 H   0  0  0  0  0  0  0  0  0  0  0  0
   -1.5055    0.9642    0.7923 S   0  0  0  0  0  0  0  0  0  0  0  0
    0.2183    0.3924    0.6366 C   0  0  0  0  0  3  0  0  0  0  0  0
    1.1933    1.5180    0.5477 C   0  0  0  0  0  0  0  0  0  0  0  0
    2.1641    1.7276    1.4236 C   0  0  0  0  0  0  0  0  0  0  0  0
   -1.3236    1.6816    1.9086 H   0  0  0  0  0  0  0  0  0  0  0  0
    0.4611   -0.2781    1.4603 H   0  0  0  0  0  0  0  0  0  0  0  0
    1.0587    2.1975   -0.2884 H   0  0  0  0  0  0  0  0  0  0  0  0
    2.3128    1.0693    2.2729 H   0  0  0  0  0  0  0  0  0  0  0  0
    2.8457    2.5622    1.3222 H   0  0  0  0  0  0  0  0  0  0  0  0
  1  2  3  0
  1  4  1  0
  2  3  1  0
  3  5  1  0
  3  6  1  0
  3  7  1  0
  8  9  1  0
  8 12  1  0
  9 10  1  0
  9 13  1  0
 10 11  2  3
 10 14  1  0
 11 15  1  0
 11 16  1  0
M  RAD  1   9   2
M  END
>  <reaction>  (12) 
rxn_1243

>  <mol_properties>  (12) 
{"1": {"label": "*4", "atom_type": "Ct"}, "2": {"label": "*3", "atom_type": "Cs"}, "4": {"label": "*2", "atom_type": "H0"}, "7": {"label": "*0", "atom_type": "S2s"}, "8": {"label": "*1", "atom_type": "Cs"}}

>  <type>  (12) 
unop_8

>  <geom_source>  (12) 
Heuristics

$$$$

     RDKit          3D

 16 14  0  0  0  0  0  0  0  0999 V2000
   -0.5975   -1.8032   -2.8717 C   0  0  0  0  0  0  0  0  0  0  0  0
   -0.5975   -1.8032   -1.6747 C   0  0  0  0  0  0  0  0  0  0  0  0
   -0.5975   -1.8032   -0.2193 C   0  0  0  0  0  0  0  0  0  0  0  0
   -0.5975   -1.8032   -3.9350 H   0  0  0  0  0  0  0  0  0  0  0  0
   -0.4860   -0.5836    0.2432 H   0  0  0  0  0  0  0  0  0  0  0  0
    0.2362   -2.3918    0.1661 H   0  0  0  0  0  0  0  0  0  0  0  0
   -1.5241   -2.2309    0.1661 H   0  0  0  0  0  0  0  0  0  0  0  0
    0.5929    1.5063   -0.5711 S   0  0  0  0  0  0  0  0  0  0  0  0
   -0.3745    0.6371    0.7060 C   0  0  0  0  0  3  0  0  0  0  0  0
    0.4490    0.2470    1.8873 C   0  0  0  0  0  0  0  0  0  0  0  0
    0.2258    0.6763    3.1198 C   0  0  0  0  0  0  0  0  0  0  0  0
    1.0134    2.5054    0.2155 H   0  0  0  0  0  0  0  0  0  0  0  0
   -1.2279    1.2465    1.0018 H   0  0  0  0  0  0  0  0  0  0  0  0
    1.2846   -0.4161    1.6849 H   0  0  0  0  0  0  0  0  0  0  0  0
   -0.5959    1.3474    3.3460 H   0  0  0  0  0  0  0  0  0  0  0  0
    0.8540    0.3710    3.9467 H   0  0  0  0  0  0  0  0  0  0  0  0
  1  2  3  0
  1  4  1  0
  2  3  1  0
  3  5  1  0
  3  6  1  0
  3  7  1  0
  8  9  1  0
  8 12  1  0
  9 10  1  0
  9 13  1  0
 10 11  2  3
 10 14  1  0
 11 15  1  0
 11 16  1  0
M  RAD  1   9   2
M  END
>  <reaction>  (13) 
rxn_1243

>  <mol_properties>  (13) 
{"1": {"label": "*4", "atom_type": "Ct"}, "2": {"label": "*3", "atom_type": "Cs"}, "4": {"label": "*2", "atom_type": "H0"}, "7": {"label": "*0", "atom_type": "S2s"}, "8": {"label": "*1", "atom_type": "Cs"}}

>  <type>  (13) 
unop_9

>  <geom_source>  (13) 
Heuristics

$$$$

     RDKit          3D

 16 14  0  0  0  0  0  0  0  0999 V2000
   -0.0652   -2.0835   -2.8193 C   0  0  0  0  0  0  0  0  0  0  0  0
   -0.0652   -2.0835   -1.6223 C   0  0  0  0  0  0  0  0  0  0  0  0
   -0.0652   -2.0835   -0.1669 C   0  0  0  0  0  0  0  0  0  0  0  0
   -0.0652   -2.0835   -3.8826 H   0  0  0  0  0  0  0  0  0  0  0  0
    0.0463   -0.8639    0.2955 H   0  0  0  0  0  0  0  0  0  0  0  0
    0.7685   -2.6721    0.2185 H   0  0  0  0  0  0  0  0  0  0  0  0
   -0.9918   -2.5112    0.2185 H   0  0  0  0  0  0  0  0  0  0  0  0
   -1.3015    1.2181    0.0869 S   0  0  0  0  0  0  0  0  0  0  0  0
    0.1578    0.3568    0.7584 C   0  0  0  0  0  3  0  0  0  0  0  0
    1.3089    1.2748    0.9996 C   0  0  0  0  0  0  0  0  0  0  0  0
    1.8549    1.4813    2.1881 C   0  0  0  0  0  0  0  0  0  0  0  0
   -1.4375    2.0884    1.0958 H   0  0  0  0  0  0  0  0  0  0  0  0
   -0.1158   -0.1822    1.6649 H   0  0  0  0  0  0  0  0  0  0  0  0
    1.6852    1.8027    0.1286 H   0  0  0  0  0  0  0  0  0  0  0  0
    1.4903    0.9741    3.0750 H   0  0  0  0  0  0  0  0  0  0  0  0
    2.6864    2.1621    2.3170 H   0  0  0  0  0  0  0  0  0  0  0  0
  1  2  3  0
  1  4  1  0
  2  3  1  0
  3  5  1  0
  3  6  1  0
  3  7  1  0
  8  9  1  0
  8 12  1  0
  9 10  1  0
  9 13  1  0
 10 11  2  3
 10 14  1  0
 11 15  1  0
 11 16  1  0
M  RAD  1   9   2
M  END
>  <reaction>  (14) 
rxn_1243

>  <mol_properties>  (14) 
{"1": {"label": "*4", "atom_type": "Ct"}, "2": {"label": "*3", "atom_type": "Cs"}, "4": {"label": "*2", "atom_type": "H0"}, "7": {"label": "*0", "atom_type": "S2s"}, "8": {"label": "*1", "atom_type": "Cs"}}

>  <type>  (14) 
unop_10

>  <geom_source>  (14) 
Heuristics

$$$$

     RDKit          3D

 16 14  0  0  0  0  0  0  0  0999 V2000
    0.0605   -1.6746   -3.2516 C   0  0  0  0  0  0  0  0  0  0  0  0
    0.0605   -1.6746   -2.0546 C   0  0  0  0  0  0  0  0  0  0  0  0
    0.0605   -1.6746   -0.5991 C   0  0  0  0  0  0  0  0  0  0  0  0
    0.0605   -1.6746   -4.3149 H   0  0  0  0  0  0  0  0  0  0  0  0
    0.1719   -0.4550   -0.1367 H   0  0  0  0  0  0  0  0  0  0  0  0
    0.8942   -2.2631   -0.2138 H   0  0  0  0  0  0  0  0  0  0  0  0
   -0.8661   -2.1023   -0.2138 H   0  0  0  0  0  0  0  0  0  0  0  0
    1.1524    0.5573    1.9148 S   0  0  0  0  0  0  0  0  0  0  0  0
    0.2835    0.7657    0.3262 C   0  0  0  0  0  3  0  0  0  0  0  0
   -1.1995    0.8130    0.4819 C   0  0  0  0  0  0  0  0  0  0  0  0
   -1.9478    1.8489    0.1352 C   0  0  0  0  0  0  0  0  0  0  0  0
    0.6518    1.6517    2.5026 H   0  0  0  0  0  0  0  0  0  0  0  0
    0.6566    1.6523   -0.1856 H   0  0  0  0  0  0  0  0  0  0  0  0
   -1.6580   -0.0653    0.9262 H   0  0  0  0  0  0  0  0  0  0  0  0
   -1.5124    2.7417   -0.3007 H   0  0  0  0  0  0  0  0  0  0  0  0
   -3.0214    1.8410    0.2723 H   0  0  0  0  0  0  0  0  0  0  0  0
  1  2  3  0
  1  4  1  0
  2  3  1  0
  3  5  1  0
  3  6  1  0
  3  7  1  0
  8  9  1  0
  8 12  1  0
  9 10  1  0
  9 13  1  0
 10 11  2  3
 10 14  1  0
 11 15  1  0
 11 16  1  0
M  RAD  1   9   2
M  END
>  <reaction>  (15) 
rxn_1243

>  <mol_properties>  (15) 
{"1": {"label": "*4", "atom_type": "Ct"}, "2": {"label": "*3", "atom_type": "Cs"}, "4": {"label": "*2", "atom_type": "H0"}, "7": {"label": "*0", "atom_type": "S2s"}, "8": {"label": "*1", "atom_type": "Cs"}}

>  <type>  (15) 
unop_11

>  <geom_source>  (15) 
Heuristics

$$$$

     RDKit          3D

 16 14  0  0  0  0  0  0  0  0999 V2000
   -0.4585   -1.9782   -2.7324 C   0  0  0  0  0  0  0  0  0  0  0  0
   -0.4585   -1.9782   -1.5354 C   0  0  0  0  0  0  0  0  0  0  0  0
   -0.4585   -1.9782   -0.0799 C   0  0  0  0  0  0  0  0  0  0  0  0
   -0.4585   -1.9782   -3.7957 H   0  0  0  0  0  0  0  0  0  0  0  0
   -0.3471   -0.7587    0.3825 H   0  0  0  0  0  0  0  0  0  0  0  0
    0.3752   -2.5668    0.3054 H   0  0  0  0  0  0  0  0  0  0  0  0
   -1.3851   -2.4059    0.3054 H   0  0  0  0  0  0  0  0  0  0  0  0
   -0.1411    1.4951   -0.6534 S   0  0  0  0  0  0  0  0  0  0  0  0
   -0.2355    0.4621    0.8454 C   0  0  0  0  0  3  0  0  0  0  0  0
    0.9724    0.5909    1.7114 C   0  0  0  0  0  0  0  0  0  0  0  0
    0.9449    1.0324    2.9595 C   0  0  0  0  0  0  0  0  0  0  0  0
    0.0121    2.6643   -0.0184 H   0  0  0  0  0  0  0  0  0  0  0  0
   -1.1456    0.6943    1.3976 H   0  0  0  0  0  0  0  0  0  0  0  0
    1.9167    0.3138    1.2528 H   0  0  0  0  0  0  0  0  0  0  0  0
    0.0157    1.3253    3.4366 H   0  0  0  0  0  0  0  0  0  0  0  0
    1.8487    1.1149    3.5493 H   0  0  0  0  0  0  0  0  0  0  0  0
  1  2  3  0
  1  4  1  0
  2  3  1  0
  3  5  1  0
  3  6  1  0
  3  7  1  0
  8  9  1  0
  8 12  1  0
  9 10  1  0
  9 13  1  0
 10 11  2  3
 10 14  1  0
 11 15  1  0
 11 16  1  0
M  RAD  1   9   2
M  END
>  <reaction>  (16) 
rxn_1243

>  <mol_properties>  (16) 
{"1": {"label": "*4", "atom_type": "Ct"}, "2": {"label": "*3", "atom_type": "Cs"}, "4": {"label": "*2", "atom_type": "H0"}, "7": {"label": "*0", "atom_type": "S2s"}, "8": {"label": "*1", "atom_type": "Cs"}}

>  <type>  (16) 
unop_12

>  <geom_source>  (16) 
Heuristics

$$$$

     RDKit          3D

 16 14  0  0  0  0  0  0  0  0999 V2000
   -1.3917    2.1311    0.3932 S   0  0  0  0  0  0  0  0  0  0  0  0
   -0.7436    0.4367    0.2544 C   0  0  0  0  0  3  0  0  0  0  0  0
   -1.8163   -0.5063   -0.2037 C   0  0  0  0  0  0  0  0  0  0  0  0
   -1.5486   -1.7986   -0.4008 C   0  0  0  0  0  0  0  0  0  0  0  0
    1.5407    0.7609   -1.0021 C   0  0  0  0  0  0  0  0  0  0  0  0
    2.2697    0.1216    0.0936 C   0  0  0  0  0  0  0  0  0  0  0  0
    2.8702   -0.4052    0.9963 C   0  0  0  0  0  0  0  0  0  0  0  0
   -0.3543    0.1143    1.2436 H   0  0  0  0  0  0  0  0  0  0  0  0
    0.2958    0.4303   -0.6634 H   0  0  0  0  0  0  0  0  0  0  0  0
   -2.8241   -0.1432   -0.3851 H   0  0  0  0  0  0  0  0  0  0  0  0
   -0.5514   -2.1943   -0.2317 H   0  0  0  0  0  0  0  0  0  0  0  0
   -2.3321   -2.4710   -0.7348 H   0  0  0  0  0  0  0  0  0  0  0  0
    1.2513    1.7896   -0.7039 H   0  0  0  0  0  0  0  0  0  0  0  0
    2.1884    0.8051   -1.9018 H   0  0  0  0  0  0  0  0  0  0  0  0
   -2.2516    1.7968    1.4574 H   0  0  0  0  0  0  0  0  0  0  0  0
    3.3974   -0.8677    1.7889 H   0  0  0  0  0  0  0  0  0  0  0  0
  1  2  1  0
  1 15  1  0
  2  3  1  0
  2  8  1  0
  3  4  2  3
  3 10  1  0
  4 11  1  0
  4 12  1  0
  5  6  1  0
  5  9  1  0
  5 13  1  0
  5 14  1  0
  6  7  3  0
  7 16  1  0
M  RAD  1   2   2
M  END
>  <reaction>  (17) 
rxn_1243

>  <mol_properties>  (17) 
{"1": {"label": "*4", "atom_type": "Ct"}, "2": {"label": "*3", "atom_type": "Cs"}, "4": {"label": "*2", "atom_type": "H0"}, "7": {"label": "*0", "atom_type": "S2s"}, "8": {"label": "*1", "atom_type": "Cs"}}

>  <type>  (17) 
unop_13

>  <geom_source>  (17) 
AutoTST

$$$$
