
     RDKit          3D

 14 13  0  0  0  0  0  0  0  0999 V2000
   -0.7647   -1.2352   -0.0349 C   0  0  0  0  0  0  0  0  0  0  0  0
    0.0570   -0.0126    0.3624 C   0  0  0  0  0  0  0  0  0  0  0  0
    1.4161   -0.0194   -0.3307 C   0  0  0  0  0  0  0  0  0  0  0  0
   -0.7022    1.2765    0.0629 C   0  0  0  0  0  0  0  0  0  0  0  0
   -0.2387   -2.1618    0.2040 H   0  0  0  0  0  0  0  0  0  0  0  0
   -0.9624   -1.2316   -1.1108 H   0  0  0  0  0  0  0  0  0  0  0  0
   -1.7273   -1.2511    0.4805 H   0  0  0  0  0  0  0  0  0  0  0  0
    0.2295   -0.0590    1.4432 H   0  0  0  0  0  0  0  0  0  0  0  0
    1.2933    0.0260   -1.4168 H   0  0  0  0  0  0  0  0  0  0  0  0
    2.0206    0.8381   -0.0278 H   0  0  0  0  0  0  0  0  0  0  0  0
    1.9767   -0.9269   -0.0966 H   0  0  0  0  0  0  0  0  0  0  0  0
   -1.6638    1.3002    0.5800 H   0  0  0  0  0  0  0  0  0  0  0  0
   -0.8979    1.3663   -1.0096 H   0  0  0  0  0  0  0  0  0  0  0  0
   -0.1312    2.1545    0.3720 H   0  0  0  0  0  0  0  0  0  0  0  0
  1  2  1  0
  1  5  1  0
  1  6  1  0
  1  7  1  0
  2  3  1  0
  2  4  1  0
  2  8  1  0
  3  9  1  0
  3 10  1  0
  3 11  1  0
  4 12  1  0
  4 13  1  0
  4 14  1  0
M  END
>  <reaction>  (1) 
rxn_337

>  <mol_properties>  (1) 
{"1": {"label": "donator", "atom_type": "Cs"}, "7": {"label": "d_hydrogen", "atom_type": "H0"}}

>  <type>  (1) 
r1h

$$$$

     RDKit          3D

  5  4  0  0  0  0  0  0  0  0999 V2000
    0.0397    0.7134    0.0000 C   0  0  0  0  0  3  0  0  0  0  0  0
    0.0458   -0.5870    0.0000 C   0  0  0  0  0  0  0  0  0  0  0  0
   -0.6871    1.5118    0.0000 H   0  0  0  0  0  0  0  0  0  0  0  0
   -0.8806   -1.1637    0.0000 H   0  0  0  0  0  0  0  0  0  0  0  0
    0.9690   -1.1600    0.0000 H   0  0  0  0  0  0  0  0  0  0  0  0
  1  2  2  3
  1  3  1  0
  2  4  1  0
  2  5  1  0
M  RAD  1   1   2
M  END
>  <reaction>  (2) 
rxn_337

>  <mol_properties>  (2) 
{"0": {"label": "acceptor", "atom_type": "Cd"}}

>  <type>  (2) 
r2

$$$$

     RDKit          3D

  6  5  0  0  0  0  0  0  0  0999 V2000
    0.6594    0.0438   -0.0050 C   0  0  0  0  0  0  0  0  0  0  0  0
   -0.6594   -0.0438    0.0050 C   0  0  0  0  0  0  0  0  0  0  0  0
    1.1706    0.8681   -0.4881 H   0  0  0  0  0  0  0  0  0  0  0  0
    1.2824   -0.7051    0.4696 H   0  0  0  0  0  0  0  0  0  0  0  0
   -1.2824    0.7051   -0.4696 H   0  0  0  0  0  0  0  0  0  0  0  0
   -1.1706   -0.8681    0.4881 H   0  0  0  0  0  0  0  0  0  0  0  0
  1  2  2  3
  1  3  1  0
  1  4  1  0
  2  5  1  0
  2  6  1  0
M  END
>  <reaction>  (3) 
rxn_337

>  <mol_properties>  (3) 
{"0": {"label": "acceptor", "atom_type": "Cd"}, "5": {"label": "a_hydrogen", "atom_type": "H0"}}

>  <type>  (3) 
r2h

$$$$

     RDKit          3D

 19 17  0  0  0  0  0  0  0  0999 V2000
    1.5238   -1.0464    0.6266 C   0  0  0  0  0  3  0  0  0  0  0  0
    2.3040   -0.2670    1.3377 C   0  0  0  0  0  0  0  0  0  0  0  0
    1.6647   -2.0935    0.3836 H   0  0  0  0  0  0  0  0  0  0  0  0
    3.2312   -0.6250    1.7813 H   0  0  0  0  0  0  0  0  0  0  0  0
    2.0570    0.7756    1.5157 H   0  0  0  0  0  0  0  0  0  0  0  0
   -0.6197    0.0631   -1.8385 C   0  0  0  0  0  0  0  0  0  0  0  0
   -0.7012    0.1575   -0.3301 C   0  0  0  0  0  0  0  0  0  0  0  0
   -0.5738    1.5736    0.1891 C   0  0  0  0  0  0  0  0  0  0  0  0
   -1.8765   -0.5928    0.2590 C   0  0  0  0  0  0  0  0  0  0  0  0
    0.2915    0.5322   -2.2149 H   0  0  0  0  0  0  0  0  0  0  0  0
   -1.4730    0.5686   -2.3046 H   0  0  0  0  0  0  0  0  0  0  0  0
   -0.6289   -0.9767   -2.1718 H   0  0  0  0  0  0  0  0  0  0  0  0
    0.3075   -0.4341    0.0893 H   0  0  0  0  0  0  0  0  0  0  0  0
   -1.4270    2.1819   -0.1319 H   0  0  0  0  0  0  0  0  0  0  0  0
   -0.5456    1.5937    1.2806 H   0  0  0  0  0  0  0  0  0  0  0  0
    0.3332    2.0524   -0.1862 H   0  0  0  0  0  0  0  0  0  0  0  0
   -1.8878   -1.6337   -0.0706 H   0  0  0  0  0  0  0  0  0  0  0  0
   -2.8226   -0.1357   -0.0521 H   0  0  0  0  0  0  0  0  0  0  0  0
   -1.8445   -0.5825    1.3503 H   0  0  0  0  0  0  0  0  0  0  0  0
  1  2  2  3
  1  3  1  0
  2  4  1  0
  2  5  1  0
  6  7  1  0
  6 10  1  0
  6 11  1  0
  6 12  1  0
  7  8  1  0
  7  9  1  0
  7 13  1  0
  8 14  1  0
  8 15  1  0
  8 16  1  0
  9 17  1  0
  9 18  1  0
  9 19  1  0
M  RAD  1   1   2
M  END
>  <reaction>  (4) 
rxn_337

>  <mol_properties>  (4) 
{"0": {"label": "*3", "atom_type": "Cd"}, "1": {"label": "*4", "atom_type": "Cd"}, "5": {"label": "*0", "atom_type": "Cs"}, "6": {"label": "*1", "atom_type": "Cs"}, "12": {"label": "*2", "atom_type": "H0"}}

>  <type>  (4) 
ts

$$$$

     RDKit          3D

 19 17  0  0  0  0  0  0  0  0999 V2000
    1.5539   -1.0076    0.4915 C   0  0  0  0  0  0  0  0  0  0  0  0
    2.4416   -0.3764    1.2402 C   0  0  0  0  0  0  0  0  0  0  0  0
    1.2302   -2.0157    0.7217 H   0  0  0  0  0  0  0  0  0  0  0  0
    2.8814   -0.8418    2.1144 H   0  0  0  0  0  0  0  0  0  0  0  0
    2.7653    0.6318    1.0100 H   0  0  0  0  0  0  0  0  0  0  0  0
   -0.6416    0.1629   -1.8391 C   0  0  0  0  0  0  0  0  0  0  0  0
   -0.6416    0.1629   -0.3133 C   0  0  0  0  0  3  0  0  0  0  0  0
   -0.6416    1.5875    0.2327 C   0  0  0  0  0  0  0  0  0  0  0  0
   -1.8244   -0.6312    0.2327 C   0  0  0  0  0  0  0  0  0  0  0  0
    0.2192    0.7051   -2.2361 H   0  0  0  0  0  0  0  0  0  0  0  0
   -1.5455    0.6449   -2.2229 H   0  0  0  0  0  0  0  0  0  0  0  0
   -0.6122   -0.8540   -2.2361 H   0  0  0  0  0  0  0  0  0  0  0  0
    0.4621   -0.4255    0.0913 H   0  0  0  0  0  0  0  0  0  0  0  0
   -1.5456    2.1183   -0.0799 H   0  0  0  0  0  0  0  0  0  0  0  0
   -0.6120    1.5944    1.3243 H   0  0  0  0  0  0  0  0  0  0  0  0
    0.2191    2.1524   -0.1316 H   0  0  0  0  0  0  0  0  0  0  0  0
   -1.8136   -1.6606   -0.1315 H   0  0  0  0  0  0  0  0  0  0  0  0
   -2.7690   -0.1766   -0.0800 H   0  0  0  0  0  0  0  0  0  0  0  0
   -1.8136   -0.6594    1.3243 H   0  0  0  0  0  0  0  0  0  0  0  0
  1  2  2  3
  1  3  1  0
  1 13  1  0
  2  4  1  0
  2  5  1  0
  6  7  1  0
  6 10  1  0
  6 11  1  0
  6 12  1  0
  7  8  1  0
  7  9  1  0
  8 14  1  0
  8 15  1  0
  8 16  1  0
  9 17  1  0
  9 18  1  0
  9 19  1  0
M  RAD  1   7   2
M  END
>  <reaction>  (5) 
rxn_337

>  <mol_properties>  (5) 
{"0": {"label": "*3", "atom_type": "Cd"}, "1": {"label": "*4", "atom_type": "Cd"}, "5": {"label": "*0", "atom_type": "Cs"}, "6": {"label": "*1", "atom_type": "Cs"}, "12": {"label": "*2", "atom_type": "H0"}}

>  <type>  (5) 
unop_1

>  <geom_source>  (5) 
Heuristics

$$$$

     RDKit          3D

 19 17  0  0  0  0  0  0  0  0999 V2000
    1.5108   -0.9139    0.7375 C   0  0  0  0  0  0  0  0  0  0  0  0
    2.6223   -0.8688    0.0237 C   0  0  0  0  0  0  0  0  0  0  0  0
    1.5205   -1.1783    1.7884 H   0  0  0  0  0  0  0  0  0  0  0  0
    3.5879   -1.0944    0.4605 H   0  0  0  0  0  0  0  0  0  0  0  0
    2.6126   -0.6044   -1.0271 H   0  0  0  0  0  0  0  0  0  0  0  0
   -0.6846    0.2566   -1.5930 C   0  0  0  0  0  0  0  0  0  0  0  0
   -0.6846    0.2566   -0.0673 C   0  0  0  0  0  3  0  0  0  0  0  0
   -0.6846    1.6812    0.4788 C   0  0  0  0  0  0  0  0  0  0  0  0
   -1.8675   -0.5375    0.4788 C   0  0  0  0  0  0  0  0  0  0  0  0
    0.1761    0.7988   -1.9901 H   0  0  0  0  0  0  0  0  0  0  0  0
   -1.5886    0.7386   -1.9768 H   0  0  0  0  0  0  0  0  0  0  0  0
   -0.6552   -0.7603   -1.9900 H   0  0  0  0  0  0  0  0  0  0  0  0
    0.4190   -0.3318    0.3373 H   0  0  0  0  0  0  0  0  0  0  0  0
   -1.5886    2.2120    0.1662 H   0  0  0  0  0  0  0  0  0  0  0  0
   -0.6551    1.6880    1.5704 H   0  0  0  0  0  0  0  0  0  0  0  0
    0.1760    2.2461    0.1145 H   0  0  0  0  0  0  0  0  0  0  0  0
   -1.8566   -1.5669    0.1145 H   0  0  0  0  0  0  0  0  0  0  0  0
   -2.8121   -0.0829    0.1661 H   0  0  0  0  0  0  0  0  0  0  0  0
   -1.8567   -0.5657    1.5704 H   0  0  0  0  0  0  0  0  0  0  0  0
  1  2  2  3
  1  3  1  0
  1 13  1  0
  2  4  1  0
  2  5  1  0
  6  7  1  0
  6 10  1  0
  6 11  1  0
  6 12  1  0
  7  8  1  0
  7  9  1  0
  8 14  1  0
  8 15  1  0
  8 16  1  0
  9 17  1  0
  9 18  1  0
  9 19  1  0
M  RAD  1   7   2
M  END
>  <reaction>  (6) 
rxn_337

>  <mol_properties>  (6) 
{"0": {"label": "*3", "atom_type": "Cd"}, "1": {"label": "*4", "atom_type": "Cd"}, "5": {"label": "*0", "atom_type": "Cs"}, "6": {"label": "*1", "atom_type": "Cs"}, "12": {"label": "*2", "atom_type": "H0"}}

>  <type>  (6) 
unop_2

>  <geom_source>  (6) 
Heuristics

$$$$

     RDKit          3D

 19 17  0  0  0  0  0  0  0  0999 V2000
    1.6039   -0.9542    0.4298 C   0  0  0  0  0  0  0  0  0  0  0  0
    2.1860   -0.6269    1.5704 C   0  0  0  0  0  0  0  0  0  0  0  0
    1.5724   -1.9799    0.0815 H   0  0  0  0  0  0  0  0  0  0  0  0
    2.6551   -1.3711    2.2032 H   0  0  0  0  0  0  0  0  0  0  0  0
    2.2174    0.3987    1.9187 H   0  0  0  0  0  0  0  0  0  0  0  0
   -0.5916    0.2162   -1.9007 C   0  0  0  0  0  0  0  0  0  0  0  0
   -0.5916    0.2162   -0.3750 C   0  0  0  0  0  3  0  0  0  0  0  0
   -0.5916    1.6409    0.1710 C   0  0  0  0  0  0  0  0  0  0  0  0
   -1.7744   -0.5778    0.1710 C   0  0  0  0  0  0  0  0  0  0  0  0
    0.2692    0.7584   -2.2978 H   0  0  0  0  0  0  0  0  0  0  0  0
   -1.4955    0.6982   -2.2845 H   0  0  0  0  0  0  0  0  0  0  0  0
   -0.5622   -0.8006   -2.2978 H   0  0  0  0  0  0  0  0  0  0  0  0
    0.5121   -0.3722    0.0296 H   0  0  0  0  0  0  0  0  0  0  0  0
   -1.4956    2.1717   -0.1416 H   0  0  0  0  0  0  0  0  0  0  0  0
   -0.5620    1.6477    1.2626 H   0  0  0  0  0  0  0  0  0  0  0  0
    0.2691    2.2057   -0.1933 H   0  0  0  0  0  0  0  0  0  0  0  0
   -1.7636   -1.6073   -0.1932 H   0  0  0  0  0  0  0  0  0  0  0  0
   -2.7190   -0.1232   -0.1417 H   0  0  0  0  0  0  0  0  0  0  0  0
   -1.7636   -0.6061    1.2626 H   0  0  0  0  0  0  0  0  0  0  0  0
  1  2  2  3
  1  3  1  0
  1 13  1  0
  2  4  1  0
  2  5  1  0
  6  7  1  0
  6 10  1  0
  6 11  1  0
  6 12  1  0
  7  8  1  0
  7  9  1  0
  8 14  1  0
  8 15  1  0
  8 16  1  0
  9 17  1  0
  9 18  1  0
  9 19  1  0
M  RAD  1   7   2
M  END
>  <reaction>  (7) 
rxn_337

>  <mol_properties>  (7) 
{"0": {"label": "*3", "atom_type": "Cd"}, "1": {"label": "*4", "atom_type": "Cd"}, "5": {"label": "*0", "atom_type": "Cs"}, "6": {"label": "*1", "atom_type": "Cs"}, "12": {"label": "*2", "atom_type": "H0"}}

>  <type>  (7) 
unop_3

>  <geom_source>  (7) 
Heuristics

$$$$

     RDKit          3D

 19 17  0  0  0  0  0  0  0  0999 V2000
    1.6532   -0.6953    0.6703 C   0  0  0  0  0  0  0  0  0  0  0  0
    1.9296   -1.9470    0.3483 C   0  0  0  0  0  0  0  0  0  0  0  0
    1.9708   -0.2677    1.6139 H   0  0  0  0  0  0  0  0  0  0  0  0
    2.4850   -2.5961    1.0151 H   0  0  0  0  0  0  0  0  0  0  0  0
    1.6120   -2.3746   -0.5954 H   0  0  0  0  0  0  0  0  0  0  0  0
   -0.5423    0.4752   -1.6603 C   0  0  0  0  0  0  0  0  0  0  0  0
   -0.5423    0.4752   -0.1346 C   0  0  0  0  0  3  0  0  0  0  0  0
   -0.5423    1.8998    0.4115 C   0  0  0  0  0  0  0  0  0  0  0  0
   -1.7251   -0.3189    0.4115 C   0  0  0  0  0  0  0  0  0  0  0  0
    0.3185    1.0174   -2.0573 H   0  0  0  0  0  0  0  0  0  0  0  0
   -1.4462    0.9572   -2.0441 H   0  0  0  0  0  0  0  0  0  0  0  0
   -0.5128   -0.5417   -2.0573 H   0  0  0  0  0  0  0  0  0  0  0  0
    0.5614   -0.1132    0.2700 H   0  0  0  0  0  0  0  0  0  0  0  0
   -1.4463    2.4306    0.0989 H   0  0  0  0  0  0  0  0  0  0  0  0
   -0.5127    1.9066    1.5031 H   0  0  0  0  0  0  0  0  0  0  0  0
    0.3184    2.4647    0.0472 H   0  0  0  0  0  0  0  0  0  0  0  0
   -1.7142   -1.3484    0.0473 H   0  0  0  0  0  0  0  0  0  0  0  0
   -2.6697    0.1357    0.0988 H   0  0  0  0  0  0  0  0  0  0  0  0
   -1.7143   -0.3472    1.5031 H   0  0  0  0  0  0  0  0  0  0  0  0
  1  2  2  3
  1  3  1  0
  1 13  1  0
  2  4  1  0
  2  5  1  0
  6  7  1  0
  6 10  1  0
  6 11  1  0
  6 12  1  0
  7  8  1  0
  7  9  1  0
  8 14  1  0
  8 15  1  0
  8 16  1  0
  9 17  1  0
  9 18  1  0
  9 19  1  0
M  RAD  1   7   2
M  END
>  <reaction>  (8) 
rxn_337

>  <mol_properties>  (8) 
{"0": {"label": "*3", "atom_type": "Cd"}, "1": {"label": "*4", "atom_type": "Cd"}, "5": {"label": "*0", "atom_type": "Cs"}, "6": {"label": "*1", "atom_type": "Cs"}, "12": {"label": "*2", "atom_type": "H0"}}

>  <type>  (8) 
unop_4

>  <geom_source>  (8) 
Heuristics

$$$$

     RDKit          3D

 19 17  0  0  0  0  0  0  0  0999 V2000
    1.6490   -0.8791    0.4097 C   0  0  0  0  0  0  0  0  0  0  0  0
    1.9254   -1.0265    1.6938 C   0  0  0  0  0  0  0  0  0  0  0  0
    2.3210   -1.2374   -0.3612 H   0  0  0  0  0  0  0  0  0  0  0  0
    2.8352   -1.5115    2.0273 H   0  0  0  0  0  0  0  0  0  0  0  0
    1.2534   -0.6682    2.4646 H   0  0  0  0  0  0  0  0  0  0  0  0
   -0.5465    0.2913   -1.9208 C   0  0  0  0  0  0  0  0  0  0  0  0
   -0.5465    0.2913   -0.3951 C   0  0  0  0  0  3  0  0  0  0  0  0
   -0.5465    1.7160    0.1509 C   0  0  0  0  0  0  0  0  0  0  0  0
   -1.7293   -0.5027    0.1509 C   0  0  0  0  0  0  0  0  0  0  0  0
    0.3143    0.8335   -2.3179 H   0  0  0  0  0  0  0  0  0  0  0  0
   -1.4504    0.7733   -2.3046 H   0  0  0  0  0  0  0  0  0  0  0  0
   -0.5170   -0.7255   -2.3179 H   0  0  0  0  0  0  0  0  0  0  0  0
    0.5572   -0.2971    0.0095 H   0  0  0  0  0  0  0  0  0  0  0  0
   -1.4505    2.2468   -0.1617 H   0  0  0  0  0  0  0  0  0  0  0  0
   -0.5169    1.7228    1.2425 H   0  0  0  0  0  0  0  0  0  0  0  0
    0.3142    2.2808   -0.2134 H   0  0  0  0  0  0  0  0  0  0  0  0
   -1.7184   -1.5322   -0.2133 H   0  0  0  0  0  0  0  0  0  0  0  0
   -2.6739   -0.0481   -0.1618 H   0  0  0  0  0  0  0  0  0  0  0  0
   -1.7185   -0.5310    1.2425 H   0  0  0  0  0  0  0  0  0  0  0  0
  1  2  2  3
  1  3  1  0
  1 13  1  0
  2  4  1  0
  2  5  1  0
  6  7  1  0
  6 10  1  0
  6 11  1  0
  6 12  1  0
  7  8  1  0
  7  9  1  0
  8 14  1  0
  8 15  1  0
  8 16  1  0
  9 17  1  0
  9 18  1  0
  9 19  1  0
M  RAD  1   7   2
M  END
>  <reaction>  (9) 
rxn_337

>  <mol_properties>  (9) 
{"0": {"label": "*3", "atom_type": "Cd"}, "1": {"label": "*4", "atom_type": "Cd"}, "5": {"label": "*0", "atom_type": "Cs"}, "6": {"label": "*1", "atom_type": "Cs"}, "12": {"label": "*2", "atom_type": "H0"}}

>  <type>  (9) 
unop_5

>  <geom_source>  (9) 
Heuristics

$$$$

     RDKit          3D

 19 17  0  0  0  0  0  0  0  0999 V2000
    1.6905   -0.6896    0.5798 C   0  0  0  0  0  0  0  0  0  0  0  0
    1.7432   -1.9929    0.7932 C   0  0  0  0  0  0  0  0  0  0  0  0
    2.1583    0.0164    1.2559 H   0  0  0  0  0  0  0  0  0  0  0  0
    2.2563   -2.4078    1.6528 H   0  0  0  0  0  0  0  0  0  0  0  0
    1.2755   -2.6989    0.1172 H   0  0  0  0  0  0  0  0  0  0  0  0
   -0.5049    0.4809   -1.7507 C   0  0  0  0  0  0  0  0  0  0  0  0
   -0.5049    0.4809   -0.2250 C   0  0  0  0  0  3  0  0  0  0  0  0
   -0.5049    1.9055    0.3211 C   0  0  0  0  0  0  0  0  0  0  0  0
   -1.6877   -0.3132    0.3210 C   0  0  0  0  0  0  0  0  0  0  0  0
    0.3559    1.0231   -2.1478 H   0  0  0  0  0  0  0  0  0  0  0  0
   -1.4088    0.9629   -2.1345 H   0  0  0  0  0  0  0  0  0  0  0  0
   -0.4755   -0.5360   -2.1477 H   0  0  0  0  0  0  0  0  0  0  0  0
    0.5988   -0.1075    0.1796 H   0  0  0  0  0  0  0  0  0  0  0  0
   -1.4089    2.4363    0.0084 H   0  0  0  0  0  0  0  0  0  0  0  0
   -0.4754    1.9123    1.4127 H   0  0  0  0  0  0  0  0  0  0  0  0
    0.3558    2.4704   -0.0433 H   0  0  0  0  0  0  0  0  0  0  0  0
   -1.6769   -1.3426   -0.0432 H   0  0  0  0  0  0  0  0  0  0  0  0
   -2.6323    0.1414    0.0083 H   0  0  0  0  0  0  0  0  0  0  0  0
   -1.6770   -0.3414    1.4126 H   0  0  0  0  0  0  0  0  0  0  0  0
  1  2  2  3
  1  3  1  0
  1 13  1  0
  2  4  1  0
  2  5  1  0
  6  7  1  0
  6 10  1  0
  6 11  1  0
  6 12  1  0
  7  8  1  0
  7  9  1  0
  8 14  1  0
  8 15  1  0
  8 16  1  0
  9 17  1  0
  9 18  1  0
  9 19  1  0
M  RAD  1   7   2
M  END
>  <reaction>  (10) 
rxn_337

>  <mol_properties>  (10) 
{"0": {"label": "*3", "atom_type": "Cd"}, "1": {"label": "*4", "atom_type": "Cd"}, "5": {"label": "*0", "atom_type": "Cs"}, "6": {"label": "*1", "atom_type": "Cs"}, "12": {"label": "*2", "atom_type": "H0"}}

>  <type>  (10) 
unop_6

>  <geom_source>  (10) 
Heuristics

$$$$

     RDKit          3D

 19 17  0  0  0  0  0  0  0  0999 V2000
    1.7026   -0.7286    0.4915 C   0  0  0  0  0  0  0  0  0  0  0  0
    1.6734   -1.8174    1.2402 C   0  0  0  0  0  0  0  0  0  0  0  0
    2.3593    0.1021    0.7217 H   0  0  0  0  0  0  0  0  0  0  0  0
    2.3049   -1.9231    2.1144 H   0  0  0  0  0  0  0  0  0  0  0  0
    1.0168   -2.6481    1.0100 H   0  0  0  0  0  0  0  0  0  0  0  0
   -0.4928    0.4419   -1.8391 C   0  0  0  0  0  0  0  0  0  0  0  0
   -0.4928    0.4419   -0.3133 C   0  0  0  0  0  3  0  0  0  0  0  0
   -0.4928    1.8665    0.2327 C   0  0  0  0  0  0  0  0  0  0  0  0
   -1.6756   -0.3522    0.2327 C   0  0  0  0  0  0  0  0  0  0  0  0
    0.3679    0.9841   -2.2361 H   0  0  0  0  0  0  0  0  0  0  0  0
   -1.3968    0.9239   -2.2229 H   0  0  0  0  0  0  0  0  0  0  0  0
   -0.4634   -0.5750   -2.2361 H   0  0  0  0  0  0  0  0  0  0  0  0
    0.6109   -0.1465    0.0913 H   0  0  0  0  0  0  0  0  0  0  0  0
   -1.3968    2.3974   -0.0799 H   0  0  0  0  0  0  0  0  0  0  0  0
   -0.4633    1.8734    1.3243 H   0  0  0  0  0  0  0  0  0  0  0  0
    0.3678    2.4314   -0.1316 H   0  0  0  0  0  0  0  0  0  0  0  0
   -1.6648   -1.3816   -0.1315 H   0  0  0  0  0  0  0  0  0  0  0  0
   -2.6202    0.1024   -0.0800 H   0  0  0  0  0  0  0  0  0  0  0  0
   -1.6649   -0.3804    1.3243 H   0  0  0  0  0  0  0  0  0  0  0  0
  1  2  2  3
  1  3  1  0
  1 13  1  0
  2  4  1  0
  2  5  1  0
  6  7  1  0
  6 10  1  0
  6 11  1  0
  6 12  1  0
  7  8  1  0
  7  9  1  0
  8 14  1  0
  8 15  1  0
  8 16  1  0
  9 17  1  0
  9 18  1  0
  9 19  1  0
M  RAD  1   7   2
M  END
>  <reaction>  (11) 
rxn_337

>  <mol_properties>  (11) 
{"0": {"label": "*3", "atom_type": "Cd"}, "1": {"label": "*4", "atom_type": "Cd"}, "5": {"label": "*0", "atom_type": "Cs"}, "6": {"label": "*1", "atom_type": "Cs"}, "12": {"label": "*2", "atom_type": "H0"}}

>  <type>  (11) 
unop_7

>  <geom_source>  (11) 
Heuristics

$$$$

     RDKit          3D

 19 17  0  0  0  0  0  0  0  0999 V2000
    1.5148   -1.0193    0.5798 C   0  0  0  0  0  0  0  0  0  0  0  0
    2.6262   -0.3366    0.7932 C   0  0  0  0  0  0  0  0  0  0  0  0
    1.1893   -1.8011    1.2559 H   0  0  0  0  0  0  0  0  0  0  0  0
    3.2567   -0.5312    1.6528 H   0  0  0  0  0  0  0  0  0  0  0  0
    2.9517    0.4453    0.1172 H   0  0  0  0  0  0  0  0  0  0  0  0
   -0.6807    0.1512   -1.7507 C   0  0  0  0  0  0  0  0  0  0  0  0
   -0.6807    0.1512   -0.2250 C   0  0  0  0  0  3  0  0  0  0  0  0
   -0.6807    1.5758    0.3211 C   0  0  0  0  0  0  0  0  0  0  0  0
   -1.8635   -0.6429    0.3210 C   0  0  0  0  0  0  0  0  0  0  0  0
    0.1801    0.6934   -2.1478 H   0  0  0  0  0  0  0  0  0  0  0  0
   -1.5846    0.6332   -2.1345 H   0  0  0  0  0  0  0  0  0  0  0  0
   -0.6513   -0.8657   -2.1477 H   0  0  0  0  0  0  0  0  0  0  0  0
    0.4230   -0.4372    0.1796 H   0  0  0  0  0  0  0  0  0  0  0  0
   -1.5847    2.1066    0.0084 H   0  0  0  0  0  0  0  0  0  0  0  0
   -0.6511    1.5827    1.4127 H   0  0  0  0  0  0  0  0  0  0  0  0
    0.1800    2.1407   -0.0433 H   0  0  0  0  0  0  0  0  0  0  0  0
   -1.8527   -1.6723   -0.0432 H   0  0  0  0  0  0  0  0  0  0  0  0
   -2.8081   -0.1883    0.0083 H   0  0  0  0  0  0  0  0  0  0  0  0
   -1.8527   -0.6711    1.4126 H   0  0  0  0  0  0  0  0  0  0  0  0
  1  2  2  3
  1  3  1  0
  1 13  1  0
  2  4  1  0
  2  5  1  0
  6  7  1  0
  6 10  1  0
  6 11  1  0
  6 12  1  0
  7  8  1  0
  7  9  1  0
  8 14  1  0
  8 15  1  0
  8 16  1  0
  9 17  1  0
  9 18  1  0
  9 19  1  0
M  RAD  1   7   2
M  END
>  <reaction>  (12) 
rxn_337

>  <mol_properties>  (12) 
{"0": {"label": "*3", "atom_type": "Cd"}, "1": {"label": "*4", "atom_type": "Cd"}, "5": {"label": "*0", "atom_type": "Cs"}, "6": {"label": "*1", "atom_type": "Cs"}, "12": {"label": "*2", "atom_type": "H0"}}

>  <type>  (12) 
unop_8

>  <geom_source>  (12) 
Heuristics

$$$$

     RDKit          3D

 19 17  0  0  0  0  0  0  0  0999 V2000
    1.6008   -0.7450    0.7375 C   0  0  0  0  0  0  0  0  0  0  0  0
    2.1829   -1.6929    0.0237 C   0  0  0  0  0  0  0  0  0  0  0  0
    1.8258   -0.6057    1.7884 H   0  0  0  0  0  0  0  0  0  0  0  0
    2.9084   -2.3689    0.4605 H   0  0  0  0  0  0  0  0  0  0  0  0
    1.9580   -1.8322   -1.0271 H   0  0  0  0  0  0  0  0  0  0  0  0
   -0.5946    0.4254   -1.5930 C   0  0  0  0  0  0  0  0  0  0  0  0
   -0.5946    0.4254   -0.0673 C   0  0  0  0  0  3  0  0  0  0  0  0
   -0.5946    1.8501    0.4788 C   0  0  0  0  0  0  0  0  0  0  0  0
   -1.7774   -0.3686    0.4788 C   0  0  0  0  0  0  0  0  0  0  0  0
    0.2661    0.9676   -1.9901 H   0  0  0  0  0  0  0  0  0  0  0  0
   -1.4985    0.9074   -1.9768 H   0  0  0  0  0  0  0  0  0  0  0  0
   -0.5652   -0.5914   -1.9900 H   0  0  0  0  0  0  0  0  0  0  0  0
    0.5091   -0.1630    0.3373 H   0  0  0  0  0  0  0  0  0  0  0  0
   -1.4986    2.3809    0.1662 H   0  0  0  0  0  0  0  0  0  0  0  0
   -0.5651    1.8569    1.5704 H   0  0  0  0  0  0  0  0  0  0  0  0
    0.2661    2.4149    0.1145 H   0  0  0  0  0  0  0  0  0  0  0  0
   -1.7666   -1.3981    0.1145 H   0  0  0  0  0  0  0  0  0  0  0  0
   -2.7220    0.0860    0.1661 H   0  0  0  0  0  0  0  0  0  0  0  0
   -1.7667   -0.3969    1.5704 H   0  0  0  0  0  0  0  0  0  0  0  0
  1  2  2  3
  1  3  1  0
  1 13  1  0
  2  4  1  0
  2  5  1  0
  6  7  1  0
  6 10  1  0
  6 11  1  0
  6 12  1  0
  7  8  1  0
  7  9  1  0
  8 14  1  0
  8 15  1  0
  8 16  1  0
  9 17  1  0
  9 18  1  0
  9 19  1  0
M  RAD  1   7   2
M  END
>  <reaction>  (13) 
rxn_337

>  <mol_properties>  (13) 
{"0": {"label": "*3", "atom_type": "Cd"}, "1": {"label": "*4", "atom_type": "Cd"}, "5": {"label": "*0", "atom_type": "Cs"}, "6": {"label": "*1", "atom_type": "Cs"}, "12": {"label": "*2", "atom_type": "H0"}}

>  <type>  (13) 
unop_9

>  <geom_source>  (13) 
Heuristics

$$$$

     RDKit          3D

 19 17  0  0  0  0  0  0  0  0999 V2000
    1.4987   -0.9851    0.6703 C   0  0  0  0  0  0  0  0  0  0  0  0
    2.6921   -0.5169    0.3483 C   0  0  0  0  0  0  0  0  0  0  0  0
    1.3207   -1.4871    1.6139 H   0  0  0  0  0  0  0  0  0  0  0  0
    3.5405   -0.6162    1.0151 H   0  0  0  0  0  0  0  0  0  0  0  0
    2.8700   -0.0149   -0.5954 H   0  0  0  0  0  0  0  0  0  0  0  0
   -0.6967    0.1854   -1.6603 C   0  0  0  0  0  0  0  0  0  0  0  0
   -0.6967    0.1854   -0.1346 C   0  0  0  0  0  3  0  0  0  0  0  0
   -0.6967    1.6100    0.4115 C   0  0  0  0  0  0  0  0  0  0  0  0
   -1.8796   -0.6087    0.4115 C   0  0  0  0  0  0  0  0  0  0  0  0
    0.1640    0.7276   -2.0573 H   0  0  0  0  0  0  0  0  0  0  0  0
   -1.6007    0.6674   -2.0441 H   0  0  0  0  0  0  0  0  0  0  0  0
   -0.6673   -0.8315   -2.0573 H   0  0  0  0  0  0  0  0  0  0  0  0
    0.4069   -0.4030    0.2700 H   0  0  0  0  0  0  0  0  0  0  0  0
   -1.6007    2.1408    0.0989 H   0  0  0  0  0  0  0  0  0  0  0  0
   -0.6672    1.6169    1.5031 H   0  0  0  0  0  0  0  0  0  0  0  0
    0.1639    2.1749    0.0472 H   0  0  0  0  0  0  0  0  0  0  0  0
   -1.8687   -1.6381    0.0473 H   0  0  0  0  0  0  0  0  0  0  0  0
   -2.8242   -0.1541    0.0988 H   0  0  0  0  0  0  0  0  0  0  0  0
   -1.8688   -0.6369    1.5031 H   0  0  0  0  0  0  0  0  0  0  0  0
  1  2  2  3
  1  3  1  0
  1 13  1  0
  2  4  1  0
  2  5  1  0
  6  7  1  0
  6 10  1  0
  6 11  1  0
  6 12  1  0
  7  8  1  0
  7  9  1  0
  8 14  1  0
  8 15  1  0
  8 16  1  0
  9 17  1  0
  9 18  1  0
  9 19  1  0
M  RAD  1   7   2
M  END
>  <reaction>  (14) 
rxn_337

>  <mol_properties>  (14) 
{"0": {"label": "*3", "atom_type": "Cd"}, "1": {"label": "*4", "atom_type": "Cd"}, "5": {"label": "*0", "atom_type": "Cs"}, "6": {"label": "*1", "atom_type": "Cs"}, "12": {"label": "*2", "atom_type": "H0"}}

>  <type>  (14) 
unop_10

>  <geom_source>  (14) 
Heuristics

$$$$

     RDKit          3D

 19 17  0  0  0  0  0  0  0  0999 V2000
    1.6862   -0.7998    0.4298 C   0  0  0  0  0  0  0  0  0  0  0  0
    1.7389   -1.4655    1.5704 C   0  0  0  0  0  0  0  0  0  0  0  0
    2.5202   -0.2020    0.0815 H   0  0  0  0  0  0  0  0  0  0  0  0
    2.6182   -1.4403    2.2032 H   0  0  0  0  0  0  0  0  0  0  0  0
    0.9049   -2.0633    1.9187 H   0  0  0  0  0  0  0  0  0  0  0  0
   -0.5092    0.3706   -1.9007 C   0  0  0  0  0  0  0  0  0  0  0  0
   -0.5092    0.3706   -0.3750 C   0  0  0  0  0  3  0  0  0  0  0  0
   -0.5092    1.7953    0.1710 C   0  0  0  0  0  0  0  0  0  0  0  0
   -1.6921   -0.4234    0.1710 C   0  0  0  0  0  0  0  0  0  0  0  0
    0.3515    0.9129   -2.2978 H   0  0  0  0  0  0  0  0  0  0  0  0
   -1.4132    0.8527   -2.2845 H   0  0  0  0  0  0  0  0  0  0  0  0
   -0.4798   -0.6462   -2.2978 H   0  0  0  0  0  0  0  0  0  0  0  0
    0.5944   -0.2177    0.0296 H   0  0  0  0  0  0  0  0  0  0  0  0
   -1.4133    2.3261   -0.1416 H   0  0  0  0  0  0  0  0  0  0  0  0
   -0.4797    1.8021    1.2626 H   0  0  0  0  0  0  0  0  0  0  0  0
    0.3514    2.3602   -0.1933 H   0  0  0  0  0  0  0  0  0  0  0  0
   -1.6812   -1.4529   -0.1932 H   0  0  0  0  0  0  0  0  0  0  0  0
   -2.6367    0.0312   -0.1417 H   0  0  0  0  0  0  0  0  0  0  0  0
   -1.6813   -0.4517    1.2626 H   0  0  0  0  0  0  0  0  0  0  0  0
  1  2  2  3
  1  3  1  0
  1 13  1  0
  2  4  1  0
  2  5  1  0
  6  7  1  0
  6 10  1  0
  6 11  1  0
  6 12  1  0
  7  8  1  0
  7  9  1  0
  8 14  1  0
  8 15  1  0
  8 16  1  0
  9 17  1  0
  9 18  1  0
  9 19  1  0
M  RAD  1   7   2
M  END
>  <reaction>  (15) 
rxn_337

>  <mol_properties>  (15) 
{"0": {"label": "*3", "atom_type": "Cd"}, "1": {"label": "*4", "atom_type": "Cd"}, "5": {"label": "*0", "atom_type": "Cs"}, "6": {"label": "*1", "atom_type": "Cs"}, "12": {"label": "*2", "atom_type": "H0"}}

>  <type>  (15) 
unop_11

>  <geom_source>  (15) 
Heuristics

$$$$

     RDKit          3D

 19 17  0  0  0  0  0  0  0  0999 V2000
    1.5483   -0.8254    0.7624 C   0  0  0  0  0  0  0  0  0  0  0  0
    2.4360   -1.2987   -0.0949 C   0  0  0  0  0  0  0  0  0  0  0  0
    1.6946   -0.9034    1.8332 H   0  0  0  0  0  0  0  0  0  0  0  0
    3.3458   -1.7837    0.2386 H   0  0  0  0  0  0  0  0  0  0  0  0
    2.2897   -1.2207   -1.1658 H   0  0  0  0  0  0  0  0  0  0  0  0
   -0.6471    0.3450   -1.5682 C   0  0  0  0  0  0  0  0  0  0  0  0
   -0.6471    0.3450   -0.0424 C   0  0  0  0  0  3  0  0  0  0  0  0
   -0.6471    1.7696    0.5036 C   0  0  0  0  0  0  0  0  0  0  0  0
   -1.8299   -0.4491    0.5036 C   0  0  0  0  0  0  0  0  0  0  0  0
    0.2136    0.8872   -1.9652 H   0  0  0  0  0  0  0  0  0  0  0  0
   -1.5511    0.8270   -1.9520 H   0  0  0  0  0  0  0  0  0  0  0  0
   -0.6177   -0.6719   -1.9652 H   0  0  0  0  0  0  0  0  0  0  0  0
    0.4566   -0.2434    0.3622 H   0  0  0  0  0  0  0  0  0  0  0  0
   -1.5511    2.3005    0.1910 H   0  0  0  0  0  0  0  0  0  0  0  0
   -0.6176    1.7765    1.5952 H   0  0  0  0  0  0  0  0  0  0  0  0
    0.2135    2.3345    0.1393 H   0  0  0  0  0  0  0  0  0  0  0  0
   -1.8191   -1.4785    0.1394 H   0  0  0  0  0  0  0  0  0  0  0  0
   -2.7746    0.0055    0.1909 H   0  0  0  0  0  0  0  0  0  0  0  0
   -1.8192   -0.4773    1.5952 H   0  0  0  0  0  0  0  0  0  0  0  0
  1  2  2  3
  1  3  1  0
  1 13  1  0
  2  4  1  0
  2  5  1  0
  6  7  1  0
  6 10  1  0
  6 11  1  0
  6 12  1  0
  7  8  1  0
  7  9  1  0
  8 14  1  0
  8 15  1  0
  8 16  1  0
  9 17  1  0
  9 18  1  0
  9 19  1  0
M  RAD  1   7   2
M  END
>  <reaction>  (16) 
rxn_337

>  <mol_properties>  (16) 
{"0": {"label": "*3", "atom_type": "Cd"}, "1": {"label": "*4", "atom_type": "Cd"}, "5": {"label": "*0", "atom_type": "Cs"}, "6": {"label": "*1", "atom_type": "Cs"}, "12": {"label": "*2", "atom_type": "H0"}}

>  <type>  (16) 
unop_12

>  <geom_source>  (16) 
Heuristics

$$$$

     RDKit          3D

 19 17  0  0  0  0  0  0  0  0999 V2000
   -0.4988    0.1307   -0.2438 C   0  0  0  0  0  0  0  0  0  0  0  0
   -1.3469    0.3281   -1.5042 C   0  0  0  0  0  0  0  0  0  0  0  0
   -1.1109    0.8825    0.9424 C   0  0  0  0  0  0  0  0  0  0  0  0
   -0.3504   -1.3594    0.0795 C   0  0  0  0  0  0  0  0  0  0  0  0
    2.5769    0.1071    0.9199 C   0  0  0  0  0  0  0  0  0  0  0  0
    2.0526    0.4911   -0.2403 C   0  0  0  0  0  3  0  0  0  0  0  0
    0.6054    0.5860   -0.4535 H   0  0  0  0  0  0  0  0  0  0  0  0
   -2.3714   -0.0764   -1.3562 H   0  0  0  0  0  0  0  0  0  0  0  0
   -1.4189    1.4089   -1.7502 H   0  0  0  0  0  0  0  0  0  0  0  0
   -0.8761   -0.1911   -2.3660 H   0  0  0  0  0  0  0  0  0  0  0  0
   -0.4702    0.7624    1.8418 H   0  0  0  0  0  0  0  0  0  0  0  0
   -1.1814    1.9667    0.7115 H   0  0  0  0  0  0  0  0  0  0  0  0
   -2.1277    0.4961    1.1705 H   0  0  0  0  0  0  0  0  0  0  0  0
    0.2950   -1.4933    0.9736 H   0  0  0  0  0  0  0  0  0  0  0  0
    0.1266   -1.8890   -0.7725 H   0  0  0  0  0  0  0  0  0  0  0  0
   -1.3423   -1.8191    0.2794 H   0  0  0  0  0  0  0  0  0  0  0  0
    2.7696    0.8409    1.6947 H   0  0  0  0  0  0  0  0  0  0  0  0
    2.8132   -0.9373    1.0962 H   0  0  0  0  0  0  0  0  0  0  0  0
    1.8557   -0.2348   -1.0225 H   0  0  0  0  0  0  0  0  0  0  0  0
  1  2  1  0
  1  3  1  0
  1  4  1  0
  1  7  1  0
  2  8  1  0
  2  9  1  0
  2 10  1  0
  3 11  1  0
  3 12  1  0
  3 13  1  0
  4 14  1  0
  4 15  1  0
  4 16  1  0
  5  6  2  3
  5 17  1  0
  5 18  1  0
  6 19  1  0
M  RAD  1   6   2
M  END
>  <reaction>  (17) 
rxn_337

>  <mol_properties>  (17) 
{"0": {"label": "*3", "atom_type": "Cd"}, "1": {"label": "*4", "atom_type": "Cd"}, "5": {"label": "*0", "atom_type": "Cs"}, "6": {"label": "*1", "atom_type": "Cs"}, "12": {"label": "*2", "atom_type": "H0"}}

>  <type>  (17) 
unop_13

>  <geom_source>  (17) 
AutoTST

$$$$

     RDKit          3D

 19 17  0  0  0  0  0  0  0  0999 V2000
    1.5108   -0.9139    0.7375 C   0  0  0  0  0  0  0  0  0  0  0  0
    2.6223   -0.8688    0.0237 C   0  0  0  0  0  0  0  0  0  0  0  0
    1.5205   -1.1783    1.7884 H   0  0  0  0  0  0  0  0  0  0  0  0
    3.5879   -1.0944    0.4606 H   0  0  0  0  0  0  0  0  0  0  0  0
    2.6126   -0.6044   -1.0272 H   0  0  0  0  0  0  0  0  0  0  0  0
   -0.6846    0.2566   -1.5930 C   0  0  0  0  0  0  0  0  0  0  0  0
   -0.6846    0.2566   -0.0673 C   0  0  0  0  0  3  0  0  0  0  0  0
   -0.6846    1.6812    0.4788 C   0  0  0  0  0  0  0  0  0  0  0  0
   -1.8675   -0.5375    0.4788 C   0  0  0  0  0  0  0  0  0  0  0  0
    0.1761    0.7988   -1.9901 H   0  0  0  0  0  0  0  0  0  0  0  0
   -1.5886    0.7386   -1.9768 H   0  0  0  0  0  0  0  0  0  0  0  0
   -0.6552   -0.7603   -1.9900 H   0  0  0  0  0  0  0  0  0  0  0  0
    0.4190   -0.3318    0.3373 H   0  0  0  0  0  0  0  0  0  0  0  0
   -1.5886    2.2120    0.1662 H   0  0  0  0  0  0  0  0  0  0  0  0
   -0.6551    1.6880    1.5704 H   0  0  0  0  0  0  0  0  0  0  0  0
    0.1760    2.2461    0.1145 H   0  0  0  0  0  0  0  0  0  0  0  0
   -1.8566   -1.5669    0.1145 H   0  0  0  0  0  0  0  0  0  0  0  0
   -2.8121   -0.0829    0.1661 H   0  0  0  0  0  0  0  0  0  0  0  0
   -1.8567   -0.5657    1.5704 H   0  0  0  0  0  0  0  0  0  0  0  0
  1  2  2  3
  1  3  1  0
  1 13  1  0
  2  4  1  0
  2  5  1  0
  6  7  1  0
  6 10  1  0
  6 11  1  0
  6 12  1  0
  7  8  1  0
  7  9  1  0
  8 14  1  0
  8 15  1  0
  8 16  1  0
  9 17  1  0
  9 18  1  0
  9 19  1  0
M  RAD  1   7   2
M  END
>  <reaction>  (18) 
rxn_337

>  <mol_properties>  (18) 
{"0": {"label": "*3", "atom_type": "Cd"}, "1": {"label": "*4", "atom_type": "Cd"}, "5": {"label": "*0", "atom_type": "Cs"}, "6": {"label": "*1", "atom_type": "Cs"}, "12": {"label": "*2", "atom_type": "H0"}}

>  <type>  (18) 
unop_14

>  <geom_source>  (18) 
gaussian_log

$$$$
