
     RDKit          3D

  8  7  0  0  0  0  0  0  0  0999 V2000
    1.9029    0.9046   -0.2050 C   0  0  0  0  0  0  0  0  0  0  0  0
    0.8517    0.4283    0.1217 C   0  0  0  0  0  0  0  0  0  0  0  0
   -0.3908   -0.1311    0.5404 C   0  0  0  0  0  0  0  0  0  0  0  0
   -1.2847   -0.6576   -0.2899 C   0  0  0  0  0  0  0  0  0  0  0  0
    2.8335    1.3255   -0.5014 H   0  0  0  0  0  0  0  0  0  0  0  0
   -0.5867   -0.1096    1.6074 H   0  0  0  0  0  0  0  0  0  0  0  0
   -2.2126   -1.0686    0.0850 H   0  0  0  0  0  0  0  0  0  0  0  0
   -1.1134   -0.6914   -1.3582 H   0  0  0  0  0  0  0  0  0  0  0  0
  1  2  3  0
  1  5  1  0
  2  3  1  0
  3  4  2  3
  3  6  1  0
  4  7  1  0
  4  8  1  0
M  END
>  <reaction>  (1) 
rxn_1796

>  <mol_properties>  (1) 
{"2": {"label": "donator", "atom_type": "Cd"}, "5": {"label": "d_hydrogen", "atom_type": "H0"}}

>  <type>  (1) 
r1h

$$$$

     RDKit          3D

  5  4  0  0  0  0  0  0  0  0999 V2000
    2.6310   -0.6994   -0.0464 S   0  0  0  0  0  0  0  0  0  0  0  0
    1.1422   -0.3024    0.0751 C   0  0  0  0  0  3  0  0  0  0  0  0
   -0.1294    0.0366    0.1789 C   0  0  0  0  0  0  0  0  0  0  0  0
   -1.3085    0.3505    0.2755 C   0  0  0  0  0  0  0  0  0  0  0  0
   -2.3329    0.6248    0.3586 H   0  0  0  0  0  0  0  0  0  0  0  0
  1  2  2  0
  2  3  1  0
  3  4  3  0
  4  5  1  0
M  RAD  1   2   2
M  END
>  <reaction>  (2) 
rxn_1796

>  <mol_properties>  (2) 
{"1": {"label": "acceptor", "atom_type": "CS"}}

>  <type>  (2) 
r2

$$$$

     RDKit          3D

  6  5  0  0  0  0  0  0  0  0999 V2000
   -1.9761    1.0978   -0.6585 S   0  0  0  0  0  0  0  0  0  0  0  0
   -1.0502    0.0275    0.1158 C   0  0  0  0  0  0  0  0  0  0  0  0
    0.3587   -0.0566   -0.0000 C   0  0  0  0  0  0  0  0  0  0  0  0
    1.5530   -0.1477   -0.0815 C   0  0  0  0  0  0  0  0  0  0  0  0
   -1.4972   -0.7045    0.7881 H   0  0  0  0  0  0  0  0  0  0  0  0
    2.6118   -0.2165   -0.1639 H   0  0  0  0  0  0  0  0  0  0  0  0
  1  2  2  0
  2  3  1  0
  2  5  1  0
  3  4  3  0
  4  6  1  0
M  END
>  <reaction>  (3) 
rxn_1796

>  <mol_properties>  (3) 
{"0": {"label": "a_hydrogen", "atom_type": "H0"}, "2": {"label": "acceptor", "atom_type": "CS"}}

>  <type>  (3) 
r2h

$$$$

     RDKit          3D

 13 12  0  0  0  0  0  0  0  0999 V2000
   -0.1957   -0.5970   -2.3934 C   0  0  0  0  0  0  0  0  0  0  0  0
   -0.1732   -1.5922   -1.6495 C   0  0  0  0  0  3  0  0  0  0  0  0
    0.0385   -1.9610   -0.3513 C   0  0  0  0  0  0  0  0  0  0  0  0
    0.0405   -3.0150    0.4412 C   0  0  0  0  0  0  0  0  0  0  0  0
   -0.3316   -0.1779   -3.3677 H   0  0  0  0  0  0  0  0  0  0  0  0
    0.3436   -0.8639    0.1513 H   0  0  0  0  0  0  0  0  0  0  0  0
    0.2637   -2.9118    1.4943 H   0  0  0  0  0  0  0  0  0  0  0  0
   -0.1789   -4.0040    0.0595 H   0  0  0  0  0  0  0  0  0  0  0  0
    0.2951    1.2063   -1.1333 S   0  0  0  0  0  4  0  0  0  0  0  0
    0.4477    0.5745    0.3326 C   0  0  0  0  0  0  0  0  0  0  0  0
    0.0618    0.8197    1.6241 C   0  0  0  0  0  0  0  0  0  0  0  0
   -0.1900    0.9944    2.7957 C   0  0  0  0  0  0  0  0  0  0  0  0
   -0.4214    1.1666    3.8190 H   0  0  0  0  0  0  0  0  0  0  0  0
  1  2  2  3
  1  9  1  0
  1  5  1  0
  2  3  1  0
  3  4  2  3
  3  6  1  0
  4  7  1  0
  4  8  1  0
  9 10  3  0
 10 11  1  0
 11 12  3  0
 12 13  1  0
M  RAD  1   2   2
M  END
>  <reaction>  (4) 
rxn_1796

>  <mol_properties>  (4) 
{"1": {"label": "*0", "atom_type": "Cd"}, "2": {"label": "*1", "atom_type": "Cd"}, "5": {"label": "*2", "atom_type": "H0"}, "8": {"label": "*4", "atom_type": "S4t"}, "9": {"label": "*3", "atom_type": "Ct"}}

>  <type>  (4) 
ts

$$$$

     RDKit          3D

 13 11  0  0  0  0  0  0  0  0999 V2000
   -0.1005   -1.4353   -3.2479 C   0  0  0  0  0  0  0  0  0  0  0  0
   -0.1005   -1.4353   -2.0485 C   0  0  0  0  0  0  0  0  0  0  0  0
   -0.1005   -1.4036   -0.6233 C   0  0  0  0  0  0  0  0  0  0  0  0
   -0.1005   -2.4892    0.1429 C   0  0  0  0  0  0  0  0  0  0  0  0
   -0.1005   -1.4353   -4.3114 H   0  0  0  0  0  0  0  0  0  0  0  0
   -0.1005   -0.2209   -0.0787 H   0  0  0  0  0  0  0  0  0  0  0  0
   -0.1005   -2.4045    1.2216 H   0  0  0  0  0  0  0  0  0  0  0  0
   -0.1004   -3.4835   -0.2848 H   0  0  0  0  0  0  0  0  0  0  0  0
   -1.3052    1.4181    1.4417 S   0  0  0  0  0  0  0  0  0  0  0  0
   -0.1005    0.9670    0.4683 C   0  0  0  0  0  3  0  0  0  0  0  0
    1.2747    1.1790    0.7316 C   0  0  0  0  0  0  0  0  0  0  0  0
    2.4463    1.3471    0.9324 C   0  0  0  0  0  0  0  0  0  0  0  0
    3.4850    1.4962    1.1103 H   0  0  0  0  0  0  0  0  0  0  0  0
  1  2  3  0
  1  5  1  0
  2  3  1  0
  3  4  2  3
  3  6  1  0
  4  7  1  0
  4  8  1  0
  9 10  2  0
 10 11  1  0
 11 12  3  0
 12 13  1  0
M  RAD  1  10   2
M  END
>  <reaction>  (5) 
rxn_1796

>  <mol_properties>  (5) 
{"1": {"label": "*0", "atom_type": "Cd"}, "2": {"label": "*1", "atom_type": "Cd"}, "5": {"label": "*2", "atom_type": "H0"}, "8": {"label": "*4", "atom_type": "S4t"}, "9": {"label": "*3", "atom_type": "Ct"}}

>  <type>  (5) 
unop_1

>  <geom_source>  (5) 
Heuristics

$$$$

     RDKit          3D

 13 11  0  0  0  0  0  0  0  0999 V2000
    0.0845   -1.5690   -3.1331 C   0  0  0  0  0  0  0  0  0  0  0  0
    0.0845   -1.5690   -1.9337 C   0  0  0  0  0  0  0  0  0  0  0  0
    0.0845   -1.5372   -0.5086 C   0  0  0  0  0  0  0  0  0  0  0  0
    0.0845   -2.6228    0.2577 C   0  0  0  0  0  0  0  0  0  0  0  0
    0.0845   -1.5690   -4.1966 H   0  0  0  0  0  0  0  0  0  0  0  0
    0.0845   -0.3546    0.0360 H   0  0  0  0  0  0  0  0  0  0  0  0
    0.0845   -2.5381    1.3363 H   0  0  0  0  0  0  0  0  0  0  0  0
    0.0846   -3.6172   -0.1700 H   0  0  0  0  0  0  0  0  0  0  0  0
   -0.6111    2.0792   -0.1695 S   0  0  0  0  0  0  0  0  0  0  0  0
    0.0845    0.8333    0.5830 C   0  0  0  0  0  3  0  0  0  0  0  0
    0.4074    0.7990    1.9615 C   0  0  0  0  0  0  0  0  0  0  0  0
    0.6907    0.7459    3.1269 C   0  0  0  0  0  0  0  0  0  0  0  0
    0.9417    0.6988    4.1601 H   0  0  0  0  0  0  0  0  0  0  0  0
  1  2  3  0
  1  5  1  0
  2  3  1  0
  3  4  2  3
  3  6  1  0
  4  7  1  0
  4  8  1  0
  9 10  2  0
 10 11  1  0
 11 12  3  0
 12 13  1  0
M  RAD  1  10   2
M  END
>  <reaction>  (6) 
rxn_1796

>  <mol_properties>  (6) 
{"1": {"label": "*0", "atom_type": "Cd"}, "2": {"label": "*1", "atom_type": "Cd"}, "5": {"label": "*2", "atom_type": "H0"}, "8": {"label": "*4", "atom_type": "S4t"}, "9": {"label": "*3", "atom_type": "Ct"}}

>  <type>  (6) 
unop_2

>  <geom_source>  (6) 
Heuristics

$$$$

     RDKit          3D

 13 11  0  0  0  0  0  0  0  0999 V2000
   -0.1742   -1.5113   -3.1546 C   0  0  0  0  0  0  0  0  0  0  0  0
   -0.1742   -1.5113   -1.9552 C   0  0  0  0  0  0  0  0  0  0  0  0
   -0.1742   -1.4795   -0.5301 C   0  0  0  0  0  0  0  0  0  0  0  0
   -0.1742   -2.5651    0.2362 C   0  0  0  0  0  0  0  0  0  0  0  0
   -0.1742   -1.5113   -4.2181 H   0  0  0  0  0  0  0  0  0  0  0  0
   -0.1743   -0.2969    0.0145 H   0  0  0  0  0  0  0  0  0  0  0  0
   -0.1742   -2.4804    1.3148 H   0  0  0  0  0  0  0  0  0  0  0  0
   -0.1742   -3.5595   -0.1915 H   0  0  0  0  0  0  0  0  0  0  0  0
   -0.8698    1.1291    1.9975 S   0  0  0  0  0  0  0  0  0  0  0  0
   -0.1743    0.8910    0.5616 C   0  0  0  0  0  3  0  0  0  0  0  0
    1.0039    1.5385    0.1162 C   0  0  0  0  0  0  0  0  0  0  0  0
    2.0010    2.0743   -0.2837 C   0  0  0  0  0  0  0  0  0  0  0  0
    2.8849    2.5493   -0.6382 H   0  0  0  0  0  0  0  0  0  0  0  0
  1  2  3  0
  1  5  1  0
  2  3  1  0
  3  4  2  3
  3  6  1  0
  4  7  1  0
  4  8  1  0
  9 10  2  0
 10 11  1  0
 11 12  3  0
 12 13  1  0
M  RAD  1  10   2
M  END
>  <reaction>  (7) 
rxn_1796

>  <mol_properties>  (7) 
{"1": {"label": "*0", "atom_type": "Cd"}, "2": {"label": "*1", "atom_type": "Cd"}, "5": {"label": "*2", "atom_type": "H0"}, "8": {"label": "*4", "atom_type": "S4t"}, "9": {"label": "*3", "atom_type": "Ct"}}

>  <type>  (7) 
unop_3

>  <geom_source>  (7) 
Heuristics

$$$$

     RDKit          3D

 13 11  0  0  0  0  0  0  0  0999 V2000
   -0.0956   -1.5011   -3.2042 C   0  0  0  0  0  0  0  0  0  0  0  0
   -0.0956   -1.5011   -2.0048 C   0  0  0  0  0  0  0  0  0  0  0  0
   -0.0956   -1.4693   -0.5797 C   0  0  0  0  0  0  0  0  0  0  0  0
   -0.0955   -2.5549    0.1866 C   0  0  0  0  0  0  0  0  0  0  0  0
   -0.0956   -1.5011   -4.2677 H   0  0  0  0  0  0  0  0  0  0  0  0
   -0.0956   -0.2866   -0.0351 H   0  0  0  0  0  0  0  0  0  0  0  0
   -0.0955   -2.4702    1.2652 H   0  0  0  0  0  0  0  0  0  0  0  0
   -0.0955   -3.5492   -0.2411 H   0  0  0  0  0  0  0  0  0  0  0  0
    1.1091    1.9342    0.2219 S   0  0  0  0  0  0  0  0  0  0  0  0
   -0.0956    0.9013    0.5120 C   0  0  0  0  0  3  0  0  0  0  0  0
   -0.8227    0.8267    1.7250 C   0  0  0  0  0  0  0  0  0  0  0  0
   -1.4533    0.7442    2.7432 C   0  0  0  0  0  0  0  0  0  0  0  0
   -2.0123    0.6711    3.6459 H   0  0  0  0  0  0  0  0  0  0  0  0
  1  2  3  0
  1  5  1  0
  2  3  1  0
  3  4  2  3
  3  6  1  0
  4  7  1  0
  4  8  1  0
  9 10  2  0
 10 11  1  0
 11 12  3  0
 12 13  1  0
M  RAD  1  10   2
M  END
>  <reaction>  (8) 
rxn_1796

>  <mol_properties>  (8) 
{"1": {"label": "*0", "atom_type": "Cd"}, "2": {"label": "*1", "atom_type": "Cd"}, "5": {"label": "*2", "atom_type": "H0"}, "8": {"label": "*4", "atom_type": "S4t"}, "9": {"label": "*3", "atom_type": "Ct"}}

>  <type>  (8) 
unop_4

>  <geom_source>  (8) 
Heuristics

$$$$

     RDKit          3D

 13 11  0  0  0  0  0  0  0  0999 V2000
    0.0000   -1.6207   -3.0553 C   0  0  0  0  0  0  0  0  0  0  0  0
    0.0000   -1.6207   -1.8559 C   0  0  0  0  0  0  0  0  0  0  0  0
    0.0000   -1.5889   -0.4307 C   0  0  0  0  0  0  0  0  0  0  0  0
    0.0001   -2.6745    0.3356 C   0  0  0  0  0  0  0  0  0  0  0  0
    0.0000   -1.6207   -4.1188 H   0  0  0  0  0  0  0  0  0  0  0  0
    0.0000   -0.4062    0.1139 H   0  0  0  0  0  0  0  0  0  0  0  0
    0.0001   -2.5898    1.4142 H   0  0  0  0  0  0  0  0  0  0  0  0
    0.0001   -3.6689   -0.0922 H   0  0  0  0  0  0  0  0  0  0  0  0
   -0.0000    0.9418    2.2661 S   0  0  0  0  0  0  0  0  0  0  0  0
   -0.0000    0.7817    0.6609 C   0  0  0  0  0  3  0  0  0  0  0  0
   -0.0000    1.8581   -0.2594 C   0  0  0  0  0  0  0  0  0  0  0  0
   -0.0001    2.7536   -1.0590 C   0  0  0  0  0  0  0  0  0  0  0  0
   -0.0001    3.5474   -1.7679 H   0  0  0  0  0  0  0  0  0  0  0  0
  1  2  3  0
  1  5  1  0
  2  3  1  0
  3  4  2  3
  3  6  1  0
  4  7  1  0
  4  8  1  0
  9 10  2  0
 10 11  1  0
 11 12  3  0
 12 13  1  0
M  RAD  1  10   2
M  END
>  <reaction>  (9) 
rxn_1796

>  <mol_properties>  (9) 
{"1": {"label": "*0", "atom_type": "Cd"}, "2": {"label": "*1", "atom_type": "Cd"}, "5": {"label": "*2", "atom_type": "H0"}, "8": {"label": "*4", "atom_type": "S4t"}, "9": {"label": "*3", "atom_type": "Ct"}}

>  <type>  (9) 
unop_5

>  <geom_source>  (9) 
Heuristics

$$$$

     RDKit          3D

 13 11  0  0  0  0  0  0  0  0999 V2000
   -0.0201   -1.4434   -3.2578 C   0  0  0  0  0  0  0  0  0  0  0  0
   -0.0201   -1.4434   -2.0584 C   0  0  0  0  0  0  0  0  0  0  0  0
   -0.0201   -1.4116   -0.6332 C   0  0  0  0  0  0  0  0  0  0  0  0
   -0.0201   -2.4972    0.1331 C   0  0  0  0  0  0  0  0  0  0  0  0
   -0.0201   -1.4434   -4.3212 H   0  0  0  0  0  0  0  0  0  0  0  0
   -0.0201   -0.2289   -0.0886 H   0  0  0  0  0  0  0  0  0  0  0  0
   -0.0201   -2.4125    1.2117 H   0  0  0  0  0  0  0  0  0  0  0  0
   -0.0200   -3.4915   -0.2946 H   0  0  0  0  0  0  0  0  0  0  0  0
    1.3709    1.7010    0.8001 S   0  0  0  0  0  0  0  0  0  0  0  0
   -0.0201    0.9590    0.4584 C   0  0  0  0  0  3  0  0  0  0  0  0
   -1.1581    0.9456    1.3014 C   0  0  0  0  0  0  0  0  0  0  0  0
   -2.1352    0.9198    1.9984 C   0  0  0  0  0  0  0  0  0  0  0  0
   -3.0014    0.8970    2.6162 H   0  0  0  0  0  0  0  0  0  0  0  0
  1  2  3  0
  1  5  1  0
  2  3  1  0
  3  4  2  3
  3  6  1  0
  4  7  1  0
  4  8  1  0
  9 10  2  0
 10 11  1  0
 11 12  3  0
 12 13  1  0
M  RAD  1  10   2
M  END
>  <reaction>  (10) 
rxn_1796

>  <mol_properties>  (10) 
{"1": {"label": "*0", "atom_type": "Cd"}, "2": {"label": "*1", "atom_type": "Cd"}, "5": {"label": "*2", "atom_type": "H0"}, "8": {"label": "*4", "atom_type": "S4t"}, "9": {"label": "*3", "atom_type": "Ct"}}

>  <type>  (10) 
unop_6

>  <geom_source>  (10) 
Heuristics

$$$$

     RDKit          3D

 13 11  0  0  0  0  0  0  0  0999 V2000
    0.1005   -1.4353   -3.2479 C   0  0  0  0  0  0  0  0  0  0  0  0
    0.1005   -1.4353   -2.0485 C   0  0  0  0  0  0  0  0  0  0  0  0
    0.1005   -1.4036   -0.6233 C   0  0  0  0  0  0  0  0  0  0  0  0
    0.1006   -2.4891    0.1429 C   0  0  0  0  0  0  0  0  0  0  0  0
    0.1005   -1.4353   -4.3114 H   0  0  0  0  0  0  0  0  0  0  0  0
    0.1005   -0.2209   -0.0787 H   0  0  0  0  0  0  0  0  0  0  0  0
    0.1006   -2.4045    1.2216 H   0  0  0  0  0  0  0  0  0  0  0  0
    0.1006   -3.4835   -0.2848 H   0  0  0  0  0  0  0  0  0  0  0  0
    1.3052    1.4181    1.4417 S   0  0  0  0  0  0  0  0  0  0  0  0
    0.1005    0.9670    0.4683 C   0  0  0  0  0  3  0  0  0  0  0  0
   -1.2748    1.1790    0.7316 C   0  0  0  0  0  0  0  0  0  0  0  0
   -2.4464    1.3470    0.9324 C   0  0  0  0  0  0  0  0  0  0  0  0
   -3.4850    1.4961    1.1103 H   0  0  0  0  0  0  0  0  0  0  0  0
  1  2  3  0
  1  5  1  0
  2  3  1  0
  3  4  2  3
  3  6  1  0
  4  7  1  0
  4  8  1  0
  9 10  2  0
 10 11  1  0
 11 12  3  0
 12 13  1  0
M  RAD  1  10   2
M  END
>  <reaction>  (11) 
rxn_1796

>  <mol_properties>  (11) 
{"1": {"label": "*0", "atom_type": "Cd"}, "2": {"label": "*1", "atom_type": "Cd"}, "5": {"label": "*2", "atom_type": "H0"}, "8": {"label": "*4", "atom_type": "S4t"}, "9": {"label": "*3", "atom_type": "Ct"}}

>  <type>  (11) 
unop_7

>  <geom_source>  (11) 
Heuristics

$$$$

     RDKit          3D

 13 11  0  0  0  0  0  0  0  0999 V2000
    0.0201   -1.4434   -3.2578 C   0  0  0  0  0  0  0  0  0  0  0  0
    0.0201   -1.4434   -2.0584 C   0  0  0  0  0  0  0  0  0  0  0  0
    0.0201   -1.4116   -0.6332 C   0  0  0  0  0  0  0  0  0  0  0  0
    0.0202   -2.4972    0.1331 C   0  0  0  0  0  0  0  0  0  0  0  0
    0.0201   -1.4434   -4.3212 H   0  0  0  0  0  0  0  0  0  0  0  0
    0.0201   -0.2289   -0.0886 H   0  0  0  0  0  0  0  0  0  0  0  0
    0.0202   -2.4125    1.2117 H   0  0  0  0  0  0  0  0  0  0  0  0
    0.0202   -3.4915   -0.2946 H   0  0  0  0  0  0  0  0  0  0  0  0
   -1.3710    1.7010    0.8001 S   0  0  0  0  0  0  0  0  0  0  0  0
    0.0201    0.9590    0.4584 C   0  0  0  0  0  3  0  0  0  0  0  0
    1.1580    0.9456    1.3014 C   0  0  0  0  0  0  0  0  0  0  0  0
    2.1352    0.9199    1.9984 C   0  0  0  0  0  0  0  0  0  0  0  0
    3.0014    0.8971    2.6162 H   0  0  0  0  0  0  0  0  0  0  0  0
  1  2  3  0
  1  5  1  0
  2  3  1  0
  3  4  2  3
  3  6  1  0
  4  7  1  0
  4  8  1  0
  9 10  2  0
 10 11  1  0
 11 12  3  0
 12 13  1  0
M  RAD  1  10   2
M  END
>  <reaction>  (12) 
rxn_1796

>  <mol_properties>  (12) 
{"1": {"label": "*0", "atom_type": "Cd"}, "2": {"label": "*1", "atom_type": "Cd"}, "5": {"label": "*2", "atom_type": "H0"}, "8": {"label": "*4", "atom_type": "S4t"}, "9": {"label": "*3", "atom_type": "Ct"}}

>  <type>  (12) 
unop_8

>  <geom_source>  (12) 
Heuristics

$$$$

     RDKit          3D

 13 11  0  0  0  0  0  0  0  0999 V2000
   -0.0845   -1.5690   -3.1331 C   0  0  0  0  0  0  0  0  0  0  0  0
   -0.0845   -1.5690   -1.9337 C   0  0  0  0  0  0  0  0  0  0  0  0
   -0.0845   -1.5372   -0.5086 C   0  0  0  0  0  0  0  0  0  0  0  0
   -0.0844   -2.6228    0.2577 C   0  0  0  0  0  0  0  0  0  0  0  0
   -0.0845   -1.5690   -4.1966 H   0  0  0  0  0  0  0  0  0  0  0  0
   -0.0845   -0.3546    0.0360 H   0  0  0  0  0  0  0  0  0  0  0  0
   -0.0844   -2.5381    1.3363 H   0  0  0  0  0  0  0  0  0  0  0  0
   -0.0844   -3.6172   -0.1700 H   0  0  0  0  0  0  0  0  0  0  0  0
    0.6110    2.0792   -0.1695 S   0  0  0  0  0  0  0  0  0  0  0  0
   -0.0845    0.8333    0.5830 C   0  0  0  0  0  3  0  0  0  0  0  0
   -0.4075    0.7989    1.9615 C   0  0  0  0  0  0  0  0  0  0  0  0
   -0.6907    0.7458    3.1269 C   0  0  0  0  0  0  0  0  0  0  0  0
   -0.9418    0.6988    4.1601 H   0  0  0  0  0  0  0  0  0  0  0  0
  1  2  3  0
  1  5  1  0
  2  3  1  0
  3  4  2  3
  3  6  1  0
  4  7  1  0
  4  8  1  0
  9 10  2  0
 10 11  1  0
 11 12  3  0
 12 13  1  0
M  RAD  1  10   2
M  END
>  <reaction>  (13) 
rxn_1796

>  <mol_properties>  (13) 
{"1": {"label": "*0", "atom_type": "Cd"}, "2": {"label": "*1", "atom_type": "Cd"}, "5": {"label": "*2", "atom_type": "H0"}, "8": {"label": "*4", "atom_type": "S4t"}, "9": {"label": "*3", "atom_type": "Ct"}}

>  <type>  (13) 
unop_9

>  <geom_source>  (13) 
Heuristics

$$$$

     RDKit          3D

 13 11  0  0  0  0  0  0  0  0999 V2000
    0.0956   -1.5011   -3.2042 C   0  0  0  0  0  0  0  0  0  0  0  0
    0.0956   -1.5011   -2.0048 C   0  0  0  0  0  0  0  0  0  0  0  0
    0.0956   -1.4693   -0.5797 C   0  0  0  0  0  0  0  0  0  0  0  0
    0.0956   -2.5549    0.1866 C   0  0  0  0  0  0  0  0  0  0  0  0
    0.0956   -1.5011   -4.2677 H   0  0  0  0  0  0  0  0  0  0  0  0
    0.0956   -0.2866   -0.0351 H   0  0  0  0  0  0  0  0  0  0  0  0
    0.0956   -2.4702    1.2652 H   0  0  0  0  0  0  0  0  0  0  0  0
    0.0957   -3.5492   -0.2411 H   0  0  0  0  0  0  0  0  0  0  0  0
   -1.1091    1.9342    0.2219 S   0  0  0  0  0  0  0  0  0  0  0  0
    0.0956    0.9013    0.5120 C   0  0  0  0  0  3  0  0  0  0  0  0
    0.8227    0.8267    1.7250 C   0  0  0  0  0  0  0  0  0  0  0  0
    1.4533    0.7443    2.7432 C   0  0  0  0  0  0  0  0  0  0  0  0
    2.0122    0.6712    3.6459 H   0  0  0  0  0  0  0  0  0  0  0  0
  1  2  3  0
  1  5  1  0
  2  3  1  0
  3  4  2  3
  3  6  1  0
  4  7  1  0
  4  8  1  0
  9 10  2  0
 10 11  1  0
 11 12  3  0
 12 13  1  0
M  RAD  1  10   2
M  END
>  <reaction>  (14) 
rxn_1796

>  <mol_properties>  (14) 
{"1": {"label": "*0", "atom_type": "Cd"}, "2": {"label": "*1", "atom_type": "Cd"}, "5": {"label": "*2", "atom_type": "H0"}, "8": {"label": "*4", "atom_type": "S4t"}, "9": {"label": "*3", "atom_type": "Ct"}}

>  <type>  (14) 
unop_10

>  <geom_source>  (14) 
Heuristics

$$$$

     RDKit          3D

 13 11  0  0  0  0  0  0  0  0999 V2000
    0.1743   -1.5113   -3.1546 C   0  0  0  0  0  0  0  0  0  0  0  0
    0.1743   -1.5113   -1.9552 C   0  0  0  0  0  0  0  0  0  0  0  0
    0.1743   -1.4795   -0.5301 C   0  0  0  0  0  0  0  0  0  0  0  0
    0.1743   -2.5651    0.2362 C   0  0  0  0  0  0  0  0  0  0  0  0
    0.1743   -1.5113   -4.2181 H   0  0  0  0  0  0  0  0  0  0  0  0
    0.1743   -0.2968    0.0145 H   0  0  0  0  0  0  0  0  0  0  0  0
    0.1743   -2.4804    1.3148 H   0  0  0  0  0  0  0  0  0  0  0  0
    0.1743   -3.5595   -0.1915 H   0  0  0  0  0  0  0  0  0  0  0  0
    0.8698    1.1292    1.9975 S   0  0  0  0  0  0  0  0  0  0  0  0
    0.1742    0.8911    0.5616 C   0  0  0  0  0  3  0  0  0  0  0  0
   -1.0040    1.5385    0.1162 C   0  0  0  0  0  0  0  0  0  0  0  0
   -2.0011    2.0742   -0.2837 C   0  0  0  0  0  0  0  0  0  0  0  0
   -2.8850    2.5492   -0.6382 H   0  0  0  0  0  0  0  0  0  0  0  0
  1  2  3  0
  1  5  1  0
  2  3  1  0
  3  4  2  3
  3  6  1  0
  4  7  1  0
  4  8  1  0
  9 10  2  0
 10 11  1  0
 11 12  3  0
 12 13  1  0
M  RAD  1  10   2
M  END
>  <reaction>  (15) 
rxn_1796

>  <mol_properties>  (15) 
{"1": {"label": "*0", "atom_type": "Cd"}, "2": {"label": "*1", "atom_type": "Cd"}, "5": {"label": "*2", "atom_type": "H0"}, "8": {"label": "*4", "atom_type": "S4t"}, "9": {"label": "*3", "atom_type": "Ct"}}

>  <type>  (15) 
unop_11

>  <geom_source>  (15) 
Heuristics

$$$$

     RDKit          3D

 13 11  0  0  0  0  0  0  0  0999 V2000
    0.0000   -1.6000   -3.1002 C   0  0  0  0  0  0  0  0  0  0  0  0
    0.0000   -1.6000   -1.9008 C   0  0  0  0  0  0  0  0  0  0  0  0
    0.0000   -1.5682   -0.4757 C   0  0  0  0  0  0  0  0  0  0  0  0
    0.0001   -2.6538    0.2906 C   0  0  0  0  0  0  0  0  0  0  0  0
    0.0000   -1.6000   -4.1637 H   0  0  0  0  0  0  0  0  0  0  0  0
    0.0000   -0.3855    0.0689 H   0  0  0  0  0  0  0  0  0  0  0  0
    0.0001   -2.5691    1.3692 H   0  0  0  0  0  0  0  0  0  0  0  0
    0.0001   -3.6482   -0.1371 H   0  0  0  0  0  0  0  0  0  0  0  0
   -0.0000    2.1262   -0.3059 S   0  0  0  0  0  0  0  0  0  0  0  0
   -0.0000    0.8024    0.6160 C   0  0  0  0  0  3  0  0  0  0  0  0
   -0.0000    0.8029    2.0322 C   0  0  0  0  0  0  0  0  0  0  0  0
   -0.0000    0.7774    3.2324 C   0  0  0  0  0  0  0  0  0  0  0  0
   -0.0000    0.7548    4.2964 H   0  0  0  0  0  0  0  0  0  0  0  0
  1  2  3  0
  1  5  1  0
  2  3  1  0
  3  4  2  3
  3  6  1  0
  4  7  1  0
  4  8  1  0
  9 10  2  0
 10 11  1  0
 11 12  3  0
 12 13  1  0
M  RAD  1  10   2
M  END
>  <reaction>  (16) 
rxn_1796

>  <mol_properties>  (16) 
{"1": {"label": "*0", "atom_type": "Cd"}, "2": {"label": "*1", "atom_type": "Cd"}, "5": {"label": "*2", "atom_type": "H0"}, "8": {"label": "*4", "atom_type": "S4t"}, "9": {"label": "*3", "atom_type": "Ct"}}

>  <type>  (16) 
unop_12

>  <geom_source>  (16) 
Heuristics

$$$$

     RDKit          3D

 13 11  0  0  0  0  0  0  0  0999 V2000
    1.7934   -2.2839    0.9717 S   0  0  0  0  0  0  0  0  0  0  0  0
    1.3145   -0.8023    0.4814 C   0  0  0  0  0  3  0  0  0  0  0  0
   -1.3370   -0.9403   -1.1122 C   0  0  0  0  0  0  0  0  0  0  0  0
   -1.2743   -0.6603    0.1834 C   0  0  0  0  0  0  0  0  0  0  0  0
    2.2810    0.1420   -0.0022 C   0  0  0  0  0  0  0  0  0  0  0  0
   -1.8489    0.5475    0.7116 C   0  0  0  0  0  0  0  0  0  0  0  0
    3.0919    0.9360   -0.4085 C   0  0  0  0  0  0  0  0  0  0  0  0
   -2.3304    1.5598    1.1553 C   0  0  0  0  0  0  0  0  0  0  0  0
   -0.0223   -0.4569    0.5318 H   0  0  0  0  0  0  0  0  0  0  0  0
   -1.8224   -0.2676   -1.8093 H   0  0  0  0  0  0  0  0  0  0  0  0
   -0.8964   -1.8558   -1.4824 H   0  0  0  0  0  0  0  0  0  0  0  0
    3.8039    1.6330   -0.7653 H   0  0  0  0  0  0  0  0  0  0  0  0
   -2.7531    2.4485    1.5446 H   0  0  0  0  0  0  0  0  0  0  0  0
  1  2  2  0
  2  5  1  0
  3  4  2  3
  3 10  1  0
  3 11  1  0
  4  6  1  0
  4  9  1  0
  5  7  3  0
  6  8  3  0
  7 12  1  0
  8 13  1  0
M  RAD  1   2   2
M  END
>  <reaction>  (17) 
rxn_1796

>  <mol_properties>  (17) 
{"1": {"label": "*0", "atom_type": "Cd"}, "2": {"label": "*1", "atom_type": "Cd"}, "5": {"label": "*2", "atom_type": "H0"}, "8": {"label": "*4", "atom_type": "S4t"}, "9": {"label": "*3", "atom_type": "Ct"}}

>  <type>  (17) 
unop_13

>  <geom_source>  (17) 
AutoTST

$$$$
