
     RDKit          3D

  9  8  0  0  0  0  0  0  0  0999 V2000
   -0.8818   -0.3578    0.1297 C   0  0  0  0  0  0  0  0  0  0  0  0
    0.6153   -0.3021   -0.1188 C   0  0  0  0  0  0  0  0  0  0  0  0
    1.5354   -1.7170    0.5545 S   0  0  0  0  0  0  0  0  0  0  0  0
   -1.1018   -0.3317    1.1984 H   0  0  0  0  0  0  0  0  0  0  0  0
   -1.3114   -1.2723   -0.2799 H   0  0  0  0  0  0  0  0  0  0  0  0
   -1.3767    0.4976   -0.3363 H   0  0  0  0  0  0  0  0  0  0  0  0
    1.0467    0.6194    0.2718 H   0  0  0  0  0  0  0  0  0  0  0  0
    0.8295   -0.3275   -1.1882 H   0  0  0  0  0  0  0  0  0  0  0  0
    1.2306   -1.5077    1.8423 H   0  0  0  0  0  0  0  0  0  0  0  0
  1  2  1  0
  1  4  1  0
  1  5  1  0
  1  6  1  0
  2  3  1  0
  2  7  1  0
  2  8  1  0
  3  9  1  0
M  END
>  <reaction>  (1) 
rxn_1869

>  <mol_properties>  (1) 
{"1": {"label": "donator", "atom_type": "Cs"}, "6": {"label": "d_hydrogen", "atom_type": "H0"}}

>  <type>  (1) 
r1h

$$$$

     RDKit          3D

 11 10  0  0  0  0  0  0  0  0999 V2000
    2.0591    0.2533   -0.1061 C   0  0  0  0  0  0  0  0  0  0  0  0
    0.8045   -0.3111   -0.1535 C   0  0  0  0  0  0  0  0  0  0  0  0
   -0.3816    0.3942   -0.1885 C   0  0  0  0  0  3  0  0  0  0  0  0
   -1.7316   -0.2294   -0.2396 C   0  0  0  0  0  0  0  0  0  0  0  0
    2.9505   -0.3576   -0.0805 H   0  0  0  0  0  0  0  0  0  0  0  0
    2.1872    1.3290   -0.0933 H   0  0  0  0  0  0  0  0  0  0  0  0
    0.7385   -1.3970   -0.1643 H   0  0  0  0  0  0  0  0  0  0  0  0
   -0.3340    1.4795   -0.1783 H   0  0  0  0  0  0  0  0  0  0  0  0
   -1.6704   -1.3186   -0.2461 H   0  0  0  0  0  0  0  0  0  0  0  0
   -2.3404    0.0713    0.6191 H   0  0  0  0  0  0  0  0  0  0  0  0
   -2.2805    0.0851   -1.1331 H   0  0  0  0  0  0  0  0  0  0  0  0
  1  2  2  3
  1  5  1  0
  1  6  1  0
  2  3  1  0
  2  7  1  0
  3  4  1  0
  3  8  1  0
  4  9  1  0
  4 10  1  0
  4 11  1  0
M  RAD  1   3   2
M  END
>  <reaction>  (2) 
rxn_1869

>  <mol_properties>  (2) 
{"2": {"label": "acceptor", "atom_type": "Cs"}}

>  <type>  (2) 
r2

$$$$

     RDKit          3D

 12 11  0  0  0  0  0  0  0  0999 V2000
    1.9877    0.1011    0.4814 C   0  0  0  0  0  0  0  0  0  0  0  0
    0.8179    0.5502    0.0525 C   0  0  0  0  0  0  0  0  0  0  0  0
   -0.2939   -0.2692   -0.5320 C   0  0  0  0  0  0  0  0  0  0  0  0
   -0.0292   -1.7631   -0.6328 C   0  0  0  0  0  0  0  0  0  0  0  0
    2.2522   -0.9490    0.4436 H   0  0  0  0  0  0  0  0  0  0  0  0
    2.7295    0.7757    0.8896 H   0  0  0  0  0  0  0  0  0  0  0  0
    0.6162    1.6164    0.1190 H   0  0  0  0  0  0  0  0  0  0  0  0
   -0.5268    0.1319   -1.5245 H   0  0  0  0  0  0  0  0  0  0  0  0
   -1.1959   -0.0938    0.0644 H   0  0  0  0  0  0  0  0  0  0  0  0
    0.1590   -2.1992    0.3502 H   0  0  0  0  0  0  0  0  0  0  0  0
    0.8382   -1.9701   -1.2626 H   0  0  0  0  0  0  0  0  0  0  0  0
   -0.8879   -2.2759   -1.0672 H   0  0  0  0  0  0  0  0  0  0  0  0
  1  2  2  3
  1  5  1  0
  1  6  1  0
  2  3  1  0
  2  7  1  0
  3  4  1  0
  3  8  1  0
  3  9  1  0
  4 10  1  0
  4 11  1  0
  4 12  1  0
M  END
>  <reaction>  (3) 
rxn_1869

>  <mol_properties>  (3) 
{"0": {"label": "a_hydrogen", "atom_type": "H0"}, "3": {"label": "acceptor", "atom_type": "Cs"}}

>  <type>  (3) 
r2h

$$$$

     RDKit          3D

 20 18  0  0  0  0  0  0  0  0999 V2000
   -0.8766    0.7211   -1.8051 C   0  0  0  0  0  0  0  0  0  0  0  0
   -1.1737    0.4052   -0.3660 C   0  0  0  0  0  3  0  0  0  0  0  0
   -1.6326    1.7305    0.7136 S   0  0  0  0  0  0  0  0  0  0  0  0
   -0.0859    1.4711   -1.8851 H   0  0  0  0  0  0  0  0  0  0  0  0
   -1.7576    1.1077   -2.3247 H   0  0  0  0  0  0  0  0  0  0  0  0
   -0.5387   -0.1796   -2.3220 H   0  0  0  0  0  0  0  0  0  0  0  0
    0.0130   -0.1516    0.1043 H   0  0  0  0  0  0  0  0  0  0  0  0
   -1.8722   -0.4158   -0.2146 H   0  0  0  0  0  0  0  0  0  0  0  0
   -0.6501    2.5742    0.3653 H   0  0  0  0  0  0  0  0  0  0  0  0
    1.6330   -2.7327   -0.8082 C   0  0  0  0  0  0  0  0  0  0  0  0
    1.6970   -1.4234   -0.5560 C   0  0  0  0  0  0  0  0  0  0  0  0
    1.0835   -0.7271    0.5746 C   0  0  0  0  0  0  0  0  0  0  0  0
    0.5602   -1.5361    1.7350 C   0  0  0  0  0  0  0  0  0  0  0  0
    2.0925   -3.1542   -1.6927 H   0  0  0  0  0  0  0  0  0  0  0  0
    1.1364   -3.4243   -0.1383 H   0  0  0  0  0  0  0  0  0  0  0  0
    2.2206   -0.7903   -1.2679 H   0  0  0  0  0  0  0  0  0  0  0  0
    1.6465    0.1547    0.8831 H   0  0  0  0  0  0  0  0  0  0  0  0
    1.3651   -2.0760    2.2416 H   0  0  0  0  0  0  0  0  0  0  0  0
    0.0743   -0.8862    2.4638 H   0  0  0  0  0  0  0  0  0  0  0  0
   -0.1750   -2.2738    1.4059 H   0  0  0  0  0  0  0  0  0  0  0  0
  1  2  1  0
  1  4  1  0
  1  5  1  0
  1  6  1  0
  2  3  1  0
  2  8  1  0
  3  9  1  0
  7 12  1  0
 10 11  2  3
 10 14  1  0
 10 15  1  0
 11 12  1  0
 11 16  1  0
 12 13  1  0
 12 17  1  0
 13 18  1  0
 13 19  1  0
 13 20  1  0
M  RAD  1   2   2
M  END
>  <reaction>  (4) 
rxn_1869

>  <mol_properties>  (4) 
{"1": {"label": "*3", "atom_type": "Cs"}, "2": {"label": "*4", "atom_type": "S2s"}, "6": {"label": "*2", "atom_type": "H0"}, "10": {"label": "*0", "atom_type": "Cd"}, "11": {"label": "*1", "atom_type": "Cs"}}

>  <type>  (4) 
ts

$$$$

     RDKit          3D

 20 18  0  0  0  0  0  0  0  0999 V2000
   -1.3982    0.1571   -2.1599 C   0  0  0  0  0  0  0  0  0  0  0  0
   -1.3982    0.1571   -0.6412 C   0  0  0  0  0  0  0  0  0  0  0  0
   -1.3982    1.8144    0.1038 S   0  0  0  0  0  0  0  0  0  0  0  0
   -0.4916    0.6225   -2.5506 H   0  0  0  0  0  0  0  0  0  0  0  0
   -2.2542    0.7083   -2.5500 H   0  0  0  0  0  0  0  0  0  0  0  0
   -1.4413   -0.8663   -2.5402 H   0  0  0  0  0  0  0  0  0  0  0  0
   -0.3863   -0.5223   -0.1671 H   0  0  0  0  0  0  0  0  0  0  0  0
   -2.3058   -0.3100   -0.2561 H   0  0  0  0  0  0  0  0  0  0  0  0
   -0.2234    2.2161   -0.3998 H   0  0  0  0  0  0  0  0  0  0  0  0
    2.7222   -0.4670    1.5141 C   0  0  0  0  0  0  0  0  0  0  0  0
    1.4651   -0.2784    1.1427 C   0  0  0  0  0  0  0  0  0  0  0  0
    0.6309   -1.2052    0.3095 C   0  0  0  0  0  3  0  0  0  0  0  0
    1.3183   -2.4837   -0.1430 C   0  0  0  0  0  0  0  0  0  0  0  0
    3.2418    0.2649    2.1194 H   0  0  0  0  0  0  0  0  0  0  0  0
    3.2810   -1.3517    1.2325 H   0  0  0  0  0  0  0  0  0  0  0  0
    0.9621    0.6318    1.4597 H   0  0  0  0  0  0  0  0  0  0  0  0
   -0.2726   -1.4533    0.8773 H   0  0  0  0  0  0  0  0  0  0  0  0
    1.6426   -3.0825    0.7103 H   0  0  0  0  0  0  0  0  0  0  0  0
    0.6392   -3.0931   -0.7403 H   0  0  0  0  0  0  0  0  0  0  0  0
    2.1973   -2.2664   -0.7529 H   0  0  0  0  0  0  0  0  0  0  0  0
  1  2  1  0
  1  4  1  0
  1  5  1  0
  1  6  1  0
  2  3  1  0
  2  7  1  0
  2  8  1  0
  3  9  1  0
 10 11  2  3
 10 14  1  0
 10 15  1  0
 11 12  1  0
 11 16  1  0
 12 13  1  0
 12 17  1  0
 13 18  1  0
 13 19  1  0
 13 20  1  0
M  RAD  1  12   2
M  END
>  <reaction>  (5) 
rxn_1869

>  <mol_properties>  (5) 
{"1": {"label": "*3", "atom_type": "Cs"}, "2": {"label": "*4", "atom_type": "S2s"}, "6": {"label": "*2", "atom_type": "H0"}, "10": {"label": "*0", "atom_type": "Cd"}, "11": {"label": "*1", "atom_type": "Cs"}}

>  <type>  (5) 
unop_1

>  <geom_source>  (5) 
Heuristics

$$$$

     RDKit          3D

 20 18  0  0  0  0  0  0  0  0999 V2000
   -1.3131    0.4468   -1.7991 C   0  0  0  0  0  0  0  0  0  0  0  0
   -1.3131    0.4468   -0.2804 C   0  0  0  0  0  0  0  0  0  0  0  0
   -1.3131    2.1042    0.4646 S   0  0  0  0  0  0  0  0  0  0  0  0
   -0.4065    0.9123   -2.1898 H   0  0  0  0  0  0  0  0  0  0  0  0
   -2.1691    0.9980   -2.1892 H   0  0  0  0  0  0  0  0  0  0  0  0
   -1.3562   -0.5765   -2.1794 H   0  0  0  0  0  0  0  0  0  0  0  0
   -0.3012   -0.2325    0.1937 H   0  0  0  0  0  0  0  0  0  0  0  0
   -2.2207   -0.0202    0.1047 H   0  0  0  0  0  0  0  0  0  0  0  0
   -0.1383    2.5059   -0.0390 H   0  0  0  0  0  0  0  0  0  0  0  0
    2.6937   -1.7781   -0.6388 C   0  0  0  0  0  0  0  0  0  0  0  0
    1.8455   -0.8153   -0.3112 C   0  0  0  0  0  0  0  0  0  0  0  0
    0.7160   -0.9154    0.6703 C   0  0  0  0  0  3  0  0  0  0  0  0
    0.5468   -2.2676    1.3448 C   0  0  0  0  0  0  0  0  0  0  0  0
    3.4806   -1.6070   -1.3625 H   0  0  0  0  0  0  0  0  0  0  0  0
    2.6394   -2.7686   -0.2029 H   0  0  0  0  0  0  0  0  0  0  0  0
    1.9557    0.1563   -0.7863 H   0  0  0  0  0  0  0  0  0  0  0  0
    0.8557   -0.1390    1.4305 H   0  0  0  0  0  0  0  0  0  0  0  0
    1.4395   -2.5431    1.9096 H   0  0  0  0  0  0  0  0  0  0  0  0
   -0.2945   -2.2471    2.0384 H   0  0  0  0  0  0  0  0  0  0  0  0
    0.3577   -3.0547    0.6124 H   0  0  0  0  0  0  0  0  0  0  0  0
  1  2  1  0
  1  4  1  0
  1  5  1  0
  1  6  1  0
  2  3  1  0
  2  7  1  0
  2  8  1  0
  3  9  1  0
 10 11  2  3
 10 14  1  0
 10 15  1  0
 11 12  1  0
 11 16  1  0
 12 13  1  0
 12 17  1  0
 13 18  1  0
 13 19  1  0
 13 20  1  0
M  RAD  1  12   2
M  END
>  <reaction>  (6) 
rxn_1869

>  <mol_properties>  (6) 
{"1": {"label": "*3", "atom_type": "Cs"}, "2": {"label": "*4", "atom_type": "S2s"}, "6": {"label": "*2", "atom_type": "H0"}, "10": {"label": "*0", "atom_type": "Cd"}, "11": {"label": "*1", "atom_type": "Cs"}}

>  <type>  (6) 
unop_2

>  <geom_source>  (6) 
Heuristics

$$$$

     RDKit          3D

 20 18  0  0  0  0  0  0  0  0999 V2000
   -1.3467    0.1305   -2.2470 C   0  0  0  0  0  0  0  0  0  0  0  0
   -1.3467    0.1305   -0.7284 C   0  0  0  0  0  0  0  0  0  0  0  0
   -1.3467    1.7879    0.0166 S   0  0  0  0  0  0  0  0  0  0  0  0
   -0.4401    0.5959   -2.6378 H   0  0  0  0  0  0  0  0  0  0  0  0
   -2.2027    0.6817   -2.6372 H   0  0  0  0  0  0  0  0  0  0  0  0
   -1.3898   -0.8928   -2.6273 H   0  0  0  0  0  0  0  0  0  0  0  0
   -0.3348   -0.5488   -0.2543 H   0  0  0  0  0  0  0  0  0  0  0  0
   -2.2543   -0.3365   -0.3432 H   0  0  0  0  0  0  0  0  0  0  0  0
   -0.1719    2.1896   -0.4869 H   0  0  0  0  0  0  0  0  0  0  0  0
    2.2796   -0.6193    2.0780 C   0  0  0  0  0  0  0  0  0  0  0  0
    1.0688   -0.6326    1.5418 C   0  0  0  0  0  0  0  0  0  0  0  0
    0.6824   -1.2317    0.2224 C   0  0  0  0  0  3  0  0  0  0  0  0
    1.8106   -1.8838   -0.5611 C   0  0  0  0  0  0  0  0  0  0  0  0
    2.4589   -0.1593    3.0415 H   0  0  0  0  0  0  0  0  0  0  0  0
    3.1354   -1.0626    1.5827 H   0  0  0  0  0  0  0  0  0  0  0  0
    0.2533   -0.1697    2.0919 H   0  0  0  0  0  0  0  0  0  0  0  0
   -0.1136   -1.9630    0.4005 H   0  0  0  0  0  0  0  0  0  0  0  0
    2.2620   -2.7031    0.0019 H   0  0  0  0  0  0  0  0  0  0  0  0
    1.4386   -2.2901   -1.5023 H   0  0  0  0  0  0  0  0  0  0  0  0
    2.5979   -1.1645   -0.7950 H   0  0  0  0  0  0  0  0  0  0  0  0
  1  2  1  0
  1  4  1  0
  1  5  1  0
  1  6  1  0
  2  3  1  0
  2  7  1  0
  2  8  1  0
  3  9  1  0
 10 11  2  3
 10 14  1  0
 10 15  1  0
 11 12  1  0
 11 16  1  0
 12 13  1  0
 12 17  1  0
 13 18  1  0
 13 19  1  0
 13 20  1  0
M  RAD  1  12   2
M  END
>  <reaction>  (7) 
rxn_1869

>  <mol_properties>  (7) 
{"1": {"label": "*3", "atom_type": "Cs"}, "2": {"label": "*4", "atom_type": "S2s"}, "6": {"label": "*2", "atom_type": "H0"}, "10": {"label": "*0", "atom_type": "Cd"}, "11": {"label": "*1", "atom_type": "Cs"}}

>  <type>  (7) 
unop_3

>  <geom_source>  (7) 
Heuristics

$$$$

     RDKit          3D

 20 18  0  0  0  0  0  0  0  0999 V2000
   -0.7872    0.5951   -2.1108 C   0  0  0  0  0  0  0  0  0  0  0  0
   -0.7872    0.5951   -0.5922 C   0  0  0  0  0  0  0  0  0  0  0  0
   -0.7872    2.2524    0.1528 S   0  0  0  0  0  0  0  0  0  0  0  0
    0.1194    1.0605   -2.5016 H   0  0  0  0  0  0  0  0  0  0  0  0
   -1.6432    1.1463   -2.5009 H   0  0  0  0  0  0  0  0  0  0  0  0
   -0.8303   -0.4283   -2.4911 H   0  0  0  0  0  0  0  0  0  0  0  0
    0.2247   -0.0843   -0.1180 H   0  0  0  0  0  0  0  0  0  0  0  0
   -1.6948    0.1280   -0.2070 H   0  0  0  0  0  0  0  0  0  0  0  0
    0.3876    2.6541   -0.3507 H   0  0  0  0  0  0  0  0  0  0  0  0
    0.5233   -3.1836    0.4767 C   0  0  0  0  0  0  0  0  0  0  0  0
    1.1290   -2.1783   -0.1367 C   0  0  0  0  0  0  0  0  0  0  0  0
    1.2419   -0.7672    0.3586 C   0  0  0  0  0  3  0  0  0  0  0  0
    0.5878   -0.4857    1.7020 C   0  0  0  0  0  0  0  0  0  0  0  0
    0.4955   -4.1719    0.0356 H   0  0  0  0  0  0  0  0  0  0  0  0
    0.0341   -3.0642    1.4361 H   0  0  0  0  0  0  0  0  0  0  0  0
    1.6007   -2.3663   -1.0980 H   0  0  0  0  0  0  0  0  0  0  0  0
    2.3050   -0.5064    0.4041 H   0  0  0  0  0  0  0  0  0  0  0  0
    1.0246   -1.1001    2.4918 H   0  0  0  0  0  0  0  0  0  0  0  0
    0.7196    0.5603    1.9807 H   0  0  0  0  0  0  0  0  0  0  0  0
   -0.4839   -0.6916    1.6717 H   0  0  0  0  0  0  0  0  0  0  0  0
  1  2  1  0
  1  4  1  0
  1  5  1  0
  1  6  1  0
  2  3  1  0
  2  7  1  0
  2  8  1  0
  3  9  1  0
 10 11  2  3
 10 14  1  0
 10 15  1  0
 11 12  1  0
 11 16  1  0
 12 13  1  0
 12 17  1  0
 13 18  1  0
 13 19  1  0
 13 20  1  0
M  RAD  1  12   2
M  END
>  <reaction>  (8) 
rxn_1869

>  <mol_properties>  (8) 
{"1": {"label": "*3", "atom_type": "Cs"}, "2": {"label": "*4", "atom_type": "S2s"}, "6": {"label": "*2", "atom_type": "H0"}, "10": {"label": "*0", "atom_type": "Cd"}, "11": {"label": "*1", "atom_type": "Cs"}}

>  <type>  (8) 
unop_4

>  <geom_source>  (8) 
Heuristics

$$$$

     RDKit          3D

 20 18  0  0  0  0  0  0  0  0999 V2000
   -1.2344    0.0575   -2.3414 C   0  0  0  0  0  0  0  0  0  0  0  0
   -1.2344    0.0575   -0.8227 C   0  0  0  0  0  0  0  0  0  0  0  0
   -1.2344    1.7148   -0.0777 S   0  0  0  0  0  0  0  0  0  0  0  0
   -0.3278    0.5229   -2.7321 H   0  0  0  0  0  0  0  0  0  0  0  0
   -2.0904    0.6087   -2.7315 H   0  0  0  0  0  0  0  0  0  0  0  0
   -1.2775   -0.9659   -2.7217 H   0  0  0  0  0  0  0  0  0  0  0  0
   -0.2225   -0.6219   -0.3486 H   0  0  0  0  0  0  0  0  0  0  0  0
   -2.1420   -0.4096   -0.4376 H   0  0  0  0  0  0  0  0  0  0  0  0
   -0.0596    2.1165   -0.5813 H   0  0  0  0  0  0  0  0  0  0  0  0
    1.6706   -0.8231    2.4454 C   0  0  0  0  0  0  0  0  0  0  0  0
    0.7263   -1.2588    1.6255 C   0  0  0  0  0  0  0  0  0  0  0  0
    0.7947   -1.3048    0.1280 C   0  0  0  0  0  3  0  0  0  0  0  0
    2.0876   -0.7949   -0.4888 C   0  0  0  0  0  0  0  0  0  0  0  0
    1.5258   -0.8303    3.5183 H   0  0  0  0  0  0  0  0  0  0  0  0
    2.6194   -0.4444    2.0842 H   0  0  0  0  0  0  0  0  0  0  0  0
   -0.2030   -1.6261    2.0539 H   0  0  0  0  0  0  0  0  0  0  0  0
    0.6171   -2.3382   -0.1894 H   0  0  0  0  0  0  0  0  0  0  0  0
    2.9459   -1.3764   -0.1469 H   0  0  0  0  0  0  0  0  0  0  0  0
    2.0474   -0.8658   -1.5762 H   0  0  0  0  0  0  0  0  0  0  0  0
    2.2658    0.2501   -0.2278 H   0  0  0  0  0  0  0  0  0  0  0  0
  1  2  1  0
  1  4  1  0
  1  5  1  0
  1  6  1  0
  2  3  1  0
  2  7  1  0
  2  8  1  0
  3  9  1  0
 10 11  2  3
 10 14  1  0
 10 15  1  0
 11 12  1  0
 11 16  1  0
 12 13  1  0
 12 17  1  0
 13 18  1  0
 13 19  1  0
 13 20  1  0
M  RAD  1  12   2
M  END
>  <reaction>  (9) 
rxn_1869

>  <mol_properties>  (9) 
{"1": {"label": "*3", "atom_type": "Cs"}, "2": {"label": "*4", "atom_type": "S2s"}, "6": {"label": "*2", "atom_type": "H0"}, "10": {"label": "*0", "atom_type": "Cd"}, "11": {"label": "*1", "atom_type": "Cs"}}

>  <type>  (9) 
unop_5

>  <geom_source>  (9) 
Heuristics

$$$$

     RDKit          3D

 20 18  0  0  0  0  0  0  0  0999 V2000
   -0.7506    0.4542   -2.2922 C   0  0  0  0  0  0  0  0  0  0  0  0
   -0.7506    0.4542   -0.7736 C   0  0  0  0  0  0  0  0  0  0  0  0
   -0.7506    2.1116   -0.0286 S   0  0  0  0  0  0  0  0  0  0  0  0
    0.1560    0.9197   -2.6830 H   0  0  0  0  0  0  0  0  0  0  0  0
   -1.6066    1.0054   -2.6824 H   0  0  0  0  0  0  0  0  0  0  0  0
   -0.7937   -0.5691   -2.6725 H   0  0  0  0  0  0  0  0  0  0  0  0
    0.2613   -0.2251   -0.2995 H   0  0  0  0  0  0  0  0  0  0  0  0
   -1.6582   -0.0128   -0.3885 H   0  0  0  0  0  0  0  0  0  0  0  0
    0.4242    2.5133   -0.5321 H   0  0  0  0  0  0  0  0  0  0  0  0
    0.2087   -2.8465    1.3884 C   0  0  0  0  0  0  0  0  0  0  0  0
    0.8446   -2.3336    0.3461 C   0  0  0  0  0  0  0  0  0  0  0  0
    1.2785   -0.9080    0.1772 C   0  0  0  0  0  3  0  0  0  0  0  0
    0.9441    0.0241    1.3310 C   0  0  0  0  0  0  0  0  0  0  0  0
   -0.0633   -3.8940    1.4168 H   0  0  0  0  0  0  0  0  0  0  0  0
   -0.0650   -2.2483    2.2495 H   0  0  0  0  0  0  0  0  0  0  0  0
    1.0897   -2.9895   -0.4855 H   0  0  0  0  0  0  0  0  0  0  0  0
    2.3593   -0.9000   -0.0020 H   0  0  0  0  0  0  0  0  0  0  0  0
    1.4149   -0.3085    2.2582 H   0  0  0  0  0  0  0  0  0  0  0  0
    1.2956    1.0348    1.1213 H   0  0  0  0  0  0  0  0  0  0  0  0
   -0.1332    0.0729    1.5013 H   0  0  0  0  0  0  0  0  0  0  0  0
  1  2  1  0
  1  4  1  0
  1  5  1  0
  1  6  1  0
  2  3  1  0
  2  7  1  0
  2  8  1  0
  3  9  1  0
 10 11  2  3
 10 14  1  0
 10 15  1  0
 11 12  1  0
 11 16  1  0
 12 13  1  0
 12 17  1  0
 13 18  1  0
 13 19  1  0
 13 20  1  0
M  RAD  1  12   2
M  END
>  <reaction>  (10) 
rxn_1869

>  <mol_properties>  (10) 
{"1": {"label": "*3", "atom_type": "Cs"}, "2": {"label": "*4", "atom_type": "S2s"}, "6": {"label": "*2", "atom_type": "H0"}, "10": {"label": "*0", "atom_type": "Cd"}, "11": {"label": "*1", "atom_type": "Cs"}}

>  <type>  (10) 
unop_6

>  <geom_source>  (10) 
Heuristics

$$$$

     RDKit          3D

 20 18  0  0  0  0  0  0  0  0999 V2000
   -0.8234    0.2622   -2.4162 C   0  0  0  0  0  0  0  0  0  0  0  0
   -0.8234    0.2622   -0.8976 C   0  0  0  0  0  0  0  0  0  0  0  0
   -0.8234    1.9196   -0.1526 S   0  0  0  0  0  0  0  0  0  0  0  0
    0.0832    0.7276   -2.8070 H   0  0  0  0  0  0  0  0  0  0  0  0
   -1.6794    0.8134   -2.8063 H   0  0  0  0  0  0  0  0  0  0  0  0
   -0.8665   -0.7611   -2.7965 H   0  0  0  0  0  0  0  0  0  0  0  0
    0.1885   -0.4171   -0.4234 H   0  0  0  0  0  0  0  0  0  0  0  0
   -1.7310   -0.2048   -0.5124 H   0  0  0  0  0  0  0  0  0  0  0  0
    0.3514    2.3213   -0.6561 H   0  0  0  0  0  0  0  0  0  0  0  0
    0.3118   -2.1607    2.1616 C   0  0  0  0  0  0  0  0  0  0  0  0
    0.6637   -2.2230    0.8864 C   0  0  0  0  0  0  0  0  0  0  0  0
    1.2057   -1.1000    0.0532 C   0  0  0  0  0  3  0  0  0  0  0  0
    1.3579    0.2349    0.7649 C   0  0  0  0  0  0  0  0  0  0  0  0
   -0.0711   -3.0314    2.6787 H   0  0  0  0  0  0  0  0  0  0  0  0
    0.3902   -1.2467    2.7382 H   0  0  0  0  0  0  0  0  0  0  0  0
    0.5598   -3.1718    0.3659 H   0  0  0  0  0  0  0  0  0  0  0  0
    2.1735   -1.4138   -0.3531 H   0  0  0  0  0  0  0  0  0  0  0  0
    2.0398    0.1559    1.6138 H   0  0  0  0  0  0  0  0  0  0  0  0
    1.7565    0.9885    0.0848 H   0  0  0  0  0  0  0  0  0  0  0  0
    0.3980    0.5961    1.1391 H   0  0  0  0  0  0  0  0  0  0  0  0
  1  2  1  0
  1  4  1  0
  1  5  1  0
  1  6  1  0
  2  3  1  0
  2  7  1  0
  2  8  1  0
  3  9  1  0
 10 11  2  3
 10 14  1  0
 10 15  1  0
 11 12  1  0
 11 16  1  0
 12 13  1  0
 12 17  1  0
 13 18  1  0
 13 19  1  0
 13 20  1  0
M  RAD  1  12   2
M  END
>  <reaction>  (11) 
rxn_1869

>  <mol_properties>  (11) 
{"1": {"label": "*3", "atom_type": "Cs"}, "2": {"label": "*4", "atom_type": "S2s"}, "6": {"label": "*2", "atom_type": "H0"}, "10": {"label": "*0", "atom_type": "Cd"}, "11": {"label": "*1", "atom_type": "Cs"}}

>  <type>  (11) 
unop_7

>  <geom_source>  (11) 
Heuristics

$$$$

     RDKit          3D

 20 18  0  0  0  0  0  0  0  0999 V2000
   -1.4330    0.1939   -2.0341 C   0  0  0  0  0  0  0  0  0  0  0  0
   -1.4330    0.1939   -0.5155 C   0  0  0  0  0  0  0  0  0  0  0  0
   -1.4330    1.8512    0.2295 S   0  0  0  0  0  0  0  0  0  0  0  0
   -0.5264    0.6593   -2.4249 H   0  0  0  0  0  0  0  0  0  0  0  0
   -2.2890    0.7451   -2.4243 H   0  0  0  0  0  0  0  0  0  0  0  0
   -1.4761   -0.8295   -2.4144 H   0  0  0  0  0  0  0  0  0  0  0  0
   -0.4211   -0.4855   -0.0414 H   0  0  0  0  0  0  0  0  0  0  0  0
   -2.3406   -0.2732   -0.1304 H   0  0  0  0  0  0  0  0  0  0  0  0
   -0.2582    2.2529   -0.2740 H   0  0  0  0  0  0  0  0  0  0  0  0
    3.0266   -0.5587    0.7366 C   0  0  0  0  0  0  0  0  0  0  0  0
    1.7513   -0.2270    0.6042 C   0  0  0  0  0  0  0  0  0  0  0  0
    0.5961   -1.1684    0.4353 C   0  0  0  0  0  3  0  0  0  0  0  0
    0.9482   -2.6474    0.4169 C   0  0  0  0  0  0  0  0  0  0  0  0
    3.7915    0.1984    0.8537 H   0  0  0  0  0  0  0  0  0  0  0  0
    3.3582   -1.5903    0.7336 H   0  0  0  0  0  0  0  0  0  0  0  0
    1.4862    0.8273    0.6157 H   0  0  0  0  0  0  0  0  0  0  0  0
   -0.1242   -0.9707    1.2366 H   0  0  0  0  0  0  0  0  0  0  0  0
    1.4292   -2.9518    1.3486 H   0  0  0  0  0  0  0  0  0  0  0  0
    0.0505   -3.2535    0.2906 H   0  0  0  0  0  0  0  0  0  0  0  0
    1.6290   -2.8824   -0.4036 H   0  0  0  0  0  0  0  0  0  0  0  0
  1  2  1  0
  1  4  1  0
  1  5  1  0
  1  6  1  0
  2  3  1  0
  2  7  1  0
  2  8  1  0
  3  9  1  0
 10 11  2  3
 10 14  1  0
 10 15  1  0
 11 12  1  0
 11 16  1  0
 12 13  1  0
 12 17  1  0
 13 18  1  0
 13 19  1  0
 13 20  1  0
M  RAD  1  12   2
M  END
>  <reaction>  (12) 
rxn_1869

>  <mol_properties>  (12) 
{"1": {"label": "*3", "atom_type": "Cs"}, "2": {"label": "*4", "atom_type": "S2s"}, "6": {"label": "*2", "atom_type": "H0"}, "10": {"label": "*0", "atom_type": "Cd"}, "11": {"label": "*1", "atom_type": "Cs"}}

>  <type>  (12) 
unop_8

>  <geom_source>  (12) 
Heuristics

$$$$

     RDKit          3D

 20 18  0  0  0  0  0  0  0  0999 V2000
   -0.9240    0.6480   -1.9283 C   0  0  0  0  0  0  0  0  0  0  0  0
   -0.9240    0.6480   -0.4096 C   0  0  0  0  0  0  0  0  0  0  0  0
   -0.9240    2.3053    0.3354 S   0  0  0  0  0  0  0  0  0  0  0  0
   -0.0174    1.1134   -2.3190 H   0  0  0  0  0  0  0  0  0  0  0  0
   -1.7800    1.1992   -2.3184 H   0  0  0  0  0  0  0  0  0  0  0  0
   -0.9671   -0.3754   -2.3086 H   0  0  0  0  0  0  0  0  0  0  0  0
    0.0879   -0.0314    0.0645 H   0  0  0  0  0  0  0  0  0  0  0  0
   -1.8316    0.1809   -0.0245 H   0  0  0  0  0  0  0  0  0  0  0  0
    0.2508    2.7070   -0.1681 H   0  0  0  0  0  0  0  0  0  0  0  0
    1.1725   -3.0883   -0.3126 C   0  0  0  0  0  0  0  0  0  0  0  0
    1.4401   -1.7976   -0.4403 C   0  0  0  0  0  0  0  0  0  0  0  0
    1.1051   -0.7143    0.5412 C   0  0  0  0  0  3  0  0  0  0  0  0
    0.3862   -1.1666    1.8023 C   0  0  0  0  0  0  0  0  0  0  0  0
    1.4565   -3.7964   -1.0807 H   0  0  0  0  0  0  0  0  0  0  0  0
    0.6634   -3.4893    0.5558 H   0  0  0  0  0  0  0  0  0  0  0  0
    1.9538   -1.4612   -1.3375 H   0  0  0  0  0  0  0  0  0  0  0  0
    2.0341   -0.1998    0.8106 H   0  0  0  0  0  0  0  0  0  0  0  0
    0.9866   -1.8843    2.3648 H   0  0  0  0  0  0  0  0  0  0  0  0
    0.1842   -0.3160    2.4542 H   0  0  0  0  0  0  0  0  0  0  0  0
   -0.5682   -1.6410    1.5657 H   0  0  0  0  0  0  0  0  0  0  0  0
  1  2  1  0
  1  4  1  0
  1  5  1  0
  1  6  1  0
  2  3  1  0
  2  7  1  0
  2  8  1  0
  3  9  1  0
 10 11  2  3
 10 14  1  0
 10 15  1  0
 11 12  1  0
 11 16  1  0
 12 13  1  0
 12 17  1  0
 13 18  1  0
 13 19  1  0
 13 20  1  0
M  RAD  1  12   2
M  END
>  <reaction>  (13) 
rxn_1869

>  <mol_properties>  (13) 
{"1": {"label": "*3", "atom_type": "Cs"}, "2": {"label": "*4", "atom_type": "S2s"}, "6": {"label": "*2", "atom_type": "H0"}, "10": {"label": "*0", "atom_type": "Cd"}, "11": {"label": "*1", "atom_type": "Cs"}}

>  <type>  (13) 
unop_9

>  <geom_source>  (13) 
Heuristics

$$$$

     RDKit          3D

 20 18  0  0  0  0  0  0  0  0999 V2000
   -1.4165    0.2927   -1.8941 C   0  0  0  0  0  0  0  0  0  0  0  0
   -1.4165    0.2927   -0.3754 C   0  0  0  0  0  0  0  0  0  0  0  0
   -1.4165    1.9500    0.3696 S   0  0  0  0  0  0  0  0  0  0  0  0
   -0.5099    0.7581   -2.2848 H   0  0  0  0  0  0  0  0  0  0  0  0
   -2.2725    0.8439   -2.2842 H   0  0  0  0  0  0  0  0  0  0  0  0
   -1.4596   -0.7307   -2.2744 H   0  0  0  0  0  0  0  0  0  0  0  0
   -0.4046   -0.3867    0.0987 H   0  0  0  0  0  0  0  0  0  0  0  0
   -2.3241   -0.1744    0.0097 H   0  0  0  0  0  0  0  0  0  0  0  0
   -0.2417    2.3517   -0.1340 H   0  0  0  0  0  0  0  0  0  0  0  0
    3.0518   -1.0209   -0.0707 C   0  0  0  0  0  0  0  0  0  0  0  0
    1.8759   -0.4308    0.0801 C   0  0  0  0  0  0  0  0  0  0  0  0
    0.6126   -1.0696    0.5753 C   0  0  0  0  0  3  0  0  0  0  0  0
    0.7161   -2.5434    0.9344 C   0  0  0  0  0  0  0  0  0  0  0  0
    3.9097   -0.4716   -0.4373 H   0  0  0  0  0  0  0  0  0  0  0  0
    3.2069   -2.0676    0.1631 H   0  0  0  0  0  0  0  0  0  0  0  0
    1.7886    0.6228   -0.1731 H   0  0  0  0  0  0  0  0  0  0  0  0
    0.2621   -0.5020    1.4444 H   0  0  0  0  0  0  0  0  0  0  0  0
    1.4477   -2.7075    1.7279 H   0  0  0  0  0  0  0  0  0  0  0  0
   -0.2457   -2.9213    1.2830 H   0  0  0  0  0  0  0  0  0  0  0  0
    1.0178   -3.1411    0.0720 H   0  0  0  0  0  0  0  0  0  0  0  0
  1  2  1  0
  1  4  1  0
  1  5  1  0
  1  6  1  0
  2  3  1  0
  2  7  1  0
  2  8  1  0
  3  9  1  0
 10 11  2  3
 10 14  1  0
 10 15  1  0
 11 12  1  0
 11 16  1  0
 12 13  1  0
 12 17  1  0
 13 18  1  0
 13 19  1  0
 13 20  1  0
M  RAD  1  12   2
M  END
>  <reaction>  (14) 
rxn_1869

>  <mol_properties>  (14) 
{"1": {"label": "*3", "atom_type": "Cs"}, "2": {"label": "*4", "atom_type": "S2s"}, "6": {"label": "*2", "atom_type": "H0"}, "10": {"label": "*0", "atom_type": "Cd"}, "11": {"label": "*1", "atom_type": "Cs"}}

>  <type>  (14) 
unop_10

>  <geom_source>  (14) 
Heuristics

$$$$

     RDKit          3D

 20 18  0  0  0  0  0  0  0  0999 V2000
   -1.0061    0.0880   -2.4347 C   0  0  0  0  0  0  0  0  0  0  0  0
   -1.0061    0.0880   -0.9161 C   0  0  0  0  0  0  0  0  0  0  0  0
   -1.0061    1.7454   -0.1711 S   0  0  0  0  0  0  0  0  0  0  0  0
   -0.0995    0.5535   -2.8255 H   0  0  0  0  0  0  0  0  0  0  0  0
   -1.8621    0.6392   -2.8248 H   0  0  0  0  0  0  0  0  0  0  0  0
   -1.0492   -0.9353   -2.8150 H   0  0  0  0  0  0  0  0  0  0  0  0
    0.0058   -0.5913   -0.4419 H   0  0  0  0  0  0  0  0  0  0  0  0
   -1.9137   -0.3790   -0.5309 H   0  0  0  0  0  0  0  0  0  0  0  0
    0.1687    2.1471   -0.6746 H   0  0  0  0  0  0  0  0  0  0  0  0
    0.8578   -1.3486    2.5520 C   0  0  0  0  0  0  0  0  0  0  0  0
    0.6148   -1.8586    1.3541 C   0  0  0  0  0  0  0  0  0  0  0  0
    1.0230   -1.2742    0.0347 C   0  0  0  0  0  3  0  0  0  0  0  0
    1.7921    0.0356    0.1035 C   0  0  0  0  0  0  0  0  0  0  0  0
    0.5198   -1.8483    3.4510 H   0  0  0  0  0  0  0  0  0  0  0  0
    1.3993   -0.4195    2.6850 H   0  0  0  0  0  0  0  0  0  0  0  0
    0.0657   -2.7948    1.2912 H   0  0  0  0  0  0  0  0  0  0  0  0
    1.6173   -2.0232   -0.5002 H   0  0  0  0  0  0  0  0  0  0  0  0
    2.7223   -0.0801    0.6632 H   0  0  0  0  0  0  0  0  0  0  0  0
    2.0459    0.3840   -0.8983 H   0  0  0  0  0  0  0  0  0  0  0  0
    1.2034    0.8157    0.5900 H   0  0  0  0  0  0  0  0  0  0  0  0
  1  2  1  0
  1  4  1  0
  1  5  1  0
  1  6  1  0
  2  3  1  0
  2  7  1  0
  2  8  1  0
  3  9  1  0
 10 11  2  3
 10 14  1  0
 10 15  1  0
 11 12  1  0
 11 16  1  0
 12 13  1  0
 12 17  1  0
 13 18  1  0
 13 19  1  0
 13 20  1  0
M  RAD  1  12   2
M  END
>  <reaction>  (15) 
rxn_1869

>  <mol_properties>  (15) 
{"1": {"label": "*3", "atom_type": "Cs"}, "2": {"label": "*4", "atom_type": "S2s"}, "6": {"label": "*2", "atom_type": "H0"}, "10": {"label": "*0", "atom_type": "Cd"}, "11": {"label": "*1", "atom_type": "Cs"}}

>  <type>  (15) 
unop_11

>  <geom_source>  (15) 
Heuristics

$$$$

     RDKit          3D

 20 18  0  0  0  0  0  0  0  0999 V2000
   -1.1260    0.5915   -1.8076 C   0  0  0  0  0  0  0  0  0  0  0  0
   -1.1260    0.5915   -0.2890 C   0  0  0  0  0  0  0  0  0  0  0  0
   -1.1260    2.2488    0.4560 S   0  0  0  0  0  0  0  0  0  0  0  0
   -0.2194    1.0569   -2.1984 H   0  0  0  0  0  0  0  0  0  0  0  0
   -1.9820    1.1427   -2.1977 H   0  0  0  0  0  0  0  0  0  0  0  0
   -1.1691   -0.4319   -2.1879 H   0  0  0  0  0  0  0  0  0  0  0  0
   -0.1141   -0.0879    0.1851 H   0  0  0  0  0  0  0  0  0  0  0  0
   -2.0336    0.1244    0.0962 H   0  0  0  0  0  0  0  0  0  0  0  0
    0.0488    2.6505   -0.0475 H   0  0  0  0  0  0  0  0  0  0  0  0
    1.9891   -2.5694   -0.7364 C   0  0  0  0  0  0  0  0  0  0  0  0
    1.6928   -1.3009   -0.4977 C   0  0  0  0  0  0  0  0  0  0  0  0
    0.9031   -0.7708    0.6618 C   0  0  0  0  0  3  0  0  0  0  0  0
    0.4024   -1.8125    1.6497 C   0  0  0  0  0  0  0  0  0  0  0  0
    2.5682   -2.8539   -1.6058 H   0  0  0  0  0  0  0  0  0  0  0  0
    1.6692   -3.3704   -0.0805 H   0  0  0  0  0  0  0  0  0  0  0  0
    2.0449   -0.5462   -1.1965 H   0  0  0  0  0  0  0  0  0  0  0  0
    1.5207   -0.0328    1.1853 H   0  0  0  0  0  0  0  0  0  0  0  0
    1.2312   -2.3636    2.0984 H   0  0  0  0  0  0  0  0  0  0  0  0
   -0.1586   -1.3379    2.4555 H   0  0  0  0  0  0  0  0  0  0  0  0
   -0.2561   -2.5351    1.1638 H   0  0  0  0  0  0  0  0  0  0  0  0
  1  2  1  0
  1  4  1  0
  1  5  1  0
  1  6  1  0
  2  3  1  0
  2  7  1  0
  2  8  1  0
  3  9  1  0
 10 11  2  3
 10 14  1  0
 10 15  1  0
 11 12  1  0
 11 16  1  0
 12 13  1  0
 12 17  1  0
 13 18  1  0
 13 19  1  0
 13 20  1  0
M  RAD  1  12   2
M  END
>  <reaction>  (16) 
rxn_1869

>  <mol_properties>  (16) 
{"1": {"label": "*3", "atom_type": "Cs"}, "2": {"label": "*4", "atom_type": "S2s"}, "6": {"label": "*2", "atom_type": "H0"}, "10": {"label": "*0", "atom_type": "Cd"}, "11": {"label": "*1", "atom_type": "Cs"}}

>  <type>  (16) 
unop_12

>  <geom_source>  (16) 
Heuristics

$$$$

     RDKit          3D

 20 18  0  0  0  0  0  0  0  0999 V2000
   -2.1210   -1.6570   -1.1788 S   0  0  0  0  0  0  0  0  0  0  0  0
    0.8665    0.3311   -0.3898 C   0  0  0  0  0  3  0  0  0  0  0  0
    1.3978    1.6428    0.1784 C   0  0  0  0  0  0  0  0  0  0  0  0
   -2.5938   -0.1341    1.0666 C   0  0  0  0  0  0  0  0  0  0  0  0
    1.7029   -0.8372    0.0503 C   0  0  0  0  0  0  0  0  0  0  0  0
   -1.7121   -0.1990   -0.1702 C   0  0  0  0  0  0  0  0  0  0  0  0
    2.9398   -1.0337   -0.4156 C   0  0  0  0  0  0  0  0  0  0  0  0
    0.8395    0.3821   -1.4999 H   0  0  0  0  0  0  0  0  0  0  0  0
   -0.4235    0.1486    0.0641 H   0  0  0  0  0  0  0  0  0  0  0  0
    0.7284    2.4737   -0.1278 H   0  0  0  0  0  0  0  0  0  0  0  0
    2.4192    1.8502   -0.2054 H   0  0  0  0  0  0  0  0  0  0  0  0
    1.4224    1.5972    1.2879 H   0  0  0  0  0  0  0  0  0  0  0  0
   -3.6609   -0.0364    0.7748 H   0  0  0  0  0  0  0  0  0  0  0  0
   -2.3052    0.7461    1.6779 H   0  0  0  0  0  0  0  0  0  0  0  0
   -2.4587   -1.0520    1.6762 H   0  0  0  0  0  0  0  0  0  0  0  0
    1.2752   -1.5567    0.7415 H   0  0  0  0  0  0  0  0  0  0  0  0
   -1.8312    0.7237   -0.7767 H   0  0  0  0  0  0  0  0  0  0  0  0
    3.5122   -1.8959   -0.0892 H   0  0  0  0  0  0  0  0  0  0  0  0
    3.3866   -0.3432   -1.1245 H   0  0  0  0  0  0  0  0  0  0  0  0
   -3.3844   -1.1503   -1.5397 H   0  0  0  0  0  0  0  0  0  0  0  0
  1  6  1  0
  1 20  1  0
  2  3  1  0
  2  5  1  0
  2  8  1  0
  3 10  1  0
  3 11  1  0
  3 12  1  0
  4  6  1  0
  4 13  1  0
  4 14  1  0
  4 15  1  0
  5  7  2  3
  5 16  1  0
  6  9  1  0
  6 17  1  0
  7 18  1  0
  7 19  1  0
M  RAD  1   2   2
M  END
>  <reaction>  (17) 
rxn_1869

>  <mol_properties>  (17) 
{"1": {"label": "*3", "atom_type": "Cs"}, "2": {"label": "*4", "atom_type": "S2s"}, "6": {"label": "*2", "atom_type": "H0"}, "10": {"label": "*0", "atom_type": "Cd"}, "11": {"label": "*1", "atom_type": "Cs"}}

>  <type>  (17) 
unop_13

>  <geom_source>  (17) 
AutoTST

$$$$
