
     RDKit          3D

  5  4  0  0  0  0  0  0  0  0999 V2000
    0.0000    0.0000    0.0000 C   0  0  0  0  0  0  0  0  0  0  0  0
   -0.6486   -0.7720   -0.4113 H   0  0  0  0  0  0  0  0  0  0  0  0
   -0.3482    0.9787   -0.3267 H   0  0  0  0  0  0  0  0  0  0  0  0
   -0.0223   -0.0487    1.0876 H   0  0  0  0  0  0  0  0  0  0  0  0
    1.0191   -0.1580   -0.3496 H   0  0  0  0  0  0  0  0  0  0  0  0
  1  2  1  0
  1  3  1  0
  1  4  1  0
  1  5  1  0
M  END
>  <reaction>  (1) 
rxn_840

>  <mol_properties>  (1) 
{"0": {"label": "donator", "atom_type": "Cs"}, "1": {"label": "d_hydrogen", "atom_type": "H0"}}

>  <type>  (1) 
r1h

$$$$

     RDKit          3D

 17 17  0  0  0  0  0  0  0  0999 V2000
    2.7069    0.2860   -0.1817 C   0  0  0  0  0  0  0  0  0  0  0  0
    1.6304   -0.7245    0.0085 C   0  0  0  0  0  0  0  0  0  0  0  0
    1.4786   -1.8800   -0.7837 C   0  0  0  0  0  0  0  0  0  0  0  0
    0.4231   -2.7891   -0.5312 C   0  0  0  0  0  3  0  0  0  0  0  0
    0.2582   -3.9235   -1.2940 C   0  0  0  0  0  0  0  0  0  0  0  0
    1.1348   -4.2030   -2.3401 C   0  0  0  0  0  0  0  0  0  0  0  0
    2.1804   -3.3260   -2.6093 C   0  0  0  0  0  0  0  0  0  0  0  0
    2.3549   -2.1866   -1.8513 C   0  0  0  0  0  0  0  0  0  0  0  0
    2.6698    0.7343   -1.1808 H   0  0  0  0  0  0  0  0  0  0  0  0
    3.7029   -0.1584   -0.0766 H   0  0  0  0  0  0  0  0  0  0  0  0
    2.6250    1.0917    0.5463 H   0  0  0  0  0  0  0  0  0  0  0  0
    0.9136   -0.5677    0.8059 H   0  0  0  0  0  0  0  0  0  0  0  0
   -0.2629   -2.5783    0.2811 H   0  0  0  0  0  0  0  0  0  0  0  0
   -0.5582   -4.6017   -1.0785 H   0  0  0  0  0  0  0  0  0  0  0  0
    1.0033   -5.0952   -2.9384 H   0  0  0  0  0  0  0  0  0  0  0  0
    2.8650   -3.5382   -3.4214 H   0  0  0  0  0  0  0  0  0  0  0  0
    3.1750   -1.5169   -2.0772 H   0  0  0  0  0  0  0  0  0  0  0  0
  1  2  1  0
  1  9  1  0
  1 10  1  0
  1 11  1  0
  2  3  2  3
  2 12  1  0
  3  4  1  0
  3  8  1  0
  4  5  1  0
  4 13  1  0
  5  6  2  0
  5 14  1  0
  6  7  1  0
  6 15  1  0
  7  8  2  0
  7 16  1  0
  8 17  1  0
M  RAD  1   4   2
M  END
>  <reaction>  (2) 
rxn_840

>  <mol_properties>  (2) 
{"1": {"label": "acceptor", "atom_type": "Cs"}}

>  <type>  (2) 
r2

$$$$

     RDKit          3D

 18 18  0  0  0  0  0  0  0  0999 V2000
   -2.4852    0.3210   -0.3966 C   0  0  0  0  0  0  0  0  0  0  0  0
   -1.5917   -0.2708    0.6941 C   0  0  0  0  0  0  0  0  0  0  0  0
   -0.1292   -0.1692    0.3493 C   0  0  0  0  0  0  0  0  0  0  0  0
    0.6099    0.9558    0.7015 C   0  0  0  0  0  0  0  0  0  0  0  0
    1.9447    1.0728    0.3458 C   0  0  0  0  0  0  0  0  0  0  0  0
    2.5646    0.0613   -0.3720 C   0  0  0  0  0  0  0  0  0  0  0  0
    1.8399   -1.0657   -0.7287 C   0  0  0  0  0  0  0  0  0  0  0  0
    0.5055   -1.1769   -0.3700 C   0  0  0  0  0  0  0  0  0  0  0  0
   -2.3325   -0.1971   -1.3452 H   0  0  0  0  0  0  0  0  0  0  0  0
   -2.2554    1.3763   -0.5546 H   0  0  0  0  0  0  0  0  0  0  0  0
   -3.5397    0.2376   -0.1280 H   0  0  0  0  0  0  0  0  0  0  0  0
   -1.7801    0.2462    1.6380 H   0  0  0  0  0  0  0  0  0  0  0  0
   -1.8568   -1.3190    0.8516 H   0  0  0  0  0  0  0  0  0  0  0  0
    0.1327    1.7497    1.2656 H   0  0  0  0  0  0  0  0  0  0  0  0
    2.5033    1.9550    0.6330 H   0  0  0  0  0  0  0  0  0  0  0  0
    3.6077    0.1491   -0.6484 H   0  0  0  0  0  0  0  0  0  0  0  0
    2.3163   -1.8632   -1.2854 H   0  0  0  0  0  0  0  0  0  0  0  0
   -0.0540   -2.0629   -0.6500 H   0  0  0  0  0  0  0  0  0  0  0  0
  1  2  1  0
  1  9  1  0
  1 10  1  0
  1 11  1  0
  2  3  1  0
  2 12  1  0
  2 13  1  0
  3  4  2  0
  3  8  1  0
  4  5  1  0
  4 14  1  0
  5  6  2  0
  5 15  1  0
  6  7  1  0
  6 16  1  0
  7  8  2  0
  7 17  1  0
  8 18  1  0
M  END
>  <reaction>  (3) 
rxn_840

>  <mol_properties>  (3) 
{"1": {"label": "acceptor", "atom_type": "Cs"}, "17": {"label": "a_hydrogen", "atom_type": "H0"}}

>  <type>  (3) 
r2h

$$$$

     RDKit          3D

 22 21  0  0  0  0  0  0  0  0999 V2000
   -2.6784   -0.8844    0.1872 C   0  0  0  0  0  0  0  0  0  0  0  0
   -1.2599   -1.0236    0.6900 C   0  0  0  0  0  0  0  0  0  0  0  0
   -0.2661    0.0078    0.3069 C   0  0  0  0  0  0  0  0  0  0  0  0
    0.9112    0.1397    1.0477 C   0  0  0  0  0  0  0  0  0  0  0  0
    1.8856    1.0543    0.6906 C   0  0  0  0  0  0  0  0  0  0  0  0
    1.7072    1.8644   -0.4225 C   0  0  0  0  0  0  0  0  0  0  0  0
    0.5451    1.7468   -1.1682 C   0  0  0  0  0  0  0  0  0  0  0  0
   -0.4295    0.8281   -0.8093 C   0  0  0  0  0  0  0  0  0  0  0  0
   -2.7264   -0.9277   -0.9027 H   0  0  0  0  0  0  0  0  0  0  0  0
   -3.1243    0.0626    0.5030 H   0  0  0  0  0  0  0  0  0  0  0  0
   -3.2984   -1.6946    0.5725 H   0  0  0  0  0  0  0  0  0  0  0  0
   -1.2194   -1.2342    1.7594 H   0  0  0  0  0  0  0  0  0  0  0  0
    1.0576   -0.4875    1.9202 H   0  0  0  0  0  0  0  0  0  0  0  0
    2.7875    1.1389    1.2842 H   0  0  0  0  0  0  0  0  0  0  0  0
    2.4668    2.5829   -0.7031 H   0  0  0  0  0  0  0  0  0  0  0  0
    0.3933    2.3760   -2.0367 H   0  0  0  0  0  0  0  0  0  0  0  0
   -1.3308    0.7570   -1.4047 H   0  0  0  0  0  0  0  0  0  0  0  0
   -0.3975   -3.3319   -0.4412 C   0  0  0  0  0  3  0  0  0  0  0  0
   -0.8411   -2.1008    0.1973 H   0  0  0  0  0  0  0  0  0  0  0  0
   -0.6326   -3.1579   -1.4859 H   0  0  0  0  0  0  0  0  0  0  0  0
    0.6622   -3.3434   -0.2100 H   0  0  0  0  0  0  0  0  0  0  0  0
   -0.9814   -4.1118    0.0357 H   0  0  0  0  0  0  0  0  0  0  0  0
  1  2  1  0
  1  9  1  0
  1 10  1  0
  1 11  1  0
  2  3  1  0
  2 12  1  0
  2 19  1  0
  3  4  2  0
  3  8  1  0
  4  5  1  0
  4 13  1  0
  5  6  2  0
  5 14  1  0
  6  7  1  0
  6 15  1  0
  7  8  2  0
  7 16  1  0
  8 17  1  0
 18 20  1  0
 18 21  1  0
 18 22  1  0
M  RAD  1  18   2
M  END
>  <reaction>  (4) 
rxn_840

>  <mol_properties>  (4) 
{"1": {"label": "*1", "atom_type": "Cs"}, "2": {"label": "*0", "atom_type": "Cd"}, "17": {"label": "*3", "atom_type": "Cs"}, "18": {"label": "*2", "atom_type": "H0"}, "19": {"label": "*4", "atom_type": "H0"}}

>  <type>  (4) 
ts

$$$$

     RDKit          3D

 22 21  0  0  0  0  0  0  0  0999 V2000
   -1.8326   -1.0778    1.4373 C   0  0  0  0  0  0  0  0  0  0  0  0
   -0.5836   -1.3166    0.5881 C   0  0  0  0  0  0  0  0  0  0  0  0
    0.0297   -0.0295    0.1028 C   0  0  0  0  0  0  0  0  0  0  0  0
    0.9805    0.6398    0.8669 C   0  0  0  0  0  3  0  0  0  0  0  0
    1.5133    1.8480    0.4449 C   0  0  0  0  0  0  0  0  0  0  0  0
    1.1012    2.4091   -0.7543 C   0  0  0  0  0  0  0  0  0  0  0  0
    0.1549    1.7522   -1.5260 C   0  0  0  0  0  0  0  0  0  0  0  0
   -0.3743    0.5442   -1.0986 C   0  0  0  0  0  0  0  0  0  0  0  0
   -2.5935   -0.5444    0.8647 H   0  0  0  0  0  0  0  0  0  0  0  0
   -1.5941   -0.4739    2.3148 H   0  0  0  0  0  0  0  0  0  0  0  0
   -2.2612   -2.0217    1.7786 H   0  0  0  0  0  0  0  0  0  0  0  0
    0.1525   -1.8729    1.1732 H   0  0  0  0  0  0  0  0  0  0  0  0
    1.3100    0.2055    1.8045 H   0  0  0  0  0  0  0  0  0  0  0  0
    2.2552    2.3511    1.0526 H   0  0  0  0  0  0  0  0  0  0  0  0
    1.5181    3.3511   -1.0873 H   0  0  0  0  0  0  0  0  0  0  0  0
   -0.1702    2.1801   -2.4663 H   0  0  0  0  0  0  0  0  0  0  0  0
   -1.1118    0.0348   -1.7092 H   0  0  0  0  0  0  0  0  0  0  0  0
   -0.5836   -3.7848   -0.2846 C   0  0  0  0  0  0  0  0  0  0  0  0
   -0.5836   -2.5528    0.1510 H   0  0  0  0  0  0  0  0  0  0  0  0
    0.3055   -4.2981    0.0784 H   0  0  0  0  0  0  0  0  0  0  0  0
   -1.4727   -4.2981    0.0784 H   0  0  0  0  0  0  0  0  0  0  0  0
   -0.5836   -3.7848   -1.3735 H   0  0  0  0  0  0  0  0  0  0  0  0
  1  2  1  0
  1  9  1  0
  1 10  1  0
  1 11  1  0
  2  3  2  3
  2 12  1  0
  3  4  1  0
  3  8  1  0
  4  5  1  0
  4 13  1  0
  5  6  2  0
  5 14  1  0
  6  7  1  0
  6 15  1  0
  7  8  2  0
  7 16  1  0
  8 17  1  0
 18 19  1  0
 18 20  1  0
 18 21  1  0
 18 22  1  0
M  RAD  1   4   2
M  END
>  <reaction>  (5) 
rxn_840

>  <mol_properties>  (5) 
{"1": {"label": "*1", "atom_type": "Cs"}, "2": {"label": "*0", "atom_type": "Cd"}, "17": {"label": "*3", "atom_type": "Cs"}, "18": {"label": "*2", "atom_type": "H0"}, "19": {"label": "*4", "atom_type": "H0"}}

>  <type>  (5) 
unop_1

>  <geom_source>  (5) 
Heuristics

$$$$

     RDKit          3D

 22 21  0  0  0  0  0  0  0  0999 V2000
   -2.1368    0.2586   -1.4677 C   0  0  0  0  0  0  0  0  0  0  0  0
   -1.4157   -0.6368   -0.4596 C   0  0  0  0  0  0  0  0  0  0  0  0
   -0.1918    0.0252    0.1167 C   0  0  0  0  0  0  0  0  0  0  0  0
   -0.2797    0.8162    1.2579 C   0  0  0  0  0  3  0  0  0  0  0  0
    0.8362    1.4641    1.7647 C   0  0  0  0  0  0  0  0  0  0  0  0
    2.0642    1.3306    1.1346 C   0  0  0  0  0  0  0  0  0  0  0  0
    2.1659    0.5446   -0.0032 C   0  0  0  0  0  0  0  0  0  0  0  0
    1.0464   -0.1008   -0.5051 C   0  0  0  0  0  0  0  0  0  0  0  0
   -1.4772    0.5146   -2.2989 H   0  0  0  0  0  0  0  0  0  0  0  0
   -2.4555    1.1912   -0.9982 H   0  0  0  0  0  0  0  0  0  0  0  0
   -3.0197   -0.2387   -1.8730 H   0  0  0  0  0  0  0  0  0  0  0  0
   -2.1022   -0.8997    0.3488 H   0  0  0  0  0  0  0  0  0  0  0  0
   -1.2361    0.9228    1.7580 H   0  0  0  0  0  0  0  0  0  0  0  0
    0.7474    2.0722    2.6564 H   0  0  0  0  0  0  0  0  0  0  0  0
    2.9377    1.8332    1.5301 H   0  0  0  0  0  0  0  0  0  0  0  0
    3.1215    0.4304   -0.5000 H   0  0  0  0  0  0  0  0  0  0  0  0
    1.1345   -0.7165   -1.3937 H   0  0  0  0  0  0  0  0  0  0  0  0
   -1.4157   -3.1049   -1.3322 C   0  0  0  0  0  0  0  0  0  0  0  0
   -1.4157   -1.8730   -0.8966 H   0  0  0  0  0  0  0  0  0  0  0  0
   -0.5266   -3.6183   -0.9692 H   0  0  0  0  0  0  0  0  0  0  0  0
   -2.3049   -3.6183   -0.9692 H   0  0  0  0  0  0  0  0  0  0  0  0
   -1.4157   -3.1049   -2.4211 H   0  0  0  0  0  0  0  0  0  0  0  0
  1  2  1  0
  1  9  1  0
  1 10  1  0
  1 11  1  0
  2  3  2  3
  2 12  1  0
  3  4  1  0
  3  8  1  0
  4  5  1  0
  4 13  1  0
  5  6  2  0
  5 14  1  0
  6  7  1  0
  6 15  1  0
  7  8  2  0
  7 16  1  0
  8 17  1  0
 18 19  1  0
 18 20  1  0
 18 21  1  0
 18 22  1  0
M  RAD  1   4   2
M  END
>  <reaction>  (6) 
rxn_840

>  <mol_properties>  (6) 
{"1": {"label": "*1", "atom_type": "Cs"}, "2": {"label": "*0", "atom_type": "Cd"}, "17": {"label": "*3", "atom_type": "Cs"}, "18": {"label": "*2", "atom_type": "H0"}, "19": {"label": "*4", "atom_type": "H0"}}

>  <type>  (6) 
unop_2

>  <geom_source>  (6) 
Heuristics

$$$$

     RDKit          3D

 22 21  0  0  0  0  0  0  0  0999 V2000
   -0.4395   -1.2187    2.2360 C   0  0  0  0  0  0  0  0  0  0  0  0
    0.2816   -1.2815    0.8890 C   0  0  0  0  0  0  0  0  0  0  0  0
    0.1370   -0.0034    0.1056 C   0  0  0  0  0  0  0  0  0  0  0  0
    1.0477    1.0365    0.2634 C   0  0  0  0  0  3  0  0  0  0  0  0
    0.8919    2.2316   -0.4217 C   0  0  0  0  0  0  0  0  0  0  0  0
   -0.1831    2.4065   -1.2799 C   0  0  0  0  0  0  0  0  0  0  0  0
   -1.0978    1.3779   -1.4471 C   0  0  0  0  0  0  0  0  0  0  0  0
   -0.9365    0.1851   -0.7592 C   0  0  0  0  0  0  0  0  0  0  0  0
   -1.5065   -1.0361    2.0954 H   0  0  0  0  0  0  0  0  0  0  0  0
   -0.0426   -0.4079    2.8498 H   0  0  0  0  0  0  0  0  0  0  0  0
   -0.3227   -2.1532    2.7875 H   0  0  0  0  0  0  0  0  0  0  0  0
    1.3415   -1.4896    1.0539 H   0  0  0  0  0  0  0  0  0  0  0  0
    1.8928    0.9060    0.9305 H   0  0  0  0  0  0  0  0  0  0  0  0
    1.6141    3.0274   -0.2878 H   0  0  0  0  0  0  0  0  0  0  0  0
   -0.3053    3.3378   -1.8183 H   0  0  0  0  0  0  0  0  0  0  0  0
   -1.9383    1.5031   -2.1185 H   0  0  0  0  0  0  0  0  0  0  0  0
   -1.6544   -0.6160   -0.8975 H   0  0  0  0  0  0  0  0  0  0  0  0
    0.2816   -3.7496    0.0164 C   0  0  0  0  0  0  0  0  0  0  0  0
    0.2816   -2.5176    0.4520 H   0  0  0  0  0  0  0  0  0  0  0  0
    1.1707   -4.2629    0.3794 H   0  0  0  0  0  0  0  0  0  0  0  0
   -0.6075   -4.2629    0.3794 H   0  0  0  0  0  0  0  0  0  0  0  0
    0.2816   -3.7496   -1.0725 H   0  0  0  0  0  0  0  0  0  0  0  0
  1  2  1  0
  1  9  1  0
  1 10  1  0
  1 11  1  0
  2  3  2  3
  2 12  1  0
  3  4  1  0
  3  8  1  0
  4  5  1  0
  4 13  1  0
  5  6  2  0
  5 14  1  0
  6  7  1  0
  6 15  1  0
  7  8  2  0
  7 16  1  0
  8 17  1  0
 18 19  1  0
 18 20  1  0
 18 21  1  0
 18 22  1  0
M  RAD  1   4   2
M  END
>  <reaction>  (7) 
rxn_840

>  <mol_properties>  (7) 
{"1": {"label": "*1", "atom_type": "Cs"}, "2": {"label": "*0", "atom_type": "Cd"}, "17": {"label": "*3", "atom_type": "Cs"}, "18": {"label": "*2", "atom_type": "H0"}, "19": {"label": "*4", "atom_type": "H0"}}

>  <type>  (7) 
unop_3

>  <geom_source>  (7) 
Heuristics

$$$$

     RDKit          3D

 22 21  0  0  0  0  0  0  0  0999 V2000
    0.7761    1.7674   -1.9809 C   0  0  0  0  0  0  0  0  0  0  0  0
   -0.4729    1.0479   -1.4704 C   0  0  0  0  0  0  0  0  0  0  0  0
   -0.2410    0.3779   -0.1417 C   0  0  0  0  0  0  0  0  0  0  0  0
   -0.4530    1.0646    1.0496 C   0  0  0  0  0  3  0  0  0  0  0  0
   -0.1968    0.4661    2.2736 C   0  0  0  0  0  0  0  0  0  0  0  0
    0.2783   -0.8355    2.3257 C   0  0  0  0  0  0  0  0  0  0  0  0
    0.4932   -1.5317    1.1459 C   0  0  0  0  0  0  0  0  0  0  0  0
    0.2351   -0.9277   -0.0750 C   0  0  0  0  0  0  0  0  0  0  0  0
    1.6033    1.0659   -2.1042 H   0  0  0  0  0  0  0  0  0  0  0  0
    1.0957    2.5358   -1.2745 H   0  0  0  0  0  0  0  0  0  0  0  0
    0.5874    2.2456   -2.9436 H   0  0  0  0  0  0  0  0  0  0  0  0
   -1.2928    1.7642   -1.3789 H   0  0  0  0  0  0  0  0  0  0  0  0
   -0.8274    2.0819    1.0170 H   0  0  0  0  0  0  0  0  0  0  0  0
   -0.3721    1.0166    3.1896 H   0  0  0  0  0  0  0  0  0  0  0  0
    0.4763   -1.3061    3.2804 H   0  0  0  0  0  0  0  0  0  0  0  0
    0.8598   -2.5503    1.1761 H   0  0  0  0  0  0  0  0  0  0  0  0
    0.4027   -1.4797   -0.9934 H   0  0  0  0  0  0  0  0  0  0  0  0
   -0.4729   -1.4203   -2.3431 C   0  0  0  0  0  0  0  0  0  0  0  0
   -0.4729   -0.1883   -1.9075 H   0  0  0  0  0  0  0  0  0  0  0  0
    0.4162   -1.9336   -1.9801 H   0  0  0  0  0  0  0  0  0  0  0  0
   -1.3620   -1.9336   -1.9801 H   0  0  0  0  0  0  0  0  0  0  0  0
   -0.4729   -1.4203   -3.4320 H   0  0  0  0  0  0  0  0  0  0  0  0
  1  2  1  0
  1  9  1  0
  1 10  1  0
  1 11  1  0
  2  3  2  3
  2 12  1  0
  3  4  1  0
  3  8  1  0
  4  5  1  0
  4 13  1  0
  5  6  2  0
  5 14  1  0
  6  7  1  0
  6 15  1  0
  7  8  2  0
  7 16  1  0
  8 17  1  0
 18 19  1  0
 18 20  1  0
 18 21  1  0
 18 22  1  0
M  RAD  1   4   2
M  END
>  <reaction>  (8) 
rxn_840

>  <mol_properties>  (8) 
{"1": {"label": "*1", "atom_type": "Cs"}, "2": {"label": "*0", "atom_type": "Cd"}, "17": {"label": "*3", "atom_type": "Cs"}, "18": {"label": "*2", "atom_type": "H0"}, "19": {"label": "*4", "atom_type": "H0"}}

>  <type>  (8) 
unop_4

>  <geom_source>  (8) 
Heuristics

$$$$

     RDKit          3D

 22 21  0  0  0  0  0  0  0  0999 V2000
    1.4760   -0.5977    2.1262 C   0  0  0  0  0  0  0  0  0  0  0  0
    1.4760   -0.5961    0.5971 C   0  0  0  0  0  0  0  0  0  0  0  0
    0.2899    0.1374    0.0284 C   0  0  0  0  0  0  0  0  0  0  0  0
    0.3487    1.5055   -0.2179 C   0  0  0  0  0  3  0  0  0  0  0  0
   -0.7556    2.1922   -0.6981 C   0  0  0  0  0  0  0  0  0  0  0  0
   -1.9428    1.5180   -0.9406 C   0  0  0  0  0  0  0  0  0  0  0  0
   -2.0149    0.1543   -0.7002 C   0  0  0  0  0  0  0  0  0  0  0  0
   -0.9071   -0.5269   -0.2200 C   0  0  0  0  0  0  0  0  0  0  0  0
    0.5746   -1.0770    2.5125 H   0  0  0  0  0  0  0  0  0  0  0  0
    1.5011    0.4224    2.5141 H   0  0  0  0  0  0  0  0  0  0  0  0
    2.3424   -1.1334    2.5179 H   0  0  0  0  0  0  0  0  0  0  0  0
    2.3976   -0.1347    0.2344 H   0  0  0  0  0  0  0  0  0  0  0  0
    1.2748    2.0391   -0.0336 H   0  0  0  0  0  0  0  0  0  0  0  0
   -0.6879    3.2565   -0.8869 H   0  0  0  0  0  0  0  0  0  0  0  0
   -2.8057    2.0516   -1.3184 H   0  0  0  0  0  0  0  0  0  0  0  0
   -2.9362   -0.3821   -0.8907 H   0  0  0  0  0  0  0  0  0  0  0  0
   -0.9702   -1.5941   -0.0374 H   0  0  0  0  0  0  0  0  0  0  0  0
    1.4760   -3.0642   -0.2755 C   0  0  0  0  0  0  0  0  0  0  0  0
    1.4760   -1.8322    0.1600 H   0  0  0  0  0  0  0  0  0  0  0  0
    2.3651   -3.5775    0.0874 H   0  0  0  0  0  0  0  0  0  0  0  0
    0.5869   -3.5775    0.0874 H   0  0  0  0  0  0  0  0  0  0  0  0
    1.4760   -3.0642   -1.3645 H   0  0  0  0  0  0  0  0  0  0  0  0
  1  2  1  0
  1  9  1  0
  1 10  1  0
  1 11  1  0
  2  3  2  3
  2 12  1  0
  3  4  1  0
  3  8  1  0
  4  5  1  0
  4 13  1  0
  5  6  2  0
  5 14  1  0
  6  7  1  0
  6 15  1  0
  7  8  2  0
  7 16  1  0
  8 17  1  0
 18 19  1  0
 18 20  1  0
 18 21  1  0
 18 22  1  0
M  RAD  1   4   2
M  END
>  <reaction>  (9) 
rxn_840

>  <mol_properties>  (9) 
{"1": {"label": "*1", "atom_type": "Cs"}, "2": {"label": "*0", "atom_type": "Cd"}, "17": {"label": "*3", "atom_type": "Cs"}, "18": {"label": "*2", "atom_type": "H0"}, "19": {"label": "*4", "atom_type": "H0"}}

>  <type>  (9) 
unop_5

>  <geom_source>  (9) 
Heuristics

$$$$

     RDKit          3D

 22 21  0  0  0  0  0  0  0  0999 V2000
    1.8273    1.7198   -1.2232 C   0  0  0  0  0  0  0  0  0  0  0  0
    0.3851    1.2407   -1.3926 C   0  0  0  0  0  0  0  0  0  0  0  0
   -0.0935    0.4448   -0.2070 C   0  0  0  0  0  0  0  0  0  0  0  0
   -0.6929    1.0743    0.8793 C   0  0  0  0  0  3  0  0  0  0  0  0
   -1.0931    0.3505    1.9919 C   0  0  0  0  0  0  0  0  0  0  0  0
   -0.8987   -1.0217    2.0360 C   0  0  0  0  0  0  0  0  0  0  0  0
   -0.3032   -1.6619    0.9598 C   0  0  0  0  0  0  0  0  0  0  0  0
    0.0948   -0.9326   -0.1500 C   0  0  0  0  0  0  0  0  0  0  0  0
    2.5043    0.8726   -1.0988 H   0  0  0  0  0  0  0  0  0  0  0  0
    1.9232    2.3532   -0.3394 H   0  0  0  0  0  0  0  0  0  0  0  0
    2.1546    2.2938   -2.0919 H   0  0  0  0  0  0  0  0  0  0  0  0
   -0.2691    2.1032   -1.5403 H   0  0  0  0  0  0  0  0  0  0  0  0
   -0.8511    2.1469    0.8508 H   0  0  0  0  0  0  0  0  0  0  0  0
   -1.5613    0.8591    2.8255 H   0  0  0  0  0  0  0  0  0  0  0  0
   -1.2130   -1.5895    2.9025 H   0  0  0  0  0  0  0  0  0  0  0  0
   -0.1511   -2.7339    0.9827 H   0  0  0  0  0  0  0  0  0  0  0  0
    0.5570   -1.4408   -0.9893 H   0  0  0  0  0  0  0  0  0  0  0  0
    0.3851   -1.2274   -2.2653 C   0  0  0  0  0  0  0  0  0  0  0  0
    0.3851    0.0045   -1.8297 H   0  0  0  0  0  0  0  0  0  0  0  0
    1.2742   -1.7408   -1.9023 H   0  0  0  0  0  0  0  0  0  0  0  0
   -0.5040   -1.7408   -1.9023 H   0  0  0  0  0  0  0  0  0  0  0  0
    0.3851   -1.2274   -3.3542 H   0  0  0  0  0  0  0  0  0  0  0  0
  1  2  1  0
  1  9  1  0
  1 10  1  0
  1 11  1  0
  2  3  2  3
  2 12  1  0
  3  4  1  0
  3  8  1  0
  4  5  1  0
  4 13  1  0
  5  6  2  0
  5 14  1  0
  6  7  1  0
  6 15  1  0
  7  8  2  0
  7 16  1  0
  8 17  1  0
 18 19  1  0
 18 20  1  0
 18 21  1  0
 18 22  1  0
M  RAD  1   4   2
M  END
>  <reaction>  (10) 
rxn_840

>  <mol_properties>  (10) 
{"1": {"label": "*1", "atom_type": "Cs"}, "2": {"label": "*0", "atom_type": "Cd"}, "17": {"label": "*3", "atom_type": "Cs"}, "18": {"label": "*2", "atom_type": "H0"}, "19": {"label": "*4", "atom_type": "H0"}}

>  <type>  (10) 
unop_6

>  <geom_source>  (10) 
Heuristics

$$$$

     RDKit          3D

 22 21  0  0  0  0  0  0  0  0999 V2000
    2.4456    1.3385   -0.1437 C   0  0  0  0  0  0  0  0  0  0  0  0
    1.1966    1.0998   -0.9929 C   0  0  0  0  0  0  0  0  0  0  0  0
    0.0907    0.4451   -0.2077 C   0  0  0  0  0  0  0  0  0  0  0  0
   -0.8356    1.2107    0.4934 C   0  0  0  0  0  3  0  0  0  0  0  0
   -1.8272    0.6109    1.2543 C   0  0  0  0  0  0  0  0  0  0  0  0
   -1.9082   -0.7714    1.3267 C   0  0  0  0  0  0  0  0  0  0  0  0
   -0.9918   -1.5464    0.6322 C   0  0  0  0  0  0  0  0  0  0  0  0
   -0.0025   -0.9408   -0.1270 C   0  0  0  0  0  0  0  0  0  0  0  0
    2.8322    0.3963    0.2492 H   0  0  0  0  0  0  0  0  0  0  0  0
    2.2175    1.9836    0.7069 H   0  0  0  0  0  0  0  0  0  0  0  0
    3.2341    1.8131   -0.7303 H   0  0  0  0  0  0  0  0  0  0  0  0
    0.8433    2.0523   -1.3949 H   0  0  0  0  0  0  0  0  0  0  0  0
   -0.7806    2.2924    0.4391 H   0  0  0  0  0  0  0  0  0  0  0  0
   -2.5410    1.2249    1.7895 H   0  0  0  0  0  0  0  0  0  0  0  0
   -2.6834   -1.2421    1.9179 H   0  0  0  0  0  0  0  0  0  0  0  0
   -1.0494   -2.6269    0.6788 H   0  0  0  0  0  0  0  0  0  0  0  0
    0.7088   -1.5536   -0.6699 H   0  0  0  0  0  0  0  0  0  0  0  0
    1.1966   -1.3684   -1.8655 C   0  0  0  0  0  0  0  0  0  0  0  0
    1.1966   -0.1364   -1.4300 H   0  0  0  0  0  0  0  0  0  0  0  0
    2.0857   -1.8817   -1.5026 H   0  0  0  0  0  0  0  0  0  0  0  0
    0.3075   -1.8817   -1.5026 H   0  0  0  0  0  0  0  0  0  0  0  0
    1.1966   -1.3684   -2.9545 H   0  0  0  0  0  0  0  0  0  0  0  0
  1  2  1  0
  1  9  1  0
  1 10  1  0
  1 11  1  0
  2  3  2  3
  2 12  1  0
  3  4  1  0
  3  8  1  0
  4  5  1  0
  4 13  1  0
  5  6  2  0
  5 14  1  0
  6  7  1  0
  6 15  1  0
  7  8  2  0
  7 16  1  0
  8 17  1  0
 18 19  1  0
 18 20  1  0
 18 21  1  0
 18 22  1  0
M  RAD  1   4   2
M  END
>  <reaction>  (11) 
rxn_840

>  <mol_properties>  (11) 
{"1": {"label": "*1", "atom_type": "Cs"}, "2": {"label": "*0", "atom_type": "Cd"}, "17": {"label": "*3", "atom_type": "Cs"}, "18": {"label": "*2", "atom_type": "H0"}, "19": {"label": "*4", "atom_type": "H0"}}

>  <type>  (11) 
unop_7

>  <geom_source>  (11) 
Heuristics

$$$$

     RDKit          3D

 22 21  0  0  0  0  0  0  0  0999 V2000
   -2.4442   -0.6959    0.3573 C   0  0  0  0  0  0  0  0  0  0  0  0
   -1.0020   -1.1750    0.1879 C   0  0  0  0  0  0  0  0  0  0  0  0
   -0.0277   -0.0297    0.1034 C   0  0  0  0  0  0  0  0  0  0  0  0
    0.5472    0.5036    1.2527 C   0  0  0  0  0  3  0  0  0  0  0  0
    1.4089    1.5873    1.1827 C   0  0  0  0  0  0  0  0  0  0  0  0
    1.7107    2.1580   -0.0444 C   0  0  0  0  0  0  0  0  0  0  0  0
    1.1454    1.6358   -1.1978 C   0  0  0  0  0  0  0  0  0  0  0  0
    0.2844    0.5520   -1.1213 C   0  0  0  0  0  0  0  0  0  0  0  0
   -2.7444   -0.0678   -0.4835 H   0  0  0  0  0  0  0  0  0  0  0  0
   -2.5506   -0.1035    1.2680 H   0  0  0  0  0  0  0  0  0  0  0  0
   -3.1336   -1.5398    0.4164 H   0  0  0  0  0  0  0  0  0  0  0  0
   -0.7330   -1.8209    1.0271 H   0  0  0  0  0  0  0  0  0  0  0  0
    0.3183    0.0606    2.2158 H   0  0  0  0  0  0  0  0  0  0  0  0
    1.8488    1.9850    2.0889 H   0  0  0  0  0  0  0  0  0  0  0  0
    2.3857    3.0025   -0.1019 H   0  0  0  0  0  0  0  0  0  0  0  0
    1.3784    2.0717   -2.1615 H   0  0  0  0  0  0  0  0  0  0  0  0
   -0.1515    0.1471   -2.0282 H   0  0  0  0  0  0  0  0  0  0  0  0
   -1.0020   -3.6431   -0.6847 C   0  0  0  0  0  0  0  0  0  0  0  0
   -1.0020   -2.4112   -0.2492 H   0  0  0  0  0  0  0  0  0  0  0  0
   -0.1129   -4.1565   -0.3217 H   0  0  0  0  0  0  0  0  0  0  0  0
   -1.8911   -4.1565   -0.3217 H   0  0  0  0  0  0  0  0  0  0  0  0
   -1.0020   -3.6431   -1.7737 H   0  0  0  0  0  0  0  0  0  0  0  0
  1  2  1  0
  1  9  1  0
  1 10  1  0
  1 11  1  0
  2  3  2  3
  2 12  1  0
  3  4  1  0
  3  8  1  0
  4  5  1  0
  4 13  1  0
  5  6  2  0
  5 14  1  0
  6  7  1  0
  6 15  1  0
  7  8  2  0
  7 16  1  0
  8 17  1  0
 18 19  1  0
 18 20  1  0
 18 21  1  0
 18 22  1  0
M  RAD  1   4   2
M  END
>  <reaction>  (12) 
rxn_840

>  <mol_properties>  (12) 
{"1": {"label": "*1", "atom_type": "Cs"}, "2": {"label": "*0", "atom_type": "Cd"}, "17": {"label": "*3", "atom_type": "Cs"}, "18": {"label": "*2", "atom_type": "H0"}, "19": {"label": "*4", "atom_type": "H0"}}

>  <type>  (12) 
unop_8

>  <geom_source>  (12) 
Heuristics

$$$$

     RDKit          3D

 22 21  0  0  0  0  0  0  0  0999 V2000
   -0.4452    1.4560   -2.2511 C   0  0  0  0  0  0  0  0  0  0  0  0
   -1.1663    0.5605   -1.2429 C   0  0  0  0  0  0  0  0  0  0  0  0
   -0.3153    0.2603   -0.0372 C   0  0  0  0  0  0  0  0  0  0  0  0
   -0.3304    1.0991    1.0728 C   0  0  0  0  0  3  0  0  0  0  0  0
    0.4857    0.8511    2.1657 C   0  0  0  0  0  0  0  0  0  0  0  0
    1.3345   -0.2453    2.1657 C   0  0  0  0  0  0  0  0  0  0  0  0
    1.3589   -1.0899    1.0662 C   0  0  0  0  0  0  0  0  0  0  0  0
    0.5404   -0.8366   -0.0237 C   0  0  0  0  0  0  0  0  0  0  0  0
    0.4720    0.9807   -2.6038 H   0  0  0  0  0  0  0  0  0  0  0  0
   -0.1705    2.4088   -1.7949 H   0  0  0  0  0  0  0  0  0  0  0  0
   -1.0780    1.6614   -3.1162 H   0  0  0  0  0  0  0  0  0  0  0  0
   -2.0920    1.0452   -0.9238 H   0  0  0  0  0  0  0  0  0  0  0  0
   -0.9939    1.9569    1.0815 H   0  0  0  0  0  0  0  0  0  0  0  0
    0.4560    1.5141    3.0215 H   0  0  0  0  0  0  0  0  0  0  0  0
    1.9705   -0.4427    3.0192 H   0  0  0  0  0  0  0  0  0  0  0  0
    2.0151   -1.9514    1.0584 H   0  0  0  0  0  0  0  0  0  0  0  0
    0.5628   -1.5035   -0.8787 H   0  0  0  0  0  0  0  0  0  0  0  0
   -1.1663   -1.9076   -2.1155 C   0  0  0  0  0  0  0  0  0  0  0  0
   -1.1663   -0.6756   -1.6800 H   0  0  0  0  0  0  0  0  0  0  0  0
   -0.2772   -2.4210   -1.7526 H   0  0  0  0  0  0  0  0  0  0  0  0
   -2.0554   -2.4210   -1.7526 H   0  0  0  0  0  0  0  0  0  0  0  0
   -1.1663   -1.9076   -3.2045 H   0  0  0  0  0  0  0  0  0  0  0  0
  1  2  1  0
  1  9  1  0
  1 10  1  0
  1 11  1  0
  2  3  2  3
  2 12  1  0
  3  4  1  0
  3  8  1  0
  4  5  1  0
  4 13  1  0
  5  6  2  0
  5 14  1  0
  6  7  1  0
  6 15  1  0
  7  8  2  0
  7 16  1  0
  8 17  1  0
 18 19  1  0
 18 20  1  0
 18 21  1  0
 18 22  1  0
M  RAD  1   4   2
M  END
>  <reaction>  (13) 
rxn_840

>  <mol_properties>  (13) 
{"1": {"label": "*1", "atom_type": "Cs"}, "2": {"label": "*0", "atom_type": "Cd"}, "17": {"label": "*3", "atom_type": "Cs"}, "18": {"label": "*2", "atom_type": "H0"}, "19": {"label": "*4", "atom_type": "H0"}}

>  <type>  (13) 
unop_9

>  <geom_source>  (13) 
Heuristics

$$$$

     RDKit          3D

 22 21  0  0  0  0  0  0  0  0999 V2000
   -2.4784   -0.2508   -0.6605 C   0  0  0  0  0  0  0  0  0  0  0  0
   -1.2294   -0.9703   -0.1500 C   0  0  0  0  0  0  0  0  0  0  0  0
   -0.0933   -0.0185    0.1176 C   0  0  0  0  0  0  0  0  0  0  0  0
    0.0508    0.5878    1.3616 C   0  0  0  0  0  3  0  0  0  0  0  0
    1.0683    1.4993    1.5976 C   0  0  0  0  0  0  0  0  0  0  0  0
    1.9623    1.8209    0.5876 C   0  0  0  0  0  0  0  0  0  0  0  0
    1.8306    1.2233   -0.6567 C   0  0  0  0  0  0  0  0  0  0  0  0
    0.8110    0.3125   -0.8865 C   0  0  0  0  0  0  0  0  0  0  0  0
   -2.2660    0.2803   -1.5902 H   0  0  0  0  0  0  0  0  0  0  0  0
   -2.8269    0.4833    0.0683 H   0  0  0  0  0  0  0  0  0  0  0  0
   -3.2889   -0.9571   -0.8481 H   0  0  0  0  0  0  0  0  0  0  0  0
   -1.4724   -1.5141    0.7660 H   0  0  0  0  0  0  0  0  0  0  0  0
   -0.6427    0.3389    2.1574 H   0  0  0  0  0  0  0  0  0  0  0  0
    1.1655    1.9572    2.5742 H   0  0  0  0  0  0  0  0  0  0  0  0
    2.7595    2.5302    0.7704 H   0  0  0  0  0  0  0  0  0  0  0  0
    2.5265    1.4645   -1.4506 H   0  0  0  0  0  0  0  0  0  0  0  0
    0.7163   -0.1531   -1.8614 H   0  0  0  0  0  0  0  0  0  0  0  0
   -1.2294   -3.4384   -1.0226 C   0  0  0  0  0  0  0  0  0  0  0  0
   -1.2294   -2.2064   -0.5871 H   0  0  0  0  0  0  0  0  0  0  0  0
   -0.3403   -3.9517   -0.6596 H   0  0  0  0  0  0  0  0  0  0  0  0
   -2.1185   -3.9517   -0.6596 H   0  0  0  0  0  0  0  0  0  0  0  0
   -1.2294   -3.4384   -2.1116 H   0  0  0  0  0  0  0  0  0  0  0  0
  1  2  1  0
  1  9  1  0
  1 10  1  0
  1 11  1  0
  2  3  2  3
  2 12  1  0
  3  4  1  0
  3  8  1  0
  4  5  1  0
  4 13  1  0
  5  6  2  0
  5 14  1  0
  6  7  1  0
  6 15  1  0
  7  8  2  0
  7 16  1  0
  8 17  1  0
 18 19  1  0
 18 20  1  0
 18 21  1  0
 18 22  1  0
M  RAD  1   4   2
M  END
>  <reaction>  (14) 
rxn_840

>  <mol_properties>  (14) 
{"1": {"label": "*1", "atom_type": "Cs"}, "2": {"label": "*0", "atom_type": "Cd"}, "17": {"label": "*3", "atom_type": "Cs"}, "18": {"label": "*2", "atom_type": "H0"}, "19": {"label": "*4", "atom_type": "H0"}}

>  <type>  (14) 
unop_10

>  <geom_source>  (14) 
Heuristics

$$$$

     RDKit          3D

 22 21  0  0  0  0  0  0  0  0999 V2000
    2.4724    0.5724    1.0641 C   0  0  0  0  0  0  0  0  0  0  0  0
    1.7513    0.5096   -0.2828 C   0  0  0  0  0  0  0  0  0  0  0  0
    0.2623    0.3484   -0.1246 C   0  0  0  0  0  0  0  0  0  0  0  0
   -0.5674    1.4597   -0.0135 C   0  0  0  0  0  3  0  0  0  0  0  0
   -1.9327    1.3146    0.1782 C   0  0  0  0  0  0  0  0  0  0  0  0
   -2.4927    0.0490    0.2626 C   0  0  0  0  0  0  0  0  0  0  0  0
   -1.6774   -1.0672    0.1527 C   0  0  0  0  0  0  0  0  0  0  0  0
   -0.3128   -0.9156   -0.0390 C   0  0  0  0  0  0  0  0  0  0  0  0
    2.2979   -0.3388    1.6392 H   0  0  0  0  0  0  0  0  0  0  0  0
    2.1101    1.4136    1.6580 H   0  0  0  0  0  0  0  0  0  0  0  0
    3.5489    0.6893    0.9277 H   0  0  0  0  0  0  0  0  0  0  0  0
    1.9609    1.4199   -0.8497 H   0  0  0  0  0  0  0  0  0  0  0  0
   -0.1370    2.4529   -0.0816 H   0  0  0  0  0  0  0  0  0  0  0  0
   -2.5616    2.1926    0.2584 H   0  0  0  0  0  0  0  0  0  0  0  0
   -3.5591   -0.0669    0.4093 H   0  0  0  0  0  0  0  0  0  0  0  0
   -2.1059   -2.0600    0.2128 H   0  0  0  0  0  0  0  0  0  0  0  0
    0.3180   -1.7934   -0.1272 H   0  0  0  0  0  0  0  0  0  0  0  0
    1.7513   -1.9585   -1.1555 C   0  0  0  0  0  0  0  0  0  0  0  0
    1.7513   -0.7265   -0.7199 H   0  0  0  0  0  0  0  0  0  0  0  0
    2.6404   -2.4718   -0.7925 H   0  0  0  0  0  0  0  0  0  0  0  0
    0.8622   -2.4718   -0.7925 H   0  0  0  0  0  0  0  0  0  0  0  0
    1.7513   -1.9585   -2.2444 H   0  0  0  0  0  0  0  0  0  0  0  0
  1  2  1  0
  1  9  1  0
  1 10  1  0
  1 11  1  0
  2  3  2  3
  2 12  1  0
  3  4  1  0
  3  8  1  0
  4  5  1  0
  4 13  1  0
  5  6  2  0
  5 14  1  0
  6  7  1  0
  6 15  1  0
  7  8  2  0
  7 16  1  0
  8 17  1  0
 18 19  1  0
 18 20  1  0
 18 21  1  0
 18 22  1  0
M  RAD  1   4   2
M  END
>  <reaction>  (15) 
rxn_840

>  <mol_properties>  (15) 
{"1": {"label": "*1", "atom_type": "Cs"}, "2": {"label": "*0", "atom_type": "Cd"}, "17": {"label": "*3", "atom_type": "Cs"}, "18": {"label": "*2", "atom_type": "H0"}, "19": {"label": "*4", "atom_type": "H0"}}

>  <type>  (15) 
unop_11

>  <geom_source>  (15) 
Heuristics

$$$$

     RDKit          3D

 22 21  0  0  0  0  0  0  0  0999 V2000
   -1.4760    0.8715   -2.0293 C   0  0  0  0  0  0  0  0  0  0  0  0
   -1.4760   -0.0883   -0.8390 C   0  0  0  0  0  0  0  0  0  0  0  0
   -0.2899    0.1247    0.0643 C   0  0  0  0  0  0  0  0  0  0  0  0
   -0.3487    1.0340    1.1157 C   0  0  0  0  0  3  0  0  0  0  0  0
    0.7556    1.2663    1.9209 C   0  0  0  0  0  0  0  0  0  0  0  0
    1.9428    0.5894    1.6857 C   0  0  0  0  0  0  0  0  0  0  0  0
    2.0149   -0.3201    0.6416 C   0  0  0  0  0  0  0  0  0  0  0  0
    0.9071   -0.5481   -0.1600 C   0  0  0  0  0  0  0  0  0  0  0  0
   -0.5746    0.7415   -2.6311 H   0  0  0  0  0  0  0  0  0  0  0  0
   -1.5011    1.9087   -1.6899 H   0  0  0  0  0  0  0  0  0  0  0  0
   -2.3424    0.7011   -2.6708 H   0  0  0  0  0  0  0  0  0  0  0  0
   -2.3976    0.0426   -0.2670 H   0  0  0  0  0  0  0  0  0  0  0  0
   -1.2748    1.5648    1.3078 H   0  0  0  0  0  0  0  0  0  0  0  0
    0.6879    1.9753    2.7367 H   0  0  0  0  0  0  0  0  0  0  0  0
    2.8057    0.7670    2.3149 H   0  0  0  0  0  0  0  0  0  0  0  0
    2.9362   -0.8571    0.4526 H   0  0  0  0  0  0  0  0  0  0  0  0
    0.9702   -1.2633   -0.9729 H   0  0  0  0  0  0  0  0  0  0  0  0
   -1.4760   -2.5565   -1.7117 C   0  0  0  0  0  0  0  0  0  0  0  0
   -1.4760   -1.3245   -1.2761 H   0  0  0  0  0  0  0  0  0  0  0  0
   -0.5869   -3.0698   -1.3487 H   0  0  0  0  0  0  0  0  0  0  0  0
   -2.3651   -3.0698   -1.3487 H   0  0  0  0  0  0  0  0  0  0  0  0
   -1.4760   -2.5565   -2.8006 H   0  0  0  0  0  0  0  0  0  0  0  0
  1  2  1  0
  1  9  1  0
  1 10  1  0
  1 11  1  0
  2  3  2  3
  2 12  1  0
  3  4  1  0
  3  8  1  0
  4  5  1  0
  4 13  1  0
  5  6  2  0
  5 14  1  0
  6  7  1  0
  6 15  1  0
  7  8  2  0
  7 16  1  0
  8 17  1  0
 18 19  1  0
 18 20  1  0
 18 21  1  0
 18 22  1  0
M  RAD  1   4   2
M  END
>  <reaction>  (16) 
rxn_840

>  <mol_properties>  (16) 
{"1": {"label": "*1", "atom_type": "Cs"}, "2": {"label": "*0", "atom_type": "Cd"}, "17": {"label": "*3", "atom_type": "Cs"}, "18": {"label": "*2", "atom_type": "H0"}, "19": {"label": "*4", "atom_type": "H0"}}

>  <type>  (16) 
unop_12

>  <geom_source>  (16) 
Heuristics

$$$$

     RDKit          3D

 22 21  0  0  0  0  0  0  0  0999 V2000
   -1.0956   -0.6266    0.2394 C   0  0  0  0  0  0  0  0  0  0  0  0
   -1.4057   -0.7428    1.7267 C   0  0  0  0  0  0  0  0  0  0  0  0
    0.3544   -0.2968    0.0201 C   0  0  0  0  0  0  0  0  0  0  0  0
    0.7699    1.0425   -0.0474 C   0  0  0  0  0  3  0  0  0  0  0  0
    1.3114   -1.3216   -0.0686 C   0  0  0  0  0  0  0  0  0  0  0  0
    2.1226    1.3514   -0.2229 C   0  0  0  0  0  0  0  0  0  0  0  0
    3.0681    0.3269   -0.3231 C   0  0  0  0  0  0  0  0  0  0  0  0
    2.6630   -1.0085   -0.2441 C   0  0  0  0  0  0  0  0  0  0  0  0
   -2.5692    0.9636   -1.2485 C   0  0  0  0  0  0  0  0  0  0  0  0
   -1.3521   -1.5824   -0.2672 H   0  0  0  0  0  0  0  0  0  0  0  0
   -1.9314    0.4127   -0.3369 H   0  0  0  0  0  0  0  0  0  0  0  0
   -2.4819   -0.9789    1.8611 H   0  0  0  0  0  0  0  0  0  0  0  0
   -0.8009   -1.5538    2.1860 H   0  0  0  0  0  0  0  0  0  0  0  0
   -1.1859    0.2175    2.2397 H   0  0  0  0  0  0  0  0  0  0  0  0
    0.0489    1.8459    0.0379 H   0  0  0  0  0  0  0  0  0  0  0  0
    2.4383    2.3853   -0.2780 H   0  0  0  0  0  0  0  0  0  0  0  0
    4.1147    0.5677   -0.4577 H   0  0  0  0  0  0  0  0  0  0  0  0
    3.3967   -1.8010   -0.3158 H   0  0  0  0  0  0  0  0  0  0  0  0
    1.0107   -2.3599   -0.0008 H   0  0  0  0  0  0  0  0  0  0  0  0
   -3.5300    0.4740   -0.9879 H   0  0  0  0  0  0  0  0  0  0  0  0
   -2.2392    0.6204   -2.2506 H   0  0  0  0  0  0  0  0  0  0  0  0
   -2.7067    2.0644   -1.2614 H   0  0  0  0  0  0  0  0  0  0  0  0
  1  2  1  0
  1  3  2  3
  1 10  1  0
  2 12  1  0
  2 13  1  0
  2 14  1  0
  3  4  1  0
  3  5  1  0
  4  6  1  0
  4 15  1  0
  5  8  2  0
  5 19  1  0
  6  7  2  0
  6 16  1  0
  7  8  1  0
  7 17  1  0
  8 18  1  0
  9 11  1  0
  9 20  1  0
  9 21  1  0
  9 22  1  0
M  RAD  1   4   2
M  END
>  <reaction>  (17) 
rxn_840

>  <mol_properties>  (17) 
{"1": {"label": "*1", "atom_type": "Cs"}, "2": {"label": "*0", "atom_type": "Cd"}, "17": {"label": "*3", "atom_type": "Cs"}, "18": {"label": "*2", "atom_type": "H0"}, "19": {"label": "*4", "atom_type": "H0"}}

>  <type>  (17) 
unop_13

>  <geom_source>  (17) 
AutoTST

$$$$
