
     RDKit          3D

  9  9  0  0  0  0  0  0  0  0999 V2000
    0.7857   -0.3639   -0.0163 C   0  0  0  0  0  0  0  0  0  0  0  0
   -0.0778    0.8590    0.0773 C   0  0  0  0  0  0  0  0  0  0  0  0
   -0.7078   -0.4951   -0.0610 C   0  0  0  0  0  0  0  0  0  0  0  0
    1.3369   -0.5268   -0.9325 H   0  0  0  0  0  0  0  0  0  0  0  0
    1.2974   -0.6933    0.8778 H   0  0  0  0  0  0  0  0  0  0  0  0
   -0.1503    1.3568    1.0348 H   0  0  0  0  0  0  0  0  0  0  0  0
   -0.1107    1.5234   -0.7754 H   0  0  0  0  0  0  0  0  0  0  0  0
   -1.1669   -0.7468   -1.0074 H   0  0  0  0  0  0  0  0  0  0  0  0
   -1.2065   -0.9134    0.8028 H   0  0  0  0  0  0  0  0  0  0  0  0
  1  2  1  0
  1  3  1  0
  1  4  1  0
  1  5  1  0
  2  3  1  0
  2  6  1  0
  2  7  1  0
  3  8  1  0
  3  9  1  0
M  END
>  <reaction>  (1) 
rxn_168

>  <mol_properties>  (1) 
{"2": {"label": "donator", "atom_type": "Cs"}, "7": {"label": "d_hydrogen", "atom_type": "H0"}}

>  <type>  (1) 
r1h

$$$$

     RDKit          3D

  1  0  0  0  0  0  0  0  0  0999 V2000
    0.0000    0.0000    0.0000 Cl  0  0  0  0  0 15  0  0  0  0  0  0
M  END
>  <reaction>  (2) 
rxn_168

>  <mol_properties>  (2) 
{"0": {"label": "acceptor", "atom_type": "Cl1s"}}

>  <type>  (2) 
r2

$$$$

     RDKit          3D

  2  1  0  0  0  0  0  0  0  0999 V2000
    0.0000    0.0000    0.6391 Cl  0  0  0  0  0  0  0  0  0  0  0  0
    0.0000    0.0000   -0.6391 H   0  0  0  0  0  0  0  0  0  0  0  0
  1  2  1  0
M  END
>  <reaction>  (3) 
rxn_168

>  <mol_properties>  (3) 
{"0": {"label": "acceptor", "atom_type": "Cl1s"}, "1": {"label": "a_hydrogen", "atom_type": "H0"}}

>  <type>  (3) 
r2h

$$$$

     RDKit          3D

 10  9  0  0  0  0  0  0  0  0999 V2000
    1.3436    1.1568    0.0000 Cl  0  0  0  0  0  0  0  0  0  0  0  0
   -1.1013   -1.5198   -0.7625 C   0  0  0  0  0  0  0  0  0  0  0  0
   -1.1013   -1.5198    0.7624 C   0  0  0  0  0  0  0  0  0  0  0  0
   -1.2522   -0.2786    0.0000 C   0  0  0  0  0  3  0  0  0  0  0  0
   -0.1473   -1.7221   -1.2356 H   0  0  0  0  0  0  0  0  0  0  0  0
   -1.9612   -1.8956   -1.3044 H   0  0  0  0  0  0  0  0  0  0  0  0
   -1.9612   -1.8956    1.3044 H   0  0  0  0  0  0  0  0  0  0  0  0
   -0.1473   -1.7221    1.2356 H   0  0  0  0  0  0  0  0  0  0  0  0
    0.1116    0.5567    0.0000 H   0  0  0  0  0  0  0  0  0  0  0  0
   -2.0534    0.4455    0.0000 H   0  0  0  0  0  0  0  0  0  0  0  0
  1  9  1  0
  2  4  1  0
  2  3  1  0
  2  5  1  0
  2  6  1  0
  3  4  1  0
  3  7  1  0
  3  8  1  0
  4 10  1  0
M  RAD  1   4   2
M  END
>  <reaction>  (4) 
rxn_168

>  <mol_properties>  (4) 
{"0": {"label": "*1", "atom_type": "Cl1s"}, "1": {"label": "*4", "atom_type": "Cs"}, "3": {"label": "*3", "atom_type": "Cs"}, "8": {"label": "*2", "atom_type": "H0"}}

>  <type>  (4) 
ts

$$$$

     RDKit          3D

 10  9  0  0  0  0  0  0  0  0999 V2000
    1.2972    1.3087    0.0000 Cl  0  0  0  0  0 15  0  0  0  0  0  0
   -1.0832   -1.5242   -0.7500 C   0  0  0  0  0  0  0  0  0  0  0  0
   -1.0832   -1.5242    0.7500 C   0  0  0  0  0  0  0  0  0  0  0  0
   -1.0832   -0.2252    0.0000 C   0  0  0  0  0  0  0  0  0  0  0  0
   -0.1740   -1.8171   -1.2573 H   0  0  0  0  0  0  0  0  0  0  0  0
   -1.9923   -1.8171   -1.2573 H   0  0  0  0  0  0  0  0  0  0  0  0
   -1.9923   -1.8171    1.2573 H   0  0  0  0  0  0  0  0  0  0  0  0
   -0.1740   -1.8171    1.2573 H   0  0  0  0  0  0  0  0  0  0  0  0
    0.0078    0.4778    0.0000 H   0  0  0  0  0  0  0  0  0  0  0  0
   -1.9924    0.3606    0.0000 H   0  0  0  0  0  0  0  0  0  0  0  0
  2  3  1  0
  2  4  1  0
  2  5  1  0
  2  6  1  0
  3  4  1  0
  3  7  1  0
  3  8  1  0
  4  9  1  0
  4 10  1  0
M  END
>  <reaction>  (5) 
rxn_168

>  <mol_properties>  (5) 
{"0": {"label": "*1", "atom_type": "Cl1s"}, "1": {"label": "*4", "atom_type": "Cs"}, "3": {"label": "*3", "atom_type": "Cs"}, "8": {"label": "*2", "atom_type": "H0"}}

>  <type>  (5) 
unop_1

>  <geom_source>  (5) 
Heuristics

$$$$
