
     RDKit          3D

 18 18  0  0  0  0  0  0  0  0999 V2000
   -2.4852    0.3210   -0.3966 C   0  0  0  0  0  0  0  0  0  0  0  0
   -1.5917   -0.2708    0.6941 C   0  0  0  0  0  0  0  0  0  0  0  0
   -0.1292   -0.1692    0.3493 C   0  0  0  0  0  0  0  0  0  0  0  0
    0.6099    0.9558    0.7015 C   0  0  0  0  0  0  0  0  0  0  0  0
    1.9447    1.0728    0.3458 C   0  0  0  0  0  0  0  0  0  0  0  0
    2.5646    0.0613   -0.3720 C   0  0  0  0  0  0  0  0  0  0  0  0
    1.8399   -1.0657   -0.7287 C   0  0  0  0  0  0  0  0  0  0  0  0
    0.5055   -1.1769   -0.3700 C   0  0  0  0  0  0  0  0  0  0  0  0
   -2.3325   -0.1971   -1.3452 H   0  0  0  0  0  0  0  0  0  0  0  0
   -2.2554    1.3763   -0.5546 H   0  0  0  0  0  0  0  0  0  0  0  0
   -3.5397    0.2376   -0.1280 H   0  0  0  0  0  0  0  0  0  0  0  0
   -1.7801    0.2462    1.6380 H   0  0  0  0  0  0  0  0  0  0  0  0
   -1.8568   -1.3190    0.8516 H   0  0  0  0  0  0  0  0  0  0  0  0
    0.1327    1.7497    1.2656 H   0  0  0  0  0  0  0  0  0  0  0  0
    2.5033    1.9550    0.6330 H   0  0  0  0  0  0  0  0  0  0  0  0
    3.6077    0.1491   -0.6484 H   0  0  0  0  0  0  0  0  0  0  0  0
    2.3163   -1.8632   -1.2854 H   0  0  0  0  0  0  0  0  0  0  0  0
   -0.0540   -2.0629   -0.6500 H   0  0  0  0  0  0  0  0  0  0  0  0
  1  2  1  0
  1  9  1  0
  1 10  1  0
  1 11  1  0
  2  3  1  0
  2 12  1  0
  2 13  1  0
  3  4  2  0
  3  8  1  0
  4  5  1  0
  4 14  1  0
  5  6  2  0
  5 15  1  0
  6  7  1  0
  6 16  1  0
  7  8  2  0
  7 17  1  0
  8 18  1  0
M  END
>  <reaction>  (1) 
rxn_1508

>  <mol_properties>  (1) 
{"2": {"label": "donator", "atom_type": "Cs"}, "8": {"label": "d_hydrogen", "atom_type": "H0"}}

>  <type>  (1) 
r1h

$$$$

     RDKit          3D

 12 11  0  0  0  0  0  0  0  0999 V2000
   -0.9951    0.1196   -0.8321 C   0  0  0  0  0  0  0  0  0  0  0  0
   -0.3760    0.2571    0.5231 C   0  0  0  0  0  3  0  0  0  0  0  0
    0.9330   -0.1537    0.7810 C   0  0  0  0  0  0  0  0  0  0  0  0
    1.5987   -0.1880    1.9734 C   0  0  0  0  0  0  0  0  0  0  0  0
   -1.4483    0.9449    1.7152 S   0  0  0  0  0  0  0  0  0  0  0  0
   -1.9164   -0.4696   -0.7936 H   0  0  0  0  0  0  0  0  0  0  0  0
   -1.2565    1.0958   -1.2506 H   0  0  0  0  0  0  0  0  0  0  0  0
   -0.3088   -0.3780   -1.5170 H   0  0  0  0  0  0  0  0  0  0  0  0
    1.4783   -0.4898   -0.0971 H   0  0  0  0  0  0  0  0  0  0  0  0
    2.6278   -0.5153    2.0142 H   0  0  0  0  0  0  0  0  0  0  0  0
    1.1316    0.0690    2.9151 H   0  0  0  0  0  0  0  0  0  0  0  0
   -0.5306    1.3052    2.6211 H   0  0  0  0  0  0  0  0  0  0  0  0
  1  2  1  0
  1  6  1  0
  1  7  1  0
  1  8  1  0
  2  3  1  0
  2  5  1  0
  3  4  2  3
  3  9  1  0
  4 10  1  0
  4 11  1  0
  5 12  1  0
M  RAD  1   2   2
M  END
>  <reaction>  (2) 
rxn_1508

>  <mol_properties>  (2) 
{"1": {"label": "acceptor", "atom_type": "Cs"}}

>  <type>  (2) 
r2

$$$$

     RDKit          3D

 13 12  0  0  0  0  0  0  0  0999 V2000
   -1.1828    0.8269   -0.1645 C   0  0  0  0  0  0  0  0  0  0  0  0
   -0.4827   -0.4584   -0.5736 C   0  0  1  0  0  0  0  0  0  0  0  0
   -0.9759   -1.7030    0.1030 C   0  0  0  0  0  0  0  0  0  0  0  0
   -2.0084   -1.7831    0.9287 C   0  0  0  0  0  0  0  0  0  0  0  0
   -0.4908   -0.7025   -2.3913 S   0  0  0  0  0  0  0  0  0  0  0  0
   -1.0941    0.9860    0.9125 H   0  0  0  0  0  0  0  0  0  0  0  0
   -0.7405    1.6784   -0.6793 H   0  0  0  0  0  0  0  0  0  0  0  0
   -2.2437    0.7943   -0.4195 H   0  0  0  0  0  0  0  0  0  0  0  0
    0.5870   -0.3637   -0.3637 H   0  0  0  0  0  0  0  0  0  0  0  0
   -0.4209   -2.6026   -0.1443 H   0  0  0  0  0  0  0  0  0  0  0  0
   -2.2982   -2.7315    1.3623 H   0  0  0  0  0  0  0  0  0  0  0  0
   -2.5999   -0.9190    1.2055 H   0  0  0  0  0  0  0  0  0  0  0  0
   -1.8040   -0.9489   -2.4971 H   0  0  0  0  0  0  0  0  0  0  0  0
  1  2  1  0
  1  6  1  0
  1  7  1  0
  1  8  1  0
  2  3  1  0
  2  5  1  0
  2  9  1  1
  3  4  2  3
  3 10  1  0
  4 11  1  0
  4 12  1  0
  5 13  1  0
M  END
>  <reaction>  (3) 
rxn_1508

>  <mol_properties>  (3) 
{"1": {"label": "acceptor", "atom_type": "Cs"}, "5": {"label": "a_hydrogen", "atom_type": "H0"}}

>  <type>  (3) 
r2h

$$$$

     RDKit          3D

 30 29  0  0  0  0  0  0  0  0999 V2000
   -3.3713    0.7101    0.6926 S   0  0  0  0  0  0  0  0  0  0  0  0
   -1.9528   -0.2030    0.0798 C   0  0  1  0  0  0  0  0  0  0  0  0
   -1.5501   -1.4034    0.9069 C   0  0  0  0  0  0  0  0  0  0  0  0
    0.0903    1.8613    1.8529 C   0  0  0  0  0  0  0  0  0  0  0  0
    1.2728    0.4787    0.0282 C   0  0  0  0  0  0  0  0  0  0  0  0
    0.1953    1.3813    0.4317 C   0  0  0  0  0  0  0  0  0  0  0  0
   -1.9758   -0.4208   -1.3713 C   0  0  0  0  0  0  0  0  0  0  0  0
    2.0508   -0.2273    0.9520 C   0  0  0  0  0  3  0  0  0  0  0  0
    1.4948    0.2368   -1.3341 C   0  0  0  0  0  0  0  0  0  0  0  0
    3.0082   -1.1349    0.5304 C   0  0  0  0  0  0  0  0  0  0  0  0
    3.2107   -1.3659   -0.8223 C   0  0  0  0  0  0  0  0  0  0  0  0
    2.4483   -0.6722   -1.7533 C   0  0  0  0  0  0  0  0  0  0  0  0
   -2.6637    0.2672   -2.2822 C   0  0  0  0  0  0  0  0  0  0  0  0
   -0.9307    0.6094    0.2410 H   0  0  0  0  0  0  0  0  0  0  0  0
   -1.3755   -1.1234    1.9472 H   0  0  0  0  0  0  0  0  0  0  0  0
   -2.3255   -2.1731    0.8895 H   0  0  0  0  0  0  0  0  0  0  0  0
   -0.6236   -1.8297    0.5151 H   0  0  0  0  0  0  0  0  0  0  0  0
   -0.7820    2.5040    1.9729 H   0  0  0  0  0  0  0  0  0  0  0  0
   -0.0073    1.0310    2.5567 H   0  0  0  0  0  0  0  0  0  0  0  0
    0.9732    2.4366    2.1501 H   0  0  0  0  0  0  0  0  0  0  0  0
   -1.3040   -1.2053   -1.7094 H   0  0  0  0  0  0  0  0  0  0  0  0
   -0.0396    2.1385   -0.3148 H   0  0  0  0  0  0  0  0  0  0  0  0
    1.9098   -0.0624    2.0127 H   0  0  0  0  0  0  0  0  0  0  0  0
    3.6020   -1.6657    1.2643 H   0  0  0  0  0  0  0  0  0  0  0  0
    0.8997    0.7721   -2.0651 H   0  0  0  0  0  0  0  0  0  0  0  0
    3.9592   -2.0762   -1.1492 H   0  0  0  0  0  0  0  0  0  0  0  0
    2.6014   -0.8402   -2.8122 H   0  0  0  0  0  0  0  0  0  0  0  0
   -2.5663    0.0380   -3.3352 H   0  0  0  0  0  0  0  0  0  0  0  0
   -3.3430    1.0671   -2.0126 H   0  0  0  0  0  0  0  0  0  0  0  0
   -2.9052    0.8713    1.9379 H   0  0  0  0  0  0  0  0  0  0  0  0
  1  2  1  0
  1 30  1  0
  2  3  1  0
  2  7  1  0
  2 14  1  6
  3 15  1  0
  3 16  1  0
  3 17  1  0
  4  6  1  0
  4 18  1  0
  4 19  1  0
  4 20  1  0
  5  6  2  3
  5  8  1  0
  5  9  1  0
  6 22  1  0
  7 13  2  3
  7 21  1  0
  8 10  1  0
  8 23  1  0
  9 12  2  0
  9 25  1  0
 10 11  2  0
 10 24  1  0
 11 12  1  0
 11 26  1  0
 12 27  1  0
 13 28  1  0
 13 29  1  0
M  RAD  1   8   2
M  END
>  <reaction>  (4) 
rxn_1508

>  <mol_properties>  (4) 
{"0": {"label": "*0", "atom_type": "S2s"}, "1": {"label": "*1", "atom_type": "Cs"}, "4": {"label": "*4", "atom_type": "Cd"}, "5": {"label": "*3", "atom_type": "Cd"}, "13": {"label": "*2", "atom_type": "H0"}}

>  <type>  (4) 
ts

$$$$

     RDKit          3D

 30 29  0  0  0  0  0  0  0  0999 V2000
   -0.5015   -3.0745    0.8492 C   0  0  0  0  0  0  0  0  0  0  0  0
   -0.9617   -1.8961    0.0072 C   0  0  0  0  0  3  0  0  0  0  0  0
   -2.3636   -1.9893   -0.5181 C   0  0  0  0  0  0  0  0  0  0  0  0
   -3.2402   -2.9403   -0.2327 C   0  0  0  0  0  0  0  0  0  0  0  0
   -0.7352   -0.2958    0.8741 S   0  0  0  0  0  0  0  0  0  0  0  0
   -1.1111   -3.1757    1.7491 H   0  0  0  0  0  0  0  0  0  0  0  0
   -0.5739   -4.0041    0.2801 H   0  0  0  0  0  0  0  0  0  0  0  0
    0.5331   -2.9362    1.1592 H   0  0  0  0  0  0  0  0  0  0  0  0
   -2.6553   -1.1764   -1.1758 H   0  0  0  0  0  0  0  0  0  0  0  0
   -4.2376   -2.9181   -0.6526 H   0  0  0  0  0  0  0  0  0  0  0  0
   -3.0045   -3.7710    0.4211 H   0  0  0  0  0  0  0  0  0  0  0  0
   -1.6948   -0.4913    1.7892 H   0  0  0  0  0  0  0  0  0  0  0  0
    1.1438   -0.5951   -2.3941 C   0  0  0  0  0  0  0  0  0  0  0  0
    1.1438   -0.5951   -0.8650 C   0  0  0  0  0  0  0  0  0  0  0  0
    1.1438    0.7992   -0.2956 C   0  0  0  0  0  0  0  0  0  0  0  0
   -0.0507    1.4681   -0.0478 C   0  0  0  0  0  0  0  0  0  0  0  0
   -0.0540    2.7683    0.4331 C   0  0  0  0  0  0  0  0  0  0  0  0
    1.1438    3.4237    0.6749 C   0  0  0  0  0  0  0  0  0  0  0  0
    2.3416    2.7683    0.4331 C   0  0  0  0  0  0  0  0  0  0  0  0
    2.3383    1.4681   -0.0478 C   0  0  0  0  0  0  0  0  0  0  0  0
    2.0251   -0.0801   -2.7809 H   0  0  0  0  0  0  0  0  0  0  0  0
    0.2625   -0.0801   -2.7809 H   0  0  0  0  0  0  0  0  0  0  0  0
    1.1438   -1.6136   -2.7864 H   0  0  0  0  0  0  0  0  0  0  0  0
    0.0918   -1.2451   -0.4292 H   0  0  0  0  0  0  0  0  0  0  0  0
    2.0204   -1.1368   -0.5019 H   0  0  0  0  0  0  0  0  0  0  0  0
   -0.9916    0.9609   -0.2316 H   0  0  0  0  0  0  0  0  0  0  0  0
   -0.9948    3.2700    0.6230 H   0  0  0  0  0  0  0  0  0  0  0  0
    1.1438    4.4380    1.0533 H   0  0  0  0  0  0  0  0  0  0  0  0
    3.2824    3.2700    0.6230 H   0  0  0  0  0  0  0  0  0  0  0  0
    3.2792    0.9609   -0.2316 H   0  0  0  0  0  0  0  0  0  0  0  0
  1  2  1  0
  1  6  1  0
  1  7  1  0
  1  8  1  0
  2  3  1  0
  2  5  1  0
  3  4  2  3
  3  9  1  0
  4 10  1  0
  4 11  1  0
  5 12  1  0
 13 14  1  0
 13 21  1  0
 13 22  1  0
 13 23  1  0
 14 15  1  0
 14 24  1  0
 14 25  1  0
 15 16  2  0
 15 20  1  0
 16 17  1  0
 16 26  1  0
 17 18  2  0
 17 27  1  0
 18 19  1  0
 18 28  1  0
 19 20  2  0
 19 29  1  0
 20 30  1  0
M  RAD  1   2   2
M  END
>  <reaction>  (5) 
rxn_1508

>  <mol_properties>  (5) 
{"0": {"label": "*0", "atom_type": "S2s"}, "1": {"label": "*1", "atom_type": "Cs"}, "4": {"label": "*4", "atom_type": "Cd"}, "5": {"label": "*3", "atom_type": "Cd"}, "13": {"label": "*2", "atom_type": "H0"}}

>  <type>  (5) 
unop_1

>  <geom_source>  (5) 
Heuristics

$$$$

     RDKit          3D

 30 29  0  0  0  0  0  0  0  0999 V2000
   -1.4192   -2.7604   -1.0571 C   0  0  0  0  0  0  0  0  0  0  0  0
   -1.0479   -1.6865   -0.0480 C   0  0  0  0  0  3  0  0  0  0  0  0
   -2.2036   -0.9527    0.5651 C   0  0  0  0  0  0  0  0  0  0  0  0
   -3.4862   -1.2253    0.3781 C   0  0  0  0  0  0  0  0  0  0  0  0
    0.0442   -2.3302    1.2774 S   0  0  0  0  0  0  0  0  0  0  0  0
   -2.0113   -3.5497   -0.5904 H   0  0  0  0  0  0  0  0  0  0  0  0
   -2.0029   -2.3325   -1.8753 H   0  0  0  0  0  0  0  0  0  0  0  0
   -0.5212   -3.2158   -1.4718 H   0  0  0  0  0  0  0  0  0  0  0  0
   -1.9232   -0.1414    1.2296 H   0  0  0  0  0  0  0  0  0  0  0  0
   -4.2536   -0.6451    0.8740 H   0  0  0  0  0  0  0  0  0  0  0  0
   -3.8219   -2.0261   -0.2693 H   0  0  0  0  0  0  0  0  0  0  0  0
   -0.8857   -3.0897    1.8733 H   0  0  0  0  0  0  0  0  0  0  0  0
    1.0576   -0.3855   -2.4493 C   0  0  0  0  0  0  0  0  0  0  0  0
    1.0576   -0.3855   -0.9202 C   0  0  0  0  0  0  0  0  0  0  0  0
    1.0576    1.0088   -0.3508 C   0  0  0  0  0  0  0  0  0  0  0  0
   -0.1369    1.6778   -0.1030 C   0  0  0  0  0  0  0  0  0  0  0  0
   -0.1402    2.9780    0.3779 C   0  0  0  0  0  0  0  0  0  0  0  0
    1.0576    3.6333    0.6197 C   0  0  0  0  0  0  0  0  0  0  0  0
    2.2554    2.9780    0.3779 C   0  0  0  0  0  0  0  0  0  0  0  0
    2.2521    1.6778   -0.1030 C   0  0  0  0  0  0  0  0  0  0  0  0
    1.9389    0.1296   -2.8361 H   0  0  0  0  0  0  0  0  0  0  0  0
    0.1763    0.1296   -2.8361 H   0  0  0  0  0  0  0  0  0  0  0  0
    1.0576   -1.4039   -2.8416 H   0  0  0  0  0  0  0  0  0  0  0  0
    0.0056   -1.0355   -0.4844 H   0  0  0  0  0  0  0  0  0  0  0  0
    1.9342   -0.9271   -0.5570 H   0  0  0  0  0  0  0  0  0  0  0  0
   -1.0778    1.1706   -0.2868 H   0  0  0  0  0  0  0  0  0  0  0  0
   -1.0810    3.4797    0.5678 H   0  0  0  0  0  0  0  0  0  0  0  0
    1.0576    4.6477    0.9981 H   0  0  0  0  0  0  0  0  0  0  0  0
    3.1962    3.4797    0.5678 H   0  0  0  0  0  0  0  0  0  0  0  0
    3.1930    1.1706   -0.2868 H   0  0  0  0  0  0  0  0  0  0  0  0
  1  2  1  0
  1  6  1  0
  1  7  1  0
  1  8  1  0
  2  3  1  0
  2  5  1  0
  3  4  2  3
  3  9  1  0
  4 10  1  0
  4 11  1  0
  5 12  1  0
 13 14  1  0
 13 21  1  0
 13 22  1  0
 13 23  1  0
 14 15  1  0
 14 24  1  0
 14 25  1  0
 15 16  2  0
 15 20  1  0
 16 17  1  0
 16 26  1  0
 17 18  2  0
 17 27  1  0
 18 19  1  0
 18 28  1  0
 19 20  2  0
 19 29  1  0
 20 30  1  0
M  RAD  1   2   2
M  END
>  <reaction>  (6) 
rxn_1508

>  <mol_properties>  (6) 
{"0": {"label": "*0", "atom_type": "S2s"}, "1": {"label": "*1", "atom_type": "Cs"}, "4": {"label": "*4", "atom_type": "Cd"}, "5": {"label": "*3", "atom_type": "Cd"}, "13": {"label": "*2", "atom_type": "H0"}}

>  <type>  (6) 
unop_2

>  <geom_source>  (6) 
Heuristics

$$$$

     RDKit          3D

 30 29  0  0  0  0  0  0  0  0999 V2000
   -0.5617   -2.5002    1.4634 C   0  0  0  0  0  0  0  0  0  0  0  0
   -0.8942   -1.8611    0.1253 C   0  0  0  0  0  3  0  0  0  0  0  0
   -1.8895   -2.6061   -0.7139 C   0  0  0  0  0  0  0  0  0  0  0  0
   -2.5569   -3.6909   -0.3506 C   0  0  0  0  0  0  0  0  0  0  0  0
   -1.4266   -0.1153    0.3055 S   0  0  0  0  0  0  0  0  0  0  0  0
   -1.4463   -2.5608    2.1000 H   0  0  0  0  0  0  0  0  0  0  0  0
   -0.1733   -3.5110    1.3197 H   0  0  0  0  0  0  0  0  0  0  0  0
    0.1887   -1.9106    1.9876 H   0  0  0  0  0  0  0  0  0  0  0  0
   -2.0643   -2.1774   -1.6958 H   0  0  0  0  0  0  0  0  0  0  0  0
   -3.2666   -4.1554   -1.0230 H   0  0  0  0  0  0  0  0  0  0  0  0
   -2.4255   -4.1571    0.6182 H   0  0  0  0  0  0  0  0  0  0  0  0
   -2.6036   -0.3836    0.8878 H   0  0  0  0  0  0  0  0  0  0  0  0
    1.2114   -0.5601   -2.2760 C   0  0  0  0  0  0  0  0  0  0  0  0
    1.2114   -0.5601   -0.7469 C   0  0  0  0  0  0  0  0  0  0  0  0
    1.2114    0.8342   -0.1775 C   0  0  0  0  0  0  0  0  0  0  0  0
    0.0168    1.5031    0.0703 C   0  0  0  0  0  0  0  0  0  0  0  0
    0.0135    2.8033    0.5512 C   0  0  0  0  0  0  0  0  0  0  0  0
    1.2114    3.4587    0.7930 C   0  0  0  0  0  0  0  0  0  0  0  0
    2.4092    2.8033    0.5512 C   0  0  0  0  0  0  0  0  0  0  0  0
    2.4059    1.5031    0.0703 C   0  0  0  0  0  0  0  0  0  0  0  0
    2.0926   -0.0451   -2.6628 H   0  0  0  0  0  0  0  0  0  0  0  0
    0.3301   -0.0451   -2.6628 H   0  0  0  0  0  0  0  0  0  0  0  0
    1.2114   -1.5785   -2.6683 H   0  0  0  0  0  0  0  0  0  0  0  0
    0.1594   -1.2101   -0.3111 H   0  0  0  0  0  0  0  0  0  0  0  0
    2.0880   -1.1018   -0.3837 H   0  0  0  0  0  0  0  0  0  0  0  0
   -0.9241    0.9959   -0.1135 H   0  0  0  0  0  0  0  0  0  0  0  0
   -0.9272    3.3050    0.7411 H   0  0  0  0  0  0  0  0  0  0  0  0
    1.2114    4.4730    1.1714 H   0  0  0  0  0  0  0  0  0  0  0  0
    3.3499    3.3050    0.7411 H   0  0  0  0  0  0  0  0  0  0  0  0
    3.3468    0.9959   -0.1135 H   0  0  0  0  0  0  0  0  0  0  0  0
  1  2  1  0
  1  6  1  0
  1  7  1  0
  1  8  1  0
  2  3  1  0
  2  5  1  0
  3  4  2  3
  3  9  1  0
  4 10  1  0
  4 11  1  0
  5 12  1  0
 13 14  1  0
 13 21  1  0
 13 22  1  0
 13 23  1  0
 14 15  1  0
 14 24  1  0
 14 25  1  0
 15 16  2  0
 15 20  1  0
 16 17  1  0
 16 26  1  0
 17 18  2  0
 17 27  1  0
 18 19  1  0
 18 28  1  0
 19 20  2  0
 19 29  1  0
 20 30  1  0
M  RAD  1   2   2
M  END
>  <reaction>  (7) 
rxn_1508

>  <mol_properties>  (7) 
{"0": {"label": "*0", "atom_type": "S2s"}, "1": {"label": "*1", "atom_type": "Cs"}, "4": {"label": "*4", "atom_type": "Cd"}, "5": {"label": "*3", "atom_type": "Cd"}, "13": {"label": "*2", "atom_type": "H0"}}

>  <type>  (7) 
unop_3

>  <geom_source>  (7) 
Heuristics

$$$$

     RDKit          3D

 30 29  0  0  0  0  0  0  0  0999 V2000
   -2.3018   -0.9942   -0.5585 C   0  0  0  0  0  0  0  0  0  0  0  0
   -1.0476   -1.6819   -0.0454 C   0  0  0  0  0  3  0  0  0  0  0  0
   -0.5389   -1.1892    1.2769 C   0  0  0  0  0  0  0  0  0  0  0  0
   -1.1335   -0.2992    2.0570 C   0  0  0  0  0  0  0  0  0  0  0  0
   -1.2310   -3.5061    0.0077 S   0  0  0  0  0  0  0  0  0  0  0  0
   -3.1421   -1.1531    0.1199 H   0  0  0  0  0  0  0  0  0  0  0  0
   -2.1376    0.0815   -0.6543 H   0  0  0  0  0  0  0  0  0  0  0  0
   -2.5786   -1.3918   -1.5337 H   0  0  0  0  0  0  0  0  0  0  0  0
    0.3959   -1.6383    1.5978 H   0  0  0  0  0  0  0  0  0  0  0  0
   -0.6946   -0.0120    3.0037 H   0  0  0  0  0  0  0  0  0  0  0  0
   -2.0691    0.1759    1.7888 H   0  0  0  0  0  0  0  0  0  0  0  0
   -2.1067   -3.5327    1.0220 H   0  0  0  0  0  0  0  0  0  0  0  0
    1.0579   -0.3809   -2.4467 C   0  0  0  0  0  0  0  0  0  0  0  0
    1.0579   -0.3809   -0.9176 C   0  0  0  0  0  0  0  0  0  0  0  0
    1.0579    1.0134   -0.3482 C   0  0  0  0  0  0  0  0  0  0  0  0
   -0.1366    1.6823   -0.1004 C   0  0  0  0  0  0  0  0  0  0  0  0
   -0.1399    2.9825    0.3805 C   0  0  0  0  0  0  0  0  0  0  0  0
    1.0579    3.6379    0.6223 C   0  0  0  0  0  0  0  0  0  0  0  0
    2.2557    2.9825    0.3805 C   0  0  0  0  0  0  0  0  0  0  0  0
    2.2525    1.6823   -0.1004 C   0  0  0  0  0  0  0  0  0  0  0  0
    1.9392    0.1341   -2.8335 H   0  0  0  0  0  0  0  0  0  0  0  0
    0.1767    0.1341   -2.8335 H   0  0  0  0  0  0  0  0  0  0  0  0
    1.0579   -1.3993   -2.8390 H   0  0  0  0  0  0  0  0  0  0  0  0
    0.0060   -1.0309   -0.4818 H   0  0  0  0  0  0  0  0  0  0  0  0
    1.9346   -0.9226   -0.5544 H   0  0  0  0  0  0  0  0  0  0  0  0
   -1.0775    1.1751   -0.2842 H   0  0  0  0  0  0  0  0  0  0  0  0
   -1.0807    3.4842    0.5704 H   0  0  0  0  0  0  0  0  0  0  0  0
    1.0579    4.6522    1.0007 H   0  0  0  0  0  0  0  0  0  0  0  0
    3.1965    3.4842    0.5704 H   0  0  0  0  0  0  0  0  0  0  0  0
    3.1934    1.1751   -0.2842 H   0  0  0  0  0  0  0  0  0  0  0  0
  1  2  1  0
  1  6  1  0
  1  7  1  0
  1  8  1  0
  2  3  1  0
  2  5  1  0
  3  4  2  3
  3  9  1  0
  4 10  1  0
  4 11  1  0
  5 12  1  0
 13 14  1  0
 13 21  1  0
 13 22  1  0
 13 23  1  0
 14 15  1  0
 14 24  1  0
 14 25  1  0
 15 16  2  0
 15 20  1  0
 16 17  1  0
 16 26  1  0
 17 18  2  0
 17 27  1  0
 18 19  1  0
 18 28  1  0
 19 20  2  0
 19 29  1  0
 20 30  1  0
M  RAD  1   2   2
M  END
>  <reaction>  (8) 
rxn_1508

>  <mol_properties>  (8) 
{"0": {"label": "*0", "atom_type": "S2s"}, "1": {"label": "*1", "atom_type": "Cs"}, "4": {"label": "*4", "atom_type": "Cd"}, "5": {"label": "*3", "atom_type": "Cd"}, "13": {"label": "*2", "atom_type": "H0"}}

>  <type>  (8) 
unop_4

>  <geom_source>  (8) 
Heuristics

$$$$

     RDKit          3D

 30 29  0  0  0  0  0  0  0  0999 V2000
   -0.9010   -1.6845    1.7308 C   0  0  0  0  0  0  0  0  0  0  0  0
   -0.9102   -1.6902    0.2112 C   0  0  0  0  0  3  0  0  0  0  0  0
   -0.9092   -3.0476   -0.4271 C   0  0  0  0  0  0  0  0  0  0  0  0
   -0.9994   -4.2064    0.2079 C   0  0  0  0  0  0  0  0  0  0  0  0
   -2.2844   -0.6887   -0.4763 S   0  0  0  0  0  0  0  0  0  0  0  0
   -1.7978   -2.1614    2.1306 H   0  0  0  0  0  0  0  0  0  0  0  0
   -0.0290   -2.2214    2.1111 H   0  0  0  0  0  0  0  0  0  0  0  0
   -0.8701   -0.6622    2.1046 H   0  0  0  0  0  0  0  0  0  0  0  0
   -0.8438   -3.0379   -1.5106 H   0  0  0  0  0  0  0  0  0  0  0  0
   -1.0017   -5.1395   -0.3405 H   0  0  0  0  0  0  0  0  0  0  0  0
   -1.0722   -4.2741    1.2865 H   0  0  0  0  0  0  0  0  0  0  0  0
   -3.2682   -1.5171   -0.0991 H   0  0  0  0  0  0  0  0  0  0  0  0
    1.1954   -0.3892   -2.1901 C   0  0  0  0  0  0  0  0  0  0  0  0
    1.1954   -0.3892   -0.6610 C   0  0  0  0  0  0  0  0  0  0  0  0
    1.1954    1.0051   -0.0916 C   0  0  0  0  0  0  0  0  0  0  0  0
    0.0008    1.6741    0.1562 C   0  0  0  0  0  0  0  0  0  0  0  0
   -0.0025    2.9743    0.6371 C   0  0  0  0  0  0  0  0  0  0  0  0
    1.1954    3.6296    0.8789 C   0  0  0  0  0  0  0  0  0  0  0  0
    2.3932    2.9743    0.6371 C   0  0  0  0  0  0  0  0  0  0  0  0
    2.3899    1.6741    0.1562 C   0  0  0  0  0  0  0  0  0  0  0  0
    2.0766    0.1259   -2.5769 H   0  0  0  0  0  0  0  0  0  0  0  0
    0.3141    0.1259   -2.5769 H   0  0  0  0  0  0  0  0  0  0  0  0
    1.1954   -1.4076   -2.5824 H   0  0  0  0  0  0  0  0  0  0  0  0
    0.1434   -1.0392   -0.2252 H   0  0  0  0  0  0  0  0  0  0  0  0
    2.0720   -0.9308   -0.2979 H   0  0  0  0  0  0  0  0  0  0  0  0
   -0.9401    1.1669   -0.0276 H   0  0  0  0  0  0  0  0  0  0  0  0
   -0.9432    3.4760    0.8270 H   0  0  0  0  0  0  0  0  0  0  0  0
    1.1954    4.6440    1.2572 H   0  0  0  0  0  0  0  0  0  0  0  0
    3.3339    3.4760    0.8270 H   0  0  0  0  0  0  0  0  0  0  0  0
    3.3308    1.1669   -0.0276 H   0  0  0  0  0  0  0  0  0  0  0  0
  1  2  1  0
  1  6  1  0
  1  7  1  0
  1  8  1  0
  2  3  1  0
  2  5  1  0
  3  4  2  3
  3  9  1  0
  4 10  1  0
  4 11  1  0
  5 12  1  0
 13 14  1  0
 13 21  1  0
 13 22  1  0
 13 23  1  0
 14 15  1  0
 14 24  1  0
 14 25  1  0
 15 16  2  0
 15 20  1  0
 16 17  1  0
 16 26  1  0
 17 18  2  0
 17 27  1  0
 18 19  1  0
 18 28  1  0
 19 20  2  0
 19 29  1  0
 20 30  1  0
M  RAD  1   2   2
M  END
>  <reaction>  (9) 
rxn_1508

>  <mol_properties>  (9) 
{"0": {"label": "*0", "atom_type": "S2s"}, "1": {"label": "*1", "atom_type": "Cs"}, "4": {"label": "*4", "atom_type": "Cd"}, "5": {"label": "*3", "atom_type": "Cd"}, "13": {"label": "*2", "atom_type": "H0"}}

>  <type>  (9) 
unop_5

>  <geom_source>  (9) 
Heuristics

$$$$

     RDKit          3D

 30 29  0  0  0  0  0  0  0  0999 V2000
   -2.2430   -0.6536    0.1370 C   0  0  0  0  0  0  0  0  0  0  0  0
   -1.0906   -1.6306   -0.0275 C   0  0  0  0  0  3  0  0  0  0  0  0
   -0.1211   -1.6802    1.1160 C   0  0  0  0  0  0  0  0  0  0  0  0
   -0.2399   -1.0338    2.2659 C   0  0  0  0  0  0  0  0  0  0  0  0
   -1.6713   -3.3266   -0.4151 S   0  0  0  0  0  0  0  0  0  0  0  0
   -2.8640   -0.9199    0.9942 H   0  0  0  0  0  0  0  0  0  0  0  0
   -1.8671    0.3609    0.2882 H   0  0  0  0  0  0  0  0  0  0  0  0
   -2.8747   -0.6617   -0.7499 H   0  0  0  0  0  0  0  0  0  0  0  0
    0.7348   -2.3285    0.9556 H   0  0  0  0  0  0  0  0  0  0  0  0
    0.5083   -1.1402    3.0407 H   0  0  0  0  0  0  0  0  0  0  0  0
   -1.0752   -0.3787    2.4809 H   0  0  0  0  0  0  0  0  0  0  0  0
   -2.1972   -3.5775    0.7920 H   0  0  0  0  0  0  0  0  0  0  0  0
    1.0149   -0.3295   -2.4288 C   0  0  0  0  0  0  0  0  0  0  0  0
    1.0149   -0.3295   -0.8996 C   0  0  0  0  0  0  0  0  0  0  0  0
    1.0149    1.0647   -0.3302 C   0  0  0  0  0  0  0  0  0  0  0  0
   -0.1796    1.7337   -0.0825 C   0  0  0  0  0  0  0  0  0  0  0  0
   -0.1829    3.0339    0.3984 C   0  0  0  0  0  0  0  0  0  0  0  0
    1.0149    3.6892    0.6402 C   0  0  0  0  0  0  0  0  0  0  0  0
    2.2127    3.0339    0.3984 C   0  0  0  0  0  0  0  0  0  0  0  0
    2.2094    1.7337   -0.0825 C   0  0  0  0  0  0  0  0  0  0  0  0
    1.8962    0.1855   -2.8156 H   0  0  0  0  0  0  0  0  0  0  0  0
    0.1336    0.1855   -2.8156 H   0  0  0  0  0  0  0  0  0  0  0  0
    1.0149   -1.3480   -2.8211 H   0  0  0  0  0  0  0  0  0  0  0  0
   -0.0371   -0.9796   -0.4639 H   0  0  0  0  0  0  0  0  0  0  0  0
    1.8915   -0.8712   -0.5365 H   0  0  0  0  0  0  0  0  0  0  0  0
   -1.1205    1.2265   -0.2662 H   0  0  0  0  0  0  0  0  0  0  0  0
   -1.1237    3.5356    0.5883 H   0  0  0  0  0  0  0  0  0  0  0  0
    1.0149    4.7036    1.0186 H   0  0  0  0  0  0  0  0  0  0  0  0
    3.1535    3.5356    0.5883 H   0  0  0  0  0  0  0  0  0  0  0  0
    3.1503    1.2265   -0.2662 H   0  0  0  0  0  0  0  0  0  0  0  0
  1  2  1  0
  1  6  1  0
  1  7  1  0
  1  8  1  0
  2  3  1  0
  2  5  1  0
  3  4  2  3
  3  9  1  0
  4 10  1  0
  4 11  1  0
  5 12  1  0
 13 14  1  0
 13 21  1  0
 13 22  1  0
 13 23  1  0
 14 15  1  0
 14 24  1  0
 14 25  1  0
 15 16  2  0
 15 20  1  0
 16 17  1  0
 16 26  1  0
 17 18  2  0
 17 27  1  0
 18 19  1  0
 18 28  1  0
 19 20  2  0
 19 29  1  0
 20 30  1  0
M  RAD  1   2   2
M  END
>  <reaction>  (10) 
rxn_1508

>  <mol_properties>  (10) 
{"0": {"label": "*0", "atom_type": "S2s"}, "1": {"label": "*1", "atom_type": "Cs"}, "4": {"label": "*4", "atom_type": "Cd"}, "5": {"label": "*3", "atom_type": "Cd"}, "13": {"label": "*2", "atom_type": "H0"}}

>  <type>  (10) 
unop_6

>  <geom_source>  (10) 
Heuristics

$$$$

     RDKit          3D

 30 29  0  0  0  0  0  0  0  0999 V2000
   -1.9465   -0.6312    0.8855 C   0  0  0  0  0  0  0  0  0  0  0  0
   -1.0985   -1.5700    0.0434 C   0  0  0  0  0  3  0  0  0  0  0  0
    0.0553   -2.2097    0.7573 C   0  0  0  0  0  0  0  0  0  0  0  0
    0.3268   -2.1032    2.0493 C   0  0  0  0  0  0  0  0  0  0  0  0
   -2.1062   -2.8634   -0.7784 S   0  0  0  0  0  0  0  0  0  0  0  0
   -2.4157   -1.1636    1.7148 H   0  0  0  0  0  0  0  0  0  0  0  0
   -1.3335    0.1734    1.2979 H   0  0  0  0  0  0  0  0  0  0  0  0
   -2.7370   -0.1906    0.2800 H   0  0  0  0  0  0  0  0  0  0  0  0
    0.6940   -2.8212    0.1277 H   0  0  0  0  0  0  0  0  0  0  0  0
    1.1794   -2.6124    2.4796 H   0  0  0  0  0  0  0  0  0  0  0  0
   -0.2794   -1.5112    2.7239 H   0  0  0  0  0  0  0  0  0  0  0  0
   -2.4077   -3.5412    0.3379 H   0  0  0  0  0  0  0  0  0  0  0  0
    1.0071   -0.2690   -2.3579 C   0  0  0  0  0  0  0  0  0  0  0  0
    1.0071   -0.2690   -0.8288 C   0  0  0  0  0  0  0  0  0  0  0  0
    1.0071    1.1253   -0.2594 C   0  0  0  0  0  0  0  0  0  0  0  0
   -0.1875    1.7943   -0.0116 C   0  0  0  0  0  0  0  0  0  0  0  0
   -0.1907    3.0945    0.4693 C   0  0  0  0  0  0  0  0  0  0  0  0
    1.0071    3.7498    0.7111 C   0  0  0  0  0  0  0  0  0  0  0  0
    2.2049    3.0945    0.4693 C   0  0  0  0  0  0  0  0  0  0  0  0
    2.2016    1.7943   -0.0116 C   0  0  0  0  0  0  0  0  0  0  0  0
    1.8883    0.2461   -2.7447 H   0  0  0  0  0  0  0  0  0  0  0  0
    0.1258    0.2461   -2.7447 H   0  0  0  0  0  0  0  0  0  0  0  0
    1.0071   -1.2874   -2.7502 H   0  0  0  0  0  0  0  0  0  0  0  0
   -0.0449   -0.9190   -0.3930 H   0  0  0  0  0  0  0  0  0  0  0  0
    1.8837   -0.8106   -0.4656 H   0  0  0  0  0  0  0  0  0  0  0  0
   -1.1283    1.2871   -0.1954 H   0  0  0  0  0  0  0  0  0  0  0  0
   -1.1315    3.5962    0.6592 H   0  0  0  0  0  0  0  0  0  0  0  0
    1.0071    4.7642    1.0895 H   0  0  0  0  0  0  0  0  0  0  0  0
    3.1457    3.5962    0.6592 H   0  0  0  0  0  0  0  0  0  0  0  0
    3.1425    1.2871   -0.1954 H   0  0  0  0  0  0  0  0  0  0  0  0
  1  2  1  0
  1  6  1  0
  1  7  1  0
  1  8  1  0
  2  3  1  0
  2  5  1  0
  3  4  2  3
  3  9  1  0
  4 10  1  0
  4 11  1  0
  5 12  1  0
 13 14  1  0
 13 21  1  0
 13 22  1  0
 13 23  1  0
 14 15  1  0
 14 24  1  0
 14 25  1  0
 15 16  2  0
 15 20  1  0
 16 17  1  0
 16 26  1  0
 17 18  2  0
 17 27  1  0
 18 19  1  0
 18 28  1  0
 19 20  2  0
 19 29  1  0
 20 30  1  0
M  RAD  1   2   2
M  END
>  <reaction>  (11) 
rxn_1508

>  <mol_properties>  (11) 
{"0": {"label": "*0", "atom_type": "S2s"}, "1": {"label": "*1", "atom_type": "Cs"}, "4": {"label": "*4", "atom_type": "Cd"}, "5": {"label": "*3", "atom_type": "Cd"}, "13": {"label": "*2", "atom_type": "H0"}}

>  <type>  (11) 
unop_7

>  <geom_source>  (11) 
Heuristics

$$$$

     RDKit          3D

 30 29  0  0  0  0  0  0  0  0999 V2000
   -0.6691   -3.3058    0.1007 C   0  0  0  0  0  0  0  0  0  0  0  0
   -1.0273   -1.8381   -0.0638 C   0  0  0  0  0  3  0  0  0  0  0  0
   -2.4943   -1.5410   -0.1620 C   0  0  0  0  0  0  0  0  0  0  0  0
   -3.4772   -2.4176   -0.0207 C   0  0  0  0  0  0  0  0  0  0  0  0
   -0.2743   -0.7916    1.2407 S   0  0  0  0  0  0  0  0  0  0  0  0
   -1.0795   -3.7084    1.0286 H   0  0  0  0  0  0  0  0  0  0  0  0
   -1.0641   -3.8926   -0.7316 H   0  0  0  0  0  0  0  0  0  0  0  0
    0.4123   -3.4296    0.1311 H   0  0  0  0  0  0  0  0  0  0  0  0
   -2.7333   -0.4990   -0.3505 H   0  0  0  0  0  0  0  0  0  0  0  0
   -4.5112   -2.1071   -0.0977 H   0  0  0  0  0  0  0  0  0  0  0  0
   -3.2962   -3.4677    0.1736 H   0  0  0  0  0  0  0  0  0  0  0  0
   -1.0353   -1.2459    2.2462 H   0  0  0  0  0  0  0  0  0  0  0  0
    1.0782   -0.5371   -2.4650 C   0  0  0  0  0  0  0  0  0  0  0  0
    1.0782   -0.5371   -0.9359 C   0  0  0  0  0  0  0  0  0  0  0  0
    1.0782    0.8572   -0.3665 C   0  0  0  0  0  0  0  0  0  0  0  0
   -0.1163    1.5261   -0.1188 C   0  0  0  0  0  0  0  0  0  0  0  0
   -0.1196    2.8263    0.3622 C   0  0  0  0  0  0  0  0  0  0  0  0
    1.0782    3.4817    0.6040 C   0  0  0  0  0  0  0  0  0  0  0  0
    2.2760    2.8263    0.3622 C   0  0  0  0  0  0  0  0  0  0  0  0
    2.2727    1.5261   -0.1188 C   0  0  0  0  0  0  0  0  0  0  0  0
    1.9595   -0.0221   -2.8519 H   0  0  0  0  0  0  0  0  0  0  0  0
    0.1969   -0.0221   -2.8519 H   0  0  0  0  0  0  0  0  0  0  0  0
    1.0782   -1.5555   -2.8574 H   0  0  0  0  0  0  0  0  0  0  0  0
    0.0262   -1.1871   -0.5002 H   0  0  0  0  0  0  0  0  0  0  0  0
    1.9548   -1.0788   -0.5728 H   0  0  0  0  0  0  0  0  0  0  0  0
   -1.0572    1.0189   -0.3025 H   0  0  0  0  0  0  0  0  0  0  0  0
   -1.0604    3.3280    0.5521 H   0  0  0  0  0  0  0  0  0  0  0  0
    1.0782    4.4960    0.9823 H   0  0  0  0  0  0  0  0  0  0  0  0
    3.2168    3.3280    0.5521 H   0  0  0  0  0  0  0  0  0  0  0  0
    3.2136    1.0189   -0.3025 H   0  0  0  0  0  0  0  0  0  0  0  0
  1  2  1  0
  1  6  1  0
  1  7  1  0
  1  8  1  0
  2  3  1  0
  2  5  1  0
  3  4  2  3
  3  9  1  0
  4 10  1  0
  4 11  1  0
  5 12  1  0
 13 14  1  0
 13 21  1  0
 13 22  1  0
 13 23  1  0
 14 15  1  0
 14 24  1  0
 14 25  1  0
 15 16  2  0
 15 20  1  0
 16 17  1  0
 16 26  1  0
 17 18  2  0
 17 27  1  0
 18 19  1  0
 18 28  1  0
 19 20  2  0
 19 29  1  0
 20 30  1  0
M  RAD  1   2   2
M  END
>  <reaction>  (12) 
rxn_1508

>  <mol_properties>  (12) 
{"0": {"label": "*0", "atom_type": "S2s"}, "1": {"label": "*1", "atom_type": "Cs"}, "4": {"label": "*4", "atom_type": "Cd"}, "5": {"label": "*3", "atom_type": "Cd"}, "13": {"label": "*2", "atom_type": "H0"}}

>  <type>  (12) 
unop_8

>  <geom_source>  (12) 
Heuristics

$$$$

     RDKit          3D

 30 29  0  0  0  0  0  0  0  0999 V2000
   -2.1381   -1.5446   -1.0391 C   0  0  0  0  0  0  0  0  0  0  0  0
   -1.0116   -1.6930   -0.0300 C   0  0  0  0  0  3  0  0  0  0  0  0
   -1.1340   -0.8437    1.2004 C   0  0  0  0  0  0  0  0  0  0  0  0
   -2.1641   -0.0728    1.5148 C   0  0  0  0  0  0  0  0  0  0  0  0
   -0.7423   -3.4414    0.4543 S   0  0  0  0  0  0  0  0  0  0  0  0
   -3.0941   -1.8468   -0.6075 H   0  0  0  0  0  0  0  0  0  0  0  0
   -2.2238   -0.5065   -1.3684 H   0  0  0  0  0  0  0  0  0  0  0  0
   -1.9505   -2.1711   -1.9097 H   0  0  0  0  0  0  0  0  0  0  0  0
   -0.2888   -0.9058    1.8788 H   0  0  0  0  0  0  0  0  0  0  0  0
   -2.1679    0.4983    2.4342 H   0  0  0  0  0  0  0  0  0  0  0  0
   -3.0348    0.0223    0.8777 H   0  0  0  0  0  0  0  0  0  0  0  0
   -1.8800   -3.5743    1.1504 H   0  0  0  0  0  0  0  0  0  0  0  0
    1.0939   -0.3920   -2.4313 C   0  0  0  0  0  0  0  0  0  0  0  0
    1.0939   -0.3920   -0.9021 C   0  0  0  0  0  0  0  0  0  0  0  0
    1.0939    1.0023   -0.3327 C   0  0  0  0  0  0  0  0  0  0  0  0
   -0.1006    1.6712   -0.0850 C   0  0  0  0  0  0  0  0  0  0  0  0
   -0.1039    2.9715    0.3959 C   0  0  0  0  0  0  0  0  0  0  0  0
    1.0939    3.6268    0.6377 C   0  0  0  0  0  0  0  0  0  0  0  0
    2.2917    2.9715    0.3959 C   0  0  0  0  0  0  0  0  0  0  0  0
    2.2884    1.6712   -0.0850 C   0  0  0  0  0  0  0  0  0  0  0  0
    1.9752    0.1231   -2.8181 H   0  0  0  0  0  0  0  0  0  0  0  0
    0.2126    0.1231   -2.8181 H   0  0  0  0  0  0  0  0  0  0  0  0
    1.0939   -1.4104   -2.8236 H   0  0  0  0  0  0  0  0  0  0  0  0
    0.0419   -1.0420   -0.4664 H   0  0  0  0  0  0  0  0  0  0  0  0
    1.9705   -0.9337   -0.5390 H   0  0  0  0  0  0  0  0  0  0  0  0
   -1.0415    1.1641   -0.2687 H   0  0  0  0  0  0  0  0  0  0  0  0
   -1.0447    3.4732    0.5858 H   0  0  0  0  0  0  0  0  0  0  0  0
    1.0939    4.6412    1.0161 H   0  0  0  0  0  0  0  0  0  0  0  0
    3.2325    3.4732    0.5858 H   0  0  0  0  0  0  0  0  0  0  0  0
    3.2293    1.1641   -0.2687 H   0  0  0  0  0  0  0  0  0  0  0  0
  1  2  1  0
  1  6  1  0
  1  7  1  0
  1  8  1  0
  2  3  1  0
  2  5  1  0
  3  4  2  3
  3  9  1  0
  4 10  1  0
  4 11  1  0
  5 12  1  0
 13 14  1  0
 13 21  1  0
 13 22  1  0
 13 23  1  0
 14 15  1  0
 14 24  1  0
 14 25  1  0
 15 16  2  0
 15 20  1  0
 16 17  1  0
 16 26  1  0
 17 18  2  0
 17 27  1  0
 18 19  1  0
 18 28  1  0
 19 20  2  0
 19 29  1  0
 20 30  1  0
M  RAD  1   2   2
M  END
>  <reaction>  (13) 
rxn_1508

>  <mol_properties>  (13) 
{"0": {"label": "*0", "atom_type": "S2s"}, "1": {"label": "*1", "atom_type": "Cs"}, "4": {"label": "*4", "atom_type": "Cd"}, "5": {"label": "*3", "atom_type": "Cd"}, "13": {"label": "*2", "atom_type": "H0"}}

>  <type>  (13) 
unop_9

>  <geom_source>  (13) 
Heuristics

$$$$

     RDKit          3D

 30 29  0  0  0  0  0  0  0  0999 V2000
   -1.0055   -3.1801   -0.5889 C   0  0  0  0  0  0  0  0  0  0  0  0
   -1.0594   -1.7507   -0.0758 C   0  0  0  0  0  3  0  0  0  0  0  0
   -2.4336   -1.2202    0.2075 C   0  0  0  0  0  0  0  0  0  0  0  0
   -3.5626   -1.9098    0.1437 C   0  0  0  0  0  0  0  0  0  0  0  0
    0.0103   -1.5019    1.3932 S   0  0  0  0  0  0  0  0  0  0  0  0
   -1.4074   -3.8773    0.1486 H   0  0  0  0  0  0  0  0  0  0  0  0
   -1.5878   -3.2800   -1.5077 H   0  0  0  0  0  0  0  0  0  0  0  0
    0.0238   -3.4684   -0.7965 H   0  0  0  0  0  0  0  0  0  0  0  0
   -2.4633   -0.1766    0.5049 H   0  0  0  0  0  0  0  0  0  0  0  0
   -4.5106   -1.4428    0.3776 H   0  0  0  0  0  0  0  0  0  0  0  0
   -3.5905   -2.9542   -0.1420 H   0  0  0  0  0  0  0  0  0  0  0  0
   -0.7369   -2.2250    2.2389 H   0  0  0  0  0  0  0  0  0  0  0  0
    1.0461   -0.4497   -2.4770 C   0  0  0  0  0  0  0  0  0  0  0  0
    1.0461   -0.4497   -0.9479 C   0  0  0  0  0  0  0  0  0  0  0  0
    1.0461    0.9446   -0.3785 C   0  0  0  0  0  0  0  0  0  0  0  0
   -0.1484    1.6136   -0.1308 C   0  0  0  0  0  0  0  0  0  0  0  0
   -0.1517    2.9138    0.3502 C   0  0  0  0  0  0  0  0  0  0  0  0
    1.0461    3.5691    0.5919 C   0  0  0  0  0  0  0  0  0  0  0  0
    2.2439    2.9138    0.3502 C   0  0  0  0  0  0  0  0  0  0  0  0
    2.2406    1.6136   -0.1308 C   0  0  0  0  0  0  0  0  0  0  0  0
    1.9274    0.0654   -2.8639 H   0  0  0  0  0  0  0  0  0  0  0  0
    0.1648    0.0654   -2.8639 H   0  0  0  0  0  0  0  0  0  0  0  0
    1.0461   -1.4681   -2.8694 H   0  0  0  0  0  0  0  0  0  0  0  0
   -0.0059   -1.0997   -0.5122 H   0  0  0  0  0  0  0  0  0  0  0  0
    1.9227   -0.9913   -0.5848 H   0  0  0  0  0  0  0  0  0  0  0  0
   -1.0893    1.1064   -0.3145 H   0  0  0  0  0  0  0  0  0  0  0  0
   -1.0925    3.4155    0.5401 H   0  0  0  0  0  0  0  0  0  0  0  0
    1.0461    4.5835    0.9703 H   0  0  0  0  0  0  0  0  0  0  0  0
    3.1847    3.4155    0.5401 H   0  0  0  0  0  0  0  0  0  0  0  0
    3.1815    1.1064   -0.3145 H   0  0  0  0  0  0  0  0  0  0  0  0
  1  2  1  0
  1  6  1  0
  1  7  1  0
  1  8  1  0
  2  3  1  0
  2  5  1  0
  3  4  2  3
  3  9  1  0
  4 10  1  0
  4 11  1  0
  5 12  1  0
 13 14  1  0
 13 21  1  0
 13 22  1  0
 13 23  1  0
 14 15  1  0
 14 24  1  0
 14 25  1  0
 15 16  2  0
 15 20  1  0
 16 17  1  0
 16 26  1  0
 17 18  2  0
 17 27  1  0
 18 19  1  0
 18 28  1  0
 19 20  2  0
 19 29  1  0
 20 30  1  0
M  RAD  1   2   2
M  END
>  <reaction>  (14) 
rxn_1508

>  <mol_properties>  (14) 
{"0": {"label": "*0", "atom_type": "S2s"}, "1": {"label": "*1", "atom_type": "Cs"}, "4": {"label": "*4", "atom_type": "Cd"}, "5": {"label": "*3", "atom_type": "Cd"}, "13": {"label": "*2", "atom_type": "H0"}}

>  <type>  (14) 
unop_10

>  <geom_source>  (14) 
Heuristics

$$$$

     RDKit          3D

 30 29  0  0  0  0  0  0  0  0999 V2000
   -1.4550   -0.9771    1.4901 C   0  0  0  0  0  0  0  0  0  0  0  0
   -1.0322   -1.5603    0.1520 C   0  0  0  0  0  3  0  0  0  0  0  0
   -0.1176   -2.7468    0.2275 C   0  0  0  0  0  0  0  0  0  0  0  0
    0.2594   -3.3698    1.3339 C   0  0  0  0  0  0  0  0  0  0  0  0
   -2.4701   -1.9596   -0.9143 S   0  0  0  0  0  0  0  0  0  0  0  0
   -2.0202   -1.7054    2.0747 H   0  0  0  0  0  0  0  0  0  0  0  0
   -0.5803   -0.6762    2.0710 H   0  0  0  0  0  0  0  0  0  0  0  0
   -2.0887   -0.1047    1.3387 H   0  0  0  0  0  0  0  0  0  0  0  0
    0.2336   -3.1093   -0.7336 H   0  0  0  0  0  0  0  0  0  0  0  0
    0.9166   -4.2287    1.2891 H   0  0  0  0  0  0  0  0  0  0  0  0
   -0.0647   -3.0543    2.3180 H   0  0  0  0  0  0  0  0  0  0  0  0
   -2.9077   -2.9944   -0.1835 H   0  0  0  0  0  0  0  0  0  0  0  0
    1.0733   -0.2593   -2.2493 C   0  0  0  0  0  0  0  0  0  0  0  0
    1.0733   -0.2593   -0.7202 C   0  0  0  0  0  0  0  0  0  0  0  0
    1.0733    1.1350   -0.1507 C   0  0  0  0  0  0  0  0  0  0  0  0
   -0.1212    1.8039    0.0970 C   0  0  0  0  0  0  0  0  0  0  0  0
   -0.1245    3.1041    0.5779 C   0  0  0  0  0  0  0  0  0  0  0  0
    1.0733    3.7595    0.8197 C   0  0  0  0  0  0  0  0  0  0  0  0
    2.2711    3.1041    0.5779 C   0  0  0  0  0  0  0  0  0  0  0  0
    2.2679    1.8039    0.0970 C   0  0  0  0  0  0  0  0  0  0  0  0
    1.9546    0.2557   -2.6361 H   0  0  0  0  0  0  0  0  0  0  0  0
    0.1920    0.2557   -2.6361 H   0  0  0  0  0  0  0  0  0  0  0  0
    1.0733   -1.2777   -2.6416 H   0  0  0  0  0  0  0  0  0  0  0  0
    0.0214   -0.9093   -0.2844 H   0  0  0  0  0  0  0  0  0  0  0  0
    1.9500   -0.8010   -0.3570 H   0  0  0  0  0  0  0  0  0  0  0  0
   -1.0621    1.2967   -0.0867 H   0  0  0  0  0  0  0  0  0  0  0  0
   -1.0653    3.6058    0.7678 H   0  0  0  0  0  0  0  0  0  0  0  0
    1.0733    4.7738    1.1981 H   0  0  0  0  0  0  0  0  0  0  0  0
    3.2119    3.6058    0.7678 H   0  0  0  0  0  0  0  0  0  0  0  0
    3.2087    1.2967   -0.0867 H   0  0  0  0  0  0  0  0  0  0  0  0
  1  2  1  0
  1  6  1  0
  1  7  1  0
  1  8  1  0
  2  3  1  0
  2  5  1  0
  3  4  2  3
  3  9  1  0
  4 10  1  0
  4 11  1  0
  5 12  1  0
 13 14  1  0
 13 21  1  0
 13 22  1  0
 13 23  1  0
 14 15  1  0
 14 24  1  0
 14 25  1  0
 15 16  2  0
 15 20  1  0
 16 17  1  0
 16 26  1  0
 17 18  2  0
 17 27  1  0
 18 19  1  0
 18 28  1  0
 19 20  2  0
 19 29  1  0
 20 30  1  0
M  RAD  1   2   2
M  END
>  <reaction>  (15) 
rxn_1508

>  <mol_properties>  (15) 
{"0": {"label": "*0", "atom_type": "S2s"}, "1": {"label": "*1", "atom_type": "Cs"}, "4": {"label": "*4", "atom_type": "Cd"}, "5": {"label": "*3", "atom_type": "Cd"}, "13": {"label": "*2", "atom_type": "H0"}}

>  <type>  (15) 
unop_11

>  <geom_source>  (15) 
Heuristics

$$$$

     RDKit          3D

 30 29  0  0  0  0  0  0  0  0999 V2000
   -1.8192   -2.1725   -1.2138 C   0  0  0  0  0  0  0  0  0  0  0  0
   -1.0159   -1.6761   -0.0231 C   0  0  0  0  0  3  0  0  0  0  0  0
   -1.7551   -0.7748    0.9210 C   0  0  0  0  0  0  0  0  0  0  0  0
   -3.0416   -0.4667    0.8563 C   0  0  0  0  0  0  0  0  0  0  0  0
   -0.2476   -3.0520    0.9154 S   0  0  0  0  0  0  0  0  0  0  0  0
   -2.6696   -2.7752   -0.8898 H   0  0  0  0  0  0  0  0  0  0  0  0
   -2.1984   -1.3311   -1.7982 H   0  0  0  0  0  0  0  0  0  0  0  0
   -1.1964   -2.7908   -1.8583 H   0  0  0  0  0  0  0  0  0  0  0  0
   -1.1507   -0.3707    1.7271 H   0  0  0  0  0  0  0  0  0  0  0  0
   -3.4921    0.1866    1.5923 H   0  0  0  0  0  0  0  0  0  0  0  0
   -3.6916   -0.8456    0.0771 H   0  0  0  0  0  0  0  0  0  0  0  0
   -1.3907   -3.5378    1.4192 H   0  0  0  0  0  0  0  0  0  0  0  0
    1.0896   -0.3751   -2.4244 C   0  0  0  0  0  0  0  0  0  0  0  0
    1.0896   -0.3751   -0.8953 C   0  0  0  0  0  0  0  0  0  0  0  0
    1.0896    1.0192   -0.3258 C   0  0  0  0  0  0  0  0  0  0  0  0
   -0.1049    1.6881   -0.0781 C   0  0  0  0  0  0  0  0  0  0  0  0
   -0.1082    2.9883    0.4028 C   0  0  0  0  0  0  0  0  0  0  0  0
    1.0896    3.6437    0.6446 C   0  0  0  0  0  0  0  0  0  0  0  0
    2.2874    2.9883    0.4028 C   0  0  0  0  0  0  0  0  0  0  0  0
    2.2842    1.6881   -0.0781 C   0  0  0  0  0  0  0  0  0  0  0  0
    1.9709    0.1399   -2.8112 H   0  0  0  0  0  0  0  0  0  0  0  0
    0.2084    0.1399   -2.8112 H   0  0  0  0  0  0  0  0  0  0  0  0
    1.0896   -1.3935   -2.8167 H   0  0  0  0  0  0  0  0  0  0  0  0
    0.0377   -1.0251   -0.4595 H   0  0  0  0  0  0  0  0  0  0  0  0
    1.9663   -0.9168   -0.5321 H   0  0  0  0  0  0  0  0  0  0  0  0
   -1.0458    1.1809   -0.2619 H   0  0  0  0  0  0  0  0  0  0  0  0
   -1.0490    3.4900    0.5927 H   0  0  0  0  0  0  0  0  0  0  0  0
    1.0896    4.6580    1.0230 H   0  0  0  0  0  0  0  0  0  0  0  0
    3.2282    3.4900    0.5927 H   0  0  0  0  0  0  0  0  0  0  0  0
    3.2250    1.1809   -0.2619 H   0  0  0  0  0  0  0  0  0  0  0  0
  1  2  1  0
  1  6  1  0
  1  7  1  0
  1  8  1  0
  2  3  1  0
  2  5  1  0
  3  4  2  3
  3  9  1  0
  4 10  1  0
  4 11  1  0
  5 12  1  0
 13 14  1  0
 13 21  1  0
 13 22  1  0
 13 23  1  0
 14 15  1  0
 14 24  1  0
 14 25  1  0
 15 16  2  0
 15 20  1  0
 16 17  1  0
 16 26  1  0
 17 18  2  0
 17 27  1  0
 18 19  1  0
 18 28  1  0
 19 20  2  0
 19 29  1  0
 20 30  1  0
M  RAD  1   2   2
M  END
>  <reaction>  (16) 
rxn_1508

>  <mol_properties>  (16) 
{"0": {"label": "*0", "atom_type": "S2s"}, "1": {"label": "*1", "atom_type": "Cs"}, "4": {"label": "*4", "atom_type": "Cd"}, "5": {"label": "*3", "atom_type": "Cd"}, "13": {"label": "*2", "atom_type": "H0"}}

>  <type>  (16) 
unop_12

>  <geom_source>  (16) 
Heuristics

$$$$

     RDKit          3D

 30 29  0  0  0  0  0  0  0  0999 V2000
   -3.1223    0.8392    1.2118 S   0  0  0  0  0  0  0  0  0  0  0  0
   -2.2369   -0.4366    0.2552 C   0  0  0  0  0  0  0  0  0  0  0  0
   -2.0943   -1.7061    1.0930 C   0  0  0  0  0  0  0  0  0  0  0  0
    0.1639    2.1023    1.0647 C   0  0  0  0  0  0  0  0  0  0  0  0
    1.4261    0.2339   -0.0055 C   0  0  0  0  0  0  0  0  0  0  0  0
    0.0692    0.7560    0.3589 C   0  0  0  0  0  0  0  0  0  0  0  0
   -2.9779   -0.7189   -1.0252 C   0  0  0  0  0  0  0  0  0  0  0  0
    2.0561   -0.7016    0.8273 C   0  0  0  0  0  3  0  0  0  0  0  0
    2.0869    0.6952   -1.1555 C   0  0  0  0  0  0  0  0  0  0  0  0
    3.3306   -1.1806    0.5070 C   0  0  0  0  0  0  0  0  0  0  0  0
    3.9823   -0.7239   -0.6426 C   0  0  0  0  0  0  0  0  0  0  0  0
    3.3612    0.2140   -1.4728 C   0  0  0  0  0  0  0  0  0  0  0  0
   -3.0274    0.1831   -2.0092 C   0  0  0  0  0  0  0  0  0  0  0  0
   -1.0320    0.0067   -0.0355 H   0  0  0  0  0  0  0  0  0  0  0  0
   -1.5146   -1.4880    2.0145 H   0  0  0  0  0  0  0  0  0  0  0  0
   -3.0929   -2.1003    1.3802 H   0  0  0  0  0  0  0  0  0  0  0  0
   -1.5491   -2.4830    0.5158 H   0  0  0  0  0  0  0  0  0  0  0  0
   -0.8540    2.4374    1.3530 H   0  0  0  0  0  0  0  0  0  0  0  0
    0.7809    2.0091    1.9835 H   0  0  0  0  0  0  0  0  0  0  0  0
    0.6150    2.8618    0.3910 H   0  0  0  0  0  0  0  0  0  0  0  0
   -3.4612   -1.6810   -1.1743 H   0  0  0  0  0  0  0  0  0  0  0  0
   -0.5779    0.8339   -0.5415 H   0  0  0  0  0  0  0  0  0  0  0  0
    1.5611   -1.0580    1.7223 H   0  0  0  0  0  0  0  0  0  0  0  0
    3.8137   -1.9044    1.1507 H   0  0  0  0  0  0  0  0  0  0  0  0
    1.6159    1.4251   -1.8023 H   0  0  0  0  0  0  0  0  0  0  0  0
    4.9688   -1.0950   -0.8888 H   0  0  0  0  0  0  0  0  0  0  0  0
    3.8678    0.5695   -2.3608 H   0  0  0  0  0  0  0  0  0  0  0  0
   -3.5553   -0.0451   -2.9294 H   0  0  0  0  0  0  0  0  0  0  0  0
   -2.5440    1.1500   -1.9055 H   0  0  0  0  0  0  0  0  0  0  0  0
   -2.0595    1.0052    2.1203 H   0  0  0  0  0  0  0  0  0  0  0  0
  1  2  1  0
  1 30  1  0
  2  3  1  0
  2  7  1  0
  2 14  1  0
  3 15  1  0
  3 16  1  0
  3 17  1  0
  4  6  1  0
  4 18  1  0
  4 19  1  0
  4 20  1  0
  5  6  2  3
  5  8  1  0
  5  9  1  0
  6 22  1  0
  7 13  2  3
  7 21  1  0
  8 10  1  0
  8 23  1  0
  9 12  2  0
  9 25  1  0
 10 11  2  0
 10 24  1  0
 11 12  1  0
 11 26  1  0
 12 27  1  0
 13 28  1  0
 13 29  1  0
M  RAD  1   8   2
M  END
>  <reaction>  (17) 
rxn_1508

>  <mol_properties>  (17) 
{"0": {"label": "*0", "atom_type": "S2s"}, "1": {"label": "*1", "atom_type": "Cs"}, "4": {"label": "*4", "atom_type": "Cd"}, "5": {"label": "*3", "atom_type": "Cd"}, "13": {"label": "*2", "atom_type": "H0"}}

>  <type>  (17) 
unop_13

>  <geom_source>  (17) 
AutoTST

$$$$
