
     RDKit          3D

 25 26  0  0  0  0  0  0  0  0999 V2000
    2.0298   -1.1515    0.0571 C   0  0  0  0  0  0  0  0  0  0  0  0
    2.2278    0.2445    0.6528 C   0  0  0  0  0  0  0  0  0  0  0  0
    1.2292    1.2625    0.0947 C   0  0  0  0  0  0  0  0  0  0  0  0
   -0.1869    0.7454    0.2762 C   0  0  0  0  0  0  0  0  0  0  0  0
   -1.3415    1.5501   -0.3122 C   0  0  0  0  0  0  0  0  0  0  0  0
   -2.5060    0.5338   -0.4178 C   0  0  0  0  0  0  0  0  0  0  0  0
   -1.8709   -0.8658   -0.2234 C   0  0  0  0  0  0  0  0  0  0  0  0
   -0.3715   -0.6265   -0.3693 C   0  0  0  0  0  0  0  0  0  0  0  0
    0.5898   -1.6500    0.2086 C   0  0  0  0  0  0  0  0  0  0  0  0
    2.2820   -1.1226   -1.0088 H   0  0  0  0  0  0  0  0  0  0  0  0
    2.7243   -1.8549    0.5221 H   0  0  0  0  0  0  0  0  0  0  0  0
    2.1030    0.1885    1.7400 H   0  0  0  0  0  0  0  0  0  0  0  0
    3.2514    0.5819    0.4743 H   0  0  0  0  0  0  0  0  0  0  0  0
    1.3611    2.2304    0.5855 H   0  0  0  0  0  0  0  0  0  0  0  0
    1.4198    1.4194   -0.9737 H   0  0  0  0  0  0  0  0  0  0  0  0
   -0.3675    0.6209    1.3539 H   0  0  0  0  0  0  0  0  0  0  0  0
   -1.5992    2.4249    0.2862 H   0  0  0  0  0  0  0  0  0  0  0  0
   -1.0595    1.9116   -1.3055 H   0  0  0  0  0  0  0  0  0  0  0  0
   -3.2666    0.7244    0.3399 H   0  0  0  0  0  0  0  0  0  0  0  0
   -3.0030    0.6112   -1.3853 H   0  0  0  0  0  0  0  0  0  0  0  0
   -2.2549   -1.6039   -0.9288 H   0  0  0  0  0  0  0  0  0  0  0  0
   -2.0796   -1.2429    0.7821 H   0  0  0  0  0  0  0  0  0  0  0  0
   -0.1432   -0.5121   -1.4391 H   0  0  0  0  0  0  0  0  0  0  0  0
    0.4720   -2.6209   -0.2799 H   0  0  0  0  0  0  0  0  0  0  0  0
    0.3601   -1.7986    1.2704 H   0  0  0  0  0  0  0  0  0  0  0  0
  1  2  1  0
  1  9  1  0
  1 10  1  0
  1 11  1  0
  2  3  1  0
  2 12  1  0
  2 13  1  0
  3  4  1  0
  3 14  1  0
  3 15  1  0
  4  5  1  0
  4  8  1  0
  4 16  1  0
  5  6  1  0
  5 17  1  0
  5 18  1  0
  6  7  1  0
  6 19  1  0
  6 20  1  0
  7  8  1  0
  7 21  1  0
  7 22  1  0
  8  9  1  0
  8 23  1  0
  9 24  1  0
  9 25  1  0
M  END
>  <reaction>  (1) 
rxn_606

>  <mol_properties>  (1) 
{"5": {"label": "donator", "atom_type": "Cs"}, "18": {"label": "d_hydrogen", "atom_type": "H0"}}

>  <type>  (1) 
r1h

$$$$

     RDKit          3D

 12 11  0  0  0  0  0  0  0  0999 V2000
   -2.3791    0.4612   -0.5870 C   0  0  0  0  0  0  0  0  0  0  0  0
   -1.3422   -0.3138   -0.1893 C   0  0  0  0  0  0  0  0  0  0  0  0
   -1.4723   -1.6058    0.3589 C   0  0  0  0  0  3  0  0  0  0  0  0
   -0.3798   -2.3973    0.7671 C   0  0  0  0  0  0  0  0  0  0  0  0
   -0.4849   -3.6397    1.2956 C   0  0  0  0  0  0  0  0  0  0  0  0
   -2.2205    1.4472   -1.0017 H   0  0  0  0  0  0  0  0  0  0  0  0
   -3.4026    0.1153   -0.5011 H   0  0  0  0  0  0  0  0  0  0  0  0
   -0.3330    0.0765   -0.2952 H   0  0  0  0  0  0  0  0  0  0  0  0
   -2.4723   -2.0151    0.4735 H   0  0  0  0  0  0  0  0  0  0  0  0
    0.6117   -1.9687    0.6436 H   0  0  0  0  0  0  0  0  0  0  0  0
    0.3893   -4.2030    1.5920 H   0  0  0  0  0  0  0  0  0  0  0  0
   -1.4516   -4.1084    1.4378 H   0  0  0  0  0  0  0  0  0  0  0  0
  1  2  2  3
  1  6  1  0
  1  7  1  0
  2  3  1  0
  2  8  1  0
  3  4  1  0
  3  9  1  0
  4  5  2  3
  4 10  1  0
  5 11  1  0
  5 12  1  0
M  RAD  1   3   2
M  END
>  <reaction>  (2) 
rxn_606

>  <mol_properties>  (2) 
{"2": {"label": "acceptor", "atom_type": "Cs"}}

>  <type>  (2) 
r2

$$$$

     RDKit          3D

 13 12  0  0  0  0  0  0  0  0999 V2000
    3.0977   -0.3549   -0.5105 C   0  0  0  0  0  0  0  0  0  0  0  0
    2.0556    0.4221   -0.2627 C   0  0  0  0  0  0  0  0  0  0  0  0
    0.6313   -0.0354   -0.2366 C   0  0  0  0  0  0  0  0  0  0  0  0
   -0.2567    0.6038   -1.2694 C   0  0  0  0  0  0  0  0  0  0  0  0
    0.1459    1.3456   -2.2891 C   0  0  0  0  0  0  0  0  0  0  0  0
    4.1081    0.0344   -0.5074 H   0  0  0  0  0  0  0  0  0  0  0  0
    2.9777   -1.4116   -0.7243 H   0  0  0  0  0  0  0  0  0  0  0  0
    2.2171    1.4781   -0.0618 H   0  0  0  0  0  0  0  0  0  0  0  0
    0.5865   -1.1233   -0.3540 H   0  0  0  0  0  0  0  0  0  0  0  0
    0.2065    0.1743    0.7521 H   0  0  0  0  0  0  0  0  0  0  0  0
   -1.3190    0.4126   -1.1445 H   0  0  0  0  0  0  0  0  0  0  0  0
    1.1948    1.5564   -2.4628 H   0  0  0  0  0  0  0  0  0  0  0  0
   -0.5644    1.7621   -2.9918 H   0  0  0  0  0  0  0  0  0  0  0  0
  1  2  2  3
  1  6  1  0
  1  7  1  0
  2  3  1  0
  2  8  1  0
  3  4  1  0
  3  9  1  0
  3 10  1  0
  4  5  2  3
  4 11  1  0
  5 12  1  0
  5 13  1  0
M  END
>  <reaction>  (3) 
rxn_606

>  <mol_properties>  (3) 
{"2": {"label": "acceptor", "atom_type": "Cs"}, "12": {"label": "a_hydrogen", "atom_type": "H0"}}

>  <type>  (3) 
r2h

$$$$

     RDKit          3D

 37 37  0  0  0  0  0  0  0  0999 V2000
    0.7780    2.9173    2.7719 C   0  0  0  0  0  0  0  0  0  0  0  0
    0.0961    2.3064    1.8075 C   0  0  0  0  0  0  0  0  0  0  0  0
    0.2290    2.5984    0.3715 C   0  0  0  0  0  0  0  0  0  0  0  0
   -0.9653    2.5321   -0.4898 C   0  0  0  0  0  0  0  0  0  0  0  0
   -2.1487    1.9951   -0.1963 C   0  0  0  0  0  0  0  0  0  0  0  0
    0.6642    2.6343    3.8104 H   0  0  0  0  0  0  0  0  0  0  0  0
    1.4690    3.7241    2.5529 H   0  0  0  0  0  0  0  0  0  0  0  0
   -0.5805    1.5023    2.0825 H   0  0  0  0  0  0  0  0  0  0  0  0
    0.8250    3.4922    0.1828 H   0  0  0  0  0  0  0  0  0  0  0  0
   -0.8289    2.9444   -1.4859 H   0  0  0  0  0  0  0  0  0  0  0  0
   -2.9436    1.9732   -0.9303 H   0  0  0  0  0  0  0  0  0  0  0  0
   -2.3740    1.5753    0.7764 H   0  0  0  0  0  0  0  0  0  0  0  0
   -1.2419   -3.0659   -1.1179 C   0  0  0  0  0  0  0  0  0  0  0  0
   -1.2628   -2.9311    0.4072 C   0  0  0  0  0  0  0  0  0  0  0  0
    0.0579   -2.3919    0.9658 C   0  0  0  0  0  0  0  0  0  0  0  0
    0.4045   -1.0921    0.2654 C   0  0  1  0  0  0  0  0  0  0  0  0
    1.7153   -0.3833    0.5881 C   0  0  0  0  0  0  0  0  0  0  0  0
    1.8319    0.5962   -0.5582 C   0  0  0  0  0  3  0  0  0  0  0  0
    1.0631    0.0513   -1.7500 C   0  0  0  0  0  0  0  0  0  0  0  0
    0.4922   -1.2820   -1.2499 C   0  0  2  0  0  0  0  0  0  0  0  0
   -0.8304   -1.7665   -1.8168 C   0  0  0  0  0  0  0  0  0  0  0  0
   -0.5323   -3.8535   -1.3953 H   0  0  0  0  0  0  0  0  0  0  0  0
   -2.2221   -3.3918   -1.4731 H   0  0  0  0  0  0  0  0  0  0  0  0
   -2.0685   -2.2453    0.6920 H   0  0  0  0  0  0  0  0  0  0  0  0
   -1.5001   -3.8962    0.8605 H   0  0  0  0  0  0  0  0  0  0  0  0
   -0.0193   -2.2488    2.0468 H   0  0  0  0  0  0  0  0  0  0  0  0
    0.8589   -3.1213    0.7970 H   0  0  0  0  0  0  0  0  0  0  0  0
   -0.4106   -0.3788    0.4525 H   0  0  0  0  0  0  0  0  0  0  0  0
    1.7230    0.1046    1.5656 H   0  0  0  0  0  0  0  0  0  0  0  0
    2.5470   -1.1006    0.5768 H   0  0  0  0  0  0  0  0  0  0  0  0
    1.0124    1.6967   -0.0895 H   0  0  0  0  0  0  0  0  0  0  0  0
    2.7834    1.0921   -0.7283 H   0  0  0  0  0  0  0  0  0  0  0  0
    1.6926   -0.0659   -2.6351 H   0  0  0  0  0  0  0  0  0  0  0  0
    0.2464    0.7257   -2.0341 H   0  0  0  0  0  0  0  0  0  0  0  0
    1.2452   -2.0620   -1.4299 H   0  0  0  0  0  0  0  0  0  0  0  0
   -0.7639   -1.9237   -2.8967 H   0  0  0  0  0  0  0  0  0  0  0  0
   -1.5915   -0.9949   -1.6512 H   0  0  0  0  0  0  0  0  0  0  0  0
  1  2  2  3
  1  6  1  0
  1  7  1  0
  2  3  1  0
  2  8  1  0
  3  4  1  0
  3  9  1  0
  3 31  1  0
  4  5  2  3
  4 10  1  0
  5 11  1  0
  5 12  1  0
 13 14  1  0
 13 21  1  0
 13 22  1  0
 13 23  1  0
 14 15  1  0
 14 24  1  0
 14 25  1  0
 15 16  1  0
 15 26  1  0
 15 27  1  0
 16 17  1  0
 16 20  1  0
 16 28  1  6
 17 18  1  0
 17 29  1  0
 17 30  1  0
 18 19  1  0
 18 32  1  0
 19 20  1  0
 19 33  1  0
 19 34  1  0
 20 21  1  0
 20 35  1  1
 21 36  1  0
 21 37  1  0
M  RAD  1  18   2
M  END
>  <reaction>  (4) 
rxn_606

>  <mol_properties>  (4) 
{"1": {"label": "*0", "atom_type": "Cd"}, "2": {"label": "*1", "atom_type": "Cs"}, "16": {"label": "*4", "atom_type": "Cs"}, "17": {"label": "*3", "atom_type": "Cs"}, "30": {"label": "*2", "atom_type": "H0"}}

>  <type>  (4) 
ts

$$$$

     RDKit          3D

 37 37  0  0  0  0  0  0  0  0999 V2000
    1.3671    4.3726   -0.7887 C   0  0  0  0  0  0  0  0  0  0  0  0
    1.1468    3.7057    0.3327 C   0  0  0  0  0  0  0  0  0  0  0  0
    0.1258    2.6251    0.5019 C   0  0  0  0  0  3  0  0  0  0  0  0
   -0.9511    2.9255    1.5088 C   0  0  0  0  0  0  0  0  0  0  0  0
   -1.1791    4.0993    2.0766 C   0  0  0  0  0  0  0  0  0  0  0  0
    2.1281    5.1405   -0.8511 H   0  0  0  0  0  0  0  0  0  0  0  0
    0.7940    4.1729   -1.6879 H   0  0  0  0  0  0  0  0  0  0  0  0
    1.7365    3.9417    1.2149 H   0  0  0  0  0  0  0  0  0  0  0  0
   -0.3423    2.3997   -0.4621 H   0  0  0  0  0  0  0  0  0  0  0  0
   -1.5887    2.0839    1.7653 H   0  0  0  0  0  0  0  0  0  0  0  0
   -1.9842    4.2286    2.7887 H   0  0  0  0  0  0  0  0  0  0  0  0
   -0.5780    4.9714    1.8462 H   0  0  0  0  0  0  0  0  0  0  0  0
   -1.0562   -3.9172   -1.1544 C   0  0  0  0  0  0  0  0  0  0  0  0
   -1.0562   -3.9172    0.3762 C   0  0  0  0  0  0  0  0  0  0  0  0
    0.0870   -3.0808    0.9582 C   0  0  0  0  0  0  0  0  0  0  0  0
    0.0473   -1.6798    0.3741 C   0  0  0  0  0  0  0  0  0  0  0  0
    1.1664   -0.7060    0.7295 C   0  0  0  0  0  0  0  0  0  0  0  0
    1.1164    0.3645   -0.3891 C   0  0  0  0  0  0  0  0  0  0  0  0
    0.2230   -0.2273   -1.5077 C   0  0  0  0  0  0  0  0  0  0  0  0
    0.0979   -1.7054   -1.1523 C   0  0  0  0  0  0  0  0  0  0  0  0
   -1.0562   -2.5007   -1.7364 C   0  0  0  0  0  0  0  0  0  0  0  0
   -0.1637   -4.4440   -1.5103 H   0  0  0  0  0  0  0  0  0  0  0  0
   -1.9170   -4.4783   -1.5251 H   0  0  0  0  0  0  0  0  0  0  0  0
   -2.0083   -3.5080    0.7321 H   0  0  0  0  0  0  0  0  0  0  0  0
   -1.0006   -4.9433    0.7469 H   0  0  0  0  0  0  0  0  0  0  0  0
    0.0197   -3.0548    2.0490 H   0  0  0  0  0  0  0  0  0  0  0  0
    1.0485   -3.5459    0.7101 H   0  0  0  0  0  0  0  0  0  0  0  0
   -0.9114   -1.2210    0.6566 H   0  0  0  0  0  0  0  0  0  0  0  0
    1.0576   -0.2781    1.7269 H   0  0  0  0  0  0  0  0  0  0  0  0
    2.1240   -1.2346    0.7091 H   0  0  0  0  0  0  0  0  0  0  0  0
    0.6225    1.4918    0.0552 H   0  0  0  0  0  0  0  0  0  0  0  0
    2.1176    0.5870   -0.7594 H   0  0  0  0  0  0  0  0  0  0  0  0
    0.6326   -0.0624   -2.5052 H   0  0  0  0  0  0  0  0  0  0  0  0
   -0.7691    0.2334   -1.4873 H   0  0  0  0  0  0  0  0  0  0  0  0
    1.0343   -2.2083   -1.4348 H   0  0  0  0  0  0  0  0  0  0  0  0
   -0.9955   -2.5397   -2.8273 H   0  0  0  0  0  0  0  0  0  0  0  0
   -1.9993   -1.9994   -1.4884 H   0  0  0  0  0  0  0  0  0  0  0  0
  1  2  2  3
  1  6  1  0
  1  7  1  0
  2  3  1  0
  2  8  1  0
  3  4  1  0
  3  9  1  0
  4  5  2  3
  4 10  1  0
  5 11  1  0
  5 12  1  0
 13 14  1  0
 13 21  1  0
 13 22  1  0
 13 23  1  0
 14 15  1  0
 14 24  1  0
 14 25  1  0
 15 16  1  0
 15 26  1  0
 15 27  1  0
 16 17  1  0
 16 20  1  0
 16 28  1  0
 17 18  1  0
 17 29  1  0
 17 30  1  0
 18 19  1  0
 18 31  1  0
 18 32  1  0
 19 20  1  0
 19 33  1  0
 19 34  1  0
 20 21  1  0
 20 35  1  0
 21 36  1  0
 21 37  1  0
M  RAD  1   3   2
M  END
>  <reaction>  (5) 
rxn_606

>  <mol_properties>  (5) 
{"1": {"label": "*0", "atom_type": "Cd"}, "2": {"label": "*1", "atom_type": "Cs"}, "16": {"label": "*4", "atom_type": "Cs"}, "17": {"label": "*3", "atom_type": "Cs"}, "30": {"label": "*2", "atom_type": "H0"}}

>  <type>  (5) 
unop_1

>  <geom_source>  (5) 
Heuristics

$$$$

     RDKit          3D

 37 37  0  0  0  0  0  0  0  0999 V2000
    1.5373    3.6801    2.2785 C   0  0  0  0  0  0  0  0  0  0  0  0
    0.5852    2.9043    1.7859 C   0  0  0  0  0  0  0  0  0  0  0  0
    0.2567    2.7667    0.3326 C   0  0  0  0  0  3  0  0  0  0  0  0
   -1.1312    3.2074   -0.0459 C   0  0  0  0  0  0  0  0  0  0  0  0
   -1.9736    3.8734    0.7279 C   0  0  0  0  0  0  0  0  0  0  0  0
    1.7328    3.7310    3.3423 H   0  0  0  0  0  0  0  0  0  0  0  0
    2.1585    4.2926    1.6337 H   0  0  0  0  0  0  0  0  0  0  0  0
   -0.0218    2.3123    2.4661 H   0  0  0  0  0  0  0  0  0  0  0  0
    0.9826    3.3244   -0.2685 H   0  0  0  0  0  0  0  0  0  0  0  0
   -1.4367    2.9483   -1.0559 H   0  0  0  0  0  0  0  0  0  0  0  0
   -2.9550    4.1580    0.3704 H   0  0  0  0  0  0  0  0  0  0  0  0
   -1.7123    4.1642    1.7389 H   0  0  0  0  0  0  0  0  0  0  0  0
   -0.9252   -3.7755   -1.3237 C   0  0  0  0  0  0  0  0  0  0  0  0
   -0.9252   -3.7755    0.2069 C   0  0  0  0  0  0  0  0  0  0  0  0
    0.2179   -2.9392    0.7889 C   0  0  0  0  0  0  0  0  0  0  0  0
    0.1783   -1.5382    0.2048 C   0  0  0  0  0  0  0  0  0  0  0  0
    1.2973   -0.5644    0.5602 C   0  0  0  0  0  0  0  0  0  0  0  0
    1.2474    0.5062   -0.5584 C   0  0  0  0  0  0  0  0  0  0  0  0
    0.3539   -0.0857   -1.6770 C   0  0  0  0  0  0  0  0  0  0  0  0
    0.2288   -1.5638   -1.3216 C   0  0  0  0  0  0  0  0  0  0  0  0
   -0.9252   -2.3591   -1.9057 C   0  0  0  0  0  0  0  0  0  0  0  0
   -0.0328   -4.3024   -1.6796 H   0  0  0  0  0  0  0  0  0  0  0  0
   -1.7861   -4.3366   -1.6944 H   0  0  0  0  0  0  0  0  0  0  0  0
   -1.8774   -3.3664    0.5628 H   0  0  0  0  0  0  0  0  0  0  0  0
   -0.8697   -4.8016    0.5776 H   0  0  0  0  0  0  0  0  0  0  0  0
    0.1506   -2.9132    1.8797 H   0  0  0  0  0  0  0  0  0  0  0  0
    1.1794   -3.4043    0.5408 H   0  0  0  0  0  0  0  0  0  0  0  0
   -0.7805   -1.0793    0.4873 H   0  0  0  0  0  0  0  0  0  0  0  0
    1.1885   -0.1365    1.5576 H   0  0  0  0  0  0  0  0  0  0  0  0
    2.2550   -1.0929    0.5398 H   0  0  0  0  0  0  0  0  0  0  0  0
    0.7534    1.6334   -0.1141 H   0  0  0  0  0  0  0  0  0  0  0  0
    2.2486    0.7286   -0.9287 H   0  0  0  0  0  0  0  0  0  0  0  0
    0.7635    0.0792   -2.6745 H   0  0  0  0  0  0  0  0  0  0  0  0
   -0.6381    0.3751   -1.6566 H   0  0  0  0  0  0  0  0  0  0  0  0
    1.1653   -2.0666   -1.6041 H   0  0  0  0  0  0  0  0  0  0  0  0
   -0.8646   -2.3981   -2.9966 H   0  0  0  0  0  0  0  0  0  0  0  0
   -1.8684   -1.8578   -1.6577 H   0  0  0  0  0  0  0  0  0  0  0  0
  1  2  2  3
  1  6  1  0
  1  7  1  0
  2  3  1  0
  2  8  1  0
  3  4  1  0
  3  9  1  0
  4  5  2  3
  4 10  1  0
  5 11  1  0
  5 12  1  0
 13 14  1  0
 13 21  1  0
 13 22  1  0
 13 23  1  0
 14 15  1  0
 14 24  1  0
 14 25  1  0
 15 16  1  0
 15 26  1  0
 15 27  1  0
 16 17  1  0
 16 20  1  0
 16 28  1  0
 17 18  1  0
 17 29  1  0
 17 30  1  0
 18 19  1  0
 18 31  1  0
 18 32  1  0
 19 20  1  0
 19 33  1  0
 19 34  1  0
 20 21  1  0
 20 35  1  0
 21 36  1  0
 21 37  1  0
M  RAD  1   3   2
M  END
>  <reaction>  (6) 
rxn_606

>  <mol_properties>  (6) 
{"1": {"label": "*0", "atom_type": "Cd"}, "2": {"label": "*1", "atom_type": "Cs"}, "16": {"label": "*4", "atom_type": "Cs"}, "17": {"label": "*3", "atom_type": "Cs"}, "30": {"label": "*2", "atom_type": "H0"}}

>  <type>  (6) 
unop_2

>  <geom_source>  (6) 
Heuristics

$$$$

     RDKit          3D

 37 37  0  0  0  0  0  0  0  0999 V2000
    0.1968    4.3076   -1.3219 C   0  0  0  0  0  0  0  0  0  0  0  0
    0.7277    3.7542   -0.2435 C   0  0  0  0  0  0  0  0  0  0  0  0
    0.1245    2.6207    0.5246 C   0  0  0  0  0  3  0  0  0  0  0  0
   -0.2360    2.9439    1.9492 C   0  0  0  0  0  0  0  0  0  0  0  0
   -0.2580    4.1515    2.4908 C   0  0  0  0  0  0  0  0  0  0  0  0
    0.6867    5.1224   -1.8402 H   0  0  0  0  0  0  0  0  0  0  0  0
   -0.7487    3.9636   -1.7275 H   0  0  0  0  0  0  0  0  0  0  0  0
    1.6726    4.1337    0.1370 H   0  0  0  0  0  0  0  0  0  0  0  0
   -0.7677    2.2524    0.0073 H   0  0  0  0  0  0  0  0  0  0  0  0
   -0.5070    2.0876    2.5607 H   0  0  0  0  0  0  0  0  0  0  0  0
   -0.5378    4.2942    3.5268 H   0  0  0  0  0  0  0  0  0  0  0  0
   -0.0064    5.0379    1.9201 H   0  0  0  0  0  0  0  0  0  0  0  0
   -1.0575   -3.9216   -1.1317 C   0  0  0  0  0  0  0  0  0  0  0  0
   -1.0575   -3.9216    0.3989 C   0  0  0  0  0  0  0  0  0  0  0  0
    0.0856   -3.0852    0.9808 C   0  0  0  0  0  0  0  0  0  0  0  0
    0.0460   -1.6842    0.3967 C   0  0  0  0  0  0  0  0  0  0  0  0
    1.1651   -0.7104    0.7522 C   0  0  0  0  0  0  0  0  0  0  0  0
    1.1151    0.3601   -0.3664 C   0  0  0  0  0  0  0  0  0  0  0  0
    0.2216   -0.2317   -1.4851 C   0  0  0  0  0  0  0  0  0  0  0  0
    0.0965   -1.7099   -1.1296 C   0  0  0  0  0  0  0  0  0  0  0  0
   -1.0575   -2.5052   -1.7137 C   0  0  0  0  0  0  0  0  0  0  0  0
   -0.1651   -4.4484   -1.4877 H   0  0  0  0  0  0  0  0  0  0  0  0
   -1.9184   -4.4827   -1.5025 H   0  0  0  0  0  0  0  0  0  0  0  0
   -2.0096   -3.5124    0.7548 H   0  0  0  0  0  0  0  0  0  0  0  0
   -1.0020   -4.9477    0.7696 H   0  0  0  0  0  0  0  0  0  0  0  0
    0.0184   -3.0593    2.0717 H   0  0  0  0  0  0  0  0  0  0  0  0
    1.0471   -3.5503    0.7328 H   0  0  0  0  0  0  0  0  0  0  0  0
   -0.9128   -1.2254    0.6793 H   0  0  0  0  0  0  0  0  0  0  0  0
    1.0562   -0.2825    1.7496 H   0  0  0  0  0  0  0  0  0  0  0  0
    2.1227   -1.2390    0.7318 H   0  0  0  0  0  0  0  0  0  0  0  0
    0.6211    1.4874    0.0779 H   0  0  0  0  0  0  0  0  0  0  0  0
    2.1163    0.5826   -0.7367 H   0  0  0  0  0  0  0  0  0  0  0  0
    0.6312   -0.0669   -2.4825 H   0  0  0  0  0  0  0  0  0  0  0  0
   -0.7704    0.2290   -1.4646 H   0  0  0  0  0  0  0  0  0  0  0  0
    1.0330   -2.2127   -1.4122 H   0  0  0  0  0  0  0  0  0  0  0  0
   -0.9969   -2.5441   -2.8046 H   0  0  0  0  0  0  0  0  0  0  0  0
   -2.0007   -2.0038   -1.4657 H   0  0  0  0  0  0  0  0  0  0  0  0
  1  2  2  3
  1  6  1  0
  1  7  1  0
  2  3  1  0
  2  8  1  0
  3  4  1  0
  3  9  1  0
  4  5  2  3
  4 10  1  0
  5 11  1  0
  5 12  1  0
 13 14  1  0
 13 21  1  0
 13 22  1  0
 13 23  1  0
 14 15  1  0
 14 24  1  0
 14 25  1  0
 15 16  1  0
 15 26  1  0
 15 27  1  0
 16 17  1  0
 16 20  1  0
 16 28  1  0
 17 18  1  0
 17 29  1  0
 17 30  1  0
 18 19  1  0
 18 31  1  0
 18 32  1  0
 19 20  1  0
 19 33  1  0
 19 34  1  0
 20 21  1  0
 20 35  1  0
 21 36  1  0
 21 37  1  0
M  RAD  1   3   2
M  END
>  <reaction>  (7) 
rxn_606

>  <mol_properties>  (7) 
{"1": {"label": "*0", "atom_type": "Cd"}, "2": {"label": "*1", "atom_type": "Cs"}, "16": {"label": "*4", "atom_type": "Cs"}, "17": {"label": "*3", "atom_type": "Cs"}, "30": {"label": "*2", "atom_type": "H0"}}

>  <type>  (7) 
unop_3

>  <geom_source>  (7) 
Heuristics

$$$$

     RDKit          3D

 37 37  0  0  0  0  0  0  0  0999 V2000
   -1.5712    3.3309    2.1451 C   0  0  0  0  0  0  0  0  0  0  0  0
   -0.9710    2.6213    1.2032 C   0  0  0  0  0  0  0  0  0  0  0  0
    0.4185    2.8611    0.7026 C   0  0  0  0  0  3  0  0  0  0  0  0
    0.5108    3.2286   -0.7535 C   0  0  0  0  0  0  0  0  0  0  0  0
   -0.5041    3.5496   -1.5403 C   0  0  0  0  0  0  0  0  0  0  0  0
   -2.5782    3.1028    2.4711 H   0  0  0  0  0  0  0  0  0  0  0  0
   -1.0750    4.1668    2.6267 H   0  0  0  0  0  0  0  0  0  0  0  0
   -1.5055    1.7967    0.7385 H   0  0  0  0  0  0  0  0  0  0  0  0
    0.8997    3.6443    1.2978 H   0  0  0  0  0  0  0  0  0  0  0  0
    1.5166    3.2307   -1.1646 H   0  0  0  0  0  0  0  0  0  0  0  0
   -0.3455    3.8091   -2.5792 H   0  0  0  0  0  0  0  0  0  0  0  0
   -1.5245    3.5724   -1.1753 H   0  0  0  0  0  0  0  0  0  0  0  0
   -0.7634   -3.6812   -0.9538 C   0  0  0  0  0  0  0  0  0  0  0  0
   -0.7634   -3.6812    0.5768 C   0  0  0  0  0  0  0  0  0  0  0  0
    0.3797   -2.8448    1.1588 C   0  0  0  0  0  0  0  0  0  0  0  0
    0.3401   -1.4439    0.5747 C   0  0  0  0  0  0  0  0  0  0  0  0
    1.4591   -0.4701    0.9302 C   0  0  0  0  0  0  0  0  0  0  0  0
    1.4092    0.6005   -0.1885 C   0  0  0  0  0  0  0  0  0  0  0  0
    0.5157    0.0086   -1.3071 C   0  0  0  0  0  0  0  0  0  0  0  0
    0.3906   -1.4695   -0.9516 C   0  0  0  0  0  0  0  0  0  0  0  0
   -0.7634   -2.2648   -1.5357 C   0  0  0  0  0  0  0  0  0  0  0  0
    0.1290   -4.2080   -1.3097 H   0  0  0  0  0  0  0  0  0  0  0  0
   -1.6243   -4.2423   -1.3245 H   0  0  0  0  0  0  0  0  0  0  0  0
   -1.7156   -3.2721    0.9328 H   0  0  0  0  0  0  0  0  0  0  0  0
   -0.7079   -4.7073    0.9476 H   0  0  0  0  0  0  0  0  0  0  0  0
    0.3124   -2.8189    2.2497 H   0  0  0  0  0  0  0  0  0  0  0  0
    1.3412   -3.3100    0.9108 H   0  0  0  0  0  0  0  0  0  0  0  0
   -0.6187   -0.9850    0.8573 H   0  0  0  0  0  0  0  0  0  0  0  0
    1.3503   -0.0421    1.9276 H   0  0  0  0  0  0  0  0  0  0  0  0
    2.4168   -0.9986    0.9097 H   0  0  0  0  0  0  0  0  0  0  0  0
    0.9152    1.7277    0.2559 H   0  0  0  0  0  0  0  0  0  0  0  0
    2.4104    0.8230   -0.5587 H   0  0  0  0  0  0  0  0  0  0  0  0
    0.9253    0.1735   -2.3045 H   0  0  0  0  0  0  0  0  0  0  0  0
   -0.4764    0.4694   -1.2867 H   0  0  0  0  0  0  0  0  0  0  0  0
    1.3271   -1.9723   -1.2342 H   0  0  0  0  0  0  0  0  0  0  0  0
   -0.7028   -2.3038   -2.6266 H   0  0  0  0  0  0  0  0  0  0  0  0
   -1.7066   -1.7635   -1.2877 H   0  0  0  0  0  0  0  0  0  0  0  0
  1  2  2  3
  1  6  1  0
  1  7  1  0
  2  3  1  0
  2  8  1  0
  3  4  1  0
  3  9  1  0
  4  5  2  3
  4 10  1  0
  5 11  1  0
  5 12  1  0
 13 14  1  0
 13 21  1  0
 13 22  1  0
 13 23  1  0
 14 15  1  0
 14 24  1  0
 14 25  1  0
 15 16  1  0
 15 26  1  0
 15 27  1  0
 16 17  1  0
 16 20  1  0
 16 28  1  0
 17 18  1  0
 17 29  1  0
 17 30  1  0
 18 19  1  0
 18 31  1  0
 18 32  1  0
 19 20  1  0
 19 33  1  0
 19 34  1  0
 20 21  1  0
 20 35  1  0
 21 36  1  0
 21 37  1  0
M  RAD  1   3   2
M  END
>  <reaction>  (8) 
rxn_606

>  <mol_properties>  (8) 
{"1": {"label": "*0", "atom_type": "Cd"}, "2": {"label": "*1", "atom_type": "Cs"}, "16": {"label": "*4", "atom_type": "Cs"}, "17": {"label": "*3", "atom_type": "Cs"}, "30": {"label": "*2", "atom_type": "H0"}}

>  <type>  (8) 
unop_4

>  <geom_source>  (8) 
Heuristics

$$$$

     RDKit          3D

 37 37  0  0  0  0  0  0  0  0999 V2000
   -1.0617    4.2211   -0.9900 C   0  0  0  0  0  0  0  0  0  0  0  0
    0.0250    3.6178   -0.5360 C   0  0  0  0  0  0  0  0  0  0  0  0
    0.0505    2.6224    0.5808 C   0  0  0  0  0  3  0  0  0  0  0  0
    0.8542    3.0410    1.7819 C   0  0  0  0  0  0  0  0  0  0  0  0
    1.3431    4.2502    2.0073 C   0  0  0  0  0  0  0  0  0  0  0  0
   -1.0170    4.9282   -1.8089 H   0  0  0  0  0  0  0  0  0  0  0  0
   -2.0383    4.0277   -0.5591 H   0  0  0  0  0  0  0  0  0  0  0  0
    0.9865    3.8455   -0.9889 H   0  0  0  0  0  0  0  0  0  0  0  0
   -0.9716    2.3930    0.8998 H   0  0  0  0  0  0  0  0  0  0  0  0
    1.0234    2.2593    2.5173 H   0  0  0  0  0  0  0  0  0  0  0  0
    1.9065    4.4666    2.9060 H   0  0  0  0  0  0  0  0  0  0  0  0
    1.1927    5.0661    1.3097 H   0  0  0  0  0  0  0  0  0  0  0  0
   -1.1314   -3.9199   -1.0756 C   0  0  0  0  0  0  0  0  0  0  0  0
   -1.1314   -3.9199    0.4550 C   0  0  0  0  0  0  0  0  0  0  0  0
    0.0117   -3.0835    1.0370 C   0  0  0  0  0  0  0  0  0  0  0  0
   -0.0279   -1.6825    0.4529 C   0  0  0  0  0  0  0  0  0  0  0  0
    1.0912   -0.7088    0.8084 C   0  0  0  0  0  0  0  0  0  0  0  0
    1.0412    0.3618   -0.3103 C   0  0  0  0  0  0  0  0  0  0  0  0
    0.1477   -0.2300   -1.4289 C   0  0  0  0  0  0  0  0  0  0  0  0
    0.0226   -1.7082   -1.0734 C   0  0  0  0  0  0  0  0  0  0  0  0
   -1.1314   -2.5035   -1.6576 C   0  0  0  0  0  0  0  0  0  0  0  0
   -0.2390   -4.4467   -1.4315 H   0  0  0  0  0  0  0  0  0  0  0  0
   -1.9923   -4.4810   -1.4463 H   0  0  0  0  0  0  0  0  0  0  0  0
   -2.0835   -3.5108    0.8110 H   0  0  0  0  0  0  0  0  0  0  0  0
   -1.0759   -4.9460    0.8258 H   0  0  0  0  0  0  0  0  0  0  0  0
   -0.0555   -3.0576    2.1279 H   0  0  0  0  0  0  0  0  0  0  0  0
    0.9732   -3.5487    0.7890 H   0  0  0  0  0  0  0  0  0  0  0  0
   -0.9867   -1.2237    0.7355 H   0  0  0  0  0  0  0  0  0  0  0  0
    0.9823   -0.2808    1.8058 H   0  0  0  0  0  0  0  0  0  0  0  0
    2.0488   -1.2373    0.7879 H   0  0  0  0  0  0  0  0  0  0  0  0
    0.5472    1.4891    0.1341 H   0  0  0  0  0  0  0  0  0  0  0  0
    2.0424    0.5843   -0.6805 H   0  0  0  0  0  0  0  0  0  0  0  0
    0.5573   -0.0652   -2.4263 H   0  0  0  0  0  0  0  0  0  0  0  0
   -0.8443    0.2307   -1.4085 H   0  0  0  0  0  0  0  0  0  0  0  0
    0.9591   -2.2110   -1.3560 H   0  0  0  0  0  0  0  0  0  0  0  0
   -1.0708   -2.5424   -2.7484 H   0  0  0  0  0  0  0  0  0  0  0  0
   -2.0746   -2.0021   -1.4095 H   0  0  0  0  0  0  0  0  0  0  0  0
  1  2  2  3
  1  6  1  0
  1  7  1  0
  2  3  1  0
  2  8  1  0
  3  4  1  0
  3  9  1  0
  4  5  2  3
  4 10  1  0
  5 11  1  0
  5 12  1  0
 13 14  1  0
 13 21  1  0
 13 22  1  0
 13 23  1  0
 14 15  1  0
 14 24  1  0
 14 25  1  0
 15 16  1  0
 15 26  1  0
 15 27  1  0
 16 17  1  0
 16 20  1  0
 16 28  1  0
 17 18  1  0
 17 29  1  0
 17 30  1  0
 18 19  1  0
 18 31  1  0
 18 32  1  0
 19 20  1  0
 19 33  1  0
 19 34  1  0
 20 21  1  0
 20 35  1  0
 21 36  1  0
 21 37  1  0
M  RAD  1   3   2
M  END
>  <reaction>  (9) 
rxn_606

>  <mol_properties>  (9) 
{"1": {"label": "*0", "atom_type": "Cd"}, "2": {"label": "*1", "atom_type": "Cs"}, "16": {"label": "*4", "atom_type": "Cs"}, "17": {"label": "*3", "atom_type": "Cs"}, "30": {"label": "*2", "atom_type": "H0"}}

>  <type>  (9) 
unop_5

>  <geom_source>  (9) 
Heuristics

$$$$

     RDKit          3D

 37 37  0  0  0  0  0  0  0  0999 V2000
   -2.0245    3.5686    1.2770 C   0  0  0  0  0  0  0  0  0  0  0  0
   -1.1717    2.7957    0.6240 C   0  0  0  0  0  0  0  0  0  0  0  0
    0.3127    2.8057    0.8120 C   0  0  0  0  0  3  0  0  0  0  0  0
    1.1014    3.1979   -0.4077 C   0  0  0  0  0  0  0  0  0  0  0  0
    0.6060    3.7158   -1.5206 C   0  0  0  0  0  0  0  0  0  0  0  0
   -3.0914    3.5091    1.1022 H   0  0  0  0  0  0  0  0  0  0  0  0
   -1.6855    4.2893    2.0135 H   0  0  0  0  0  0  0  0  0  0  0  0
   -1.5505    2.0922   -0.1130 H   0  0  0  0  0  0  0  0  0  0  0  0
    0.5798    3.4737    1.6376 H   0  0  0  0  0  0  0  0  0  0  0  0
    2.1736    3.0379   -0.3334 H   0  0  0  0  0  0  0  0  0  0  0  0
    1.2503    3.9768   -2.3506 H   0  0  0  0  0  0  0  0  0  0  0  0
   -0.4547    3.9044   -1.6399 H   0  0  0  0  0  0  0  0  0  0  0  0
   -0.8693   -3.7366   -0.8443 C   0  0  0  0  0  0  0  0  0  0  0  0
   -0.8693   -3.7366    0.6863 C   0  0  0  0  0  0  0  0  0  0  0  0
    0.2738   -2.9002    1.2683 C   0  0  0  0  0  0  0  0  0  0  0  0
    0.2342   -1.4993    0.6842 C   0  0  0  0  0  0  0  0  0  0  0  0
    1.3533   -0.5255    1.0396 C   0  0  0  0  0  0  0  0  0  0  0  0
    1.3033    0.5451   -0.0790 C   0  0  0  0  0  0  0  0  0  0  0  0
    0.4098   -0.0468   -1.1976 C   0  0  0  0  0  0  0  0  0  0  0  0
    0.2847   -1.5249   -0.8422 C   0  0  0  0  0  0  0  0  0  0  0  0
   -0.8693   -2.3202   -1.4263 C   0  0  0  0  0  0  0  0  0  0  0  0
    0.0231   -4.2634   -1.2002 H   0  0  0  0  0  0  0  0  0  0  0  0
   -1.7302   -4.2977   -1.2150 H   0  0  0  0  0  0  0  0  0  0  0  0
   -1.8214   -3.3275    1.0422 H   0  0  0  0  0  0  0  0  0  0  0  0
   -0.8138   -4.7627    1.0570 H   0  0  0  0  0  0  0  0  0  0  0  0
    0.2066   -2.8743    2.3591 H   0  0  0  0  0  0  0  0  0  0  0  0
    1.2354   -3.3654    1.0202 H   0  0  0  0  0  0  0  0  0  0  0  0
   -0.7246   -1.0404    0.9667 H   0  0  0  0  0  0  0  0  0  0  0  0
    1.2444   -0.0975    2.0370 H   0  0  0  0  0  0  0  0  0  0  0  0
    2.3109   -1.0540    1.0192 H   0  0  0  0  0  0  0  0  0  0  0  0
    0.8093    1.6723    0.3653 H   0  0  0  0  0  0  0  0  0  0  0  0
    2.3045    0.7676   -0.4493 H   0  0  0  0  0  0  0  0  0  0  0  0
    0.8195    0.1181   -2.1951 H   0  0  0  0  0  0  0  0  0  0  0  0
   -0.5822    0.4140   -1.1772 H   0  0  0  0  0  0  0  0  0  0  0  0
    1.2212   -2.0277   -1.1247 H   0  0  0  0  0  0  0  0  0  0  0  0
   -0.8086   -2.3592   -2.5172 H   0  0  0  0  0  0  0  0  0  0  0  0
   -1.8125   -1.8189   -1.1783 H   0  0  0  0  0  0  0  0  0  0  0  0
  1  2  2  3
  1  6  1  0
  1  7  1  0
  2  3  1  0
  2  8  1  0
  3  4  1  0
  3  9  1  0
  4  5  2  3
  4 10  1  0
  5 11  1  0
  5 12  1  0
 13 14  1  0
 13 21  1  0
 13 22  1  0
 13 23  1  0
 14 15  1  0
 14 24  1  0
 14 25  1  0
 15 16  1  0
 15 26  1  0
 15 27  1  0
 16 17  1  0
 16 20  1  0
 16 28  1  0
 17 18  1  0
 17 29  1  0
 17 30  1  0
 18 19  1  0
 18 31  1  0
 18 32  1  0
 19 20  1  0
 19 33  1  0
 19 34  1  0
 20 21  1  0
 20 35  1  0
 21 36  1  0
 21 37  1  0
M  RAD  1   3   2
M  END
>  <reaction>  (10) 
rxn_606

>  <mol_properties>  (10) 
{"1": {"label": "*0", "atom_type": "Cd"}, "2": {"label": "*1", "atom_type": "Cs"}, "16": {"label": "*4", "atom_type": "Cs"}, "17": {"label": "*3", "atom_type": "Cs"}, "30": {"label": "*2", "atom_type": "H0"}}

>  <type>  (10) 
unop_6

>  <geom_source>  (10) 
Heuristics

$$$$

     RDKit          3D

 37 37  0  0  0  0  0  0  0  0999 V2000
   -2.0156    3.8977    0.4490 C   0  0  0  0  0  0  0  0  0  0  0  0
   -1.0650    3.0687    0.0490 C   0  0  0  0  0  0  0  0  0  0  0  0
    0.1659    2.7334    0.8310 C   0  0  0  0  0  3  0  0  0  0  0  0
    1.4598    3.1283    0.1724 C   0  0  0  0  0  0  0  0  0  0  0  0
    1.5849    3.9019   -0.8943 C   0  0  0  0  0  0  0  0  0  0  0  0
   -2.8891    4.0942   -0.1601 H   0  0  0  0  0  0  0  0  0  0  0  0
   -1.9553    4.4099    1.4033 H   0  0  0  0  0  0  0  0  0  0  0  0
   -1.1582    2.5816   -0.9183 H   0  0  0  0  0  0  0  0  0  0  0  0
    0.1161    3.1965    1.8221 H   0  0  0  0  0  0  0  0  0  0  0  0
    2.3554    2.7340    0.6447 H   0  0  0  0  0  0  0  0  0  0  0  0
    2.5597    4.1419   -1.2993 H   0  0  0  0  0  0  0  0  0  0  0  0
    0.7230    4.3280   -1.3949 H   0  0  0  0  0  0  0  0  0  0  0  0
   -1.0161   -3.8089   -0.8254 C   0  0  0  0  0  0  0  0  0  0  0  0
   -1.0161   -3.8089    0.7052 C   0  0  0  0  0  0  0  0  0  0  0  0
    0.1270   -2.9725    1.2872 C   0  0  0  0  0  0  0  0  0  0  0  0
    0.0874   -1.5715    0.7031 C   0  0  0  0  0  0  0  0  0  0  0  0
    1.2065   -0.5977    1.0585 C   0  0  0  0  0  0  0  0  0  0  0  0
    1.1565    0.4728   -0.0601 C   0  0  0  0  0  0  0  0  0  0  0  0
    0.2630   -0.1190   -1.1787 C   0  0  0  0  0  0  0  0  0  0  0  0
    0.1380   -1.5971   -0.8233 C   0  0  0  0  0  0  0  0  0  0  0  0
   -1.0161   -2.3924   -1.4074 C   0  0  0  0  0  0  0  0  0  0  0  0
   -0.1237   -4.3357   -1.1813 H   0  0  0  0  0  0  0  0  0  0  0  0
   -1.8770   -4.3700   -1.1961 H   0  0  0  0  0  0  0  0  0  0  0  0
   -1.9682   -3.3997    1.0611 H   0  0  0  0  0  0  0  0  0  0  0  0
   -0.9606   -4.8350    1.0759 H   0  0  0  0  0  0  0  0  0  0  0  0
    0.0598   -2.9465    2.3781 H   0  0  0  0  0  0  0  0  0  0  0  0
    1.0886   -3.4376    1.0392 H   0  0  0  0  0  0  0  0  0  0  0  0
   -0.8714   -1.1127    0.9856 H   0  0  0  0  0  0  0  0  0  0  0  0
    1.0976   -0.1698    2.0560 H   0  0  0  0  0  0  0  0  0  0  0  0
    2.1641   -1.1263    1.0381 H   0  0  0  0  0  0  0  0  0  0  0  0
    0.6625    1.6001    0.3842 H   0  0  0  0  0  0  0  0  0  0  0  0
    2.1577    0.6953   -0.4303 H   0  0  0  0  0  0  0  0  0  0  0  0
    0.6727    0.0459   -2.1761 H   0  0  0  0  0  0  0  0  0  0  0  0
   -0.7290    0.3417   -1.1583 H   0  0  0  0  0  0  0  0  0  0  0  0
    1.0744   -2.1000   -1.1058 H   0  0  0  0  0  0  0  0  0  0  0  0
   -0.9554   -2.4314   -2.4982 H   0  0  0  0  0  0  0  0  0  0  0  0
   -1.9593   -1.8911   -1.1593 H   0  0  0  0  0  0  0  0  0  0  0  0
  1  2  2  3
  1  6  1  0
  1  7  1  0
  2  3  1  0
  2  8  1  0
  3  4  1  0
  3  9  1  0
  4  5  2  3
  4 10  1  0
  5 11  1  0
  5 12  1  0
 13 14  1  0
 13 21  1  0
 13 22  1  0
 13 23  1  0
 14 15  1  0
 14 24  1  0
 14 25  1  0
 15 16  1  0
 15 26  1  0
 15 27  1  0
 16 17  1  0
 16 20  1  0
 16 28  1  0
 17 18  1  0
 17 29  1  0
 17 30  1  0
 18 19  1  0
 18 31  1  0
 18 32  1  0
 19 20  1  0
 19 33  1  0
 19 34  1  0
 20 21  1  0
 20 35  1  0
 21 36  1  0
 21 37  1  0
M  RAD  1   3   2
M  END
>  <reaction>  (11) 
rxn_606

>  <mol_properties>  (11) 
{"1": {"label": "*0", "atom_type": "Cd"}, "2": {"label": "*1", "atom_type": "Cs"}, "16": {"label": "*4", "atom_type": "Cs"}, "17": {"label": "*3", "atom_type": "Cs"}, "30": {"label": "*2", "atom_type": "H0"}}

>  <type>  (11) 
unop_7

>  <geom_source>  (11) 
Heuristics

$$$$

     RDKit          3D

 37 37  0  0  0  0  0  0  0  0999 V2000
    2.0149    4.2595    0.2137 C   0  0  0  0  0  0  0  0  0  0  0  0
    1.2323    3.4962    0.9593 C   0  0  0  0  0  0  0  0  0  0  0  0
    0.1164    2.6455    0.4398 C   0  0  0  0  0  3  0  0  0  0  0  0
   -1.2501    3.0160    0.9488 C   0  0  0  0  0  0  0  0  0  0  0  0
   -1.5581    4.1139    1.6210 C   0  0  0  0  0  0  0  0  0  0  0  0
    2.8132    4.8479    0.6485 H   0  0  0  0  0  0  0  0  0  0  0  0
    1.8862    4.3223   -0.8616 H   0  0  0  0  0  0  0  0  0  0  0  0
    1.3879    3.4675    2.0347 H   0  0  0  0  0  0  0  0  0  0  0  0
    0.1065    2.6706   -0.6549 H   0  0  0  0  0  0  0  0  0  0  0  0
   -2.0358    2.3014    0.7195 H   0  0  0  0  0  0  0  0  0  0  0  0
   -2.5735    4.3050    1.9440 H   0  0  0  0  0  0  0  0  0  0  0  0
   -0.8126    4.8620    1.8651 H   0  0  0  0  0  0  0  0  0  0  0  0
   -1.0655   -3.8968   -1.2165 C   0  0  0  0  0  0  0  0  0  0  0  0
   -1.0655   -3.8968    0.3141 C   0  0  0  0  0  0  0  0  0  0  0  0
    0.0776   -3.0604    0.8961 C   0  0  0  0  0  0  0  0  0  0  0  0
    0.0380   -1.6594    0.3120 C   0  0  0  0  0  0  0  0  0  0  0  0
    1.1570   -0.6857    0.6674 C   0  0  0  0  0  0  0  0  0  0  0  0
    1.1071    0.3849   -0.4512 C   0  0  0  0  0  0  0  0  0  0  0  0
    0.2136   -0.2069   -1.5698 C   0  0  0  0  0  0  0  0  0  0  0  0
    0.0885   -1.6851   -1.2144 C   0  0  0  0  0  0  0  0  0  0  0  0
   -1.0655   -2.4804   -1.7985 C   0  0  0  0  0  0  0  0  0  0  0  0
   -0.1731   -4.4236   -1.5724 H   0  0  0  0  0  0  0  0  0  0  0  0
   -1.9264   -4.4579   -1.5872 H   0  0  0  0  0  0  0  0  0  0  0  0
   -2.0177   -3.4877    0.6700 H   0  0  0  0  0  0  0  0  0  0  0  0
   -1.0100   -4.9229    0.6848 H   0  0  0  0  0  0  0  0  0  0  0  0
    0.0103   -3.0345    1.9869 H   0  0  0  0  0  0  0  0  0  0  0  0
    1.0391   -3.5255    0.6480 H   0  0  0  0  0  0  0  0  0  0  0  0
   -0.9208   -1.2006    0.5945 H   0  0  0  0  0  0  0  0  0  0  0  0
    1.0482   -0.2577    1.6648 H   0  0  0  0  0  0  0  0  0  0  0  0
    2.1147   -1.2142    0.6470 H   0  0  0  0  0  0  0  0  0  0  0  0
    0.6131    1.5122   -0.0069 H   0  0  0  0  0  0  0  0  0  0  0  0
    2.1083    0.6074   -0.8215 H   0  0  0  0  0  0  0  0  0  0  0  0
    0.6232   -0.0421   -2.5672 H   0  0  0  0  0  0  0  0  0  0  0  0
   -0.7784    0.2538   -1.5494 H   0  0  0  0  0  0  0  0  0  0  0  0
    1.0250   -2.1879   -1.4969 H   0  0  0  0  0  0  0  0  0  0  0  0
   -1.0049   -2.5193   -2.8893 H   0  0  0  0  0  0  0  0  0  0  0  0
   -2.0087   -1.9790   -1.5504 H   0  0  0  0  0  0  0  0  0  0  0  0
  1  2  2  3
  1  6  1  0
  1  7  1  0
  2  3  1  0
  2  8  1  0
  3  4  1  0
  3  9  1  0
  4  5  2  3
  4 10  1  0
  5 11  1  0
  5 12  1  0
 13 14  1  0
 13 21  1  0
 13 22  1  0
 13 23  1  0
 14 15  1  0
 14 24  1  0
 14 25  1  0
 15 16  1  0
 15 26  1  0
 15 27  1  0
 16 17  1  0
 16 20  1  0
 16 28  1  0
 17 18  1  0
 17 29  1  0
 17 30  1  0
 18 19  1  0
 18 31  1  0
 18 32  1  0
 19 20  1  0
 19 33  1  0
 19 34  1  0
 20 21  1  0
 20 35  1  0
 21 36  1  0
 21 37  1  0
M  RAD  1   3   2
M  END
>  <reaction>  (12) 
rxn_606

>  <mol_properties>  (12) 
{"1": {"label": "*0", "atom_type": "Cd"}, "2": {"label": "*1", "atom_type": "Cs"}, "16": {"label": "*4", "atom_type": "Cs"}, "17": {"label": "*3", "atom_type": "Cs"}, "30": {"label": "*2", "atom_type": "H0"}}

>  <type>  (12) 
unop_8

>  <geom_source>  (12) 
Heuristics

$$$$

     RDKit          3D

 37 37  0  0  0  0  0  0  0  0999 V2000
   -0.6386    3.2809    2.7609 C   0  0  0  0  0  0  0  0  0  0  0  0
   -0.5264    2.5837    1.6418 C   0  0  0  0  0  0  0  0  0  0  0  0
    0.4453    2.8765    0.5423 C   0  0  0  0  0  3  0  0  0  0  0  0
   -0.1828    3.2249   -0.7797 C   0  0  0  0  0  0  0  0  0  0  0  0
   -1.4633    3.4886   -0.9867 C   0  0  0  0  0  0  0  0  0  0  0  0
   -1.3578    3.0139    3.5250 H   0  0  0  0  0  0  0  0  0  0  0  0
   -0.0122    4.1452    2.9545 H   0  0  0  0  0  0  0  0  0  0  0  0
   -1.1789    1.7293    1.4814 H   0  0  0  0  0  0  0  0  0  0  0  0
    1.1149    3.6893    0.8426 H   0  0  0  0  0  0  0  0  0  0  0  0
    0.5053    3.2648   -1.6197 H   0  0  0  0  0  0  0  0  0  0  0  0
   -1.8299    3.7386   -1.9742 H   0  0  0  0  0  0  0  0  0  0  0  0
   -2.1873    3.4723   -0.1802 H   0  0  0  0  0  0  0  0  0  0  0  0
   -0.7367   -3.6658   -1.1140 C   0  0  0  0  0  0  0  0  0  0  0  0
   -0.7367   -3.6658    0.4166 C   0  0  0  0  0  0  0  0  0  0  0  0
    0.4064   -2.8294    0.9986 C   0  0  0  0  0  0  0  0  0  0  0  0
    0.3668   -1.4284    0.4145 C   0  0  0  0  0  0  0  0  0  0  0  0
    1.4859   -0.4547    0.7699 C   0  0  0  0  0  0  0  0  0  0  0  0
    1.4359    0.6159   -0.3487 C   0  0  0  0  0  0  0  0  0  0  0  0
    0.5424    0.0240   -1.4673 C   0  0  0  0  0  0  0  0  0  0  0  0
    0.4174   -1.4541   -1.1119 C   0  0  0  0  0  0  0  0  0  0  0  0
   -0.7367   -2.2494   -1.6960 C   0  0  0  0  0  0  0  0  0  0  0  0
    0.1558   -4.1926   -1.4699 H   0  0  0  0  0  0  0  0  0  0  0  0
   -1.5975   -4.2269   -1.4847 H   0  0  0  0  0  0  0  0  0  0  0  0
   -1.6888   -3.2567    0.7725 H   0  0  0  0  0  0  0  0  0  0  0  0
   -0.6811   -4.6919    0.7873 H   0  0  0  0  0  0  0  0  0  0  0  0
    0.3392   -2.8035    2.0894 H   0  0  0  0  0  0  0  0  0  0  0  0
    1.3680   -3.2946    0.7505 H   0  0  0  0  0  0  0  0  0  0  0  0
   -0.5919   -0.9696    0.6970 H   0  0  0  0  0  0  0  0  0  0  0  0
    1.3771   -0.0267    1.7673 H   0  0  0  0  0  0  0  0  0  0  0  0
    2.4435   -0.9832    0.7495 H   0  0  0  0  0  0  0  0  0  0  0  0
    0.9419    1.7431    0.0956 H   0  0  0  0  0  0  0  0  0  0  0  0
    2.4371    0.8384   -0.7190 H   0  0  0  0  0  0  0  0  0  0  0  0
    0.9521    0.1889   -2.4648 H   0  0  0  0  0  0  0  0  0  0  0  0
   -0.4496    0.4848   -1.4469 H   0  0  0  0  0  0  0  0  0  0  0  0
    1.3538   -1.9569   -1.3944 H   0  0  0  0  0  0  0  0  0  0  0  0
   -0.6760   -2.2884   -2.7869 H   0  0  0  0  0  0  0  0  0  0  0  0
   -1.6798   -1.7481   -1.4480 H   0  0  0  0  0  0  0  0  0  0  0  0
  1  2  2  3
  1  6  1  0
  1  7  1  0
  2  3  1  0
  2  8  1  0
  3  4  1  0
  3  9  1  0
  4  5  2  3
  4 10  1  0
  5 11  1  0
  5 12  1  0
 13 14  1  0
 13 21  1  0
 13 22  1  0
 13 23  1  0
 14 15  1  0
 14 24  1  0
 14 25  1  0
 15 16  1  0
 15 26  1  0
 15 27  1  0
 16 17  1  0
 16 20  1  0
 16 28  1  0
 17 18  1  0
 17 29  1  0
 17 30  1  0
 18 19  1  0
 18 31  1  0
 18 32  1  0
 19 20  1  0
 19 33  1  0
 19 34  1  0
 20 21  1  0
 20 35  1  0
 21 36  1  0
 21 37  1  0
M  RAD  1   3   2
M  END
>  <reaction>  (13) 
rxn_606

>  <mol_properties>  (13) 
{"1": {"label": "*0", "atom_type": "Cd"}, "2": {"label": "*1", "atom_type": "Cs"}, "16": {"label": "*4", "atom_type": "Cs"}, "17": {"label": "*3", "atom_type": "Cs"}, "30": {"label": "*2", "atom_type": "H0"}}

>  <type>  (13) 
unop_9

>  <geom_source>  (13) 
Heuristics

$$$$

     RDKit          3D

 37 37  0  0  0  0  0  0  0  0999 V2000
    2.0654    3.9941    1.3254 C   0  0  0  0  0  0  0  0  0  0  0  0
    1.0179    3.1999    1.4776 C   0  0  0  0  0  0  0  0  0  0  0  0
    0.1555    2.6943    0.3643 C   0  0  0  0  0  3  0  0  0  0  0  0
   -1.2819    3.1342    0.4289 C   0  0  0  0  0  0  0  0  0  0  0  0
   -1.7759    4.0610    1.2347 C   0  0  0  0  0  0  0  0  0  0  0  0
    2.6566    4.3205    2.1718 H   0  0  0  0  0  0  0  0  0  0  0  0
    2.3713    4.3459    0.3459 H   0  0  0  0  0  0  0  0  0  0  0  0
    0.7383    2.8762    2.4770 H   0  0  0  0  0  0  0  0  0  0  0  0
    0.5764    2.9965   -0.6005 H   0  0  0  0  0  0  0  0  0  0  0  0
   -1.9480    2.6334   -0.2682 H   0  0  0  0  0  0  0  0  0  0  0  0
   -2.8264    4.3213    1.2091 H   0  0  0  0  0  0  0  0  0  0  0  0
   -1.1509    4.5963    1.9401 H   0  0  0  0  0  0  0  0  0  0  0  0
   -1.0264   -3.8480   -1.2920 C   0  0  0  0  0  0  0  0  0  0  0  0
   -1.0264   -3.8480    0.2386 C   0  0  0  0  0  0  0  0  0  0  0  0
    0.1167   -3.0116    0.8206 C   0  0  0  0  0  0  0  0  0  0  0  0
    0.0771   -1.6106    0.2365 C   0  0  0  0  0  0  0  0  0  0  0  0
    1.1961   -0.6368    0.5919 C   0  0  0  0  0  0  0  0  0  0  0  0
    1.1462    0.4338   -0.5267 C   0  0  0  0  0  0  0  0  0  0  0  0
    0.2527   -0.1581   -1.6453 C   0  0  0  0  0  0  0  0  0  0  0  0
    0.1276   -1.6362   -1.2899 C   0  0  0  0  0  0  0  0  0  0  0  0
   -1.0264   -2.4315   -1.8740 C   0  0  0  0  0  0  0  0  0  0  0  0
   -0.1340   -4.3748   -1.6479 H   0  0  0  0  0  0  0  0  0  0  0  0
   -1.8873   -4.4090   -1.6627 H   0  0  0  0  0  0  0  0  0  0  0  0
   -1.9786   -3.4388    0.5945 H   0  0  0  0  0  0  0  0  0  0  0  0
   -0.9709   -4.8740    0.6093 H   0  0  0  0  0  0  0  0  0  0  0  0
    0.0494   -2.9856    1.9114 H   0  0  0  0  0  0  0  0  0  0  0  0
    1.0782   -3.4767    0.5725 H   0  0  0  0  0  0  0  0  0  0  0  0
   -0.8817   -1.1517    0.5190 H   0  0  0  0  0  0  0  0  0  0  0  0
    1.0873   -0.2089    1.5893 H   0  0  0  0  0  0  0  0  0  0  0  0
    2.1538   -1.1653    0.5715 H   0  0  0  0  0  0  0  0  0  0  0  0
    0.6522    1.5610   -0.0824 H   0  0  0  0  0  0  0  0  0  0  0  0
    2.1474    0.6562   -0.8970 H   0  0  0  0  0  0  0  0  0  0  0  0
    0.6623    0.0068   -2.6428 H   0  0  0  0  0  0  0  0  0  0  0  0
   -0.7394    0.3027   -1.6249 H   0  0  0  0  0  0  0  0  0  0  0  0
    1.0641   -2.1390   -1.5724 H   0  0  0  0  0  0  0  0  0  0  0  0
   -0.9658   -2.4705   -2.9648 H   0  0  0  0  0  0  0  0  0  0  0  0
   -1.9696   -1.9302   -1.6260 H   0  0  0  0  0  0  0  0  0  0  0  0
  1  2  2  3
  1  6  1  0
  1  7  1  0
  2  3  1  0
  2  8  1  0
  3  4  1  0
  3  9  1  0
  4  5  2  3
  4 10  1  0
  5 11  1  0
  5 12  1  0
 13 14  1  0
 13 21  1  0
 13 22  1  0
 13 23  1  0
 14 15  1  0
 14 24  1  0
 14 25  1  0
 15 16  1  0
 15 26  1  0
 15 27  1  0
 16 17  1  0
 16 20  1  0
 16 28  1  0
 17 18  1  0
 17 29  1  0
 17 30  1  0
 18 19  1  0
 18 31  1  0
 18 32  1  0
 19 20  1  0
 19 33  1  0
 19 34  1  0
 20 21  1  0
 20 35  1  0
 21 36  1  0
 21 37  1  0
M  RAD  1   3   2
M  END
>  <reaction>  (14) 
rxn_606

>  <mol_properties>  (14) 
{"1": {"label": "*0", "atom_type": "Cd"}, "2": {"label": "*1", "atom_type": "Cs"}, "16": {"label": "*4", "atom_type": "Cs"}, "17": {"label": "*3", "atom_type": "Cs"}, "30": {"label": "*2", "atom_type": "H0"}}

>  <type>  (14) 
unop_10

>  <geom_source>  (14) 
Heuristics

$$$$

     RDKit          3D

 37 37  0  0  0  0  0  0  0  0999 V2000
   -1.7100    4.1523   -0.2482 C   0  0  0  0  0  0  0  0  0  0  0  0
   -0.6535    3.3672   -0.3846 C   0  0  0  0  0  0  0  0  0  0  0  0
    0.0434    2.6640    0.7373 C   0  0  0  0  0  3  0  0  0  0  0  0
    1.4768    3.0715    0.9450 C   0  0  0  0  0  0  0  0  0  0  0  0
    2.0810    4.1049    0.3800 C   0  0  0  0  0  0  0  0  0  0  0  0
   -2.1762    4.6281   -1.1019 H   0  0  0  0  0  0  0  0  0  0  0  0
   -2.1491    4.3464    0.7246 H   0  0  0  0  0  0  0  0  0  0  0  0
   -0.2376    3.2048   -1.3756 H   0  0  0  0  0  0  0  0  0  0  0  0
   -0.5075    2.8146    1.6717 H   0  0  0  0  0  0  0  0  0  0  0  0
    2.0376    2.4462    1.6342 H   0  0  0  0  0  0  0  0  0  0  0  0
    3.1182    4.3305    0.5926 H   0  0  0  0  0  0  0  0  0  0  0  0
    1.5622    4.7646   -0.3061 H   0  0  0  0  0  0  0  0  0  0  0  0
   -1.1386   -3.8783   -0.9190 C   0  0  0  0  0  0  0  0  0  0  0  0
   -1.1386   -3.8783    0.6116 C   0  0  0  0  0  0  0  0  0  0  0  0
    0.0045   -3.0419    1.1936 C   0  0  0  0  0  0  0  0  0  0  0  0
   -0.0351   -1.6409    0.6095 C   0  0  0  0  0  0  0  0  0  0  0  0
    1.0840   -0.6671    0.9649 C   0  0  0  0  0  0  0  0  0  0  0  0
    1.0340    0.4034   -0.1537 C   0  0  0  0  0  0  0  0  0  0  0  0
    0.1405   -0.1884   -1.2724 C   0  0  0  0  0  0  0  0  0  0  0  0
    0.0155   -1.6666   -0.9169 C   0  0  0  0  0  0  0  0  0  0  0  0
   -1.1386   -2.4619   -1.5010 C   0  0  0  0  0  0  0  0  0  0  0  0
   -0.2461   -4.4051   -1.2750 H   0  0  0  0  0  0  0  0  0  0  0  0
   -1.9995   -4.4394   -1.2898 H   0  0  0  0  0  0  0  0  0  0  0  0
   -2.0907   -3.4691    0.9675 H   0  0  0  0  0  0  0  0  0  0  0  0
   -1.0830   -4.9044    0.9823 H   0  0  0  0  0  0  0  0  0  0  0  0
   -0.0627   -3.0160    2.2844 H   0  0  0  0  0  0  0  0  0  0  0  0
    0.9661   -3.5070    0.9455 H   0  0  0  0  0  0  0  0  0  0  0  0
   -0.9938   -1.1821    0.8920 H   0  0  0  0  0  0  0  0  0  0  0  0
    0.9752   -0.2392    1.9623 H   0  0  0  0  0  0  0  0  0  0  0  0
    2.0416   -1.1957    0.9445 H   0  0  0  0  0  0  0  0  0  0  0  0
    0.5400    1.5307    0.2906 H   0  0  0  0  0  0  0  0  0  0  0  0
    2.0352    0.6259   -0.5240 H   0  0  0  0  0  0  0  0  0  0  0  0
    0.5502   -0.0236   -2.2698 H   0  0  0  0  0  0  0  0  0  0  0  0
   -0.8515    0.2723   -1.2519 H   0  0  0  0  0  0  0  0  0  0  0  0
    0.9519   -2.1694   -1.1994 H   0  0  0  0  0  0  0  0  0  0  0  0
   -1.0779   -2.5008   -2.5919 H   0  0  0  0  0  0  0  0  0  0  0  0
   -2.0817   -1.9605   -1.2530 H   0  0  0  0  0  0  0  0  0  0  0  0
  1  2  2  3
  1  6  1  0
  1  7  1  0
  2  3  1  0
  2  8  1  0
  3  4  1  0
  3  9  1  0
  4  5  2  3
  4 10  1  0
  5 11  1  0
  5 12  1  0
 13 14  1  0
 13 21  1  0
 13 22  1  0
 13 23  1  0
 14 15  1  0
 14 24  1  0
 14 25  1  0
 15 16  1  0
 15 26  1  0
 15 27  1  0
 16 17  1  0
 16 20  1  0
 16 28  1  0
 17 18  1  0
 17 29  1  0
 17 30  1  0
 18 19  1  0
 18 31  1  0
 18 32  1  0
 19 20  1  0
 19 33  1  0
 19 34  1  0
 20 21  1  0
 20 35  1  0
 21 36  1  0
 21 37  1  0
M  RAD  1   3   2
M  END
>  <reaction>  (15) 
rxn_606

>  <mol_properties>  (15) 
{"1": {"label": "*0", "atom_type": "Cd"}, "2": {"label": "*1", "atom_type": "Cs"}, "16": {"label": "*4", "atom_type": "Cs"}, "17": {"label": "*3", "atom_type": "Cs"}, "30": {"label": "*2", "atom_type": "H0"}}

>  <type>  (15) 
unop_11

>  <geom_source>  (15) 
Heuristics

$$$$

     RDKit          3D

 37 37  0  0  0  0  0  0  0  0999 V2000
    0.5367    3.4181    2.8245 C   0  0  0  0  0  0  0  0  0  0  0  0
    0.0358    2.6846    1.8437 C   0  0  0  0  0  0  0  0  0  0  0  0
    0.3787    2.8392    0.3954 C   0  0  0  0  0  3  0  0  0  0  0  0
   -0.7761    3.2220   -0.4898 C   0  0  0  0  0  0  0  0  0  0  0  0
   -1.9701    3.6215   -0.0811 C   0  0  0  0  0  0  0  0  0  0  0  0
    0.2547    3.2523    3.8568 H   0  0  0  0  0  0  0  0  0  0  0  0
    1.2503    4.2117    2.6302 H   0  0  0  0  0  0  0  0  0  0  0  0
   -0.6837    1.9044    2.0788 H   0  0  0  0  0  0  0  0  0  0  0  0
    1.1769    3.5797    0.2779 H   0  0  0  0  0  0  0  0  0  0  0  0
   -0.5772    3.1635   -1.5564 H   0  0  0  0  0  0  0  0  0  0  0  0
   -2.7440    3.8856   -0.7905 H   0  0  0  0  0  0  0  0  0  0  0  0
   -2.2144    3.7064    0.9715 H   0  0  0  0  0  0  0  0  0  0  0  0
   -0.8033   -3.7031   -1.2609 C   0  0  0  0  0  0  0  0  0  0  0  0
   -0.8033   -3.7031    0.2697 C   0  0  0  0  0  0  0  0  0  0  0  0
    0.3398   -2.8667    0.8517 C   0  0  0  0  0  0  0  0  0  0  0  0
    0.3002   -1.4657    0.2676 C   0  0  0  0  0  0  0  0  0  0  0  0
    1.4193   -0.4919    0.6230 C   0  0  0  0  0  0  0  0  0  0  0  0
    1.3693    0.5786   -0.4956 C   0  0  0  0  0  0  0  0  0  0  0  0
    0.4758   -0.0132   -1.6142 C   0  0  0  0  0  0  0  0  0  0  0  0
    0.3508   -1.4913   -1.2588 C   0  0  0  0  0  0  0  0  0  0  0  0
   -0.8033   -2.2866   -1.8429 C   0  0  0  0  0  0  0  0  0  0  0  0
    0.0891   -4.2299   -1.6168 H   0  0  0  0  0  0  0  0  0  0  0  0
   -1.6642   -4.2642   -1.6316 H   0  0  0  0  0  0  0  0  0  0  0  0
   -1.7554   -3.2939    0.6256 H   0  0  0  0  0  0  0  0  0  0  0  0
   -0.7478   -4.7292    0.6404 H   0  0  0  0  0  0  0  0  0  0  0  0
    0.2726   -2.8407    1.9426 H   0  0  0  0  0  0  0  0  0  0  0  0
    1.3014   -3.3318    0.6037 H   0  0  0  0  0  0  0  0  0  0  0  0
   -0.6586   -1.0069    0.5501 H   0  0  0  0  0  0  0  0  0  0  0  0
    1.3104   -0.0640    1.6205 H   0  0  0  0  0  0  0  0  0  0  0  0
    2.3769   -1.0205    0.6026 H   0  0  0  0  0  0  0  0  0  0  0  0
    0.8753    1.7059   -0.0513 H   0  0  0  0  0  0  0  0  0  0  0  0
    2.3705    0.8011   -0.8658 H   0  0  0  0  0  0  0  0  0  0  0  0
    0.8855    0.1517   -2.6116 H   0  0  0  0  0  0  0  0  0  0  0  0
   -0.5162    0.4475   -1.5938 H   0  0  0  0  0  0  0  0  0  0  0  0
    1.2872   -1.9942   -1.5413 H   0  0  0  0  0  0  0  0  0  0  0  0
   -0.7426   -2.3256   -2.9337 H   0  0  0  0  0  0  0  0  0  0  0  0
   -1.7465   -1.7853   -1.5948 H   0  0  0  0  0  0  0  0  0  0  0  0
  1  2  2  3
  1  6  1  0
  1  7  1  0
  2  3  1  0
  2  8  1  0
  3  4  1  0
  3  9  1  0
  4  5  2  3
  4 10  1  0
  5 11  1  0
  5 12  1  0
 13 14  1  0
 13 21  1  0
 13 22  1  0
 13 23  1  0
 14 15  1  0
 14 24  1  0
 14 25  1  0
 15 16  1  0
 15 26  1  0
 15 27  1  0
 16 17  1  0
 16 20  1  0
 16 28  1  0
 17 18  1  0
 17 29  1  0
 17 30  1  0
 18 19  1  0
 18 31  1  0
 18 32  1  0
 19 20  1  0
 19 33  1  0
 19 34  1  0
 20 21  1  0
 20 35  1  0
 21 36  1  0
 21 37  1  0
M  RAD  1   3   2
M  END
>  <reaction>  (16) 
rxn_606

>  <mol_properties>  (16) 
{"1": {"label": "*0", "atom_type": "Cd"}, "2": {"label": "*1", "atom_type": "Cs"}, "16": {"label": "*4", "atom_type": "Cs"}, "17": {"label": "*3", "atom_type": "Cs"}, "30": {"label": "*2", "atom_type": "H0"}}

>  <type>  (16) 
unop_12

>  <geom_source>  (16) 
Heuristics

$$$$

     RDKit          3D

 37 37  0  0  0  0  0  0  0  0999 V2000
   -1.3137   -0.1182   -0.8692 C   0  0  0  0  0  0  0  0  0  0  0  0
   -1.5103   -0.7859    0.4968 C   0  0  0  0  0  0  0  0  0  0  0  0
   -2.6208    0.1789   -1.6349 C   0  0  0  0  0  0  0  0  0  0  0  0
   -2.6634   -0.1578    1.3137 C   0  0  0  0  0  0  0  0  0  0  0  0
   -3.7150    0.7913   -0.7544 C   0  0  0  0  0  0  0  0  0  0  0  0
   -3.9480   -0.0624    0.4918 C   0  0  0  0  0  0  0  0  0  0  0  0
   -0.4485    1.1077   -0.5902 C   0  0  0  0  0  0  0  0  0  0  0  0
   -0.1717   -0.5560    1.1989 C   0  0  0  0  0  0  0  0  0  0  0  0
    2.6303   -0.4715   -0.0221 C   0  0  0  0  0  3  0  0  0  0  0  0
    0.3958    0.7429    0.6284 C   0  0  0  0  0  0  0  0  0  0  0  0
    3.5793   -0.6509    1.1288 C   0  0  0  0  0  0  0  0  0  0  0  0
    3.3504    0.0042   -1.2514 C   0  0  0  0  0  0  0  0  0  0  0  0
    4.4973   -1.6219    1.1378 C   0  0  0  0  0  0  0  0  0  0  0  0
    3.8419    1.2432   -1.3342 C   0  0  0  0  0  0  0  0  0  0  0  0
   -0.7109   -0.8103   -1.5022 H   0  0  0  0  0  0  0  0  0  0  0  0
   -1.7029   -1.8748    0.3693 H   0  0  0  0  0  0  0  0  0  0  0  0
   -2.4095    0.8586   -2.4887 H   0  0  0  0  0  0  0  0  0  0  0  0
   -3.0050   -0.7744   -2.0604 H   0  0  0  0  0  0  0  0  0  0  0  0
   -3.4370    1.8260   -0.4592 H   0  0  0  0  0  0  0  0  0  0  0  0
   -4.6594    0.8507   -1.3372 H   0  0  0  0  0  0  0  0  0  0  0  0
   -4.7452    0.4031    1.1105 H   0  0  0  0  0  0  0  0  0  0  0  0
   -4.2878   -1.0803    0.1991 H   0  0  0  0  0  0  0  0  0  0  0  0
   -2.3850    0.8614    1.6641 H   0  0  0  0  0  0  0  0  0  0  0  0
   -2.8555   -0.7813    2.2137 H   0  0  0  0  0  0  0  0  0  0  0  0
    0.2061    1.3398   -1.4569 H   0  0  0  0  0  0  0  0  0  0  0  0
   -1.0743    1.9963   -0.3577 H   0  0  0  0  0  0  0  0  0  0  0  0
   -0.2704   -0.5083    2.3059 H   0  0  0  0  0  0  0  0  0  0  0  0
    0.5266   -1.3821    0.9440 H   0  0  0  0  0  0  0  0  0  0  0  0
    2.1211   -1.4358   -0.2366 H   0  0  0  0  0  0  0  0  0  0  0  0
    1.6203    0.4959    0.3383 H   0  0  0  0  0  0  0  0  0  0  0  0
    0.3574    1.5568    1.3850 H   0  0  0  0  0  0  0  0  0  0  0  0
    3.5039    0.0191    1.9794 H   0  0  0  0  0  0  0  0  0  0  0  0
    3.4580   -0.6692   -2.0965 H   0  0  0  0  0  0  0  0  0  0  0  0
    4.5890   -2.3107    0.3033 H   0  0  0  0  0  0  0  0  0  0  0  0
    5.1645   -1.7307    1.9866 H   0  0  0  0  0  0  0  0  0  0  0  0
    4.3513    1.5662   -2.2362 H   0  0  0  0  0  0  0  0  0  0  0  0
    3.7408    1.9401   -0.5075 H   0  0  0  0  0  0  0  0  0  0  0  0
  1  3  1  0
  1  7  1  0
  1  2  1  0
  1 15  1  0
  2  4  1  0
  2  8  1  0
  2 16  1  0
  3  5  1  0
  3 17  1  0
  3 18  1  0
  4  6  1  0
  4 23  1  0
  4 24  1  0
  5  6  1  0
  5 19  1  0
  5 20  1  0
  6 21  1  0
  6 22  1  0
  7 10  1  0
  7 25  1  0
  7 26  1  0
  8 10  1  0
  8 27  1  0
  8 28  1  0
  9 11  1  0
  9 12  1  0
  9 29  1  0
 10 30  1  0
 10 31  1  0
 11 13  2  3
 11 32  1  0
 12 14  2  3
 12 33  1  0
 13 34  1  0
 13 35  1  0
 14 36  1  0
 14 37  1  0
M  RAD  1   9   2
M  END
>  <reaction>  (17) 
rxn_606

>  <mol_properties>  (17) 
{"1": {"label": "*0", "atom_type": "Cd"}, "2": {"label": "*1", "atom_type": "Cs"}, "16": {"label": "*4", "atom_type": "Cs"}, "17": {"label": "*3", "atom_type": "Cs"}, "30": {"label": "*2", "atom_type": "H0"}}

>  <type>  (17) 
unop_13

>  <geom_source>  (17) 
AutoTST

$$$$
