
     RDKit          3D

  6  5  0  0  0  0  0  0  0  0999 V2000
   -0.5072   -0.0291   -0.0097 C   0  0  0  0  0  0  0  0  0  0  0  0
    1.1321   -0.1527   -0.7687 S   0  0  0  0  0  0  0  0  0  0  0  0
   -0.6174   -0.7330    0.8127 H   0  0  0  0  0  0  0  0  0  0  0  0
   -0.5863    0.9827    0.3845 H   0  0  0  0  0  0  0  0  0  0  0  0
   -1.2962   -0.1800   -0.7434 H   0  0  0  0  0  0  0  0  0  0  0  0
    1.0312   -1.4237   -1.1764 H   0  0  0  0  0  0  0  0  0  0  0  0
  1  2  1  0
  1  3  1  0
  1  4  1  0
  1  5  1  0
  2  6  1  0
M  END
>  <reaction>  (1) 
rxn_1849

>  <mol_properties>  (1) 
{"0": {"label": "donator", "atom_type": "Cs"}, "2": {"label": "d_hydrogen", "atom_type": "H0"}}

>  <type>  (1) 
r1h

$$$$

     RDKit          3D

  7  6  0  0  0  0  0  0  0  0999 V2000
   -1.3496    0.0255    0.0758 C   0  0  0  0  0  0  0  0  0  0  0  0
   -0.0636   -0.0704   -0.0033 C   0  0  0  0  0  0  0  0  0  0  0  0
    1.2597   -0.1602   -0.0839 C   0  0  0  0  0  0  0  0  0  0  0  0
    2.2616    1.2090   -0.0064 S   0  0  0  0  0  1  0  0  0  0  0  0
   -1.8547   -0.0180    1.0345 H   0  0  0  0  0  0  0  0  0  0  0  0
   -1.9552    0.1601   -0.8138 H   0  0  0  0  0  0  0  0  0  0  0  0
    1.7017   -1.1460   -0.2029 H   0  0  0  0  0  0  0  0  0  0  0  0
  1  2  2  0
  1  5  1  0
  1  6  1  0
  2  3  2  0
  3  4  1  0
  3  7  1  0
M  RAD  1   4   2
M  END
>  <reaction>  (2) 
rxn_1849

>  <mol_properties>  (2) 
{"1": {"label": "acceptor", "atom_type": "Cd"}}

>  <type>  (2) 
r2

$$$$

     RDKit          3D

  8  7  0  0  0  0  0  0  0  0999 V2000
   -1.1617    0.0338    0.5053 C   0  0  0  0  0  0  0  0  0  0  0  0
   -0.1023    0.4503   -0.1863 C   0  0  0  0  0  0  0  0  0  0  0  0
    1.0978   -0.3557   -0.3104 C   0  0  0  0  0  0  0  0  0  0  0  0
    2.4251    0.0667   -1.1256 S   0  0  0  0  0  0  0  0  0  0  0  0
   -1.1653   -0.9292    1.0039 H   0  0  0  0  0  0  0  0  0  0  0  0
   -2.0546    0.6389    0.5948 H   0  0  0  0  0  0  0  0  0  0  0  0
   -0.0991    1.4132   -0.6847 H   0  0  0  0  0  0  0  0  0  0  0  0
    1.0601   -1.3180    0.2032 H   0  0  0  0  0  0  0  0  0  0  0  0
  1  2  2  3
  1  5  1  0
  1  6  1  0
  2  3  1  0
  2  7  1  0
  3  4  2  0
  3  8  1  0
M  END
>  <reaction>  (3) 
rxn_1849

>  <mol_properties>  (3) 
{"0": {"label": "a_hydrogen", "atom_type": "H0"}, "2": {"label": "acceptor", "atom_type": "Cd"}}

>  <type>  (3) 
r2h

$$$$

     RDKit          3D

 13 11  0  0  0  0  0  0  0  0999 V2000
   -0.8104   -1.4100   -0.4096 C   0  0  0  0  0  3  0  0  0  0  0  0
   -0.5948   -1.0116   -2.1006 S   0  0  0  0  0  0  0  0  0  0  0  0
   -0.8552   -0.2882    0.3134 H   0  0  0  0  0  0  0  0  0  0  0  0
   -1.7690   -1.8901   -0.2341 H   0  0  0  0  0  0  0  0  0  0  0  0
    0.0258   -1.9155    0.0646 H   0  0  0  0  0  0  0  0  0  0  0  0
    0.6356   -0.4918   -1.9710 H   0  0  0  0  0  0  0  0  0  0  0  0
   -1.8076    1.6522    0.7301 C   0  0  0  0  0  0  0  0  0  0  0  0
   -0.7532    0.8849    0.9167 C   0  0  0  0  0  0  0  0  0  0  0  0
    0.5408    1.0417    1.4774 C   0  0  0  0  0  0  0  0  0  0  0  0
    1.9314    0.6980    0.6935 S   0  0  0  0  0  0  0  0  0  0  0  0
   -1.7978    2.7094    0.9773 H   0  0  0  0  0  0  0  0  0  0  0  0
   -2.7127    1.2599    0.2804 H   0  0  0  0  0  0  0  0  0  0  0  0
    0.5790    1.3468    2.5244 H   0  0  0  0  0  0  0  0  0  0  0  0
  1  2  1  0
  1  4  1  0
  1  5  1  0
  2  6  1  0
  3  8  1  0
  7  8  2  3
  7 11  1  0
  7 12  1  0
  8  9  1  0
  9 10  2  0
  9 13  1  0
M  RAD  1   1   2
M  END
>  <reaction>  (4) 
rxn_1849

>  <mol_properties>  (4) 
{"0": {"label": "*3", "atom_type": "Cs"}, "1": {"label": "*4", "atom_type": "S2s"}, "2": {"label": "*2", "atom_type": "H0"}, "7": {"label": "*1", "atom_type": "Cd"}, "8": {"label": "*0", "atom_type": "CS"}}

>  <type>  (4) 
ts

$$$$

     RDKit          3D

 13 11  0  0  0  0  0  0  0  0999 V2000
   -0.7525   -1.4742   -0.0611 C   0  0  0  0  0  3  0  0  0  0  0  0
   -0.7525   -1.4742   -1.8718 S   0  0  0  0  0  0  0  0  0  0  0  0
   -0.7525   -0.2584    0.4147 H   0  0  0  0  0  0  0  0  0  0  0  0
   -1.6732   -1.9683    0.2448 H   0  0  0  0  0  0  0  0  0  0  0  0
    0.0918   -2.0342    0.3354 H   0  0  0  0  0  0  0  0  0  0  0  0
    0.4178   -0.8461   -2.0382 H   0  0  0  0  0  0  0  0  0  0  0  0
   -1.7387    1.3893    1.6708 C   0  0  0  0  0  0  0  0  0  0  0  0
   -0.7525    0.9533    0.8888 C   0  0  0  0  0  0  0  0  0  0  0  0
    0.6424    1.1950    1.2067 C   0  0  0  0  0  0  0  0  0  0  0  0
    1.8995    0.7060    0.3206 S   0  0  0  0  0  0  0  0  0  0  0  0
   -1.5330    1.9444    2.5793 H   0  0  0  0  0  0  0  0  0  0  0  0
   -2.7776    1.2062    1.4291 H   0  0  0  0  0  0  0  0  0  0  0  0
    0.8133    1.7561    2.1272 H   0  0  0  0  0  0  0  0  0  0  0  0
  1  2  1  0
  1  4  1  0
  1  5  1  0
  2  6  1  0
  3  8  1  0
  7  8  2  3
  7 11  1  0
  7 12  1  0
  8  9  1  0
  9 10  2  0
  9 13  1  0
M  RAD  1   1   2
M  END
>  <reaction>  (5) 
rxn_1849

>  <mol_properties>  (5) 
{"0": {"label": "*3", "atom_type": "Cs"}, "1": {"label": "*4", "atom_type": "S2s"}, "2": {"label": "*2", "atom_type": "H0"}, "7": {"label": "*1", "atom_type": "Cd"}, "8": {"label": "*0", "atom_type": "CS"}}

>  <type>  (5) 
unop_1

>  <geom_source>  (5) 
Heuristics

$$$$

     RDKit          3D

 13 11  0  0  0  0  0  0  0  0999 V2000
   -0.2364   -1.3128   -0.7672 C   0  0  0  0  0  3  0  0  0  0  0  0
   -0.2364   -1.3128   -2.5778 S   0  0  0  0  0  0  0  0  0  0  0  0
   -0.2364   -0.0969   -0.2914 H   0  0  0  0  0  0  0  0  0  0  0  0
   -1.1571   -1.8069   -0.4612 H   0  0  0  0  0  0  0  0  0  0  0  0
    0.6080   -1.8728   -0.3707 H   0  0  0  0  0  0  0  0  0  0  0  0
    0.9339   -0.6846   -2.7442 H   0  0  0  0  0  0  0  0  0  0  0  0
   -0.8057    2.1175   -0.4838 C   0  0  0  0  0  0  0  0  0  0  0  0
   -0.2364    1.1147    0.1828 C   0  0  0  0  0  0  0  0  0  0  0  0
    0.0705    1.2106    1.5977 C   0  0  0  0  0  0  0  0  0  0  0  0
    0.7575    0.0501    2.4841 S   0  0  0  0  0  0  0  0  0  0  0  0
   -1.0621    3.0481    0.0105 H   0  0  0  0  0  0  0  0  0  0  0  0
   -1.0326    2.0409   -1.5392 H   0  0  0  0  0  0  0  0  0  0  0  0
   -0.2005    2.1599    2.0633 H   0  0  0  0  0  0  0  0  0  0  0  0
  1  2  1  0
  1  4  1  0
  1  5  1  0
  2  6  1  0
  3  8  1  0
  7  8  2  3
  7 11  1  0
  7 12  1  0
  8  9  1  0
  9 10  2  0
  9 13  1  0
M  RAD  1   1   2
M  END
>  <reaction>  (6) 
rxn_1849

>  <mol_properties>  (6) 
{"0": {"label": "*3", "atom_type": "Cs"}, "1": {"label": "*4", "atom_type": "S2s"}, "2": {"label": "*2", "atom_type": "H0"}, "7": {"label": "*1", "atom_type": "Cd"}, "8": {"label": "*0", "atom_type": "CS"}}

>  <type>  (6) 
unop_2

>  <geom_source>  (6) 
Heuristics

$$$$

     RDKit          3D

 13 11  0  0  0  0  0  0  0  0999 V2000
   -0.6085   -1.6651    0.3134 C   0  0  0  0  0  3  0  0  0  0  0  0
   -0.6085   -1.6651   -1.4972 S   0  0  0  0  0  0  0  0  0  0  0  0
   -0.6085   -0.4493    0.7892 H   0  0  0  0  0  0  0  0  0  0  0  0
   -1.5292   -2.1592    0.6194 H   0  0  0  0  0  0  0  0  0  0  0  0
    0.2359   -2.2251    0.7099 H   0  0  0  0  0  0  0  0  0  0  0  0
    0.5618   -1.0370   -1.6636 H   0  0  0  0  0  0  0  0  0  0  0  0
   -1.1778    1.0465    2.4335 C   0  0  0  0  0  0  0  0  0  0  0  0
   -0.6085    0.7624    1.2634 C   0  0  0  0  0  0  0  0  0  0  0  0
    0.6167    1.4076    0.8298 C   0  0  0  0  0  0  0  0  0  0  0  0
    1.3752    1.1269   -0.5669 S   0  0  0  0  0  0  0  0  0  0  0  0
   -0.7432    1.7752    3.1088 H   0  0  0  0  0  0  0  0  0  0  0  0
   -2.0918    0.5623    2.7522 H   0  0  0  0  0  0  0  0  0  0  0  0
    1.0266    2.1348    1.5329 H   0  0  0  0  0  0  0  0  0  0  0  0
  1  2  1  0
  1  4  1  0
  1  5  1  0
  2  6  1  0
  3  8  1  0
  7  8  2  3
  7 11  1  0
  7 12  1  0
  8  9  1  0
  9 10  2  0
  9 13  1  0
M  RAD  1   1   2
M  END
>  <reaction>  (7) 
rxn_1849

>  <mol_properties>  (7) 
{"0": {"label": "*3", "atom_type": "Cs"}, "1": {"label": "*4", "atom_type": "S2s"}, "2": {"label": "*2", "atom_type": "H0"}, "7": {"label": "*1", "atom_type": "Cd"}, "8": {"label": "*0", "atom_type": "CS"}}

>  <type>  (7) 
unop_3

>  <geom_source>  (7) 
Heuristics

$$$$

     RDKit          3D

 13 11  0  0  0  0  0  0  0  0999 V2000
    0.4552   -1.3148   -0.6370 C   0  0  0  0  0  3  0  0  0  0  0  0
    0.4552   -1.3148   -2.4476 S   0  0  0  0  0  0  0  0  0  0  0  0
    0.4552   -0.0989   -0.1612 H   0  0  0  0  0  0  0  0  0  0  0  0
   -0.4654   -1.8089   -0.3310 H   0  0  0  0  0  0  0  0  0  0  0  0
    1.2996   -1.8748   -0.2405 H   0  0  0  0  0  0  0  0  0  0  0  0
    1.6256   -0.6866   -2.6140 H   0  0  0  0  0  0  0  0  0  0  0  0
    1.4414    1.9637    0.0345 C   0  0  0  0  0  0  0  0  0  0  0  0
    0.4552    1.1127    0.3129 C   0  0  0  0  0  0  0  0  0  0  0  0
   -0.2517    1.1459    1.5795 C   0  0  0  0  0  0  0  0  0  0  0  0
   -1.4554    0.1573    2.0024 S   0  0  0  0  0  0  0  0  0  0  0  0
    1.7534    2.7170    0.7494 H   0  0  0  0  0  0  0  0  0  0  0  0
    1.9656    1.9347   -0.9119 H   0  0  0  0  0  0  0  0  0  0  0  0
    0.0875    1.9157    2.2751 H   0  0  0  0  0  0  0  0  0  0  0  0
  1  2  1  0
  1  4  1  0
  1  5  1  0
  2  6  1  0
  3  8  1  0
  7  8  2  3
  7 11  1  0
  7 12  1  0
  8  9  1  0
  9 10  2  0
  9 13  1  0
M  RAD  1   1   2
M  END
>  <reaction>  (8) 
rxn_1849

>  <mol_properties>  (8) 
{"0": {"label": "*3", "atom_type": "Cs"}, "1": {"label": "*4", "atom_type": "S2s"}, "2": {"label": "*2", "atom_type": "H0"}, "7": {"label": "*1", "atom_type": "Cd"}, "8": {"label": "*0", "atom_type": "CS"}}

>  <type>  (8) 
unop_4

>  <geom_source>  (8) 
Heuristics

$$$$

     RDKit          3D

 13 11  0  0  0  0  0  0  0  0999 V2000
   -0.0093   -1.8520    0.5552 C   0  0  0  0  0  3  0  0  0  0  0  0
   -0.0093   -1.8520   -1.2554 S   0  0  0  0  0  0  0  0  0  0  0  0
   -0.0093   -0.6362    1.0310 H   0  0  0  0  0  0  0  0  0  0  0  0
   -0.9299   -2.3462    0.8612 H   0  0  0  0  0  0  0  0  0  0  0  0
    0.8351   -2.4120    0.9517 H   0  0  0  0  0  0  0  0  0  0  0  0
    1.1610   -1.2239   -1.4218 H   0  0  0  0  0  0  0  0  0  0  0  0
   -0.0093    0.8039    2.8173 C   0  0  0  0  0  0  0  0  0  0  0  0
   -0.0093    0.5754    1.5051 C   0  0  0  0  0  0  0  0  0  0  0  0
   -0.0093    1.6573    0.5382 C   0  0  0  0  0  0  0  0  0  0  0  0
   -0.0093    1.4753   -1.0654 S   0  0  0  0  0  0  0  0  0  0  0  0
   -0.0093    1.8136    3.2128 H   0  0  0  0  0  0  0  0  0  0  0  0
   -0.0093   -0.0067    3.5344 H   0  0  0  0  0  0  0  0  0  0  0  0
   -0.0093    2.6596    0.9702 H   0  0  0  0  0  0  0  0  0  0  0  0
  1  2  1  0
  1  4  1  0
  1  5  1  0
  2  6  1  0
  3  8  1  0
  7  8  2  3
  7 11  1  0
  7 12  1  0
  8  9  1  0
  9 10  2  0
  9 13  1  0
M  RAD  1   1   2
M  END
>  <reaction>  (9) 
rxn_1849

>  <mol_properties>  (9) 
{"0": {"label": "*3", "atom_type": "Cs"}, "1": {"label": "*4", "atom_type": "S2s"}, "2": {"label": "*2", "atom_type": "H0"}, "7": {"label": "*1", "atom_type": "Cd"}, "8": {"label": "*0", "atom_type": "CS"}}

>  <type>  (9) 
unop_5

>  <geom_source>  (9) 
Heuristics

$$$$

     RDKit          3D

 13 11  0  0  0  0  0  0  0  0999 V2000
    0.6545   -1.3625   -0.3956 C   0  0  0  0  0  3  0  0  0  0  0  0
    0.6545   -1.3625   -2.2063 S   0  0  0  0  0  0  0  0  0  0  0  0
    0.6545   -0.1467    0.0801 H   0  0  0  0  0  0  0  0  0  0  0  0
   -0.2661   -1.8567   -0.0897 H   0  0  0  0  0  0  0  0  0  0  0  0
    1.4989   -1.9225    0.0008 H   0  0  0  0  0  0  0  0  0  0  0  0
    1.8249   -0.7344   -2.3727 H   0  0  0  0  0  0  0  0  0  0  0  0
    1.7932    1.7084    0.8061 C   0  0  0  0  0  0  0  0  0  0  0  0
    0.6545    1.0650    0.5543 C   0  0  0  0  0  0  0  0  0  0  0  0
   -0.4763    1.1236    1.4615 C   0  0  0  0  0  0  0  0  0  0  0  0
   -1.8906    0.3786    1.2388 S   0  0  0  0  0  0  0  0  0  0  0  0
    1.9169    2.3033    1.7043 H   0  0  0  0  0  0  0  0  0  0  0  0
    2.6339    1.6614    0.1260 H   0  0  0  0  0  0  0  0  0  0  0  0
   -0.3178    1.7305    2.3547 H   0  0  0  0  0  0  0  0  0  0  0  0
  1  2  1  0
  1  4  1  0
  1  5  1  0
  2  6  1  0
  3  8  1  0
  7  8  2  3
  7 11  1  0
  7 12  1  0
  8  9  1  0
  9 10  2  0
  9 13  1  0
M  RAD  1   1   2
M  END
>  <reaction>  (10) 
rxn_1849

>  <mol_properties>  (10) 
{"0": {"label": "*3", "atom_type": "Cs"}, "1": {"label": "*4", "atom_type": "S2s"}, "2": {"label": "*2", "atom_type": "H0"}, "7": {"label": "*1", "atom_type": "Cd"}, "8": {"label": "*0", "atom_type": "CS"}}

>  <type>  (10) 
unop_6

>  <geom_source>  (10) 
Heuristics

$$$$

     RDKit          3D

 13 11  0  0  0  0  0  0  0  0999 V2000
    0.7340   -1.4742   -0.0611 C   0  0  0  0  0  3  0  0  0  0  0  0
    0.7340   -1.4742   -1.8718 S   0  0  0  0  0  0  0  0  0  0  0  0
    0.7340   -0.2584    0.4147 H   0  0  0  0  0  0  0  0  0  0  0  0
   -0.1867   -1.9683    0.2448 H   0  0  0  0  0  0  0  0  0  0  0  0
    1.5784   -2.0342    0.3354 H   0  0  0  0  0  0  0  0  0  0  0  0
    1.9043   -0.8461   -2.0382 H   0  0  0  0  0  0  0  0  0  0  0  0
    1.7201    1.3893    1.6708 C   0  0  0  0  0  0  0  0  0  0  0  0
    0.7340    0.9533    0.8888 C   0  0  0  0  0  0  0  0  0  0  0  0
   -0.6609    1.1950    1.2067 C   0  0  0  0  0  0  0  0  0  0  0  0
   -1.9181    0.7060    0.3206 S   0  0  0  0  0  0  0  0  0  0  0  0
    1.5145    1.9444    2.5793 H   0  0  0  0  0  0  0  0  0  0  0  0
    2.7591    1.2062    1.4291 H   0  0  0  0  0  0  0  0  0  0  0  0
   -0.8318    1.7561    2.1272 H   0  0  0  0  0  0  0  0  0  0  0  0
  1  2  1  0
  1  4  1  0
  1  5  1  0
  2  6  1  0
  3  8  1  0
  7  8  2  3
  7 11  1  0
  7 12  1  0
  8  9  1  0
  9 10  2  0
  9 13  1  0
M  RAD  1   1   2
M  END
>  <reaction>  (11) 
rxn_1849

>  <mol_properties>  (11) 
{"0": {"label": "*3", "atom_type": "Cs"}, "1": {"label": "*4", "atom_type": "S2s"}, "2": {"label": "*2", "atom_type": "H0"}, "7": {"label": "*1", "atom_type": "Cd"}, "8": {"label": "*0", "atom_type": "CS"}}

>  <type>  (11) 
unop_7

>  <geom_source>  (11) 
Heuristics

$$$$

     RDKit          3D

 13 11  0  0  0  0  0  0  0  0999 V2000
   -0.6731   -1.3625   -0.3956 C   0  0  0  0  0  3  0  0  0  0  0  0
   -0.6731   -1.3625   -2.2063 S   0  0  0  0  0  0  0  0  0  0  0  0
   -0.6731   -0.1467    0.0801 H   0  0  0  0  0  0  0  0  0  0  0  0
   -1.5938   -1.8567   -0.0897 H   0  0  0  0  0  0  0  0  0  0  0  0
    0.1713   -1.9225    0.0008 H   0  0  0  0  0  0  0  0  0  0  0  0
    0.4972   -0.7344   -2.3727 H   0  0  0  0  0  0  0  0  0  0  0  0
   -1.8118    1.7084    0.8061 C   0  0  0  0  0  0  0  0  0  0  0  0
   -0.6731    1.0650    0.5543 C   0  0  0  0  0  0  0  0  0  0  0  0
    0.4578    1.1236    1.4615 C   0  0  0  0  0  0  0  0  0  0  0  0
    1.8721    0.3786    1.2388 S   0  0  0  0  0  0  0  0  0  0  0  0
   -1.9354    2.3033    1.7043 H   0  0  0  0  0  0  0  0  0  0  0  0
   -2.6524    1.6614    0.1260 H   0  0  0  0  0  0  0  0  0  0  0  0
    0.2993    1.7305    2.3547 H   0  0  0  0  0  0  0  0  0  0  0  0
  1  2  1  0
  1  4  1  0
  1  5  1  0
  2  6  1  0
  3  8  1  0
  7  8  2  3
  7 11  1  0
  7 12  1  0
  8  9  1  0
  9 10  2  0
  9 13  1  0
M  RAD  1   1   2
M  END
>  <reaction>  (12) 
rxn_1849

>  <mol_properties>  (12) 
{"0": {"label": "*3", "atom_type": "Cs"}, "1": {"label": "*4", "atom_type": "S2s"}, "2": {"label": "*2", "atom_type": "H0"}, "7": {"label": "*1", "atom_type": "Cd"}, "8": {"label": "*0", "atom_type": "CS"}}

>  <type>  (12) 
unop_8

>  <geom_source>  (12) 
Heuristics

$$$$

     RDKit          3D

 13 11  0  0  0  0  0  0  0  0999 V2000
    0.2179   -1.3128   -0.7672 C   0  0  0  0  0  3  0  0  0  0  0  0
    0.2179   -1.3128   -2.5778 S   0  0  0  0  0  0  0  0  0  0  0  0
    0.2179   -0.0969   -0.2914 H   0  0  0  0  0  0  0  0  0  0  0  0
   -0.7028   -1.8069   -0.4612 H   0  0  0  0  0  0  0  0  0  0  0  0
    1.0622   -1.8728   -0.3707 H   0  0  0  0  0  0  0  0  0  0  0  0
    1.3882   -0.6846   -2.7442 H   0  0  0  0  0  0  0  0  0  0  0  0
    0.7872    2.1175   -0.4838 C   0  0  0  0  0  0  0  0  0  0  0  0
    0.2179    1.1147    0.1828 C   0  0  0  0  0  0  0  0  0  0  0  0
   -0.0890    1.2106    1.5977 C   0  0  0  0  0  0  0  0  0  0  0  0
   -0.7760    0.0501    2.4841 S   0  0  0  0  0  0  0  0  0  0  0  0
    1.0436    3.0481    0.0105 H   0  0  0  0  0  0  0  0  0  0  0  0
    1.0140    2.0409   -1.5392 H   0  0  0  0  0  0  0  0  0  0  0  0
    0.1820    2.1599    2.0633 H   0  0  0  0  0  0  0  0  0  0  0  0
  1  2  1  0
  1  4  1  0
  1  5  1  0
  2  6  1  0
  3  8  1  0
  7  8  2  3
  7 11  1  0
  7 12  1  0
  8  9  1  0
  9 10  2  0
  9 13  1  0
M  RAD  1   1   2
M  END
>  <reaction>  (13) 
rxn_1849

>  <mol_properties>  (13) 
{"0": {"label": "*3", "atom_type": "Cs"}, "1": {"label": "*4", "atom_type": "S2s"}, "2": {"label": "*2", "atom_type": "H0"}, "7": {"label": "*1", "atom_type": "Cd"}, "8": {"label": "*0", "atom_type": "CS"}}

>  <type>  (13) 
unop_9

>  <geom_source>  (13) 
Heuristics

$$$$

     RDKit          3D

 13 11  0  0  0  0  0  0  0  0999 V2000
   -0.4738   -1.3148   -0.6370 C   0  0  0  0  0  3  0  0  0  0  0  0
   -0.4738   -1.3148   -2.4476 S   0  0  0  0  0  0  0  0  0  0  0  0
   -0.4738   -0.0989   -0.1612 H   0  0  0  0  0  0  0  0  0  0  0  0
   -1.3945   -1.8089   -0.3310 H   0  0  0  0  0  0  0  0  0  0  0  0
    0.3706   -1.8748   -0.2405 H   0  0  0  0  0  0  0  0  0  0  0  0
    0.6965   -0.6866   -2.6140 H   0  0  0  0  0  0  0  0  0  0  0  0
   -1.4599    1.9637    0.0345 C   0  0  0  0  0  0  0  0  0  0  0  0
   -0.4738    1.1127    0.3129 C   0  0  0  0  0  0  0  0  0  0  0  0
    0.2332    1.1459    1.5795 C   0  0  0  0  0  0  0  0  0  0  0  0
    1.4368    0.1573    2.0024 S   0  0  0  0  0  0  0  0  0  0  0  0
   -1.7719    2.7170    0.7494 H   0  0  0  0  0  0  0  0  0  0  0  0
   -1.9841    1.9347   -0.9119 H   0  0  0  0  0  0  0  0  0  0  0  0
   -0.1060    1.9157    2.2751 H   0  0  0  0  0  0  0  0  0  0  0  0
  1  2  1  0
  1  4  1  0
  1  5  1  0
  2  6  1  0
  3  8  1  0
  7  8  2  3
  7 11  1  0
  7 12  1  0
  8  9  1  0
  9 10  2  0
  9 13  1  0
M  RAD  1   1   2
M  END
>  <reaction>  (14) 
rxn_1849

>  <mol_properties>  (14) 
{"0": {"label": "*3", "atom_type": "Cs"}, "1": {"label": "*4", "atom_type": "S2s"}, "2": {"label": "*2", "atom_type": "H0"}, "7": {"label": "*1", "atom_type": "Cd"}, "8": {"label": "*0", "atom_type": "CS"}}

>  <type>  (14) 
unop_10

>  <geom_source>  (14) 
Heuristics

$$$$

     RDKit          3D

 13 11  0  0  0  0  0  0  0  0999 V2000
    0.5900   -1.6651    0.3134 C   0  0  0  0  0  3  0  0  0  0  0  0
    0.5900   -1.6651   -1.4972 S   0  0  0  0  0  0  0  0  0  0  0  0
    0.5900   -0.4493    0.7892 H   0  0  0  0  0  0  0  0  0  0  0  0
   -0.3307   -2.1592    0.6194 H   0  0  0  0  0  0  0  0  0  0  0  0
    1.4343   -2.2251    0.7099 H   0  0  0  0  0  0  0  0  0  0  0  0
    1.7603   -1.0370   -1.6636 H   0  0  0  0  0  0  0  0  0  0  0  0
    1.1593    1.0465    2.4335 C   0  0  0  0  0  0  0  0  0  0  0  0
    0.5900    0.7624    1.2634 C   0  0  0  0  0  0  0  0  0  0  0  0
   -0.6352    1.4076    0.8298 C   0  0  0  0  0  0  0  0  0  0  0  0
   -1.3937    1.1269   -0.5669 S   0  0  0  0  0  0  0  0  0  0  0  0
    0.7247    1.7752    3.1088 H   0  0  0  0  0  0  0  0  0  0  0  0
    2.0733    0.5623    2.7522 H   0  0  0  0  0  0  0  0  0  0  0  0
   -1.0452    2.1348    1.5329 H   0  0  0  0  0  0  0  0  0  0  0  0
  1  2  1  0
  1  4  1  0
  1  5  1  0
  2  6  1  0
  3  8  1  0
  7  8  2  3
  7 11  1  0
  7 12  1  0
  8  9  1  0
  9 10  2  0
  9 13  1  0
M  RAD  1   1   2
M  END
>  <reaction>  (15) 
rxn_1849

>  <mol_properties>  (15) 
{"0": {"label": "*3", "atom_type": "Cs"}, "1": {"label": "*4", "atom_type": "S2s"}, "2": {"label": "*2", "atom_type": "H0"}, "7": {"label": "*1", "atom_type": "Cd"}, "8": {"label": "*0", "atom_type": "CS"}}

>  <type>  (15) 
unop_11

>  <geom_source>  (15) 
Heuristics

$$$$

     RDKit          3D

 13 11  0  0  0  0  0  0  0  0999 V2000
   -0.0093   -1.3199   -0.8047 C   0  0  0  0  0  3  0  0  0  0  0  0
   -0.0093   -1.3199   -2.6154 S   0  0  0  0  0  0  0  0  0  0  0  0
   -0.0093   -0.1040   -0.3290 H   0  0  0  0  0  0  0  0  0  0  0  0
   -0.9299   -1.8140   -0.4988 H   0  0  0  0  0  0  0  0  0  0  0  0
    0.8351   -1.8799   -0.4083 H   0  0  0  0  0  0  0  0  0  0  0  0
    1.1610   -0.6917   -2.7818 H   0  0  0  0  0  0  0  0  0  0  0  0
   -0.0093    2.1660   -0.6634 C   0  0  0  0  0  0  0  0  0  0  0  0
   -0.0093    1.1076    0.1452 C   0  0  0  0  0  0  0  0  0  0  0  0
   -0.0093    1.2458    1.5895 C   0  0  0  0  0  0  0  0  0  0  0  0
   -0.0093    0.0238    2.6437 S   0  0  0  0  0  0  0  0  0  0  0  0
   -0.0093    3.1760   -0.2686 H   0  0  0  0  0  0  0  0  0  0  0  0
   -0.0093    2.0574   -1.7402 H   0  0  0  0  0  0  0  0  0  0  0  0
   -0.0093    2.2752    1.9526 H   0  0  0  0  0  0  0  0  0  0  0  0
  1  2  1  0
  1  4  1  0
  1  5  1  0
  2  6  1  0
  3  8  1  0
  7  8  2  3
  7 11  1  0
  7 12  1  0
  8  9  1  0
  9 10  2  0
  9 13  1  0
M  RAD  1   1   2
M  END
>  <reaction>  (16) 
rxn_1849

>  <mol_properties>  (16) 
{"0": {"label": "*3", "atom_type": "Cs"}, "1": {"label": "*4", "atom_type": "S2s"}, "2": {"label": "*2", "atom_type": "H0"}, "7": {"label": "*1", "atom_type": "Cd"}, "8": {"label": "*0", "atom_type": "CS"}}

>  <type>  (16) 
unop_12

>  <geom_source>  (16) 
Heuristics

$$$$

     RDKit          3D

 13 11  0  0  0  0  0  0  0  0999 V2000
    3.0127   -0.2984    1.0641 S   0  0  0  0  0  0  0  0  0  0  0  0
   -1.2377    1.3732    1.8966 S   0  0  0  0  0  0  0  0  0  0  0  0
   -0.8138   -0.1790   -0.2557 C   0  0  0  0  0  0  0  0  0  0  0  0
   -1.7643    0.5591    0.5822 C   0  0  0  0  0  0  0  0  0  0  0  0
   -1.2170   -0.8491   -1.3301 C   0  0  0  0  0  0  0  0  0  0  0  0
    1.5303    0.5758    0.4901 C   0  0  0  0  0  3  0  0  0  0  0  0
    0.4164   -0.1809    0.0462 H   0  0  0  0  0  0  0  0  0  0  0  0
   -2.8200    0.5731    0.3412 H   0  0  0  0  0  0  0  0  0  0  0  0
   -2.2605   -0.8707   -1.6200 H   0  0  0  0  0  0  0  0  0  0  0  0
   -0.4951   -1.3854   -1.9313 H   0  0  0  0  0  0  0  0  0  0  0  0
    1.5577    1.6248    0.8502 H   0  0  0  0  0  0  0  0  0  0  0  0
    1.4997    0.5678   -0.6191 H   0  0  0  0  0  0  0  0  0  0  0  0
    2.5915   -1.5104    0.4856 H   0  0  0  0  0  0  0  0  0  0  0  0
  1  6  1  0
  1 13  1  0
  2  4  2  0
  3  5  2  3
  3  4  1  0
  3  7  1  0
  4  8  1  0
  5  9  1  0
  5 10  1  0
  6 11  1  0
  6 12  1  0
M  RAD  1   6   2
M  END
>  <reaction>  (17) 
rxn_1849

>  <mol_properties>  (17) 
{"0": {"label": "*3", "atom_type": "Cs"}, "1": {"label": "*4", "atom_type": "S2s"}, "2": {"label": "*2", "atom_type": "H0"}, "7": {"label": "*1", "atom_type": "Cd"}, "8": {"label": "*0", "atom_type": "CS"}}

>  <type>  (17) 
unop_13

>  <geom_source>  (17) 
AutoTST

$$$$
