
     RDKit          3D

 16 15  0  0  0  0  0  0  0  0999 V2000
    1.7961   -0.3807    1.6176 C   0  0  0  0  0  0  0  0  0  0  0  0
    0.8562   -0.8708    0.8256 C   0  0  0  0  0  0  0  0  0  0  0  0
    0.0895   -0.0826   -0.2048 C   0  0  0  0  0  0  0  0  0  0  0  0
   -1.4061   -0.1111    0.0982 C   0  0  0  0  0  0  0  0  0  0  0  0
    0.4476   -0.5902   -1.5797 C   0  0  0  0  0  0  0  0  0  0  0  0
   -0.3793   -1.1113   -2.4728 C   0  0  0  0  0  0  0  0  0  0  0  0
    2.3110   -1.0032    2.3386 H   0  0  0  0  0  0  0  0  0  0  0  0
    2.0846    0.6643    1.5737 H   0  0  0  0  0  0  0  0  0  0  0  0
    0.5921   -1.9241    0.8925 H   0  0  0  0  0  0  0  0  0  0  0  0
    0.4358    0.9557   -0.1462 H   0  0  0  0  0  0  0  0  0  0  0  0
   -1.5968    0.3080    1.0865 H   0  0  0  0  0  0  0  0  0  0  0  0
   -1.9674    0.4693   -0.6359 H   0  0  0  0  0  0  0  0  0  0  0  0
   -1.7902   -1.1338    0.0883 H   0  0  0  0  0  0  0  0  0  0  0  0
    1.5049   -0.5197   -1.8214 H   0  0  0  0  0  0  0  0  0  0  0  0
   -1.4421   -1.2131   -2.2889 H   0  0  0  0  0  0  0  0  0  0  0  0
   -0.0162   -1.4558   -3.4328 H   0  0  0  0  0  0  0  0  0  0  0  0
  1  2  2  3
  1  7  1  0
  1  8  1  0
  2  3  1  0
  2  9  1  0
  3  4  1  0
  3  5  1  0
  3 10  1  0
  4 11  1  0
  4 12  1  0
  4 13  1  0
  5  6  2  3
  5 14  1  0
  6 15  1  0
  6 16  1  0
M  END
>  <reaction>  (1) 
rxn_1188

>  <mol_properties>  (1) 
{"2": {"label": "donator", "atom_type": "Cs"}, "9": {"label": "d_hydrogen", "atom_type": "H0"}}

>  <type>  (1) 
r1h

$$$$

     RDKit          3D

  9  8  0  0  0  0  0  0  0  0999 V2000
    1.8963   -0.1405   -0.2150 C   0  0  0  0  0  0  0  0  0  0  0  0
    0.6340    0.1486   -0.2254 C   0  0  0  0  0  3  0  0  0  0  0  0
   -0.6770    0.4501   -0.2373 C   0  0  0  0  0  0  0  0  0  0  0  0
   -1.6600   -0.2303    0.4662 C   0  0  0  0  0  0  0  0  0  0  0  0
    2.3274   -0.8354   -0.9313 H   0  0  0  0  0  0  0  0  0  0  0  0
    2.5751    0.2988    0.5117 H   0  0  0  0  0  0  0  0  0  0  0  0
   -0.9723    1.2966   -0.8520 H   0  0  0  0  0  0  0  0  0  0  0  0
   -2.6934    0.0777    0.4015 H   0  0  0  0  0  0  0  0  0  0  0  0
   -1.4140   -1.0782    1.0904 H   0  0  0  0  0  0  0  0  0  0  0  0
  1  2  2  3
  1  5  1  0
  1  6  1  0
  2  3  1  0
  3  4  2  3
  3  7  1  0
  4  8  1  0
  4  9  1  0
M  RAD  1   2   2
M  END
>  <reaction>  (2) 
rxn_1188

>  <mol_properties>  (2) 
{"1": {"label": "acceptor", "atom_type": "Cd"}}

>  <type>  (2) 
r2

$$$$

     RDKit          3D

 10  9  0  0  0  0  0  0  0  0999 V2000
    1.8334    0.0847   -0.1062 C   0  0  0  0  0  0  0  0  0  0  0  0
    0.5993   -0.4071   -0.0750 C   0  0  0  0  0  0  0  0  0  0  0  0
   -0.5993    0.4071    0.0750 C   0  0  0  0  0  0  0  0  0  0  0  0
   -1.8334   -0.0847    0.1062 C   0  0  0  0  0  0  0  0  0  0  0  0
    2.0179    1.1498   -0.0189 H   0  0  0  0  0  0  0  0  0  0  0  0
    2.6972   -0.5572   -0.2194 H   0  0  0  0  0  0  0  0  0  0  0  0
    0.4465   -1.4793   -0.1649 H   0  0  0  0  0  0  0  0  0  0  0  0
   -0.4465    1.4793    0.1649 H   0  0  0  0  0  0  0  0  0  0  0  0
   -2.0179   -1.1498    0.0189 H   0  0  0  0  0  0  0  0  0  0  0  0
   -2.6972    0.5572    0.2194 H   0  0  0  0  0  0  0  0  0  0  0  0
  1  2  2  3
  1  5  1  0
  1  6  1  0
  2  3  1  0
  2  7  1  0
  3  4  2  3
  3  8  1  0
  4  9  1  0
  4 10  1  0
M  END
>  <reaction>  (3) 
rxn_1188

>  <mol_properties>  (3) 
{"1": {"label": "acceptor", "atom_type": "Cd"}, "9": {"label": "a_hydrogen", "atom_type": "H0"}}

>  <type>  (3) 
r2h

$$$$

     RDKit          3D

 25 23  0  0  0  0  0  0  0  0999 V2000
   -0.1163    2.6490    0.7803 C   0  0  0  0  0  0  0  0  0  0  0  0
   -0.2000    1.8599   -0.2681 C   0  0  0  0  0  3  0  0  0  0  0  0
   -0.2748    2.1060   -1.6862 C   0  0  0  0  0  0  0  0  0  0  0  0
   -0.3861    1.1593   -2.6132 C   0  0  0  0  0  0  0  0  0  0  0  0
   -0.0523    2.2488    1.7868 H   0  0  0  0  0  0  0  0  0  0  0  0
   -0.1064    3.7337    0.6760 H   0  0  0  0  0  0  0  0  0  0  0  0
   -0.2310    3.1530   -1.9891 H   0  0  0  0  0  0  0  0  0  0  0  0
   -0.4352    1.4114   -3.6644 H   0  0  0  0  0  0  0  0  0  0  0  0
   -0.4385    0.1102   -2.3458 H   0  0  0  0  0  0  0  0  0  0  0  0
   -0.6443   -2.5293   -1.0738 C   0  0  0  0  0  0  0  0  0  0  0  0
   -0.9064   -1.6287   -0.1348 C   0  0  0  0  0  0  0  0  0  0  0  0
    0.0808   -0.7625    0.5685 C   0  0  0  0  0  0  0  0  0  0  0  0
    1.5341   -0.9911    0.2136 C   0  0  0  0  0  0  0  0  0  0  0  0
   -0.2255   -0.6505    2.0214 C   0  0  0  0  0  0  0  0  0  0  0  0
    0.6503   -0.6310    3.0191 C   0  0  0  0  0  0  0  0  0  0  0  0
   -1.4413   -3.0986   -1.5344 H   0  0  0  0  0  0  0  0  0  0  0  0
    0.3640   -2.7404   -1.4088 H   0  0  0  0  0  0  0  0  0  0  0  0
   -1.9414   -1.4741    0.1602 H   0  0  0  0  0  0  0  0  0  0  0  0
   -0.1519    0.3508    0.1515 H   0  0  0  0  0  0  0  0  0  0  0  0
    1.6802   -0.9307   -0.8655 H   0  0  0  0  0  0  0  0  0  0  0  0
    2.1641   -0.2275    0.6701 H   0  0  0  0  0  0  0  0  0  0  0  0
    1.8777   -1.9715    0.5533 H   0  0  0  0  0  0  0  0  0  0  0  0
   -1.2827   -0.5595    2.2592 H   0  0  0  0  0  0  0  0  0  0  0  0
    1.7168   -0.7245    2.8563 H   0  0  0  0  0  0  0  0  0  0  0  0
    0.3198   -0.5298    4.0449 H   0  0  0  0  0  0  0  0  0  0  0  0
  1  2  2  3
  1  5  1  0
  1  6  1  0
  2  3  1  0
  3  4  2  3
  3  7  1  0
  4  8  1  0
  4  9  1  0
 10 11  2  3
 10 16  1  0
 10 17  1  0
 11 12  1  0
 11 18  1  0
 12 13  1  0
 12 14  1  0
 12 19  1  0
 13 20  1  0
 13 21  1  0
 13 22  1  0
 14 15  2  3
 14 23  1  0
 15 24  1  0
 15 25  1  0
M  RAD  1   2   2
M  END
>  <reaction>  (4) 
rxn_1188

>  <mol_properties>  (4) 
{"1": {"label": "*3", "atom_type": "Cd"}, "2": {"label": "*4", "atom_type": "Cd"}, "10": {"label": "*0", "atom_type": "Cd"}, "11": {"label": "*1", "atom_type": "Cs"}, "18": {"label": "*2", "atom_type": "H0"}}

>  <type>  (4) 
ts

$$$$

     RDKit          3D

 25 23  0  0  0  0  0  0  0  0999 V2000
    1.3807    1.2345   -1.9217 C   0  0  0  0  0  0  0  0  0  0  0  0
    0.3092    1.2419   -1.1358 C   0  0  0  0  0  0  0  0  0  0  0  0
   -0.3349    2.4537   -0.6468 C   0  0  0  0  0  0  0  0  0  0  0  0
   -1.4064    2.4611    0.1392 C   0  0  0  0  0  0  0  0  0  0  0  0
    1.8279    0.3099   -2.2624 H   0  0  0  0  0  0  0  0  0  0  0  0
    1.8452    2.1579   -2.2498 H   0  0  0  0  0  0  0  0  0  0  0  0
    0.1081    3.3955   -0.9589 H   0  0  0  0  0  0  0  0  0  0  0  0
   -1.8536    3.3857    0.4798 H   0  0  0  0  0  0  0  0  0  0  0  0
   -1.8709    1.5377    0.4673 H   0  0  0  0  0  0  0  0  0  0  0  0
    0.2363   -2.0686   -1.7376 C   0  0  0  0  0  0  0  0  0  0  0  0
    0.2363   -2.0686   -0.4144 C   0  0  0  0  0  0  0  0  0  0  0  0
    0.2363   -0.8378    0.4550 C   0  0  0  0  0  3  0  0  0  0  0  0
    1.4747   -0.8080    1.3466 C   0  0  0  0  0  0  0  0  0  0  0  0
   -1.0672   -0.7692    1.2115 C   0  0  0  0  0  0  0  0  0  0  0  0
   -1.2218   -0.7690    2.5264 C   0  0  0  0  0  0  0  0  0  0  0  0
    0.2356   -2.9912   -2.3043 H   0  0  0  0  0  0  0  0  0  0  0  0
    0.2381   -1.1428   -2.3033 H   0  0  0  0  0  0  0  0  0  0  0  0
    0.2316   -3.0144    0.1232 H   0  0  0  0  0  0  0  0  0  0  0  0
    0.2729    0.2065   -0.3438 H   0  0  0  0  0  0  0  0  0  0  0  0
    2.3774   -0.8164    0.7354 H   0  0  0  0  0  0  0  0  0  0  0  0
    1.4894    0.0877    1.9697 H   0  0  0  0  0  0  0  0  0  0  0  0
    1.5073   -1.6798    2.0042 H   0  0  0  0  0  0  0  0  0  0  0  0
   -1.9504   -0.7335    0.5790 H   0  0  0  0  0  0  0  0  0  0  0  0
   -0.3815   -0.8083    3.2090 H   0  0  0  0  0  0  0  0  0  0  0  0
   -2.2082   -0.7259    2.9707 H   0  0  0  0  0  0  0  0  0  0  0  0
  1  2  2  3
  1  5  1  0
  1  6  1  0
  2  3  1  0
  2 19  1  0
  3  4  2  3
  3  7  1  0
  4  8  1  0
  4  9  1  0
 10 11  2  3
 10 16  1  0
 10 17  1  0
 11 12  1  0
 11 18  1  0
 12 13  1  0
 12 14  1  0
 13 20  1  0
 13 21  1  0
 13 22  1  0
 14 15  2  3
 14 23  1  0
 15 24  1  0
 15 25  1  0
M  RAD  1  12   2
M  END
>  <reaction>  (5) 
rxn_1188

>  <mol_properties>  (5) 
{"1": {"label": "*3", "atom_type": "Cd"}, "2": {"label": "*4", "atom_type": "Cd"}, "10": {"label": "*0", "atom_type": "Cd"}, "11": {"label": "*1", "atom_type": "Cs"}, "18": {"label": "*2", "atom_type": "H0"}}

>  <type>  (5) 
unop_1

>  <geom_source>  (5) 
Heuristics

$$$$

     RDKit          3D

 25 23  0  0  0  0  0  0  0  0999 V2000
    1.0574    2.4832   -0.3134 C   0  0  0  0  0  0  0  0  0  0  0  0
    0.4071    1.4564   -0.8507 C   0  0  0  0  0  0  0  0  0  0  0  0
   -0.6991    1.5928   -1.7889 C   0  0  0  0  0  0  0  0  0  0  0  0
   -1.3494    0.5659   -2.3262 C   0  0  0  0  0  0  0  0  0  0  0  0
    1.8747    2.3366    0.3804 H   0  0  0  0  0  0  0  0  0  0  0  0
    0.7904    3.5067   -0.5527 H   0  0  0  0  0  0  0  0  0  0  0  0
   -0.9899    2.6071   -2.0483 H   0  0  0  0  0  0  0  0  0  0  0  0
   -2.1667    0.7126   -3.0201 H   0  0  0  0  0  0  0  0  0  0  0  0
   -1.0824   -0.4576   -2.0870 H   0  0  0  0  0  0  0  0  0  0  0  0
    0.3342   -1.8540   -1.4526 C   0  0  0  0  0  0  0  0  0  0  0  0
    0.3342   -1.8540   -0.1294 C   0  0  0  0  0  0  0  0  0  0  0  0
    0.3342   -0.6233    0.7400 C   0  0  0  0  0  3  0  0  0  0  0  0
    1.5726   -0.5935    1.6316 C   0  0  0  0  0  0  0  0  0  0  0  0
   -0.9693   -0.5547    1.4965 C   0  0  0  0  0  0  0  0  0  0  0  0
   -1.1240   -0.5544    2.8115 C   0  0  0  0  0  0  0  0  0  0  0  0
    0.3334   -2.7767   -2.0193 H   0  0  0  0  0  0  0  0  0  0  0  0
    0.3359   -0.9283   -2.0183 H   0  0  0  0  0  0  0  0  0  0  0  0
    0.3294   -2.7999    0.4083 H   0  0  0  0  0  0  0  0  0  0  0  0
    0.3708    0.4211   -0.0588 H   0  0  0  0  0  0  0  0  0  0  0  0
    2.4753   -0.6018    1.0204 H   0  0  0  0  0  0  0  0  0  0  0  0
    1.5872    0.3023    2.2547 H   0  0  0  0  0  0  0  0  0  0  0  0
    1.6051   -1.4652    2.2892 H   0  0  0  0  0  0  0  0  0  0  0  0
   -1.8525   -0.5190    0.8640 H   0  0  0  0  0  0  0  0  0  0  0  0
   -0.2836   -0.5938    3.4940 H   0  0  0  0  0  0  0  0  0  0  0  0
   -2.1104   -0.5113    3.2557 H   0  0  0  0  0  0  0  0  0  0  0  0
  1  2  2  3
  1  5  1  0
  1  6  1  0
  2  3  1  0
  2 19  1  0
  3  4  2  3
  3  7  1  0
  4  8  1  0
  4  9  1  0
 10 11  2  3
 10 16  1  0
 10 17  1  0
 11 12  1  0
 11 18  1  0
 12 13  1  0
 12 14  1  0
 13 20  1  0
 13 21  1  0
 13 22  1  0
 14 15  2  3
 14 23  1  0
 15 24  1  0
 15 25  1  0
M  RAD  1  12   2
M  END
>  <reaction>  (6) 
rxn_1188

>  <mol_properties>  (6) 
{"1": {"label": "*3", "atom_type": "Cd"}, "2": {"label": "*4", "atom_type": "Cd"}, "10": {"label": "*0", "atom_type": "Cd"}, "11": {"label": "*1", "atom_type": "Cs"}, "18": {"label": "*2", "atom_type": "H0"}}

>  <type>  (6) 
unop_2

>  <geom_source>  (6) 
Heuristics

$$$$

     RDKit          3D

 25 23  0  0  0  0  0  0  0  0999 V2000
    0.2104    1.0422   -2.4802 C   0  0  0  0  0  0  0  0  0  0  0  0
    0.1821    1.2234   -1.1640 C   0  0  0  0  0  0  0  0  0  0  0  0
    0.1888    2.5305   -0.5207 C   0  0  0  0  0  0  0  0  0  0  0  0
    0.1605    2.7117    0.7955 C   0  0  0  0  0  0  0  0  0  0  0  0
    0.2041    0.0520   -2.9167 H   0  0  0  0  0  0  0  0  0  0  0  0
    0.2409    1.8832   -3.1643 H   0  0  0  0  0  0  0  0  0  0  0  0
    0.2190    3.3933   -1.1807 H   0  0  0  0  0  0  0  0  0  0  0  0
    0.1667    3.7019    1.2319 H   0  0  0  0  0  0  0  0  0  0  0  0
    0.1300    1.8707    1.4795 H   0  0  0  0  0  0  0  0  0  0  0  0
    0.1092   -2.0871   -1.7659 C   0  0  0  0  0  0  0  0  0  0  0  0
    0.1092   -2.0871   -0.4427 C   0  0  0  0  0  0  0  0  0  0  0  0
    0.1092   -0.8563    0.4267 C   0  0  0  0  0  3  0  0  0  0  0  0
    1.3476   -0.8265    1.3183 C   0  0  0  0  0  0  0  0  0  0  0  0
   -1.1943   -0.7877    1.1832 C   0  0  0  0  0  0  0  0  0  0  0  0
   -1.3489   -0.7875    2.4982 C   0  0  0  0  0  0  0  0  0  0  0  0
    0.1085   -3.0097   -2.3326 H   0  0  0  0  0  0  0  0  0  0  0  0
    0.1110   -1.1613   -2.3316 H   0  0  0  0  0  0  0  0  0  0  0  0
    0.1045   -3.0329    0.0949 H   0  0  0  0  0  0  0  0  0  0  0  0
    0.1458    0.1881   -0.3721 H   0  0  0  0  0  0  0  0  0  0  0  0
    2.2504   -0.8349    0.7071 H   0  0  0  0  0  0  0  0  0  0  0  0
    1.3623    0.0693    1.9414 H   0  0  0  0  0  0  0  0  0  0  0  0
    1.3802   -1.6983    1.9759 H   0  0  0  0  0  0  0  0  0  0  0  0
   -2.0775   -0.7520    0.5507 H   0  0  0  0  0  0  0  0  0  0  0  0
   -0.5085   -0.8268    3.1807 H   0  0  0  0  0  0  0  0  0  0  0  0
   -2.3353   -0.7444    2.9424 H   0  0  0  0  0  0  0  0  0  0  0  0
  1  2  2  3
  1  5  1  0
  1  6  1  0
  2  3  1  0
  2 19  1  0
  3  4  2  3
  3  7  1  0
  4  8  1  0
  4  9  1  0
 10 11  2  3
 10 16  1  0
 10 17  1  0
 11 12  1  0
 11 18  1  0
 12 13  1  0
 12 14  1  0
 13 20  1  0
 13 21  1  0
 13 22  1  0
 14 15  2  3
 14 23  1  0
 15 24  1  0
 15 25  1  0
M  RAD  1  12   2
M  END
>  <reaction>  (7) 
rxn_1188

>  <mol_properties>  (7) 
{"1": {"label": "*3", "atom_type": "Cd"}, "2": {"label": "*4", "atom_type": "Cd"}, "10": {"label": "*0", "atom_type": "Cd"}, "11": {"label": "*1", "atom_type": "Cs"}, "18": {"label": "*2", "atom_type": "H0"}}

>  <type>  (7) 
unop_3

>  <geom_source>  (7) 
Heuristics

$$$$

     RDKit          3D

 25 23  0  0  0  0  0  0  0  0999 V2000
   -0.2212    2.7076   -0.2451 C   0  0  0  0  0  0  0  0  0  0  0  0
    0.0454    1.5213   -0.7814 C   0  0  0  0  0  0  0  0  0  0  0  0
    0.7256    1.3373   -2.0565 C   0  0  0  0  0  0  0  0  0  0  0  0
    0.9922    0.1511   -2.5928 C   0  0  0  0  0  0  0  0  0  0  0  0
   -0.7293    2.7988    0.7060 H   0  0  0  0  0  0  0  0  0  0  0  0
    0.0622    3.6279   -0.7438 H   0  0  0  0  0  0  0  0  0  0  0  0
    1.0222    2.2420   -2.5804 H   0  0  0  0  0  0  0  0  0  0  0  0
    1.5003    0.0598   -3.5438 H   0  0  0  0  0  0  0  0  0  0  0  0
    0.7088   -0.7693   -2.0941 H   0  0  0  0  0  0  0  0  0  0  0  0
   -0.0275   -1.7892   -1.3832 C   0  0  0  0  0  0  0  0  0  0  0  0
   -0.0275   -1.7892   -0.0600 C   0  0  0  0  0  0  0  0  0  0  0  0
   -0.0275   -0.5584    0.8094 C   0  0  0  0  0  3  0  0  0  0  0  0
    1.2109   -0.5286    1.7010 C   0  0  0  0  0  0  0  0  0  0  0  0
   -1.3310   -0.4898    1.5659 C   0  0  0  0  0  0  0  0  0  0  0  0
   -1.4856   -0.4896    2.8808 C   0  0  0  0  0  0  0  0  0  0  0  0
   -0.0282   -2.7118   -1.9500 H   0  0  0  0  0  0  0  0  0  0  0  0
   -0.0257   -0.8634   -1.9490 H   0  0  0  0  0  0  0  0  0  0  0  0
   -0.0322   -2.7350    0.4776 H   0  0  0  0  0  0  0  0  0  0  0  0
    0.0091    0.4860    0.0106 H   0  0  0  0  0  0  0  0  0  0  0  0
    2.1137   -0.5370    1.0897 H   0  0  0  0  0  0  0  0  0  0  0  0
    1.2256    0.3672    2.3241 H   0  0  0  0  0  0  0  0  0  0  0  0
    1.2435   -1.4004    2.3586 H   0  0  0  0  0  0  0  0  0  0  0  0
   -2.2141   -0.4541    0.9334 H   0  0  0  0  0  0  0  0  0  0  0  0
   -0.6452   -0.5289    3.5634 H   0  0  0  0  0  0  0  0  0  0  0  0
   -2.4720   -0.4465    3.3251 H   0  0  0  0  0  0  0  0  0  0  0  0
  1  2  2  3
  1  5  1  0
  1  6  1  0
  2  3  1  0
  2 19  1  0
  3  4  2  3
  3  7  1  0
  4  8  1  0
  4  9  1  0
 10 11  2  3
 10 16  1  0
 10 17  1  0
 11 12  1  0
 11 18  1  0
 12 13  1  0
 12 14  1  0
 13 20  1  0
 13 21  1  0
 13 22  1  0
 14 15  2  3
 14 23  1  0
 15 24  1  0
 15 25  1  0
M  RAD  1  12   2
M  END
>  <reaction>  (8) 
rxn_1188

>  <mol_properties>  (8) 
{"1": {"label": "*3", "atom_type": "Cd"}, "2": {"label": "*4", "atom_type": "Cd"}, "10": {"label": "*0", "atom_type": "Cd"}, "11": {"label": "*1", "atom_type": "Cs"}, "18": {"label": "*2", "atom_type": "H0"}}

>  <type>  (8) 
unop_4

>  <geom_source>  (8) 
Heuristics

$$$$

     RDKit          3D

 25 23  0  0  0  0  0  0  0  0999 V2000
   -0.9780    1.2742   -1.9779 C   0  0  0  0  0  0  0  0  0  0  0  0
    0.0545    1.2462   -1.1418 C   0  0  0  0  0  0  0  0  0  0  0  0
    0.7150    2.4360   -0.6218 C   0  0  0  0  0  0  0  0  0  0  0  0
    1.7475    2.4080    0.2143 C   0  0  0  0  0  0  0  0  0  0  0  0
   -1.4393    0.3648   -2.3402 H   0  0  0  0  0  0  0  0  0  0  0  0
   -1.3950    2.2124   -2.3270 H   0  0  0  0  0  0  0  0  0  0  0  0
    0.3192    3.3920   -0.9539 H   0  0  0  0  0  0  0  0  0  0  0  0
    2.2088    3.3173    0.5765 H   0  0  0  0  0  0  0  0  0  0  0  0
    2.1646    1.4698    0.5634 H   0  0  0  0  0  0  0  0  0  0  0  0
   -0.0184   -2.0643   -1.7437 C   0  0  0  0  0  0  0  0  0  0  0  0
   -0.0184   -2.0643   -0.4205 C   0  0  0  0  0  0  0  0  0  0  0  0
   -0.0184   -0.8335    0.4489 C   0  0  0  0  0  3  0  0  0  0  0  0
    1.2200   -0.8037    1.3405 C   0  0  0  0  0  0  0  0  0  0  0  0
   -1.3219   -0.7649    1.2054 C   0  0  0  0  0  0  0  0  0  0  0  0
   -1.4765   -0.7647    2.5204 C   0  0  0  0  0  0  0  0  0  0  0  0
   -0.0191   -2.9869   -2.3104 H   0  0  0  0  0  0  0  0  0  0  0  0
   -0.0166   -1.1385   -2.3094 H   0  0  0  0  0  0  0  0  0  0  0  0
   -0.0231   -3.0101    0.1172 H   0  0  0  0  0  0  0  0  0  0  0  0
    0.0182    0.2108   -0.3499 H   0  0  0  0  0  0  0  0  0  0  0  0
    2.1228   -0.8121    0.7293 H   0  0  0  0  0  0  0  0  0  0  0  0
    1.2347    0.0920    1.9636 H   0  0  0  0  0  0  0  0  0  0  0  0
    1.2526   -1.6755    1.9981 H   0  0  0  0  0  0  0  0  0  0  0  0
   -2.2050   -0.7292    0.5729 H   0  0  0  0  0  0  0  0  0  0  0  0
   -0.6361   -0.8040    3.2029 H   0  0  0  0  0  0  0  0  0  0  0  0
   -2.4629   -0.7216    2.9646 H   0  0  0  0  0  0  0  0  0  0  0  0
  1  2  2  3
  1  5  1  0
  1  6  1  0
  2  3  1  0
  2 19  1  0
  3  4  2  3
  3  7  1  0
  4  8  1  0
  4  9  1  0
 10 11  2  3
 10 16  1  0
 10 17  1  0
 11 12  1  0
 11 18  1  0
 12 13  1  0
 12 14  1  0
 13 20  1  0
 13 21  1  0
 13 22  1  0
 14 15  2  3
 14 23  1  0
 15 24  1  0
 15 25  1  0
M  RAD  1  12   2
M  END
>  <reaction>  (9) 
rxn_1188

>  <mol_properties>  (9) 
{"1": {"label": "*3", "atom_type": "Cd"}, "2": {"label": "*4", "atom_type": "Cd"}, "10": {"label": "*0", "atom_type": "Cd"}, "11": {"label": "*1", "atom_type": "Cs"}, "18": {"label": "*2", "atom_type": "H0"}}

>  <type>  (9) 
unop_5

>  <geom_source>  (9) 
Heuristics

$$$$

     RDKit          3D

 25 23  0  0  0  0  0  0  0  0999 V2000
   -0.6898    2.5126   -0.3550 C   0  0  0  0  0  0  0  0  0  0  0  0
   -0.0495    1.4641   -0.8616 C   0  0  0  0  0  0  0  0  0  0  0  0
    1.1040    1.5624   -1.7460 C   0  0  0  0  0  0  0  0  0  0  0  0
    1.7442    0.5139   -2.2526 C   0  0  0  0  0  0  0  0  0  0  0  0
   -1.5437    2.3941    0.2990 H   0  0  0  0  0  0  0  0  0  0  0  0
   -0.3774    3.5264   -0.5805 H   0  0  0  0  0  0  0  0  0  0  0  0
    1.4408    2.5662   -1.9904 H   0  0  0  0  0  0  0  0  0  0  0  0
    2.5981    0.6324   -2.9066 H   0  0  0  0  0  0  0  0  0  0  0  0
    1.4318   -0.4999   -2.0271 H   0  0  0  0  0  0  0  0  0  0  0  0
   -0.1224   -1.8464   -1.4635 C   0  0  0  0  0  0  0  0  0  0  0  0
   -0.1224   -1.8464   -0.1402 C   0  0  0  0  0  0  0  0  0  0  0  0
   -0.1224   -0.6156    0.7292 C   0  0  0  0  0  3  0  0  0  0  0  0
    1.1159   -0.5858    1.6208 C   0  0  0  0  0  0  0  0  0  0  0  0
   -1.4259   -0.5470    1.4857 C   0  0  0  0  0  0  0  0  0  0  0  0
   -1.5806   -0.5468    2.8006 C   0  0  0  0  0  0  0  0  0  0  0  0
   -0.1232   -2.7690   -2.0302 H   0  0  0  0  0  0  0  0  0  0  0  0
   -0.1207   -0.9206   -2.0292 H   0  0  0  0  0  0  0  0  0  0  0  0
   -0.1272   -2.7922    0.3974 H   0  0  0  0  0  0  0  0  0  0  0  0
   -0.0858    0.4288   -0.0697 H   0  0  0  0  0  0  0  0  0  0  0  0
    2.0187   -0.5942    1.0095 H   0  0  0  0  0  0  0  0  0  0  0  0
    1.1306    0.3100    2.2439 H   0  0  0  0  0  0  0  0  0  0  0  0
    1.1485   -1.4576    2.2784 H   0  0  0  0  0  0  0  0  0  0  0  0
   -2.3091   -0.5113    0.8531 H   0  0  0  0  0  0  0  0  0  0  0  0
   -0.7402   -0.5861    3.4831 H   0  0  0  0  0  0  0  0  0  0  0  0
   -2.5670   -0.5037    3.2448 H   0  0  0  0  0  0  0  0  0  0  0  0
  1  2  2  3
  1  5  1  0
  1  6  1  0
  2  3  1  0
  2 19  1  0
  3  4  2  3
  3  7  1  0
  4  8  1  0
  4  9  1  0
 10 11  2  3
 10 16  1  0
 10 17  1  0
 11 12  1  0
 11 18  1  0
 12 13  1  0
 12 14  1  0
 13 20  1  0
 13 21  1  0
 13 22  1  0
 14 15  2  3
 14 23  1  0
 15 24  1  0
 15 25  1  0
M  RAD  1  12   2
M  END
>  <reaction>  (10) 
rxn_1188

>  <mol_properties>  (10) 
{"1": {"label": "*3", "atom_type": "Cd"}, "2": {"label": "*4", "atom_type": "Cd"}, "10": {"label": "*0", "atom_type": "Cd"}, "11": {"label": "*1", "atom_type": "Cs"}, "18": {"label": "*2", "atom_type": "H0"}}

>  <type>  (10) 
unop_6

>  <geom_source>  (10) 
Heuristics

$$$$

     RDKit          3D

 25 23  0  0  0  0  0  0  0  0999 V2000
   -1.1139    2.1703   -0.6782 C   0  0  0  0  0  0  0  0  0  0  0  0
   -0.0818    1.3848   -0.9677 C   0  0  0  0  0  0  0  0  0  0  0  0
    1.2408    1.8768   -1.3297 C   0  0  0  0  0  0  0  0  0  0  0  0
    2.2729    1.0913   -1.6192 C   0  0  0  0  0  0  0  0  0  0  0  0
   -2.0806    1.7622   -0.4139 H   0  0  0  0  0  0  0  0  0  0  0  0
   -1.0224    3.2507   -0.6970 H   0  0  0  0  0  0  0  0  0  0  0  0
    1.3636    2.9561   -1.3572 H   0  0  0  0  0  0  0  0  0  0  0  0
    3.2396    1.4994   -1.8835 H   0  0  0  0  0  0  0  0  0  0  0  0
    2.1814    0.0109   -1.6004 H   0  0  0  0  0  0  0  0  0  0  0  0
   -0.1547   -1.9256   -1.5696 C   0  0  0  0  0  0  0  0  0  0  0  0
   -0.1547   -1.9256   -0.2463 C   0  0  0  0  0  0  0  0  0  0  0  0
   -0.1547   -0.6949    0.6231 C   0  0  0  0  0  3  0  0  0  0  0  0
    1.0837   -0.6651    1.5147 C   0  0  0  0  0  0  0  0  0  0  0  0
   -1.4582   -0.6263    1.3796 C   0  0  0  0  0  0  0  0  0  0  0  0
   -1.6128   -0.6261    2.6945 C   0  0  0  0  0  0  0  0  0  0  0  0
   -0.1554   -2.8483   -2.1363 H   0  0  0  0  0  0  0  0  0  0  0  0
   -0.1529   -0.9999   -2.1353 H   0  0  0  0  0  0  0  0  0  0  0  0
   -0.1594   -2.8715    0.2913 H   0  0  0  0  0  0  0  0  0  0  0  0
   -0.1181    0.3495   -0.1758 H   0  0  0  0  0  0  0  0  0  0  0  0
    1.9865   -0.6735    0.9034 H   0  0  0  0  0  0  0  0  0  0  0  0
    1.0984    0.2307    2.1378 H   0  0  0  0  0  0  0  0  0  0  0  0
    1.1163   -1.5369    2.1723 H   0  0  0  0  0  0  0  0  0  0  0  0
   -2.3413   -0.5906    0.7470 H   0  0  0  0  0  0  0  0  0  0  0  0
   -0.7724   -0.6654    3.3771 H   0  0  0  0  0  0  0  0  0  0  0  0
   -2.5992   -0.5829    3.1387 H   0  0  0  0  0  0  0  0  0  0  0  0
  1  2  2  3
  1  5  1  0
  1  6  1  0
  2  3  1  0
  2 19  1  0
  3  4  2  3
  3  7  1  0
  4  8  1  0
  4  9  1  0
 10 11  2  3
 10 16  1  0
 10 17  1  0
 11 12  1  0
 11 18  1  0
 12 13  1  0
 12 14  1  0
 13 20  1  0
 13 21  1  0
 13 22  1  0
 14 15  2  3
 14 23  1  0
 15 24  1  0
 15 25  1  0
M  RAD  1  12   2
M  END
>  <reaction>  (11) 
rxn_1188

>  <mol_properties>  (11) 
{"1": {"label": "*3", "atom_type": "Cd"}, "2": {"label": "*4", "atom_type": "Cd"}, "10": {"label": "*0", "atom_type": "Cd"}, "11": {"label": "*1", "atom_type": "Cs"}, "18": {"label": "*2", "atom_type": "H0"}}

>  <type>  (11) 
unop_7

>  <geom_source>  (11) 
Heuristics

$$$$

     RDKit          3D

 25 23  0  0  0  0  0  0  0  0999 V2000
    1.6761    1.6710   -1.1675 C   0  0  0  0  0  0  0  0  0  0  0  0
    0.4053    1.2975   -1.0598 C   0  0  0  0  0  0  0  0  0  0  0  0
   -0.7122    2.2270   -0.9616 C   0  0  0  0  0  0  0  0  0  0  0  0
   -1.9829    1.8534   -0.8539 C   0  0  0  0  0  0  0  0  0  0  0  0
    2.4763    0.9460   -1.2380 H   0  0  0  0  0  0  0  0  0  0  0  0
    1.9556    2.7186   -1.1886 H   0  0  0  0  0  0  0  0  0  0  0  0
   -0.4635    3.2846   -0.9800 H   0  0  0  0  0  0  0  0  0  0  0  0
   -2.7832    2.5784   -0.7834 H   0  0  0  0  0  0  0  0  0  0  0  0
   -2.2624    0.8058   -0.8328 H   0  0  0  0  0  0  0  0  0  0  0  0
    0.3324   -2.0130   -1.6617 C   0  0  0  0  0  0  0  0  0  0  0  0
    0.3324   -2.0130   -0.3385 C   0  0  0  0  0  0  0  0  0  0  0  0
    0.3324   -0.7822    0.5310 C   0  0  0  0  0  3  0  0  0  0  0  0
    1.5708   -0.7524    1.4226 C   0  0  0  0  0  0  0  0  0  0  0  0
   -0.9711   -0.7136    1.2875 C   0  0  0  0  0  0  0  0  0  0  0  0
   -1.1257   -0.7134    2.6024 C   0  0  0  0  0  0  0  0  0  0  0  0
    0.3317   -2.9356   -2.2284 H   0  0  0  0  0  0  0  0  0  0  0  0
    0.3342   -1.0872   -2.2274 H   0  0  0  0  0  0  0  0  0  0  0  0
    0.3277   -2.9588    0.1992 H   0  0  0  0  0  0  0  0  0  0  0  0
    0.3690    0.2621   -0.2679 H   0  0  0  0  0  0  0  0  0  0  0  0
    2.4736   -0.7608    0.8113 H   0  0  0  0  0  0  0  0  0  0  0  0
    1.5855    0.1433    2.0457 H   0  0  0  0  0  0  0  0  0  0  0  0
    1.6034   -1.6242    2.0802 H   0  0  0  0  0  0  0  0  0  0  0  0
   -1.8543   -0.6779    0.6549 H   0  0  0  0  0  0  0  0  0  0  0  0
   -0.2853   -0.7527    3.2849 H   0  0  0  0  0  0  0  0  0  0  0  0
   -2.1121   -0.6703    3.0466 H   0  0  0  0  0  0  0  0  0  0  0  0
  1  2  2  3
  1  5  1  0
  1  6  1  0
  2  3  1  0
  2 19  1  0
  3  4  2  3
  3  7  1  0
  4  8  1  0
  4  9  1  0
 10 11  2  3
 10 16  1  0
 10 17  1  0
 11 12  1  0
 11 18  1  0
 12 13  1  0
 12 14  1  0
 13 20  1  0
 13 21  1  0
 13 22  1  0
 14 15  2  3
 14 23  1  0
 15 24  1  0
 15 25  1  0
M  RAD  1  12   2
M  END
>  <reaction>  (12) 
rxn_1188

>  <mol_properties>  (12) 
{"1": {"label": "*3", "atom_type": "Cd"}, "2": {"label": "*4", "atom_type": "Cd"}, "10": {"label": "*0", "atom_type": "Cd"}, "11": {"label": "*1", "atom_type": "Cs"}, "18": {"label": "*2", "atom_type": "H0"}}

>  <type>  (12) 
unop_8

>  <geom_source>  (12) 
Heuristics

$$$$

     RDKit          3D

 25 23  0  0  0  0  0  0  0  0999 V2000
    1.4846    2.1266   -0.6163 C   0  0  0  0  0  0  0  0  0  0  0  0
    0.4416    1.3760   -0.9552 C   0  0  0  0  0  0  0  0  0  0  0  0
   -0.8450    1.9119   -1.3794 C   0  0  0  0  0  0  0  0  0  0  0  0
   -1.8879    1.1613   -1.7183 C   0  0  0  0  0  0  0  0  0  0  0  0
    2.4234    1.6864   -0.3066 H   0  0  0  0  0  0  0  0  0  0  0  0
    1.4305    3.2094   -0.6386 H   0  0  0  0  0  0  0  0  0  0  0  0
   -0.9300    2.9947   -1.4118 H   0  0  0  0  0  0  0  0  0  0  0  0
   -2.8267    1.6014   -2.0280 H   0  0  0  0  0  0  0  0  0  0  0  0
   -1.8338    0.0784   -1.6960 H   0  0  0  0  0  0  0  0  0  0  0  0
    0.3687   -1.9345   -1.5571 C   0  0  0  0  0  0  0  0  0  0  0  0
    0.3687   -1.9345   -0.2339 C   0  0  0  0  0  0  0  0  0  0  0  0
    0.3687   -0.7037    0.6355 C   0  0  0  0  0  3  0  0  0  0  0  0
    1.6071   -0.6739    1.5271 C   0  0  0  0  0  0  0  0  0  0  0  0
   -0.9348   -0.6351    1.3920 C   0  0  0  0  0  0  0  0  0  0  0  0
   -1.0894   -0.6349    2.7070 C   0  0  0  0  0  0  0  0  0  0  0  0
    0.3680   -2.8571   -2.1238 H   0  0  0  0  0  0  0  0  0  0  0  0
    0.3705   -1.0087   -2.1228 H   0  0  0  0  0  0  0  0  0  0  0  0
    0.3640   -2.8803    0.3038 H   0  0  0  0  0  0  0  0  0  0  0  0
    0.4053    0.3407   -0.1633 H   0  0  0  0  0  0  0  0  0  0  0  0
    2.5099   -0.6823    0.9159 H   0  0  0  0  0  0  0  0  0  0  0  0
    1.6218    0.2219    2.1502 H   0  0  0  0  0  0  0  0  0  0  0  0
    1.6397   -1.5457    2.1847 H   0  0  0  0  0  0  0  0  0  0  0  0
   -1.8179   -0.5994    0.7595 H   0  0  0  0  0  0  0  0  0  0  0  0
   -0.2490   -0.6742    3.3895 H   0  0  0  0  0  0  0  0  0  0  0  0
   -2.0758   -0.5918    3.1512 H   0  0  0  0  0  0  0  0  0  0  0  0
  1  2  2  3
  1  5  1  0
  1  6  1  0
  2  3  1  0
  2 19  1  0
  3  4  2  3
  3  7  1  0
  4  8  1  0
  4  9  1  0
 10 11  2  3
 10 16  1  0
 10 17  1  0
 11 12  1  0
 11 18  1  0
 12 13  1  0
 12 14  1  0
 13 20  1  0
 13 21  1  0
 13 22  1  0
 14 15  2  3
 14 23  1  0
 15 24  1  0
 15 25  1  0
M  RAD  1  12   2
M  END
>  <reaction>  (13) 
rxn_1188

>  <mol_properties>  (13) 
{"1": {"label": "*3", "atom_type": "Cd"}, "2": {"label": "*4", "atom_type": "Cd"}, "10": {"label": "*0", "atom_type": "Cd"}, "11": {"label": "*1", "atom_type": "Cs"}, "18": {"label": "*2", "atom_type": "H0"}}

>  <type>  (13) 
unop_9

>  <geom_source>  (13) 
Heuristics

$$$$

     RDKit          3D

 25 23  0  0  0  0  0  0  0  0999 V2000
   -1.2941    1.7210   -1.2383 C   0  0  0  0  0  0  0  0  0  0  0  0
   -0.0432    1.3050   -1.0705 C   0  0  0  0  0  0  0  0  0  0  0  0
    1.0990    2.1965   -0.9185 C   0  0  0  0  0  0  0  0  0  0  0  0
    2.3499    1.7805   -0.7507 C   0  0  0  0  0  0  0  0  0  0  0  0
   -2.1140    1.0233   -1.3474 H   0  0  0  0  0  0  0  0  0  0  0  0
   -1.5369    2.7774   -1.2718 H   0  0  0  0  0  0  0  0  0  0  0  0
    0.8871    3.2619   -0.9478 H   0  0  0  0  0  0  0  0  0  0  0  0
    3.1698    2.4782   -0.6416 H   0  0  0  0  0  0  0  0  0  0  0  0
    2.5927    0.7241   -0.7172 H   0  0  0  0  0  0  0  0  0  0  0  0
   -0.1161   -2.0054   -1.6724 C   0  0  0  0  0  0  0  0  0  0  0  0
   -0.1161   -2.0054   -0.3491 C   0  0  0  0  0  0  0  0  0  0  0  0
   -0.1161   -0.7747    0.5203 C   0  0  0  0  0  3  0  0  0  0  0  0
    1.1223   -0.7449    1.4119 C   0  0  0  0  0  0  0  0  0  0  0  0
   -1.4196   -0.7061    1.2768 C   0  0  0  0  0  0  0  0  0  0  0  0
   -1.5742   -0.7059    2.5917 C   0  0  0  0  0  0  0  0  0  0  0  0
   -0.1168   -2.9281   -2.2391 H   0  0  0  0  0  0  0  0  0  0  0  0
   -0.1143   -1.0797   -2.2381 H   0  0  0  0  0  0  0  0  0  0  0  0
   -0.1208   -2.9513    0.1885 H   0  0  0  0  0  0  0  0  0  0  0  0
   -0.0795    0.2697   -0.2785 H   0  0  0  0  0  0  0  0  0  0  0  0
    2.0251   -0.7533    0.8006 H   0  0  0  0  0  0  0  0  0  0  0  0
    1.1370    0.1509    2.0350 H   0  0  0  0  0  0  0  0  0  0  0  0
    1.1549   -1.6167    2.0695 H   0  0  0  0  0  0  0  0  0  0  0  0
   -2.3027   -0.6704    0.6442 H   0  0  0  0  0  0  0  0  0  0  0  0
   -0.7338   -0.7452    3.2743 H   0  0  0  0  0  0  0  0  0  0  0  0
   -2.5606   -0.6627    3.0359 H   0  0  0  0  0  0  0  0  0  0  0  0
  1  2  2  3
  1  5  1  0
  1  6  1  0
  2  3  1  0
  2 19  1  0
  3  4  2  3
  3  7  1  0
  4  8  1  0
  4  9  1  0
 10 11  2  3
 10 16  1  0
 10 17  1  0
 11 12  1  0
 11 18  1  0
 12 13  1  0
 12 14  1  0
 13 20  1  0
 13 21  1  0
 13 22  1  0
 14 15  2  3
 14 23  1  0
 15 24  1  0
 15 25  1  0
M  RAD  1  12   2
M  END
>  <reaction>  (14) 
rxn_1188

>  <mol_properties>  (14) 
{"1": {"label": "*3", "atom_type": "Cd"}, "2": {"label": "*4", "atom_type": "Cd"}, "10": {"label": "*0", "atom_type": "Cd"}, "11": {"label": "*1", "atom_type": "Cs"}, "18": {"label": "*2", "atom_type": "H0"}}

>  <type>  (14) 
unop_10

>  <geom_source>  (14) 
Heuristics

$$$$

     RDKit          3D

 25 23  0  0  0  0  0  0  0  0999 V2000
    0.5909    2.6939   -0.2257 C   0  0  0  0  0  0  0  0  0  0  0  0
    0.3104    1.5168   -0.7751 C   0  0  0  0  0  0  0  0  0  0  0  0
   -0.3141    1.3548   -2.0813 C   0  0  0  0  0  0  0  0  0  0  0  0
   -0.5947    0.1778   -2.6306 C   0  0  0  0  0  0  0  0  0  0  0  0
    1.0559    2.7688    0.7485 H   0  0  0  0  0  0  0  0  0  0  0  0
    0.3627    3.6229   -0.7366 H   0  0  0  0  0  0  0  0  0  0  0  0
   -0.5549    2.2685   -2.6180 H   0  0  0  0  0  0  0  0  0  0  0  0
   -1.0597    0.1029   -3.6048 H   0  0  0  0  0  0  0  0  0  0  0  0
   -0.3664   -0.7512   -2.1197 H   0  0  0  0  0  0  0  0  0  0  0  0
    0.2375   -1.7936   -1.3769 C   0  0  0  0  0  0  0  0  0  0  0  0
    0.2375   -1.7936   -0.0537 C   0  0  0  0  0  0  0  0  0  0  0  0
    0.2375   -0.5628    0.8157 C   0  0  0  0  0  3  0  0  0  0  0  0
    1.4758   -0.5331    1.7073 C   0  0  0  0  0  0  0  0  0  0  0  0
   -1.0660   -0.4943    1.5722 C   0  0  0  0  0  0  0  0  0  0  0  0
   -1.2207   -0.4940    2.8871 C   0  0  0  0  0  0  0  0  0  0  0  0
    0.2367   -2.7162   -1.9436 H   0  0  0  0  0  0  0  0  0  0  0  0
    0.2392   -0.8678   -1.9426 H   0  0  0  0  0  0  0  0  0  0  0  0
    0.2327   -2.7394    0.4839 H   0  0  0  0  0  0  0  0  0  0  0  0
    0.2741    0.4815    0.0169 H   0  0  0  0  0  0  0  0  0  0  0  0
    2.3786   -0.5414    1.0961 H   0  0  0  0  0  0  0  0  0  0  0  0
    1.4905    0.3627    2.3304 H   0  0  0  0  0  0  0  0  0  0  0  0
    1.5084   -1.4048    2.3649 H   0  0  0  0  0  0  0  0  0  0  0  0
   -1.9492   -0.4585    0.9397 H   0  0  0  0  0  0  0  0  0  0  0  0
   -0.3803   -0.5333    3.5697 H   0  0  0  0  0  0  0  0  0  0  0  0
   -2.2071   -0.4509    3.3314 H   0  0  0  0  0  0  0  0  0  0  0  0
  1  2  2  3
  1  5  1  0
  1  6  1  0
  2  3  1  0
  2 19  1  0
  3  4  2  3
  3  7  1  0
  4  8  1  0
  4  9  1  0
 10 11  2  3
 10 16  1  0
 10 17  1  0
 11 12  1  0
 11 18  1  0
 12 13  1  0
 12 14  1  0
 13 20  1  0
 13 21  1  0
 13 22  1  0
 14 15  2  3
 14 23  1  0
 15 24  1  0
 15 25  1  0
M  RAD  1  12   2
M  END
>  <reaction>  (15) 
rxn_1188

>  <mol_properties>  (15) 
{"1": {"label": "*3", "atom_type": "Cd"}, "2": {"label": "*4", "atom_type": "Cd"}, "10": {"label": "*0", "atom_type": "Cd"}, "11": {"label": "*1", "atom_type": "Cs"}, "18": {"label": "*2", "atom_type": "H0"}}

>  <type>  (15) 
unop_11

>  <geom_source>  (15) 
Heuristics

$$$$

     RDKit          3D

 25 23  0  0  0  0  0  0  0  0999 V2000
   -1.3746   -0.0447   -1.3761 C   0  0  0  0  0  0  0  0  0  0  0  0
   -1.1331    0.0135    0.1318 C   0  0  0  0  0  3  0  0  0  0  0  0
   -2.4161    0.1674    0.8959 C   0  0  0  0  0  0  0  0  0  0  0  0
   -0.1240    1.0634    0.5181 C   0  0  0  0  0  0  0  0  0  0  0  0
    1.9542   -0.2129   -1.1154 C   0  0  0  0  0  0  0  0  0  0  0  0
    1.3489   -0.6152    0.1734 C   0  0  0  0  0  0  0  0  0  0  0  0
    3.1100   -0.6754   -1.5952 C   0  0  0  0  0  0  0  0  0  0  0  0
    1.8780   -1.4934    1.0264 C   0  0  0  0  0  0  0  0  0  0  0  0
   -2.7679   -0.7307    1.8164 C   0  0  0  0  0  0  0  0  0  0  0  0
   -0.3235    2.3695    0.3073 C   0  0  0  0  0  0  0  0  0  0  0  0
   -1.8525    0.8904   -1.7385 H   0  0  0  0  0  0  0  0  0  0  0  0
   -2.0368   -0.9033   -1.6156 H   0  0  0  0  0  0  0  0  0  0  0  0
   -0.4102   -0.1901   -1.9071 H   0  0  0  0  0  0  0  0  0  0  0  0
    1.4118    0.5125   -1.7086 H   0  0  0  0  0  0  0  0  0  0  0  0
    0.2793   -0.0982    0.4741 H   0  0  0  0  0  0  0  0  0  0  0  0
   -3.0587    1.0229    0.7076 H   0  0  0  0  0  0  0  0  0  0  0  0
    0.7956    0.7398    0.9947 H   0  0  0  0  0  0  0  0  0  0  0  0
    3.7136   -1.3996   -1.0689 H   0  0  0  0  0  0  0  0  0  0  0  0
    3.4710   -0.3190   -2.5513 H   0  0  0  0  0  0  0  0  0  0  0  0
    2.8155   -1.9962    0.8427 H   0  0  0  0  0  0  0  0  0  0  0  0
    1.3549   -1.7203    1.9458 H   0  0  0  0  0  0  0  0  0  0  0  0
   -3.6941   -0.6085    2.3684 H   0  0  0  0  0  0  0  0  0  0  0  0
   -2.1383   -1.5905    2.0256 H   0  0  0  0  0  0  0  0  0  0  0  0
    0.4319    3.0884    0.6072 H   0  0  0  0  0  0  0  0  0  0  0  0
   -1.2349    2.7303   -0.1589 H   0  0  0  0  0  0  0  0  0  0  0  0
  1  2  1  0
  1 11  1  0
  1 12  1  0
  1 13  1  0
  2  3  1  0
  2  4  1  0
  3  9  2  3
  3 16  1  0
  4 10  2  3
  4 17  1  0
  5  7  2  3
  5  6  1  0
  5 14  1  0
  6  8  2  3
  6 15  1  0
  7 18  1  0
  7 19  1  0
  8 20  1  0
  8 21  1  0
  9 22  1  0
  9 23  1  0
 10 24  1  0
 10 25  1  0
M  RAD  1   2   2
M  END
>  <reaction>  (16) 
rxn_1188

>  <mol_properties>  (16) 
{"1": {"label": "*3", "atom_type": "Cd"}, "2": {"label": "*4", "atom_type": "Cd"}, "10": {"label": "*0", "atom_type": "Cd"}, "11": {"label": "*1", "atom_type": "Cs"}, "18": {"label": "*2", "atom_type": "H0"}}

>  <type>  (16) 
unop_12

>  <geom_source>  (16) 
AutoTST

$$$$

     RDKit          3D

 25 23  0  0  0  0  0  0  0  0999 V2000
    1.0574    2.4832   -0.3134 C   0  0  0  0  0  0  0  0  0  0  0  0
    0.4071    1.4564   -0.8507 C   0  0  0  0  0  0  0  0  0  0  0  0
   -0.6991    1.5928   -1.7889 C   0  0  0  0  0  0  0  0  0  0  0  0
   -1.3494    0.5659   -2.3262 C   0  0  0  0  0  0  0  0  0  0  0  0
    1.8747    2.3366    0.3804 H   0  0  0  0  0  0  0  0  0  0  0  0
    0.7903    3.5067   -0.5527 H   0  0  0  0  0  0  0  0  0  0  0  0
   -0.9899    2.6071   -2.0483 H   0  0  0  0  0  0  0  0  0  0  0  0
   -2.1667    0.7126   -3.0201 H   0  0  0  0  0  0  0  0  0  0  0  0
   -1.0824   -0.4576   -2.0870 H   0  0  0  0  0  0  0  0  0  0  0  0
    0.3342   -1.8540   -1.4526 C   0  0  0  0  0  0  0  0  0  0  0  0
    0.3342   -1.8540   -0.1294 C   0  0  0  0  0  0  0  0  0  0  0  0
    0.3342   -0.6232    0.7400 C   0  0  0  0  0  3  0  0  0  0  0  0
    1.5725   -0.5935    1.6316 C   0  0  0  0  0  0  0  0  0  0  0  0
   -0.9693   -0.5547    1.4966 C   0  0  0  0  0  0  0  0  0  0  0  0
   -1.1240   -0.5544    2.8115 C   0  0  0  0  0  0  0  0  0  0  0  0
    0.3334   -2.7767   -2.0193 H   0  0  0  0  0  0  0  0  0  0  0  0
    0.3360   -0.9283   -2.0183 H   0  0  0  0  0  0  0  0  0  0  0  0
    0.3294   -2.7999    0.4083 H   0  0  0  0  0  0  0  0  0  0  0  0
    0.3708    0.4211   -0.0588 H   0  0  0  0  0  0  0  0  0  0  0  0
    2.4753   -0.6018    1.0204 H   0  0  0  0  0  0  0  0  0  0  0  0
    1.5872    0.3023    2.2547 H   0  0  0  0  0  0  0  0  0  0  0  0
    1.6051   -1.4652    2.2893 H   0  0  0  0  0  0  0  0  0  0  0  0
   -1.8525   -0.5190    0.8640 H   0  0  0  0  0  0  0  0  0  0  0  0
   -0.2836   -0.5938    3.4940 H   0  0  0  0  0  0  0  0  0  0  0  0
   -2.1104   -0.5113    3.2557 H   0  0  0  0  0  0  0  0  0  0  0  0
  1  2  2  3
  1  5  1  0
  1  6  1  0
  2  3  1  0
  2 19  1  0
  3  4  2  3
  3  7  1  0
  4  8  1  0
  4  9  1  0
 10 11  2  3
 10 16  1  0
 10 17  1  0
 11 12  1  0
 11 18  1  0
 12 13  1  0
 12 14  1  0
 13 20  1  0
 13 21  1  0
 13 22  1  0
 14 15  2  3
 14 23  1  0
 15 24  1  0
 15 25  1  0
M  RAD  1  12   2
M  END
>  <reaction>  (17) 
rxn_1188

>  <mol_properties>  (17) 
{"1": {"label": "*3", "atom_type": "Cd"}, "2": {"label": "*4", "atom_type": "Cd"}, "10": {"label": "*0", "atom_type": "Cd"}, "11": {"label": "*1", "atom_type": "Cs"}, "18": {"label": "*2", "atom_type": "H0"}}

>  <type>  (17) 
unop_13

>  <geom_source>  (17) 
gaussian_log

$$$$
