
     RDKit          3D

 13 12  0  0  0  0  0  0  0  0999 V2000
    2.2975   -0.6134    0.7685 C   0  0  0  0  0  0  0  0  0  0  0  0
    1.1676   -0.5248    0.3802 C   0  0  0  0  0  0  0  0  0  0  0  0
   -0.2109   -0.3926   -0.0948 C   0  0  0  0  0  0  0  0  0  0  0  0
   -0.2501    0.2584   -1.4808 C   0  0  0  0  0  0  0  0  0  0  0  0
   -1.0633    0.3831    0.9141 C   0  0  0  0  0  0  0  0  0  0  0  0
    3.2999   -0.6974    1.1133 H   0  0  0  0  0  0  0  0  0  0  0  0
   -0.6209   -1.4038   -0.1814 H   0  0  0  0  0  0  0  0  0  0  0  0
    0.3402   -0.3102   -2.1992 H   0  0  0  0  0  0  0  0  0  0  0  0
    0.1511    1.2724   -1.4369 H   0  0  0  0  0  0  0  0  0  0  0  0
   -1.2791    0.3109   -1.8407 H   0  0  0  0  0  0  0  0  0  0  0  0
   -0.6861    1.4008    1.0287 H   0  0  0  0  0  0  0  0  0  0  0  0
   -1.0492   -0.0971    1.8924 H   0  0  0  0  0  0  0  0  0  0  0  0
   -2.0971    0.4363    0.5680 H   0  0  0  0  0  0  0  0  0  0  0  0
  1  2  3  0
  1  6  1  0
  2  3  1  0
  3  4  1  0
  3  5  1  0
  3  7  1  0
  4  8  1  0
  4  9  1  0
  4 10  1  0
  5 11  1  0
  5 12  1  0
  5 13  1  0
M  END
>  <reaction>  (1) 
rxn_1319

>  <mol_properties>  (1) 
{"2": {"label": "donator", "atom_type": "Cs"}, "6": {"label": "d_hydrogen", "atom_type": "H0"}}

>  <type>  (1) 
r1h

$$$$

     RDKit          3D

  8  7  0  0  0  0  0  0  0  0999 V2000
    1.4038   -0.4003    0.0140 C   0  0  0  0  0  0  0  0  0  0  0  0
    0.2804    0.0563    0.4920 C   0  0  0  0  0  3  0  0  0  0  0  0
   -1.0935    0.3323    0.0625 C   0  0  0  0  0  0  0  0  0  0  0  0
    1.4898   -0.7154   -1.0285 H   0  0  0  0  0  0  0  0  0  0  0  0
    2.2990   -0.4891    0.6210 H   0  0  0  0  0  0  0  0  0  0  0  0
   -1.3399    1.3883    0.1900 H   0  0  0  0  0  0  0  0  0  0  0  0
   -1.2285    0.0762   -0.9967 H   0  0  0  0  0  0  0  0  0  0  0  0
   -1.8111   -0.2482    0.6457 H   0  0  0  0  0  0  0  0  0  0  0  0
  1  2  2  3
  1  4  1  0
  1  5  1  0
  2  3  1  0
  3  6  1  0
  3  7  1  0
  3  8  1  0
M  RAD  1   2   2
M  END
>  <reaction>  (2) 
rxn_1319

>  <mol_properties>  (2) 
{"1": {"label": "acceptor", "atom_type": "Cd"}}

>  <type>  (2) 
r2

$$$$

     RDKit          3D

  9  8  0  0  0  0  0  0  0  0999 V2000
    1.1303   -0.2933   -0.7510 C   0  0  0  0  0  0  0  0  0  0  0  0
    0.2866    0.4560   -0.0588 C   0  0  0  0  0  0  0  0  0  0  0  0
   -0.9719   -0.0331    0.5823 C   0  0  0  0  0  0  0  0  0  0  0  0
    2.0274    0.1230   -1.1916 H   0  0  0  0  0  0  0  0  0  0  0  0
    0.9532   -1.3530   -0.9023 H   0  0  0  0  0  0  0  0  0  0  0  0
    0.5065    1.5132    0.0659 H   0  0  0  0  0  0  0  0  0  0  0  0
   -0.9526    0.1426    1.6610 H   0  0  0  0  0  0  0  0  0  0  0  0
   -1.1182   -1.1002    0.4106 H   0  0  0  0  0  0  0  0  0  0  0  0
   -1.8412    0.5010    0.1901 H   0  0  0  0  0  0  0  0  0  0  0  0
  1  2  2  3
  1  4  1  0
  1  5  1  0
  2  3  1  0
  2  6  1  0
  3  7  1  0
  3  8  1  0
  3  9  1  0
M  END
>  <reaction>  (3) 
rxn_1319

>  <mol_properties>  (3) 
{"0": {"label": "a_hydrogen", "atom_type": "H0"}, "2": {"label": "acceptor", "atom_type": "Cd"}}

>  <type>  (3) 
r2h

$$$$

     RDKit          3D

 21 19  0  0  0  0  0  0  0  0999 V2000
   -0.0383    0.7894   -2.7281 C   0  0  0  0  0  0  0  0  0  0  0  0
   -0.0350    0.8877   -1.5309 C   0  0  0  0  0  0  0  0  0  0  0  0
   -0.0300    0.9705   -0.0919 C   0  0  0  0  0  0  0  0  0  0  0  0
   -1.3185    1.5297    0.4900 C   0  0  0  0  0  0  0  0  0  0  0  0
    1.2302    1.6027    0.4770 C   0  0  0  0  0  0  0  0  0  0  0  0
   -0.0414    0.7111   -3.7884 H   0  0  0  0  0  0  0  0  0  0  0  0
    0.0057   -0.2094    0.2971 H   0  0  0  0  0  0  0  0  0  0  0  0
   -2.1855    0.9882    0.1117 H   0  0  0  0  0  0  0  0  0  0  0  0
   -1.4362    2.5856    0.2327 H   0  0  0  0  0  0  0  0  0  0  0  0
   -1.3046    1.4456    1.5787 H   0  0  0  0  0  0  0  0  0  0  0  0
    1.2847    2.6635    0.2188 H   0  0  0  0  0  0  0  0  0  0  0  0
    2.1229    1.1116    0.0897 H   0  0  0  0  0  0  0  0  0  0  0  0
    1.2323    1.5182    1.5657 H   0  0  0  0  0  0  0  0  0  0  0  0
    0.0673   -2.4553   -0.2171 C   0  0  0  0  0  0  0  0  0  0  0  0
    0.0479   -1.5979    0.7746 C   0  0  0  0  0  3  0  0  0  0  0  0
    0.0596   -1.7410    2.2457 C   0  0  0  0  0  0  0  0  0  0  0  0
    0.0989   -3.5304   -0.0412 H   0  0  0  0  0  0  0  0  0  0  0  0
    0.0524   -2.1233   -1.2501 H   0  0  0  0  0  0  0  0  0  0  0  0
   -0.8315   -1.2902    2.6887 H   0  0  0  0  0  0  0  0  0  0  0  0
    0.0912   -2.7959    2.5384 H   0  0  0  0  0  0  0  0  0  0  0  0
    0.9280   -1.2399    2.6796 H   0  0  0  0  0  0  0  0  0  0  0  0
  1  2  3  0
  1  6  1  0
  2  3  1  0
  3  4  1  0
  3  5  1  0
  3  7  1  0
  4  8  1  0
  4  9  1  0
  4 10  1  0
  5 11  1  0
  5 12  1  0
  5 13  1  0
 14 15  2  3
 14 17  1  0
 14 18  1  0
 15 16  1  0
 16 19  1  0
 16 20  1  0
 16 21  1  0
M  RAD  1  15   2
M  END
>  <reaction>  (4) 
rxn_1319

>  <mol_properties>  (4) 
{"1": {"label": "*0", "atom_type": "Ct"}, "2": {"label": "*1", "atom_type": "Cs"}, "6": {"label": "*2", "atom_type": "H0"}, "13": {"label": "*4", "atom_type": "Cd"}, "14": {"label": "*3", "atom_type": "Cd"}}

>  <type>  (4) 
ts

$$$$

     RDKit          3D

 21 19  0  0  0  0  0  0  0  0999 V2000
    0.0724    0.8342   -2.7758 C   0  0  0  0  0  0  0  0  0  0  0  0
    0.0724    0.8342   -1.5777 C   0  0  0  0  0  0  0  0  0  0  0  0
    0.0724    0.8582   -0.1139 C   0  0  0  0  0  3  0  0  0  0  0  0
   -1.1937    1.5346    0.4204 C   0  0  0  0  0  0  0  0  0  0  0  0
    1.3386    1.5346    0.4204 C   0  0  0  0  0  0  0  0  0  0  0  0
    0.0724    0.8342   -3.8391 H   0  0  0  0  0  0  0  0  0  0  0  0
    0.0724   -0.3905    0.2940 H   0  0  0  0  0  0  0  0  0  0  0  0
   -2.0907    1.0353    0.0545 H   0  0  0  0  0  0  0  0  0  0  0  0
   -1.2310    2.5781    0.1029 H   0  0  0  0  0  0  0  0  0  0  0  0
   -1.2010    1.5066    1.5115 H   0  0  0  0  0  0  0  0  0  0  0  0
    1.3759    2.5781    0.1029 H   0  0  0  0  0  0  0  0  0  0  0  0
    2.2356    1.0352    0.0545 H   0  0  0  0  0  0  0  0  0  0  0  0
    1.3459    1.5066    1.5115 H   0  0  0  0  0  0  0  0  0  0  0  0
    1.0771   -2.0564    1.4483 C   0  0  0  0  0  0  0  0  0  0  0  0
    0.0724   -1.6304    0.6990 C   0  0  0  0  0  0  0  0  0  0  0  0
   -1.3716   -1.9265    0.9467 C   0  0  0  0  0  0  0  0  0  0  0  0
    0.9077   -2.6724    2.3252 H   0  0  0  0  0  0  0  0  0  0  0  0
    2.1042   -1.8061    1.2143 H   0  0  0  0  0  0  0  0  0  0  0  0
   -1.8138   -2.4470    0.0933 H   0  0  0  0  0  0  0  0  0  0  0  0
   -1.5050   -2.5465    1.8340 H   0  0  0  0  0  0  0  0  0  0  0  0
   -1.9401   -1.0029    1.0833 H   0  0  0  0  0  0  0  0  0  0  0  0
  1  2  3  0
  1  6  1  0
  2  3  1  0
  3  4  1  0
  3  5  1  0
  4  8  1  0
  4  9  1  0
  4 10  1  0
  5 11  1  0
  5 12  1  0
  5 13  1  0
  7 15  1  0
 14 15  2  3
 14 17  1  0
 14 18  1  0
 15 16  1  0
 16 19  1  0
 16 20  1  0
 16 21  1  0
M  RAD  1   3   2
M  END
>  <reaction>  (5) 
rxn_1319

>  <mol_properties>  (5) 
{"1": {"label": "*0", "atom_type": "Ct"}, "2": {"label": "*1", "atom_type": "Cs"}, "6": {"label": "*2", "atom_type": "H0"}, "13": {"label": "*4", "atom_type": "Cd"}, "14": {"label": "*3", "atom_type": "Cd"}}

>  <type>  (5) 
unop_1

>  <geom_source>  (5) 
Heuristics

$$$$

     RDKit          3D

 21 19  0  0  0  0  0  0  0  0999 V2000
   -0.0305    0.8821   -2.7446 C   0  0  0  0  0  0  0  0  0  0  0  0
   -0.0305    0.8821   -1.5465 C   0  0  0  0  0  0  0  0  0  0  0  0
   -0.0305    0.9060   -0.0827 C   0  0  0  0  0  3  0  0  0  0  0  0
   -1.2966    1.5825    0.4517 C   0  0  0  0  0  0  0  0  0  0  0  0
    1.2356    1.5825    0.4517 C   0  0  0  0  0  0  0  0  0  0  0  0
   -0.0305    0.8821   -3.8079 H   0  0  0  0  0  0  0  0  0  0  0  0
   -0.0305   -0.3426    0.3252 H   0  0  0  0  0  0  0  0  0  0  0  0
   -2.1937    1.0832    0.0857 H   0  0  0  0  0  0  0  0  0  0  0  0
   -1.3340    2.6260    0.1341 H   0  0  0  0  0  0  0  0  0  0  0  0
   -1.3040    1.5545    1.5427 H   0  0  0  0  0  0  0  0  0  0  0  0
    1.2730    2.6260    0.1341 H   0  0  0  0  0  0  0  0  0  0  0  0
    2.1327    1.0831    0.0857 H   0  0  0  0  0  0  0  0  0  0  0  0
    1.2429    1.5545    1.5427 H   0  0  0  0  0  0  0  0  0  0  0  0
    0.5495   -2.5006   -0.0268 C   0  0  0  0  0  0  0  0  0  0  0  0
   -0.0306   -1.5826    0.7302 C   0  0  0  0  0  0  0  0  0  0  0  0
   -0.3649   -1.7467    2.1778 C   0  0  0  0  0  0  0  0  0  0  0  0
    0.8299   -3.4694    0.3730 H   0  0  0  0  0  0  0  0  0  0  0  0
    0.7655   -2.3189   -1.0722 H   0  0  0  0  0  0  0  0  0  0  0  0
   -1.4380   -1.6240    2.3454 H   0  0  0  0  0  0  0  0  0  0  0  0
   -0.0699   -2.7301    2.5461 H   0  0  0  0  0  0  0  0  0  0  0  0
    0.1387   -0.9876    2.7818 H   0  0  0  0  0  0  0  0  0  0  0  0
  1  2  3  0
  1  6  1  0
  2  3  1  0
  3  4  1  0
  3  5  1  0
  4  8  1  0
  4  9  1  0
  4 10  1  0
  5 11  1  0
  5 12  1  0
  5 13  1  0
  7 15  1  0
 14 15  2  3
 14 17  1  0
 14 18  1  0
 15 16  1  0
 16 19  1  0
 16 20  1  0
 16 21  1  0
M  RAD  1   3   2
M  END
>  <reaction>  (6) 
rxn_1319

>  <mol_properties>  (6) 
{"1": {"label": "*0", "atom_type": "Ct"}, "2": {"label": "*1", "atom_type": "Cs"}, "6": {"label": "*2", "atom_type": "H0"}, "13": {"label": "*4", "atom_type": "Cd"}, "14": {"label": "*3", "atom_type": "Cd"}}

>  <type>  (6) 
unop_2

>  <geom_source>  (6) 
Heuristics

$$$$

     RDKit          3D

 21 19  0  0  0  0  0  0  0  0999 V2000
    0.0978    0.8704   -2.7159 C   0  0  0  0  0  0  0  0  0  0  0  0
    0.0978    0.8704   -1.5178 C   0  0  0  0  0  0  0  0  0  0  0  0
    0.0978    0.8944   -0.0540 C   0  0  0  0  0  3  0  0  0  0  0  0
   -1.1684    1.5709    0.4803 C   0  0  0  0  0  0  0  0  0  0  0  0
    1.3639    1.5708    0.4803 C   0  0  0  0  0  0  0  0  0  0  0  0
    0.0978    0.8704   -3.7792 H   0  0  0  0  0  0  0  0  0  0  0  0
    0.0977   -0.3543    0.3539 H   0  0  0  0  0  0  0  0  0  0  0  0
   -2.0654    1.0716    0.1144 H   0  0  0  0  0  0  0  0  0  0  0  0
   -1.2057    2.6144    0.1628 H   0  0  0  0  0  0  0  0  0  0  0  0
   -1.1757    1.5429    1.5714 H   0  0  0  0  0  0  0  0  0  0  0  0
    1.4013    2.6143    0.1628 H   0  0  0  0  0  0  0  0  0  0  0  0
    2.2609    1.0715    0.1144 H   0  0  0  0  0  0  0  0  0  0  0  0
    1.3712    1.5428    1.5714 H   0  0  0  0  0  0  0  0  0  0  0  0
    0.6778   -1.8883    1.9119 C   0  0  0  0  0  0  0  0  0  0  0  0
    0.0977   -1.5942    0.7589 C   0  0  0  0  0  0  0  0  0  0  0  0
   -1.1221   -2.2643    0.2137 C   0  0  0  0  0  0  0  0  0  0  0  0
    0.2876   -2.6663    2.5596 H   0  0  0  0  0  0  0  0  0  0  0  0
    1.5622   -1.3638    2.2511 H   0  0  0  0  0  0  0  0  0  0  0  0
   -0.9131   -2.7231   -0.7561 H   0  0  0  0  0  0  0  0  0  0  0  0
   -1.4867   -3.0393    0.8890 H   0  0  0  0  0  0  0  0  0  0  0  0
   -1.9254   -1.5403    0.0548 H   0  0  0  0  0  0  0  0  0  0  0  0
  1  2  3  0
  1  6  1  0
  2  3  1  0
  3  4  1  0
  3  5  1  0
  4  8  1  0
  4  9  1  0
  4 10  1  0
  5 11  1  0
  5 12  1  0
  5 13  1  0
  7 15  1  0
 14 15  2  3
 14 17  1  0
 14 18  1  0
 15 16  1  0
 16 19  1  0
 16 20  1  0
 16 21  1  0
M  RAD  1   3   2
M  END
>  <reaction>  (7) 
rxn_1319

>  <mol_properties>  (7) 
{"1": {"label": "*0", "atom_type": "Ct"}, "2": {"label": "*1", "atom_type": "Cs"}, "6": {"label": "*2", "atom_type": "H0"}, "13": {"label": "*4", "atom_type": "Cd"}, "14": {"label": "*3", "atom_type": "Cd"}}

>  <type>  (7) 
unop_3

>  <geom_source>  (7) 
Heuristics

$$$$

     RDKit          3D

 21 19  0  0  0  0  0  0  0  0999 V2000
    0.0265    0.8549   -2.7756 C   0  0  0  0  0  0  0  0  0  0  0  0
    0.0265    0.8549   -1.5775 C   0  0  0  0  0  0  0  0  0  0  0  0
    0.0265    0.8788   -0.1137 C   0  0  0  0  0  3  0  0  0  0  0  0
   -1.2396    1.5553    0.4206 C   0  0  0  0  0  0  0  0  0  0  0  0
    1.2927    1.5552    0.4206 C   0  0  0  0  0  0  0  0  0  0  0  0
    0.0265    0.8549   -3.8389 H   0  0  0  0  0  0  0  0  0  0  0  0
    0.0265   -0.3698    0.2942 H   0  0  0  0  0  0  0  0  0  0  0  0
   -2.1366    1.0560    0.0547 H   0  0  0  0  0  0  0  0  0  0  0  0
   -1.2769    2.5988    0.1031 H   0  0  0  0  0  0  0  0  0  0  0  0
   -1.2469    1.5273    1.5117 H   0  0  0  0  0  0  0  0  0  0  0  0
    1.3300    2.5988    0.1031 H   0  0  0  0  0  0  0  0  0  0  0  0
    2.1897    1.0559    0.0547 H   0  0  0  0  0  0  0  0  0  0  0  0
    1.3000    1.5272    1.5117 H   0  0  0  0  0  0  0  0  0  0  0  0
   -0.9782   -2.3959    0.3458 C   0  0  0  0  0  0  0  0  0  0  0  0
    0.0265   -1.6098    0.6992 C   0  0  0  0  0  0  0  0  0  0  0  0
    0.7876   -1.7100    1.9817 C   0  0  0  0  0  0  0  0  0  0  0  0
   -1.3260   -3.1950    0.9920 H   0  0  0  0  0  0  0  0  0  0  0  0
   -1.4897   -2.2708   -0.6003 H   0  0  0  0  0  0  0  0  0  0  0  0
    0.7171   -0.7787    2.5496 H   0  0  0  0  0  0  0  0  0  0  0  0
    0.4121   -2.5221    2.6057 H   0  0  0  0  0  0  0  0  0  0  0  0
    1.8495   -1.8850    1.7911 H   0  0  0  0  0  0  0  0  0  0  0  0
  1  2  3  0
  1  6  1  0
  2  3  1  0
  3  4  1  0
  3  5  1  0
  4  8  1  0
  4  9  1  0
  4 10  1  0
  5 11  1  0
  5 12  1  0
  5 13  1  0
  7 15  1  0
 14 15  2  3
 14 17  1  0
 14 18  1  0
 15 16  1  0
 16 19  1  0
 16 20  1  0
 16 21  1  0
M  RAD  1   3   2
M  END
>  <reaction>  (8) 
rxn_1319

>  <mol_properties>  (8) 
{"1": {"label": "*0", "atom_type": "Ct"}, "2": {"label": "*1", "atom_type": "Cs"}, "6": {"label": "*2", "atom_type": "H0"}, "13": {"label": "*4", "atom_type": "Cd"}, "14": {"label": "*3", "atom_type": "Cd"}}

>  <type>  (8) 
unop_4

>  <geom_source>  (8) 
Heuristics

$$$$

     RDKit          3D

 21 19  0  0  0  0  0  0  0  0999 V2000
    0.0000    0.9176   -2.6596 C   0  0  0  0  0  0  0  0  0  0  0  0
    0.0000    0.9176   -1.4616 C   0  0  0  0  0  0  0  0  0  0  0  0
    0.0000    0.9416    0.0023 C   0  0  0  0  0  3  0  0  0  0  0  0
   -1.2661    1.6180    0.5366 C   0  0  0  0  0  0  0  0  0  0  0  0
    1.2661    1.6180    0.5366 C   0  0  0  0  0  0  0  0  0  0  0  0
    0.0000    0.9176   -3.7230 H   0  0  0  0  0  0  0  0  0  0  0  0
   -0.0000   -0.3071    0.4101 H   0  0  0  0  0  0  0  0  0  0  0  0
   -2.1632    1.1187    0.1707 H   0  0  0  0  0  0  0  0  0  0  0  0
   -1.3034    2.6615    0.2191 H   0  0  0  0  0  0  0  0  0  0  0  0
   -1.2734    1.5900    1.6277 H   0  0  0  0  0  0  0  0  0  0  0  0
    1.3035    2.6615    0.2191 H   0  0  0  0  0  0  0  0  0  0  0  0
    2.1632    1.1187    0.1707 H   0  0  0  0  0  0  0  0  0  0  0  0
    1.2735    1.5900    1.6277 H   0  0  0  0  0  0  0  0  0  0  0  0
   -0.0000   -1.7928    2.1159 C   0  0  0  0  0  0  0  0  0  0  0  0
   -0.0000   -1.5470    0.8152 C   0  0  0  0  0  0  0  0  0  0  0  0
   -0.0000   -2.5882   -0.2573 C   0  0  0  0  0  0  0  0  0  0  0  0
   -0.0000   -2.8074    2.5002 H   0  0  0  0  0  0  0  0  0  0  0  0
   -0.0000   -0.9913    2.8439 H   0  0  0  0  0  0  0  0  0  0  0  0
    0.8777   -2.4841   -0.9004 H   0  0  0  0  0  0  0  0  0  0  0  0
   -0.0001   -3.5943    0.1638 H   0  0  0  0  0  0  0  0  0  0  0  0
   -0.8777   -2.4840   -0.9004 H   0  0  0  0  0  0  0  0  0  0  0  0
  1  2  3  0
  1  6  1  0
  2  3  1  0
  3  4  1  0
  3  5  1  0
  4  8  1  0
  4  9  1  0
  4 10  1  0
  5 11  1  0
  5 12  1  0
  5 13  1  0
  7 15  1  0
 14 15  2  3
 14 17  1  0
 14 18  1  0
 15 16  1  0
 16 19  1  0
 16 20  1  0
 16 21  1  0
M  RAD  1   3   2
M  END
>  <reaction>  (9) 
rxn_1319

>  <mol_properties>  (9) 
{"1": {"label": "*0", "atom_type": "Ct"}, "2": {"label": "*1", "atom_type": "Cs"}, "6": {"label": "*2", "atom_type": "H0"}, "13": {"label": "*4", "atom_type": "Cd"}, "14": {"label": "*3", "atom_type": "Cd"}}

>  <type>  (9) 
unop_5

>  <geom_source>  (9) 
Heuristics

$$$$

     RDKit          3D

 21 19  0  0  0  0  0  0  0  0999 V2000
   -0.0155    0.8336   -2.7933 C   0  0  0  0  0  0  0  0  0  0  0  0
   -0.0155    0.8336   -1.5952 C   0  0  0  0  0  0  0  0  0  0  0  0
   -0.0155    0.8575   -0.1314 C   0  0  0  0  0  3  0  0  0  0  0  0
   -1.2816    1.5340    0.4029 C   0  0  0  0  0  0  0  0  0  0  0  0
    1.2506    1.5340    0.4029 C   0  0  0  0  0  0  0  0  0  0  0  0
   -0.0155    0.8336   -3.8566 H   0  0  0  0  0  0  0  0  0  0  0  0
   -0.0155   -0.3911    0.2765 H   0  0  0  0  0  0  0  0  0  0  0  0
   -2.1787    1.0347    0.0370 H   0  0  0  0  0  0  0  0  0  0  0  0
   -1.3189    2.5775    0.0854 H   0  0  0  0  0  0  0  0  0  0  0  0
   -1.2889    1.5060    1.4940 H   0  0  0  0  0  0  0  0  0  0  0  0
    1.2880    2.5775    0.0854 H   0  0  0  0  0  0  0  0  0  0  0  0
    2.1477    1.0346    0.0370 H   0  0  0  0  0  0  0  0  0  0  0  0
    1.2580    1.5060    1.4940 H   0  0  0  0  0  0  0  0  0  0  0  0
   -1.1757   -2.2371    0.8795 C   0  0  0  0  0  0  0  0  0  0  0  0
   -0.0155   -1.6311    0.6815 C   0  0  0  0  0  0  0  0  0  0  0  0
    1.1816   -1.7536    1.5680 C   0  0  0  0  0  0  0  0  0  0  0  0
   -1.3362   -2.8873    1.7330 H   0  0  0  0  0  0  0  0  0  0  0  0
   -2.0066   -2.1065    0.1977 H   0  0  0  0  0  0  0  0  0  0  0  0
    1.4803   -0.7761    1.9556 H   0  0  0  0  0  0  0  0  0  0  0  0
    0.9853   -2.4133    2.4142 H   0  0  0  0  0  0  0  0  0  0  0  0
    2.0369   -2.1492    1.0142 H   0  0  0  0  0  0  0  0  0  0  0  0
  1  2  3  0
  1  6  1  0
  2  3  1  0
  3  4  1  0
  3  5  1  0
  4  8  1  0
  4  9  1  0
  4 10  1  0
  5 11  1  0
  5 12  1  0
  5 13  1  0
  7 15  1  0
 14 15  2  3
 14 17  1  0
 14 18  1  0
 15 16  1  0
 16 19  1  0
 16 20  1  0
 16 21  1  0
M  RAD  1   3   2
M  END
>  <reaction>  (10) 
rxn_1319

>  <mol_properties>  (10) 
{"1": {"label": "*0", "atom_type": "Ct"}, "2": {"label": "*1", "atom_type": "Cs"}, "6": {"label": "*2", "atom_type": "H0"}, "13": {"label": "*4", "atom_type": "Cd"}, "14": {"label": "*3", "atom_type": "Cd"}}

>  <type>  (10) 
unop_6

>  <geom_source>  (10) 
Heuristics

$$$$

     RDKit          3D

 21 19  0  0  0  0  0  0  0  0999 V2000
   -0.0724    0.8342   -2.7758 C   0  0  0  0  0  0  0  0  0  0  0  0
   -0.0724    0.8342   -1.5777 C   0  0  0  0  0  0  0  0  0  0  0  0
   -0.0724    0.8582   -0.1139 C   0  0  0  0  0  3  0  0  0  0  0  0
   -1.3385    1.5346    0.4204 C   0  0  0  0  0  0  0  0  0  0  0  0
    1.1937    1.5346    0.4204 C   0  0  0  0  0  0  0  0  0  0  0  0
   -0.0724    0.8342   -3.8391 H   0  0  0  0  0  0  0  0  0  0  0  0
   -0.0724   -0.3905    0.2940 H   0  0  0  0  0  0  0  0  0  0  0  0
   -2.2356    1.0353    0.0545 H   0  0  0  0  0  0  0  0  0  0  0  0
   -1.3759    2.5781    0.1029 H   0  0  0  0  0  0  0  0  0  0  0  0
   -1.3459    1.5066    1.5115 H   0  0  0  0  0  0  0  0  0  0  0  0
    1.2311    2.5781    0.1029 H   0  0  0  0  0  0  0  0  0  0  0  0
    2.0908    1.0353    0.0545 H   0  0  0  0  0  0  0  0  0  0  0  0
    1.2011    1.5066    1.5115 H   0  0  0  0  0  0  0  0  0  0  0  0
   -1.0771   -2.0563    1.4483 C   0  0  0  0  0  0  0  0  0  0  0  0
   -0.0724   -1.6304    0.6990 C   0  0  0  0  0  0  0  0  0  0  0  0
    1.3716   -1.9265    0.9467 C   0  0  0  0  0  0  0  0  0  0  0  0
   -0.9077   -2.6723    2.3252 H   0  0  0  0  0  0  0  0  0  0  0  0
   -2.1042   -1.8060    1.2143 H   0  0  0  0  0  0  0  0  0  0  0  0
    1.9401   -1.0030    1.0833 H   0  0  0  0  0  0  0  0  0  0  0  0
    1.5049   -2.5466    1.8340 H   0  0  0  0  0  0  0  0  0  0  0  0
    1.8138   -2.4471    0.0933 H   0  0  0  0  0  0  0  0  0  0  0  0
  1  2  3  0
  1  6  1  0
  2  3  1  0
  3  4  1  0
  3  5  1  0
  4  8  1  0
  4  9  1  0
  4 10  1  0
  5 11  1  0
  5 12  1  0
  5 13  1  0
  7 15  1  0
 14 15  2  3
 14 17  1  0
 14 18  1  0
 15 16  1  0
 16 19  1  0
 16 20  1  0
 16 21  1  0
M  RAD  1   3   2
M  END
>  <reaction>  (11) 
rxn_1319

>  <mol_properties>  (11) 
{"1": {"label": "*0", "atom_type": "Ct"}, "2": {"label": "*1", "atom_type": "Cs"}, "6": {"label": "*2", "atom_type": "H0"}, "13": {"label": "*4", "atom_type": "Cd"}, "14": {"label": "*3", "atom_type": "Cd"}}

>  <type>  (11) 
unop_7

>  <geom_source>  (11) 
Heuristics

$$$$

     RDKit          3D

 21 19  0  0  0  0  0  0  0  0999 V2000
    0.0155    0.8336   -2.7933 C   0  0  0  0  0  0  0  0  0  0  0  0
    0.0155    0.8336   -1.5952 C   0  0  0  0  0  0  0  0  0  0  0  0
    0.0155    0.8575   -0.1314 C   0  0  0  0  0  3  0  0  0  0  0  0
   -1.2506    1.5340    0.4029 C   0  0  0  0  0  0  0  0  0  0  0  0
    1.2816    1.5340    0.4029 C   0  0  0  0  0  0  0  0  0  0  0  0
    0.0155    0.8336   -3.8566 H   0  0  0  0  0  0  0  0  0  0  0  0
    0.0155   -0.3911    0.2765 H   0  0  0  0  0  0  0  0  0  0  0  0
   -2.1476    1.0347    0.0370 H   0  0  0  0  0  0  0  0  0  0  0  0
   -1.2879    2.5775    0.0854 H   0  0  0  0  0  0  0  0  0  0  0  0
   -1.2579    1.5060    1.4940 H   0  0  0  0  0  0  0  0  0  0  0  0
    1.3190    2.5775    0.0854 H   0  0  0  0  0  0  0  0  0  0  0  0
    2.1787    1.0346    0.0370 H   0  0  0  0  0  0  0  0  0  0  0  0
    1.2890    1.5059    1.4940 H   0  0  0  0  0  0  0  0  0  0  0  0
    1.1756   -2.2371    0.8795 C   0  0  0  0  0  0  0  0  0  0  0  0
    0.0155   -1.6311    0.6815 C   0  0  0  0  0  0  0  0  0  0  0  0
   -1.1817   -1.7535    1.5680 C   0  0  0  0  0  0  0  0  0  0  0  0
    1.3361   -2.8874    1.7330 H   0  0  0  0  0  0  0  0  0  0  0  0
    2.0065   -2.1065    0.1977 H   0  0  0  0  0  0  0  0  0  0  0  0
   -2.0369   -2.1492    1.0142 H   0  0  0  0  0  0  0  0  0  0  0  0
   -0.9854   -2.4132    2.4142 H   0  0  0  0  0  0  0  0  0  0  0  0
   -1.4803   -0.7761    1.9556 H   0  0  0  0  0  0  0  0  0  0  0  0
  1  2  3  0
  1  6  1  0
  2  3  1  0
  3  4  1  0
  3  5  1  0
  4  8  1  0
  4  9  1  0
  4 10  1  0
  5 11  1  0
  5 12  1  0
  5 13  1  0
  7 15  1  0
 14 15  2  3
 14 17  1  0
 14 18  1  0
 15 16  1  0
 16 19  1  0
 16 20  1  0
 16 21  1  0
M  RAD  1   3   2
M  END
>  <reaction>  (12) 
rxn_1319

>  <mol_properties>  (12) 
{"1": {"label": "*0", "atom_type": "Ct"}, "2": {"label": "*1", "atom_type": "Cs"}, "6": {"label": "*2", "atom_type": "H0"}, "13": {"label": "*4", "atom_type": "Cd"}, "14": {"label": "*3", "atom_type": "Cd"}}

>  <type>  (12) 
unop_8

>  <geom_source>  (12) 
Heuristics

$$$$

     RDKit          3D

 21 19  0  0  0  0  0  0  0  0999 V2000
    0.0305    0.8821   -2.7446 C   0  0  0  0  0  0  0  0  0  0  0  0
    0.0305    0.8821   -1.5465 C   0  0  0  0  0  0  0  0  0  0  0  0
    0.0305    0.9060   -0.0827 C   0  0  0  0  0  3  0  0  0  0  0  0
   -1.2356    1.5825    0.4517 C   0  0  0  0  0  0  0  0  0  0  0  0
    1.2967    1.5825    0.4517 C   0  0  0  0  0  0  0  0  0  0  0  0
    0.0305    0.8821   -3.8079 H   0  0  0  0  0  0  0  0  0  0  0  0
    0.0305   -0.3426    0.3252 H   0  0  0  0  0  0  0  0  0  0  0  0
   -2.1326    1.0832    0.0857 H   0  0  0  0  0  0  0  0  0  0  0  0
   -1.2729    2.6260    0.1341 H   0  0  0  0  0  0  0  0  0  0  0  0
   -1.2429    1.5545    1.5427 H   0  0  0  0  0  0  0  0  0  0  0  0
    1.3340    2.6260    0.1341 H   0  0  0  0  0  0  0  0  0  0  0  0
    2.1937    1.0831    0.0857 H   0  0  0  0  0  0  0  0  0  0  0  0
    1.3040    1.5545    1.5427 H   0  0  0  0  0  0  0  0  0  0  0  0
   -0.5496   -2.5005   -0.0268 C   0  0  0  0  0  0  0  0  0  0  0  0
    0.0305   -1.5826    0.7302 C   0  0  0  0  0  0  0  0  0  0  0  0
    0.3648   -1.7467    2.1778 C   0  0  0  0  0  0  0  0  0  0  0  0
   -0.8300   -3.4693    0.3730 H   0  0  0  0  0  0  0  0  0  0  0  0
   -0.7655   -2.3189   -1.0722 H   0  0  0  0  0  0  0  0  0  0  0  0
   -0.1388   -0.9876    2.7818 H   0  0  0  0  0  0  0  0  0  0  0  0
    0.0698   -2.7301    2.5461 H   0  0  0  0  0  0  0  0  0  0  0  0
    1.4380   -1.6240    2.3454 H   0  0  0  0  0  0  0  0  0  0  0  0
  1  2  3  0
  1  6  1  0
  2  3  1  0
  3  4  1  0
  3  5  1  0
  4  8  1  0
  4  9  1  0
  4 10  1  0
  5 11  1  0
  5 12  1  0
  5 13  1  0
  7 15  1  0
 14 15  2  3
 14 17  1  0
 14 18  1  0
 15 16  1  0
 16 19  1  0
 16 20  1  0
 16 21  1  0
M  RAD  1   3   2
M  END
>  <reaction>  (13) 
rxn_1319

>  <mol_properties>  (13) 
{"1": {"label": "*0", "atom_type": "Ct"}, "2": {"label": "*1", "atom_type": "Cs"}, "6": {"label": "*2", "atom_type": "H0"}, "13": {"label": "*4", "atom_type": "Cd"}, "14": {"label": "*3", "atom_type": "Cd"}}

>  <type>  (13) 
unop_9

>  <geom_source>  (13) 
Heuristics

$$$$

     RDKit          3D

 21 19  0  0  0  0  0  0  0  0999 V2000
   -0.0265    0.8549   -2.7756 C   0  0  0  0  0  0  0  0  0  0  0  0
   -0.0265    0.8549   -1.5775 C   0  0  0  0  0  0  0  0  0  0  0  0
   -0.0265    0.8788   -0.1137 C   0  0  0  0  0  3  0  0  0  0  0  0
   -1.2926    1.5553    0.4206 C   0  0  0  0  0  0  0  0  0  0  0  0
    1.2396    1.5552    0.4206 C   0  0  0  0  0  0  0  0  0  0  0  0
   -0.0265    0.8549   -3.8389 H   0  0  0  0  0  0  0  0  0  0  0  0
   -0.0265   -0.3698    0.2942 H   0  0  0  0  0  0  0  0  0  0  0  0
   -2.1897    1.0560    0.0547 H   0  0  0  0  0  0  0  0  0  0  0  0
   -1.3299    2.5988    0.1031 H   0  0  0  0  0  0  0  0  0  0  0  0
   -1.2999    1.5273    1.5117 H   0  0  0  0  0  0  0  0  0  0  0  0
    1.2770    2.5988    0.1031 H   0  0  0  0  0  0  0  0  0  0  0  0
    2.1367    1.0559    0.0547 H   0  0  0  0  0  0  0  0  0  0  0  0
    1.2470    1.5272    1.5117 H   0  0  0  0  0  0  0  0  0  0  0  0
    0.9781   -2.3959    0.3458 C   0  0  0  0  0  0  0  0  0  0  0  0
   -0.0265   -1.6098    0.6992 C   0  0  0  0  0  0  0  0  0  0  0  0
   -0.7876   -1.7100    1.9817 C   0  0  0  0  0  0  0  0  0  0  0  0
    1.3259   -3.1950    0.9920 H   0  0  0  0  0  0  0  0  0  0  0  0
    1.4896   -2.2708   -0.6003 H   0  0  0  0  0  0  0  0  0  0  0  0
   -1.8496   -1.8849    1.7911 H   0  0  0  0  0  0  0  0  0  0  0  0
   -0.4122   -2.5221    2.6057 H   0  0  0  0  0  0  0  0  0  0  0  0
   -0.7171   -0.7787    2.5496 H   0  0  0  0  0  0  0  0  0  0  0  0
  1  2  3  0
  1  6  1  0
  2  3  1  0
  3  4  1  0
  3  5  1  0
  4  8  1  0
  4  9  1  0
  4 10  1  0
  5 11  1  0
  5 12  1  0
  5 13  1  0
  7 15  1  0
 14 15  2  3
 14 17  1  0
 14 18  1  0
 15 16  1  0
 16 19  1  0
 16 20  1  0
 16 21  1  0
M  RAD  1   3   2
M  END
>  <reaction>  (14) 
rxn_1319

>  <mol_properties>  (14) 
{"1": {"label": "*0", "atom_type": "Ct"}, "2": {"label": "*1", "atom_type": "Cs"}, "6": {"label": "*2", "atom_type": "H0"}, "13": {"label": "*4", "atom_type": "Cd"}, "14": {"label": "*3", "atom_type": "Cd"}}

>  <type>  (14) 
unop_10

>  <geom_source>  (14) 
Heuristics

$$$$

     RDKit          3D

 21 19  0  0  0  0  0  0  0  0999 V2000
   -0.0977    0.8705   -2.7159 C   0  0  0  0  0  0  0  0  0  0  0  0
   -0.0977    0.8705   -1.5178 C   0  0  0  0  0  0  0  0  0  0  0  0
   -0.0977    0.8944   -0.0540 C   0  0  0  0  0  3  0  0  0  0  0  0
   -1.3638    1.5709    0.4803 C   0  0  0  0  0  0  0  0  0  0  0  0
    1.1684    1.5708    0.4803 C   0  0  0  0  0  0  0  0  0  0  0  0
   -0.0977    0.8705   -3.7792 H   0  0  0  0  0  0  0  0  0  0  0  0
   -0.0977   -0.3543    0.3539 H   0  0  0  0  0  0  0  0  0  0  0  0
   -2.2609    1.0716    0.1144 H   0  0  0  0  0  0  0  0  0  0  0  0
   -1.4012    2.6144    0.1628 H   0  0  0  0  0  0  0  0  0  0  0  0
   -1.3712    1.5429    1.5714 H   0  0  0  0  0  0  0  0  0  0  0  0
    1.2058    2.6143    0.1628 H   0  0  0  0  0  0  0  0  0  0  0  0
    2.0654    1.0715    0.1144 H   0  0  0  0  0  0  0  0  0  0  0  0
    1.1757    1.5428    1.5714 H   0  0  0  0  0  0  0  0  0  0  0  0
   -0.6778   -1.8882    1.9119 C   0  0  0  0  0  0  0  0  0  0  0  0
   -0.0978   -1.5942    0.7589 C   0  0  0  0  0  0  0  0  0  0  0  0
    1.1220   -2.2644    0.2137 C   0  0  0  0  0  0  0  0  0  0  0  0
   -0.2876   -2.6663    2.5596 H   0  0  0  0  0  0  0  0  0  0  0  0
   -1.5623   -1.3638    2.2511 H   0  0  0  0  0  0  0  0  0  0  0  0
    1.9253   -1.5404    0.0548 H   0  0  0  0  0  0  0  0  0  0  0  0
    1.4866   -3.0394    0.8890 H   0  0  0  0  0  0  0  0  0  0  0  0
    0.9130   -2.7232   -0.7561 H   0  0  0  0  0  0  0  0  0  0  0  0
  1  2  3  0
  1  6  1  0
  2  3  1  0
  3  4  1  0
  3  5  1  0
  4  8  1  0
  4  9  1  0
  4 10  1  0
  5 11  1  0
  5 12  1  0
  5 13  1  0
  7 15  1  0
 14 15  2  3
 14 17  1  0
 14 18  1  0
 15 16  1  0
 16 19  1  0
 16 20  1  0
 16 21  1  0
M  RAD  1   3   2
M  END
>  <reaction>  (15) 
rxn_1319

>  <mol_properties>  (15) 
{"1": {"label": "*0", "atom_type": "Ct"}, "2": {"label": "*1", "atom_type": "Cs"}, "6": {"label": "*2", "atom_type": "H0"}, "13": {"label": "*4", "atom_type": "Cd"}, "14": {"label": "*3", "atom_type": "Cd"}}

>  <type>  (15) 
unop_11

>  <geom_source>  (15) 
Heuristics

$$$$

     RDKit          3D

 21 19  0  0  0  0  0  0  0  0999 V2000
    0.0000    0.8949   -2.7292 C   0  0  0  0  0  0  0  0  0  0  0  0
    0.0000    0.8949   -1.5311 C   0  0  0  0  0  0  0  0  0  0  0  0
    0.0000    0.9188   -0.0673 C   0  0  0  0  0  3  0  0  0  0  0  0
   -1.2661    1.5953    0.4670 C   0  0  0  0  0  0  0  0  0  0  0  0
    1.2661    1.5953    0.4670 C   0  0  0  0  0  0  0  0  0  0  0  0
    0.0000    0.8949   -3.7925 H   0  0  0  0  0  0  0  0  0  0  0  0
   -0.0000   -0.3298    0.3406 H   0  0  0  0  0  0  0  0  0  0  0  0
   -2.1632    1.0960    0.1011 H   0  0  0  0  0  0  0  0  0  0  0  0
   -1.3034    2.6388    0.1495 H   0  0  0  0  0  0  0  0  0  0  0  0
   -1.2734    1.5673    1.5581 H   0  0  0  0  0  0  0  0  0  0  0  0
    1.3035    2.6388    0.1495 H   0  0  0  0  0  0  0  0  0  0  0  0
    2.1632    1.0959    0.1011 H   0  0  0  0  0  0  0  0  0  0  0  0
    1.2735    1.5673    1.5581 H   0  0  0  0  0  0  0  0  0  0  0  0
   -0.0000   -2.5360   -0.1592 C   0  0  0  0  0  0  0  0  0  0  0  0
   -0.0000   -1.5697    0.7456 C   0  0  0  0  0  0  0  0  0  0  0  0
   -0.0000   -1.7770    2.2259 C   0  0  0  0  0  0  0  0  0  0  0  0
   -0.0001   -3.5818    0.1295 H   0  0  0  0  0  0  0  0  0  0  0  0
   -0.0000   -2.3188   -1.2199 H   0  0  0  0  0  0  0  0  0  0  0  0
   -0.8777   -1.3133    2.6835 H   0  0  0  0  0  0  0  0  0  0  0  0
   -0.0000   -2.8377    2.4799 H   0  0  0  0  0  0  0  0  0  0  0  0
    0.8777   -1.3134    2.6835 H   0  0  0  0  0  0  0  0  0  0  0  0
  1  2  3  0
  1  6  1  0
  2  3  1  0
  3  4  1  0
  3  5  1  0
  4  8  1  0
  4  9  1  0
  4 10  1  0
  5 11  1  0
  5 12  1  0
  5 13  1  0
  7 15  1  0
 14 15  2  3
 14 17  1  0
 14 18  1  0
 15 16  1  0
 16 19  1  0
 16 20  1  0
 16 21  1  0
M  RAD  1   3   2
M  END
>  <reaction>  (16) 
rxn_1319

>  <mol_properties>  (16) 
{"1": {"label": "*0", "atom_type": "Ct"}, "2": {"label": "*1", "atom_type": "Cs"}, "6": {"label": "*2", "atom_type": "H0"}, "13": {"label": "*4", "atom_type": "Cd"}, "14": {"label": "*3", "atom_type": "Cd"}}

>  <type>  (16) 
unop_12

>  <geom_source>  (16) 
Heuristics

$$$$

     RDKit          3D

 21 19  0  0  0  0  0  0  0  0999 V2000
   -1.5358   -1.1530    0.9663 C   0  0  0  0  0  0  0  0  0  0  0  0
   -1.6631   -0.3705   -1.4327 C   0  0  0  0  0  0  0  0  0  0  0  0
    2.5026   -0.1183    1.0355 C   0  0  0  0  0  0  0  0  0  0  0  0
   -1.0218   -0.1485   -0.0638 C   0  0  0  0  0  3  0  0  0  0  0  0
    1.5661   -0.0726   -0.1308 C   0  0  0  0  0  0  0  0  0  0  0  0
    1.9857    0.3039   -1.3402 C   0  0  0  0  0  0  0  0  0  0  0  0
   -1.2524    1.2287    0.3976 C   0  0  0  0  0  0  0  0  0  0  0  0
   -1.4405    2.3579    0.7759 C   0  0  0  0  0  0  0  0  0  0  0  0
    2.9221    0.8922    1.2254 H   0  0  0  0  0  0  0  0  0  0  0  0
    3.3297   -0.8305    0.8305 H   0  0  0  0  0  0  0  0  0  0  0  0
    1.9532   -0.4554    1.9389 H   0  0  0  0  0  0  0  0  0  0  0  0
   -2.6328   -1.0445    1.1097 H   0  0  0  0  0  0  0  0  0  0  0  0
   -1.0247   -0.9927    1.9395 H   0  0  0  0  0  0  0  0  0  0  0  0
   -1.3156   -2.1873    0.6274 H   0  0  0  0  0  0  0  0  0  0  0  0
   -2.7649   -0.2327   -1.3791 H   0  0  0  0  0  0  0  0  0  0  0  0
   -1.2428    0.3473   -2.1689 H   0  0  0  0  0  0  0  0  0  0  0  0
   -1.4439   -1.3988   -1.7899 H   0  0  0  0  0  0  0  0  0  0  0  0
    0.3764   -0.3911    0.0308 H   0  0  0  0  0  0  0  0  0  0  0  0
    1.2882    0.3293   -2.1707 H   0  0  0  0  0  0  0  0  0  0  0  0
    3.0203    0.5875   -1.5094 H   0  0  0  0  0  0  0  0  0  0  0  0
   -1.6059    3.3491    1.1080 H   0  0  0  0  0  0  0  0  0  0  0  0
  1  4  1  0
  1 12  1  0
  1 13  1  0
  1 14  1  0
  2  4  1  0
  2 15  1  0
  2 16  1  0
  2 17  1  0
  3  5  1  0
  3  9  1  0
  3 10  1  0
  3 11  1  0
  4  7  1  0
  5  6  2  3
  5 18  1  0
  6 19  1  0
  6 20  1  0
  7  8  3  0
  8 21  1  0
M  RAD  1   4   2
M  END
>  <reaction>  (17) 
rxn_1319

>  <mol_properties>  (17) 
{"1": {"label": "*0", "atom_type": "Ct"}, "2": {"label": "*1", "atom_type": "Cs"}, "6": {"label": "*2", "atom_type": "H0"}, "13": {"label": "*4", "atom_type": "Cd"}, "14": {"label": "*3", "atom_type": "Cd"}}

>  <type>  (17) 
unop_13

>  <geom_source>  (17) 
AutoTST

$$$$
