
     RDKit          3D

  8  7  0  0  0  0  0  0  0  0999 V2000
    0.7610    0.0250    0.0051 C   0  0  0  0  0  0  0  0  0  0  0  0
   -0.7610   -0.0250   -0.0051 C   0  0  0  0  0  0  0  0  0  0  0  0
    1.1904   -0.9237   -0.3217 H   0  0  0  0  0  0  0  0  0  0  0  0
    1.1359    0.8041   -0.6609 H   0  0  0  0  0  0  0  0  0  0  0  0
    1.1435    0.2336    1.0058 H   0  0  0  0  0  0  0  0  0  0  0  0
   -1.1435   -0.2336   -1.0058 H   0  0  0  0  0  0  0  0  0  0  0  0
   -1.1904    0.9237    0.3216 H   0  0  0  0  0  0  0  0  0  0  0  0
   -1.1359   -0.8041    0.6609 H   0  0  0  0  0  0  0  0  0  0  0  0
  1  2  1  0
  1  3  1  0
  1  4  1  0
  1  5  1  0
  2  6  1  0
  2  7  1  0
  2  8  1  0
M  END
>  <reaction>  (1) 
rxn_868

>  <mol_properties>  (1) 
{"1": {"label": "donator", "atom_type": "Cs"}, "5": {"label": "d_hydrogen", "atom_type": "H0"}}

>  <type>  (1) 
r1h

$$$$

     RDKit          3D

 10  9  0  0  0  0  0  0  0  0999 V2000
    1.2930    0.1441    0.3288 C   0  0  0  0  0  0  0  0  0  0  0  0
   -0.0374   -0.1647    0.9100 C   0  0  0  0  0  3  0  0  0  0  0  0
   -1.2664    0.4569    0.3567 C   0  0  0  0  0  0  0  0  0  0  0  0
    1.4384    1.2242    0.2174 H   0  0  0  0  0  0  0  0  0  0  0  0
    2.1077   -0.2477    0.9385 H   0  0  0  0  0  0  0  0  0  0  0  0
    1.4057   -0.2836   -0.6789 H   0  0  0  0  0  0  0  0  0  0  0  0
   -0.1309   -0.9912    1.6030 H   0  0  0  0  0  0  0  0  0  0  0  0
   -1.5005    0.0716   -0.6471 H   0  0  0  0  0  0  0  0  0  0  0  0
   -2.1382    0.2713    0.9849 H   0  0  0  0  0  0  0  0  0  0  0  0
   -1.1497    1.5406    0.2456 H   0  0  0  0  0  0  0  0  0  0  0  0
  1  2  1  0
  1  4  1  0
  1  5  1  0
  1  6  1  0
  2  3  1  0
  2  7  1  0
  3  8  1  0
  3  9  1  0
  3 10  1  0
M  RAD  1   2   2
M  END
>  <reaction>  (2) 
rxn_868

>  <mol_properties>  (2) 
{"1": {"label": "acceptor", "atom_type": "Cs"}}

>  <type>  (2) 
r2

$$$$

     RDKit          3D

 11 10  0  0  0  0  0  0  0  0999 V2000
   -1.2710    0.1907   -0.2084 C   0  0  0  0  0  0  0  0  0  0  0  0
    0.0202   -0.6130   -0.2928 C   0  0  0  0  0  0  0  0  0  0  0  0
    0.1086   -1.6953    0.7756 C   0  0  0  0  0  0  0  0  0  0  0  0
   -1.3607    0.6851    0.7620 H   0  0  0  0  0  0  0  0  0  0  0  0
   -2.1429   -0.4567   -0.3299 H   0  0  0  0  0  0  0  0  0  0  0  0
   -1.3158    0.9602   -0.9809 H   0  0  0  0  0  0  0  0  0  0  0  0
    0.8757    0.0616   -0.1992 H   0  0  0  0  0  0  0  0  0  0  0  0
    0.0997   -1.0712   -1.2825 H   0  0  0  0  0  0  0  0  0  0  0  0
   -0.7198   -2.4022    0.6850 H   0  0  0  0  0  0  0  0  0  0  0  0
    1.0395   -2.2596    0.6989 H   0  0  0  0  0  0  0  0  0  0  0  0
    0.0624   -1.2603    1.7770 H   0  0  0  0  0  0  0  0  0  0  0  0
  1  2  1  0
  1  4  1  0
  1  5  1  0
  1  6  1  0
  2  3  1  0
  2  7  1  0
  2  8  1  0
  3  9  1  0
  3 10  1  0
  3 11  1  0
M  END
>  <reaction>  (3) 
rxn_868

>  <mol_properties>  (3) 
{"1": {"label": "acceptor", "atom_type": "Cs"}, "10": {"label": "a_hydrogen", "atom_type": "H0"}}

>  <type>  (3) 
r2h

$$$$

     RDKit          3D

 18 16  0  0  0  0  0  0  0  0999 V2000
    0.2866    1.7896   -0.1451 C   0  0  0  0  0  0  0  0  0  0  0  0
   -0.3432    0.7895    0.7904 C   0  0  0  0  0  0  0  0  0  0  0  0
    0.5714    0.2111    1.8397 C   0  0  0  0  0  0  0  0  0  0  0  0
    1.1753    1.3698   -0.6235 H   0  0  0  0  0  0  0  0  0  0  0  0
   -0.4065    2.0947   -0.9314 H   0  0  0  0  0  0  0  0  0  0  0  0
    0.6013    2.6937    0.3881 H   0  0  0  0  0  0  0  0  0  0  0  0
   -1.2944    1.1331    1.1998 H   0  0  0  0  0  0  0  0  0  0  0  0
    0.9288    0.9833    2.5300 H   0  0  0  0  0  0  0  0  0  0  0  0
    0.0674   -0.5544    2.4325 H   0  0  0  0  0  0  0  0  0  0  0  0
    1.4524   -0.2448    1.3799 H   0  0  0  0  0  0  0  0  0  0  0  0
    0.3266   -1.5528   -1.5456 C   0  0  0  0  0  0  0  0  0  0  0  0
   -0.9454   -1.3066   -0.7793 C   0  0  0  0  0  3  0  0  0  0  0  0
    0.5868   -0.6940   -2.1677 H   0  0  0  0  0  0  0  0  0  0  0  0
    1.1647   -1.7412   -0.8709 H   0  0  0  0  0  0  0  0  0  0  0  0
    0.2424   -2.4207   -2.2078 H   0  0  0  0  0  0  0  0  0  0  0  0
   -0.7089   -0.2325    0.0340 H   0  0  0  0  0  0  0  0  0  0  0  0
   -1.2200   -2.0942   -0.0798 H   0  0  0  0  0  0  0  0  0  0  0  0
   -1.7940   -0.9917   -1.3839 H   0  0  0  0  0  0  0  0  0  0  0  0
  1  2  1  0
  1  4  1  0
  1  5  1  0
  1  6  1  0
  2  3  1  0
  2  7  1  0
  2 16  1  0
  3  8  1  0
  3  9  1  0
  3 10  1  0
 11 12  1  0
 11 13  1  0
 11 14  1  0
 11 15  1  0
 12 17  1  0
 12 18  1  0
M  RAD  1  12   2
M  END
>  <reaction>  (4) 
rxn_868

>  <mol_properties>  (4) 
{"0": {"label": "*0", "atom_type": "Cs"}, "1": {"label": "*1", "atom_type": "Cs"}, "10": {"label": "*4", "atom_type": "Cs"}, "11": {"label": "*3", "atom_type": "Cs"}, "15": {"label": "*2", "atom_type": "H0"}}

>  <type>  (4) 
ts

$$$$

     RDKit          3D

 18 16  0  0  0  0  0  0  0  0999 V2000
   -1.1219    0.8921    1.4610 C   0  0  0  0  0  0  0  0  0  0  0  0
    0.1222    0.6801    0.6078 C   0  0  0  0  0  3  0  0  0  0  0  0
    0.7550    1.9905    0.1573 C   0  0  0  0  0  0  0  0  0  0  0  0
   -1.8842    1.4473    0.9091 H   0  0  0  0  0  0  0  0  0  0  0  0
   -1.5604   -0.0570    1.7737 H   0  0  0  0  0  0  0  0  0  0  0  0
   -0.8851    1.4642    2.3615 H   0  0  0  0  0  0  0  0  0  0  0  0
    0.8553    0.0968    1.1718 H   0  0  0  0  0  0  0  0  0  0  0  0
    1.0509    2.5971    1.0167 H   0  0  0  0  0  0  0  0  0  0  0  0
    1.6438    1.8181   -0.4520 H   0  0  0  0  0  0  0  0  0  0  0  0
    0.0518    2.5803   -0.4358 H   0  0  0  0  0  0  0  0  0  0  0  0
    0.1222   -1.7633   -1.8659 C   0  0  0  0  0  0  0  0  0  0  0  0
    0.1222   -1.7633   -0.3431 C   0  0  0  0  0  0  0  0  0  0  0  0
   -0.7587   -1.2548   -2.2618 H   0  0  0  0  0  0  0  0  0  0  0  0
    1.0030   -1.2548   -2.2618 H   0  0  0  0  0  0  0  0  0  0  0  0
    0.1221   -2.7804   -2.2618 H   0  0  0  0  0  0  0  0  0  0  0  0
    0.1222   -0.5428    0.1319 H   0  0  0  0  0  0  0  0  0  0  0  0
    1.0030   -2.2719    0.0527 H   0  0  0  0  0  0  0  0  0  0  0  0
   -0.7587   -2.2719    0.0527 H   0  0  0  0  0  0  0  0  0  0  0  0
  1  2  1  0
  1  4  1  0
  1  5  1  0
  1  6  1  0
  2  3  1  0
  2  7  1  0
  3  8  1  0
  3  9  1  0
  3 10  1  0
 11 12  1  0
 11 13  1  0
 11 14  1  0
 11 15  1  0
 12 16  1  0
 12 17  1  0
 12 18  1  0
M  RAD  1   2   2
M  END
>  <reaction>  (5) 
rxn_868

>  <mol_properties>  (5) 
{"0": {"label": "*0", "atom_type": "Cs"}, "1": {"label": "*1", "atom_type": "Cs"}, "10": {"label": "*4", "atom_type": "Cs"}, "11": {"label": "*3", "atom_type": "Cs"}, "15": {"label": "*2", "atom_type": "H0"}}

>  <type>  (5) 
unop_1

>  <geom_source>  (5) 
Heuristics

$$$$

     RDKit          3D

 18 16  0  0  0  0  0  0  0  0999 V2000
   -0.8209    1.5903   -0.2056 C   0  0  0  0  0  0  0  0  0  0  0  0
   -0.1027    0.6665    0.7698 C   0  0  0  0  0  3  0  0  0  0  0  0
    1.1339    1.3096    1.3846 C   0  0  0  0  0  0  0  0  0  0  0  0
   -0.1620    1.8779   -1.0285 H   0  0  0  0  0  0  0  0  0  0  0  0
   -1.7030    1.1124   -0.6351 H   0  0  0  0  0  0  0  0  0  0  0  0
   -1.1459    2.5072    0.2920 H   0  0  0  0  0  0  0  0  0  0  0  0
   -0.7922    0.3698    1.5650 H   0  0  0  0  0  0  0  0  0  0  0  0
    0.8705    2.2177    1.9323 H   0  0  0  0  0  0  0  0  0  0  0  0
    1.6342    0.6333    2.0797 H   0  0  0  0  0  0  0  0  0  0  0  0
    1.8544    1.5884    0.6118 H   0  0  0  0  0  0  0  0  0  0  0  0
   -0.1027   -1.7769   -1.7039 C   0  0  0  0  0  0  0  0  0  0  0  0
   -0.1027   -1.7769   -0.1811 C   0  0  0  0  0  0  0  0  0  0  0  0
   -0.9835   -1.2683   -2.0998 H   0  0  0  0  0  0  0  0  0  0  0  0
    0.7782   -1.2683   -2.0998 H   0  0  0  0  0  0  0  0  0  0  0  0
   -0.1027   -2.7940   -2.0998 H   0  0  0  0  0  0  0  0  0  0  0  0
   -0.1027   -0.5563    0.2939 H   0  0  0  0  0  0  0  0  0  0  0  0
    0.7782   -2.2854    0.2147 H   0  0  0  0  0  0  0  0  0  0  0  0
   -0.9835   -2.2854    0.2147 H   0  0  0  0  0  0  0  0  0  0  0  0
  1  2  1  0
  1  4  1  0
  1  5  1  0
  1  6  1  0
  2  3  1  0
  2  7  1  0
  3  8  1  0
  3  9  1  0
  3 10  1  0
 11 12  1  0
 11 13  1  0
 11 14  1  0
 11 15  1  0
 12 16  1  0
 12 17  1  0
 12 18  1  0
M  RAD  1   2   2
M  END
>  <reaction>  (6) 
rxn_868

>  <mol_properties>  (6) 
{"0": {"label": "*0", "atom_type": "Cs"}, "1": {"label": "*1", "atom_type": "Cs"}, "10": {"label": "*4", "atom_type": "Cs"}, "11": {"label": "*3", "atom_type": "Cs"}, "15": {"label": "*2", "atom_type": "H0"}}

>  <type>  (6) 
unop_2

>  <geom_source>  (6) 
Heuristics

$$$$

     RDKit          3D

 18 16  0  0  0  0  0  0  0  0999 V2000
   -0.5484    0.7369    1.9171 C   0  0  0  0  0  0  0  0  0  0  0  0
    0.1698    0.7155    0.5739 C   0  0  0  0  0  3  0  0  0  0  0  0
    0.0358    2.0300   -0.1841 C   0  0  0  0  0  0  0  0  0  0  0  0
   -1.6162    0.9280    1.7861 H   0  0  0  0  0  0  0  0  0  0  0  0
   -0.4410   -0.2125    2.4446 H   0  0  0  0  0  0  0  0  0  0  0  0
   -0.1494    1.5244    2.5610 H   0  0  0  0  0  0  0  0  0  0  0  0
    1.2288    0.4922    0.7309 H   0  0  0  0  0  0  0  0  0  0  0  0
    0.4532    2.8584    0.3936 H   0  0  0  0  0  0  0  0  0  0  0  0
    0.5562    1.9953   -1.1426 H   0  0  0  0  0  0  0  0  0  0  0  0
   -1.0137    2.2620   -0.3813 H   0  0  0  0  0  0  0  0  0  0  0  0
    0.1698   -1.7279   -1.8998 C   0  0  0  0  0  0  0  0  0  0  0  0
    0.1698   -1.7279   -0.3770 C   0  0  0  0  0  0  0  0  0  0  0  0
   -0.7110   -1.2194   -2.2957 H   0  0  0  0  0  0  0  0  0  0  0  0
    1.0507   -1.2194   -2.2957 H   0  0  0  0  0  0  0  0  0  0  0  0
    0.1698   -2.7450   -2.2957 H   0  0  0  0  0  0  0  0  0  0  0  0
    0.1698   -0.5074    0.0980 H   0  0  0  0  0  0  0  0  0  0  0  0
    1.0507   -2.2365    0.0188 H   0  0  0  0  0  0  0  0  0  0  0  0
   -0.7110   -2.2365    0.0188 H   0  0  0  0  0  0  0  0  0  0  0  0
  1  2  1  0
  1  4  1  0
  1  5  1  0
  1  6  1  0
  2  3  1  0
  2  7  1  0
  3  8  1  0
  3  9  1  0
  3 10  1  0
 11 12  1  0
 11 13  1  0
 11 14  1  0
 11 15  1  0
 12 16  1  0
 12 17  1  0
 12 18  1  0
M  RAD  1   2   2
M  END
>  <reaction>  (7) 
rxn_868

>  <mol_properties>  (7) 
{"0": {"label": "*0", "atom_type": "Cs"}, "1": {"label": "*1", "atom_type": "Cs"}, "10": {"label": "*4", "atom_type": "Cs"}, "11": {"label": "*3", "atom_type": "Cs"}, "15": {"label": "*2", "atom_type": "H0"}}

>  <type>  (7) 
unop_3

>  <geom_source>  (7) 
Heuristics

$$$$

     RDKit          3D

 18 16  0  0  0  0  0  0  0  0999 V2000
    0.9382    1.7214    0.0341 C   0  0  0  0  0  0  0  0  0  0  0  0
   -0.3058    0.9883    0.5195 C   0  0  0  0  0  3  0  0  0  0  0  0
   -0.0843    0.2709    1.8450 C   0  0  0  0  0  0  0  0  0  0  0  0
    1.7701    1.0273   -0.1081 H   0  0  0  0  0  0  0  0  0  0  0  0
    0.7601    2.2285   -0.9157 H   0  0  0  0  0  0  0  0  0  0  0  0
    1.2570    2.4731    0.7602 H   0  0  0  0  0  0  0  0  0  0  0  0
   -1.1299    1.6995    0.6238 H   0  0  0  0  0  0  0  0  0  0  0  0
    0.2022    0.9770    2.6282 H   0  0  0  0  0  0  0  0  0  0  0  0
   -0.9856   -0.2477    2.1759 H   0  0  0  0  0  0  0  0  0  0  0  0
    0.7154   -0.4689    1.7599 H   0  0  0  0  0  0  0  0  0  0  0  0
   -0.3058   -1.4551   -1.9542 C   0  0  0  0  0  0  0  0  0  0  0  0
   -0.3058   -1.4551   -0.4314 C   0  0  0  0  0  0  0  0  0  0  0  0
   -1.1866   -0.9465   -2.3501 H   0  0  0  0  0  0  0  0  0  0  0  0
    0.5751   -0.9465   -2.3501 H   0  0  0  0  0  0  0  0  0  0  0  0
   -0.3058   -2.4722   -2.3501 H   0  0  0  0  0  0  0  0  0  0  0  0
   -0.3058   -0.2346    0.0436 H   0  0  0  0  0  0  0  0  0  0  0  0
    0.5751   -1.9637   -0.0356 H   0  0  0  0  0  0  0  0  0  0  0  0
   -1.1866   -1.9637   -0.0356 H   0  0  0  0  0  0  0  0  0  0  0  0
  1  2  1  0
  1  4  1  0
  1  5  1  0
  1  6  1  0
  2  3  1  0
  2  7  1  0
  3  8  1  0
  3  9  1  0
  3 10  1  0
 11 12  1  0
 11 13  1  0
 11 14  1  0
 11 15  1  0
 12 16  1  0
 12 17  1  0
 12 18  1  0
M  RAD  1   2   2
M  END
>  <reaction>  (8) 
rxn_868

>  <mol_properties>  (8) 
{"0": {"label": "*0", "atom_type": "Cs"}, "1": {"label": "*1", "atom_type": "Cs"}, "10": {"label": "*4", "atom_type": "Cs"}, "11": {"label": "*3", "atom_type": "Cs"}, "15": {"label": "*2", "atom_type": "H0"}}

>  <type>  (8) 
unop_4

>  <geom_source>  (8) 
Heuristics

$$$$

     RDKit          3D

 18 16  0  0  0  0  0  0  0  0999 V2000
    0.2452    0.7920    2.0224 C   0  0  0  0  0  0  0  0  0  0  0  0
    0.2452    0.8405    0.4998 C   0  0  0  0  0  3  0  0  0  0  0  0
   -0.9470    1.6036   -0.0629 C   0  0  0  0  0  0  0  0  0  0  0  0
   -0.6579    0.3048    2.3977 H   0  0  0  0  0  0  0  0  0  0  0  0
    1.1060    0.2418    2.4063 H   0  0  0  0  0  0  0  0  0  0  0  0
    0.2761    1.7991    2.4453 H   0  0  0  0  0  0  0  0  0  0  0  0
    1.1720    1.3040    0.1504 H   0  0  0  0  0  0  0  0  0  0  0  0
   -0.9537    2.6363    0.2943 H   0  0  0  0  0  0  0  0  0  0  0  0
   -0.9295    1.6273   -1.1538 H   0  0  0  0  0  0  0  0  0  0  0  0
   -1.8878    1.1419    0.2467 H   0  0  0  0  0  0  0  0  0  0  0  0
    0.2452   -1.6030   -1.9739 C   0  0  0  0  0  0  0  0  0  0  0  0
    0.2452   -1.6030   -0.4511 C   0  0  0  0  0  0  0  0  0  0  0  0
   -0.6356   -1.0944   -2.3697 H   0  0  0  0  0  0  0  0  0  0  0  0
    1.1261   -1.0944   -2.3697 H   0  0  0  0  0  0  0  0  0  0  0  0
    0.2452   -2.6201   -2.3697 H   0  0  0  0  0  0  0  0  0  0  0  0
    0.2452   -0.3824    0.0239 H   0  0  0  0  0  0  0  0  0  0  0  0
    1.1261   -2.1115   -0.0553 H   0  0  0  0  0  0  0  0  0  0  0  0
   -0.6356   -2.1115   -0.0553 H   0  0  0  0  0  0  0  0  0  0  0  0
  1  2  1  0
  1  4  1  0
  1  5  1  0
  1  6  1  0
  2  3  1  0
  2  7  1  0
  3  8  1  0
  3  9  1  0
  3 10  1  0
 11 12  1  0
 11 13  1  0
 11 14  1  0
 11 15  1  0
 12 16  1  0
 12 17  1  0
 12 18  1  0
M  RAD  1   2   2
M  END
>  <reaction>  (9) 
rxn_868

>  <mol_properties>  (9) 
{"0": {"label": "*0", "atom_type": "Cs"}, "1": {"label": "*1", "atom_type": "Cs"}, "10": {"label": "*4", "atom_type": "Cs"}, "11": {"label": "*3", "atom_type": "Cs"}, "15": {"label": "*2", "atom_type": "H0"}}

>  <type>  (9) 
unop_5

>  <geom_source>  (9) 
Heuristics

$$$$

     RDKit          3D

 18 16  0  0  0  0  0  0  0  0999 V2000
    1.2421    1.5411    0.5951 C   0  0  0  0  0  0  0  0  0  0  0  0
   -0.1944    1.0686    0.4112 C   0  0  0  0  0  3  0  0  0  0  0  0
   -0.6910    0.2310    1.5827 C   0  0  0  0  0  0  0  0  0  0  0  0
    1.9224    0.6922    0.6981 H   0  0  0  0  0  0  0  0  0  0  0  0
    1.5795    2.1388   -0.2533 H   0  0  0  0  0  0  0  0  0  0  0  0
    1.3399    2.1527    1.4954 H   0  0  0  0  0  0  0  0  0  0  0  0
   -0.8486    1.9349    0.2800 H   0  0  0  0  0  0  0  0  0  0  0  0
   -0.6541    0.8013    2.5141 H   0  0  0  0  0  0  0  0  0  0  0  0
   -1.7207   -0.0978    1.4327 H   0  0  0  0  0  0  0  0  0  0  0  0
   -0.0716   -0.6592    1.7168 H   0  0  0  0  0  0  0  0  0  0  0  0
   -0.1944   -1.3749   -2.0625 C   0  0  0  0  0  0  0  0  0  0  0  0
   -0.1944   -1.3749   -0.5397 C   0  0  0  0  0  0  0  0  0  0  0  0
   -1.0752   -0.8663   -2.4583 H   0  0  0  0  0  0  0  0  0  0  0  0
    0.6865   -0.8663   -2.4583 H   0  0  0  0  0  0  0  0  0  0  0  0
   -0.1944   -2.3920   -2.4583 H   0  0  0  0  0  0  0  0  0  0  0  0
   -0.1944   -0.1543   -0.0647 H   0  0  0  0  0  0  0  0  0  0  0  0
    0.6865   -1.8834   -0.1439 H   0  0  0  0  0  0  0  0  0  0  0  0
   -1.0752   -1.8834   -0.1439 H   0  0  0  0  0  0  0  0  0  0  0  0
  1  2  1  0
  1  4  1  0
  1  5  1  0
  1  6  1  0
  2  3  1  0
  2  7  1  0
  3  8  1  0
  3  9  1  0
  3 10  1  0
 11 12  1  0
 11 13  1  0
 11 14  1  0
 11 15  1  0
 12 16  1  0
 12 17  1  0
 12 18  1  0
M  RAD  1   2   2
M  END
>  <reaction>  (10) 
rxn_868

>  <mol_properties>  (10) 
{"0": {"label": "*0", "atom_type": "Cs"}, "1": {"label": "*1", "atom_type": "Cs"}, "10": {"label": "*4", "atom_type": "Cs"}, "11": {"label": "*3", "atom_type": "Cs"}, "15": {"label": "*2", "atom_type": "H0"}}

>  <type>  (10) 
unop_6

>  <geom_source>  (10) 
Heuristics

$$$$

     RDKit          3D

 18 16  0  0  0  0  0  0  0  0999 V2000
    1.2236    1.3016    1.2109 C   0  0  0  0  0  0  0  0  0  0  0  0
   -0.0204    1.0895    0.3576 C   0  0  0  0  0  3  0  0  0  0  0  0
   -1.1481    0.4094    1.1234 C   0  0  0  0  0  0  0  0  0  0  0  0
    1.6111    0.3489    1.5802 H   0  0  0  0  0  0  0  0  0  0  0  0
    2.0195    1.7894    0.6455 H   0  0  0  0  0  0  0  0  0  0  0  0
    0.9997    1.9251    2.0798 H   0  0  0  0  0  0  0  0  0  0  0  0
   -0.3688    2.0533   -0.0237 H   0  0  0  0  0  0  0  0  0  0  0  0
   -1.4467    1.0049    1.9895 H   0  0  0  0  0  0  0  0  0  0  0  0
   -2.0296    0.2663    0.4961 H   0  0  0  0  0  0  0  0  0  0  0  0
   -0.8354   -0.5713    1.4899 H   0  0  0  0  0  0  0  0  0  0  0  0
   -0.0204   -1.3539   -2.1161 C   0  0  0  0  0  0  0  0  0  0  0  0
   -0.0204   -1.3539   -0.5933 C   0  0  0  0  0  0  0  0  0  0  0  0
   -0.9012   -0.8454   -2.5119 H   0  0  0  0  0  0  0  0  0  0  0  0
    0.8605   -0.8454   -2.5119 H   0  0  0  0  0  0  0  0  0  0  0  0
   -0.0204   -2.3710   -2.5119 H   0  0  0  0  0  0  0  0  0  0  0  0
   -0.0204   -0.1334   -0.1183 H   0  0  0  0  0  0  0  0  0  0  0  0
    0.8605   -1.8625   -0.1975 H   0  0  0  0  0  0  0  0  0  0  0  0
   -0.9012   -1.8625   -0.1975 H   0  0  0  0  0  0  0  0  0  0  0  0
  1  2  1  0
  1  4  1  0
  1  5  1  0
  1  6  1  0
  2  3  1  0
  2  7  1  0
  3  8  1  0
  3  9  1  0
  3 10  1  0
 11 12  1  0
 11 13  1  0
 11 14  1  0
 11 15  1  0
 12 16  1  0
 12 17  1  0
 12 18  1  0
M  RAD  1   2   2
M  END
>  <reaction>  (11) 
rxn_868

>  <mol_properties>  (11) 
{"0": {"label": "*0", "atom_type": "Cs"}, "1": {"label": "*1", "atom_type": "Cs"}, "10": {"label": "*4", "atom_type": "Cs"}, "11": {"label": "*3", "atom_type": "Cs"}, "15": {"label": "*2", "atom_type": "H0"}}

>  <type>  (11) 
unop_7

>  <geom_source>  (11) 
Heuristics

$$$$

     RDKit          3D

 18 16  0  0  0  0  0  0  0  0999 V2000
   -1.3447    1.1318    0.8452 C   0  0  0  0  0  0  0  0  0  0  0  0
    0.0917    0.6593    0.6613 C   0  0  0  0  0  3  0  0  0  0  0  0
    1.0873    1.8115    0.6170 C   0  0  0  0  0  0  0  0  0  0  0  0
   -1.6471    1.7903    0.0272 H   0  0  0  0  0  0  0  0  0  0  0  0
   -2.0423    0.2931    0.8745 H   0  0  0  0  0  0  0  0  0  0  0  0
   -1.4555    1.6919    1.7769 H   0  0  0  0  0  0  0  0  0  0  0  0
    0.3582   -0.0209    1.4750 H   0  0  0  0  0  0  0  0  0  0  0  0
    1.0532    2.3929    1.5416 H   0  0  0  0  0  0  0  0  0  0  0  0
    2.1097    1.4534    0.4849 H   0  0  0  0  0  0  0  0  0  0  0  0
    0.8615    2.4913   -0.2081 H   0  0  0  0  0  0  0  0  0  0  0  0
    0.0917   -1.7841   -1.8124 C   0  0  0  0  0  0  0  0  0  0  0  0
    0.0917   -1.7841   -0.2897 C   0  0  0  0  0  0  0  0  0  0  0  0
   -0.7891   -1.2756   -2.2083 H   0  0  0  0  0  0  0  0  0  0  0  0
    0.9726   -1.2756   -2.2083 H   0  0  0  0  0  0  0  0  0  0  0  0
    0.0917   -2.8012   -2.2083 H   0  0  0  0  0  0  0  0  0  0  0  0
    0.0917   -0.5636    0.1854 H   0  0  0  0  0  0  0  0  0  0  0  0
    0.9726   -2.2927    0.1062 H   0  0  0  0  0  0  0  0  0  0  0  0
   -0.7891   -2.2927    0.1062 H   0  0  0  0  0  0  0  0  0  0  0  0
  1  2  1  0
  1  4  1  0
  1  5  1  0
  1  6  1  0
  2  3  1  0
  2  7  1  0
  3  8  1  0
  3  9  1  0
  3 10  1  0
 11 12  1  0
 11 13  1  0
 11 14  1  0
 11 15  1  0
 12 16  1  0
 12 17  1  0
 12 18  1  0
M  RAD  1   2   2
M  END
>  <reaction>  (12) 
rxn_868

>  <mol_properties>  (12) 
{"0": {"label": "*0", "atom_type": "Cs"}, "1": {"label": "*1", "atom_type": "Cs"}, "10": {"label": "*4", "atom_type": "Cs"}, "11": {"label": "*3", "atom_type": "Cs"}, "15": {"label": "*2", "atom_type": "H0"}}

>  <type>  (12) 
unop_8

>  <geom_source>  (12) 
Heuristics

$$$$

     RDKit          3D

 18 16  0  0  0  0  0  0  0  0999 V2000
    0.3918    1.7931   -0.3295 C   0  0  0  0  0  0  0  0  0  0  0  0
   -0.3264    0.8693    0.6459 C   0  0  0  0  0  3  0  0  0  0  0  0
    0.5230    0.5265    1.8631 C   0  0  0  0  0  0  0  0  0  0  0  0
    1.3131    1.3338   -0.6961 H   0  0  0  0  0  0  0  0  0  0  0  0
   -0.2320    2.0269   -1.1939 H   0  0  0  0  0  0  0  0  0  0  0  0
    0.6628    2.7355    0.1525 H   0  0  0  0  0  0  0  0  0  0  0  0
   -1.2583    1.3389    0.9729 H   0  0  0  0  0  0  0  0  0  0  0  0
    0.7981    1.4291    2.4142 H   0  0  0  0  0  0  0  0  0  0  0  0
   -0.0080   -0.1353    2.5493 H   0  0  0  0  0  0  0  0  0  0  0  0
    1.4485    0.0274    1.5656 H   0  0  0  0  0  0  0  0  0  0  0  0
   -0.3264   -1.5741   -1.8278 C   0  0  0  0  0  0  0  0  0  0  0  0
   -0.3264   -1.5741   -0.3050 C   0  0  0  0  0  0  0  0  0  0  0  0
   -1.2072   -1.0655   -2.2237 H   0  0  0  0  0  0  0  0  0  0  0  0
    0.5544   -1.0655   -2.2237 H   0  0  0  0  0  0  0  0  0  0  0  0
   -0.3264   -2.5912   -2.2237 H   0  0  0  0  0  0  0  0  0  0  0  0
   -0.3264   -0.3536    0.1700 H   0  0  0  0  0  0  0  0  0  0  0  0
    0.5544   -2.0827    0.0908 H   0  0  0  0  0  0  0  0  0  0  0  0
   -1.2072   -2.0827    0.0908 H   0  0  0  0  0  0  0  0  0  0  0  0
  1  2  1  0
  1  4  1  0
  1  5  1  0
  1  6  1  0
  2  3  1  0
  2  7  1  0
  3  8  1  0
  3  9  1  0
  3 10  1  0
 11 12  1  0
 11 13  1  0
 11 14  1  0
 11 15  1  0
 12 16  1  0
 12 17  1  0
 12 18  1  0
M  RAD  1   2   2
M  END
>  <reaction>  (13) 
rxn_868

>  <mol_properties>  (13) 
{"0": {"label": "*0", "atom_type": "Cs"}, "1": {"label": "*1", "atom_type": "Cs"}, "10": {"label": "*4", "atom_type": "Cs"}, "11": {"label": "*3", "atom_type": "Cs"}, "15": {"label": "*2", "atom_type": "H0"}}

>  <type>  (13) 
unop_9

>  <geom_source>  (13) 
Heuristics

$$$$

     RDKit          3D

 18 16  0  0  0  0  0  0  0  0999 V2000
   -1.2212    1.3795    0.2430 C   0  0  0  0  0  0  0  0  0  0  0  0
    0.0228    0.6465    0.7284 C   0  0  0  0  0  3  0  0  0  0  0  0
    1.1770    1.5911    1.0383 C   0  0  0  0  0  0  0  0  0  0  0  0
   -1.0110    1.9444   -0.6685 H   0  0  0  0  0  0  0  0  0  0  0  0
   -2.0361    0.6867    0.0263 H   0  0  0  0  0  0  0  0  0  0  0  0
   -1.5755    2.0882    0.9954 H   0  0  0  0  0  0  0  0  0  0  0  0
   -0.2223    0.0658    1.6220 H   0  0  0  0  0  0  0  0  0  0  0  0
    0.8982    2.3065    1.8158 H   0  0  0  0  0  0  0  0  0  0  0  0
    2.0581    1.0480    1.3842 H   0  0  0  0  0  0  0  0  0  0  0  0
    1.4627    2.1627    0.1520 H   0  0  0  0  0  0  0  0  0  0  0  0
    0.0228   -1.7970   -1.7454 C   0  0  0  0  0  0  0  0  0  0  0  0
    0.0228   -1.7970   -0.2226 C   0  0  0  0  0  0  0  0  0  0  0  0
   -0.8580   -1.2884   -2.1412 H   0  0  0  0  0  0  0  0  0  0  0  0
    0.9037   -1.2884   -2.1412 H   0  0  0  0  0  0  0  0  0  0  0  0
    0.0228   -2.8141   -2.1412 H   0  0  0  0  0  0  0  0  0  0  0  0
    0.0228   -0.5764    0.2525 H   0  0  0  0  0  0  0  0  0  0  0  0
    0.9037   -2.3055    0.1733 H   0  0  0  0  0  0  0  0  0  0  0  0
   -0.8580   -2.3055    0.1733 H   0  0  0  0  0  0  0  0  0  0  0  0
  1  2  1  0
  1  4  1  0
  1  5  1  0
  1  6  1  0
  2  3  1  0
  2  7  1  0
  3  8  1  0
  3  9  1  0
  3 10  1  0
 11 12  1  0
 11 13  1  0
 11 14  1  0
 11 15  1  0
 12 16  1  0
 12 17  1  0
 12 18  1  0
M  RAD  1   2   2
M  END
>  <reaction>  (14) 
rxn_868

>  <mol_properties>  (14) 
{"0": {"label": "*0", "atom_type": "Cs"}, "1": {"label": "*1", "atom_type": "Cs"}, "10": {"label": "*4", "atom_type": "Cs"}, "11": {"label": "*3", "atom_type": "Cs"}, "15": {"label": "*2", "atom_type": "H0"}}

>  <type>  (14) 
unop_10

>  <geom_source>  (14) 
Heuristics

$$$$

     RDKit          3D

 18 16  0  0  0  0  0  0  0  0999 V2000
    0.8861    1.0403    1.7317 C   0  0  0  0  0  0  0  0  0  0  0  0
    0.1679    1.0190    0.3885 C   0  0  0  0  0  3  0  0  0  0  0  0
   -1.3401    0.8581    0.5320 C   0  0  0  0  0  0  0  0  0  0  0  0
    0.7101    0.1138    2.2836 H   0  0  0  0  0  0  0  0  0  0  0  0
    1.9642    1.1562    1.6084 H   0  0  0  0  0  0  0  0  0  0  0  0
    0.5297    1.8661    2.3522 H   0  0  0  0  0  0  0  0  0  0  0  0
    0.3853    1.9425   -0.1553 H   0  0  0  0  0  0  0  0  0  0  0  0
   -1.7667    1.6781    1.1147 H   0  0  0  0  0  0  0  0  0  0  0  0
   -1.8364    0.8450   -0.4398 H   0  0  0  0  0  0  0  0  0  0  0  0
   -1.5863   -0.0742    1.0461 H   0  0  0  0  0  0  0  0  0  0  0  0
    0.1679   -1.4244   -2.0852 C   0  0  0  0  0  0  0  0  0  0  0  0
    0.1679   -1.4244   -0.5624 C   0  0  0  0  0  0  0  0  0  0  0  0
   -0.7129   -0.9159   -2.4811 H   0  0  0  0  0  0  0  0  0  0  0  0
    1.0488   -0.9159   -2.4811 H   0  0  0  0  0  0  0  0  0  0  0  0
    0.1679   -2.4416   -2.4811 H   0  0  0  0  0  0  0  0  0  0  0  0
    0.1679   -0.2039   -0.0874 H   0  0  0  0  0  0  0  0  0  0  0  0
    1.0488   -1.9330   -0.1666 H   0  0  0  0  0  0  0  0  0  0  0  0
   -0.7129   -1.9330   -0.1666 H   0  0  0  0  0  0  0  0  0  0  0  0
  1  2  1  0
  1  4  1  0
  1  5  1  0
  1  6  1  0
  2  3  1  0
  2  7  1  0
  3  8  1  0
  3  9  1  0
  3 10  1  0
 11 12  1  0
 11 13  1  0
 11 14  1  0
 11 15  1  0
 12 16  1  0
 12 17  1  0
 12 18  1  0
M  RAD  1   2   2
M  END
>  <reaction>  (15) 
rxn_868

>  <mol_properties>  (15) 
{"0": {"label": "*0", "atom_type": "Cs"}, "1": {"label": "*1", "atom_type": "Cs"}, "10": {"label": "*4", "atom_type": "Cs"}, "11": {"label": "*3", "atom_type": "Cs"}, "15": {"label": "*2", "atom_type": "H0"}}

>  <type>  (15) 
unop_11

>  <geom_source>  (15) 
Heuristics

$$$$

     RDKit          3D

 18 16  0  0  0  0  0  0  0  0999 V2000
   -0.2452    1.7392   -0.4114 C   0  0  0  0  0  0  0  0  0  0  0  0
   -0.2452    0.7457    0.7434 C   0  0  0  0  0  3  0  0  0  0  0  0
    0.9470    0.9276    1.6739 C   0  0  0  0  0  0  0  0  0  0  0  0
    0.6579    1.6339   -1.0173 H   0  0  0  0  0  0  0  0  0  0  0  0
   -1.1060    1.5932   -1.0662 H   0  0  0  0  0  0  0  0  0  0  0  0
   -0.2761    2.7672   -0.0422 H   0  0  0  0  0  0  0  0  0  0  0  0
   -1.1720    0.8511    1.3142 H   0  0  0  0  0  0  0  0  0  0  0  0
    0.9537    1.9301    2.1088 H   0  0  0  0  0  0  0  0  0  0  0  0
    0.9295    0.2077    2.4939 H   0  0  0  0  0  0  0  0  0  0  0  0
    1.8878    0.7967    1.1337 H   0  0  0  0  0  0  0  0  0  0  0  0
   -0.2452   -1.6977   -1.7304 C   0  0  0  0  0  0  0  0  0  0  0  0
   -0.2452   -1.6977   -0.2076 C   0  0  0  0  0  0  0  0  0  0  0  0
   -1.1261   -1.1892   -2.1262 H   0  0  0  0  0  0  0  0  0  0  0  0
    0.6356   -1.1892   -2.1262 H   0  0  0  0  0  0  0  0  0  0  0  0
   -0.2452   -2.7149   -2.1262 H   0  0  0  0  0  0  0  0  0  0  0  0
   -0.2452   -0.4772    0.2674 H   0  0  0  0  0  0  0  0  0  0  0  0
    0.6356   -2.2063    0.1883 H   0  0  0  0  0  0  0  0  0  0  0  0
   -1.1261   -2.2063    0.1883 H   0  0  0  0  0  0  0  0  0  0  0  0
  1  2  1  0
  1  4  1  0
  1  5  1  0
  1  6  1  0
  2  3  1  0
  2  7  1  0
  3  8  1  0
  3  9  1  0
  3 10  1  0
 11 12  1  0
 11 13  1  0
 11 14  1  0
 11 15  1  0
 12 16  1  0
 12 17  1  0
 12 18  1  0
M  RAD  1   2   2
M  END
>  <reaction>  (16) 
rxn_868

>  <mol_properties>  (16) 
{"0": {"label": "*0", "atom_type": "Cs"}, "1": {"label": "*1", "atom_type": "Cs"}, "10": {"label": "*4", "atom_type": "Cs"}, "11": {"label": "*3", "atom_type": "Cs"}, "15": {"label": "*2", "atom_type": "H0"}}

>  <type>  (16) 
unop_12

>  <geom_source>  (16) 
Heuristics

$$$$

     RDKit          3D

 18 16  0  0  0  0  0  0  0  0999 V2000
   -0.8611   -0.1190    0.2992 C   0  0  0  0  0  3  0  0  0  0  0  0
   -1.6778    1.1522    0.5026 C   0  0  0  0  0  0  0  0  0  0  0  0
   -1.6801   -1.1999   -0.3975 C   0  0  0  0  0  0  0  0  0  0  0  0
    2.5736   -0.2776    0.2250 C   0  0  0  0  0  0  0  0  0  0  0  0
    1.4992    0.4506   -0.5610 C   0  0  0  0  0  0  0  0  0  0  0  0
   -0.5161   -0.4969    1.2858 H   0  0  0  0  0  0  0  0  0  0  0  0
    0.2259    0.1690   -0.4564 H   0  0  0  0  0  0  0  0  0  0  0  0
   -1.0506    1.9165    1.0074 H   0  0  0  0  0  0  0  0  0  0  0  0
   -2.0094    1.5562   -0.4774 H   0  0  0  0  0  0  0  0  0  0  0  0
   -2.5665    0.9441    1.1359 H   0  0  0  0  0  0  0  0  0  0  0  0
   -1.0546   -2.1069   -0.5322 H   0  0  0  0  0  0  0  0  0  0  0  0
   -2.5688   -1.4661    0.2136 H   0  0  0  0  0  0  0  0  0  0  0  0
   -2.0117   -0.8459   -1.3965 H   0  0  0  0  0  0  0  0  0  0  0  0
    2.5204    0.0211    1.2926 H   0  0  0  0  0  0  0  0  0  0  0  0
    2.4140   -1.3732    0.1464 H   0  0  0  0  0  0  0  0  0  0  0  0
    3.5762   -0.0225   -0.1783 H   0  0  0  0  0  0  0  0  0  0  0  0
    1.6469    1.5481   -0.4800 H   0  0  0  0  0  0  0  0  0  0  0  0
    1.5402    0.1503   -1.6292 H   0  0  0  0  0  0  0  0  0  0  0  0
  1  2  1  0
  1  3  1  0
  1  6  1  0
  2  8  1  0
  2  9  1  0
  2 10  1  0
  3 11  1  0
  3 12  1  0
  3 13  1  0
  4  5  1  0
  4 14  1  0
  4 15  1  0
  4 16  1  0
  5  7  1  0
  5 17  1  0
  5 18  1  0
M  RAD  1   1   2
M  END
>  <reaction>  (17) 
rxn_868

>  <mol_properties>  (17) 
{"0": {"label": "*0", "atom_type": "Cs"}, "1": {"label": "*1", "atom_type": "Cs"}, "10": {"label": "*4", "atom_type": "Cs"}, "11": {"label": "*3", "atom_type": "Cs"}, "15": {"label": "*2", "atom_type": "H0"}}

>  <type>  (17) 
unop_13

>  <geom_source>  (17) 
AutoTST

$$$$

     RDKit          3D

 18 16  0  0  0  0  0  0  0  0999 V2000
   -0.8209    1.5903   -0.2056 C   0  0  0  0  0  0  0  0  0  0  0  0
   -0.1027    0.6665    0.7698 C   0  0  0  0  0  3  0  0  0  0  0  0
    1.1339    1.3096    1.3846 C   0  0  0  0  0  0  0  0  0  0  0  0
   -0.1620    1.8779   -1.0285 H   0  0  0  0  0  0  0  0  0  0  0  0
   -1.7030    1.1124   -0.6351 H   0  0  0  0  0  0  0  0  0  0  0  0
   -1.1459    2.5072    0.2920 H   0  0  0  0  0  0  0  0  0  0  0  0
   -0.7922    0.3698    1.5650 H   0  0  0  0  0  0  0  0  0  0  0  0
    0.8705    2.2177    1.9323 H   0  0  0  0  0  0  0  0  0  0  0  0
    1.6342    0.6333    2.0797 H   0  0  0  0  0  0  0  0  0  0  0  0
    1.8544    1.5884    0.6118 H   0  0  0  0  0  0  0  0  0  0  0  0
   -0.1027   -1.7769   -1.7039 C   0  0  0  0  0  0  0  0  0  0  0  0
   -0.1027   -1.7769   -0.1812 C   0  0  0  0  0  0  0  0  0  0  0  0
   -0.9835   -1.2683   -2.0998 H   0  0  0  0  0  0  0  0  0  0  0  0
    0.7782   -1.2683   -2.0998 H   0  0  0  0  0  0  0  0  0  0  0  0
   -0.1027   -2.7940   -2.0998 H   0  0  0  0  0  0  0  0  0  0  0  0
   -0.1027   -0.5563    0.2939 H   0  0  0  0  0  0  0  0  0  0  0  0
    0.7782   -2.2854    0.2147 H   0  0  0  0  0  0  0  0  0  0  0  0
   -0.9835   -2.2854    0.2147 H   0  0  0  0  0  0  0  0  0  0  0  0
  1  2  1  0
  1  4  1  0
  1  5  1  0
  1  6  1  0
  2  3  1  0
  2  7  1  0
  3  8  1  0
  3  9  1  0
  3 10  1  0
 11 12  1  0
 11 13  1  0
 11 14  1  0
 11 15  1  0
 12 16  1  0
 12 17  1  0
 12 18  1  0
M  RAD  1   2   2
M  END
>  <reaction>  (18) 
rxn_868

>  <mol_properties>  (18) 
{"0": {"label": "*0", "atom_type": "Cs"}, "1": {"label": "*1", "atom_type": "Cs"}, "10": {"label": "*4", "atom_type": "Cs"}, "11": {"label": "*3", "atom_type": "Cs"}, "15": {"label": "*2", "atom_type": "H0"}}

>  <type>  (18) 
unop_14

>  <geom_source>  (18) 
gaussian_log

$$$$
