
     RDKit          3D

  5  4  0  0  0  0  0  0  0  0999 V2000
    0.0000    0.0000    0.0000 C   0  0  0  0  0  0  0  0  0  0  0  0
   -0.6486   -0.7720   -0.4113 H   0  0  0  0  0  0  0  0  0  0  0  0
   -0.3482    0.9787   -0.3267 H   0  0  0  0  0  0  0  0  0  0  0  0
   -0.0223   -0.0487    1.0876 H   0  0  0  0  0  0  0  0  0  0  0  0
    1.0191   -0.1580   -0.3496 H   0  0  0  0  0  0  0  0  0  0  0  0
  1  2  1  0
  1  3  1  0
  1  4  1  0
  1  5  1  0
M  END
>  <reaction>  (1) 
rxn_836

>  <mol_properties>  (1) 
{"0": {"label": "donator", "atom_type": "Cs"}, "1": {"label": "d_hydrogen", "atom_type": "H0"}}

>  <type>  (1) 
r1h

$$$$

     RDKit          3D

 12 11  0  0  0  0  0  0  0  0999 V2000
    2.5164   -0.5559   -0.0242 C   0  0  0  0  0  0  0  0  0  0  0  0
    1.3287   -0.2938   -0.0132 C   0  0  0  0  0  0  0  0  0  0  0  0
   -0.0146    0.0027   -0.0006 C   0  0  0  0  0  3  0  0  0  0  0  0
   -1.0396   -1.0729   -0.1642 C   0  0  0  0  0  0  0  0  0  0  0  0
   -0.4887    1.4091    0.1769 C   0  0  0  0  0  0  0  0  0  0  0  0
    3.5543   -0.7850   -0.0339 H   0  0  0  0  0  0  0  0  0  0  0  0
   -1.7064   -1.1056    0.7044 H   0  0  0  0  0  0  0  0  0  0  0  0
   -0.5831   -2.0533   -0.2854 H   0  0  0  0  0  0  0  0  0  0  0  0
   -1.6716   -0.8741   -1.0367 H   0  0  0  0  0  0  0  0  0  0  0  0
   -1.0951    1.7228   -0.6798 H   0  0  0  0  0  0  0  0  0  0  0  0
    0.3401    2.1059    0.2861 H   0  0  0  0  0  0  0  0  0  0  0  0
   -1.1300    1.4913    1.0613 H   0  0  0  0  0  0  0  0  0  0  0  0
  1  2  3  0
  1  6  1  0
  2  3  1  0
  3  4  1  0
  3  5  1  0
  4  7  1  0
  4  8  1  0
  4  9  1  0
  5 10  1  0
  5 11  1  0
  5 12  1  0
M  RAD  1   3   2
M  END
>  <reaction>  (2) 
rxn_836

>  <mol_properties>  (2) 
{"2": {"label": "acceptor", "atom_type": "Cs"}}

>  <type>  (2) 
r2

$$$$

     RDKit          3D

 13 12  0  0  0  0  0  0  0  0999 V2000
    2.2975   -0.6134    0.7685 C   0  0  0  0  0  0  0  0  0  0  0  0
    1.1676   -0.5248    0.3802 C   0  0  0  0  0  0  0  0  0  0  0  0
   -0.2109   -0.3926   -0.0948 C   0  0  0  0  0  0  0  0  0  0  0  0
   -0.2501    0.2584   -1.4808 C   0  0  0  0  0  0  0  0  0  0  0  0
   -1.0633    0.3831    0.9141 C   0  0  0  0  0  0  0  0  0  0  0  0
    3.2999   -0.6974    1.1133 H   0  0  0  0  0  0  0  0  0  0  0  0
   -0.6209   -1.4038   -0.1814 H   0  0  0  0  0  0  0  0  0  0  0  0
    0.3402   -0.3102   -2.1992 H   0  0  0  0  0  0  0  0  0  0  0  0
    0.1511    1.2724   -1.4369 H   0  0  0  0  0  0  0  0  0  0  0  0
   -1.2791    0.3109   -1.8407 H   0  0  0  0  0  0  0  0  0  0  0  0
   -0.6861    1.4008    1.0287 H   0  0  0  0  0  0  0  0  0  0  0  0
   -1.0492   -0.0971    1.8924 H   0  0  0  0  0  0  0  0  0  0  0  0
   -2.0971    0.4363    0.5680 H   0  0  0  0  0  0  0  0  0  0  0  0
  1  2  3  0
  1  6  1  0
  2  3  1  0
  3  4  1  0
  3  5  1  0
  3  7  1  0
  4  8  1  0
  4  9  1  0
  4 10  1  0
  5 11  1  0
  5 12  1  0
  5 13  1  0
M  END
>  <reaction>  (3) 
rxn_836

>  <mol_properties>  (3) 
{"2": {"label": "acceptor", "atom_type": "Cs"}, "12": {"label": "a_hydrogen", "atom_type": "H0"}}

>  <type>  (3) 
r2h

$$$$

     RDKit          3D

 17 15  0  0  0  0  0  0  0  0999 V2000
   -1.1815    1.4776   -1.4927 C   0  0  0  0  0  0  0  0  0  0  0  0
   -0.6130    0.8560   -0.6367 C   0  0  0  0  0  0  0  0  0  0  0  0
    0.0691    0.0766    0.3652 C   0  0  0  0  0  0  0  0  0  0  0  0
   -0.7607   -0.1746    1.6133 C   0  0  0  0  0  0  0  0  0  0  0  0
    1.4837    0.5529    0.6511 C   0  0  0  0  0  0  0  0  0  0  0  0
   -1.6848    2.0350   -2.2453 H   0  0  0  0  0  0  0  0  0  0  0  0
   -0.2481   -0.8834    2.2668 H   0  0  0  0  0  0  0  0  0  0  0  0
   -1.7390   -0.5825    1.3588 H   0  0  0  0  0  0  0  0  0  0  0  0
   -0.9140    0.7534    2.1703 H   0  0  0  0  0  0  0  0  0  0  0  0
    1.4721    1.5267    1.1474 H   0  0  0  0  0  0  0  0  0  0  0  0
    2.0593    0.6486   -0.2696 H   0  0  0  0  0  0  0  0  0  0  0  0
    1.9920   -0.1573    1.3064 H   0  0  0  0  0  0  0  0  0  0  0  0
    0.4327   -2.4061   -0.6637 C   0  0  0  0  0  3  0  0  0  0  0  0
    0.2168   -1.0562   -0.1467 H   0  0  0  0  0  0  0  0  0  0  0  0
    0.9448   -2.9185    0.1437 H   0  0  0  0  0  0  0  0  0  0  0  0
   -0.5786   -2.7461   -0.8578 H   0  0  0  0  0  0  0  0  0  0  0  0
    1.0329   -2.2239   -1.5484 H   0  0  0  0  0  0  0  0  0  0  0  0
  1  2  3  0
  1  6  1  0
  2  3  1  0
  3  4  1  0
  3  5  1  0
  3 14  1  0
  4  7  1  0
  4  8  1  0
  4  9  1  0
  5 10  1  0
  5 11  1  0
  5 12  1  0
 13 15  1  0
 13 16  1  0
 13 17  1  0
M  RAD  1  13   2
M  END
>  <reaction>  (4) 
rxn_836

>  <mol_properties>  (4) 
{"1": {"label": "*0", "atom_type": "Ct"}, "2": {"label": "*1", "atom_type": "Cs"}, "12": {"label": "*3", "atom_type": "Cs"}, "13": {"label": "*2", "atom_type": "H0"}, "14": {"label": "*4", "atom_type": "H0"}}

>  <type>  (4) 
ts

$$$$

     RDKit          3D

 17 15  0  0  0  0  0  0  0  0999 V2000
   -1.9647    0.6034    1.2373 C   0  0  0  0  0  0  0  0  0  0  0  0
   -0.9834    0.4499    0.5673 C   0  0  0  0  0  0  0  0  0  0  0  0
    0.2281    0.2759   -0.2360 C   0  0  0  0  0  3  0  0  0  0  0  0
    1.3188   -0.4367    0.5693 C   0  0  0  0  0  0  0  0  0  0  0  0
    0.7197    1.6209   -0.7796 C   0  0  0  0  0  0  0  0  0  0  0  0
   -2.8356    0.7396    1.8319 H   0  0  0  0  0  0  0  0  0  0  0  0
    2.1996   -0.5983   -0.0547 H   0  0  0  0  0  0  0  0  0  0  0  0
    0.9704   -1.4026    0.9346 H   0  0  0  0  0  0  0  0  0  0  0  0
    1.6130    0.1670    1.4297 H   0  0  0  0  0  0  0  0  0  0  0  0
    0.9962    2.2853    0.0410 H   0  0  0  0  0  0  0  0  0  0  0  0
   -0.0532    2.1128   -1.3700 H   0  0  0  0  0  0  0  0  0  0  0  0
    1.5970    1.4712   -1.4114 H   0  0  0  0  0  0  0  0  0  0  0  0
    0.2281   -2.1945   -1.1095 C   0  0  0  0  0  0  0  0  0  0  0  0
    0.2281   -0.9625   -0.6739 H   0  0  0  0  0  0  0  0  0  0  0  0
    1.1172   -2.7078   -0.7465 H   0  0  0  0  0  0  0  0  0  0  0  0
   -0.6610   -2.7078   -0.7465 H   0  0  0  0  0  0  0  0  0  0  0  0
    0.2281   -2.1945   -2.1984 H   0  0  0  0  0  0  0  0  0  0  0  0
  1  2  3  0
  1  6  1  0
  2  3  1  0
  3  4  1  0
  3  5  1  0
  4  7  1  0
  4  8  1  0
  4  9  1  0
  5 10  1  0
  5 11  1  0
  5 12  1  0
 13 14  1  0
 13 15  1  0
 13 16  1  0
 13 17  1  0
M  RAD  1   3   2
M  END
>  <reaction>  (5) 
rxn_836

>  <mol_properties>  (5) 
{"1": {"label": "*0", "atom_type": "Ct"}, "2": {"label": "*1", "atom_type": "Cs"}, "12": {"label": "*3", "atom_type": "Cs"}, "13": {"label": "*2", "atom_type": "H0"}, "14": {"label": "*4", "atom_type": "H0"}}

>  <type>  (5) 
unop_1

>  <geom_source>  (5) 
Heuristics

$$$$

     RDKit          3D

 17 15  0  0  0  0  0  0  0  0999 V2000
   -1.0331    1.5369   -1.5129 C   0  0  0  0  0  0  0  0  0  0  0  0
   -0.4582    0.8592   -0.7094 C   0  0  0  0  0  0  0  0  0  0  0  0
    0.2412    0.0483    0.2888 C   0  0  0  0  0  3  0  0  0  0  0  0
   -0.6861   -0.2966    1.4582 C   0  0  0  0  0  0  0  0  0  0  0  0
    1.5132    0.7532    0.7700 C   0  0  0  0  0  0  0  0  0  0  0  0
   -1.5434    2.1383   -2.2261 H   0  0  0  0  0  0  0  0  0  0  0  0
   -0.1654   -0.9367    2.1726 H   0  0  0  0  0  0  0  0  0  0  0  0
   -1.5787   -0.8174    1.1119 H   0  0  0  0  0  0  0  0  0  0  0  0
   -1.0006    0.6114    1.9756 H   0  0  0  0  0  0  0  0  0  0  0  0
    1.2635    1.6922    1.2671 H   0  0  0  0  0  0  0  0  0  0  0  0
    2.1787    0.9761   -0.0638 H   0  0  0  0  0  0  0  0  0  0  0  0
    2.0466    0.1191    1.4804 H   0  0  0  0  0  0  0  0  0  0  0  0
    0.2412   -2.4222   -0.5846 C   0  0  0  0  0  0  0  0  0  0  0  0
    0.2412   -1.1902   -0.1490 H   0  0  0  0  0  0  0  0  0  0  0  0
    1.1303   -2.9355   -0.2216 H   0  0  0  0  0  0  0  0  0  0  0  0
   -0.6479   -2.9355   -0.2216 H   0  0  0  0  0  0  0  0  0  0  0  0
    0.2412   -2.4222   -1.6735 H   0  0  0  0  0  0  0  0  0  0  0  0
  1  2  3  0
  1  6  1  0
  2  3  1  0
  3  4  1  0
  3  5  1  0
  4  7  1  0
  4  8  1  0
  4  9  1  0
  5 10  1  0
  5 11  1  0
  5 12  1  0
 13 14  1  0
 13 15  1  0
 13 16  1  0
 13 17  1  0
M  RAD  1   3   2
M  END
>  <reaction>  (6) 
rxn_836

>  <mol_properties>  (6) 
{"1": {"label": "*0", "atom_type": "Ct"}, "2": {"label": "*1", "atom_type": "Cs"}, "12": {"label": "*3", "atom_type": "Cs"}, "13": {"label": "*2", "atom_type": "H0"}, "14": {"label": "*4", "atom_type": "H0"}}

>  <type>  (6) 
unop_2

>  <geom_source>  (6) 
Heuristics

$$$$

     RDKit          3D

 17 15  0  0  0  0  0  0  0  0999 V2000
   -1.1878    0.2874    2.0585 C   0  0  0  0  0  0  0  0  0  0  0  0
   -0.6257    0.2689    1.0006 C   0  0  0  0  0  0  0  0  0  0  0  0
    0.0738    0.2657   -0.2855 C   0  0  0  0  0  3  0  0  0  0  0  0
    1.5781    0.0563   -0.0876 C   0  0  0  0  0  0  0  0  0  0  0  0
   -0.2162    1.5506   -1.0672 C   0  0  0  0  0  0  0  0  0  0  0  0
   -1.6867    0.3038    2.9973 H   0  0  0  0  0  0  0  0  0  0  0  0
    2.0805    0.0125   -1.0556 H   0  0  0  0  0  0  0  0  0  0  0  0
    1.7789   -0.8705    0.4498 H   0  0  0  0  0  0  0  0  0  0  0  0
    2.0056    0.8814    0.4847 H   0  0  0  0  0  0  0  0  0  0  0  0
    0.1583    2.4198   -0.5238 H   0  0  0  0  0  0  0  0  0  0  0  0
   -1.2867    1.6826   -1.2239 H   0  0  0  0  0  0  0  0  0  0  0  0
    0.2758    1.5155   -2.0409 H   0  0  0  0  0  0  0  0  0  0  0  0
    0.0738   -2.2048   -1.1589 C   0  0  0  0  0  0  0  0  0  0  0  0
    0.0738   -0.9728   -0.7234 H   0  0  0  0  0  0  0  0  0  0  0  0
    0.9629   -2.7181   -0.7960 H   0  0  0  0  0  0  0  0  0  0  0  0
   -0.8154   -2.7181   -0.7960 H   0  0  0  0  0  0  0  0  0  0  0  0
    0.0738   -2.2048   -2.2479 H   0  0  0  0  0  0  0  0  0  0  0  0
  1  2  3  0
  1  6  1  0
  2  3  1  0
  3  4  1  0
  3  5  1  0
  4  7  1  0
  4  8  1  0
  4  9  1  0
  5 10  1  0
  5 11  1  0
  5 12  1  0
 13 14  1  0
 13 15  1  0
 13 16  1  0
 13 17  1  0
M  RAD  1   3   2
M  END
>  <reaction>  (7) 
rxn_836

>  <mol_properties>  (7) 
{"1": {"label": "*0", "atom_type": "Ct"}, "2": {"label": "*1", "atom_type": "Cs"}, "12": {"label": "*3", "atom_type": "Cs"}, "13": {"label": "*2", "atom_type": "H0"}, "14": {"label": "*4", "atom_type": "H0"}}

>  <type>  (7) 
unop_3

>  <geom_source>  (7) 
Heuristics

$$$$

     RDKit          3D

 17 15  0  0  0  0  0  0  0  0999 V2000
    1.8330    1.3125   -0.8113 C   0  0  0  0  0  0  0  0  0  0  0  0
    0.8409    0.7774   -0.4055 C   0  0  0  0  0  0  0  0  0  0  0  0
   -0.3706    0.1372    0.1100 C   0  0  0  0  0  3  0  0  0  0  0  0
   -1.5002    1.1588    0.2731 C   0  0  0  0  0  0  0  0  0  0  0  0
   -0.0831   -0.5963    1.4236 C   0  0  0  0  0  0  0  0  0  0  0  0
    2.7136    1.7874   -1.1714 H   0  0  0  0  0  0  0  0  0  0  0  0
   -2.4087    0.6607    0.6162 H   0  0  0  0  0  0  0  0  0  0  0  0
   -1.7150    1.6614   -0.6699 H   0  0  0  0  0  0  0  0  0  0  0  0
   -1.2249    1.9169    1.0083 H   0  0  0  0  0  0  0  0  0  0  0  0
    0.2340    0.1101    2.1928 H   0  0  0  0  0  0  0  0  0  0  0  0
    0.7061   -1.3371    1.2959 H   0  0  0  0  0  0  0  0  0  0  0  0
   -0.9834   -1.1045    1.7734 H   0  0  0  0  0  0  0  0  0  0  0  0
   -0.3706   -2.3333   -0.7634 C   0  0  0  0  0  0  0  0  0  0  0  0
   -0.3706   -1.1013   -0.3278 H   0  0  0  0  0  0  0  0  0  0  0  0
    0.5185   -2.8466   -0.4004 H   0  0  0  0  0  0  0  0  0  0  0  0
   -1.2597   -2.8466   -0.4004 H   0  0  0  0  0  0  0  0  0  0  0  0
   -0.3706   -2.3333   -1.8523 H   0  0  0  0  0  0  0  0  0  0  0  0
  1  2  3  0
  1  6  1  0
  2  3  1  0
  3  4  1  0
  3  5  1  0
  4  7  1  0
  4  8  1  0
  4  9  1  0
  5 10  1  0
  5 11  1  0
  5 12  1  0
 13 14  1  0
 13 15  1  0
 13 16  1  0
 13 17  1  0
M  RAD  1   3   2
M  END
>  <reaction>  (8) 
rxn_836

>  <mol_properties>  (8) 
{"1": {"label": "*0", "atom_type": "Ct"}, "2": {"label": "*1", "atom_type": "Cs"}, "12": {"label": "*3", "atom_type": "Cs"}, "13": {"label": "*2", "atom_type": "H0"}, "14": {"label": "*4", "atom_type": "H0"}}

>  <type>  (8) 
unop_4

>  <geom_source>  (8) 
Heuristics

$$$$

     RDKit          3D

 17 15  0  0  0  0  0  0  0  0999 V2000
    0.0000    0.1468    2.3844 C   0  0  0  0  0  0  0  0  0  0  0  0
   -0.0000    0.1756    1.1866 C   0  0  0  0  0  0  0  0  0  0  0  0
   -0.0000    0.2349   -0.2762 C   0  0  0  0  0  3  0  0  0  0  0  0
    1.2661    0.9240   -0.7941 C   0  0  0  0  0  0  0  0  0  0  0  0
   -1.2661    0.9240   -0.7941 C   0  0  0  0  0  0  0  0  0  0  0  0
    0.0000    0.1211    3.4474 H   0  0  0  0  0  0  0  0  0  0  0  0
    1.2735    0.9223   -1.8855 H   0  0  0  0  0  0  0  0  0  0  0  0
    2.1632    0.4160   -0.4403 H   0  0  0  0  0  0  0  0  0  0  0  0
    1.3035    1.9595   -0.4515 H   0  0  0  0  0  0  0  0  0  0  0  0
   -1.3035    1.9595   -0.4515 H   0  0  0  0  0  0  0  0  0  0  0  0
   -2.1632    0.4160   -0.4403 H   0  0  0  0  0  0  0  0  0  0  0  0
   -1.2735    0.9223   -1.8855 H   0  0  0  0  0  0  0  0  0  0  0  0
   -0.0000   -2.2356   -1.1496 C   0  0  0  0  0  0  0  0  0  0  0  0
   -0.0000   -1.0036   -0.7140 H   0  0  0  0  0  0  0  0  0  0  0  0
    0.8891   -2.7489   -0.7866 H   0  0  0  0  0  0  0  0  0  0  0  0
   -0.8891   -2.7489   -0.7866 H   0  0  0  0  0  0  0  0  0  0  0  0
   -0.0000   -2.2356   -2.2385 H   0  0  0  0  0  0  0  0  0  0  0  0
  1  2  3  0
  1  6  1  0
  2  3  1  0
  3  4  1  0
  3  5  1  0
  4  7  1  0
  4  8  1  0
  4  9  1  0
  5 10  1  0
  5 11  1  0
  5 12  1  0
 13 14  1  0
 13 15  1  0
 13 16  1  0
 13 17  1  0
M  RAD  1   3   2
M  END
>  <reaction>  (9) 
rxn_836

>  <mol_properties>  (9) 
{"1": {"label": "*0", "atom_type": "Ct"}, "2": {"label": "*1", "atom_type": "Cs"}, "12": {"label": "*3", "atom_type": "Cs"}, "13": {"label": "*2", "atom_type": "H0"}, "14": {"label": "*4", "atom_type": "H0"}}

>  <type>  (9) 
unop_5

>  <geom_source>  (9) 
Heuristics

$$$$

     RDKit          3D

 17 15  0  0  0  0  0  0  0  0999 V2000
    2.1838    0.9757    0.1880 C   0  0  0  0  0  0  0  0  0  0  0  0
    1.0437    0.6329    0.0539 C   0  0  0  0  0  0  0  0  0  0  0  0
   -0.3552    0.2258   -0.0901 C   0  0  0  0  0  3  0  0  0  0  0  0
   -1.2630    1.4468   -0.2675 C   0  0  0  0  0  0  0  0  0  0  0  0
   -0.7976   -0.6349    1.0972 C   0  0  0  0  0  0  0  0  0  0  0  0
    3.1957    1.2800    0.3071 H   0  0  0  0  0  0  0  0  0  0  0  0
   -2.2957    1.1268   -0.4170 H   0  0  0  0  0  0  0  0  0  0  0  0
   -0.9566    2.0431   -1.1268 H   0  0  0  0  0  0  0  0  0  0  0  0
   -1.2246    2.0820    0.6191 H   0  0  0  0  0  0  0  0  0  0  0  0
   -0.7455   -0.0611    2.0241 H   0  0  0  0  0  0  0  0  0  0  0  0
   -0.1615   -1.5134    1.2047 H   0  0  0  0  0  0  0  0  0  0  0  0
   -1.8276   -0.9669    0.9556 H   0  0  0  0  0  0  0  0  0  0  0  0
   -0.3552   -2.2446   -0.9635 C   0  0  0  0  0  0  0  0  0  0  0  0
   -0.3552   -1.0126   -0.5279 H   0  0  0  0  0  0  0  0  0  0  0  0
    0.5339   -2.7579   -0.6005 H   0  0  0  0  0  0  0  0  0  0  0  0
   -1.2443   -2.7579   -0.6005 H   0  0  0  0  0  0  0  0  0  0  0  0
   -0.3552   -2.2446   -2.0524 H   0  0  0  0  0  0  0  0  0  0  0  0
  1  2  3  0
  1  6  1  0
  2  3  1  0
  3  4  1  0
  3  5  1  0
  4  7  1  0
  4  8  1  0
  4  9  1  0
  5 10  1  0
  5 11  1  0
  5 12  1  0
 13 14  1  0
 13 15  1  0
 13 16  1  0
 13 17  1  0
M  RAD  1   3   2
M  END
>  <reaction>  (10) 
rxn_836

>  <mol_properties>  (10) 
{"1": {"label": "*0", "atom_type": "Ct"}, "2": {"label": "*1", "atom_type": "Cs"}, "12": {"label": "*3", "atom_type": "Cs"}, "13": {"label": "*2", "atom_type": "H0"}, "14": {"label": "*4", "atom_type": "H0"}}

>  <type>  (10) 
unop_6

>  <geom_source>  (10) 
Heuristics

$$$$

     RDKit          3D

 17 15  0  0  0  0  0  0  0  0999 V2000
    1.9647    0.6034    1.2373 C   0  0  0  0  0  0  0  0  0  0  0  0
    0.9834    0.4499    0.5673 C   0  0  0  0  0  0  0  0  0  0  0  0
   -0.2281    0.2759   -0.2360 C   0  0  0  0  0  3  0  0  0  0  0  0
   -0.7197    1.6209   -0.7796 C   0  0  0  0  0  0  0  0  0  0  0  0
   -1.3188   -0.4367    0.5693 C   0  0  0  0  0  0  0  0  0  0  0  0
    2.8356    0.7396    1.8319 H   0  0  0  0  0  0  0  0  0  0  0  0
   -1.5970    1.4712   -1.4114 H   0  0  0  0  0  0  0  0  0  0  0  0
    0.0532    2.1128   -1.3700 H   0  0  0  0  0  0  0  0  0  0  0  0
   -0.9962    2.2853    0.0410 H   0  0  0  0  0  0  0  0  0  0  0  0
   -1.6130    0.1670    1.4297 H   0  0  0  0  0  0  0  0  0  0  0  0
   -0.9704   -1.4026    0.9346 H   0  0  0  0  0  0  0  0  0  0  0  0
   -2.1996   -0.5983   -0.0547 H   0  0  0  0  0  0  0  0  0  0  0  0
   -0.2281   -2.1945   -1.1095 C   0  0  0  0  0  0  0  0  0  0  0  0
   -0.2281   -0.9625   -0.6739 H   0  0  0  0  0  0  0  0  0  0  0  0
    0.6610   -2.7078   -0.7465 H   0  0  0  0  0  0  0  0  0  0  0  0
   -1.1172   -2.7078   -0.7465 H   0  0  0  0  0  0  0  0  0  0  0  0
   -0.2281   -2.1945   -2.1984 H   0  0  0  0  0  0  0  0  0  0  0  0
  1  2  3  0
  1  6  1  0
  2  3  1  0
  3  4  1  0
  3  5  1  0
  4  7  1  0
  4  8  1  0
  4  9  1  0
  5 10  1  0
  5 11  1  0
  5 12  1  0
 13 14  1  0
 13 15  1  0
 13 16  1  0
 13 17  1  0
M  RAD  1   3   2
M  END
>  <reaction>  (11) 
rxn_836

>  <mol_properties>  (11) 
{"1": {"label": "*0", "atom_type": "Ct"}, "2": {"label": "*1", "atom_type": "Cs"}, "12": {"label": "*3", "atom_type": "Cs"}, "13": {"label": "*2", "atom_type": "H0"}, "14": {"label": "*4", "atom_type": "H0"}}

>  <type>  (11) 
unop_7

>  <geom_source>  (11) 
Heuristics

$$$$

     RDKit          3D

 17 15  0  0  0  0  0  0  0  0999 V2000
   -2.1838    0.9757    0.1880 C   0  0  0  0  0  0  0  0  0  0  0  0
   -1.0437    0.6329    0.0539 C   0  0  0  0  0  0  0  0  0  0  0  0
    0.3552    0.2258   -0.0901 C   0  0  0  0  0  3  0  0  0  0  0  0
    0.7976   -0.6349    1.0972 C   0  0  0  0  0  0  0  0  0  0  0  0
    1.2630    1.4467   -0.2675 C   0  0  0  0  0  0  0  0  0  0  0  0
   -3.1957    1.2800    0.3071 H   0  0  0  0  0  0  0  0  0  0  0  0
    1.8276   -0.9669    0.9556 H   0  0  0  0  0  0  0  0  0  0  0  0
    0.1615   -1.5134    1.2047 H   0  0  0  0  0  0  0  0  0  0  0  0
    0.7455   -0.0611    2.0241 H   0  0  0  0  0  0  0  0  0  0  0  0
    1.2246    2.0820    0.6191 H   0  0  0  0  0  0  0  0  0  0  0  0
    0.9566    2.0431   -1.1268 H   0  0  0  0  0  0  0  0  0  0  0  0
    2.2957    1.1268   -0.4170 H   0  0  0  0  0  0  0  0  0  0  0  0
    0.3552   -2.2446   -0.9635 C   0  0  0  0  0  0  0  0  0  0  0  0
    0.3552   -1.0126   -0.5279 H   0  0  0  0  0  0  0  0  0  0  0  0
    1.2443   -2.7579   -0.6005 H   0  0  0  0  0  0  0  0  0  0  0  0
   -0.5339   -2.7579   -0.6005 H   0  0  0  0  0  0  0  0  0  0  0  0
    0.3552   -2.2446   -2.0524 H   0  0  0  0  0  0  0  0  0  0  0  0
  1  2  3  0
  1  6  1  0
  2  3  1  0
  3  4  1  0
  3  5  1  0
  4  7  1  0
  4  8  1  0
  4  9  1  0
  5 10  1  0
  5 11  1  0
  5 12  1  0
 13 14  1  0
 13 15  1  0
 13 16  1  0
 13 17  1  0
M  RAD  1   3   2
M  END
>  <reaction>  (12) 
rxn_836

>  <mol_properties>  (12) 
{"1": {"label": "*0", "atom_type": "Ct"}, "2": {"label": "*1", "atom_type": "Cs"}, "12": {"label": "*3", "atom_type": "Cs"}, "13": {"label": "*2", "atom_type": "H0"}, "14": {"label": "*4", "atom_type": "H0"}}

>  <type>  (12) 
unop_8

>  <geom_source>  (12) 
Heuristics

$$$$

     RDKit          3D

 17 15  0  0  0  0  0  0  0  0999 V2000
    1.0331    1.5369   -1.5129 C   0  0  0  0  0  0  0  0  0  0  0  0
    0.4582    0.8592   -0.7094 C   0  0  0  0  0  0  0  0  0  0  0  0
   -0.2412    0.0483    0.2888 C   0  0  0  0  0  3  0  0  0  0  0  0
   -1.5132    0.7532    0.7700 C   0  0  0  0  0  0  0  0  0  0  0  0
    0.6861   -0.2966    1.4582 C   0  0  0  0  0  0  0  0  0  0  0  0
    1.5434    2.1383   -2.2261 H   0  0  0  0  0  0  0  0  0  0  0  0
   -2.0466    0.1191    1.4804 H   0  0  0  0  0  0  0  0  0  0  0  0
   -2.1787    0.9761   -0.0638 H   0  0  0  0  0  0  0  0  0  0  0  0
   -1.2635    1.6922    1.2671 H   0  0  0  0  0  0  0  0  0  0  0  0
    1.0006    0.6114    1.9756 H   0  0  0  0  0  0  0  0  0  0  0  0
    1.5787   -0.8174    1.1119 H   0  0  0  0  0  0  0  0  0  0  0  0
    0.1654   -0.9367    2.1726 H   0  0  0  0  0  0  0  0  0  0  0  0
   -0.2412   -2.4222   -0.5846 C   0  0  0  0  0  0  0  0  0  0  0  0
   -0.2412   -1.1902   -0.1490 H   0  0  0  0  0  0  0  0  0  0  0  0
    0.6479   -2.9355   -0.2216 H   0  0  0  0  0  0  0  0  0  0  0  0
   -1.1303   -2.9355   -0.2216 H   0  0  0  0  0  0  0  0  0  0  0  0
   -0.2412   -2.4222   -1.6735 H   0  0  0  0  0  0  0  0  0  0  0  0
  1  2  3  0
  1  6  1  0
  2  3  1  0
  3  4  1  0
  3  5  1  0
  4  7  1  0
  4  8  1  0
  4  9  1  0
  5 10  1  0
  5 11  1  0
  5 12  1  0
 13 14  1  0
 13 15  1  0
 13 16  1  0
 13 17  1  0
M  RAD  1   3   2
M  END
>  <reaction>  (13) 
rxn_836

>  <mol_properties>  (13) 
{"1": {"label": "*0", "atom_type": "Ct"}, "2": {"label": "*1", "atom_type": "Cs"}, "12": {"label": "*3", "atom_type": "Cs"}, "13": {"label": "*2", "atom_type": "H0"}, "14": {"label": "*4", "atom_type": "H0"}}

>  <type>  (13) 
unop_9

>  <geom_source>  (13) 
Heuristics

$$$$

     RDKit          3D

 17 15  0  0  0  0  0  0  0  0999 V2000
   -1.8330    1.3125   -0.8113 C   0  0  0  0  0  0  0  0  0  0  0  0
   -0.8409    0.7774   -0.4055 C   0  0  0  0  0  0  0  0  0  0  0  0
    0.3706    0.1372    0.1100 C   0  0  0  0  0  3  0  0  0  0  0  0
    0.0831   -0.5963    1.4236 C   0  0  0  0  0  0  0  0  0  0  0  0
    1.5002    1.1588    0.2731 C   0  0  0  0  0  0  0  0  0  0  0  0
   -2.7136    1.7874   -1.1714 H   0  0  0  0  0  0  0  0  0  0  0  0
    0.9834   -1.1045    1.7734 H   0  0  0  0  0  0  0  0  0  0  0  0
   -0.7061   -1.3371    1.2959 H   0  0  0  0  0  0  0  0  0  0  0  0
   -0.2340    0.1101    2.1928 H   0  0  0  0  0  0  0  0  0  0  0  0
    1.2249    1.9169    1.0083 H   0  0  0  0  0  0  0  0  0  0  0  0
    1.7150    1.6614   -0.6699 H   0  0  0  0  0  0  0  0  0  0  0  0
    2.4087    0.6607    0.6162 H   0  0  0  0  0  0  0  0  0  0  0  0
    0.3706   -2.3333   -0.7634 C   0  0  0  0  0  0  0  0  0  0  0  0
    0.3706   -1.1013   -0.3278 H   0  0  0  0  0  0  0  0  0  0  0  0
    1.2597   -2.8466   -0.4004 H   0  0  0  0  0  0  0  0  0  0  0  0
   -0.5185   -2.8466   -0.4004 H   0  0  0  0  0  0  0  0  0  0  0  0
    0.3706   -2.3333   -1.8523 H   0  0  0  0  0  0  0  0  0  0  0  0
  1  2  3  0
  1  6  1  0
  2  3  1  0
  3  4  1  0
  3  5  1  0
  4  7  1  0
  4  8  1  0
  4  9  1  0
  5 10  1  0
  5 11  1  0
  5 12  1  0
 13 14  1  0
 13 15  1  0
 13 16  1  0
 13 17  1  0
M  RAD  1   3   2
M  END
>  <reaction>  (14) 
rxn_836

>  <mol_properties>  (14) 
{"1": {"label": "*0", "atom_type": "Ct"}, "2": {"label": "*1", "atom_type": "Cs"}, "12": {"label": "*3", "atom_type": "Cs"}, "13": {"label": "*2", "atom_type": "H0"}, "14": {"label": "*4", "atom_type": "H0"}}

>  <type>  (14) 
unop_10

>  <geom_source>  (14) 
Heuristics

$$$$

     RDKit          3D

 17 15  0  0  0  0  0  0  0  0999 V2000
    1.1878    0.2874    2.0585 C   0  0  0  0  0  0  0  0  0  0  0  0
    0.6257    0.2689    1.0006 C   0  0  0  0  0  0  0  0  0  0  0  0
   -0.0738    0.2657   -0.2855 C   0  0  0  0  0  3  0  0  0  0  0  0
    0.2162    1.5506   -1.0672 C   0  0  0  0  0  0  0  0  0  0  0  0
   -1.5781    0.0563   -0.0876 C   0  0  0  0  0  0  0  0  0  0  0  0
    1.6867    0.3038    2.9973 H   0  0  0  0  0  0  0  0  0  0  0  0
   -0.2758    1.5155   -2.0409 H   0  0  0  0  0  0  0  0  0  0  0  0
    1.2867    1.6826   -1.2239 H   0  0  0  0  0  0  0  0  0  0  0  0
   -0.1583    2.4198   -0.5238 H   0  0  0  0  0  0  0  0  0  0  0  0
   -2.0056    0.8814    0.4847 H   0  0  0  0  0  0  0  0  0  0  0  0
   -1.7789   -0.8705    0.4498 H   0  0  0  0  0  0  0  0  0  0  0  0
   -2.0805    0.0125   -1.0556 H   0  0  0  0  0  0  0  0  0  0  0  0
   -0.0738   -2.2048   -1.1589 C   0  0  0  0  0  0  0  0  0  0  0  0
   -0.0738   -0.9728   -0.7234 H   0  0  0  0  0  0  0  0  0  0  0  0
    0.8154   -2.7181   -0.7960 H   0  0  0  0  0  0  0  0  0  0  0  0
   -0.9629   -2.7181   -0.7960 H   0  0  0  0  0  0  0  0  0  0  0  0
   -0.0738   -2.2048   -2.2479 H   0  0  0  0  0  0  0  0  0  0  0  0
  1  2  3  0
  1  6  1  0
  2  3  1  0
  3  4  1  0
  3  5  1  0
  4  7  1  0
  4  8  1  0
  4  9  1  0
  5 10  1  0
  5 11  1  0
  5 12  1  0
 13 14  1  0
 13 15  1  0
 13 16  1  0
 13 17  1  0
M  RAD  1   3   2
M  END
>  <reaction>  (15) 
rxn_836

>  <mol_properties>  (15) 
{"1": {"label": "*0", "atom_type": "Ct"}, "2": {"label": "*1", "atom_type": "Cs"}, "12": {"label": "*3", "atom_type": "Cs"}, "13": {"label": "*2", "atom_type": "H0"}, "14": {"label": "*4", "atom_type": "H0"}}

>  <type>  (15) 
unop_11

>  <geom_source>  (15) 
Heuristics

$$$$

     RDKit          3D

 17 15  0  0  0  0  0  0  0  0999 V2000
   -0.0000    1.6128   -1.7623 C   0  0  0  0  0  0  0  0  0  0  0  0
    0.0000    0.8825   -0.8125 C   0  0  0  0  0  0  0  0  0  0  0  0
    0.0000    0.0091    0.3624 C   0  0  0  0  0  3  0  0  0  0  0  0
   -1.2661    0.2196    1.1984 C   0  0  0  0  0  0  0  0  0  0  0  0
    1.2661    0.2196    1.1984 C   0  0  0  0  0  0  0  0  0  0  0  0
   -0.0000    2.2610   -2.6052 H   0  0  0  0  0  0  0  0  0  0  0  0
   -1.2735   -0.4678    2.0462 H   0  0  0  0  0  0  0  0  0  0  0  0
   -2.1632    0.0468    0.6039 H   0  0  0  0  0  0  0  0  0  0  0  0
   -1.3035    1.2403    1.5828 H   0  0  0  0  0  0  0  0  0  0  0  0
    1.3035    1.2403    1.5828 H   0  0  0  0  0  0  0  0  0  0  0  0
    2.1632    0.0468    0.6039 H   0  0  0  0  0  0  0  0  0  0  0  0
    1.2735   -0.4678    2.0462 H   0  0  0  0  0  0  0  0  0  0  0  0
    0.0000   -2.4614   -0.5110 C   0  0  0  0  0  0  0  0  0  0  0  0
    0.0000   -1.2294   -0.0754 H   0  0  0  0  0  0  0  0  0  0  0  0
    0.8891   -2.9747   -0.1480 H   0  0  0  0  0  0  0  0  0  0  0  0
   -0.8891   -2.9747   -0.1480 H   0  0  0  0  0  0  0  0  0  0  0  0
    0.0000   -2.4614   -1.5999 H   0  0  0  0  0  0  0  0  0  0  0  0
  1  2  3  0
  1  6  1  0
  2  3  1  0
  3  4  1  0
  3  5  1  0
  4  7  1  0
  4  8  1  0
  4  9  1  0
  5 10  1  0
  5 11  1  0
  5 12  1  0
 13 14  1  0
 13 15  1  0
 13 16  1  0
 13 17  1  0
M  RAD  1   3   2
M  END
>  <reaction>  (16) 
rxn_836

>  <mol_properties>  (16) 
{"1": {"label": "*0", "atom_type": "Ct"}, "2": {"label": "*1", "atom_type": "Cs"}, "12": {"label": "*3", "atom_type": "Cs"}, "13": {"label": "*2", "atom_type": "H0"}, "14": {"label": "*4", "atom_type": "H0"}}

>  <type>  (16) 
unop_12

>  <geom_source>  (16) 
Heuristics

$$$$

     RDKit          3D

 17 15  0  0  0  0  0  0  0  0999 V2000
    0.2816   -0.0634    0.2458 C   0  0  0  0  0  3  0  0  0  0  0  0
    1.0168   -1.3529   -0.1209 C   0  0  0  0  0  0  0  0  0  0  0  0
    0.3957    0.2271    1.7425 C   0  0  0  0  0  0  0  0  0  0  0  0
   -2.0517   -0.1143   -0.8891 C   0  0  0  0  0  0  0  0  0  0  0  0
    0.8208    1.0638   -0.5302 C   0  0  0  0  0  0  0  0  0  0  0  0
    1.2617    1.9879   -1.1668 C   0  0  0  0  0  0  0  0  0  0  0  0
   -1.0889   -0.2171   -0.0807 H   0  0  0  0  0  0  0  0  0  0  0  0
    2.0996   -1.2727    0.1184 H   0  0  0  0  0  0  0  0  0  0  0  0
    0.5856   -2.2076    0.4420 H   0  0  0  0  0  0  0  0  0  0  0  0
    0.9008   -1.5610   -1.2061 H   0  0  0  0  0  0  0  0  0  0  0  0
    1.4589    0.3570    2.0405 H   0  0  0  0  0  0  0  0  0  0  0  0
   -0.1658    1.1522    1.9940 H   0  0  0  0  0  0  0  0  0  0  0  0
   -0.0421   -0.6109    2.3252 H   0  0  0  0  0  0  0  0  0  0  0  0
   -2.1762   -0.8867   -1.6757 H   0  0  0  0  0  0  0  0  0  0  0  0
   -2.8830   -0.1930   -0.1587 H   0  0  0  0  0  0  0  0  0  0  0  0
   -2.0626    0.8927   -1.3547 H   0  0  0  0  0  0  0  0  0  0  0  0
    1.6488    2.7990   -1.7255 H   0  0  0  0  0  0  0  0  0  0  0  0
  1  2  1  0
  1  3  1  0
  1  5  1  0
  2  8  1  0
  2  9  1  0
  2 10  1  0
  3 11  1  0
  3 12  1  0
  3 13  1  0
  4  7  1  0
  4 14  1  0
  4 15  1  0
  4 16  1  0
  5  6  3  0
  6 17  1  0
M  RAD  1   1   2
M  END
>  <reaction>  (17) 
rxn_836

>  <mol_properties>  (17) 
{"1": {"label": "*0", "atom_type": "Ct"}, "2": {"label": "*1", "atom_type": "Cs"}, "12": {"label": "*3", "atom_type": "Cs"}, "13": {"label": "*2", "atom_type": "H0"}, "14": {"label": "*4", "atom_type": "H0"}}

>  <type>  (17) 
unop_13

>  <geom_source>  (17) 
AutoTST

$$$$
