
     RDKit          3D

  6  5  0  0  0  0  0  0  0  0999 V2000
    0.6594    0.0438   -0.0050 C   0  0  0  0  0  0  0  0  0  0  0  0
   -0.6594   -0.0438    0.0050 C   0  0  0  0  0  0  0  0  0  0  0  0
    1.1706    0.8681   -0.4881 H   0  0  0  0  0  0  0  0  0  0  0  0
    1.2824   -0.7051    0.4696 H   0  0  0  0  0  0  0  0  0  0  0  0
   -1.2824    0.7051   -0.4696 H   0  0  0  0  0  0  0  0  0  0  0  0
   -1.1706   -0.8681    0.4881 H   0  0  0  0  0  0  0  0  0  0  0  0
  1  2  2  3
  1  3  1  0
  1  4  1  0
  2  5  1  0
  2  6  1  0
M  END
>  <reaction>  (1) 
rxn_1598

>  <mol_properties>  (1) 
{"1": {"label": "donator", "atom_type": "Cd"}, "4": {"label": "d_hydrogen", "atom_type": "H0"}}

>  <type>  (1) 
r1h

$$$$

     RDKit          3D

  7  6  0  0  0  0  0  0  0  0999 V2000
   -2.0652    0.3855   -0.2963 S   0  0  0  0  0  0  0  0  0  0  0  0
   -0.7169   -0.5853    0.1792 C   0  0  0  0  0  3  0  0  0  0  0  0
    0.5987   -0.2168    0.0254 C   0  0  0  0  0  0  0  0  0  0  0  0
    1.7547    0.1211   -0.1163 C   0  0  0  0  0  0  0  0  0  0  0  0
   -1.3643    1.4227   -0.7731 H   0  0  0  0  0  0  0  0  0  0  0  0
   -0.9781   -1.5363    0.6220 H   0  0  0  0  0  0  0  0  0  0  0  0
    2.7711    0.4089   -0.2366 H   0  0  0  0  0  0  0  0  0  0  0  0
  1  2  1  0
  1  5  1  0
  2  3  1  0
  2  6  1  0
  3  4  3  0
  4  7  1  0
M  RAD  1   2   2
M  END
>  <reaction>  (2) 
rxn_1598

>  <mol_properties>  (2) 
{"1": {"label": "acceptor", "atom_type": "Cs"}}

>  <type>  (2) 
r2

$$$$

     RDKit          3D

  8  7  0  0  0  0  0  0  0  0999 V2000
   -0.7014    1.0753    1.5530 S   0  0  0  0  0  0  0  0  0  0  0  0
   -0.3105   -0.4583    0.6462 C   0  0  0  0  0  0  0  0  0  0  0  0
    0.0935   -0.2424   -0.7319 C   0  0  0  0  0  0  0  0  0  0  0  0
    0.4431   -0.0604   -1.8621 C   0  0  0  0  0  0  0  0  0  0  0  0
    0.4994    1.6466    1.3970 H   0  0  0  0  0  0  0  0  0  0  0  0
   -1.2277   -1.0477    0.6819 H   0  0  0  0  0  0  0  0  0  0  0  0
    0.4563   -1.0151    1.1841 H   0  0  0  0  0  0  0  0  0  0  0  0
    0.7474    0.1020   -2.8681 H   0  0  0  0  0  0  0  0  0  0  0  0
  1  2  1  0
  1  5  1  0
  2  3  1  0
  2  6  1  0
  2  7  1  0
  3  4  3  0
  4  8  1  0
M  END
>  <reaction>  (3) 
rxn_1598

>  <mol_properties>  (3) 
{"1": {"label": "acceptor", "atom_type": "Cs"}, "7": {"label": "a_hydrogen", "atom_type": "H0"}}

>  <type>  (3) 
r2h

$$$$

     RDKit          3D

 13 11  0  0  0  0  0  0  0  0999 V2000
   -1.1607    1.2438   -0.2224 S   0  0  0  0  0  0  0  0  0  0  0  0
   -0.3734    0.0270    0.8440 C   0  0  0  0  0  0  0  0  0  0  0  0
    0.8083    0.4619    1.5342 C   0  0  0  0  0  0  0  0  0  0  0  0
    1.8284    0.7933    2.0707 C   0  0  0  0  0  0  0  0  0  0  0  0
   -0.0615    1.5583   -0.9203 H   0  0  0  0  0  0  0  0  0  0  0  0
   -1.1377   -0.3541    1.5203 H   0  0  0  0  0  0  0  0  0  0  0  0
    2.7237    1.0961    2.5580 H   0  0  0  0  0  0  0  0  0  0  0  0
   -0.4220   -2.0413   -1.8959 C   0  0  0  0  0  0  0  0  0  0  0  0
    0.2325   -2.0787   -0.7639 C   0  0  0  0  0  3  0  0  0  0  0  0
   -1.1311   -1.2468   -2.1128 H   0  0  0  0  0  0  0  0  0  0  0  0
   -0.2836   -2.7996   -2.6648 H   0  0  0  0  0  0  0  0  0  0  0  0
   -0.0673   -0.9463    0.1548 H   0  0  0  0  0  0  0  0  0  0  0  0
    0.9645   -2.7794   -0.3828 H   0  0  0  0  0  0  0  0  0  0  0  0
  1  2  1  0
  1  5  1  0
  2  3  1  0
  2  6  1  0
  2 12  1  0
  3  4  3  0
  4  7  1  0
  8  9  2  3
  8 10  1  0
  8 11  1  0
  9 13  1  0
M  RAD  1   9   2
M  END
>  <reaction>  (4) 
rxn_1598

>  <mol_properties>  (4) 
{"0": {"label": "*0", "atom_type": "S2s"}, "1": {"label": "*1", "atom_type": "Cs"}, "7": {"label": "*4", "atom_type": "Cd"}, "8": {"label": "*3", "atom_type": "Cd"}, "11": {"label": "*2", "atom_type": "H0"}}

>  <type>  (4) 
ts

$$$$

     RDKit          3D

 13 11  0  0  0  0  0  0  0  0999 V2000
   -1.2223    0.0924    1.2966 S   0  0  0  0  0  0  0  0  0  0  0  0
    0.3040    0.1542    0.2997 C   0  0  0  0  0  3  0  0  0  0  0  0
    0.8236    1.4953    0.0985 C   0  0  0  0  0  0  0  0  0  0  0  0
    1.2519    2.6006   -0.0674 C   0  0  0  0  0  0  0  0  0  0  0  0
   -0.7088    0.6790    2.3851 H   0  0  0  0  0  0  0  0  0  0  0  0
    1.0649   -0.4772    0.7575 H   0  0  0  0  0  0  0  0  0  0  0  0
    1.6325    3.5826   -0.2148 H   0  0  0  0  0  0  0  0  0  0  0  0
    0.3040   -2.0675   -2.3907 C   0  0  0  0  0  0  0  0  0  0  0  0
    0.3040   -2.0675   -1.0690 C   0  0  0  0  0  0  0  0  0  0  0  0
    0.3040   -1.1449   -2.9591 H   0  0  0  0  0  0  0  0  0  0  0  0
    0.3040   -2.9900   -2.9591 H   0  0  0  0  0  0  0  0  0  0  0  0
    0.3040   -0.9604   -0.3869 H   0  0  0  0  0  0  0  0  0  0  0  0
    0.3040   -2.9900   -0.5006 H   0  0  0  0  0  0  0  0  0  0  0  0
  1  2  1  0
  1  5  1  0
  2  3  1  0
  2  6  1  0
  3  4  3  0
  4  7  1  0
  8  9  2  3
  8 10  1  0
  8 11  1  0
  9 12  1  0
  9 13  1  0
M  RAD  1   2   2
M  END
>  <reaction>  (5) 
rxn_1598

>  <mol_properties>  (5) 
{"0": {"label": "*0", "atom_type": "S2s"}, "1": {"label": "*1", "atom_type": "Cs"}, "7": {"label": "*4", "atom_type": "Cd"}, "8": {"label": "*3", "atom_type": "Cd"}, "11": {"label": "*2", "atom_type": "H0"}}

>  <type>  (5) 
unop_1

>  <geom_source>  (5) 
Heuristics

$$$$

     RDKit          3D

 13 11  0  0  0  0  0  0  0  0999 V2000
   -1.0071    1.2217   -0.3936 S   0  0  0  0  0  0  0  0  0  0  0  0
   -0.1260    0.0207    0.6592 C   0  0  0  0  0  3  0  0  0  0  0  0
    1.0393    0.5682    1.3311 C   0  0  0  0  0  0  0  0  0  0  0  0
    1.9997    1.0194    1.8849 C   0  0  0  0  0  0  0  0  0  0  0  0
   -1.2666    2.1045    0.5789 H   0  0  0  0  0  0  0  0  0  0  0  0
   -0.8162   -0.3996    1.3901 H   0  0  0  0  0  0  0  0  0  0  0  0
    2.8530    1.4204    2.3770 H   0  0  0  0  0  0  0  0  0  0  0  0
   -0.1260   -2.2009   -2.0313 C   0  0  0  0  0  0  0  0  0  0  0  0
   -0.1260   -2.2009   -0.7095 C   0  0  0  0  0  0  0  0  0  0  0  0
   -0.1260   -1.2783   -2.5997 H   0  0  0  0  0  0  0  0  0  0  0  0
   -0.1260   -3.1235   -2.5997 H   0  0  0  0  0  0  0  0  0  0  0  0
   -0.1260   -1.0938   -0.0275 H   0  0  0  0  0  0  0  0  0  0  0  0
   -0.1260   -3.1235   -0.1411 H   0  0  0  0  0  0  0  0  0  0  0  0
  1  2  1  0
  1  5  1  0
  2  3  1  0
  2  6  1  0
  3  4  3  0
  4  7  1  0
  8  9  2  3
  8 10  1  0
  8 11  1  0
  9 12  1  0
  9 13  1  0
M  RAD  1   2   2
M  END
>  <reaction>  (6) 
rxn_1598

>  <mol_properties>  (6) 
{"0": {"label": "*0", "atom_type": "S2s"}, "1": {"label": "*1", "atom_type": "Cs"}, "7": {"label": "*4", "atom_type": "Cd"}, "8": {"label": "*3", "atom_type": "Cd"}, "11": {"label": "*2", "atom_type": "H0"}}

>  <type>  (6) 
unop_2

>  <geom_source>  (6) 
Heuristics

$$$$

     RDKit          3D

 13 11  0  0  0  0  0  0  0  0999 V2000
   -0.5269   -0.1485    1.7666 S   0  0  0  0  0  0  0  0  0  0  0  0
    0.3543    0.2517    0.2205 C   0  0  0  0  0  3  0  0  0  0  0  0
    0.1440    1.6116   -0.2437 C   0  0  0  0  0  0  0  0  0  0  0  0
   -0.0294    2.7324   -0.6264 C   0  0  0  0  0  0  0  0  0  0  0  0
    0.0435    0.8074    2.5106 H   0  0  0  0  0  0  0  0  0  0  0  0
    1.4194    0.0601    0.3473 H   0  0  0  0  0  0  0  0  0  0  0  0
   -0.1834    3.7283   -0.9663 H   0  0  0  0  0  0  0  0  0  0  0  0
    0.3543   -1.9699   -2.4699 C   0  0  0  0  0  0  0  0  0  0  0  0
    0.3543   -1.9699   -1.1482 C   0  0  0  0  0  0  0  0  0  0  0  0
    0.3543   -1.0473   -3.0383 H   0  0  0  0  0  0  0  0  0  0  0  0
    0.3543   -2.8925   -3.0383 H   0  0  0  0  0  0  0  0  0  0  0  0
    0.3543   -0.8628   -0.4661 H   0  0  0  0  0  0  0  0  0  0  0  0
    0.3543   -2.8925   -0.5798 H   0  0  0  0  0  0  0  0  0  0  0  0
  1  2  1  0
  1  5  1  0
  2  3  1  0
  2  6  1  0
  3  4  3  0
  4  7  1  0
  8  9  2  3
  8 10  1  0
  8 11  1  0
  9 12  1  0
  9 13  1  0
M  RAD  1   2   2
M  END
>  <reaction>  (7) 
rxn_1598

>  <mol_properties>  (7) 
{"0": {"label": "*0", "atom_type": "S2s"}, "1": {"label": "*1", "atom_type": "Cs"}, "7": {"label": "*4", "atom_type": "Cd"}, "8": {"label": "*3", "atom_type": "Cd"}, "11": {"label": "*2", "atom_type": "H0"}}

>  <type>  (7) 
unop_3

>  <geom_source>  (7) 
Heuristics

$$$$

     RDKit          3D

 13 11  0  0  0  0  0  0  0  0999 V2000
    0.9588    1.5214   -0.1907 S   0  0  0  0  0  0  0  0  0  0  0  0
   -0.5674    0.6588    0.3129 C   0  0  0  0  0  3  0  0  0  0  0  0
   -0.3918   -0.2441    1.4367 C   0  0  0  0  0  0  0  0  0  0  0  0
   -0.2470   -0.9883    2.3630 C   0  0  0  0  0  0  0  0  0  0  0  0
    1.1888    2.1106    0.9894 H   0  0  0  0  0  0  0  0  0  0  0  0
   -1.3429    1.3903    0.5383 H   0  0  0  0  0  0  0  0  0  0  0  0
   -0.1184   -1.6495    3.1860 H   0  0  0  0  0  0  0  0  0  0  0  0
   -0.5674   -1.5629   -2.3775 C   0  0  0  0  0  0  0  0  0  0  0  0
   -0.5674   -1.5629   -1.0558 C   0  0  0  0  0  0  0  0  0  0  0  0
   -0.5674   -0.6403   -2.9459 H   0  0  0  0  0  0  0  0  0  0  0  0
   -0.5674   -2.4855   -2.9459 H   0  0  0  0  0  0  0  0  0  0  0  0
   -0.5674   -0.4558   -0.3738 H   0  0  0  0  0  0  0  0  0  0  0  0
   -0.5674   -2.4855   -0.4874 H   0  0  0  0  0  0  0  0  0  0  0  0
  1  2  1  0
  1  5  1  0
  2  3  1  0
  2  6  1  0
  3  4  3  0
  4  7  1  0
  8  9  2  3
  8 10  1  0
  8 11  1  0
  9 12  1  0
  9 13  1  0
M  RAD  1   2   2
M  END
>  <reaction>  (8) 
rxn_1598

>  <mol_properties>  (8) 
{"0": {"label": "*0", "atom_type": "S2s"}, "1": {"label": "*1", "atom_type": "Cs"}, "7": {"label": "*4", "atom_type": "Cd"}, "8": {"label": "*3", "atom_type": "Cd"}, "11": {"label": "*2", "atom_type": "H0"}}

>  <type>  (8) 
unop_4

>  <geom_source>  (8) 
Heuristics

$$$$

     RDKit          3D

 13 11  0  0  0  0  0  0  0  0999 V2000
    0.4111   -0.0414    1.8722 S   0  0  0  0  0  0  0  0  0  0  0  0
    0.4111    0.4826    0.1251 C   0  0  0  0  0  3  0  0  0  0  0  0
   -0.7304    1.3000   -0.2460 C   0  0  0  0  0  0  0  0  0  0  0  0
   -1.6713    1.9737   -0.5518 C   0  0  0  0  0  0  0  0  0  0  0  0
    0.3934    1.1915    2.3937 H   0  0  0  0  0  0  0  0  0  0  0  0
    1.3378    1.0108   -0.0977 H   0  0  0  0  0  0  0  0  0  0  0  0
   -2.5073    2.5723   -0.8236 H   0  0  0  0  0  0  0  0  0  0  0  0
    0.4111   -1.7391   -2.5653 C   0  0  0  0  0  0  0  0  0  0  0  0
    0.4111   -1.7391   -1.2436 C   0  0  0  0  0  0  0  0  0  0  0  0
    0.4111   -0.8165   -3.1337 H   0  0  0  0  0  0  0  0  0  0  0  0
    0.4111   -2.6617   -3.1337 H   0  0  0  0  0  0  0  0  0  0  0  0
    0.4111   -0.6320   -0.5616 H   0  0  0  0  0  0  0  0  0  0  0  0
    0.4111   -2.6617   -0.6752 H   0  0  0  0  0  0  0  0  0  0  0  0
  1  2  1  0
  1  5  1  0
  2  3  1  0
  2  6  1  0
  3  4  3  0
  4  7  1  0
  8  9  2  3
  8 10  1  0
  8 11  1  0
  9 12  1  0
  9 13  1  0
M  RAD  1   2   2
M  END
>  <reaction>  (9) 
rxn_1598

>  <mol_properties>  (9) 
{"0": {"label": "*0", "atom_type": "S2s"}, "1": {"label": "*1", "atom_type": "Cs"}, "7": {"label": "*4", "atom_type": "Cd"}, "8": {"label": "*3", "atom_type": "Cd"}, "11": {"label": "*2", "atom_type": "H0"}}

>  <type>  (9) 
unop_5

>  <geom_source>  (9) 
Heuristics

$$$$

     RDKit          3D

 13 11  0  0  0  0  0  0  0  0999 V2000
    1.3759    1.2357    0.3750 S   0  0  0  0  0  0  0  0  0  0  0  0
   -0.3865    0.8353    0.1283 C   0  0  0  0  0  3  0  0  0  0  0  0
   -0.9110   -0.1300    1.0781 C   0  0  0  0  0  0  0  0  0  0  0  0
   -1.3434   -0.9255    1.8609 C   0  0  0  0  0  0  0  0  0  0  0  0
    1.2500    1.6771    1.6327 H   0  0  0  0  0  0  0  0  0  0  0  0
   -0.9768    1.7506    0.1604 H   0  0  0  0  0  0  0  0  0  0  0  0
   -1.7275   -1.6324    2.5565 H   0  0  0  0  0  0  0  0  0  0  0  0
   -0.3865   -1.3863   -2.5621 C   0  0  0  0  0  0  0  0  0  0  0  0
   -0.3865   -1.3863   -1.2404 C   0  0  0  0  0  0  0  0  0  0  0  0
   -0.3865   -0.4638   -3.1305 H   0  0  0  0  0  0  0  0  0  0  0  0
   -0.3865   -2.3089   -3.1305 H   0  0  0  0  0  0  0  0  0  0  0  0
   -0.3865   -0.2792   -0.5583 H   0  0  0  0  0  0  0  0  0  0  0  0
   -0.3865   -2.3089   -0.6720 H   0  0  0  0  0  0  0  0  0  0  0  0
  1  2  1  0
  1  5  1  0
  2  3  1  0
  2  6  1  0
  3  4  3  0
  4  7  1  0
  8  9  2  3
  8 10  1  0
  8 11  1  0
  9 12  1  0
  9 13  1  0
M  RAD  1   2   2
M  END
>  <reaction>  (10) 
rxn_1598

>  <mol_properties>  (10) 
{"0": {"label": "*0", "atom_type": "S2s"}, "1": {"label": "*1", "atom_type": "Cs"}, "7": {"label": "*4", "atom_type": "Cd"}, "8": {"label": "*3", "atom_type": "Cd"}, "11": {"label": "*2", "atom_type": "H0"}}

>  <type>  (10) 
unop_6

>  <geom_source>  (10) 
Heuristics

$$$$

     RDKit          3D

 13 11  0  0  0  0  0  0  0  0999 V2000
    1.4379    0.8332    1.0124 S   0  0  0  0  0  0  0  0  0  0  0  0
   -0.0883    0.8950    0.0155 C   0  0  0  0  0  3  0  0  0  0  0  0
   -1.2067    0.1791    0.6034 C   0  0  0  0  0  0  0  0  0  0  0  0
   -2.1285   -0.4110    1.0879 C   0  0  0  0  0  0  0  0  0  0  0  0
    0.9151    1.3880    2.1131 H   0  0  0  0  0  0  0  0  0  0  0  0
   -0.3633    1.9334   -0.1672 H   0  0  0  0  0  0  0  0  0  0  0  0
   -2.9475   -0.9353    1.5184 H   0  0  0  0  0  0  0  0  0  0  0  0
   -0.0883   -1.3266   -2.6749 C   0  0  0  0  0  0  0  0  0  0  0  0
   -0.0883   -1.3266   -1.3532 C   0  0  0  0  0  0  0  0  0  0  0  0
   -0.0883   -0.4040   -3.2433 H   0  0  0  0  0  0  0  0  0  0  0  0
   -0.0883   -2.2492   -3.2433 H   0  0  0  0  0  0  0  0  0  0  0  0
   -0.0883   -0.2195   -0.6711 H   0  0  0  0  0  0  0  0  0  0  0  0
   -0.0883   -2.2492   -0.7848 H   0  0  0  0  0  0  0  0  0  0  0  0
  1  2  1  0
  1  5  1  0
  2  3  1  0
  2  6  1  0
  3  4  3  0
  4  7  1  0
  8  9  2  3
  8 10  1  0
  8 11  1  0
  9 12  1  0
  9 13  1  0
M  RAD  1   2   2
M  END
>  <reaction>  (11) 
rxn_1598

>  <mol_properties>  (11) 
{"0": {"label": "*0", "atom_type": "S2s"}, "1": {"label": "*1", "atom_type": "Cs"}, "7": {"label": "*4", "atom_type": "Cd"}, "8": {"label": "*3", "atom_type": "Cd"}, "11": {"label": "*2", "atom_type": "H0"}}

>  <type>  (11) 
unop_7

>  <geom_source>  (11) 
Heuristics

$$$$

     RDKit          3D

 13 11  0  0  0  0  0  0  0  0999 V2000
   -1.5074    0.4779    0.6657 S   0  0  0  0  0  0  0  0  0  0  0  0
    0.2550    0.0775    0.4190 C   0  0  0  0  0  3  0  0  0  0  0  0
    1.1446    1.2164    0.5616 C   0  0  0  0  0  0  0  0  0  0  0  0
    1.8779    2.1552    0.6792 C   0  0  0  0  0  0  0  0  0  0  0  0
   -1.3758    0.9519    1.9109 H   0  0  0  0  0  0  0  0  0  0  0  0
    0.5490   -0.7153    1.1063 H   0  0  0  0  0  0  0  0  0  0  0  0
    2.5294    2.9892    0.7836 H   0  0  0  0  0  0  0  0  0  0  0  0
    0.2550   -2.1442   -2.2714 C   0  0  0  0  0  0  0  0  0  0  0  0
    0.2550   -2.1442   -0.9497 C   0  0  0  0  0  0  0  0  0  0  0  0
    0.2550   -1.2216   -2.8398 H   0  0  0  0  0  0  0  0  0  0  0  0
    0.2550   -3.0668   -2.8398 H   0  0  0  0  0  0  0  0  0  0  0  0
    0.2550   -1.0371   -0.2676 H   0  0  0  0  0  0  0  0  0  0  0  0
    0.2550   -3.0668   -0.3813 H   0  0  0  0  0  0  0  0  0  0  0  0
  1  2  1  0
  1  5  1  0
  2  3  1  0
  2  6  1  0
  3  4  3  0
  4  7  1  0
  8  9  2  3
  8 10  1  0
  8 11  1  0
  9 12  1  0
  9 13  1  0
M  RAD  1   2   2
M  END
>  <reaction>  (12) 
rxn_1598

>  <mol_properties>  (12) 
{"0": {"label": "*0", "atom_type": "S2s"}, "1": {"label": "*1", "atom_type": "Cs"}, "7": {"label": "*4", "atom_type": "Cd"}, "8": {"label": "*3", "atom_type": "Cd"}, "11": {"label": "*2", "atom_type": "H0"}}

>  <type>  (12) 
unop_8

>  <geom_source>  (12) 
Heuristics

$$$$

     RDKit          3D

 13 11  0  0  0  0  0  0  0  0999 V2000
    0.2984    1.6108   -0.5429 S   0  0  0  0  0  0  0  0  0  0  0  0
   -0.5828    0.4099    0.5099 C   0  0  0  0  0  3  0  0  0  0  0  0
    0.2200   -0.1232    1.5964 C   0  0  0  0  0  0  0  0  0  0  0  0
    0.8816   -0.5626    2.4918 C   0  0  0  0  0  0  0  0  0  0  0  0
    0.5883    2.4770    0.4361 H   0  0  0  0  0  0  0  0  0  0  0  0
   -1.4900    0.8667    0.9043 H   0  0  0  0  0  0  0  0  0  0  0  0
    1.4694   -0.9530    3.2874 H   0  0  0  0  0  0  0  0  0  0  0  0
   -0.5828   -1.8117   -2.1806 C   0  0  0  0  0  0  0  0  0  0  0  0
   -0.5828   -1.8117   -0.8588 C   0  0  0  0  0  0  0  0  0  0  0  0
   -0.5828   -0.8892   -2.7489 H   0  0  0  0  0  0  0  0  0  0  0  0
   -0.5828   -2.7343   -2.7489 H   0  0  0  0  0  0  0  0  0  0  0  0
   -0.5828   -0.7046   -0.1768 H   0  0  0  0  0  0  0  0  0  0  0  0
   -0.5828   -2.7343   -0.2904 H   0  0  0  0  0  0  0  0  0  0  0  0
  1  2  1  0
  1  5  1  0
  2  3  1  0
  2  6  1  0
  3  4  3  0
  4  7  1  0
  8  9  2  3
  8 10  1  0
  8 11  1  0
  9 12  1  0
  9 13  1  0
M  RAD  1   2   2
M  END
>  <reaction>  (13) 
rxn_1598

>  <mol_properties>  (13) 
{"0": {"label": "*0", "atom_type": "S2s"}, "1": {"label": "*1", "atom_type": "Cs"}, "7": {"label": "*4", "atom_type": "Cd"}, "8": {"label": "*3", "atom_type": "Cd"}, "11": {"label": "*2", "atom_type": "H0"}}

>  <type>  (13) 
unop_9

>  <geom_source>  (13) 
Heuristics

$$$$

     RDKit          3D

 13 11  0  0  0  0  0  0  0  0999 V2000
   -1.4049    0.8765    0.0567 S   0  0  0  0  0  0  0  0  0  0  0  0
    0.1213    0.0139    0.5603 C   0  0  0  0  0  3  0  0  0  0  0  0
    1.1843    0.9016    0.9972 C   0  0  0  0  0  0  0  0  0  0  0  0
    2.0605    1.6333    1.3573 C   0  0  0  0  0  0  0  0  0  0  0  0
   -1.6157    1.4934    1.2261 H   0  0  0  0  0  0  0  0  0  0  0  0
   -0.1087   -0.7081    1.3433 H   0  0  0  0  0  0  0  0  0  0  0  0
    2.8390    2.2834    1.6772 H   0  0  0  0  0  0  0  0  0  0  0  0
    0.1213   -2.2078   -2.1302 C   0  0  0  0  0  0  0  0  0  0  0  0
    0.1213   -2.2078   -0.8084 C   0  0  0  0  0  0  0  0  0  0  0  0
    0.1213   -1.2852   -2.6985 H   0  0  0  0  0  0  0  0  0  0  0  0
    0.1213   -3.1304   -2.6985 H   0  0  0  0  0  0  0  0  0  0  0  0
    0.1213   -1.1007   -0.1264 H   0  0  0  0  0  0  0  0  0  0  0  0
    0.1213   -3.1304   -0.2400 H   0  0  0  0  0  0  0  0  0  0  0  0
  1  2  1  0
  1  5  1  0
  2  3  1  0
  2  6  1  0
  3  4  3  0
  4  7  1  0
  8  9  2  3
  8 10  1  0
  8 11  1  0
  9 12  1  0
  9 13  1  0
M  RAD  1   2   2
M  END
>  <reaction>  (14) 
rxn_1598

>  <mol_properties>  (14) 
{"0": {"label": "*0", "atom_type": "S2s"}, "1": {"label": "*1", "atom_type": "Cs"}, "7": {"label": "*4", "atom_type": "Cd"}, "8": {"label": "*3", "atom_type": "Cd"}, "11": {"label": "*2", "atom_type": "H0"}}

>  <type>  (14) 
unop_10

>  <geom_source>  (14) 
Heuristics

$$$$

     RDKit          3D

 13 11  0  0  0  0  0  0  0  0999 V2000
    1.1230    0.3804    1.5638 S   0  0  0  0  0  0  0  0  0  0  0  0
    0.2418    0.7805    0.0177 C   0  0  0  0  0  3  0  0  0  0  0  0
   -1.2030    0.6721    0.1167 C   0  0  0  0  0  0  0  0  0  0  0  0
   -2.3938    0.5827    0.1983 C   0  0  0  0  0  0  0  0  0  0  0  0
    0.5269    1.3135    2.3165 H   0  0  0  0  0  0  0  0  0  0  0  0
    0.5202    1.7808   -0.3128 H   0  0  0  0  0  0  0  0  0  0  0  0
   -3.4518    0.5033    0.2708 H   0  0  0  0  0  0  0  0  0  0  0  0
    0.2418   -1.4411   -2.6728 C   0  0  0  0  0  0  0  0  0  0  0  0
    0.2418   -1.4411   -1.3510 C   0  0  0  0  0  0  0  0  0  0  0  0
    0.2418   -0.5185   -3.2412 H   0  0  0  0  0  0  0  0  0  0  0  0
    0.2418   -2.3637   -3.2412 H   0  0  0  0  0  0  0  0  0  0  0  0
    0.2418   -0.3340   -0.6690 H   0  0  0  0  0  0  0  0  0  0  0  0
    0.2418   -2.3637   -0.7826 H   0  0  0  0  0  0  0  0  0  0  0  0
  1  2  1  0
  1  5  1  0
  2  3  1  0
  2  6  1  0
  3  4  3  0
  4  7  1  0
  8  9  2  3
  8 10  1  0
  8 11  1  0
  9 12  1  0
  9 13  1  0
M  RAD  1   2   2
M  END
>  <reaction>  (15) 
rxn_1598

>  <mol_properties>  (15) 
{"0": {"label": "*0", "atom_type": "S2s"}, "1": {"label": "*1", "atom_type": "Cs"}, "7": {"label": "*4", "atom_type": "Cd"}, "8": {"label": "*3", "atom_type": "Cd"}, "11": {"label": "*2", "atom_type": "H0"}}

>  <type>  (15) 
unop_11

>  <geom_source>  (15) 
Heuristics

$$$$

     RDKit          3D

 13 11  0  0  0  0  0  0  0  0999 V2000
   -0.4111    1.4865   -0.6078 S   0  0  0  0  0  0  0  0  0  0  0  0
   -0.4111    0.1617    0.6460 C   0  0  0  0  0  3  0  0  0  0  0  0
    0.7304    0.1979    1.5429 C   0  0  0  0  0  0  0  0  0  0  0  0
    1.6713    0.2277    2.2822 C   0  0  0  0  0  0  0  0  0  0  0  0
   -0.3934    2.5068    0.2589 H   0  0  0  0  0  0  0  0  0  0  0  0
   -1.3378    0.2003    1.2179 H   0  0  0  0  0  0  0  0  0  0  0  0
    2.5073    0.2542    2.9391 H   0  0  0  0  0  0  0  0  0  0  0  0
   -0.4111   -2.0600   -2.0445 C   0  0  0  0  0  0  0  0  0  0  0  0
   -0.4111   -2.0600   -0.7228 C   0  0  0  0  0  0  0  0  0  0  0  0
   -0.4111   -1.1374   -2.6129 H   0  0  0  0  0  0  0  0  0  0  0  0
   -0.4111   -2.9825   -2.6129 H   0  0  0  0  0  0  0  0  0  0  0  0
   -0.4111   -0.9529   -0.0407 H   0  0  0  0  0  0  0  0  0  0  0  0
   -0.4111   -2.9825   -0.1544 H   0  0  0  0  0  0  0  0  0  0  0  0
  1  2  1  0
  1  5  1  0
  2  3  1  0
  2  6  1  0
  3  4  3  0
  4  7  1  0
  8  9  2  3
  8 10  1  0
  8 11  1  0
  9 12  1  0
  9 13  1  0
M  RAD  1   2   2
M  END
>  <reaction>  (16) 
rxn_1598

>  <mol_properties>  (16) 
{"0": {"label": "*0", "atom_type": "S2s"}, "1": {"label": "*1", "atom_type": "Cs"}, "7": {"label": "*4", "atom_type": "Cd"}, "8": {"label": "*3", "atom_type": "Cd"}, "11": {"label": "*2", "atom_type": "H0"}}

>  <type>  (16) 
unop_12

>  <geom_source>  (16) 
Heuristics

$$$$

     RDKit          3D

 13 11  0  0  0  0  0  0  0  0999 V2000
   -1.9540    0.7667   -1.6837 S   0  0  0  0  0  0  0  0  0  0  0  0
   -0.6873   -0.1495   -0.7595 C   0  0  0  0  0  3  0  0  0  0  0  0
    2.2641    0.1741    0.1991 C   0  0  0  0  0  0  0  0  0  0  0  0
   -1.3265   -1.0139    0.2344 C   0  0  0  0  0  0  0  0  0  0  0  0
    1.3772    1.1584    0.0841 C   0  0  0  0  0  0  0  0  0  0  0  0
   -1.8516   -1.7255    1.0536 C   0  0  0  0  0  0  0  0  0  0  0  0
   -0.0988   -0.7730   -1.4636 H   0  0  0  0  0  0  0  0  0  0  0  0
    0.2140    0.8027   -0.0791 H   0  0  0  0  0  0  0  0  0  0  0  0
    3.0696    0.2433    0.9230 H   0  0  0  0  0  0  0  0  0  0  0  0
    2.1827   -0.7028   -0.4336 H   0  0  0  0  0  0  0  0  0  0  0  0
   -2.3258    1.5290   -0.5596 H   0  0  0  0  0  0  0  0  0  0  0  0
    1.4493    2.0404    0.7122 H   0  0  0  0  0  0  0  0  0  0  0  0
   -2.3128   -2.3501    1.7727 H   0  0  0  0  0  0  0  0  0  0  0  0
  1  2  1  0
  1 11  1  0
  2  4  1  0
  2  7  1  0
  3  5  2  3
  3  9  1  0
  3 10  1  0
  4  6  3  0
  5  8  1  0
  5 12  1  0
  6 13  1  0
M  RAD  1   2   2
M  END
>  <reaction>  (17) 
rxn_1598

>  <mol_properties>  (17) 
{"0": {"label": "*0", "atom_type": "S2s"}, "1": {"label": "*1", "atom_type": "Cs"}, "7": {"label": "*4", "atom_type": "Cd"}, "8": {"label": "*3", "atom_type": "Cd"}, "11": {"label": "*2", "atom_type": "H0"}}

>  <type>  (17) 
unop_13

>  <geom_source>  (17) 
AutoTST

$$$$
