
     RDKit          3D

  9  8  0  0  0  0  0  0  0  0999 V2000
    1.1303   -0.2933   -0.7510 C   0  0  0  0  0  0  0  0  0  0  0  0
    0.2866    0.4560   -0.0588 C   0  0  0  0  0  0  0  0  0  0  0  0
   -0.9719   -0.0331    0.5823 C   0  0  0  0  0  0  0  0  0  0  0  0
    2.0274    0.1230   -1.1916 H   0  0  0  0  0  0  0  0  0  0  0  0
    0.9532   -1.3530   -0.9023 H   0  0  0  0  0  0  0  0  0  0  0  0
    0.5065    1.5132    0.0659 H   0  0  0  0  0  0  0  0  0  0  0  0
   -0.9526    0.1426    1.6610 H   0  0  0  0  0  0  0  0  0  0  0  0
   -1.1182   -1.1002    0.4106 H   0  0  0  0  0  0  0  0  0  0  0  0
   -1.8412    0.5010    0.1901 H   0  0  0  0  0  0  0  0  0  0  0  0
  1  2  2  3
  1  4  1  0
  1  5  1  0
  2  3  1  0
  2  6  1  0
  3  7  1  0
  3  8  1  0
  3  9  1  0
M  END
>  <reaction>  (1) 
rxn_1636

>  <mol_properties>  (1) 
{"1": {"label": "donator", "atom_type": "Cd"}, "5": {"label": "d_hydrogen", "atom_type": "H0"}}

>  <type>  (1) 
r1h

$$$$

     RDKit          3D

  7  6  0  0  0  0  0  0  0  0999 V2000
   -2.0652    0.3855   -0.2963 S   0  0  0  0  0  0  0  0  0  0  0  0
   -0.7169   -0.5853    0.1792 C   0  0  0  0  0  3  0  0  0  0  0  0
    0.5987   -0.2168    0.0254 C   0  0  0  0  0  0  0  0  0  0  0  0
    1.7547    0.1211   -0.1163 C   0  0  0  0  0  0  0  0  0  0  0  0
   -1.3643    1.4227   -0.7731 H   0  0  0  0  0  0  0  0  0  0  0  0
   -0.9781   -1.5363    0.6220 H   0  0  0  0  0  0  0  0  0  0  0  0
    2.7711    0.4089   -0.2366 H   0  0  0  0  0  0  0  0  0  0  0  0
  1  2  1  0
  1  5  1  0
  2  3  1  0
  2  6  1  0
  3  4  3  0
  4  7  1  0
M  RAD  1   2   2
M  END
>  <reaction>  (2) 
rxn_1636

>  <mol_properties>  (2) 
{"1": {"label": "acceptor", "atom_type": "Cs"}}

>  <type>  (2) 
r2

$$$$

     RDKit          3D

  8  7  0  0  0  0  0  0  0  0999 V2000
   -0.7014    1.0753    1.5530 S   0  0  0  0  0  0  0  0  0  0  0  0
   -0.3105   -0.4583    0.6462 C   0  0  0  0  0  0  0  0  0  0  0  0
    0.0935   -0.2424   -0.7319 C   0  0  0  0  0  0  0  0  0  0  0  0
    0.4431   -0.0604   -1.8621 C   0  0  0  0  0  0  0  0  0  0  0  0
    0.4994    1.6466    1.3970 H   0  0  0  0  0  0  0  0  0  0  0  0
   -1.2277   -1.0477    0.6819 H   0  0  0  0  0  0  0  0  0  0  0  0
    0.4563   -1.0151    1.1841 H   0  0  0  0  0  0  0  0  0  0  0  0
    0.7474    0.1020   -2.8681 H   0  0  0  0  0  0  0  0  0  0  0  0
  1  2  1  0
  1  5  1  0
  2  3  1  0
  2  6  1  0
  2  7  1  0
  3  4  3  0
  4  8  1  0
M  END
>  <reaction>  (3) 
rxn_1636

>  <mol_properties>  (3) 
{"1": {"label": "acceptor", "atom_type": "Cs"}, "7": {"label": "a_hydrogen", "atom_type": "H0"}}

>  <type>  (3) 
r2h

$$$$

     RDKit          3D

 16 14  0  0  0  0  0  0  0  0999 V2000
   -1.3114   -1.1266    1.0114 S   0  0  0  0  0  0  0  0  0  0  0  0
    0.1046   -1.0692   -0.1054 C   0  0  0  0  0  0  0  0  0  0  0  0
    1.3862   -0.9535    0.5161 C   0  0  0  0  0  0  0  0  0  0  0  0
    2.4647   -0.8215    1.0274 C   0  0  0  0  0  0  0  0  0  0  0  0
   -0.8181   -2.0413    1.8579 H   0  0  0  0  0  0  0  0  0  0  0  0
    0.0661   -1.8387   -0.8737 H   0  0  0  0  0  0  0  0  0  0  0  0
    3.4194   -0.7178    1.4839 H   0  0  0  0  0  0  0  0  0  0  0  0
   -0.9380    1.2206   -2.5263 C   0  0  0  0  0  0  0  0  0  0  0  0
   -0.3126    1.2691   -1.3754 C   0  0  0  0  0  3  0  0  0  0  0  0
    0.2397    2.3534   -0.5398 C   0  0  0  0  0  0  0  0  0  0  0  0
   -1.2662    0.2836   -2.9621 H   0  0  0  0  0  0  0  0  0  0  0  0
   -1.1546    2.1269   -3.0899 H   0  0  0  0  0  0  0  0  0  0  0  0
   -0.0968    0.0094   -0.7471 H   0  0  0  0  0  0  0  0  0  0  0  0
   -0.2352    2.3596    0.4437 H   0  0  0  0  0  0  0  0  0  0  0  0
    0.0815    3.3283   -1.0113 H   0  0  0  0  0  0  0  0  0  0  0  0
    1.3106    2.2101   -0.3813 H   0  0  0  0  0  0  0  0  0  0  0  0
  1  2  1  0
  1  5  1  0
  2  3  1  0
  2  6  1  0
  2 13  1  0
  3  4  3  0
  4  7  1  0
  8  9  2  3
  8 11  1  0
  8 12  1  0
  9 10  1  0
 10 14  1  0
 10 15  1  0
 10 16  1  0
M  RAD  1   9   2
M  END
>  <reaction>  (4) 
rxn_1636

>  <mol_properties>  (4) 
{"0": {"label": "*0", "atom_type": "S2s"}, "1": {"label": "*1", "atom_type": "Cs"}, "7": {"label": "*4", "atom_type": "Cd"}, "8": {"label": "*3", "atom_type": "Cd"}, "12": {"label": "*2", "atom_type": "H0"}}

>  <type>  (4) 
ts

$$$$

     RDKit          3D

 16 14  0  0  0  0  0  0  0  0999 V2000
    1.2600   -0.5748    1.2961 S   0  0  0  0  0  0  0  0  0  0  0  0
   -0.2663   -0.5870    0.2973 C   0  0  0  0  0  3  0  0  0  0  0  0
   -0.7859   -1.9165    0.0298 C   0  0  0  0  0  0  0  0  0  0  0  0
   -1.2143   -3.0122   -0.1908 C   0  0  0  0  0  0  0  0  0  0  0  0
    0.7465   -1.2147    2.3541 H   0  0  0  0  0  0  0  0  0  0  0  0
   -1.0273    0.0208    0.7859 H   0  0  0  0  0  0  0  0  0  0  0  0
   -1.5948   -3.9857   -0.3867 H   0  0  0  0  0  0  0  0  0  0  0  0
   -0.2663    1.7034   -2.2851 C   0  0  0  0  0  0  0  0  0  0  0  0
   -0.2663    1.7034   -0.9614 C   0  0  0  0  0  0  0  0  0  0  0  0
   -0.2663    2.9255   -0.1009 C   0  0  0  0  0  0  0  0  0  0  0  0
   -0.2663    0.7806   -2.8516 H   0  0  0  0  0  0  0  0  0  0  0  0
   -0.2663    2.6290   -2.8511 H   0  0  0  0  0  0  0  0  0  0  0  0
   -0.2663    0.5602   -0.3331 H   0  0  0  0  0  0  0  0  0  0  0  0
   -1.1440    2.9427    0.5504 H   0  0  0  0  0  0  0  0  0  0  0  0
   -0.2663    3.8360   -0.7014 H   0  0  0  0  0  0  0  0  0  0  0  0
    0.6114    2.9427    0.5504 H   0  0  0  0  0  0  0  0  0  0  0  0
  1  2  1  0
  1  5  1  0
  2  3  1  0
  2  6  1  0
  3  4  3  0
  4  7  1  0
  8  9  2  3
  8 11  1  0
  8 12  1  0
  9 10  1  0
  9 13  1  0
 10 14  1  0
 10 15  1  0
 10 16  1  0
M  RAD  1   2   2
M  END
>  <reaction>  (5) 
rxn_1636

>  <mol_properties>  (5) 
{"0": {"label": "*0", "atom_type": "S2s"}, "1": {"label": "*1", "atom_type": "Cs"}, "7": {"label": "*4", "atom_type": "Cd"}, "8": {"label": "*3", "atom_type": "Cd"}, "12": {"label": "*2", "atom_type": "H0"}}

>  <type>  (5) 
unop_1

>  <geom_source>  (5) 
Heuristics

$$$$

     RDKit          3D

 16 14  0  0  0  0  0  0  0  0999 V2000
    0.9915   -1.6331   -0.4934 S   0  0  0  0  0  0  0  0  0  0  0  0
    0.1104   -0.4859    0.6176 C   0  0  0  0  0  3  0  0  0  0  0  0
   -1.0549   -1.0661    1.2616 C   0  0  0  0  0  0  0  0  0  0  0  0
   -2.0153   -1.5442    1.7923 C   0  0  0  0  0  0  0  0  0  0  0  0
    1.2510   -2.5632    0.4341 H   0  0  0  0  0  0  0  0  0  0  0  0
    0.8006   -0.1023    1.3685 H   0  0  0  0  0  0  0  0  0  0  0  0
   -2.8686   -1.9691    2.2638 H   0  0  0  0  0  0  0  0  0  0  0  0
    0.1104    1.8045   -1.9648 C   0  0  0  0  0  0  0  0  0  0  0  0
    0.1104    1.8045   -0.6411 C   0  0  0  0  0  0  0  0  0  0  0  0
    0.1104    3.0267    0.2195 C   0  0  0  0  0  0  0  0  0  0  0  0
    0.1104    0.8818   -2.5313 H   0  0  0  0  0  0  0  0  0  0  0  0
    0.1104    2.7301   -2.5308 H   0  0  0  0  0  0  0  0  0  0  0  0
    0.1104    0.6614   -0.0128 H   0  0  0  0  0  0  0  0  0  0  0  0
   -0.7674    3.0438    0.8707 H   0  0  0  0  0  0  0  0  0  0  0  0
    0.1104    3.9371   -0.3811 H   0  0  0  0  0  0  0  0  0  0  0  0
    0.9881    3.0438    0.8707 H   0  0  0  0  0  0  0  0  0  0  0  0
  1  2  1  0
  1  5  1  0
  2  3  1  0
  2  6  1  0
  3  4  3  0
  4  7  1  0
  8  9  2  3
  8 11  1  0
  8 12  1  0
  9 10  1  0
  9 13  1  0
 10 14  1  0
 10 15  1  0
 10 16  1  0
M  RAD  1   2   2
M  END
>  <reaction>  (6) 
rxn_1636

>  <mol_properties>  (6) 
{"0": {"label": "*0", "atom_type": "S2s"}, "1": {"label": "*1", "atom_type": "Cs"}, "7": {"label": "*4", "atom_type": "Cd"}, "8": {"label": "*3", "atom_type": "Cd"}, "12": {"label": "*2", "atom_type": "H0"}}

>  <type>  (6) 
unop_2

>  <geom_source>  (6) 
Heuristics

$$$$

     RDKit          3D

 16 14  0  0  0  0  0  0  0  0999 V2000
    0.5708   -0.3460    1.7879 S   0  0  0  0  0  0  0  0  0  0  0  0
   -0.3103   -0.6689    0.2238 C   0  0  0  0  0  3  0  0  0  0  0  0
   -0.1000   -2.0041   -0.3074 C   0  0  0  0  0  0  0  0  0  0  0  0
    0.0733   -3.1045   -0.7452 C   0  0  0  0  0  0  0  0  0  0  0  0
    0.0004   -1.3376    2.4835 H   0  0  0  0  0  0  0  0  0  0  0  0
   -1.3755   -0.4839    0.3599 H   0  0  0  0  0  0  0  0  0  0  0  0
    0.2273   -4.0823   -1.1342 H   0  0  0  0  0  0  0  0  0  0  0  0
   -0.3103    1.6215   -2.3586 C   0  0  0  0  0  0  0  0  0  0  0  0
   -0.3103    1.6215   -1.0349 C   0  0  0  0  0  0  0  0  0  0  0  0
   -0.3103    2.8437   -0.1744 C   0  0  0  0  0  0  0  0  0  0  0  0
   -0.3103    0.6988   -2.9251 H   0  0  0  0  0  0  0  0  0  0  0  0
   -0.3103    2.5471   -2.9246 H   0  0  0  0  0  0  0  0  0  0  0  0
   -0.3103    0.4783   -0.4067 H   0  0  0  0  0  0  0  0  0  0  0  0
   -1.1881    2.8608    0.4768 H   0  0  0  0  0  0  0  0  0  0  0  0
   -0.3103    3.7541   -0.7750 H   0  0  0  0  0  0  0  0  0  0  0  0
    0.5674    2.8608    0.4768 H   0  0  0  0  0  0  0  0  0  0  0  0
  1  2  1  0
  1  5  1  0
  2  3  1  0
  2  6  1  0
  3  4  3  0
  4  7  1  0
  8  9  2  3
  8 11  1  0
  8 12  1  0
  9 10  1  0
  9 13  1  0
 10 14  1  0
 10 15  1  0
 10 16  1  0
M  RAD  1   2   2
M  END
>  <reaction>  (7) 
rxn_1636

>  <mol_properties>  (7) 
{"0": {"label": "*0", "atom_type": "S2s"}, "1": {"label": "*1", "atom_type": "Cs"}, "7": {"label": "*4", "atom_type": "Cd"}, "8": {"label": "*3", "atom_type": "Cd"}, "12": {"label": "*2", "atom_type": "H0"}}

>  <type>  (7) 
unop_3

>  <geom_source>  (7) 
Heuristics

$$$$

     RDKit          3D

 16 14  0  0  0  0  0  0  0  0999 V2000
   -1.0292   -1.8656   -0.2588 S   0  0  0  0  0  0  0  0  0  0  0  0
    0.4971   -1.0291    0.2869 C   0  0  0  0  0  3  0  0  0  0  0  0
    0.3214   -0.1831    1.4542 C   0  0  0  0  0  0  0  0  0  0  0  0
    0.1767    0.5142    2.4162 C   0  0  0  0  0  0  0  0  0  0  0  0
   -1.2591   -2.5127    0.8905 H   0  0  0  0  0  0  0  0  0  0  0  0
    1.2725   -1.7709    0.4758 H   0  0  0  0  0  0  0  0  0  0  0  0
    0.0481    1.1337    3.2710 H   0  0  0  0  0  0  0  0  0  0  0  0
    0.4971    1.2613   -2.2955 C   0  0  0  0  0  0  0  0  0  0  0  0
    0.4971    1.2613   -0.9718 C   0  0  0  0  0  0  0  0  0  0  0  0
    0.4971    2.4835   -0.1113 C   0  0  0  0  0  0  0  0  0  0  0  0
    0.4971    0.3386   -2.8620 H   0  0  0  0  0  0  0  0  0  0  0  0
    0.4971    2.1869   -2.8615 H   0  0  0  0  0  0  0  0  0  0  0  0
    0.4971    0.1182   -0.3436 H   0  0  0  0  0  0  0  0  0  0  0  0
   -0.3806    2.5006    0.5400 H   0  0  0  0  0  0  0  0  0  0  0  0
    0.4971    3.3939   -0.7119 H   0  0  0  0  0  0  0  0  0  0  0  0
    1.3748    2.5006    0.5400 H   0  0  0  0  0  0  0  0  0  0  0  0
  1  2  1  0
  1  5  1  0
  2  3  1  0
  2  6  1  0
  3  4  3  0
  4  7  1  0
  8  9  2  3
  8 11  1  0
  8 12  1  0
  9 10  1  0
  9 13  1  0
 10 14  1  0
 10 15  1  0
 10 16  1  0
M  RAD  1   2   2
M  END
>  <reaction>  (8) 
rxn_1636

>  <mol_properties>  (8) 
{"0": {"label": "*0", "atom_type": "S2s"}, "1": {"label": "*1", "atom_type": "Cs"}, "7": {"label": "*4", "atom_type": "Cd"}, "8": {"label": "*3", "atom_type": "Cd"}, "12": {"label": "*2", "atom_type": "H0"}}

>  <type>  (8) 
unop_4

>  <geom_source>  (8) 
Heuristics

$$$$

     RDKit          3D

 16 14  0  0  0  0  0  0  0  0999 V2000
   -0.3602   -0.4301    1.9013 S   0  0  0  0  0  0  0  0  0  0  0  0
   -0.3602   -0.8668    0.1303 C   0  0  0  0  0  3  0  0  0  0  0  0
    0.7814   -1.6648   -0.2809 C   0  0  0  0  0  0  0  0  0  0  0  0
    1.7223   -2.3225   -0.6198 C   0  0  0  0  0  0  0  0  0  0  0  0
   -0.3425   -1.6875    2.3609 H   0  0  0  0  0  0  0  0  0  0  0  0
   -1.2868   -1.3833   -0.1184 H   0  0  0  0  0  0  0  0  0  0  0  0
    2.5582   -2.9069   -0.9210 H   0  0  0  0  0  0  0  0  0  0  0  0
   -0.3602    1.4236   -2.4522 C   0  0  0  0  0  0  0  0  0  0  0  0
   -0.3602    1.4236   -1.1284 C   0  0  0  0  0  0  0  0  0  0  0  0
   -0.3602    2.6458   -0.2679 C   0  0  0  0  0  0  0  0  0  0  0  0
   -0.3602    0.5009   -3.0187 H   0  0  0  0  0  0  0  0  0  0  0  0
   -0.3602    2.3492   -3.0182 H   0  0  0  0  0  0  0  0  0  0  0  0
   -0.3602    0.2805   -0.5002 H   0  0  0  0  0  0  0  0  0  0  0  0
   -1.2379    2.6629    0.3833 H   0  0  0  0  0  0  0  0  0  0  0  0
   -0.3602    3.5563   -0.8685 H   0  0  0  0  0  0  0  0  0  0  0  0
    0.5176    2.6629    0.3833 H   0  0  0  0  0  0  0  0  0  0  0  0
  1  2  1  0
  1  5  1  0
  2  3  1  0
  2  6  1  0
  3  4  3  0
  4  7  1  0
  8  9  2  3
  8 11  1  0
  8 12  1  0
  9 10  1  0
  9 13  1  0
 10 14  1  0
 10 15  1  0
 10 16  1  0
M  RAD  1   2   2
M  END
>  <reaction>  (9) 
rxn_1636

>  <mol_properties>  (9) 
{"0": {"label": "*0", "atom_type": "S2s"}, "1": {"label": "*1", "atom_type": "Cs"}, "7": {"label": "*4", "atom_type": "Cd"}, "8": {"label": "*3", "atom_type": "Cd"}, "12": {"label": "*2", "atom_type": "H0"}}

>  <type>  (9) 
unop_5

>  <geom_source>  (9) 
Heuristics

$$$$

     RDKit          3D

 16 14  0  0  0  0  0  0  0  0999 V2000
   -1.4238   -1.5877    0.3442 S   0  0  0  0  0  0  0  0  0  0  0  0
    0.3386   -1.1755    0.1177 C   0  0  0  0  0  3  0  0  0  0  0  0
    0.8631   -0.2586    1.1143 C   0  0  0  0  0  0  0  0  0  0  0  0
    1.2955    0.4971    1.9357 C   0  0  0  0  0  0  0  0  0  0  0  0
   -1.2979   -2.0910    1.5785 H   0  0  0  0  0  0  0  0  0  0  0  0
    0.9289   -2.0913    0.1043 H   0  0  0  0  0  0  0  0  0  0  0  0
    1.6796    1.1686    2.6654 H   0  0  0  0  0  0  0  0  0  0  0  0
    0.3385    1.1149   -2.4647 C   0  0  0  0  0  0  0  0  0  0  0  0
    0.3385    1.1149   -1.1410 C   0  0  0  0  0  0  0  0  0  0  0  0
    0.3385    2.3371   -0.2804 C   0  0  0  0  0  0  0  0  0  0  0  0
    0.3385    0.1922   -3.0312 H   0  0  0  0  0  0  0  0  0  0  0  0
    0.3385    2.0405   -3.0307 H   0  0  0  0  0  0  0  0  0  0  0  0
    0.3386   -0.0283   -0.5127 H   0  0  0  0  0  0  0  0  0  0  0  0
   -0.5392    2.3542    0.3708 H   0  0  0  0  0  0  0  0  0  0  0  0
    0.3385    3.2475   -0.8810 H   0  0  0  0  0  0  0  0  0  0  0  0
    1.2163    2.3542    0.3708 H   0  0  0  0  0  0  0  0  0  0  0  0
  1  2  1  0
  1  5  1  0
  2  3  1  0
  2  6  1  0
  3  4  3  0
  4  7  1  0
  8  9  2  3
  8 11  1  0
  8 12  1  0
  9 10  1  0
  9 13  1  0
 10 14  1  0
 10 15  1  0
 10 16  1  0
M  RAD  1   2   2
M  END
>  <reaction>  (10) 
rxn_1636

>  <mol_properties>  (10) 
{"0": {"label": "*0", "atom_type": "S2s"}, "1": {"label": "*1", "atom_type": "Cs"}, "7": {"label": "*4", "atom_type": "Cd"}, "8": {"label": "*3", "atom_type": "Cd"}, "12": {"label": "*2", "atom_type": "H0"}}

>  <type>  (10) 
unop_6

>  <geom_source>  (10) 
Heuristics

$$$$

     RDKit          3D

 16 14  0  0  0  0  0  0  0  0999 V2000
   -1.4489   -1.2106    1.0152 S   0  0  0  0  0  0  0  0  0  0  0  0
    0.0774   -1.2229    0.0165 C   0  0  0  0  0  3  0  0  0  0  0  0
    1.1958   -0.5370    0.6391 C   0  0  0  0  0  0  0  0  0  0  0  0
    2.1176    0.0284    1.1524 C   0  0  0  0  0  0  0  0  0  0  0  0
   -0.9261   -1.8193    2.0870 H   0  0  0  0  0  0  0  0  0  0  0  0
    0.3523   -2.2509   -0.2176 H   0  0  0  0  0  0  0  0  0  0  0  0
    2.9366    0.5306    1.6084 H   0  0  0  0  0  0  0  0  0  0  0  0
    0.0774    1.0675   -2.5660 C   0  0  0  0  0  0  0  0  0  0  0  0
    0.0774    1.0675   -1.2422 C   0  0  0  0  0  0  0  0  0  0  0  0
    0.0774    2.2897   -0.3817 C   0  0  0  0  0  0  0  0  0  0  0  0
    0.0774    0.1448   -3.1325 H   0  0  0  0  0  0  0  0  0  0  0  0
    0.0774    1.9931   -3.1320 H   0  0  0  0  0  0  0  0  0  0  0  0
    0.0774   -0.0756   -0.6140 H   0  0  0  0  0  0  0  0  0  0  0  0
   -0.8003    2.3068    0.2695 H   0  0  0  0  0  0  0  0  0  0  0  0
    0.0774    3.2002   -0.9823 H   0  0  0  0  0  0  0  0  0  0  0  0
    0.9551    2.3068    0.2695 H   0  0  0  0  0  0  0  0  0  0  0  0
  1  2  1  0
  1  5  1  0
  2  3  1  0
  2  6  1  0
  3  4  3  0
  4  7  1  0
  8  9  2  3
  8 11  1  0
  8 12  1  0
  9 10  1  0
  9 13  1  0
 10 14  1  0
 10 15  1  0
 10 16  1  0
M  RAD  1   2   2
M  END
>  <reaction>  (11) 
rxn_1636

>  <mol_properties>  (11) 
{"0": {"label": "*0", "atom_type": "S2s"}, "1": {"label": "*1", "atom_type": "Cs"}, "7": {"label": "*4", "atom_type": "Cd"}, "8": {"label": "*3", "atom_type": "Cd"}, "12": {"label": "*2", "atom_type": "H0"}}

>  <type>  (11) 
unop_7

>  <geom_source>  (11) 
Heuristics

$$$$

     RDKit          3D

 16 14  0  0  0  0  0  0  0  0999 V2000
    1.5390   -0.9372    0.6315 S   0  0  0  0  0  0  0  0  0  0  0  0
   -0.2234   -0.5251    0.4050 C   0  0  0  0  0  3  0  0  0  0  0  0
   -1.1130   -1.6697    0.4909 C   0  0  0  0  0  0  0  0  0  0  0  0
   -1.8463   -2.6132    0.5617 C   0  0  0  0  0  0  0  0  0  0  0  0
    1.4074   -1.4725    1.8517 H   0  0  0  0  0  0  0  0  0  0  0  0
   -0.5174    0.2326    1.1309 H   0  0  0  0  0  0  0  0  0  0  0  0
   -2.4978   -3.4514    0.6246 H   0  0  0  0  0  0  0  0  0  0  0  0
   -0.2234    1.7653   -2.1774 C   0  0  0  0  0  0  0  0  0  0  0  0
   -0.2234    1.7653   -0.8537 C   0  0  0  0  0  0  0  0  0  0  0  0
   -0.2234    2.9875    0.0069 C   0  0  0  0  0  0  0  0  0  0  0  0
   -0.2234    0.8426   -2.7439 H   0  0  0  0  0  0  0  0  0  0  0  0
   -0.2234    2.6909   -2.7434 H   0  0  0  0  0  0  0  0  0  0  0  0
   -0.2234    0.6221   -0.2254 H   0  0  0  0  0  0  0  0  0  0  0  0
   -1.1011    3.0046    0.6581 H   0  0  0  0  0  0  0  0  0  0  0  0
   -0.2234    3.8979   -0.5937 H   0  0  0  0  0  0  0  0  0  0  0  0
    0.6543    3.0046    0.6581 H   0  0  0  0  0  0  0  0  0  0  0  0
  1  2  1  0
  1  5  1  0
  2  3  1  0
  2  6  1  0
  3  4  3  0
  4  7  1  0
  8  9  2  3
  8 11  1  0
  8 12  1  0
  9 10  1  0
  9 13  1  0
 10 14  1  0
 10 15  1  0
 10 16  1  0
M  RAD  1   2   2
M  END
>  <reaction>  (12) 
rxn_1636

>  <mol_properties>  (12) 
{"0": {"label": "*0", "atom_type": "S2s"}, "1": {"label": "*1", "atom_type": "Cs"}, "7": {"label": "*4", "atom_type": "Cd"}, "8": {"label": "*3", "atom_type": "Cd"}, "12": {"label": "*2", "atom_type": "H0"}}

>  <type>  (12) 
unop_8

>  <geom_source>  (12) 
Heuristics

$$$$

     RDKit          3D

 16 14  0  0  0  0  0  0  0  0999 V2000
   -0.3706   -1.9671   -0.6410 S   0  0  0  0  0  0  0  0  0  0  0  0
    0.5105   -0.8199    0.4701 C   0  0  0  0  0  3  0  0  0  0  0  0
   -0.2922   -0.3414    1.5817 C   0  0  0  0  0  0  0  0  0  0  0  0
   -0.9538    0.0530    2.4979 C   0  0  0  0  0  0  0  0  0  0  0  0
   -0.6605   -2.8808    0.2938 H   0  0  0  0  0  0  0  0  0  0  0  0
    1.4178   -1.2957    0.8413 H   0  0  0  0  0  0  0  0  0  0  0  0
   -1.5417    0.4034    3.3119 H   0  0  0  0  0  0  0  0  0  0  0  0
    0.5105    1.4705   -2.1124 C   0  0  0  0  0  0  0  0  0  0  0  0
    0.5105    1.4705   -0.7886 C   0  0  0  0  0  0  0  0  0  0  0  0
    0.5105    2.6927    0.0719 C   0  0  0  0  0  0  0  0  0  0  0  0
    0.5105    0.5478   -2.6788 H   0  0  0  0  0  0  0  0  0  0  0  0
    0.5105    2.3961   -2.6784 H   0  0  0  0  0  0  0  0  0  0  0  0
    0.5105    0.3273   -0.1604 H   0  0  0  0  0  0  0  0  0  0  0  0
   -0.3672    2.7098    0.7231 H   0  0  0  0  0  0  0  0  0  0  0  0
    0.5105    3.6031   -0.5287 H   0  0  0  0  0  0  0  0  0  0  0  0
    1.3882    2.7098    0.7231 H   0  0  0  0  0  0  0  0  0  0  0  0
  1  2  1  0
  1  5  1  0
  2  3  1  0
  2  6  1  0
  3  4  3  0
  4  7  1  0
  8  9  2  3
  8 11  1  0
  8 12  1  0
  9 10  1  0
  9 13  1  0
 10 14  1  0
 10 15  1  0
 10 16  1  0
M  RAD  1   2   2
M  END
>  <reaction>  (13) 
rxn_1636

>  <mol_properties>  (13) 
{"0": {"label": "*0", "atom_type": "S2s"}, "1": {"label": "*1", "atom_type": "Cs"}, "7": {"label": "*4", "atom_type": "Cd"}, "8": {"label": "*3", "atom_type": "Cd"}, "12": {"label": "*2", "atom_type": "H0"}}

>  <type>  (13) 
unop_9

>  <geom_source>  (13) 
Heuristics

$$$$

     RDKit          3D

 16 14  0  0  0  0  0  0  0  0999 V2000
    1.4200   -1.3121   -0.0143 S   0  0  0  0  0  0  0  0  0  0  0  0
   -0.1063   -0.4756    0.5314 C   0  0  0  0  0  3  0  0  0  0  0  0
   -1.1693   -1.3840    0.9237 C   0  0  0  0  0  0  0  0  0  0  0  0
   -2.0455   -2.1326    1.2470 C   0  0  0  0  0  0  0  0  0  0  0  0
    1.6308   -1.9864    1.1230 H   0  0  0  0  0  0  0  0  0  0  0  0
    0.1237    0.2066    1.3493 H   0  0  0  0  0  0  0  0  0  0  0  0
   -2.8239   -2.7978    1.5343 H   0  0  0  0  0  0  0  0  0  0  0  0
   -0.1063    1.8148   -2.0510 C   0  0  0  0  0  0  0  0  0  0  0  0
   -0.1063    1.8148   -0.7273 C   0  0  0  0  0  0  0  0  0  0  0  0
   -0.1063    3.0370    0.1332 C   0  0  0  0  0  0  0  0  0  0  0  0
   -0.1063    0.8921   -2.6175 H   0  0  0  0  0  0  0  0  0  0  0  0
   -0.1063    2.7404   -2.6170 H   0  0  0  0  0  0  0  0  0  0  0  0
   -0.1063    0.6716   -0.0991 H   0  0  0  0  0  0  0  0  0  0  0  0
   -0.9840    3.0541    0.7845 H   0  0  0  0  0  0  0  0  0  0  0  0
   -0.1063    3.9474   -0.4674 H   0  0  0  0  0  0  0  0  0  0  0  0
    0.7714    3.0541    0.7845 H   0  0  0  0  0  0  0  0  0  0  0  0
  1  2  1  0
  1  5  1  0
  2  3  1  0
  2  6  1  0
  3  4  3  0
  4  7  1  0
  8  9  2  3
  8 11  1  0
  8 12  1  0
  9 10  1  0
  9 13  1  0
 10 14  1  0
 10 15  1  0
 10 16  1  0
M  RAD  1   2   2
M  END
>  <reaction>  (14) 
rxn_1636

>  <mol_properties>  (14) 
{"0": {"label": "*0", "atom_type": "S2s"}, "1": {"label": "*1", "atom_type": "Cs"}, "7": {"label": "*4", "atom_type": "Cd"}, "8": {"label": "*3", "atom_type": "Cd"}, "12": {"label": "*2", "atom_type": "H0"}}

>  <type>  (14) 
unop_10

>  <geom_source>  (14) 
Heuristics

$$$$

     RDKit          3D

 16 14  0  0  0  0  0  0  0  0999 V2000
   -1.0930   -0.7999    1.5874 S   0  0  0  0  0  0  0  0  0  0  0  0
   -0.2118   -1.1228    0.0233 C   0  0  0  0  0  3  0  0  0  0  0  0
    1.2330   -1.0194    0.1276 C   0  0  0  0  0  0  0  0  0  0  0  0
    2.4238   -0.9342    0.2135 C   0  0  0  0  0  0  0  0  0  0  0  0
   -0.4969   -1.7692    2.2928 H   0  0  0  0  0  0  0  0  0  0  0  0
   -0.4902   -2.1054   -0.3564 H   0  0  0  0  0  0  0  0  0  0  0  0
    3.4818   -0.8585    0.2899 H   0  0  0  0  0  0  0  0  0  0  0  0
   -0.2118    1.1676   -2.5591 C   0  0  0  0  0  0  0  0  0  0  0  0
   -0.2118    1.1676   -1.2354 C   0  0  0  0  0  0  0  0  0  0  0  0
   -0.2118    2.3898   -0.3749 C   0  0  0  0  0  0  0  0  0  0  0  0
   -0.2118    0.2449   -3.1256 H   0  0  0  0  0  0  0  0  0  0  0  0
   -0.2118    2.0932   -3.1251 H   0  0  0  0  0  0  0  0  0  0  0  0
   -0.2118    0.0245   -0.6071 H   0  0  0  0  0  0  0  0  0  0  0  0
   -1.0896    2.4069    0.2764 H   0  0  0  0  0  0  0  0  0  0  0  0
   -0.2118    3.3003   -0.9754 H   0  0  0  0  0  0  0  0  0  0  0  0
    0.6659    2.4069    0.2764 H   0  0  0  0  0  0  0  0  0  0  0  0
  1  2  1  0
  1  5  1  0
  2  3  1  0
  2  6  1  0
  3  4  3  0
  4  7  1  0
  8  9  2  3
  8 11  1  0
  8 12  1  0
  9 10  1  0
  9 13  1  0
 10 14  1  0
 10 15  1  0
 10 16  1  0
M  RAD  1   2   2
M  END
>  <reaction>  (15) 
rxn_1636

>  <mol_properties>  (15) 
{"0": {"label": "*0", "atom_type": "S2s"}, "1": {"label": "*1", "atom_type": "Cs"}, "7": {"label": "*4", "atom_type": "Cd"}, "8": {"label": "*3", "atom_type": "Cd"}, "12": {"label": "*2", "atom_type": "H0"}}

>  <type>  (15) 
unop_11

>  <geom_source>  (15) 
Heuristics

$$$$

     RDKit          3D

 16 14  0  0  0  0  0  0  0  0999 V2000
    0.3602   -1.8696   -0.7181 S   0  0  0  0  0  0  0  0  0  0  0  0
    0.3602   -0.6087    0.5999 C   0  0  0  0  0  3  0  0  0  0  0  0
   -0.7814   -0.6893    1.4940 C   0  0  0  0  0  0  0  0  0  0  0  0
   -1.7223   -0.7558    2.2309 C   0  0  0  0  0  0  0  0  0  0  0  0
    0.3425   -2.9317    0.0969 H   0  0  0  0  0  0  0  0  0  0  0  0
    1.2868   -0.6756    1.1693 H   0  0  0  0  0  0  0  0  0  0  0  0
   -2.5582   -0.8149    2.8857 H   0  0  0  0  0  0  0  0  0  0  0  0
    0.3602    1.6818   -1.9825 C   0  0  0  0  0  0  0  0  0  0  0  0
    0.3602    1.6818   -0.6588 C   0  0  0  0  0  0  0  0  0  0  0  0
    0.3602    2.9039    0.2018 C   0  0  0  0  0  0  0  0  0  0  0  0
    0.3602    0.7590   -2.5490 H   0  0  0  0  0  0  0  0  0  0  0  0
    0.3602    2.6074   -2.5485 H   0  0  0  0  0  0  0  0  0  0  0  0
    0.3602    0.5386   -0.0305 H   0  0  0  0  0  0  0  0  0  0  0  0
   -0.5176    2.9210    0.8530 H   0  0  0  0  0  0  0  0  0  0  0  0
    0.3602    3.8144   -0.3988 H   0  0  0  0  0  0  0  0  0  0  0  0
    1.2379    2.9210    0.8530 H   0  0  0  0  0  0  0  0  0  0  0  0
  1  2  1  0
  1  5  1  0
  2  3  1  0
  2  6  1  0
  3  4  3  0
  4  7  1  0
  8  9  2  3
  8 11  1  0
  8 12  1  0
  9 10  1  0
  9 13  1  0
 10 14  1  0
 10 15  1  0
 10 16  1  0
M  RAD  1   2   2
M  END
>  <reaction>  (16) 
rxn_1636

>  <mol_properties>  (16) 
{"0": {"label": "*0", "atom_type": "S2s"}, "1": {"label": "*1", "atom_type": "Cs"}, "7": {"label": "*4", "atom_type": "Cd"}, "8": {"label": "*3", "atom_type": "Cd"}, "12": {"label": "*2", "atom_type": "H0"}}

>  <type>  (16) 
unop_12

>  <geom_source>  (16) 
Heuristics

$$$$

     RDKit          3D

 16 14  0  0  0  0  0  0  0  0999 V2000
    1.9140   -0.2473    2.0474 S   0  0  0  0  0  0  0  0  0  0  0  0
    1.3963    0.2719    0.3873 C   0  0  0  0  0  3  0  0  0  0  0  0
   -1.9928    1.1317   -0.1786 C   0  0  0  0  0  0  0  0  0  0  0  0
   -1.5692   -1.3029   -0.1732 C   0  0  0  0  0  0  0  0  0  0  0  0
   -1.0937   -0.0601   -0.2598 C   0  0  0  0  0  0  0  0  0  0  0  0
    2.3385   -0.2486   -0.6039 C   0  0  0  0  0  0  0  0  0  0  0  0
    3.1137   -0.6771   -1.4217 C   0  0  0  0  0  0  0  0  0  0  0  0
    1.3788    1.3801    0.3330 H   0  0  0  0  0  0  0  0  0  0  0  0
    0.0711   -0.2461    0.1097 H   0  0  0  0  0  0  0  0  0  0  0  0
   -2.5194    1.1449    0.7990 H   0  0  0  0  0  0  0  0  0  0  0  0
   -2.7377    1.1029   -1.0018 H   0  0  0  0  0  0  0  0  0  0  0  0
   -1.3843    2.0544   -0.2739 H   0  0  0  0  0  0  0  0  0  0  0  0
   -2.6311   -1.4874   -0.0402 H   0  0  0  0  0  0  0  0  0  0  0  0
   -0.8874   -2.1437   -0.2362 H   0  0  0  0  0  0  0  0  0  0  0  0
    0.8090    0.3806    2.6524 H   0  0  0  0  0  0  0  0  0  0  0  0
    3.7943   -1.0532   -2.1395 H   0  0  0  0  0  0  0  0  0  0  0  0
  1  2  1  0
  1 15  1  0
  2  6  1  0
  2  8  1  0
  3  5  1  0
  3 10  1  0
  3 11  1  0
  3 12  1  0
  4  5  2  3
  4 13  1  0
  4 14  1  0
  5  9  1  0
  6  7  3  0
  7 16  1  0
M  RAD  1   2   2
M  END
>  <reaction>  (17) 
rxn_1636

>  <mol_properties>  (17) 
{"0": {"label": "*0", "atom_type": "S2s"}, "1": {"label": "*1", "atom_type": "Cs"}, "7": {"label": "*4", "atom_type": "Cd"}, "8": {"label": "*3", "atom_type": "Cd"}, "12": {"label": "*2", "atom_type": "H0"}}

>  <type>  (17) 
unop_13

>  <geom_source>  (17) 
AutoTST

$$$$
