
     RDKit          3D

 21 21  0  0  0  0  0  0  0  0999 V2000
   -1.3695    1.3367   -1.0719 C   0  0  0  0  0  0  0  0  0  0  0  0
   -1.4091   -0.0981   -0.5428 C   0  0  0  0  0  0  0  0  0  0  0  0
   -0.1819   -0.3999    0.3191 C   0  0  0  0  0  0  0  0  0  0  0  0
   -1.5636   -1.1028   -1.6652 C   0  0  0  0  0  0  0  0  0  0  0  0
   -0.5920   -1.2314   -2.6553 C   0  0  0  0  0  0  0  0  0  0  0  0
   -0.7353   -2.1509   -3.6809 C   0  0  0  0  0  0  0  0  0  0  0  0
   -1.8582   -2.9642   -3.7377 C   0  0  0  0  0  0  0  0  0  0  0  0
   -2.8325   -2.8475   -2.7602 C   0  0  0  0  0  0  0  0  0  0  0  0
   -2.6828   -1.9241   -1.7351 C   0  0  0  0  0  0  0  0  0  0  0  0
   -0.4920    1.4974   -1.7025 H   0  0  0  0  0  0  0  0  0  0  0  0
   -2.2553    1.5607   -1.6679 H   0  0  0  0  0  0  0  0  0  0  0  0
   -1.3211    2.0496   -0.2461 H   0  0  0  0  0  0  0  0  0  0  0  0
   -2.2930   -0.1918    0.0948 H   0  0  0  0  0  0  0  0  0  0  0  0
   -0.1215    0.2955    1.1588 H   0  0  0  0  0  0  0  0  0  0  0  0
   -0.2200   -1.4155    0.7159 H   0  0  0  0  0  0  0  0  0  0  0  0
    0.7383   -0.3016   -0.2615 H   0  0  0  0  0  0  0  0  0  0  0  0
    0.2915   -0.6040   -2.6263 H   0  0  0  0  0  0  0  0  0  0  0  0
    0.0326   -2.2338   -4.4401 H   0  0  0  0  0  0  0  0  0  0  0  0
   -1.9712   -3.6833   -4.5391 H   0  0  0  0  0  0  0  0  0  0  0  0
   -3.7135   -3.4765   -2.7932 H   0  0  0  0  0  0  0  0  0  0  0  0
   -3.4509   -1.8400   -0.9743 H   0  0  0  0  0  0  0  0  0  0  0  0
  1  2  1  0
  1 10  1  0
  1 11  1  0
  1 12  1  0
  2  3  1  0
  2  4  1  0
  2 13  1  0
  3 14  1  0
  3 15  1  0
  3 16  1  0
  4  5  2  0
  4  9  1  0
  5  6  1  0
  5 17  1  0
  6  7  2  0
  6 18  1  0
  7  8  1  0
  7 19  1  0
  8  9  2  0
  8 20  1  0
  9 21  1  0
M  END
>  <reaction>  (1) 
rxn_1561

>  <mol_properties>  (1) 
{"1": {"label": "donator", "atom_type": "Cs"}, "12": {"label": "d_hydrogen", "atom_type": "H0"}}

>  <type>  (1) 
r1h

$$$$

     RDKit          3D

  6  5  0  0  0  0  0  0  0  0999 V2000
   -0.5036    0.1196    0.0353 C   0  0  0  0  0  0  0  0  0  0  0  0
    0.9526    0.1121    0.2227 C   0  0  0  0  0  3  0  0  0  0  0  0
    2.2066   -0.6670   -0.2771 S   0  0  0  0  0  0  0  0  0  0  0  0
   -0.8527   -0.6450   -0.6654 H   0  0  0  0  0  0  0  0  0  0  0  0
   -0.8134    1.1060   -0.3189 H   0  0  0  0  0  0  0  0  0  0  0  0
   -0.9894   -0.0257    1.0035 H   0  0  0  0  0  0  0  0  0  0  0  0
  1  2  1  0
  1  4  1  0
  1  5  1  0
  1  6  1  0
  2  3  2  0
M  RAD  1   2   2
M  END
>  <reaction>  (2) 
rxn_1561

>  <mol_properties>  (2) 
{"1": {"label": "acceptor", "atom_type": "CS"}}

>  <type>  (2) 
r2

$$$$

     RDKit          3D

  7  6  0  0  0  0  0  0  0  0999 V2000
   -0.6782    0.0507    0.0301 C   0  0  0  0  0  0  0  0  0  0  0  0
    0.8092    0.0996    0.0213 C   0  0  0  0  0  0  0  0  0  0  0  0
    1.7473    0.7521    1.1507 S   0  0  0  0  0  0  0  0  0  0  0  0
   -1.0667    0.5456   -0.8653 H   0  0  0  0  0  0  0  0  0  0  0  0
   -1.0112   -0.9904   -0.0239 H   0  0  0  0  0  0  0  0  0  0  0  0
   -1.0920    0.5225    0.9188 H   0  0  0  0  0  0  0  0  0  0  0  0
    1.2740   -0.3620   -0.8520 H   0  0  0  0  0  0  0  0  0  0  0  0
  1  2  1  0
  1  4  1  0
  1  5  1  0
  1  6  1  0
  2  3  2  0
  2  7  1  0
M  END
>  <reaction>  (3) 
rxn_1561

>  <mol_properties>  (3) 
{"0": {"label": "a_hydrogen", "atom_type": "H0"}, "2": {"label": "acceptor", "atom_type": "CS"}}

>  <type>  (3) 
r2h

$$$$

     RDKit          3D

 27 26  0  0  0  0  0  0  0  0999 V2000
    0.2481    1.7616   -1.7373 C   0  0  0  0  0  0  0  0  0  0  0  0
    0.1082    1.1881   -0.3433 C   0  0  0  0  0  0  0  0  0  0  0  0
   -0.3349    2.2138    0.6742 C   0  0  0  0  0  0  0  0  0  0  0  0
    1.1620    0.2293    0.0811 C   0  0  0  0  0  0  0  0  0  0  0  0
    1.5321   -0.8260   -0.7617 C   0  0  0  0  0  0  0  0  0  0  0  0
    2.4641   -1.7689   -0.3686 C   0  0  0  0  0  0  0  0  0  0  0  0
    3.0616   -1.6848    0.8818 C   0  0  0  0  0  0  0  0  0  0  0  0
    2.7092   -0.6481    1.7299 C   0  0  0  0  0  0  0  0  0  0  0  0
    1.7690    0.2929    1.3371 C   0  0  0  0  0  0  0  0  0  0  0  0
    1.0684    2.4868   -1.7723 H   0  0  0  0  0  0  0  0  0  0  0  0
    0.4505    0.9965   -2.4859 H   0  0  0  0  0  0  0  0  0  0  0  0
   -0.6690    2.2747   -2.0326 H   0  0  0  0  0  0  0  0  0  0  0  0
   -0.9599    0.4183   -0.4699 H   0  0  0  0  0  0  0  0  0  0  0  0
   -1.2028    2.7592    0.3001 H   0  0  0  0  0  0  0  0  0  0  0  0
   -0.6126    1.7558    1.6253 H   0  0  0  0  0  0  0  0  0  0  0  0
    0.4530    2.9485    0.8739 H   0  0  0  0  0  0  0  0  0  0  0  0
    1.0659   -0.9214   -1.7348 H   0  0  0  0  0  0  0  0  0  0  0  0
    2.7250   -2.5767   -1.0412 H   0  0  0  0  0  0  0  0  0  0  0  0
    3.7931   -2.4207    1.1898 H   0  0  0  0  0  0  0  0  0  0  0  0
    3.1690   -0.5671    2.7071 H   0  0  0  0  0  0  0  0  0  0  0  0
    1.5163    1.0940    2.0188 H   0  0  0  0  0  0  0  0  0  0  0  0
   -1.9504   -1.4177    0.5404 C   0  0  0  0  0  0  0  0  0  0  0  0
   -1.9774   -0.4978   -0.6180 C   0  0  0  0  0  3  0  0  0  0  0  0
   -2.8056   -0.5214   -1.9701 S   0  0  0  0  0  0  0  0  0  0  0  0
   -2.6681   -2.2337    0.4486 H   0  0  0  0  0  0  0  0  0  0  0  0
   -2.1444   -0.8522    1.4562 H   0  0  0  0  0  0  0  0  0  0  0  0
   -0.9378   -1.8209    0.6412 H   0  0  0  0  0  0  0  0  0  0  0  0
  1  2  1  0
  1 10  1  0
  1 11  1  0
  1 12  1  0
  2  3  1  0
  2  4  1  0
  2 13  1  0
  3 14  1  0
  3 15  1  0
  3 16  1  0
  4  5  2  0
  4  9  1  0
  5  6  1  0
  5 17  1  0
  6  7  2  0
  6 18  1  0
  7  8  1  0
  7 19  1  0
  8  9  2  0
  8 20  1  0
  9 21  1  0
 22 23  1  0
 22 25  1  0
 22 26  1  0
 22 27  1  0
 23 24  2  0
M  RAD  1  23   2
M  END
>  <reaction>  (4) 
rxn_1561

>  <mol_properties>  (4) 
{"1": {"label": "*1", "atom_type": "Cs"}, "3": {"label": "*0", "atom_type": "Cd"}, "12": {"label": "*2", "atom_type": "H0"}, "22": {"label": "*3", "atom_type": "CS"}, "23": {"label": "*4", "atom_type": "S2d"}}

>  <type>  (4) 
ts

$$$$

     RDKit          3D

 27 26  0  0  0  0  0  0  0  0999 V2000
   -0.0504    0.8428   -2.2935 C   0  0  0  0  0  0  0  0  0  0  0  0
   -0.0504    0.8428   -0.7638 C   0  0  0  0  0  3  0  0  0  0  0  0
   -0.0504    2.2704   -0.2143 C   0  0  0  0  0  0  0  0  0  0  0  0
    1.0989    0.0299   -0.2057 C   0  0  0  0  0  0  0  0  0  0  0  0
    2.4220    0.3897   -0.4527 C   0  0  0  0  0  0  0  0  0  0  0  0
    3.4716   -0.3551    0.0587 C   0  0  0  0  0  0  0  0  0  0  0  0
    3.2186   -1.4799    0.8310 C   0  0  0  0  0  0  0  0  0  0  0  0
    1.9082   -1.8497    1.0849 C   0  0  0  0  0  0  0  0  0  0  0  0
    0.8609   -1.0990    0.5695 C   0  0  0  0  0  0  0  0  0  0  0  0
    0.8439    1.3330   -2.6852 H   0  0  0  0  0  0  0  0  0  0  0  0
   -0.0734   -0.1746   -2.6869 H   0  0  0  0  0  0  0  0  0  0  0  0
   -0.9199    1.3800   -2.6778 H   0  0  0  0  0  0  0  0  0  0  0  0
   -1.1593    0.2636   -0.3662 H   0  0  0  0  0  0  0  0  0  0  0  0
   -0.9199    2.8220   -0.5777 H   0  0  0  0  0  0  0  0  0  0  0  0
   -0.0734    2.2721    0.8764 H   0  0  0  0  0  0  0  0  0  0  0  0
    0.8439    2.8120   -0.5312 H   0  0  0  0  0  0  0  0  0  0  0  0
    2.6378    1.2654   -1.0540 H   0  0  0  0  0  0  0  0  0  0  0  0
    4.4925   -0.0570   -0.1460 H   0  0  0  0  0  0  0  0  0  0  0  0
    4.0384   -2.0627    1.2312 H   0  0  0  0  0  0  0  0  0  0  0  0
    1.6974   -2.7254    1.6861 H   0  0  0  0  0  0  0  0  0  0  0  0
   -0.1617   -1.3963    0.7736 H   0  0  0  0  0  0  0  0  0  0  0  0
   -2.0651   -1.5314    0.8631 C   0  0  0  0  0  0  0  0  0  0  0  0
   -2.2659   -0.3143    0.0307 C   0  0  0  0  0  0  0  0  0  0  0  0
   -3.3554    0.8401    0.2787 S   0  0  0  0  0  0  0  0  0  0  0  0
   -2.7612   -1.5681    1.6984 H   0  0  0  0  0  0  0  0  0  0  0  0
   -1.0373   -1.5538    1.2382 H   0  0  0  0  0  0  0  0  0  0  0  0
   -2.1865   -2.4245    0.2423 H   0  0  0  0  0  0  0  0  0  0  0  0
  1  2  1  0
  1 10  1  0
  1 11  1  0
  1 12  1  0
  2  3  1  0
  2  4  1  0
  3 14  1  0
  3 15  1  0
  3 16  1  0
  4  5  2  0
  4  9  1  0
  5  6  1  0
  5 17  1  0
  6  7  2  0
  6 18  1  0
  7  8  1  0
  7 19  1  0
  8  9  2  0
  8 20  1  0
  9 21  1  0
 13 23  1  0
 22 23  1  0
 22 25  1  0
 22 26  1  0
 22 27  1  0
 23 24  2  0
M  RAD  1   2   2
M  END
>  <reaction>  (5) 
rxn_1561

>  <mol_properties>  (5) 
{"1": {"label": "*1", "atom_type": "Cs"}, "3": {"label": "*0", "atom_type": "Cd"}, "12": {"label": "*2", "atom_type": "H0"}, "22": {"label": "*3", "atom_type": "CS"}, "23": {"label": "*4", "atom_type": "S2d"}}

>  <type>  (5) 
unop_1

>  <geom_source>  (5) 
Heuristics

$$$$

     RDKit          3D

 27 26  0  0  0  0  0  0  0  0999 V2000
   -0.1099    1.0001   -2.3699 C   0  0  0  0  0  0  0  0  0  0  0  0
   -0.1099    1.0001   -0.8402 C   0  0  0  0  0  3  0  0  0  0  0  0
   -0.1099    2.4277   -0.2907 C   0  0  0  0  0  0  0  0  0  0  0  0
    1.0394    0.1873   -0.2820 C   0  0  0  0  0  0  0  0  0  0  0  0
    2.3624    0.5470   -0.5290 C   0  0  0  0  0  0  0  0  0  0  0  0
    3.4121   -0.1977   -0.0177 C   0  0  0  0  0  0  0  0  0  0  0  0
    3.1590   -1.3225    0.7546 C   0  0  0  0  0  0  0  0  0  0  0  0
    1.8486   -1.6923    1.0085 C   0  0  0  0  0  0  0  0  0  0  0  0
    0.8014   -0.9417    0.4931 C   0  0  0  0  0  0  0  0  0  0  0  0
    0.7843    1.4904   -2.7615 H   0  0  0  0  0  0  0  0  0  0  0  0
   -0.1330   -0.0172   -2.7632 H   0  0  0  0  0  0  0  0  0  0  0  0
   -0.9795    1.5374   -2.7542 H   0  0  0  0  0  0  0  0  0  0  0  0
   -1.2188    0.4210   -0.4425 H   0  0  0  0  0  0  0  0  0  0  0  0
   -0.9795    2.9794   -0.6540 H   0  0  0  0  0  0  0  0  0  0  0  0
   -0.1330    2.4294    0.8000 H   0  0  0  0  0  0  0  0  0  0  0  0
    0.7843    2.9693   -0.6075 H   0  0  0  0  0  0  0  0  0  0  0  0
    2.5782    1.4228   -1.1303 H   0  0  0  0  0  0  0  0  0  0  0  0
    4.4329    0.1004   -0.2224 H   0  0  0  0  0  0  0  0  0  0  0  0
    3.9789   -1.9054    1.1548 H   0  0  0  0  0  0  0  0  0  0  0  0
    1.6379   -2.5680    1.6098 H   0  0  0  0  0  0  0  0  0  0  0  0
   -0.2213   -1.2390    0.6973 H   0  0  0  0  0  0  0  0  0  0  0  0
   -2.8502   -1.1943   -0.9747 C   0  0  0  0  0  0  0  0  0  0  0  0
   -2.3254   -0.1570   -0.0457 C   0  0  0  0  0  0  0  0  0  0  0  0
   -2.7225    0.0256    1.5004 S   0  0  0  0  0  0  0  0  0  0  0  0
   -3.5649   -1.8513   -0.4835 H   0  0  0  0  0  0  0  0  0  0  0  0
   -2.0191   -1.7848   -1.3724 H   0  0  0  0  0  0  0  0  0  0  0  0
   -3.3242   -0.7107   -1.8345 H   0  0  0  0  0  0  0  0  0  0  0  0
  1  2  1  0
  1 10  1  0
  1 11  1  0
  1 12  1  0
  2  3  1  0
  2  4  1  0
  3 14  1  0
  3 15  1  0
  3 16  1  0
  4  5  2  0
  4  9  1  0
  5  6  1  0
  5 17  1  0
  6  7  2  0
  6 18  1  0
  7  8  1  0
  7 19  1  0
  8  9  2  0
  8 20  1  0
  9 21  1  0
 13 23  1  0
 22 23  1  0
 22 25  1  0
 22 26  1  0
 22 27  1  0
 23 24  2  0
M  RAD  1   2   2
M  END
>  <reaction>  (6) 
rxn_1561

>  <mol_properties>  (6) 
{"1": {"label": "*1", "atom_type": "Cs"}, "3": {"label": "*0", "atom_type": "Cd"}, "12": {"label": "*2", "atom_type": "H0"}, "22": {"label": "*3", "atom_type": "CS"}, "23": {"label": "*4", "atom_type": "S2d"}}

>  <type>  (6) 
unop_2

>  <geom_source>  (6) 
Heuristics

$$$$

     RDKit          3D

 27 26  0  0  0  0  0  0  0  0999 V2000
   -0.0026    0.8761   -2.1853 C   0  0  0  0  0  0  0  0  0  0  0  0
   -0.0026    0.8761   -0.6556 C   0  0  0  0  0  3  0  0  0  0  0  0
   -0.0026    2.3037   -0.1061 C   0  0  0  0  0  0  0  0  0  0  0  0
    1.1468    0.0632   -0.0975 C   0  0  0  0  0  0  0  0  0  0  0  0
    2.4698    0.4230   -0.3445 C   0  0  0  0  0  0  0  0  0  0  0  0
    3.5195   -0.3218    0.1669 C   0  0  0  0  0  0  0  0  0  0  0  0
    3.2664   -1.4466    0.9392 C   0  0  0  0  0  0  0  0  0  0  0  0
    1.9560   -1.8163    1.1931 C   0  0  0  0  0  0  0  0  0  0  0  0
    0.9087   -1.0657    0.6777 C   0  0  0  0  0  0  0  0  0  0  0  0
    0.8917    1.3663   -2.5769 H   0  0  0  0  0  0  0  0  0  0  0  0
   -0.0256   -0.1412   -2.5786 H   0  0  0  0  0  0  0  0  0  0  0  0
   -0.8721    1.4133   -2.5696 H   0  0  0  0  0  0  0  0  0  0  0  0
   -1.1114    0.2969   -0.2579 H   0  0  0  0  0  0  0  0  0  0  0  0
   -0.8721    2.8553   -0.4694 H   0  0  0  0  0  0  0  0  0  0  0  0
   -0.0256    2.3054    0.9846 H   0  0  0  0  0  0  0  0  0  0  0  0
    0.8917    2.8453   -0.4230 H   0  0  0  0  0  0  0  0  0  0  0  0
    2.6856    1.2987   -0.9458 H   0  0  0  0  0  0  0  0  0  0  0  0
    4.5403   -0.0236   -0.0378 H   0  0  0  0  0  0  0  0  0  0  0  0
    4.0862   -2.0294    1.3394 H   0  0  0  0  0  0  0  0  0  0  0  0
    1.7452   -2.6921    1.7944 H   0  0  0  0  0  0  0  0  0  0  0  0
   -0.1139   -1.3630    0.8818 H   0  0  0  0  0  0  0  0  0  0  0  0
   -2.1136   -0.9897    1.4433 C   0  0  0  0  0  0  0  0  0  0  0  0
   -2.2181   -0.2810    0.1389 C   0  0  0  0  0  0  0  0  0  0  0  0
   -3.5284    0.4355   -0.4535 S   0  0  0  0  0  0  0  0  0  0  0  0
   -3.0564   -0.9765    1.9861 H   0  0  0  0  0  0  0  0  0  0  0  0
   -1.3312   -0.5252    2.0514 H   0  0  0  0  0  0  0  0  0  0  0  0
   -1.7996   -2.0244    1.2745 H   0  0  0  0  0  0  0  0  0  0  0  0
  1  2  1  0
  1 10  1  0
  1 11  1  0
  1 12  1  0
  2  3  1  0
  2  4  1  0
  3 14  1  0
  3 15  1  0
  3 16  1  0
  4  5  2  0
  4  9  1  0
  5  6  1  0
  5 17  1  0
  6  7  2  0
  6 18  1  0
  7  8  1  0
  7 19  1  0
  8  9  2  0
  8 20  1  0
  9 21  1  0
 13 23  1  0
 22 23  1  0
 22 25  1  0
 22 26  1  0
 22 27  1  0
 23 24  2  0
M  RAD  1   2   2
M  END
>  <reaction>  (7) 
rxn_1561

>  <mol_properties>  (7) 
{"1": {"label": "*1", "atom_type": "Cs"}, "3": {"label": "*0", "atom_type": "Cd"}, "12": {"label": "*2", "atom_type": "H0"}, "22": {"label": "*3", "atom_type": "CS"}, "23": {"label": "*4", "atom_type": "S2d"}}

>  <type>  (7) 
unop_3

>  <geom_source>  (7) 
Heuristics

$$$$

     RDKit          3D

 27 26  0  0  0  0  0  0  0  0999 V2000
   -0.1526    1.0260   -2.3810 C   0  0  0  0  0  0  0  0  0  0  0  0
   -0.1526    1.0260   -0.8513 C   0  0  0  0  0  3  0  0  0  0  0  0
   -0.1526    2.4536   -0.3019 C   0  0  0  0  0  0  0  0  0  0  0  0
    0.9967    0.2131   -0.2932 C   0  0  0  0  0  0  0  0  0  0  0  0
    2.3198    0.5728   -0.5402 C   0  0  0  0  0  0  0  0  0  0  0  0
    3.3694   -0.1719   -0.0289 C   0  0  0  0  0  0  0  0  0  0  0  0
    3.1163   -1.2967    0.7434 C   0  0  0  0  0  0  0  0  0  0  0  0
    1.8059   -1.6665    0.9973 C   0  0  0  0  0  0  0  0  0  0  0  0
    0.7587   -0.9158    0.4819 C   0  0  0  0  0  0  0  0  0  0  0  0
    0.7416    1.5162   -2.7727 H   0  0  0  0  0  0  0  0  0  0  0  0
   -0.1757    0.0086   -2.7744 H   0  0  0  0  0  0  0  0  0  0  0  0
   -1.0222    1.5632   -2.7653 H   0  0  0  0  0  0  0  0  0  0  0  0
   -1.2615    0.4468   -0.4537 H   0  0  0  0  0  0  0  0  0  0  0  0
   -1.0222    3.0052   -0.6652 H   0  0  0  0  0  0  0  0  0  0  0  0
   -0.1757    2.4552    0.7888 H   0  0  0  0  0  0  0  0  0  0  0  0
    0.7416    2.9952   -0.6187 H   0  0  0  0  0  0  0  0  0  0  0  0
    2.5356    1.4486   -1.1415 H   0  0  0  0  0  0  0  0  0  0  0  0
    4.3903    0.1262   -0.2336 H   0  0  0  0  0  0  0  0  0  0  0  0
    3.9362   -1.8796    1.1436 H   0  0  0  0  0  0  0  0  0  0  0  0
    1.5952   -2.5422    1.5986 H   0  0  0  0  0  0  0  0  0  0  0  0
   -0.2639   -1.2131    0.6861 H   0  0  0  0  0  0  0  0  0  0  0  0
   -3.6156    0.5393   -0.5139 C   0  0  0  0  0  0  0  0  0  0  0  0
   -2.3681   -0.1311   -0.0569 C   0  0  0  0  0  0  0  0  0  0  0  0
   -2.1689   -0.9366    1.3190 S   0  0  0  0  0  0  0  0  0  0  0  0
   -4.4216    0.4271    0.2082 H   0  0  0  0  0  0  0  0  0  0  0  0
   -3.9235    0.1231   -1.4781 H   0  0  0  0  0  0  0  0  0  0  0  0
   -3.4191    1.6022   -0.6853 H   0  0  0  0  0  0  0  0  0  0  0  0
  1  2  1  0
  1 10  1  0
  1 11  1  0
  1 12  1  0
  2  3  1  0
  2  4  1  0
  3 14  1  0
  3 15  1  0
  3 16  1  0
  4  5  2  0
  4  9  1  0
  5  6  1  0
  5 17  1  0
  6  7  2  0
  6 18  1  0
  7  8  1  0
  7 19  1  0
  8  9  2  0
  8 20  1  0
  9 21  1  0
 13 23  1  0
 22 23  1  0
 22 25  1  0
 22 26  1  0
 22 27  1  0
 23 24  2  0
M  RAD  1   2   2
M  END
>  <reaction>  (8) 
rxn_1561

>  <mol_properties>  (8) 
{"1": {"label": "*1", "atom_type": "Cs"}, "3": {"label": "*0", "atom_type": "Cd"}, "12": {"label": "*2", "atom_type": "H0"}, "22": {"label": "*3", "atom_type": "CS"}, "23": {"label": "*4", "atom_type": "S2d"}}

>  <type>  (8) 
unop_4

>  <geom_source>  (8) 
Heuristics

$$$$

     RDKit          3D

 27 26  0  0  0  0  0  0  0  0999 V2000
   -0.0282    1.0452   -2.1096 C   0  0  0  0  0  0  0  0  0  0  0  0
   -0.0282    1.0452   -0.5799 C   0  0  0  0  0  3  0  0  0  0  0  0
   -0.0282    2.4728   -0.0304 C   0  0  0  0  0  0  0  0  0  0  0  0
    1.1211    0.2323   -0.0218 C   0  0  0  0  0  0  0  0  0  0  0  0
    2.4442    0.5921   -0.2688 C   0  0  0  0  0  0  0  0  0  0  0  0
    3.4938   -0.1527    0.2426 C   0  0  0  0  0  0  0  0  0  0  0  0
    3.2408   -1.2775    1.0149 C   0  0  0  0  0  0  0  0  0  0  0  0
    1.9304   -1.6472    1.2688 C   0  0  0  0  0  0  0  0  0  0  0  0
    0.8831   -0.8966    0.7534 C   0  0  0  0  0  0  0  0  0  0  0  0
    0.8661    1.5354   -2.5012 H   0  0  0  0  0  0  0  0  0  0  0  0
   -0.0512    0.0279   -2.5030 H   0  0  0  0  0  0  0  0  0  0  0  0
   -0.8977    1.5824   -2.4939 H   0  0  0  0  0  0  0  0  0  0  0  0
   -1.1371    0.4660   -0.1823 H   0  0  0  0  0  0  0  0  0  0  0  0
   -0.8977    3.0244   -0.3938 H   0  0  0  0  0  0  0  0  0  0  0  0
   -0.0512    2.4745    1.0603 H   0  0  0  0  0  0  0  0  0  0  0  0
    0.8661    3.0144   -0.3473 H   0  0  0  0  0  0  0  0  0  0  0  0
    2.6600    1.4678   -0.8701 H   0  0  0  0  0  0  0  0  0  0  0  0
    4.5147    0.1455    0.0379 H   0  0  0  0  0  0  0  0  0  0  0  0
    4.0606   -1.8603    1.4151 H   0  0  0  0  0  0  0  0  0  0  0  0
    1.7196   -2.5230    1.8701 H   0  0  0  0  0  0  0  0  0  0  0  0
   -0.1395   -1.1939    0.9575 H   0  0  0  0  0  0  0  0  0  0  0  0
   -2.4037   -0.1955    1.6917 C   0  0  0  0  0  0  0  0  0  0  0  0
   -2.2437   -0.1119    0.2146 C   0  0  0  0  0  0  0  0  0  0  0  0
   -3.2797   -0.6530   -0.8878 S   0  0  0  0  0  0  0  0  0  0  0  0
   -3.3361   -0.6825    1.9695 H   0  0  0  0  0  0  0  0  0  0  0  0
   -2.3705    0.8103    2.1218 H   0  0  0  0  0  0  0  0  0  0  0  0
   -1.5593   -0.7429    2.1218 H   0  0  0  0  0  0  0  0  0  0  0  0
  1  2  1  0
  1 10  1  0
  1 11  1  0
  1 12  1  0
  2  3  1  0
  2  4  1  0
  3 14  1  0
  3 15  1  0
  3 16  1  0
  4  5  2  0
  4  9  1  0
  5  6  1  0
  5 17  1  0
  6  7  2  0
  6 18  1  0
  7  8  1  0
  7 19  1  0
  8  9  2  0
  8 20  1  0
  9 21  1  0
 13 23  1  0
 22 23  1  0
 22 25  1  0
 22 26  1  0
 22 27  1  0
 23 24  2  0
M  RAD  1   2   2
M  END
>  <reaction>  (9) 
rxn_1561

>  <mol_properties>  (9) 
{"1": {"label": "*1", "atom_type": "Cs"}, "3": {"label": "*0", "atom_type": "Cd"}, "12": {"label": "*2", "atom_type": "H0"}, "22": {"label": "*3", "atom_type": "CS"}, "23": {"label": "*4", "atom_type": "S2d"}}

>  <type>  (9) 
unop_5

>  <geom_source>  (9) 
Heuristics

$$$$

     RDKit          3D

 27 26  0  0  0  0  0  0  0  0999 V2000
   -0.1951    1.0808   -2.3611 C   0  0  0  0  0  0  0  0  0  0  0  0
   -0.1951    1.0808   -0.8314 C   0  0  0  0  0  3  0  0  0  0  0  0
   -0.1951    2.5084   -0.2819 C   0  0  0  0  0  0  0  0  0  0  0  0
    0.9543    0.2679   -0.2733 C   0  0  0  0  0  0  0  0  0  0  0  0
    2.2773    0.6276   -0.5203 C   0  0  0  0  0  0  0  0  0  0  0  0
    3.3270   -0.1171   -0.0089 C   0  0  0  0  0  0  0  0  0  0  0  0
    3.0739   -1.2419    0.7634 C   0  0  0  0  0  0  0  0  0  0  0  0
    1.7635   -1.6117    1.0173 C   0  0  0  0  0  0  0  0  0  0  0  0
    0.7162   -0.8610    0.5019 C   0  0  0  0  0  0  0  0  0  0  0  0
    0.6992    1.5710   -2.7528 H   0  0  0  0  0  0  0  0  0  0  0  0
   -0.2181    0.0634   -2.7545 H   0  0  0  0  0  0  0  0  0  0  0  0
   -1.0646    1.6180   -2.7454 H   0  0  0  0  0  0  0  0  0  0  0  0
   -1.3039    0.5016   -0.4338 H   0  0  0  0  0  0  0  0  0  0  0  0
   -1.0646    3.0600   -0.6453 H   0  0  0  0  0  0  0  0  0  0  0  0
   -0.2181    2.5101    0.8088 H   0  0  0  0  0  0  0  0  0  0  0  0
    0.6992    3.0500   -0.5988 H   0  0  0  0  0  0  0  0  0  0  0  0
    2.4931    1.5034   -1.1216 H   0  0  0  0  0  0  0  0  0  0  0  0
    4.3478    0.1810   -0.2136 H   0  0  0  0  0  0  0  0  0  0  0  0
    3.8937   -1.8248    1.1636 H   0  0  0  0  0  0  0  0  0  0  0  0
    1.5527   -2.4874    1.6185 H   0  0  0  0  0  0  0  0  0  0  0  0
   -0.3064   -1.1583    0.7060 H   0  0  0  0  0  0  0  0  0  0  0  0
   -3.5603    0.8497    0.1507 C   0  0  0  0  0  0  0  0  0  0  0  0
   -2.4106   -0.0763   -0.0369 C   0  0  0  0  0  0  0  0  0  0  0  0
   -2.0214   -1.3155    0.9088 S   0  0  0  0  0  0  0  0  0  0  0  0
   -4.1426    0.5957    1.0339 H   0  0  0  0  0  0  0  0  0  0  0  0
   -4.2023    0.8215   -0.7351 H   0  0  0  0  0  0  0  0  0  0  0  0
   -3.1937    1.8775    0.2335 H   0  0  0  0  0  0  0  0  0  0  0  0
  1  2  1  0
  1 10  1  0
  1 11  1  0
  1 12  1  0
  2  3  1  0
  2  4  1  0
  3 14  1  0
  3 15  1  0
  3 16  1  0
  4  5  2  0
  4  9  1  0
  5  6  1  0
  5 17  1  0
  6  7  2  0
  6 18  1  0
  7  8  1  0
  7 19  1  0
  8  9  2  0
  8 20  1  0
  9 21  1  0
 13 23  1  0
 22 23  1  0
 22 25  1  0
 22 26  1  0
 22 27  1  0
 23 24  2  0
M  RAD  1   2   2
M  END
>  <reaction>  (10) 
rxn_1561

>  <mol_properties>  (10) 
{"1": {"label": "*1", "atom_type": "Cs"}, "3": {"label": "*0", "atom_type": "Cd"}, "12": {"label": "*2", "atom_type": "H0"}, "22": {"label": "*3", "atom_type": "CS"}, "23": {"label": "*4", "atom_type": "S2d"}}

>  <type>  (10) 
unop_6

>  <geom_source>  (10) 
Heuristics

$$$$

     RDKit          3D

 27 26  0  0  0  0  0  0  0  0999 V2000
   -0.2070    1.1426   -2.2935 C   0  0  0  0  0  0  0  0  0  0  0  0
   -0.2070    1.1426   -0.7638 C   0  0  0  0  0  3  0  0  0  0  0  0
   -0.2070    2.5702   -0.2143 C   0  0  0  0  0  0  0  0  0  0  0  0
    0.9423    0.3298   -0.2057 C   0  0  0  0  0  0  0  0  0  0  0  0
    2.2654    0.6895   -0.4527 C   0  0  0  0  0  0  0  0  0  0  0  0
    3.3150   -0.0553    0.0587 C   0  0  0  0  0  0  0  0  0  0  0  0
    3.0620   -1.1801    0.8310 C   0  0  0  0  0  0  0  0  0  0  0  0
    1.7516   -1.5498    1.0849 C   0  0  0  0  0  0  0  0  0  0  0  0
    0.7043   -0.7992    0.5695 C   0  0  0  0  0  0  0  0  0  0  0  0
    0.6873    1.6329   -2.6852 H   0  0  0  0  0  0  0  0  0  0  0  0
   -0.2300    0.1253   -2.6869 H   0  0  0  0  0  0  0  0  0  0  0  0
   -1.0765    1.6798   -2.6778 H   0  0  0  0  0  0  0  0  0  0  0  0
   -1.3159    0.5635   -0.3662 H   0  0  0  0  0  0  0  0  0  0  0  0
   -1.0765    3.1218   -0.5777 H   0  0  0  0  0  0  0  0  0  0  0  0
   -0.2300    2.5719    0.8764 H   0  0  0  0  0  0  0  0  0  0  0  0
    0.6873    3.1118   -0.5312 H   0  0  0  0  0  0  0  0  0  0  0  0
    2.4812    1.5652   -1.0540 H   0  0  0  0  0  0  0  0  0  0  0  0
    4.3359    0.2429   -0.1460 H   0  0  0  0  0  0  0  0  0  0  0  0
    3.8818   -1.7629    1.2312 H   0  0  0  0  0  0  0  0  0  0  0  0
    1.5408   -2.4255    1.6862 H   0  0  0  0  0  0  0  0  0  0  0  0
   -0.3183   -1.0965    0.7736 H   0  0  0  0  0  0  0  0  0  0  0  0
   -3.3066    0.8457    0.8631 C   0  0  0  0  0  0  0  0  0  0  0  0
   -2.4225   -0.0145    0.0307 C   0  0  0  0  0  0  0  0  0  0  0  0
   -2.0976   -1.5683    0.2787 S   0  0  0  0  0  0  0  0  0  0  0  0
   -3.7344    0.2954    1.6984 H   0  0  0  0  0  0  0  0  0  0  0  0
   -4.1089    1.2564    0.2423 H   0  0  0  0  0  0  0  0  0  0  0  0
   -2.7377    1.7021    1.2381 H   0  0  0  0  0  0  0  0  0  0  0  0
  1  2  1  0
  1 10  1  0
  1 11  1  0
  1 12  1  0
  2  3  1  0
  2  4  1  0
  3 14  1  0
  3 15  1  0
  3 16  1  0
  4  5  2  0
  4  9  1  0
  5  6  1  0
  5 17  1  0
  6  7  2  0
  6 18  1  0
  7  8  1  0
  7 19  1  0
  8  9  2  0
  8 20  1  0
  9 21  1  0
 13 23  1  0
 22 23  1  0
 22 25  1  0
 22 26  1  0
 22 27  1  0
 23 24  2  0
M  RAD  1   2   2
M  END
>  <reaction>  (11) 
rxn_1561

>  <mol_properties>  (11) 
{"1": {"label": "*1", "atom_type": "Cs"}, "3": {"label": "*0", "atom_type": "Cd"}, "12": {"label": "*2", "atom_type": "H0"}, "22": {"label": "*3", "atom_type": "CS"}, "23": {"label": "*4", "atom_type": "S2d"}}

>  <type>  (11) 
unop_7

>  <geom_source>  (11) 
Heuristics

$$$$

     RDKit          3D

 27 26  0  0  0  0  0  0  0  0999 V2000
   -0.0943    0.8879   -2.3611 C   0  0  0  0  0  0  0  0  0  0  0  0
   -0.0943    0.8879   -0.8314 C   0  0  0  0  0  3  0  0  0  0  0  0
   -0.0943    2.3155   -0.2819 C   0  0  0  0  0  0  0  0  0  0  0  0
    1.0550    0.0750   -0.2733 C   0  0  0  0  0  0  0  0  0  0  0  0
    2.3781    0.4348   -0.5203 C   0  0  0  0  0  0  0  0  0  0  0  0
    3.4277   -0.3100   -0.0089 C   0  0  0  0  0  0  0  0  0  0  0  0
    3.1746   -1.4348    0.7634 C   0  0  0  0  0  0  0  0  0  0  0  0
    1.8642   -1.8045    1.0173 C   0  0  0  0  0  0  0  0  0  0  0  0
    0.8170   -1.0539    0.5019 C   0  0  0  0  0  0  0  0  0  0  0  0
    0.7999    1.3781   -2.7528 H   0  0  0  0  0  0  0  0  0  0  0  0
   -0.1174   -0.1294   -2.7545 H   0  0  0  0  0  0  0  0  0  0  0  0
   -0.9639    1.4251   -2.7454 H   0  0  0  0  0  0  0  0  0  0  0  0
   -1.2032    0.3088   -0.4338 H   0  0  0  0  0  0  0  0  0  0  0  0
   -0.9639    2.8671   -0.6453 H   0  0  0  0  0  0  0  0  0  0  0  0
   -0.1174    2.3172    0.8088 H   0  0  0  0  0  0  0  0  0  0  0  0
    0.7999    2.8571   -0.5988 H   0  0  0  0  0  0  0  0  0  0  0  0
    2.5939    1.3105   -1.1216 H   0  0  0  0  0  0  0  0  0  0  0  0
    4.4486   -0.0118   -0.2136 H   0  0  0  0  0  0  0  0  0  0  0  0
    3.9945   -2.0176    1.1636 H   0  0  0  0  0  0  0  0  0  0  0  0
    1.6535   -2.6803    1.6185 H   0  0  0  0  0  0  0  0  0  0  0  0
   -0.2057   -1.3512    0.7060 H   0  0  0  0  0  0  0  0  0  0  0  0
   -2.2068   -1.7419    0.1507 C   0  0  0  0  0  0  0  0  0  0  0  0
   -2.3098   -0.2692   -0.0369 C   0  0  0  0  0  0  0  0  0  0  0  0
   -3.1045    0.7582    0.9088 S   0  0  0  0  0  0  0  0  0  0  0  0
   -2.7480   -2.0747    1.0339 H   0  0  0  0  0  0  0  0  0  0  0  0
   -1.1538   -2.0283    0.2335 H   0  0  0  0  0  0  0  0  0  0  0  0
   -2.5967   -2.2527   -0.7351 H   0  0  0  0  0  0  0  0  0  0  0  0
  1  2  1  0
  1 10  1  0
  1 11  1  0
  1 12  1  0
  2  3  1  0
  2  4  1  0
  3 14  1  0
  3 15  1  0
  3 16  1  0
  4  5  2  0
  4  9  1  0
  5  6  1  0
  5 17  1  0
  6  7  2  0
  6 18  1  0
  7  8  1  0
  7 19  1  0
  8  9  2  0
  8 20  1  0
  9 21  1  0
 13 23  1  0
 22 23  1  0
 22 25  1  0
 22 26  1  0
 22 27  1  0
 23 24  2  0
M  RAD  1   2   2
M  END
>  <reaction>  (12) 
rxn_1561

>  <mol_properties>  (12) 
{"1": {"label": "*1", "atom_type": "Cs"}, "3": {"label": "*0", "atom_type": "Cd"}, "12": {"label": "*2", "atom_type": "H0"}, "22": {"label": "*3", "atom_type": "CS"}, "23": {"label": "*4", "atom_type": "S2d"}}

>  <type>  (12) 
unop_8

>  <geom_source>  (12) 
Heuristics

$$$$

     RDKit          3D

 27 26  0  0  0  0  0  0  0  0999 V2000
   -0.1119    1.0038   -2.3699 C   0  0  0  0  0  0  0  0  0  0  0  0
   -0.1119    1.0038   -0.8402 C   0  0  0  0  0  3  0  0  0  0  0  0
   -0.1119    2.4314   -0.2907 C   0  0  0  0  0  0  0  0  0  0  0  0
    1.0374    0.1910   -0.2820 C   0  0  0  0  0  0  0  0  0  0  0  0
    2.3605    0.5507   -0.5290 C   0  0  0  0  0  0  0  0  0  0  0  0
    3.4102   -0.1941   -0.0177 C   0  0  0  0  0  0  0  0  0  0  0  0
    3.1571   -1.3188    0.7546 C   0  0  0  0  0  0  0  0  0  0  0  0
    1.8467   -1.6886    1.0085 C   0  0  0  0  0  0  0  0  0  0  0  0
    0.7994   -0.9380    0.4931 C   0  0  0  0  0  0  0  0  0  0  0  0
    0.7824    1.4941   -2.7615 H   0  0  0  0  0  0  0  0  0  0  0  0
   -0.1349   -0.0135   -2.7632 H   0  0  0  0  0  0  0  0  0  0  0  0
   -0.9814    1.5411   -2.7542 H   0  0  0  0  0  0  0  0  0  0  0  0
   -1.2207    0.4247   -0.4425 H   0  0  0  0  0  0  0  0  0  0  0  0
   -0.9814    2.9831   -0.6540 H   0  0  0  0  0  0  0  0  0  0  0  0
   -0.1349    2.4331    0.8000 H   0  0  0  0  0  0  0  0  0  0  0  0
    0.7824    2.9730   -0.6075 H   0  0  0  0  0  0  0  0  0  0  0  0
    2.5763    1.4264   -1.1303 H   0  0  0  0  0  0  0  0  0  0  0  0
    4.4310    0.1041   -0.2224 H   0  0  0  0  0  0  0  0  0  0  0  0
    3.9769   -1.9017    1.1548 H   0  0  0  0  0  0  0  0  0  0  0  0
    1.6359   -2.5643    1.6098 H   0  0  0  0  0  0  0  0  0  0  0  0
   -0.2232   -1.2353    0.6973 H   0  0  0  0  0  0  0  0  0  0  0  0
   -3.4786    0.0087   -0.9747 C   0  0  0  0  0  0  0  0  0  0  0  0
   -2.3274   -0.1533   -0.0457 C   0  0  0  0  0  0  0  0  0  0  0  0
   -2.4044   -0.5835    1.5004 S   0  0  0  0  0  0  0  0  0  0  0  0
   -4.4261   -0.2023   -0.4835 H   0  0  0  0  0  0  0  0  0  0  0  0
   -3.3525   -0.6566   -1.8344 H   0  0  0  0  0  0  0  0  0  0  0  0
   -3.4882    1.0282   -1.3724 H   0  0  0  0  0  0  0  0  0  0  0  0
  1  2  1  0
  1 10  1  0
  1 11  1  0
  1 12  1  0
  2  3  1  0
  2  4  1  0
  3 14  1  0
  3 15  1  0
  3 16  1  0
  4  5  2  0
  4  9  1  0
  5  6  1  0
  5 17  1  0
  6  7  2  0
  6 18  1  0
  7  8  1  0
  7 19  1  0
  8  9  2  0
  8 20  1  0
  9 21  1  0
 13 23  1  0
 22 23  1  0
 22 25  1  0
 22 26  1  0
 22 27  1  0
 23 24  2  0
M  RAD  1   2   2
M  END
>  <reaction>  (13) 
rxn_1561

>  <mol_properties>  (13) 
{"1": {"label": "*1", "atom_type": "Cs"}, "3": {"label": "*0", "atom_type": "Cd"}, "12": {"label": "*2", "atom_type": "H0"}, "22": {"label": "*3", "atom_type": "CS"}, "23": {"label": "*4", "atom_type": "S2d"}}

>  <type>  (13) 
unop_9

>  <geom_source>  (13) 
Heuristics

$$$$

     RDKit          3D

 27 26  0  0  0  0  0  0  0  0999 V2000
   -0.1151    0.9540   -2.3810 C   0  0  0  0  0  0  0  0  0  0  0  0
   -0.1151    0.9540   -0.8513 C   0  0  0  0  0  3  0  0  0  0  0  0
   -0.1151    2.3816   -0.3019 C   0  0  0  0  0  0  0  0  0  0  0  0
    1.0342    0.1412   -0.2932 C   0  0  0  0  0  0  0  0  0  0  0  0
    2.3573    0.5009   -0.5402 C   0  0  0  0  0  0  0  0  0  0  0  0
    3.4070   -0.2438   -0.0289 C   0  0  0  0  0  0  0  0  0  0  0  0
    3.1539   -1.3686    0.7434 C   0  0  0  0  0  0  0  0  0  0  0  0
    1.8435   -1.7384    0.9973 C   0  0  0  0  0  0  0  0  0  0  0  0
    0.7962   -0.9878    0.4819 C   0  0  0  0  0  0  0  0  0  0  0  0
    0.7792    1.4443   -2.7727 H   0  0  0  0  0  0  0  0  0  0  0  0
   -0.1381   -0.0633   -2.7744 H   0  0  0  0  0  0  0  0  0  0  0  0
   -0.9846    1.4913   -2.7653 H   0  0  0  0  0  0  0  0  0  0  0  0
   -1.2239    0.3749   -0.4537 H   0  0  0  0  0  0  0  0  0  0  0  0
   -0.9846    2.9333   -0.6652 H   0  0  0  0  0  0  0  0  0  0  0  0
   -0.1381    2.3833    0.7888 H   0  0  0  0  0  0  0  0  0  0  0  0
    0.7792    2.9232   -0.6187 H   0  0  0  0  0  0  0  0  0  0  0  0
    2.5731    1.3767   -1.1415 H   0  0  0  0  0  0  0  0  0  0  0  0
    4.4278    0.0543   -0.2336 H   0  0  0  0  0  0  0  0  0  0  0  0
    3.9737   -1.9515    1.1436 H   0  0  0  0  0  0  0  0  0  0  0  0
    1.6327   -2.6141    1.5986 H   0  0  0  0  0  0  0  0  0  0  0  0
   -0.2264   -1.2851    0.6861 H   0  0  0  0  0  0  0  0  0  0  0  0
   -2.4931   -1.6099   -0.5139 C   0  0  0  0  0  0  0  0  0  0  0  0
   -2.3306   -0.2031   -0.0569 C   0  0  0  0  0  0  0  0  0  0  0  0
   -2.8777    0.4207    1.3190 S   0  0  0  0  0  0  0  0  0  0  0  0
   -3.0457   -2.2073    0.2082 H   0  0  0  0  0  0  0  0  0  0  0  0
   -1.5086   -2.0560   -0.6853 H   0  0  0  0  0  0  0  0  0  0  0  0
   -3.0106   -1.6249   -1.4781 H   0  0  0  0  0  0  0  0  0  0  0  0
  1  2  1  0
  1 10  1  0
  1 11  1  0
  1 12  1  0
  2  3  1  0
  2  4  1  0
  3 14  1  0
  3 15  1  0
  3 16  1  0
  4  5  2  0
  4  9  1  0
  5  6  1  0
  5 17  1  0
  6  7  2  0
  6 18  1  0
  7  8  1  0
  7 19  1  0
  8  9  2  0
  8 20  1  0
  9 21  1  0
 13 23  1  0
 22 23  1  0
 22 25  1  0
 22 26  1  0
 22 27  1  0
 23 24  2  0
M  RAD  1   2   2
M  END
>  <reaction>  (14) 
rxn_1561

>  <mol_properties>  (14) 
{"1": {"label": "*1", "atom_type": "Cs"}, "3": {"label": "*0", "atom_type": "Cd"}, "12": {"label": "*2", "atom_type": "H0"}, "22": {"label": "*3", "atom_type": "CS"}, "23": {"label": "*4", "atom_type": "S2d"}}

>  <type>  (14) 
unop_10

>  <geom_source>  (14) 
Heuristics

$$$$

     RDKit          3D

 27 26  0  0  0  0  0  0  0  0999 V2000
   -0.1523    1.1628   -2.1853 C   0  0  0  0  0  0  0  0  0  0  0  0
   -0.1523    1.1628   -0.6556 C   0  0  0  0  0  3  0  0  0  0  0  0
   -0.1523    2.5904   -0.1061 C   0  0  0  0  0  0  0  0  0  0  0  0
    0.9970    0.3500   -0.0975 C   0  0  0  0  0  0  0  0  0  0  0  0
    2.3201    0.7097   -0.3445 C   0  0  0  0  0  0  0  0  0  0  0  0
    3.3697   -0.0351    0.1669 C   0  0  0  0  0  0  0  0  0  0  0  0
    3.1166   -1.1598    0.9392 C   0  0  0  0  0  0  0  0  0  0  0  0
    1.8062   -1.5296    1.1931 C   0  0  0  0  0  0  0  0  0  0  0  0
    0.7590   -0.7790    0.6777 C   0  0  0  0  0  0  0  0  0  0  0  0
    0.7420    1.6531   -2.5769 H   0  0  0  0  0  0  0  0  0  0  0  0
   -0.1754    0.1455   -2.5786 H   0  0  0  0  0  0  0  0  0  0  0  0
   -1.0218    1.7001   -2.5696 H   0  0  0  0  0  0  0  0  0  0  0  0
   -1.2612    0.5837   -0.2579 H   0  0  0  0  0  0  0  0  0  0  0  0
   -1.0218    3.1421   -0.4694 H   0  0  0  0  0  0  0  0  0  0  0  0
   -0.1754    2.5921    0.9846 H   0  0  0  0  0  0  0  0  0  0  0  0
    0.7420    3.1320   -0.4230 H   0  0  0  0  0  0  0  0  0  0  0  0
    2.5359    1.5854   -0.9458 H   0  0  0  0  0  0  0  0  0  0  0  0
    4.3906    0.2631   -0.0378 H   0  0  0  0  0  0  0  0  0  0  0  0
    3.9365   -1.7427    1.3394 H   0  0  0  0  0  0  0  0  0  0  0  0
    1.5955   -2.4053    1.7944 H   0  0  0  0  0  0  0  0  0  0  0  0
   -0.2636   -1.0763    0.8818 H   0  0  0  0  0  0  0  0  0  0  0  0
   -2.8897    0.4964    1.4433 C   0  0  0  0  0  0  0  0  0  0  0  0
   -2.3678    0.0057    0.1389 C   0  0  0  0  0  0  0  0  0  0  0  0
   -2.5285   -1.4791   -0.4535 S   0  0  0  0  0  0  0  0  0  0  0  0
   -3.4175   -0.2849    1.9861 H   0  0  0  0  0  0  0  0  0  0  0  0
   -3.5595    1.3453    1.2745 H   0  0  0  0  0  0  0  0  0  0  0  0
   -2.0615    0.8731    2.0514 H   0  0  0  0  0  0  0  0  0  0  0  0
  1  2  1  0
  1 10  1  0
  1 11  1  0
  1 12  1  0
  2  3  1  0
  2  4  1  0
  3 14  1  0
  3 15  1  0
  3 16  1  0
  4  5  2  0
  4  9  1  0
  5  6  1  0
  5 17  1  0
  6  7  2  0
  6 18  1  0
  7  8  1  0
  7 19  1  0
  8  9  2  0
  8 20  1  0
  9 21  1  0
 13 23  1  0
 22 23  1  0
 22 25  1  0
 22 26  1  0
 22 27  1  0
 23 24  2  0
M  RAD  1   2   2
M  END
>  <reaction>  (15) 
rxn_1561

>  <mol_properties>  (15) 
{"1": {"label": "*1", "atom_type": "Cs"}, "3": {"label": "*0", "atom_type": "Cd"}, "12": {"label": "*2", "atom_type": "H0"}, "22": {"label": "*3", "atom_type": "CS"}, "23": {"label": "*4", "atom_type": "S2d"}}

>  <type>  (15) 
unop_11

>  <geom_source>  (15) 
Heuristics

$$$$

     RDKit          3D

 27 26  0  0  0  0  0  0  0  0999 V2000
   -0.0987    1.0084   -2.3598 C   0  0  0  0  0  0  0  0  0  0  0  0
   -0.0987    1.0084   -0.8301 C   0  0  0  0  0  3  0  0  0  0  0  0
   -0.0987    2.4360   -0.2806 C   0  0  0  0  0  0  0  0  0  0  0  0
    1.0506    0.1955   -0.2720 C   0  0  0  0  0  0  0  0  0  0  0  0
    2.3737    0.5552   -0.5190 C   0  0  0  0  0  0  0  0  0  0  0  0
    3.4234   -0.1895   -0.0076 C   0  0  0  0  0  0  0  0  0  0  0  0
    3.1703   -1.3143    0.7647 C   0  0  0  0  0  0  0  0  0  0  0  0
    1.8599   -1.6841    1.0186 C   0  0  0  0  0  0  0  0  0  0  0  0
    0.8126   -0.9334    0.5032 C   0  0  0  0  0  0  0  0  0  0  0  0
    0.7956    1.4986   -2.7514 H   0  0  0  0  0  0  0  0  0  0  0  0
   -0.1217   -0.0090   -2.7532 H   0  0  0  0  0  0  0  0  0  0  0  0
   -0.9682    1.5456   -2.7441 H   0  0  0  0  0  0  0  0  0  0  0  0
   -1.2076    0.4292   -0.4325 H   0  0  0  0  0  0  0  0  0  0  0  0
   -0.9682    2.9876   -0.6440 H   0  0  0  0  0  0  0  0  0  0  0  0
   -0.1217    2.4377    0.8101 H   0  0  0  0  0  0  0  0  0  0  0  0
    0.7956    2.9776   -0.5975 H   0  0  0  0  0  0  0  0  0  0  0  0
    2.5895    1.4310   -1.1203 H   0  0  0  0  0  0  0  0  0  0  0  0
    4.4442    0.1086   -0.2123 H   0  0  0  0  0  0  0  0  0  0  0  0
    3.9901   -1.8971    1.1649 H   0  0  0  0  0  0  0  0  0  0  0  0
    1.6491   -2.5598    1.6199 H   0  0  0  0  0  0  0  0  0  0  0  0
   -0.2100   -1.2307    0.7073 H   0  0  0  0  0  0  0  0  0  0  0  0
   -3.2008   -0.6118   -1.1374 C   0  0  0  0  0  0  0  0  0  0  0  0
   -2.3142   -0.1487   -0.0356 C   0  0  0  0  0  0  0  0  0  0  0  0
   -2.5958   -0.2958    1.5393 S   0  0  0  0  0  0  0  0  0  0  0  0
   -4.1043   -1.0836   -0.7568 H   0  0  0  0  0  0  0  0  0  0  0  0
   -2.6570   -1.3162   -1.7744 H   0  0  0  0  0  0  0  0  0  0  0  0
   -3.4682    0.2370   -1.7744 H   0  0  0  0  0  0  0  0  0  0  0  0
  1  2  1  0
  1 10  1  0
  1 11  1  0
  1 12  1  0
  2  3  1  0
  2  4  1  0
  3 14  1  0
  3 15  1  0
  3 16  1  0
  4  5  2  0
  4  9  1  0
  5  6  1  0
  5 17  1  0
  6  7  2  0
  6 18  1  0
  7  8  1  0
  7 19  1  0
  8  9  2  0
  8 20  1  0
  9 21  1  0
 13 23  1  0
 22 23  1  0
 22 25  1  0
 22 26  1  0
 22 27  1  0
 23 24  2  0
M  RAD  1   2   2
M  END
>  <reaction>  (16) 
rxn_1561

>  <mol_properties>  (16) 
{"1": {"label": "*1", "atom_type": "Cs"}, "3": {"label": "*0", "atom_type": "Cd"}, "12": {"label": "*2", "atom_type": "H0"}, "22": {"label": "*3", "atom_type": "CS"}, "23": {"label": "*4", "atom_type": "S2d"}}

>  <type>  (16) 
unop_12

>  <geom_source>  (16) 
Heuristics

$$$$

     RDKit          3D

 27 26  0  0  0  0  0  0  0  0999 V2000
    3.4839    0.3457   -1.3227 S   0  0  0  0  0  0  0  0  0  0  0  0
    0.5754   -2.1720   -0.0879 C   0  0  0  0  0  0  0  0  0  0  0  0
    0.1951   -0.8303   -2.2123 C   0  0  0  0  0  0  0  0  0  0  0  0
    2.8620    1.2806    0.9655 C   0  0  0  0  0  0  0  0  0  0  0  0
    0.3242   -0.7883   -0.6889 C   0  0  0  0  0  3  0  0  0  0  0  0
   -0.8365   -0.0847   -0.0368 C   0  0  0  0  0  0  0  0  0  0  0  0
   -2.1465   -0.5904   -0.1217 C   0  0  0  0  0  0  0  0  0  0  0  0
   -0.6010    1.1025    0.6709 C   0  0  0  0  0  0  0  0  0  0  0  0
   -3.2025    0.0875    0.4955 C   0  0  0  0  0  0  0  0  0  0  0  0
   -2.9595    1.2705    1.1991 C   0  0  0  0  0  0  0  0  0  0  0  0
   -1.6599    1.7775    1.2867 C   0  0  0  0  0  0  0  0  0  0  0  0
    2.6008    0.3680   -0.1906 C   0  0  0  0  0  0  0  0  0  0  0  0
    3.8443    1.0450    1.4283 H   0  0  0  0  0  0  0  0  0  0  0  0
    2.0676    1.1428    1.7279 H   0  0  0  0  0  0  0  0  0  0  0  0
    2.8535    2.3398    0.6301 H   0  0  0  0  0  0  0  0  0  0  0  0
   -0.2670   -2.8602   -0.3127 H   0  0  0  0  0  0  0  0  0  0  0  0
    1.5105   -2.5989   -0.5071 H   0  0  0  0  0  0  0  0  0  0  0  0
    0.6942   -2.0895    1.0132 H   0  0  0  0  0  0  0  0  0  0  0  0
    1.1258   -1.2415   -2.6564 H   0  0  0  0  0  0  0  0  0  0  0  0
    0.0462    0.1970   -2.6071 H   0  0  0  0  0  0  0  0  0  0  0  0
   -0.6621   -1.4664   -2.5197 H   0  0  0  0  0  0  0  0  0  0  0  0
   -2.3500   -1.5054   -0.6631 H   0  0  0  0  0  0  0  0  0  0  0  0
   -4.2092   -0.3042    0.4283 H   0  0  0  0  0  0  0  0  0  0  0  0
   -3.7778    1.7941    1.6763 H   0  0  0  0  0  0  0  0  0  0  0  0
   -1.4728    2.6936    1.8318 H   0  0  0  0  0  0  0  0  0  0  0  0
    0.4020    1.5045    0.7452 H   0  0  0  0  0  0  0  0  0  0  0  0
    1.5594   -0.4172   -0.1716 H   0  0  0  0  0  0  0  0  0  0  0  0
  1 12  2  0
  2  5  1  0
  2 16  1  0
  2 17  1  0
  2 18  1  0
  3  5  1  0
  3 19  1  0
  3 20  1  0
  3 21  1  0
  4 12  1  0
  4 13  1  0
  4 14  1  0
  4 15  1  0
  5  6  1  0
  6  7  2  0
  6  8  1  0
  7  9  1  0
  7 22  1  0
  8 11  2  0
  8 26  1  0
  9 10  2  0
  9 23  1  0
 10 11  1  0
 10 24  1  0
 11 25  1  0
 12 27  1  0
M  RAD  1   5   2
M  END
>  <reaction>  (17) 
rxn_1561

>  <mol_properties>  (17) 
{"1": {"label": "*1", "atom_type": "Cs"}, "3": {"label": "*0", "atom_type": "Cd"}, "12": {"label": "*2", "atom_type": "H0"}, "22": {"label": "*3", "atom_type": "CS"}, "23": {"label": "*4", "atom_type": "S2d"}}

>  <type>  (17) 
unop_13

>  <geom_source>  (17) 
AutoTST

$$$$

     RDKit          3D

 27 26  0  0  0  0  0  0  0  0999 V2000
   -0.1099    1.0001   -2.3699 C   0  0  0  0  0  0  0  0  0  0  0  0
   -0.1099    1.0001   -0.8402 C   0  0  0  0  0  3  0  0  0  0  0  0
   -0.1099    2.4277   -0.2907 C   0  0  0  0  0  0  0  0  0  0  0  0
    1.0394    0.1873   -0.2820 C   0  0  0  0  0  0  0  0  0  0  0  0
    2.3624    0.5470   -0.5290 C   0  0  0  0  0  0  0  0  0  0  0  0
    3.4121   -0.1977   -0.0177 C   0  0  0  0  0  0  0  0  0  0  0  0
    3.1590   -1.3225    0.7546 C   0  0  0  0  0  0  0  0  0  0  0  0
    1.8486   -1.6923    1.0085 C   0  0  0  0  0  0  0  0  0  0  0  0
    0.8014   -0.9417    0.4931 C   0  0  0  0  0  0  0  0  0  0  0  0
    0.7843    1.4904   -2.7615 H   0  0  0  0  0  0  0  0  0  0  0  0
   -0.1330   -0.0172   -2.7632 H   0  0  0  0  0  0  0  0  0  0  0  0
   -0.9795    1.5374   -2.7542 H   0  0  0  0  0  0  0  0  0  0  0  0
   -1.2188    0.4210   -0.4425 H   0  0  0  0  0  0  0  0  0  0  0  0
   -0.9795    2.9794   -0.6540 H   0  0  0  0  0  0  0  0  0  0  0  0
   -0.1330    2.4294    0.8000 H   0  0  0  0  0  0  0  0  0  0  0  0
    0.7843    2.9693   -0.6075 H   0  0  0  0  0  0  0  0  0  0  0  0
    2.5783    1.4228   -1.1303 H   0  0  0  0  0  0  0  0  0  0  0  0
    4.4329    0.1004   -0.2224 H   0  0  0  0  0  0  0  0  0  0  0  0
    3.9788   -1.9054    1.1548 H   0  0  0  0  0  0  0  0  0  0  0  0
    1.6379   -2.5680    1.6098 H   0  0  0  0  0  0  0  0  0  0  0  0
   -0.2213   -1.2390    0.6973 H   0  0  0  0  0  0  0  0  0  0  0  0
   -2.8502   -1.1943   -0.9747 C   0  0  0  0  0  0  0  0  0  0  0  0
   -2.3254   -0.1570   -0.0457 C   0  0  0  0  0  0  0  0  0  0  0  0
   -2.7225    0.0256    1.5004 S   0  0  0  0  0  0  0  0  0  0  0  0
   -3.5649   -1.8513   -0.4835 H   0  0  0  0  0  0  0  0  0  0  0  0
   -2.0191   -1.7848   -1.3724 H   0  0  0  0  0  0  0  0  0  0  0  0
   -3.3242   -0.7107   -1.8345 H   0  0  0  0  0  0  0  0  0  0  0  0
  1  2  1  0
  1 10  1  0
  1 11  1  0
  1 12  1  0
  2  3  1  0
  2  4  1  0
  3 14  1  0
  3 15  1  0
  3 16  1  0
  4  5  2  0
  4  9  1  0
  5  6  1  0
  5 17  1  0
  6  7  2  0
  6 18  1  0
  7  8  1  0
  7 19  1  0
  8  9  2  0
  8 20  1  0
  9 21  1  0
 13 23  1  0
 22 23  1  0
 22 25  1  0
 22 26  1  0
 22 27  1  0
 23 24  2  0
M  RAD  1   2   2
M  END
>  <reaction>  (18) 
rxn_1561

>  <mol_properties>  (18) 
{"1": {"label": "*1", "atom_type": "Cs"}, "3": {"label": "*0", "atom_type": "Cd"}, "12": {"label": "*2", "atom_type": "H0"}, "22": {"label": "*3", "atom_type": "CS"}, "23": {"label": "*4", "atom_type": "S2d"}}

>  <type>  (18) 
unop_14

>  <geom_source>  (18) 
gaussian_log

$$$$
