
     RDKit          3D

 11 10  0  0  0  0  0  0  0  0999 V2000
   -1.2710    0.1907   -0.2084 C   0  0  0  0  0  0  0  0  0  0  0  0
    0.0202   -0.6130   -0.2928 C   0  0  0  0  0  0  0  0  0  0  0  0
    0.1086   -1.6953    0.7756 C   0  0  0  0  0  0  0  0  0  0  0  0
   -1.3607    0.6851    0.7620 H   0  0  0  0  0  0  0  0  0  0  0  0
   -2.1429   -0.4567   -0.3299 H   0  0  0  0  0  0  0  0  0  0  0  0
   -1.3158    0.9602   -0.9809 H   0  0  0  0  0  0  0  0  0  0  0  0
    0.8757    0.0616   -0.1992 H   0  0  0  0  0  0  0  0  0  0  0  0
    0.0997   -1.0712   -1.2825 H   0  0  0  0  0  0  0  0  0  0  0  0
   -0.7198   -2.4022    0.6850 H   0  0  0  0  0  0  0  0  0  0  0  0
    1.0395   -2.2596    0.6989 H   0  0  0  0  0  0  0  0  0  0  0  0
    0.0624   -1.2603    1.7770 H   0  0  0  0  0  0  0  0  0  0  0  0
  1  2  1  0
  1  4  1  0
  1  5  1  0
  1  6  1  0
  2  3  1  0
  2  7  1  0
  2  8  1  0
  3  9  1  0
  3 10  1  0
  3 11  1  0
M  END
>  <reaction>  (1) 
rxn_921

>  <mol_properties>  (1) 
{"1": {"label": "donator", "atom_type": "Cs"}, "6": {"label": "d_hydrogen", "atom_type": "H0"}}

>  <type>  (1) 
r1h

$$$$

     RDKit          3D

  8  7  0  0  0  0  0  0  0  0999 V2000
   -2.2129    0.4855    0.7390 C   0  0  0  0  0  0  0  0  0  0  0  0
   -1.2226    0.0526    0.1974 C   0  0  0  0  0  0  0  0  0  0  0  0
   -0.1006   -0.4575   -0.4419 C   0  0  0  0  0  3  0  0  0  0  0  0
    1.1960   -0.1737   -0.0342 C   0  0  0  0  0  0  0  0  0  0  0  0
    2.3329    0.0603    0.3036 C   0  0  0  0  0  0  0  0  0  0  0  0
   -3.0803    0.8696    1.2198 H   0  0  0  0  0  0  0  0  0  0  0  0
   -0.2433   -1.1067   -1.2980 H   0  0  0  0  0  0  0  0  0  0  0  0
    3.3308    0.2700    0.6058 H   0  0  0  0  0  0  0  0  0  0  0  0
  1  2  3  0
  1  6  1  0
  2  3  1  0
  3  4  1  0
  3  7  1  0
  4  5  3  0
  5  8  1  0
M  RAD  1   3   2
M  END
>  <reaction>  (2) 
rxn_921

>  <mol_properties>  (2) 
{"2": {"label": "acceptor", "atom_type": "Cs"}}

>  <type>  (2) 
r2

$$$$

     RDKit          3D

  9  8  0  0  0  0  0  0  0  0999 V2000
   -2.1022   -0.6873    0.3932 C   0  0  0  0  0  0  0  0  0  0  0  0
   -1.2072   -0.1086   -0.1482 C   0  0  0  0  0  0  0  0  0  0  0  0
   -0.1242    0.6105   -0.8193 C   0  0  0  0  0  0  0  0  0  0  0  0
    1.2067    0.1106   -0.4741 C   0  0  0  0  0  0  0  0  0  0  0  0
    2.3005   -0.2875   -0.2012 C   0  0  0  0  0  0  0  0  0  0  0  0
   -2.8942   -1.2059    0.8778 H   0  0  0  0  0  0  0  0  0  0  0  0
   -0.1862    1.6723   -0.5649 H   0  0  0  0  0  0  0  0  0  0  0  0
   -0.2641    0.5418   -1.9017 H   0  0  0  0  0  0  0  0  0  0  0  0
    3.2709   -0.6459    0.0455 H   0  0  0  0  0  0  0  0  0  0  0  0
  1  2  3  0
  1  6  1  0
  2  3  1  0
  3  4  1  0
  3  7  1  0
  3  8  1  0
  4  5  3  0
  5  9  1  0
M  END
>  <reaction>  (3) 
rxn_921

>  <mol_properties>  (3) 
{"2": {"label": "acceptor", "atom_type": "Cs"}, "8": {"label": "a_hydrogen", "atom_type": "H0"}}

>  <type>  (3) 
r2h

$$$$

     RDKit          3D

 19 17  0  0  0  0  0  0  0  0999 V2000
    2.3799    1.0422   -0.2787 C   0  0  0  0  0  0  0  0  0  0  0  0
    1.5310    0.4000    0.2747 C   0  0  0  0  0  0  0  0  0  0  0  0
    0.4597   -0.3177    0.9116 C   0  0  0  0  0  0  0  0  0  0  0  0
    0.3523   -1.7188    0.6050 C   0  0  0  0  0  0  0  0  0  0  0  0
    0.2021   -2.8775    0.3343 C   0  0  0  0  0  0  0  0  0  0  0  0
    3.1507    1.5947   -0.7595 H   0  0  0  0  0  0  0  0  0  0  0  0
    0.3962   -0.1146    1.9808 H   0  0  0  0  0  0  0  0  0  0  0  0
    0.0910   -3.9089    0.1008 H   0  0  0  0  0  0  0  0  0  0  0  0
   -1.5514    0.4046   -1.5946 C   0  0  0  0  0  0  0  0  0  0  0  0
   -1.7224    0.8513   -0.1736 C   0  0  0  0  0  3  0  0  0  0  0  0
   -1.5173    2.3072    0.1220 C   0  0  0  0  0  0  0  0  0  0  0  0
   -0.5881    0.7354   -1.9909 H   0  0  0  0  0  0  0  0  0  0  0  0
   -2.3340    0.8284   -2.2350 H   0  0  0  0  0  0  0  0  0  0  0  0
   -1.6003   -0.6817   -1.6806 H   0  0  0  0  0  0  0  0  0  0  0  0
   -0.6243    0.2211    0.4647 H   0  0  0  0  0  0  0  0  0  0  0  0
   -2.5552    0.3874    0.3536 H   0  0  0  0  0  0  0  0  0  0  0  0
   -2.2765    2.9183   -0.3805 H   0  0  0  0  0  0  0  0  0  0  0  0
   -1.5806    2.5168    1.1908 H   0  0  0  0  0  0  0  0  0  0  0  0
   -0.5403    2.6411   -0.2362 H   0  0  0  0  0  0  0  0  0  0  0  0
  1  2  3  0
  1  6  1  0
  2  3  1  0
  3  4  1  0
  3  7  1  0
  3 15  1  0
  4  5  3  0
  5  8  1  0
  9 10  1  0
  9 12  1  0
  9 13  1  0
  9 14  1  0
 10 11  1  0
 10 16  1  0
 11 17  1  0
 11 18  1  0
 11 19  1  0
M  RAD  1  10   2
M  END
>  <reaction>  (4) 
rxn_921

>  <mol_properties>  (4) 
{"1": {"label": "*0", "atom_type": "Ct"}, "2": {"label": "*1", "atom_type": "Cs"}, "8": {"label": "*4", "atom_type": "Cs"}, "9": {"label": "*3", "atom_type": "Cs"}, "14": {"label": "*2", "atom_type": "H0"}}

>  <type>  (4) 
ts

$$$$

     RDKit          3D

 19 17  0  0  0  0  0  0  0  0999 V2000
    1.8410    0.9920    1.8469 C   0  0  0  0  0  0  0  0  0  0  0  0
    1.1682    0.2592    1.1838 C   0  0  0  0  0  0  0  0  0  0  0  0
    0.3449   -0.6375    0.3723 C   0  0  0  0  0  3  0  0  0  0  0  0
    1.0681   -1.8150   -0.1080 C   0  0  0  0  0  0  0  0  0  0  0  0
    1.6591   -2.7773   -0.5005 C   0  0  0  0  0  0  0  0  0  0  0  0
    2.4394    1.6438    2.4367 H   0  0  0  0  0  0  0  0  0  0  0  0
   -0.5192   -0.9613    0.9592 H   0  0  0  0  0  0  0  0  0  0  0  0
    2.1848   -3.6333   -0.8496 H   0  0  0  0  0  0  0  0  0  0  0  0
   -1.7540    0.6738   -2.0247 C   0  0  0  0  0  0  0  0  0  0  0  0
   -1.7540    0.6738   -0.5013 C   0  0  0  0  0  0  0  0  0  0  0  0
   -1.7540    2.0796    0.0854 C   0  0  0  0  0  0  0  0  0  0  0  0
   -0.8726    1.1881   -2.4153 H   0  0  0  0  0  0  0  0  0  0  0  0
   -2.6355    1.1881   -2.4153 H   0  0  0  0  0  0  0  0  0  0  0  0
   -1.7540   -0.3411   -2.4258 H   0  0  0  0  0  0  0  0  0  0  0  0
   -0.7046    0.0182   -0.0645 H   0  0  0  0  0  0  0  0  0  0  0  0
   -2.6286    0.1274   -0.1373 H   0  0  0  0  0  0  0  0  0  0  0  0
   -2.6355    2.6382   -0.2388 H   0  0  0  0  0  0  0  0  0  0  0  0
   -1.7540    2.0589    1.1765 H   0  0  0  0  0  0  0  0  0  0  0  0
   -0.8726    2.6382   -0.2387 H   0  0  0  0  0  0  0  0  0  0  0  0
  1  2  3  0
  1  6  1  0
  2  3  1  0
  3  4  1  0
  3  7  1  0
  4  5  3  0
  5  8  1  0
  9 10  1  0
  9 12  1  0
  9 13  1  0
  9 14  1  0
 10 11  1  0
 10 15  1  0
 10 16  1  0
 11 17  1  0
 11 18  1  0
 11 19  1  0
M  RAD  1   3   2
M  END
>  <reaction>  (5) 
rxn_921

>  <mol_properties>  (5) 
{"1": {"label": "*0", "atom_type": "Ct"}, "2": {"label": "*1", "atom_type": "Cs"}, "8": {"label": "*4", "atom_type": "Cs"}, "9": {"label": "*3", "atom_type": "Cs"}, "14": {"label": "*2", "atom_type": "H0"}}

>  <type>  (5) 
unop_1

>  <geom_source>  (5) 
Heuristics

$$$$

     RDKit          3D

 19 17  0  0  0  0  0  0  0  0999 V2000
    2.5024   -0.0886   -1.1450 C   0  0  0  0  0  0  0  0  0  0  0  0
    1.6131   -0.1987   -0.3536 C   0  0  0  0  0  0  0  0  0  0  0  0
    0.5249   -0.3336    0.6149 C   0  0  0  0  0  3  0  0  0  0  0  0
    0.4252   -1.6732    1.1943 C   0  0  0  0  0  0  0  0  0  0  0  0
    0.3438   -2.7680    1.6677 C   0  0  0  0  0  0  0  0  0  0  0  0
    3.2934    0.0094   -1.8490 H   0  0  0  0  0  0  0  0  0  0  0  0
    0.6663    0.3954    1.4178 H   0  0  0  0  0  0  0  0  0  0  0  0
    0.2713   -3.7418    2.0889 H   0  0  0  0  0  0  0  0  0  0  0  0
   -1.5740    0.9777   -1.7821 C   0  0  0  0  0  0  0  0  0  0  0  0
   -1.5740    0.9777   -0.2587 C   0  0  0  0  0  0  0  0  0  0  0  0
   -1.5740    2.3835    0.3280 C   0  0  0  0  0  0  0  0  0  0  0  0
   -0.6925    1.4920   -2.1727 H   0  0  0  0  0  0  0  0  0  0  0  0
   -2.4554    1.4920   -2.1727 H   0  0  0  0  0  0  0  0  0  0  0  0
   -1.5740   -0.0372   -2.1832 H   0  0  0  0  0  0  0  0  0  0  0  0
   -0.5245    0.3221    0.1781 H   0  0  0  0  0  0  0  0  0  0  0  0
   -2.4485    0.4314    0.1053 H   0  0  0  0  0  0  0  0  0  0  0  0
   -2.4554    2.9421    0.0039 H   0  0  0  0  0  0  0  0  0  0  0  0
   -1.5740    2.3628    1.4191 H   0  0  0  0  0  0  0  0  0  0  0  0
   -0.6925    2.9421    0.0039 H   0  0  0  0  0  0  0  0  0  0  0  0
  1  2  3  0
  1  6  1  0
  2  3  1  0
  3  4  1  0
  3  7  1  0
  4  5  3  0
  5  8  1  0
  9 10  1  0
  9 12  1  0
  9 13  1  0
  9 14  1  0
 10 11  1  0
 10 15  1  0
 10 16  1  0
 11 17  1  0
 11 18  1  0
 11 19  1  0
M  RAD  1   3   2
M  END
>  <reaction>  (6) 
rxn_921

>  <mol_properties>  (6) 
{"1": {"label": "*0", "atom_type": "Ct"}, "2": {"label": "*1", "atom_type": "Cs"}, "8": {"label": "*4", "atom_type": "Cs"}, "9": {"label": "*3", "atom_type": "Cs"}, "14": {"label": "*2", "atom_type": "H0"}}

>  <type>  (6) 
unop_2

>  <geom_source>  (6) 
Heuristics

$$$$

     RDKit          3D

 19 17  0  0  0  0  0  0  0  0999 V2000
    1.1013    0.2805    2.6568 C   0  0  0  0  0  0  0  0  0  0  0  0
    0.7642   -0.1746    1.6040 C   0  0  0  0  0  0  0  0  0  0  0  0
    0.3516   -0.7315    0.3156 C   0  0  0  0  0  3  0  0  0  0  0  0
    1.4624   -1.2796   -0.4631 C   0  0  0  0  0  0  0  0  0  0  0  0
    2.3700   -1.7274   -1.0993 C   0  0  0  0  0  0  0  0  0  0  0  0
    1.4011    0.6854    3.5934 H   0  0  0  0  0  0  0  0  0  0  0  0
   -0.3904   -1.5168    0.4848 H   0  0  0  0  0  0  0  0  0  0  0  0
    3.1774   -2.1258   -1.6654 H   0  0  0  0  0  0  0  0  0  0  0  0
   -1.7473    0.5797   -2.0814 C   0  0  0  0  0  0  0  0  0  0  0  0
   -1.7473    0.5797   -0.5581 C   0  0  0  0  0  0  0  0  0  0  0  0
   -1.7473    1.9855    0.0287 C   0  0  0  0  0  0  0  0  0  0  0  0
   -0.8658    1.0940   -2.4720 H   0  0  0  0  0  0  0  0  0  0  0  0
   -2.6287    1.0940   -2.4720 H   0  0  0  0  0  0  0  0  0  0  0  0
   -1.7473   -0.4352   -2.4825 H   0  0  0  0  0  0  0  0  0  0  0  0
   -0.6979   -0.0759   -0.1213 H   0  0  0  0  0  0  0  0  0  0  0  0
   -2.6218    0.0334   -0.1941 H   0  0  0  0  0  0  0  0  0  0  0  0
   -2.6287    2.5441   -0.2955 H   0  0  0  0  0  0  0  0  0  0  0  0
   -1.7473    1.9649    1.1198 H   0  0  0  0  0  0  0  0  0  0  0  0
   -0.8658    2.5441   -0.2955 H   0  0  0  0  0  0  0  0  0  0  0  0
  1  2  3  0
  1  6  1  0
  2  3  1  0
  3  4  1  0
  3  7  1  0
  4  5  3  0
  5  8  1  0
  9 10  1  0
  9 12  1  0
  9 13  1  0
  9 14  1  0
 10 11  1  0
 10 15  1  0
 10 16  1  0
 11 17  1  0
 11 18  1  0
 11 19  1  0
M  RAD  1   3   2
M  END
>  <reaction>  (7) 
rxn_921

>  <mol_properties>  (7) 
{"1": {"label": "*0", "atom_type": "Ct"}, "2": {"label": "*1", "atom_type": "Cs"}, "8": {"label": "*4", "atom_type": "Cs"}, "9": {"label": "*3", "atom_type": "Cs"}, "14": {"label": "*2", "atom_type": "H0"}}

>  <type>  (7) 
unop_3

>  <geom_source>  (7) 
Heuristics

$$$$

     RDKit          3D

 19 17  0  0  0  0  0  0  0  0999 V2000
    0.9942   -2.8347   -0.6766 C   0  0  0  0  0  0  0  0  0  0  0  0
    1.0389   -1.7096   -0.2749 C   0  0  0  0  0  0  0  0  0  0  0  0
    1.0936   -0.3328    0.2167 C   0  0  0  0  0  3  0  0  0  0  0  0
    0.4374   -0.1515    1.5116 C   0  0  0  0  0  0  0  0  0  0  0  0
   -0.0989   -0.0034    2.5698 C   0  0  0  0  0  0  0  0  0  0  0  0
    0.9544   -3.8356   -1.0339 H   0  0  0  0  0  0  0  0  0  0  0  0
    2.1388   -0.0213    0.2969 H   0  0  0  0  0  0  0  0  0  0  0  0
   -0.5759    0.1284    3.5111 H   0  0  0  0  0  0  0  0  0  0  0  0
   -1.0053    0.9785   -2.1803 C   0  0  0  0  0  0  0  0  0  0  0  0
   -1.0053    0.9785   -0.6569 C   0  0  0  0  0  0  0  0  0  0  0  0
   -1.0053    2.3843   -0.0702 C   0  0  0  0  0  0  0  0  0  0  0  0
   -0.1239    1.4928   -2.5709 H   0  0  0  0  0  0  0  0  0  0  0  0
   -1.8868    1.4927   -2.5709 H   0  0  0  0  0  0  0  0  0  0  0  0
   -1.0053   -0.0364   -2.5814 H   0  0  0  0  0  0  0  0  0  0  0  0
    0.0441    0.3229   -0.2201 H   0  0  0  0  0  0  0  0  0  0  0  0
   -1.8798    0.4321   -0.2929 H   0  0  0  0  0  0  0  0  0  0  0  0
   -1.8868    2.9429   -0.3944 H   0  0  0  0  0  0  0  0  0  0  0  0
   -1.0053    2.3636    1.0209 H   0  0  0  0  0  0  0  0  0  0  0  0
   -0.1239    2.9429   -0.3944 H   0  0  0  0  0  0  0  0  0  0  0  0
  1  2  3  0
  1  6  1  0
  2  3  1  0
  3  4  1  0
  3  7  1  0
  4  5  3  0
  5  8  1  0
  9 10  1  0
  9 12  1  0
  9 13  1  0
  9 14  1  0
 10 11  1  0
 10 15  1  0
 10 16  1  0
 11 17  1  0
 11 18  1  0
 11 19  1  0
M  RAD  1   3   2
M  END
>  <reaction>  (8) 
rxn_921

>  <mol_properties>  (8) 
{"1": {"label": "*0", "atom_type": "Ct"}, "2": {"label": "*1", "atom_type": "Cs"}, "8": {"label": "*4", "atom_type": "Cs"}, "9": {"label": "*3", "atom_type": "Cs"}, "14": {"label": "*2", "atom_type": "H0"}}

>  <type>  (8) 
unop_4

>  <geom_source>  (8) 
Heuristics

$$$$

     RDKit          3D

 19 17  0  0  0  0  0  0  0  0999 V2000
    0.4439   -0.9205    2.8515 C   0  0  0  0  0  0  0  0  0  0  0  0
    0.4487   -0.9235    1.6560 C   0  0  0  0  0  0  0  0  0  0  0  0
    0.4545   -0.9271    0.1930 C   0  0  0  0  0  3  0  0  0  0  0  0
    1.6631   -0.3392   -0.3848 C   0  0  0  0  0  0  0  0  0  0  0  0
    2.6508    0.1412   -0.8570 C   0  0  0  0  0  0  0  0  0  0  0  0
    0.4397   -0.9179    3.9150 H   0  0  0  0  0  0  0  0  0  0  0  0
    0.3491   -1.9554   -0.1640 H   0  0  0  0  0  0  0  0  0  0  0  0
    3.5294    0.5685   -1.2770 H   0  0  0  0  0  0  0  0  0  0  0  0
   -1.6445    0.3841   -2.2039 C   0  0  0  0  0  0  0  0  0  0  0  0
   -1.6445    0.3841   -0.6806 C   0  0  0  0  0  0  0  0  0  0  0  0
   -1.6445    1.7899   -0.0939 C   0  0  0  0  0  0  0  0  0  0  0  0
   -0.7630    0.8984   -2.5946 H   0  0  0  0  0  0  0  0  0  0  0  0
   -2.5259    0.8984   -2.5946 H   0  0  0  0  0  0  0  0  0  0  0  0
   -1.6445   -0.6308   -2.6051 H   0  0  0  0  0  0  0  0  0  0  0  0
   -0.5950   -0.2715   -0.2438 H   0  0  0  0  0  0  0  0  0  0  0  0
   -2.5190   -0.1622   -0.3166 H   0  0  0  0  0  0  0  0  0  0  0  0
   -2.5259    2.3485   -0.4180 H   0  0  0  0  0  0  0  0  0  0  0  0
   -1.6445    1.7693    0.9972 H   0  0  0  0  0  0  0  0  0  0  0  0
   -0.7630    2.3485   -0.4180 H   0  0  0  0  0  0  0  0  0  0  0  0
  1  2  3  0
  1  6  1  0
  2  3  1  0
  3  4  1  0
  3  7  1  0
  4  5  3  0
  5  8  1  0
  9 10  1  0
  9 12  1  0
  9 13  1  0
  9 14  1  0
 10 11  1  0
 10 15  1  0
 10 16  1  0
 11 17  1  0
 11 18  1  0
 11 19  1  0
M  RAD  1   3   2
M  END
>  <reaction>  (9) 
rxn_921

>  <mol_properties>  (9) 
{"1": {"label": "*0", "atom_type": "Ct"}, "2": {"label": "*1", "atom_type": "Cs"}, "8": {"label": "*4", "atom_type": "Cs"}, "9": {"label": "*3", "atom_type": "Cs"}, "14": {"label": "*2", "atom_type": "H0"}}

>  <type>  (9) 
unop_5

>  <geom_source>  (9) 
Heuristics

$$$$

     RDKit          3D

 19 17  0  0  0  0  0  0  0  0999 V2000
    0.4699   -3.1040    0.3401 C   0  0  0  0  0  0  0  0  0  0  0  0
    0.7541   -1.9502    0.2094 C   0  0  0  0  0  0  0  0  0  0  0  0
    1.1020   -0.5381    0.0495 C   0  0  0  0  0  3  0  0  0  0  0  0
    0.7134    0.2891    1.1918 C   0  0  0  0  0  0  0  0  0  0  0  0
    0.3958    0.9651    2.1253 C   0  0  0  0  0  0  0  0  0  0  0  0
    0.2170   -4.1304    0.4564 H   0  0  0  0  0  0  0  0  0  0  0  0
    2.1805   -0.4495   -0.1078 H   0  0  0  0  0  0  0  0  0  0  0  0
    0.1134    1.5665    2.9557 H   0  0  0  0  0  0  0  0  0  0  0  0
   -0.9970    0.7731   -2.3475 C   0  0  0  0  0  0  0  0  0  0  0  0
   -0.9970    0.7731   -0.8242 C   0  0  0  0  0  0  0  0  0  0  0  0
   -0.9970    2.1789   -0.2374 C   0  0  0  0  0  0  0  0  0  0  0  0
   -0.1155    1.2874   -2.7381 H   0  0  0  0  0  0  0  0  0  0  0  0
   -1.8784    1.2874   -2.7381 H   0  0  0  0  0  0  0  0  0  0  0  0
   -0.9970   -0.2418   -2.7486 H   0  0  0  0  0  0  0  0  0  0  0  0
    0.0525    0.1175   -0.3874 H   0  0  0  0  0  0  0  0  0  0  0  0
   -1.8715    0.2268   -0.4602 H   0  0  0  0  0  0  0  0  0  0  0  0
   -1.8784    2.7375   -0.5616 H   0  0  0  0  0  0  0  0  0  0  0  0
   -0.9970    2.1583    0.8537 H   0  0  0  0  0  0  0  0  0  0  0  0
   -0.1155    2.7375   -0.5616 H   0  0  0  0  0  0  0  0  0  0  0  0
  1  2  3  0
  1  6  1  0
  2  3  1  0
  3  4  1  0
  3  7  1  0
  4  5  3  0
  5  8  1  0
  9 10  1  0
  9 12  1  0
  9 13  1  0
  9 14  1  0
 10 11  1  0
 10 15  1  0
 10 16  1  0
 11 17  1  0
 11 18  1  0
 11 19  1  0
M  RAD  1   3   2
M  END
>  <reaction>  (10) 
rxn_921

>  <mol_properties>  (10) 
{"1": {"label": "*0", "atom_type": "Ct"}, "2": {"label": "*1", "atom_type": "Cs"}, "8": {"label": "*4", "atom_type": "Cs"}, "9": {"label": "*3", "atom_type": "Cs"}, "14": {"label": "*2", "atom_type": "H0"}}

>  <type>  (10) 
unop_6

>  <geom_source>  (10) 
Heuristics

$$$$

     RDKit          3D

 19 17  0  0  0  0  0  0  0  0999 V2000
    0.1782   -2.8363    1.4416 C   0  0  0  0  0  0  0  0  0  0  0  0
    0.5417   -1.9103    0.7785 C   0  0  0  0  0  0  0  0  0  0  0  0
    0.9865   -0.7772   -0.0330 C   0  0  0  0  0  3  0  0  0  0  0  0
    1.0373    0.4835    0.7076 C   0  0  0  0  0  0  0  0  0  0  0  0
    1.0787    1.5137    1.3127 C   0  0  0  0  0  0  0  0  0  0  0  0
   -0.1451   -3.6600    2.0315 H   0  0  0  0  0  0  0  0  0  0  0  0
    1.9777   -0.9945   -0.4406 H   0  0  0  0  0  0  0  0  0  0  0  0
    1.1156    2.4302    1.8510 H   0  0  0  0  0  0  0  0  0  0  0  0
   -1.1124    0.5341   -2.4299 C   0  0  0  0  0  0  0  0  0  0  0  0
   -1.1124    0.5341   -0.9066 C   0  0  0  0  0  0  0  0  0  0  0  0
   -1.1124    1.9399   -0.3199 C   0  0  0  0  0  0  0  0  0  0  0  0
   -0.2310    1.0483   -2.8206 H   0  0  0  0  0  0  0  0  0  0  0  0
   -1.9939    1.0483   -2.8206 H   0  0  0  0  0  0  0  0  0  0  0  0
   -1.1124   -0.4808   -2.8311 H   0  0  0  0  0  0  0  0  0  0  0  0
   -0.0630   -0.1215   -0.4698 H   0  0  0  0  0  0  0  0  0  0  0  0
   -1.9870   -0.0123   -0.5426 H   0  0  0  0  0  0  0  0  0  0  0  0
   -1.9939    2.4985   -0.6440 H   0  0  0  0  0  0  0  0  0  0  0  0
   -1.1124    1.9192    0.7712 H   0  0  0  0  0  0  0  0  0  0  0  0
   -0.2310    2.4985   -0.6440 H   0  0  0  0  0  0  0  0  0  0  0  0
  1  2  3  0
  1  6  1  0
  2  3  1  0
  3  4  1  0
  3  7  1  0
  4  5  3  0
  5  8  1  0
  9 10  1  0
  9 12  1  0
  9 13  1  0
  9 14  1  0
 10 11  1  0
 10 15  1  0
 10 16  1  0
 11 17  1  0
 11 18  1  0
 11 19  1  0
M  RAD  1   3   2
M  END
>  <reaction>  (11) 
rxn_921

>  <mol_properties>  (11) 
{"1": {"label": "*0", "atom_type": "Ct"}, "2": {"label": "*1", "atom_type": "Cs"}, "8": {"label": "*4", "atom_type": "Cs"}, "9": {"label": "*3", "atom_type": "Cs"}, "14": {"label": "*2", "atom_type": "H0"}}

>  <type>  (11) 
unop_7

>  <geom_source>  (11) 
Heuristics

$$$$

     RDKit          3D

 19 17  0  0  0  0  0  0  0  0999 V2000
    2.3761    1.1152    0.7458 C   0  0  0  0  0  0  0  0  0  0  0  0
    1.4638    0.3537    0.6151 C   0  0  0  0  0  0  0  0  0  0  0  0
    0.3473   -0.5781    0.4552 C   0  0  0  0  0  3  0  0  0  0  0  0
    0.7655   -1.9778    0.3754 C   0  0  0  0  0  0  0  0  0  0  0  0
    1.1071   -3.1216    0.3103 C   0  0  0  0  0  0  0  0  0  0  0  0
    3.1876    1.7925    0.8621 H   0  0  0  0  0  0  0  0  0  0  0  0
   -0.3445   -0.4571    1.2934 H   0  0  0  0  0  0  0  0  0  0  0  0
    1.4111   -4.1391    0.2523 H   0  0  0  0  0  0  0  0  0  0  0  0
   -1.7516    0.7331   -1.9418 C   0  0  0  0  0  0  0  0  0  0  0  0
   -1.7516    0.7331   -0.4185 C   0  0  0  0  0  0  0  0  0  0  0  0
   -1.7516    2.1389    0.1683 C   0  0  0  0  0  0  0  0  0  0  0  0
   -0.8702    1.2474   -2.3324 H   0  0  0  0  0  0  0  0  0  0  0  0
   -2.6331    1.2474   -2.3324 H   0  0  0  0  0  0  0  0  0  0  0  0
   -1.7516   -0.2818   -2.3430 H   0  0  0  0  0  0  0  0  0  0  0  0
   -0.7022    0.0775    0.0183 H   0  0  0  0  0  0  0  0  0  0  0  0
   -2.6261    0.1868   -0.0545 H   0  0  0  0  0  0  0  0  0  0  0  0
   -2.6331    2.6975   -0.1559 H   0  0  0  0  0  0  0  0  0  0  0  0
   -1.7516    2.1183    1.2594 H   0  0  0  0  0  0  0  0  0  0  0  0
   -0.8702    2.6975   -0.1559 H   0  0  0  0  0  0  0  0  0  0  0  0
  1  2  3  0
  1  6  1  0
  2  3  1  0
  3  4  1  0
  3  7  1  0
  4  5  3  0
  5  8  1  0
  9 10  1  0
  9 12  1  0
  9 13  1  0
  9 14  1  0
 10 11  1  0
 10 15  1  0
 10 16  1  0
 11 17  1  0
 11 18  1  0
 11 19  1  0
M  RAD  1   3   2
M  END
>  <reaction>  (12) 
rxn_921

>  <mol_properties>  (12) 
{"1": {"label": "*0", "atom_type": "Ct"}, "2": {"label": "*1", "atom_type": "Cs"}, "8": {"label": "*4", "atom_type": "Cs"}, "9": {"label": "*3", "atom_type": "Cs"}, "14": {"label": "*2", "atom_type": "H0"}}

>  <type>  (12) 
unop_8

>  <geom_source>  (12) 
Heuristics

$$$$

     RDKit          3D

 19 17  0  0  0  0  0  0  0  0999 V2000
    1.6104   -2.0962   -1.3464 C   0  0  0  0  0  0  0  0  0  0  0  0
    1.3194   -1.2488   -0.5550 C   0  0  0  0  0  0  0  0  0  0  0  0
    0.9634   -0.2117    0.4135 C   0  0  0  0  0  3  0  0  0  0  0  0
    0.2837   -0.7328    1.5996 C   0  0  0  0  0  0  0  0  0  0  0  0
   -0.2716   -1.1587    2.5688 C   0  0  0  0  0  0  0  0  0  0  0  0
    1.8692   -2.8501   -2.0505 H   0  0  0  0  0  0  0  0  0  0  0  0
    1.8691    0.3178    0.7221 H   0  0  0  0  0  0  0  0  0  0  0  0
   -0.7656   -1.5375    3.4311 H   0  0  0  0  0  0  0  0  0  0  0  0
   -1.1356    1.0996   -1.9835 C   0  0  0  0  0  0  0  0  0  0  0  0
   -1.1356    1.0996   -0.4601 C   0  0  0  0  0  0  0  0  0  0  0  0
   -1.1356    2.5054    0.1266 C   0  0  0  0  0  0  0  0  0  0  0  0
   -0.2541    1.6139   -2.3741 H   0  0  0  0  0  0  0  0  0  0  0  0
   -2.0170    1.6139   -2.3741 H   0  0  0  0  0  0  0  0  0  0  0  0
   -1.1356    0.0847   -2.3846 H   0  0  0  0  0  0  0  0  0  0  0  0
   -0.0861    0.4440   -0.0233 H   0  0  0  0  0  0  0  0  0  0  0  0
   -2.0101    0.5533   -0.0961 H   0  0  0  0  0  0  0  0  0  0  0  0
   -2.0170    3.0640   -0.1976 H   0  0  0  0  0  0  0  0  0  0  0  0
   -1.1356    2.4847    1.2177 H   0  0  0  0  0  0  0  0  0  0  0  0
   -0.2541    3.0640   -0.1976 H   0  0  0  0  0  0  0  0  0  0  0  0
  1  2  3  0
  1  6  1  0
  2  3  1  0
  3  4  1  0
  3  7  1  0
  4  5  3  0
  5  8  1  0
  9 10  1  0
  9 12  1  0
  9 13  1  0
  9 14  1  0
 10 11  1  0
 10 15  1  0
 10 16  1  0
 11 17  1  0
 11 18  1  0
 11 19  1  0
M  RAD  1   3   2
M  END
>  <reaction>  (13) 
rxn_921

>  <mol_properties>  (13) 
{"1": {"label": "*0", "atom_type": "Ct"}, "2": {"label": "*1", "atom_type": "Cs"}, "8": {"label": "*4", "atom_type": "Cs"}, "9": {"label": "*3", "atom_type": "Cs"}, "14": {"label": "*2", "atom_type": "H0"}}

>  <type>  (13) 
unop_9

>  <geom_source>  (13) 
Heuristics

$$$$

     RDKit          3D

 19 17  0  0  0  0  0  0  0  0999 V2000
    2.5977    0.7086   -0.3373 C   0  0  0  0  0  0  0  0  0  0  0  0
    1.6062    0.1750    0.0644 C   0  0  0  0  0  0  0  0  0  0  0  0
    0.3928   -0.4780    0.5559 C   0  0  0  0  0  3  0  0  0  0  0  0
    0.5702   -1.9043    0.8289 C   0  0  0  0  0  0  0  0  0  0  0  0
    0.7152   -3.0698    1.0520 C   0  0  0  0  0  0  0  0  0  0  0  0
    3.4797    1.1833   -0.6946 H   0  0  0  0  0  0  0  0  0  0  0  0
    0.0595    0.0237    1.4687 H   0  0  0  0  0  0  0  0  0  0  0  0
    0.8442   -4.1066    1.2505 H   0  0  0  0  0  0  0  0  0  0  0  0
   -1.7062    0.8333   -1.8410 C   0  0  0  0  0  0  0  0  0  0  0  0
   -1.7062    0.8333   -0.3177 C   0  0  0  0  0  0  0  0  0  0  0  0
   -1.7062    2.2391    0.2690 C   0  0  0  0  0  0  0  0  0  0  0  0
   -0.8247    1.3476   -2.2317 H   0  0  0  0  0  0  0  0  0  0  0  0
   -2.5876    1.3475   -2.2317 H   0  0  0  0  0  0  0  0  0  0  0  0
   -1.7062   -0.1816   -2.2422 H   0  0  0  0  0  0  0  0  0  0  0  0
   -0.6567    0.1777    0.1191 H   0  0  0  0  0  0  0  0  0  0  0  0
   -2.5807    0.2869    0.0463 H   0  0  0  0  0  0  0  0  0  0  0  0
   -2.5876    2.7977   -0.0551 H   0  0  0  0  0  0  0  0  0  0  0  0
   -1.7062    2.2184    1.3601 H   0  0  0  0  0  0  0  0  0  0  0  0
   -0.8247    2.7977   -0.0551 H   0  0  0  0  0  0  0  0  0  0  0  0
  1  2  3  0
  1  6  1  0
  2  3  1  0
  3  4  1  0
  3  7  1  0
  4  5  3  0
  5  8  1  0
  9 10  1  0
  9 12  1  0
  9 13  1  0
  9 14  1  0
 10 11  1  0
 10 15  1  0
 10 16  1  0
 11 17  1  0
 11 18  1  0
 11 19  1  0
M  RAD  1   3   2
M  END
>  <reaction>  (14) 
rxn_921

>  <mol_properties>  (14) 
{"1": {"label": "*0", "atom_type": "Ct"}, "2": {"label": "*1", "atom_type": "Cs"}, "8": {"label": "*4", "atom_type": "Cs"}, "9": {"label": "*3", "atom_type": "Cs"}, "14": {"label": "*2", "atom_type": "H0"}}

>  <type>  (14) 
unop_10

>  <geom_source>  (14) 
Heuristics

$$$$

     RDKit          3D

 19 17  0  0  0  0  0  0  0  0999 V2000
    0.1643   -2.0821    2.3571 C   0  0  0  0  0  0  0  0  0  0  0  0
    0.4254   -1.5795    1.3043 C   0  0  0  0  0  0  0  0  0  0  0  0
    0.7450   -0.9646    0.0159 C   0  0  0  0  0  3  0  0  0  0  0  0
    1.3910    0.3422    0.1400 C   0  0  0  0  0  0  0  0  0  0  0  0
    1.9188    1.4101    0.2414 C   0  0  0  0  0  0  0  0  0  0  0  0
   -0.0681   -2.5291    3.2937 H   0  0  0  0  0  0  0  0  0  0  0  0
    1.3973   -1.6353   -0.5503 H   0  0  0  0  0  0  0  0  0  0  0  0
    2.3883    2.3601    0.3316 H   0  0  0  0  0  0  0  0  0  0  0  0
   -1.3539    0.3467   -2.3811 C   0  0  0  0  0  0  0  0  0  0  0  0
   -1.3539    0.3467   -0.8577 C   0  0  0  0  0  0  0  0  0  0  0  0
   -1.3539    1.7525   -0.2710 C   0  0  0  0  0  0  0  0  0  0  0  0
   -0.4724    0.8610   -2.7717 H   0  0  0  0  0  0  0  0  0  0  0  0
   -2.2353    0.8610   -2.7717 H   0  0  0  0  0  0  0  0  0  0  0  0
   -1.3539   -0.6682   -2.7822 H   0  0  0  0  0  0  0  0  0  0  0  0
   -0.3045   -0.3089   -0.4209 H   0  0  0  0  0  0  0  0  0  0  0  0
   -2.2284   -0.1996   -0.4937 H   0  0  0  0  0  0  0  0  0  0  0  0
   -2.2353    2.3111   -0.5952 H   0  0  0  0  0  0  0  0  0  0  0  0
   -1.3539    1.7318    0.8201 H   0  0  0  0  0  0  0  0  0  0  0  0
   -0.4724    2.3111   -0.5952 H   0  0  0  0  0  0  0  0  0  0  0  0
  1  2  3  0
  1  6  1  0
  2  3  1  0
  3  4  1  0
  3  7  1  0
  4  5  3  0
  5  8  1  0
  9 10  1  0
  9 12  1  0
  9 13  1  0
  9 14  1  0
 10 11  1  0
 10 15  1  0
 10 16  1  0
 11 17  1  0
 11 18  1  0
 11 19  1  0
M  RAD  1   3   2
M  END
>  <reaction>  (15) 
rxn_921

>  <mol_properties>  (15) 
{"1": {"label": "*0", "atom_type": "Ct"}, "2": {"label": "*1", "atom_type": "Cs"}, "8": {"label": "*4", "atom_type": "Cs"}, "9": {"label": "*3", "atom_type": "Cs"}, "14": {"label": "*2", "atom_type": "H0"}}

>  <type>  (15) 
unop_11

>  <geom_source>  (15) 
Heuristics

$$$$

     RDKit          3D

 19 17  0  0  0  0  0  0  0  0999 V2000
    2.1500   -1.0947   -1.5088 C   0  0  0  0  0  0  0  0  0  0  0  0
    1.5172   -0.6994   -0.5748 C   0  0  0  0  0  0  0  0  0  0  0  0
    0.7428   -0.2156    0.5683 C   0  0  0  0  0  3  0  0  0  0  0  0
    0.3027   -1.2837    1.4661 C   0  0  0  0  0  0  0  0  0  0  0  0
   -0.0569   -2.1565    2.1996 C   0  0  0  0  0  0  0  0  0  0  0  0
    2.7129   -1.4464   -2.3398 H   0  0  0  0  0  0  0  0  0  0  0  0
    1.3450    0.5022    1.1322 H   0  0  0  0  0  0  0  0  0  0  0  0
   -0.3768   -2.9329    2.8522 H   0  0  0  0  0  0  0  0  0  0  0  0
   -1.3562    1.0957   -1.8286 C   0  0  0  0  0  0  0  0  0  0  0  0
   -1.3562    1.0957   -0.3053 C   0  0  0  0  0  0  0  0  0  0  0  0
   -1.3562    2.5015    0.2814 C   0  0  0  0  0  0  0  0  0  0  0  0
   -0.4747    1.6099   -2.2193 H   0  0  0  0  0  0  0  0  0  0  0  0
   -2.2376    1.6099   -2.2193 H   0  0  0  0  0  0  0  0  0  0  0  0
   -1.3561    0.0808   -2.2298 H   0  0  0  0  0  0  0  0  0  0  0  0
   -0.3067    0.4400    0.1315 H   0  0  0  0  0  0  0  0  0  0  0  0
   -2.2307    0.5493    0.0587 H   0  0  0  0  0  0  0  0  0  0  0  0
   -2.2376    3.0600   -0.0427 H   0  0  0  0  0  0  0  0  0  0  0  0
   -1.3562    2.4808    1.3725 H   0  0  0  0  0  0  0  0  0  0  0  0
   -0.4747    3.0600   -0.0427 H   0  0  0  0  0  0  0  0  0  0  0  0
  1  2  3  0
  1  6  1  0
  2  3  1  0
  3  4  1  0
  3  7  1  0
  4  5  3  0
  5  8  1  0
  9 10  1  0
  9 12  1  0
  9 13  1  0
  9 14  1  0
 10 11  1  0
 10 15  1  0
 10 16  1  0
 11 17  1  0
 11 18  1  0
 11 19  1  0
M  RAD  1   3   2
M  END
>  <reaction>  (16) 
rxn_921

>  <mol_properties>  (16) 
{"1": {"label": "*0", "atom_type": "Ct"}, "2": {"label": "*1", "atom_type": "Cs"}, "8": {"label": "*4", "atom_type": "Cs"}, "9": {"label": "*3", "atom_type": "Cs"}, "14": {"label": "*2", "atom_type": "H0"}}

>  <type>  (16) 
unop_12

>  <geom_source>  (16) 
Heuristics

$$$$

     RDKit          3D

 19 17  0  0  0  0  0  0  0  0999 V2000
   -1.8106    1.1574    0.5908 C   0  0  0  0  0  0  0  0  0  0  0  0
   -1.8090   -0.7286   -1.0823 C   0  0  0  0  0  0  0  0  0  0  0  0
    1.2948   -0.3727   -0.2333 C   0  0  0  0  0  3  0  0  0  0  0  0
   -1.2686   -0.2253    0.2505 C   0  0  0  0  0  0  0  0  0  0  0  0
    2.0582    0.8359   -0.5497 C   0  0  0  0  0  0  0  0  0  0  0  0
    1.9774   -1.1270    0.8197 C   0  0  0  0  0  0  0  0  0  0  0  0
    2.6853    1.8319   -0.8115 C   0  0  0  0  0  0  0  0  0  0  0  0
    2.5378   -1.7494    1.6871 C   0  0  0  0  0  0  0  0  0  0  0  0
    1.2078   -1.0032   -1.1421 H   0  0  0  0  0  0  0  0  0  0  0  0
    0.0251   -0.0156    0.2036 H   0  0  0  0  0  0  0  0  0  0  0  0
   -1.3806    1.4921    1.5577 H   0  0  0  0  0  0  0  0  0  0  0  0
   -2.9175    1.1276    0.6809 H   0  0  0  0  0  0  0  0  0  0  0  0
   -1.5224    1.8856   -0.1964 H   0  0  0  0  0  0  0  0  0  0  0  0
   -2.9157   -0.8156   -1.0429 H   0  0  0  0  0  0  0  0  0  0  0  0
   -1.3777   -1.7280   -1.2989 H   0  0  0  0  0  0  0  0  0  0  0  0
   -1.5207   -0.0335   -1.8988 H   0  0  0  0  0  0  0  0  0  0  0  0
   -1.5291   -0.9424    1.0586 H   0  0  0  0  0  0  0  0  0  0  0  0
    3.2358    2.7061   -1.0412 H   0  0  0  0  0  0  0  0  0  0  0  0
    3.0298   -2.2955    2.4484 H   0  0  0  0  0  0  0  0  0  0  0  0
  1  4  1  0
  1 11  1  0
  1 12  1  0
  1 13  1  0
  2  4  1  0
  2 14  1  0
  2 15  1  0
  2 16  1  0
  3  5  1  0
  3  6  1  0
  3  9  1  0
  4 10  1  0
  4 17  1  0
  5  7  3  0
  6  8  3  0
  7 18  1  0
  8 19  1  0
M  RAD  1   3   2
M  END
>  <reaction>  (17) 
rxn_921

>  <mol_properties>  (17) 
{"1": {"label": "*0", "atom_type": "Ct"}, "2": {"label": "*1", "atom_type": "Cs"}, "8": {"label": "*4", "atom_type": "Cs"}, "9": {"label": "*3", "atom_type": "Cs"}, "14": {"label": "*2", "atom_type": "H0"}}

>  <type>  (17) 
unop_13

>  <geom_source>  (17) 
AutoTST

$$$$
