
     RDKit          3D

  5  4  0  0  0  0  0  0  0  0999 V2000
    0.0000    0.0000    0.0000 C   0  0  0  0  0  0  0  0  0  0  0  0
   -0.6486   -0.7720   -0.4113 H   0  0  0  0  0  0  0  0  0  0  0  0
   -0.3482    0.9787   -0.3267 H   0  0  0  0  0  0  0  0  0  0  0  0
   -0.0223   -0.0487    1.0876 H   0  0  0  0  0  0  0  0  0  0  0  0
    1.0191   -0.1580   -0.3496 H   0  0  0  0  0  0  0  0  0  0  0  0
  1  2  1  0
  1  3  1  0
  1  4  1  0
  1  5  1  0
M  END
>  <reaction>  (1) 
rxn_847

>  <mol_properties>  (1) 
{"0": {"label": "donator", "atom_type": "Cs"}, "1": {"label": "d_hydrogen", "atom_type": "H0"}}

>  <type>  (1) 
r1h

$$$$

     RDKit          3D

  7  6  0  0  0  0  0  0  0  0999 V2000
    1.3003    0.7433    2.1278 C   0  0  0  0  0  0  0  0  0  0  0  0
    0.5759    0.3292    1.2319 C   0  0  0  0  0  0  0  0  0  0  0  0
   -0.2057   -0.1176    0.2652 C   0  0  0  0  0  3  0  0  0  0  0  0
   -0.9747   -0.5572   -0.6858 C   0  0  0  0  0  0  0  0  0  0  0  0
    1.9294    1.1030    2.9059 H   0  0  0  0  0  0  0  0  0  0  0  0
   -1.9977   -0.8727   -0.4931 H   0  0  0  0  0  0  0  0  0  0  0  0
   -0.6274   -0.6280   -1.7142 H   0  0  0  0  0  0  0  0  0  0  0  0
  1  2  3  0
  1  5  1  0
  2  3  1  0
  3  4  2  3
  4  6  1  0
  4  7  1  0
M  RAD  1   3   2
M  END
>  <reaction>  (2) 
rxn_847

>  <mol_properties>  (2) 
{"2": {"label": "acceptor", "atom_type": "Cd"}}

>  <type>  (2) 
r2

$$$$

     RDKit          3D

  8  7  0  0  0  0  0  0  0  0999 V2000
    1.9029    0.9046   -0.2050 C   0  0  0  0  0  0  0  0  0  0  0  0
    0.8517    0.4283    0.1217 C   0  0  0  0  0  0  0  0  0  0  0  0
   -0.3908   -0.1311    0.5404 C   0  0  0  0  0  0  0  0  0  0  0  0
   -1.2847   -0.6576   -0.2899 C   0  0  0  0  0  0  0  0  0  0  0  0
    2.8335    1.3255   -0.5014 H   0  0  0  0  0  0  0  0  0  0  0  0
   -0.5867   -0.1096    1.6074 H   0  0  0  0  0  0  0  0  0  0  0  0
   -2.2126   -1.0686    0.0850 H   0  0  0  0  0  0  0  0  0  0  0  0
   -1.1134   -0.6914   -1.3582 H   0  0  0  0  0  0  0  0  0  0  0  0
  1  2  3  0
  1  5  1  0
  2  3  1  0
  3  4  2  3
  3  6  1  0
  4  7  1  0
  4  8  1  0
M  END
>  <reaction>  (3) 
rxn_847

>  <mol_properties>  (3) 
{"2": {"label": "acceptor", "atom_type": "Cd"}, "7": {"label": "a_hydrogen", "atom_type": "H0"}}

>  <type>  (3) 
r2h

$$$$

     RDKit          3D

 12 10  0  0  0  0  0  0  0  0999 V2000
   -1.9824    1.0445    0.5943 C   0  0  0  0  0  0  0  0  0  0  0  0
   -0.8546    0.6558    0.4350 C   0  0  0  0  0  0  0  0  0  0  0  0
    0.4130    0.1080    0.2006 C   0  0  0  0  0  0  0  0  0  0  0  0
    1.6188    0.5759    0.4705 C   0  0  0  0  0  0  0  0  0  0  0  0
   -2.9703    1.4078    0.7453 H   0  0  0  0  0  0  0  0  0  0  0  0
    1.7657    1.5363    0.9536 H   0  0  0  0  0  0  0  0  0  0  0  0
    2.5039    0.0057    0.2133 H   0  0  0  0  0  0  0  0  0  0  0  0
    0.4431   -2.2785   -0.9876 C   0  0  0  0  0  3  0  0  0  0  0  0
    0.3905   -1.0626   -0.3834 H   0  0  0  0  0  0  0  0  0  0  0  0
   -0.0991   -2.9313   -0.3110 H   0  0  0  0  0  0  0  0  0  0  0  0
   -0.0492   -2.1187   -1.9416 H   0  0  0  0  0  0  0  0  0  0  0  0
    1.5029   -2.5008   -1.0660 H   0  0  0  0  0  0  0  0  0  0  0  0
  1  2  3  0
  1  5  1  0
  2  3  1  0
  3  4  2  3
  3  9  1  0
  4  6  1  0
  4  7  1  0
  8 10  1  0
  8 11  1  0
  8 12  1  0
M  RAD  1   8   2
M  END
>  <reaction>  (4) 
rxn_847

>  <mol_properties>  (4) 
{"1": {"label": "*0", "atom_type": "Ct"}, "2": {"label": "*1", "atom_type": "Cd"}, "7": {"label": "*3", "atom_type": "Cs"}, "8": {"label": "*2", "atom_type": "H0"}, "9": {"label": "*4", "atom_type": "H0"}}

>  <type>  (4) 
ts

$$$$

     RDKit          3D

 12 10  0  0  0  0  0  0  0  0999 V2000
   -1.7276    0.9853    1.1873 C   0  0  0  0  0  0  0  0  0  0  0  0
   -0.7777    0.6823    0.5206 C   0  0  0  0  0  0  0  0  0  0  0  0
    0.3318    0.3066   -0.2917 C   0  0  0  0  0  0  0  0  0  0  0  0
    1.5899    0.6470   -0.0327 C   0  0  0  0  0  0  0  0  0  0  0  0
   -2.5698    1.2540    1.7785 H   0  0  0  0  0  0  0  0  0  0  0  0
    1.8476    1.2443    0.8325 H   0  0  0  0  0  0  0  0  0  0  0  0
    2.3933    0.3329   -0.6857 H   0  0  0  0  0  0  0  0  0  0  0  0
    0.3318   -2.1530   -1.1613 C   0  0  0  0  0  3  0  0  0  0  0  0
    0.3318   -0.9210   -0.7257 H   0  0  0  0  0  0  0  0  0  0  0  0
    1.2209   -2.6663   -0.7983 H   0  0  0  0  0  0  0  0  0  0  0  0
   -0.5573   -2.6663   -0.7983 H   0  0  0  0  0  0  0  0  0  0  0  0
    0.3318   -2.1530   -2.2502 H   0  0  0  0  0  0  0  0  0  0  0  0
  1  2  3  0
  1  5  1  0
  2  3  1  0
  3  4  2  3
  3  9  1  0
  4  6  1  0
  4  7  1  0
  8 10  1  0
  8 11  1  0
  8 12  1  0
M  RAD  1   8   2
M  END
>  <reaction>  (5) 
rxn_847

>  <mol_properties>  (5) 
{"1": {"label": "*0", "atom_type": "Ct"}, "2": {"label": "*1", "atom_type": "Cd"}, "7": {"label": "*3", "atom_type": "Cs"}, "8": {"label": "*2", "atom_type": "H0"}, "9": {"label": "*4", "atom_type": "H0"}}

>  <type>  (5) 
unop_1

>  <geom_source>  (5) 
Heuristics

$$$$

     RDKit          3D

 12 10  0  0  0  0  0  0  0  0999 V2000
   -0.8876    1.7680   -1.1784 C   0  0  0  0  0  0  0  0  0  0  0  0
   -0.3503    0.9782   -0.4531 C   0  0  0  0  0  0  0  0  0  0  0  0
    0.2904    0.0191    0.3847 C   0  0  0  0  0  0  0  0  0  0  0  0
    0.5606    0.2198    1.6701 C   0  0  0  0  0  0  0  0  0  0  0  0
   -1.3640    2.4683   -1.8215 H   0  0  0  0  0  0  0  0  0  0  0  0
    0.3021    1.1475    2.1644 H   0  0  0  0  0  0  0  0  0  0  0  0
    1.0495   -0.5454    2.2583 H   0  0  0  0  0  0  0  0  0  0  0  0
    0.2904   -2.4404   -0.4849 C   0  0  0  0  0  3  0  0  0  0  0  0
    0.2904   -1.2084   -0.0493 H   0  0  0  0  0  0  0  0  0  0  0  0
    1.1795   -2.9538   -0.1219 H   0  0  0  0  0  0  0  0  0  0  0  0
   -0.5988   -2.9538   -0.1219 H   0  0  0  0  0  0  0  0  0  0  0  0
    0.2904   -2.4404   -1.5738 H   0  0  0  0  0  0  0  0  0  0  0  0
  1  2  3  0
  1  5  1  0
  2  3  1  0
  3  4  2  3
  3  9  1  0
  4  6  1  0
  4  7  1  0
  8 10  1  0
  8 11  1  0
  8 12  1  0
M  RAD  1   8   2
M  END
>  <reaction>  (6) 
rxn_847

>  <mol_properties>  (6) 
{"1": {"label": "*0", "atom_type": "Ct"}, "2": {"label": "*1", "atom_type": "Cd"}, "7": {"label": "*3", "atom_type": "Cs"}, "8": {"label": "*2", "atom_type": "H0"}, "9": {"label": "*4", "atom_type": "H0"}}

>  <type>  (6) 
unop_2

>  <geom_source>  (6) 
Heuristics

$$$$

     RDKit          3D

 12 10  0  0  0  0  0  0  0  0999 V2000
   -1.0749    0.6992    1.9208 C   0  0  0  0  0  0  0  0  0  0  0  0
   -0.5187    0.5343    0.8711 C   0  0  0  0  0  0  0  0  0  0  0  0
    0.1219    0.3149   -0.3834 C   0  0  0  0  0  0  0  0  0  0  0  0
    1.1699    1.0099   -0.8128 C   0  0  0  0  0  0  0  0  0  0  0  0
   -1.5680    0.8454    2.8516 H   0  0  0  0  0  0  0  0  0  0  0  0
    1.6059    1.8019   -0.2175 H   0  0  0  0  0  0  0  0  0  0  0  0
    1.6160    0.7992   -1.7757 H   0  0  0  0  0  0  0  0  0  0  0  0
    0.1219   -2.1446   -1.2530 C   0  0  0  0  0  3  0  0  0  0  0  0
    0.1219   -0.9126   -0.8174 H   0  0  0  0  0  0  0  0  0  0  0  0
    1.0110   -2.6580   -0.8900 H   0  0  0  0  0  0  0  0  0  0  0  0
   -0.7672   -2.6580   -0.8900 H   0  0  0  0  0  0  0  0  0  0  0  0
    0.1219   -2.1446   -2.3419 H   0  0  0  0  0  0  0  0  0  0  0  0
  1  2  3  0
  1  5  1  0
  2  3  1  0
  3  4  2  3
  3  9  1  0
  4  6  1  0
  4  7  1  0
  8 10  1  0
  8 11  1  0
  8 12  1  0
M  RAD  1   8   2
M  END
>  <reaction>  (7) 
rxn_847

>  <mol_properties>  (7) 
{"1": {"label": "*0", "atom_type": "Ct"}, "2": {"label": "*1", "atom_type": "Cd"}, "7": {"label": "*3", "atom_type": "Cs"}, "8": {"label": "*2", "atom_type": "H0"}, "9": {"label": "*4", "atom_type": "H0"}}

>  <type>  (7) 
unop_3

>  <geom_source>  (7) 
Heuristics

$$$$

     RDKit          3D

 12 10  0  0  0  0  0  0  0  0999 V2000
    1.5790    1.5823   -0.5795 C   0  0  0  0  0  0  0  0  0  0  0  0
    0.6441    0.9206   -0.2237 C   0  0  0  0  0  0  0  0  0  0  0  0
   -0.4654    0.1178    0.1720 C   0  0  0  0  0  0  0  0  0  0  0  0
   -1.1066    0.2561    1.3276 C   0  0  0  0  0  0  0  0  0  0  0  0
    2.4079    2.1691   -0.8950 H   0  0  0  0  0  0  0  0  0  0  0  0
   -0.8133    1.0060    2.0511 H   0  0  0  0  0  0  0  0  0  0  0  0
   -1.9439   -0.3828    1.5752 H   0  0  0  0  0  0  0  0  0  0  0  0
   -0.4654   -2.3418   -0.6976 C   0  0  0  0  0  3  0  0  0  0  0  0
   -0.4654   -1.1098   -0.2620 H   0  0  0  0  0  0  0  0  0  0  0  0
    0.4237   -2.8551   -0.3346 H   0  0  0  0  0  0  0  0  0  0  0  0
   -1.3545   -2.8551   -0.3346 H   0  0  0  0  0  0  0  0  0  0  0  0
   -0.4654   -2.3418   -1.7865 H   0  0  0  0  0  0  0  0  0  0  0  0
  1  2  3  0
  1  5  1  0
  2  3  1  0
  3  4  2  3
  3  9  1  0
  4  6  1  0
  4  7  1  0
  8 10  1  0
  8 11  1  0
  8 12  1  0
M  RAD  1   8   2
M  END
>  <reaction>  (8) 
rxn_847

>  <mol_properties>  (8) 
{"1": {"label": "*0", "atom_type": "Ct"}, "2": {"label": "*1", "atom_type": "Cd"}, "7": {"label": "*3", "atom_type": "Cs"}, "8": {"label": "*2", "atom_type": "H0"}, "9": {"label": "*4", "atom_type": "H0"}}

>  <type>  (8) 
unop_4

>  <geom_source>  (8) 
Heuristics

$$$$

     RDKit          3D

 12 10  0  0  0  0  0  0  0  0999 V2000
    0.0000    0.5497    2.2329 C   0  0  0  0  0  0  0  0  0  0  0  0
   -0.0000    0.4399    1.0385 C   0  0  0  0  0  0  0  0  0  0  0  0
   -0.0000    0.2777   -0.3777 C   0  0  0  0  0  0  0  0  0  0  0  0
    0.0000    1.2885   -1.2402 C   0  0  0  0  0  0  0  0  0  0  0  0
    0.0000    0.6471    3.2919 H   0  0  0  0  0  0  0  0  0  0  0  0
    0.0000    2.3179   -0.9054 H   0  0  0  0  0  0  0  0  0  0  0  0
    0.0000    1.1054   -2.3065 H   0  0  0  0  0  0  0  0  0  0  0  0
   -0.0000   -2.1819   -1.2473 C   0  0  0  0  0  3  0  0  0  0  0  0
   -0.0000   -0.9499   -0.8117 H   0  0  0  0  0  0  0  0  0  0  0  0
    0.8891   -2.6952   -0.8843 H   0  0  0  0  0  0  0  0  0  0  0  0
   -0.8891   -2.6952   -0.8843 H   0  0  0  0  0  0  0  0  0  0  0  0
   -0.0000   -2.1819   -2.3362 H   0  0  0  0  0  0  0  0  0  0  0  0
  1  2  3  0
  1  5  1  0
  2  3  1  0
  3  4  2  3
  3  9  1  0
  4  6  1  0
  4  7  1  0
  8 10  1  0
  8 11  1  0
  8 12  1  0
M  RAD  1   8   2
M  END
>  <reaction>  (9) 
rxn_847

>  <mol_properties>  (9) 
{"1": {"label": "*0", "atom_type": "Ct"}, "2": {"label": "*1", "atom_type": "Cd"}, "7": {"label": "*3", "atom_type": "Cs"}, "8": {"label": "*2", "atom_type": "H0"}, "9": {"label": "*4", "atom_type": "H0"}}

>  <type>  (9) 
unop_5

>  <geom_source>  (9) 
Heuristics

$$$$

     RDKit          3D

 12 10  0  0  0  0  0  0  0  0999 V2000
    1.8941    1.3018    0.2773 C   0  0  0  0  0  0  0  0  0  0  0  0
    0.8074    0.8176    0.1245 C   0  0  0  0  0  0  0  0  0  0  0  0
   -0.4738    0.2283   -0.0838 C   0  0  0  0  0  0  0  0  0  0  0  0
   -1.5080    0.3931    0.7341 C   0  0  0  0  0  0  0  0  0  0  0  0
    2.8575    1.7311    0.4128 H   0  0  0  0  0  0  0  0  0  0  0  0
   -1.4319    1.0001    1.6271 H   0  0  0  0  0  0  0  0  0  0  0  0
   -2.4587   -0.0793    0.5253 H   0  0  0  0  0  0  0  0  0  0  0  0
   -0.4738   -2.2312   -0.9534 C   0  0  0  0  0  3  0  0  0  0  0  0
   -0.4738   -0.9992   -0.5178 H   0  0  0  0  0  0  0  0  0  0  0  0
    0.4153   -2.7445   -0.5904 H   0  0  0  0  0  0  0  0  0  0  0  0
   -1.3629   -2.7445   -0.5904 H   0  0  0  0  0  0  0  0  0  0  0  0
   -0.4738   -2.2312   -2.0423 H   0  0  0  0  0  0  0  0  0  0  0  0
  1  2  3  0
  1  5  1  0
  2  3  1  0
  3  4  2  3
  3  9  1  0
  4  6  1  0
  4  7  1  0
  8 10  1  0
  8 11  1  0
  8 12  1  0
M  RAD  1   8   2
M  END
>  <reaction>  (10) 
rxn_847

>  <mol_properties>  (10) 
{"1": {"label": "*0", "atom_type": "Ct"}, "2": {"label": "*1", "atom_type": "Cd"}, "7": {"label": "*3", "atom_type": "Cs"}, "8": {"label": "*2", "atom_type": "H0"}, "9": {"label": "*4", "atom_type": "H0"}}

>  <type>  (10) 
unop_6

>  <geom_source>  (10) 
Heuristics

$$$$

     RDKit          3D

 12 10  0  0  0  0  0  0  0  0999 V2000
    1.7276    0.9853    1.1873 C   0  0  0  0  0  0  0  0  0  0  0  0
    0.7777    0.6823    0.5206 C   0  0  0  0  0  0  0  0  0  0  0  0
   -0.3318    0.3066   -0.2917 C   0  0  0  0  0  0  0  0  0  0  0  0
   -1.5899    0.6470   -0.0327 C   0  0  0  0  0  0  0  0  0  0  0  0
    2.5698    1.2540    1.7785 H   0  0  0  0  0  0  0  0  0  0  0  0
   -1.8476    1.2443    0.8325 H   0  0  0  0  0  0  0  0  0  0  0  0
   -2.3933    0.3329   -0.6857 H   0  0  0  0  0  0  0  0  0  0  0  0
   -0.3318   -2.1530   -1.1613 C   0  0  0  0  0  3  0  0  0  0  0  0
   -0.3318   -0.9210   -0.7257 H   0  0  0  0  0  0  0  0  0  0  0  0
    0.5573   -2.6663   -0.7983 H   0  0  0  0  0  0  0  0  0  0  0  0
   -1.2209   -2.6663   -0.7983 H   0  0  0  0  0  0  0  0  0  0  0  0
   -0.3318   -2.1530   -2.2502 H   0  0  0  0  0  0  0  0  0  0  0  0
  1  2  3  0
  1  5  1  0
  2  3  1  0
  3  4  2  3
  3  9  1  0
  4  6  1  0
  4  7  1  0
  8 10  1  0
  8 11  1  0
  8 12  1  0
M  RAD  1   8   2
M  END
>  <reaction>  (11) 
rxn_847

>  <mol_properties>  (11) 
{"1": {"label": "*0", "atom_type": "Ct"}, "2": {"label": "*1", "atom_type": "Cd"}, "7": {"label": "*3", "atom_type": "Cs"}, "8": {"label": "*2", "atom_type": "H0"}, "9": {"label": "*4", "atom_type": "H0"}}

>  <type>  (11) 
unop_7

>  <geom_source>  (11) 
Heuristics

$$$$

     RDKit          3D

 12 10  0  0  0  0  0  0  0  0999 V2000
   -1.8941    1.3018    0.2773 C   0  0  0  0  0  0  0  0  0  0  0  0
   -0.8074    0.8176    0.1245 C   0  0  0  0  0  0  0  0  0  0  0  0
    0.4738    0.2283   -0.0838 C   0  0  0  0  0  0  0  0  0  0  0  0
    1.5080    0.3931    0.7341 C   0  0  0  0  0  0  0  0  0  0  0  0
   -2.8575    1.7311    0.4128 H   0  0  0  0  0  0  0  0  0  0  0  0
    1.4319    1.0001    1.6271 H   0  0  0  0  0  0  0  0  0  0  0  0
    2.4587   -0.0793    0.5253 H   0  0  0  0  0  0  0  0  0  0  0  0
    0.4738   -2.2312   -0.9534 C   0  0  0  0  0  3  0  0  0  0  0  0
    0.4738   -0.9992   -0.5178 H   0  0  0  0  0  0  0  0  0  0  0  0
    1.3629   -2.7445   -0.5904 H   0  0  0  0  0  0  0  0  0  0  0  0
   -0.4153   -2.7445   -0.5904 H   0  0  0  0  0  0  0  0  0  0  0  0
    0.4738   -2.2312   -2.0423 H   0  0  0  0  0  0  0  0  0  0  0  0
  1  2  3  0
  1  5  1  0
  2  3  1  0
  3  4  2  3
  3  9  1  0
  4  6  1  0
  4  7  1  0
  8 10  1  0
  8 11  1  0
  8 12  1  0
M  RAD  1   8   2
M  END
>  <reaction>  (12) 
rxn_847

>  <mol_properties>  (12) 
{"1": {"label": "*0", "atom_type": "Ct"}, "2": {"label": "*1", "atom_type": "Cd"}, "7": {"label": "*3", "atom_type": "Cs"}, "8": {"label": "*2", "atom_type": "H0"}, "9": {"label": "*4", "atom_type": "H0"}}

>  <type>  (12) 
unop_8

>  <geom_source>  (12) 
Heuristics

$$$$

     RDKit          3D

 12 10  0  0  0  0  0  0  0  0999 V2000
    0.8876    1.7680   -1.1784 C   0  0  0  0  0  0  0  0  0  0  0  0
    0.3503    0.9782   -0.4531 C   0  0  0  0  0  0  0  0  0  0  0  0
   -0.2904    0.0191    0.3847 C   0  0  0  0  0  0  0  0  0  0  0  0
   -0.5606    0.2198    1.6701 C   0  0  0  0  0  0  0  0  0  0  0  0
    1.3640    2.4683   -1.8215 H   0  0  0  0  0  0  0  0  0  0  0  0
   -0.3021    1.1475    2.1644 H   0  0  0  0  0  0  0  0  0  0  0  0
   -1.0495   -0.5454    2.2583 H   0  0  0  0  0  0  0  0  0  0  0  0
   -0.2904   -2.4404   -0.4849 C   0  0  0  0  0  3  0  0  0  0  0  0
   -0.2904   -1.2084   -0.0493 H   0  0  0  0  0  0  0  0  0  0  0  0
    0.5988   -2.9538   -0.1219 H   0  0  0  0  0  0  0  0  0  0  0  0
   -1.1795   -2.9538   -0.1219 H   0  0  0  0  0  0  0  0  0  0  0  0
   -0.2904   -2.4404   -1.5738 H   0  0  0  0  0  0  0  0  0  0  0  0
  1  2  3  0
  1  5  1  0
  2  3  1  0
  3  4  2  3
  3  9  1  0
  4  6  1  0
  4  7  1  0
  8 10  1  0
  8 11  1  0
  8 12  1  0
M  RAD  1   8   2
M  END
>  <reaction>  (13) 
rxn_847

>  <mol_properties>  (13) 
{"1": {"label": "*0", "atom_type": "Ct"}, "2": {"label": "*1", "atom_type": "Cd"}, "7": {"label": "*3", "atom_type": "Cs"}, "8": {"label": "*2", "atom_type": "H0"}, "9": {"label": "*4", "atom_type": "H0"}}

>  <type>  (13) 
unop_9

>  <geom_source>  (13) 
Heuristics

$$$$

     RDKit          3D

 12 10  0  0  0  0  0  0  0  0999 V2000
   -1.5790    1.5823   -0.5795 C   0  0  0  0  0  0  0  0  0  0  0  0
   -0.6441    0.9206   -0.2237 C   0  0  0  0  0  0  0  0  0  0  0  0
    0.4654    0.1178    0.1720 C   0  0  0  0  0  0  0  0  0  0  0  0
    1.1066    0.2561    1.3276 C   0  0  0  0  0  0  0  0  0  0  0  0
   -2.4079    2.1691   -0.8950 H   0  0  0  0  0  0  0  0  0  0  0  0
    0.8133    1.0060    2.0511 H   0  0  0  0  0  0  0  0  0  0  0  0
    1.9439   -0.3828    1.5752 H   0  0  0  0  0  0  0  0  0  0  0  0
    0.4654   -2.3418   -0.6976 C   0  0  0  0  0  3  0  0  0  0  0  0
    0.4654   -1.1098   -0.2620 H   0  0  0  0  0  0  0  0  0  0  0  0
    1.3545   -2.8551   -0.3346 H   0  0  0  0  0  0  0  0  0  0  0  0
   -0.4237   -2.8551   -0.3346 H   0  0  0  0  0  0  0  0  0  0  0  0
    0.4654   -2.3418   -1.7865 H   0  0  0  0  0  0  0  0  0  0  0  0
  1  2  3  0
  1  5  1  0
  2  3  1  0
  3  4  2  3
  3  9  1  0
  4  6  1  0
  4  7  1  0
  8 10  1  0
  8 11  1  0
  8 12  1  0
M  RAD  1   8   2
M  END
>  <reaction>  (14) 
rxn_847

>  <mol_properties>  (14) 
{"1": {"label": "*0", "atom_type": "Ct"}, "2": {"label": "*1", "atom_type": "Cd"}, "7": {"label": "*3", "atom_type": "Cs"}, "8": {"label": "*2", "atom_type": "H0"}, "9": {"label": "*4", "atom_type": "H0"}}

>  <type>  (14) 
unop_10

>  <geom_source>  (14) 
Heuristics

$$$$

     RDKit          3D

 12 10  0  0  0  0  0  0  0  0999 V2000
    1.0749    0.6992    1.9208 C   0  0  0  0  0  0  0  0  0  0  0  0
    0.5187    0.5343    0.8711 C   0  0  0  0  0  0  0  0  0  0  0  0
   -0.1219    0.3149   -0.3834 C   0  0  0  0  0  0  0  0  0  0  0  0
   -1.1699    1.0099   -0.8128 C   0  0  0  0  0  0  0  0  0  0  0  0
    1.5680    0.8454    2.8516 H   0  0  0  0  0  0  0  0  0  0  0  0
   -1.6059    1.8019   -0.2175 H   0  0  0  0  0  0  0  0  0  0  0  0
   -1.6160    0.7992   -1.7757 H   0  0  0  0  0  0  0  0  0  0  0  0
   -0.1219   -2.1446   -1.2530 C   0  0  0  0  0  3  0  0  0  0  0  0
   -0.1219   -0.9126   -0.8174 H   0  0  0  0  0  0  0  0  0  0  0  0
    0.7672   -2.6580   -0.8900 H   0  0  0  0  0  0  0  0  0  0  0  0
   -1.0110   -2.6580   -0.8900 H   0  0  0  0  0  0  0  0  0  0  0  0
   -0.1219   -2.1446   -2.3419 H   0  0  0  0  0  0  0  0  0  0  0  0
  1  2  3  0
  1  5  1  0
  2  3  1  0
  3  4  2  3
  3  9  1  0
  4  6  1  0
  4  7  1  0
  8 10  1  0
  8 11  1  0
  8 12  1  0
M  RAD  1   8   2
M  END
>  <reaction>  (15) 
rxn_847

>  <mol_properties>  (15) 
{"1": {"label": "*0", "atom_type": "Ct"}, "2": {"label": "*1", "atom_type": "Cd"}, "7": {"label": "*3", "atom_type": "Cs"}, "8": {"label": "*2", "atom_type": "H0"}, "9": {"label": "*4", "atom_type": "H0"}}

>  <type>  (15) 
unop_11

>  <geom_source>  (15) 
Heuristics

$$$$

     RDKit          3D

 12 10  0  0  0  0  0  0  0  0999 V2000
   -0.0000    1.8310   -1.3912 C   0  0  0  0  0  0  0  0  0  0  0  0
    0.0000    0.9949   -0.5313 C   0  0  0  0  0  0  0  0  0  0  0  0
    0.0000   -0.0214    0.4683 C   0  0  0  0  0  0  0  0  0  0  0  0
   -0.0000    0.2227    1.7745 C   0  0  0  0  0  0  0  0  0  0  0  0
   -0.0000    2.5724   -2.1536 H   0  0  0  0  0  0  0  0  0  0  0  0
   -0.0000    1.2338    2.1611 H   0  0  0  0  0  0  0  0  0  0  0  0
   -0.0000   -0.5900    2.4888 H   0  0  0  0  0  0  0  0  0  0  0  0
    0.0000   -2.4810   -0.4013 C   0  0  0  0  0  3  0  0  0  0  0  0
    0.0000   -1.2490    0.0343 H   0  0  0  0  0  0  0  0  0  0  0  0
    0.8891   -2.9943   -0.0383 H   0  0  0  0  0  0  0  0  0  0  0  0
   -0.8891   -2.9943   -0.0383 H   0  0  0  0  0  0  0  0  0  0  0  0
    0.0000   -2.4810   -1.4902 H   0  0  0  0  0  0  0  0  0  0  0  0
  1  2  3  0
  1  5  1  0
  2  3  1  0
  3  4  2  3
  3  9  1  0
  4  6  1  0
  4  7  1  0
  8 10  1  0
  8 11  1  0
  8 12  1  0
M  RAD  1   8   2
M  END
>  <reaction>  (16) 
rxn_847

>  <mol_properties>  (16) 
{"1": {"label": "*0", "atom_type": "Ct"}, "2": {"label": "*1", "atom_type": "Cd"}, "7": {"label": "*3", "atom_type": "Cs"}, "8": {"label": "*2", "atom_type": "H0"}, "9": {"label": "*4", "atom_type": "H0"}}

>  <type>  (16) 
unop_12

>  <geom_source>  (16) 
Heuristics

$$$$

     RDKit          3D

 12 10  0  0  0  0  0  0  0  0999 V2000
   -0.4054   -0.2613    0.3704 C   0  0  0  0  0  0  0  0  0  0  0  0
   -0.6654   -0.2436    1.6722 C   0  0  0  0  0  0  0  0  0  0  0  0
    1.9691    0.3829   -0.4894 C   0  0  0  0  0  3  0  0  0  0  0  0
   -1.4711   -0.2900   -0.5947 C   0  0  0  0  0  0  0  0  0  0  0  0
   -2.3636   -0.3141   -1.4046 C   0  0  0  0  0  0  0  0  0  0  0  0
    0.8674   -0.2523   -0.0544 H   0  0  0  0  0  0  0  0  0  0  0  0
    0.1504   -0.2220    2.3821 H   0  0  0  0  0  0  0  0  0  0  0  0
   -1.6841   -0.2502    2.0411 H   0  0  0  0  0  0  0  0  0  0  0  0
    2.8627   -0.2498   -0.6685 H   0  0  0  0  0  0  0  0  0  0  0  0
    1.6872    0.8993   -1.4299 H   0  0  0  0  0  0  0  0  0  0  0  0
    2.2000    1.1365    0.2913 H   0  0  0  0  0  0  0  0  0  0  0  0
   -3.1473   -0.3353   -2.1156 H   0  0  0  0  0  0  0  0  0  0  0  0
  1  2  2  3
  1  4  1  0
  1  6  1  0
  2  7  1  0
  2  8  1  0
  3  9  1  0
  3 10  1  0
  3 11  1  0
  4  5  3  0
  5 12  1  0
M  RAD  1   3   2
M  END
>  <reaction>  (17) 
rxn_847

>  <mol_properties>  (17) 
{"1": {"label": "*0", "atom_type": "Ct"}, "2": {"label": "*1", "atom_type": "Cd"}, "7": {"label": "*3", "atom_type": "Cs"}, "8": {"label": "*2", "atom_type": "H0"}, "9": {"label": "*4", "atom_type": "H0"}}

>  <type>  (17) 
unop_13

>  <geom_source>  (17) 
AutoTST

$$$$
