
     RDKit          3D

 14 13  0  0  0  0  0  0  0  0999 V2000
    1.8106   -0.5953    0.5577 C   0  0  0  0  0  0  0  0  0  0  0  0
    0.5197    0.2064    0.6554 C   0  0  0  0  0  0  0  0  0  0  0  0
   -0.5206   -0.2080   -0.3788 C   0  0  0  0  0  0  0  0  0  0  0  0
   -1.8114    0.5937   -0.2812 C   0  0  0  0  0  0  0  0  0  0  0  0
    2.2725   -0.4752   -0.4251 H   0  0  0  0  0  0  0  0  0  0  0  0
    1.6214   -1.6612    0.7052 H   0  0  0  0  0  0  0  0  0  0  0  0
    2.5364   -0.2784    1.3084 H   0  0  0  0  0  0  0  0  0  0  0  0
    0.0930    0.0950    1.6574 H   0  0  0  0  0  0  0  0  0  0  0  0
    0.7393    1.2723    0.5354 H   0  0  0  0  0  0  0  0  0  0  0  0
   -0.7402   -1.2739   -0.2588 H   0  0  0  0  0  0  0  0  0  0  0  0
   -0.0938   -0.0965   -1.3808 H   0  0  0  0  0  0  0  0  0  0  0  0
   -1.6222    1.6596   -0.4287 H   0  0  0  0  0  0  0  0  0  0  0  0
   -2.2734    0.4736    0.7017 H   0  0  0  0  0  0  0  0  0  0  0  0
   -2.5373    0.2768   -1.0318 H   0  0  0  0  0  0  0  0  0  0  0  0
  1  2  1  0
  1  5  1  0
  1  6  1  0
  1  7  1  0
  2  3  1  0
  2  8  1  0
  2  9  1  0
  3  4  1  0
  3 10  1  0
  3 11  1  0
  4 12  1  0
  4 13  1  0
  4 14  1  0
M  END
>  <reaction>  (1) 
rxn_94

>  <mol_properties>  (1) 
{"3": {"label": "donator", "atom_type": "Cs"}, "12": {"label": "d_hydrogen", "atom_type": "H0"}}

>  <type>  (1) 
r1h

$$$$

     RDKit          3D

  3  2  0  0  0  0  0  0  0  0999 V2000
    0.0002    0.4233    0.0000 N   0  0  0  0  0  2  0  0  0  0  0  0
   -0.8051   -0.2112    0.0000 H   0  0  0  0  0  0  0  0  0  0  0  0
    0.8049   -0.2121    0.0000 H   0  0  0  0  0  0  0  0  0  0  0  0
  1  2  1  0
  1  3  1  0
M  RAD  1   1   2
M  END
>  <reaction>  (2) 
rxn_94

>  <mol_properties>  (2) 
{"0": {"label": "acceptor", "atom_type": "N3s"}}

>  <type>  (2) 
r2

$$$$

     RDKit          3D

  4  3  0  0  0  0  0  0  0  0999 V2000
    0.0006   -0.0009    0.2762 N   0  0  0  0  0  0  0  0  0  0  0  0
   -0.4188    0.8439   -0.0883 H   0  0  0  0  0  0  0  0  0  0  0  0
   -0.5215   -0.7840   -0.0936 H   0  0  0  0  0  0  0  0  0  0  0  0
    0.9397   -0.0590   -0.0943 H   0  0  0  0  0  0  0  0  0  0  0  0
  1  2  1  0
  1  3  1  0
  1  4  1  0
M  END
>  <reaction>  (3) 
rxn_94

>  <mol_properties>  (3) 
{"0": {"label": "acceptor", "atom_type": "N3s"}, "3": {"label": "a_hydrogen", "atom_type": "H0"}}

>  <type>  (3) 
r2h

$$$$

     RDKit          3D

 17 15  0  0  0  0  0  0  0  0999 V2000
   -1.3288   -0.4918    2.2896 N   0  0  0  0  0  2  0  0  0  0  0  0
   -1.9609   -0.2742    1.5165 H   0  0  0  0  0  0  0  0  0  0  0  0
   -1.0433   -1.4568    2.1126 H   0  0  0  0  0  0  0  0  0  0  0  0
    0.1500   -0.3649   -2.3980 C   0  0  0  0  0  0  0  0  0  0  0  0
    0.3772   -0.5270   -0.9015 C   0  0  0  0  0  0  0  0  0  0  0  0
    0.5274    0.8045   -0.1739 C   0  0  0  0  0  0  0  0  0  0  0  0
    0.7691    0.6621    1.3070 C   0  0  0  0  0  0  0  0  0  0  0  0
    0.9854    0.1603   -2.8667 H   0  0  0  0  0  0  0  0  0  0  0  0
   -0.7560    0.2126   -2.5964 H   0  0  0  0  0  0  0  0  0  0  0  0
    0.0442   -1.3316   -2.8924 H   0  0  0  0  0  0  0  0  0  0  0  0
   -0.4561   -1.0826   -0.4605 H   0  0  0  0  0  0  0  0  0  0  0  0
    1.2727   -1.1319   -0.7277 H   0  0  0  0  0  0  0  0  0  0  0  0
   -0.3639    1.4173   -0.3450 H   0  0  0  0  0  0  0  0  0  0  0  0
    1.3609    1.3607   -0.6219 H   0  0  0  0  0  0  0  0  0  0  0  0
    1.5870   -0.0125    1.5622 H   0  0  0  0  0  0  0  0  0  0  0  0
   -0.2535    0.1347    1.8735 H   0  0  0  0  0  0  0  0  0  0  0  0
    0.8552    1.6051    1.8451 H   0  0  0  0  0  0  0  0  0  0  0  0
  1  2  1  0
  1  3  1  0
  4  5  1  0
  4  8  1  0
  4  9  1  0
  4 10  1  0
  5  6  1  0
  5 11  1  0
  5 12  1  0
  6  7  1  0
  6 13  1  0
  6 14  1  0
  7 15  1  0
  7 16  1  0
  7 17  1  0
M  RAD  1   1   2
M  END
>  <reaction>  (4) 
rxn_94

>  <mol_properties>  (4) 
{"0": {"label": "*3", "atom_type": "N3s"}, "1": {"label": "*4", "atom_type": "H0"}, "5": {"label": "*0", "atom_type": "Cs"}, "6": {"label": "*1", "atom_type": "Cs"}, "15": {"label": "*2", "atom_type": "H0"}}

>  <type>  (4) 
ts

$$$$

     RDKit          3D

 17 15  0  0  0  0  0  0  0  0999 V2000
   -1.6006   -0.3786    2.1190 N   0  0  0  0  0  0  0  0  0  0  0  0
   -1.2766   -1.1564    2.6782 H   0  0  0  0  0  0  0  0  0  0  0  0
   -1.4514    0.3888    2.7605 H   0  0  0  0  0  0  0  0  0  0  0  0
    0.4363   -0.5948   -2.4280 C   0  0  0  0  0  0  0  0  0  0  0  0
    0.4363   -0.5948   -0.9053 C   0  0  0  0  0  0  0  0  0  0  0  0
    0.4363    0.8076   -0.3080 C   0  0  0  0  0  0  0  0  0  0  0  0
    0.4363    0.8076    1.2147 C   0  0  0  0  0  3  0  0  0  0  0  0
    1.3178   -0.0815   -2.8194 H   0  0  0  0  0  0  0  0  0  0  0  0
   -0.4452   -0.0815   -2.8194 H   0  0  0  0  0  0  0  0  0  0  0  0
    0.4363   -1.6099   -2.8284 H   0  0  0  0  0  0  0  0  0  0  0  0
   -0.4387   -1.1407   -0.5380 H   0  0  0  0  0  0  0  0  0  0  0  0
    1.3113   -1.1407   -0.5380 H   0  0  0  0  0  0  0  0  0  0  0  0
   -0.4387    1.3535   -0.6753 H   0  0  0  0  0  0  0  0  0  0  0  0
    1.3113    1.3535   -0.6753 H   0  0  0  0  0  0  0  0  0  0  0  0
    1.3178    0.2942    1.6061 H   0  0  0  0  0  0  0  0  0  0  0  0
   -0.6215    0.1915    1.6844 H   0  0  0  0  0  0  0  0  0  0  0  0
    0.4363    1.8227    1.6151 H   0  0  0  0  0  0  0  0  0  0  0  0
  1  2  1  0
  1  3  1  0
  1 16  1  0
  4  5  1  0
  4  8  1  0
  4  9  1  0
  4 10  1  0
  5  6  1  0
  5 11  1  0
  5 12  1  0
  6  7  1  0
  6 13  1  0
  6 14  1  0
  7 15  1  0
  7 17  1  0
M  RAD  1   7   2
M  END
>  <reaction>  (5) 
rxn_94

>  <mol_properties>  (5) 
{"0": {"label": "*3", "atom_type": "N3s"}, "1": {"label": "*4", "atom_type": "H0"}, "5": {"label": "*0", "atom_type": "Cs"}, "6": {"label": "*1", "atom_type": "Cs"}, "15": {"label": "*2", "atom_type": "H0"}}

>  <type>  (5) 
unop_1

>  <geom_source>  (5) 
Heuristics

$$$$

     RDKit          3D

 17 15  0  0  0  0  0  0  0  0999 V2000
   -1.6007   -0.3663    2.1356 N   0  0  0  0  0  0  0  0  0  0  0  0
   -1.8621   -1.0766    1.4649 H   0  0  0  0  0  0  0  0  0  0  0  0
   -0.8578   -0.5670    2.7917 H   0  0  0  0  0  0  0  0  0  0  0  0
    0.4362   -0.5826   -2.4115 C   0  0  0  0  0  0  0  0  0  0  0  0
    0.4362   -0.5826   -0.8888 C   0  0  0  0  0  0  0  0  0  0  0  0
    0.4362    0.8198   -0.2914 C   0  0  0  0  0  0  0  0  0  0  0  0
    0.4362    0.8198    1.2313 C   0  0  0  0  0  3  0  0  0  0  0  0
    1.3177   -0.0692   -2.8029 H   0  0  0  0  0  0  0  0  0  0  0  0
   -0.4453   -0.0692   -2.8029 H   0  0  0  0  0  0  0  0  0  0  0  0
    0.4362   -1.5977   -2.8119 H   0  0  0  0  0  0  0  0  0  0  0  0
   -0.4388   -1.1284   -0.5215 H   0  0  0  0  0  0  0  0  0  0  0  0
    1.3112   -1.1284   -0.5215 H   0  0  0  0  0  0  0  0  0  0  0  0
   -0.4388    1.3657   -0.6587 H   0  0  0  0  0  0  0  0  0  0  0  0
    1.3112    1.3657   -0.6587 H   0  0  0  0  0  0  0  0  0  0  0  0
    1.3177    0.3065    1.6226 H   0  0  0  0  0  0  0  0  0  0  0  0
   -0.6216    0.2038    1.7009 H   0  0  0  0  0  0  0  0  0  0  0  0
    0.4362    1.8349    1.6316 H   0  0  0  0  0  0  0  0  0  0  0  0
  1  2  1  0
  1  3  1  0
  1 16  1  0
  4  5  1  0
  4  8  1  0
  4  9  1  0
  4 10  1  0
  5  6  1  0
  5 11  1  0
  5 12  1  0
  6  7  1  0
  6 13  1  0
  6 14  1  0
  7 15  1  0
  7 17  1  0
M  RAD  1   7   2
M  END
>  <reaction>  (6) 
rxn_94

>  <mol_properties>  (6) 
{"0": {"label": "*3", "atom_type": "N3s"}, "1": {"label": "*4", "atom_type": "H0"}, "5": {"label": "*0", "atom_type": "Cs"}, "6": {"label": "*1", "atom_type": "Cs"}, "15": {"label": "*2", "atom_type": "H0"}}

>  <type>  (6) 
unop_2

>  <geom_source>  (6) 
Heuristics

$$$$

     RDKit          3D

 17 15  0  0  0  0  0  0  0  0999 V2000
   -1.5933   -0.3848    2.1173 N   0  0  0  0  0  0  0  0  0  0  0  0
   -1.3378   -0.7939    3.0061 H   0  0  0  0  0  0  0  0  0  0  0  0
   -1.9100    0.4697    2.5556 H   0  0  0  0  0  0  0  0  0  0  0  0
    0.4436   -0.6010   -2.4298 C   0  0  0  0  0  0  0  0  0  0  0  0
    0.4436   -0.6010   -0.9071 C   0  0  0  0  0  0  0  0  0  0  0  0
    0.4436    0.8014   -0.3097 C   0  0  0  0  0  0  0  0  0  0  0  0
    0.4436    0.8014    1.2130 C   0  0  0  0  0  3  0  0  0  0  0  0
    1.3251   -0.0877   -2.8211 H   0  0  0  0  0  0  0  0  0  0  0  0
   -0.4380   -0.0877   -2.8211 H   0  0  0  0  0  0  0  0  0  0  0  0
    0.4436   -1.6161   -2.8301 H   0  0  0  0  0  0  0  0  0  0  0  0
   -0.4315   -1.1469   -0.5397 H   0  0  0  0  0  0  0  0  0  0  0  0
    1.3186   -1.1469   -0.5397 H   0  0  0  0  0  0  0  0  0  0  0  0
   -0.4315    1.3473   -0.6770 H   0  0  0  0  0  0  0  0  0  0  0  0
    1.3186    1.3473   -0.6770 H   0  0  0  0  0  0  0  0  0  0  0  0
    1.3251    0.2880    1.6044 H   0  0  0  0  0  0  0  0  0  0  0  0
   -0.6143    0.1853    1.6827 H   0  0  0  0  0  0  0  0  0  0  0  0
    0.4436    1.8165    1.6134 H   0  0  0  0  0  0  0  0  0  0  0  0
  1  2  1  0
  1  3  1  0
  1 16  1  0
  4  5  1  0
  4  8  1  0
  4  9  1  0
  4 10  1  0
  5  6  1  0
  5 11  1  0
  5 12  1  0
  6  7  1  0
  6 13  1  0
  6 14  1  0
  7 15  1  0
  7 17  1  0
M  RAD  1   7   2
M  END
>  <reaction>  (7) 
rxn_94

>  <mol_properties>  (7) 
{"0": {"label": "*3", "atom_type": "N3s"}, "1": {"label": "*4", "atom_type": "H0"}, "5": {"label": "*0", "atom_type": "Cs"}, "6": {"label": "*1", "atom_type": "Cs"}, "15": {"label": "*2", "atom_type": "H0"}}

>  <type>  (7) 
unop_3

>  <geom_source>  (7) 
Heuristics

$$$$

     RDKit          3D

 17 15  0  0  0  0  0  0  0  0999 V2000
   -1.5820   -0.3717    2.1397 N   0  0  0  0  0  0  0  0  0  0  0  0
   -2.3971    0.1200    1.7985 H   0  0  0  0  0  0  0  0  0  0  0  0
   -1.6596   -1.3796    2.1643 H   0  0  0  0  0  0  0  0  0  0  0  0
    0.4549   -0.5879   -2.4074 C   0  0  0  0  0  0  0  0  0  0  0  0
    0.4549   -0.5879   -0.8847 C   0  0  0  0  0  0  0  0  0  0  0  0
    0.4549    0.8145   -0.2873 C   0  0  0  0  0  0  0  0  0  0  0  0
    0.4549    0.8145    1.2354 C   0  0  0  0  0  3  0  0  0  0  0  0
    1.3364   -0.0746   -2.7988 H   0  0  0  0  0  0  0  0  0  0  0  0
   -0.4266   -0.0746   -2.7988 H   0  0  0  0  0  0  0  0  0  0  0  0
    0.4549   -1.6030   -2.8078 H   0  0  0  0  0  0  0  0  0  0  0  0
   -0.4202   -1.1338   -0.5174 H   0  0  0  0  0  0  0  0  0  0  0  0
    1.3299   -1.1338   -0.5174 H   0  0  0  0  0  0  0  0  0  0  0  0
   -0.4202    1.3603   -0.6546 H   0  0  0  0  0  0  0  0  0  0  0  0
    1.3299    1.3603   -0.6546 H   0  0  0  0  0  0  0  0  0  0  0  0
    1.3364    0.3011    1.6267 H   0  0  0  0  0  0  0  0  0  0  0  0
   -0.6029    0.1984    1.7050 H   0  0  0  0  0  0  0  0  0  0  0  0
    0.4549    1.8296    1.6357 H   0  0  0  0  0  0  0  0  0  0  0  0
  1  2  1  0
  1  3  1  0
  1 16  1  0
  4  5  1  0
  4  8  1  0
  4  9  1  0
  4 10  1  0
  5  6  1  0
  5 11  1  0
  5 12  1  0
  6  7  1  0
  6 13  1  0
  6 14  1  0
  7 15  1  0
  7 17  1  0
M  RAD  1   7   2
M  END
>  <reaction>  (8) 
rxn_94

>  <mol_properties>  (8) 
{"0": {"label": "*3", "atom_type": "N3s"}, "1": {"label": "*4", "atom_type": "H0"}, "5": {"label": "*0", "atom_type": "Cs"}, "6": {"label": "*1", "atom_type": "Cs"}, "15": {"label": "*2", "atom_type": "H0"}}

>  <type>  (8) 
unop_4

>  <geom_source>  (8) 
Heuristics

$$$$

     RDKit          3D

 17 15  0  0  0  0  0  0  0  0999 V2000
   -1.5829   -0.3859    2.1208 N   0  0  0  0  0  0  0  0  0  0  0  0
   -1.5300   -0.3551    3.1302 H   0  0  0  0  0  0  0  0  0  0  0  0
   -2.4628    0.1088    2.1811 H   0  0  0  0  0  0  0  0  0  0  0  0
    0.4540   -0.6021   -2.4263 C   0  0  0  0  0  0  0  0  0  0  0  0
    0.4540   -0.6021   -0.9036 C   0  0  0  0  0  0  0  0  0  0  0  0
    0.4540    0.8003   -0.3062 C   0  0  0  0  0  0  0  0  0  0  0  0
    0.4540    0.8003    1.2165 C   0  0  0  0  0  3  0  0  0  0  0  0
    1.3355   -0.0887   -2.8176 H   0  0  0  0  0  0  0  0  0  0  0  0
   -0.4275   -0.0887   -2.8176 H   0  0  0  0  0  0  0  0  0  0  0  0
    0.4540   -1.6172   -2.8266 H   0  0  0  0  0  0  0  0  0  0  0  0
   -0.4211   -1.1480   -0.5362 H   0  0  0  0  0  0  0  0  0  0  0  0
    1.3290   -1.1480   -0.5362 H   0  0  0  0  0  0  0  0  0  0  0  0
   -0.4211    1.3462   -0.6735 H   0  0  0  0  0  0  0  0  0  0  0  0
    1.3290    1.3462   -0.6735 H   0  0  0  0  0  0  0  0  0  0  0  0
    1.3355    0.2869    1.6079 H   0  0  0  0  0  0  0  0  0  0  0  0
   -0.6038    0.1843    1.6862 H   0  0  0  0  0  0  0  0  0  0  0  0
    0.4540    1.8154    1.6169 H   0  0  0  0  0  0  0  0  0  0  0  0
  1  2  1  0
  1  3  1  0
  1 16  1  0
  4  5  1  0
  4  8  1  0
  4  9  1  0
  4 10  1  0
  5  6  1  0
  5 11  1  0
  5 12  1  0
  6  7  1  0
  6 13  1  0
  6 14  1  0
  7 15  1  0
  7 17  1  0
M  RAD  1   7   2
M  END
>  <reaction>  (9) 
rxn_94

>  <mol_properties>  (9) 
{"0": {"label": "*3", "atom_type": "N3s"}, "1": {"label": "*4", "atom_type": "H0"}, "5": {"label": "*0", "atom_type": "Cs"}, "6": {"label": "*1", "atom_type": "Cs"}, "15": {"label": "*2", "atom_type": "H0"}}

>  <type>  (9) 
unop_5

>  <geom_source>  (9) 
Heuristics

$$$$

     RDKit          3D

 17 15  0  0  0  0  0  0  0  0999 V2000
   -1.5785   -0.3757    2.1354 N   0  0  0  0  0  0  0  0  0  0  0  0
   -2.3094    0.3146    2.2445 H   0  0  0  0  0  0  0  0  0  0  0  0
   -1.9972   -1.2889    2.0202 H   0  0  0  0  0  0  0  0  0  0  0  0
    0.4584   -0.5919   -2.4116 C   0  0  0  0  0  0  0  0  0  0  0  0
    0.4584   -0.5919   -0.8889 C   0  0  0  0  0  0  0  0  0  0  0  0
    0.4584    0.8105   -0.2915 C   0  0  0  0  0  0  0  0  0  0  0  0
    0.4584    0.8105    1.2311 C   0  0  0  0  0  3  0  0  0  0  0  0
    1.3399   -0.0786   -2.8030 H   0  0  0  0  0  0  0  0  0  0  0  0
   -0.4231   -0.0786   -2.8030 H   0  0  0  0  0  0  0  0  0  0  0  0
    0.4584   -1.6070   -2.8120 H   0  0  0  0  0  0  0  0  0  0  0  0
   -0.4167   -1.1378   -0.5216 H   0  0  0  0  0  0  0  0  0  0  0  0
    1.3334   -1.1378   -0.5216 H   0  0  0  0  0  0  0  0  0  0  0  0
   -0.4167    1.3563   -0.6589 H   0  0  0  0  0  0  0  0  0  0  0  0
    1.3334    1.3563   -0.6589 H   0  0  0  0  0  0  0  0  0  0  0  0
    1.3399    0.2971    1.6225 H   0  0  0  0  0  0  0  0  0  0  0  0
   -0.5995    0.1944    1.7008 H   0  0  0  0  0  0  0  0  0  0  0  0
    0.4584    1.8256    1.6315 H   0  0  0  0  0  0  0  0  0  0  0  0
  1  2  1  0
  1  3  1  0
  1 16  1  0
  4  5  1  0
  4  8  1  0
  4  9  1  0
  4 10  1  0
  5  6  1  0
  5 11  1  0
  5 12  1  0
  6  7  1  0
  6 13  1  0
  6 14  1  0
  7 15  1  0
  7 17  1  0
M  RAD  1   7   2
M  END
>  <reaction>  (10) 
rxn_94

>  <mol_properties>  (10) 
{"0": {"label": "*3", "atom_type": "N3s"}, "1": {"label": "*4", "atom_type": "H0"}, "5": {"label": "*0", "atom_type": "Cs"}, "6": {"label": "*1", "atom_type": "Cs"}, "15": {"label": "*2", "atom_type": "H0"}}

>  <type>  (10) 
unop_6

>  <geom_source>  (10) 
Heuristics

$$$$

     RDKit          3D

 17 15  0  0  0  0  0  0  0  0999 V2000
   -1.5773   -0.3785    2.1304 N   0  0  0  0  0  0  0  0  0  0  0  0
   -2.0939    0.2870    2.6896 H   0  0  0  0  0  0  0  0  0  0  0  0
   -2.2993   -1.0585    1.9332 H   0  0  0  0  0  0  0  0  0  0  0  0
    0.4596   -0.5948   -2.4166 C   0  0  0  0  0  0  0  0  0  0  0  0
    0.4596   -0.5948   -0.8939 C   0  0  0  0  0  0  0  0  0  0  0  0
    0.4596    0.8076   -0.2966 C   0  0  0  0  0  0  0  0  0  0  0  0
    0.4596    0.8076    1.2261 C   0  0  0  0  0  3  0  0  0  0  0  0
    1.3411   -0.0814   -2.8080 H   0  0  0  0  0  0  0  0  0  0  0  0
   -0.4219   -0.0814   -2.8080 H   0  0  0  0  0  0  0  0  0  0  0  0
    0.4596   -1.6099   -2.8170 H   0  0  0  0  0  0  0  0  0  0  0  0
   -0.4155   -1.1406   -0.5266 H   0  0  0  0  0  0  0  0  0  0  0  0
    1.3346   -1.1406   -0.5266 H   0  0  0  0  0  0  0  0  0  0  0  0
   -0.4155    1.3535   -0.6639 H   0  0  0  0  0  0  0  0  0  0  0  0
    1.3346    1.3535   -0.6639 H   0  0  0  0  0  0  0  0  0  0  0  0
    1.3411    0.2943    1.6175 H   0  0  0  0  0  0  0  0  0  0  0  0
   -0.5982    0.1916    1.6958 H   0  0  0  0  0  0  0  0  0  0  0  0
    0.4596    1.8227    1.6265 H   0  0  0  0  0  0  0  0  0  0  0  0
  1  2  1  0
  1  3  1  0
  1 16  1  0
  4  5  1  0
  4  8  1  0
  4  9  1  0
  4 10  1  0
  5  6  1  0
  5 11  1  0
  5 12  1  0
  6  7  1  0
  6 13  1  0
  6 14  1  0
  7 15  1  0
  7 17  1  0
M  RAD  1   7   2
M  END
>  <reaction>  (11) 
rxn_94

>  <mol_properties>  (11) 
{"0": {"label": "*3", "atom_type": "N3s"}, "1": {"label": "*4", "atom_type": "H0"}, "5": {"label": "*0", "atom_type": "Cs"}, "6": {"label": "*1", "atom_type": "Cs"}, "15": {"label": "*2", "atom_type": "H0"}}

>  <type>  (11) 
unop_7

>  <geom_source>  (11) 
Heuristics

$$$$

     RDKit          3D

 17 15  0  0  0  0  0  0  0  0999 V2000
   -1.6036   -0.3728    2.1240 N   0  0  0  0  0  0  0  0  0  0  0  0
   -1.3639   -1.3491    2.2331 H   0  0  0  0  0  0  0  0  0  0  0  0
   -1.1488    0.1650    2.8496 H   0  0  0  0  0  0  0  0  0  0  0  0
    0.4333   -0.5890   -2.4231 C   0  0  0  0  0  0  0  0  0  0  0  0
    0.4333   -0.5890   -0.9004 C   0  0  0  0  0  0  0  0  0  0  0  0
    0.4333    0.8134   -0.3030 C   0  0  0  0  0  0  0  0  0  0  0  0
    0.4333    0.8134    1.2197 C   0  0  0  0  0  3  0  0  0  0  0  0
    1.3148   -0.0756   -2.8144 H   0  0  0  0  0  0  0  0  0  0  0  0
   -0.4482   -0.0756   -2.8144 H   0  0  0  0  0  0  0  0  0  0  0  0
    0.4333   -1.6041   -2.8234 H   0  0  0  0  0  0  0  0  0  0  0  0
   -0.4417   -1.1349   -0.5330 H   0  0  0  0  0  0  0  0  0  0  0  0
    1.3083   -1.1349   -0.5330 H   0  0  0  0  0  0  0  0  0  0  0  0
   -0.4417    1.3593   -0.6703 H   0  0  0  0  0  0  0  0  0  0  0  0
    1.3083    1.3593   -0.6703 H   0  0  0  0  0  0  0  0  0  0  0  0
    1.3148    0.3000    1.6111 H   0  0  0  0  0  0  0  0  0  0  0  0
   -0.6245    0.1974    1.6894 H   0  0  0  0  0  0  0  0  0  0  0  0
    0.4333    1.8285    1.6201 H   0  0  0  0  0  0  0  0  0  0  0  0
  1  2  1  0
  1  3  1  0
  1 16  1  0
  4  5  1  0
  4  8  1  0
  4  9  1  0
  4 10  1  0
  5  6  1  0
  5 11  1  0
  5 12  1  0
  6  7  1  0
  6 13  1  0
  6 14  1  0
  7 15  1  0
  7 17  1  0
M  RAD  1   7   2
M  END
>  <reaction>  (12) 
rxn_94

>  <mol_properties>  (12) 
{"0": {"label": "*3", "atom_type": "N3s"}, "1": {"label": "*4", "atom_type": "H0"}, "5": {"label": "*0", "atom_type": "Cs"}, "6": {"label": "*1", "atom_type": "Cs"}, "15": {"label": "*2", "atom_type": "H0"}}

>  <type>  (12) 
unop_8

>  <geom_source>  (12) 
Heuristics

$$$$

     RDKit          3D

 17 15  0  0  0  0  0  0  0  0999 V2000
   -1.5880   -0.3676    2.1414 N   0  0  0  0  0  0  0  0  0  0  0  0
   -2.3348   -0.2445    1.4707 H   0  0  0  0  0  0  0  0  0  0  0  0
   -1.2895   -1.3064    2.3698 H   0  0  0  0  0  0  0  0  0  0  0  0
    0.4488   -0.5839   -2.4057 C   0  0  0  0  0  0  0  0  0  0  0  0
    0.4488   -0.5839   -0.8830 C   0  0  0  0  0  0  0  0  0  0  0  0
    0.4488    0.8185   -0.2856 C   0  0  0  0  0  0  0  0  0  0  0  0
    0.4488    0.8185    1.2371 C   0  0  0  0  0  3  0  0  0  0  0  0
    1.3304   -0.0705   -2.7971 H   0  0  0  0  0  0  0  0  0  0  0  0
   -0.4327   -0.0705   -2.7971 H   0  0  0  0  0  0  0  0  0  0  0  0
    0.4488   -1.5990   -2.8061 H   0  0  0  0  0  0  0  0  0  0  0  0
   -0.4262   -1.1297   -0.5157 H   0  0  0  0  0  0  0  0  0  0  0  0
    1.3239   -1.1297   -0.5157 H   0  0  0  0  0  0  0  0  0  0  0  0
   -0.4262    1.3644   -0.6529 H   0  0  0  0  0  0  0  0  0  0  0  0
    1.3239    1.3644   -0.6529 H   0  0  0  0  0  0  0  0  0  0  0  0
    1.3304    0.3052    1.6284 H   0  0  0  0  0  0  0  0  0  0  0  0
   -0.6090    0.2025    1.7067 H   0  0  0  0  0  0  0  0  0  0  0  0
    0.4488    1.8336    1.6374 H   0  0  0  0  0  0  0  0  0  0  0  0
  1  2  1  0
  1  3  1  0
  1 16  1  0
  4  5  1  0
  4  8  1  0
  4  9  1  0
  4 10  1  0
  5  6  1  0
  5 11  1  0
  5 12  1  0
  6  7  1  0
  6 13  1  0
  6 14  1  0
  7 15  1  0
  7 17  1  0
M  RAD  1   7   2
M  END
>  <reaction>  (13) 
rxn_94

>  <mol_properties>  (13) 
{"0": {"label": "*3", "atom_type": "N3s"}, "1": {"label": "*4", "atom_type": "H0"}, "5": {"label": "*0", "atom_type": "Cs"}, "6": {"label": "*1", "atom_type": "Cs"}, "15": {"label": "*2", "atom_type": "H0"}}

>  <type>  (13) 
unop_9

>  <geom_source>  (13) 
Heuristics

$$$$

     RDKit          3D

 17 15  0  0  0  0  0  0  0  0999 V2000
   -1.6034   -0.3687    2.1300 N   0  0  0  0  0  0  0  0  0  0  0  0
   -1.5780   -1.3204    1.7889 H   0  0  0  0  0  0  0  0  0  0  0  0
   -0.9435   -0.1513    2.8647 H   0  0  0  0  0  0  0  0  0  0  0  0
    0.4334   -0.5850   -2.4171 C   0  0  0  0  0  0  0  0  0  0  0  0
    0.4334   -0.5850   -0.8944 C   0  0  0  0  0  0  0  0  0  0  0  0
    0.4334    0.8174   -0.2970 C   0  0  0  0  0  0  0  0  0  0  0  0
    0.4334    0.8174    1.2257 C   0  0  0  0  0  3  0  0  0  0  0  0
    1.3149   -0.0716   -2.8084 H   0  0  0  0  0  0  0  0  0  0  0  0
   -0.4481   -0.0716   -2.8084 H   0  0  0  0  0  0  0  0  0  0  0  0
    0.4334   -1.6001   -2.8174 H   0  0  0  0  0  0  0  0  0  0  0  0
   -0.4416   -1.1308   -0.5270 H   0  0  0  0  0  0  0  0  0  0  0  0
    1.3085   -1.1308   -0.5270 H   0  0  0  0  0  0  0  0  0  0  0  0
   -0.4416    1.3633   -0.6643 H   0  0  0  0  0  0  0  0  0  0  0  0
    1.3085    1.3633   -0.6643 H   0  0  0  0  0  0  0  0  0  0  0  0
    1.3149    0.3041    1.6171 H   0  0  0  0  0  0  0  0  0  0  0  0
   -0.6244    0.2014    1.6954 H   0  0  0  0  0  0  0  0  0  0  0  0
    0.4334    1.8325    1.6261 H   0  0  0  0  0  0  0  0  0  0  0  0
  1  2  1  0
  1  3  1  0
  1 16  1  0
  4  5  1  0
  4  8  1  0
  4  9  1  0
  4 10  1  0
  5  6  1  0
  5 11  1  0
  5 12  1  0
  6  7  1  0
  6 13  1  0
  6 14  1  0
  7 15  1  0
  7 17  1  0
M  RAD  1   7   2
M  END
>  <reaction>  (14) 
rxn_94

>  <mol_properties>  (14) 
{"0": {"label": "*3", "atom_type": "N3s"}, "1": {"label": "*4", "atom_type": "H0"}, "5": {"label": "*0", "atom_type": "Cs"}, "6": {"label": "*1", "atom_type": "Cs"}, "15": {"label": "*2", "atom_type": "H0"}}

>  <type>  (14) 
unop_10

>  <geom_source>  (14) 
Heuristics

$$$$

     RDKit          3D

 17 15  0  0  0  0  0  0  0  0999 V2000
   -1.5778   -0.3814    2.1258 N   0  0  0  0  0  0  0  0  0  0  0  0
   -1.8076    0.0427    3.0146 H   0  0  0  0  0  0  0  0  0  0  0  0
   -2.5453   -0.6079    1.9378 H   0  0  0  0  0  0  0  0  0  0  0  0
    0.4590   -0.5976   -2.4212 C   0  0  0  0  0  0  0  0  0  0  0  0
    0.4590   -0.5976   -0.8985 C   0  0  0  0  0  0  0  0  0  0  0  0
    0.4590    0.8047   -0.3012 C   0  0  0  0  0  0  0  0  0  0  0  0
    0.4590    0.8047    1.2215 C   0  0  0  0  0  3  0  0  0  0  0  0
    1.3405   -0.0843   -2.8126 H   0  0  0  0  0  0  0  0  0  0  0  0
   -0.4225   -0.0843   -2.8126 H   0  0  0  0  0  0  0  0  0  0  0  0
    0.4590   -1.6127   -2.8216 H   0  0  0  0  0  0  0  0  0  0  0  0
   -0.4160   -1.1435   -0.5312 H   0  0  0  0  0  0  0  0  0  0  0  0
    1.3341   -1.1435   -0.5312 H   0  0  0  0  0  0  0  0  0  0  0  0
   -0.4160    1.3506   -0.6685 H   0  0  0  0  0  0  0  0  0  0  0  0
    1.3341    1.3506   -0.6685 H   0  0  0  0  0  0  0  0  0  0  0  0
    1.3405    0.2914    1.6129 H   0  0  0  0  0  0  0  0  0  0  0  0
   -0.5988    0.1887    1.6912 H   0  0  0  0  0  0  0  0  0  0  0  0
    0.4590    1.8198    1.6219 H   0  0  0  0  0  0  0  0  0  0  0  0
  1  2  1  0
  1  3  1  0
  1 16  1  0
  4  5  1  0
  4  8  1  0
  4  9  1  0
  4 10  1  0
  5  6  1  0
  5 11  1  0
  5 12  1  0
  6  7  1  0
  6 13  1  0
  6 14  1  0
  7 15  1  0
  7 17  1  0
M  RAD  1   7   2
M  END
>  <reaction>  (15) 
rxn_94

>  <mol_properties>  (15) 
{"0": {"label": "*3", "atom_type": "N3s"}, "1": {"label": "*4", "atom_type": "H0"}, "5": {"label": "*0", "atom_type": "Cs"}, "6": {"label": "*1", "atom_type": "Cs"}, "15": {"label": "*2", "atom_type": "H0"}}

>  <type>  (15) 
unop_11

>  <geom_source>  (15) 
Heuristics

$$$$

     RDKit          3D

 17 15  0  0  0  0  0  0  0  0999 V2000
   -1.5952   -0.3656    2.1397 N   0  0  0  0  0  0  0  0  0  0  0  0
   -2.1393   -0.6825    1.3484 H   0  0  0  0  0  0  0  0  0  0  0  0
   -0.9745   -1.0113    2.6093 H   0  0  0  0  0  0  0  0  0  0  0  0
    0.4417   -0.5819   -2.4073 C   0  0  0  0  0  0  0  0  0  0  0  0
    0.4417   -0.5819   -0.8846 C   0  0  0  0  0  0  0  0  0  0  0  0
    0.4417    0.8205   -0.2873 C   0  0  0  0  0  0  0  0  0  0  0  0
    0.4417    0.8205    1.2354 C   0  0  0  0  0  3  0  0  0  0  0  0
    1.3232   -0.0685   -2.7987 H   0  0  0  0  0  0  0  0  0  0  0  0
   -0.4398   -0.0685   -2.7987 H   0  0  0  0  0  0  0  0  0  0  0  0
    0.4417   -1.5970   -2.8077 H   0  0  0  0  0  0  0  0  0  0  0  0
   -0.4333   -1.1277   -0.5173 H   0  0  0  0  0  0  0  0  0  0  0  0
    1.3167   -1.1277   -0.5173 H   0  0  0  0  0  0  0  0  0  0  0  0
   -0.4333    1.3664   -0.6546 H   0  0  0  0  0  0  0  0  0  0  0  0
    1.3167    1.3664   -0.6546 H   0  0  0  0  0  0  0  0  0  0  0  0
    1.3232    0.3072    1.6268 H   0  0  0  0  0  0  0  0  0  0  0  0
   -0.6161    0.2045    1.7051 H   0  0  0  0  0  0  0  0  0  0  0  0
    0.4417    1.8356    1.6358 H   0  0  0  0  0  0  0  0  0  0  0  0
  1  2  1  0
  1  3  1  0
  1 16  1  0
  4  5  1  0
  4  8  1  0
  4  9  1  0
  4 10  1  0
  5  6  1  0
  5 11  1  0
  5 12  1  0
  6  7  1  0
  6 13  1  0
  6 14  1  0
  7 15  1  0
  7 17  1  0
M  RAD  1   7   2
M  END
>  <reaction>  (16) 
rxn_94

>  <mol_properties>  (16) 
{"0": {"label": "*3", "atom_type": "N3s"}, "1": {"label": "*4", "atom_type": "H0"}, "5": {"label": "*0", "atom_type": "Cs"}, "6": {"label": "*1", "atom_type": "Cs"}, "15": {"label": "*2", "atom_type": "H0"}}

>  <type>  (16) 
unop_12

>  <geom_source>  (16) 
Heuristics

$$$$
