
     RDKit          3D

  9  8  0  0  0  0  0  0  0  0999 V2000
    1.1303   -0.2933   -0.7510 C   0  0  0  0  0  0  0  0  0  0  0  0
    0.2866    0.4560   -0.0588 C   0  0  0  0  0  0  0  0  0  0  0  0
   -0.9719   -0.0331    0.5823 C   0  0  0  0  0  0  0  0  0  0  0  0
    2.0274    0.1230   -1.1916 H   0  0  0  0  0  0  0  0  0  0  0  0
    0.9532   -1.3530   -0.9023 H   0  0  0  0  0  0  0  0  0  0  0  0
    0.5065    1.5132    0.0659 H   0  0  0  0  0  0  0  0  0  0  0  0
   -0.9526    0.1426    1.6610 H   0  0  0  0  0  0  0  0  0  0  0  0
   -1.1182   -1.1002    0.4106 H   0  0  0  0  0  0  0  0  0  0  0  0
   -1.8412    0.5010    0.1901 H   0  0  0  0  0  0  0  0  0  0  0  0
  1  2  2  3
  1  4  1  0
  1  5  1  0
  2  3  1  0
  2  6  1  0
  3  7  1  0
  3  8  1  0
  3  9  1  0
M  END
>  <reaction>  (1) 
rxn_1632

>  <mol_properties>  (1) 
{"1": {"label": "donator", "atom_type": "Cd"}, "5": {"label": "d_hydrogen", "atom_type": "H0"}}

>  <type>  (1) 
r1h

$$$$

     RDKit          3D

  9  8  0  0  0  0  0  0  0  0999 V2000
    2.3991   -0.1292   -0.2384 S   0  0  0  0  0  0  0  0  0  0  0  0
    0.7460    0.2807    0.0931 C   0  0  0  0  0  3  0  0  0  0  0  0
   -0.3131   -0.5719   -0.2043 C   0  0  0  0  0  0  0  0  0  0  0  0
   -0.2286   -1.8095   -0.7775 C   0  0  0  0  0  0  0  0  0  0  0  0
    2.9373    1.0009    0.2312 H   0  0  0  0  0  0  0  0  0  0  0  0
    0.5618    1.2421    0.5487 H   0  0  0  0  0  0  0  0  0  0  0  0
   -1.2978   -0.1954    0.0537 H   0  0  0  0  0  0  0  0  0  0  0  0
    0.7207   -2.2479   -1.0607 H   0  0  0  0  0  0  0  0  0  0  0  0
   -1.1177   -2.3938   -0.9670 H   0  0  0  0  0  0  0  0  0  0  0  0
  1  2  1  0
  1  5  1  0
  2  3  1  0
  2  6  1  0
  3  4  2  3
  3  7  1  0
  4  8  1  0
  4  9  1  0
M  RAD  1   2   2
M  END
>  <reaction>  (2) 
rxn_1632

>  <mol_properties>  (2) 
{"1": {"label": "acceptor", "atom_type": "Cs"}}

>  <type>  (2) 
r2

$$$$

     RDKit          3D

 10  9  0  0  0  0  0  0  0  0999 V2000
    2.2097   -0.5315    0.2575 S   0  0  0  0  0  0  0  0  0  0  0  0
    0.5401   -0.7188   -0.4494 C   0  0  0  0  0  0  0  0  0  0  0  0
   -0.5263   -0.1678    0.4365 C   0  0  0  0  0  0  0  0  0  0  0  0
   -1.3394    0.8185    0.0912 C   0  0  0  0  0  0  0  0  0  0  0  0
    2.1701    0.8016    0.3806 H   0  0  0  0  0  0  0  0  0  0  0  0
    0.4238   -1.7978   -0.5701 H   0  0  0  0  0  0  0  0  0  0  0  0
    0.5053   -0.2663   -1.4400 H   0  0  0  0  0  0  0  0  0  0  0  0
   -0.6005   -0.6141    1.4236 H   0  0  0  0  0  0  0  0  0  0  0  0
   -2.0960    1.1907    0.7700 H   0  0  0  0  0  0  0  0  0  0  0  0
   -1.2784    1.2877   -0.8850 H   0  0  0  0  0  0  0  0  0  0  0  0
  1  2  1  0
  1  5  1  0
  2  3  1  0
  2  6  1  0
  2  7  1  0
  3  4  2  3
  3  8  1  0
  4  9  1  0
  4 10  1  0
M  END
>  <reaction>  (3) 
rxn_1632

>  <mol_properties>  (3) 
{"1": {"label": "acceptor", "atom_type": "Cs"}, "9": {"label": "a_hydrogen", "atom_type": "H0"}}

>  <type>  (3) 
r2h

$$$$

     RDKit          3D

 18 16  0  0  0  0  0  0  0  0999 V2000
   -0.5767   -1.7066   -1.0214 S   0  0  0  0  0  0  0  0  0  0  0  0
    0.1066   -0.7381    0.3310 C   0  0  0  0  0  0  0  0  0  0  0  0
   -0.7232   -0.6167    1.5370 C   0  0  0  0  0  0  0  0  0  0  0  0
   -0.2433   -0.6069    2.7777 C   0  0  0  0  0  0  0  0  0  0  0  0
   -0.6137   -2.8879   -0.3863 H   0  0  0  0  0  0  0  0  0  0  0  0
    1.1470   -0.9846    0.5375 H   0  0  0  0  0  0  0  0  0  0  0  0
   -1.7905   -0.5028    1.3704 H   0  0  0  0  0  0  0  0  0  0  0  0
    0.8157   -0.7296    2.9764 H   0  0  0  0  0  0  0  0  0  0  0  0
   -0.8950   -0.4814    3.6326 H   0  0  0  0  0  0  0  0  0  0  0  0
    0.9961    1.7819   -1.8736 C   0  0  0  0  0  0  0  0  0  0  0  0
    0.3024    1.7237   -0.7624 C   0  0  0  0  0  3  0  0  0  0  0  0
   -0.4045    2.7274    0.0591 C   0  0  0  0  0  0  0  0  0  0  0  0
    1.4356    0.8962   -2.3191 H   0  0  0  0  0  0  0  0  0  0  0  0
    1.1519    2.7253   -2.3953 H   0  0  0  0  0  0  0  0  0  0  0  0
    0.1846    0.4108   -0.1934 H   0  0  0  0  0  0  0  0  0  0  0  0
   -1.4705    2.4967    0.1197 H   0  0  0  0  0  0  0  0  0  0  0  0
   -0.2917    3.7301   -0.3651 H   0  0  0  0  0  0  0  0  0  0  0  0
   -0.0173    2.7363    1.0803 H   0  0  0  0  0  0  0  0  0  0  0  0
  1  2  1  0
  1  5  1  0
  2  3  1  0
  2  6  1  0
  2 15  1  0
  3  4  2  3
  3  7  1  0
  4  8  1  0
  4  9  1  0
 10 11  2  3
 10 13  1  0
 10 14  1  0
 11 12  1  0
 12 16  1  0
 12 17  1  0
 12 18  1  0
M  RAD  1  11   2
M  END
>  <reaction>  (4) 
rxn_1632

>  <mol_properties>  (4) 
{"0": {"label": "*0", "atom_type": "S2s"}, "1": {"label": "*1", "atom_type": "Cs"}, "9": {"label": "*4", "atom_type": "Cd"}, "10": {"label": "*3", "atom_type": "Cd"}, "14": {"label": "*2", "atom_type": "H0"}}

>  <type>  (4) 
ts

$$$$

     RDKit          3D

 18 16  0  0  0  0  0  0  0  0999 V2000
    1.3622   -0.5748    1.2126 S   0  0  0  0  0  0  0  0  0  0  0  0
   -0.1694   -0.6142    0.2253 C   0  0  0  0  0  3  0  0  0  0  0  0
   -0.6506   -2.0018   -0.0373 C   0  0  0  0  0  0  0  0  0  0  0  0
   -1.8231   -2.4674    0.3650 C   0  0  0  0  0  0  0  0  0  0  0  0
    0.8769   -1.2442    2.2663 H   0  0  0  0  0  0  0  0  0  0  0  0
   -0.9379   -0.0136    0.7110 H   0  0  0  0  0  0  0  0  0  0  0  0
    0.0348   -2.6472   -0.5781 H   0  0  0  0  0  0  0  0  0  0  0  0
   -2.5209   -1.8457    0.9158 H   0  0  0  0  0  0  0  0  0  0  0  0
   -2.1284   -3.4847    0.1565 H   0  0  0  0  0  0  0  0  0  0  0  0
   -0.1694    1.6772   -2.3578 C   0  0  0  0  0  0  0  0  0  0  0  0
   -0.1694    1.6772   -1.0340 C   0  0  0  0  0  0  0  0  0  0  0  0
   -0.1694    2.8994   -0.1735 C   0  0  0  0  0  0  0  0  0  0  0  0
   -0.1694    0.7545   -2.9243 H   0  0  0  0  0  0  0  0  0  0  0  0
   -0.1694    2.6028   -2.9238 H   0  0  0  0  0  0  0  0  0  0  0  0
   -0.1694    0.5341   -0.4058 H   0  0  0  0  0  0  0  0  0  0  0  0
   -1.0471    2.9165    0.4777 H   0  0  0  0  0  0  0  0  0  0  0  0
   -0.1694    3.8098   -0.7741 H   0  0  0  0  0  0  0  0  0  0  0  0
    0.7083    2.9165    0.4777 H   0  0  0  0  0  0  0  0  0  0  0  0
  1  2  1  0
  1  5  1  0
  2  3  1  0
  2  6  1  0
  3  4  2  3
  3  7  1  0
  4  8  1  0
  4  9  1  0
 10 11  2  3
 10 13  1  0
 10 14  1  0
 11 12  1  0
 11 15  1  0
 12 16  1  0
 12 17  1  0
 12 18  1  0
M  RAD  1   2   2
M  END
>  <reaction>  (5) 
rxn_1632

>  <mol_properties>  (5) 
{"0": {"label": "*0", "atom_type": "S2s"}, "1": {"label": "*1", "atom_type": "Cs"}, "9": {"label": "*4", "atom_type": "Cd"}, "10": {"label": "*3", "atom_type": "Cd"}, "14": {"label": "*2", "atom_type": "H0"}}

>  <type>  (5) 
unop_1

>  <geom_source>  (5) 
Heuristics

$$$$

     RDKit          3D

 18 16  0  0  0  0  0  0  0  0999 V2000
    0.9279   -1.6179   -0.6245 S   0  0  0  0  0  0  0  0  0  0  0  0
    0.0436   -0.4937    0.5054 C   0  0  0  0  0  3  0  0  0  0  0  0
   -1.1477   -1.1315    1.1377 C   0  0  0  0  0  0  0  0  0  0  0  0
   -1.2930   -1.2976    2.4432 C   0  0  0  0  0  0  0  0  0  0  0  0
    1.1763   -2.5731    0.2808 H   0  0  0  0  0  0  0  0  0  0  0  0
    0.7321   -0.1080    1.2567 H   0  0  0  0  0  0  0  0  0  0  0  0
   -1.9146   -1.4851    0.4553 H   0  0  0  0  0  0  0  0  0  0  0  0
   -0.5365   -0.9625    3.1448 H   0  0  0  0  0  0  0  0  0  0  0  0
   -2.1734   -1.7719    2.8576 H   0  0  0  0  0  0  0  0  0  0  0  0
    0.0436    1.7977   -2.0776 C   0  0  0  0  0  0  0  0  0  0  0  0
    0.0436    1.7977   -0.7539 C   0  0  0  0  0  0  0  0  0  0  0  0
    0.0436    3.0199    0.1066 C   0  0  0  0  0  0  0  0  0  0  0  0
    0.0436    0.8750   -2.6441 H   0  0  0  0  0  0  0  0  0  0  0  0
    0.0436    2.7233   -2.6437 H   0  0  0  0  0  0  0  0  0  0  0  0
    0.0436    0.6546   -0.1257 H   0  0  0  0  0  0  0  0  0  0  0  0
   -0.8341    3.0370    0.7578 H   0  0  0  0  0  0  0  0  0  0  0  0
    0.0436    3.9304   -0.4940 H   0  0  0  0  0  0  0  0  0  0  0  0
    0.9213    3.0370    0.7578 H   0  0  0  0  0  0  0  0  0  0  0  0
  1  2  1  0
  1  5  1  0
  2  3  1  0
  2  6  1  0
  3  4  2  3
  3  7  1  0
  4  8  1  0
  4  9  1  0
 10 11  2  3
 10 13  1  0
 10 14  1  0
 11 12  1  0
 11 15  1  0
 12 16  1  0
 12 17  1  0
 12 18  1  0
M  RAD  1   2   2
M  END
>  <reaction>  (6) 
rxn_1632

>  <mol_properties>  (6) 
{"0": {"label": "*0", "atom_type": "S2s"}, "1": {"label": "*1", "atom_type": "Cs"}, "9": {"label": "*4", "atom_type": "Cd"}, "10": {"label": "*3", "atom_type": "Cd"}, "14": {"label": "*2", "atom_type": "H0"}}

>  <type>  (6) 
unop_2

>  <geom_source>  (6) 
Heuristics

$$$$

     RDKit          3D

 18 16  0  0  0  0  0  0  0  0999 V2000
    0.6954   -0.2936    1.7539 S   0  0  0  0  0  0  0  0  0  0  0  0
   -0.1889   -0.6448    0.1992 C   0  0  0  0  0  3  0  0  0  0  0  0
    0.0737   -2.0202   -0.3155 C   0  0  0  0  0  0  0  0  0  0  0  0
   -0.8646   -2.9388   -0.4857 C   0  0  0  0  0  0  0  0  0  0  0  0
    0.1648   -1.3022    2.4576 H   0  0  0  0  0  0  0  0  0  0  0  0
   -1.2558   -0.4688    0.3330 H   0  0  0  0  0  0  0  0  0  0  0  0
    1.1107   -2.2538   -0.5371 H   0  0  0  0  0  0  0  0  0  0  0  0
   -1.9059   -2.7334   -0.2616 H   0  0  0  0  0  0  0  0  0  0  0  0
   -0.6265   -3.9274   -0.8568 H   0  0  0  0  0  0  0  0  0  0  0  0
   -0.1889    1.6467   -2.3838 C   0  0  0  0  0  0  0  0  0  0  0  0
   -0.1889    1.6467   -1.0600 C   0  0  0  0  0  0  0  0  0  0  0  0
   -0.1889    2.8689   -0.1995 C   0  0  0  0  0  0  0  0  0  0  0  0
   -0.1889    0.7239   -2.9503 H   0  0  0  0  0  0  0  0  0  0  0  0
   -0.1889    2.5723   -2.9498 H   0  0  0  0  0  0  0  0  0  0  0  0
   -0.1889    0.5035   -0.4318 H   0  0  0  0  0  0  0  0  0  0  0  0
   -1.0666    2.8860    0.4517 H   0  0  0  0  0  0  0  0  0  0  0  0
   -0.1889    3.7793   -0.8001 H   0  0  0  0  0  0  0  0  0  0  0  0
    0.6888    2.8860    0.4517 H   0  0  0  0  0  0  0  0  0  0  0  0
  1  2  1  0
  1  5  1  0
  2  3  1  0
  2  6  1  0
  3  4  2  3
  3  7  1  0
  4  8  1  0
  4  9  1  0
 10 11  2  3
 10 13  1  0
 10 14  1  0
 11 12  1  0
 11 15  1  0
 12 16  1  0
 12 17  1  0
 12 18  1  0
M  RAD  1   2   2
M  END
>  <reaction>  (7) 
rxn_1632

>  <mol_properties>  (7) 
{"0": {"label": "*0", "atom_type": "S2s"}, "1": {"label": "*1", "atom_type": "Cs"}, "9": {"label": "*4", "atom_type": "Cd"}, "10": {"label": "*3", "atom_type": "Cd"}, "14": {"label": "*2", "atom_type": "H0"}}

>  <type>  (7) 
unop_3

>  <geom_source>  (7) 
Heuristics

$$$$

     RDKit          3D

 18 16  0  0  0  0  0  0  0  0999 V2000
   -1.1182   -1.7486   -0.3364 S   0  0  0  0  0  0  0  0  0  0  0  0
    0.4134   -0.9362    0.2262 C   0  0  0  0  0  3  0  0  0  0  0  0
    0.2010   -0.0706    1.4226 C   0  0  0  0  0  0  0  0  0  0  0  0
    0.7983   -0.2602    2.5890 C   0  0  0  0  0  0  0  0  0  0  0  0
   -1.3823   -2.3808    0.8145 H   0  0  0  0  0  0  0  0  0  0  0  0
    1.1828   -1.6854    0.4107 H   0  0  0  0  0  0  0  0  0  0  0  0
   -0.5059    0.7442    1.2991 H   0  0  0  0  0  0  0  0  0  0  0  0
    1.5004   -1.0731    2.7407 H   0  0  0  0  0  0  0  0  0  0  0  0
    0.6089    0.3908    3.4328 H   0  0  0  0  0  0  0  0  0  0  0  0
    0.4134    1.3552   -2.3568 C   0  0  0  0  0  0  0  0  0  0  0  0
    0.4134    1.3552   -1.0331 C   0  0  0  0  0  0  0  0  0  0  0  0
    0.4134    2.5774   -0.1726 C   0  0  0  0  0  0  0  0  0  0  0  0
    0.4134    0.4325   -2.9233 H   0  0  0  0  0  0  0  0  0  0  0  0
    0.4134    2.2808   -2.9228 H   0  0  0  0  0  0  0  0  0  0  0  0
    0.4134    0.2121   -0.4049 H   0  0  0  0  0  0  0  0  0  0  0  0
   -0.4643    2.5945    0.4786 H   0  0  0  0  0  0  0  0  0  0  0  0
    0.4134    3.4878   -0.7732 H   0  0  0  0  0  0  0  0  0  0  0  0
    1.2911    2.5945    0.4787 H   0  0  0  0  0  0  0  0  0  0  0  0
  1  2  1  0
  1  5  1  0
  2  3  1  0
  2  6  1  0
  3  4  2  3
  3  7  1  0
  4  8  1  0
  4  9  1  0
 10 11  2  3
 10 13  1  0
 10 14  1  0
 11 12  1  0
 11 15  1  0
 12 16  1  0
 12 17  1  0
 12 18  1  0
M  RAD  1   2   2
M  END
>  <reaction>  (8) 
rxn_1632

>  <mol_properties>  (8) 
{"0": {"label": "*0", "atom_type": "S2s"}, "1": {"label": "*1", "atom_type": "Cs"}, "9": {"label": "*4", "atom_type": "Cd"}, "10": {"label": "*3", "atom_type": "Cd"}, "14": {"label": "*2", "atom_type": "H0"}}

>  <type>  (8) 
unop_4

>  <geom_source>  (8) 
Heuristics

$$$$

     RDKit          3D

 18 16  0  0  0  0  0  0  0  0999 V2000
   -0.2718   -0.3016    1.9127 S   0  0  0  0  0  0  0  0  0  0  0  0
   -0.2718   -0.7670    0.1503 C   0  0  0  0  0  3  0  0  0  0  0  0
    0.9194   -1.5801   -0.2313 C   0  0  0  0  0  0  0  0  0  0  0  0
    0.8519   -2.8129   -0.7099 C   0  0  0  0  0  0  0  0  0  0  0  0
   -0.2255   -1.5500    2.3958 H   0  0  0  0  0  0  0  0  0  0  0  0
   -1.1992   -1.2832   -0.0957 H   0  0  0  0  0  0  0  0  0  0  0  0
    1.8850   -1.1080   -0.0777 H   0  0  0  0  0  0  0  0  0  0  0  0
   -0.1001   -3.3101   -0.8625 H   0  0  0  0  0  0  0  0  0  0  0  0
    1.7444   -3.3681   -0.9682 H   0  0  0  0  0  0  0  0  0  0  0  0
   -0.2718    1.5245   -2.4327 C   0  0  0  0  0  0  0  0  0  0  0  0
   -0.2718    1.5245   -1.1090 C   0  0  0  0  0  0  0  0  0  0  0  0
   -0.2718    2.7467   -0.2485 C   0  0  0  0  0  0  0  0  0  0  0  0
   -0.2718    0.6018   -2.9992 H   0  0  0  0  0  0  0  0  0  0  0  0
   -0.2718    2.4501   -2.9987 H   0  0  0  0  0  0  0  0  0  0  0  0
   -0.2718    0.3814   -0.4807 H   0  0  0  0  0  0  0  0  0  0  0  0
   -1.1495    2.7638    0.4028 H   0  0  0  0  0  0  0  0  0  0  0  0
   -0.2718    3.6571   -0.8491 H   0  0  0  0  0  0  0  0  0  0  0  0
    0.6060    2.7638    0.4028 H   0  0  0  0  0  0  0  0  0  0  0  0
  1  2  1  0
  1  5  1  0
  2  3  1  0
  2  6  1  0
  3  4  2  3
  3  7  1  0
  4  8  1  0
  4  9  1  0
 10 11  2  3
 10 13  1  0
 10 14  1  0
 11 12  1  0
 11 15  1  0
 12 16  1  0
 12 17  1  0
 12 18  1  0
M  RAD  1   2   2
M  END
>  <reaction>  (9) 
rxn_1632

>  <mol_properties>  (9) 
{"0": {"label": "*0", "atom_type": "S2s"}, "1": {"label": "*1", "atom_type": "Cs"}, "9": {"label": "*4", "atom_type": "Cd"}, "10": {"label": "*3", "atom_type": "Cd"}, "14": {"label": "*2", "atom_type": "H0"}}

>  <type>  (9) 
unop_5

>  <geom_source>  (9) 
Heuristics

$$$$

     RDKit          3D

 18 16  0  0  0  0  0  0  0  0999 V2000
   -1.5089   -1.4510    0.2941 S   0  0  0  0  0  0  0  0  0  0  0  0
    0.2597   -1.0646    0.0817 C   0  0  0  0  0  3  0  0  0  0  0  0
    0.7720   -0.1205    1.1170 C   0  0  0  0  0  0  0  0  0  0  0  0
    1.7399   -0.4132    1.9720 C   0  0  0  0  0  0  0  0  0  0  0  0
   -1.4068   -1.9338    1.5392 H   0  0  0  0  0  0  0  0  0  0  0  0
    0.8401   -1.9866    0.0644 H   0  0  0  0  0  0  0  0  0  0  0  0
    0.2872    0.8503    1.1553 H   0  0  0  0  0  0  0  0  0  0  0  0
    2.2326   -1.3795    1.9609 H   0  0  0  0  0  0  0  0  0  0  0  0
    2.0757    0.3024    2.7114 H   0  0  0  0  0  0  0  0  0  0  0  0
    0.2597    1.2269   -2.5013 C   0  0  0  0  0  0  0  0  0  0  0  0
    0.2597    1.2269   -1.1776 C   0  0  0  0  0  0  0  0  0  0  0  0
    0.2597    2.4491   -0.3171 C   0  0  0  0  0  0  0  0  0  0  0  0
    0.2597    0.3042   -3.0678 H   0  0  0  0  0  0  0  0  0  0  0  0
    0.2597    2.1525   -3.0673 H   0  0  0  0  0  0  0  0  0  0  0  0
    0.2597    0.0837   -0.5494 H   0  0  0  0  0  0  0  0  0  0  0  0
   -0.6180    2.4662    0.3341 H   0  0  0  0  0  0  0  0  0  0  0  0
    0.2597    3.3595   -0.9177 H   0  0  0  0  0  0  0  0  0  0  0  0
    1.1375    2.4662    0.3341 H   0  0  0  0  0  0  0  0  0  0  0  0
  1  2  1  0
  1  5  1  0
  2  3  1  0
  2  6  1  0
  3  4  2  3
  3  7  1  0
  4  8  1  0
  4  9  1  0
 10 11  2  3
 10 13  1  0
 10 14  1  0
 11 12  1  0
 11 15  1  0
 12 16  1  0
 12 17  1  0
 12 18  1  0
M  RAD  1   2   2
M  END
>  <reaction>  (10) 
rxn_1632

>  <mol_properties>  (10) 
{"0": {"label": "*0", "atom_type": "S2s"}, "1": {"label": "*1", "atom_type": "Cs"}, "9": {"label": "*4", "atom_type": "Cd"}, "10": {"label": "*3", "atom_type": "Cd"}, "14": {"label": "*2", "atom_type": "H0"}}

>  <type>  (10) 
unop_6

>  <geom_source>  (10) 
Heuristics

$$$$

     RDKit          3D

 18 16  0  0  0  0  0  0  0  0999 V2000
   -1.5109   -1.0529    1.0012 S   0  0  0  0  0  0  0  0  0  0  0  0
    0.0208   -1.0924    0.0138 C   0  0  0  0  0  3  0  0  0  0  0  0
    1.1534   -0.3842    0.6781 C   0  0  0  0  0  0  0  0  0  0  0  0
    2.2890   -0.9686    1.0278 C   0  0  0  0  0  0  0  0  0  0  0  0
   -1.0002   -1.6410    2.0908 H   0  0  0  0  0  0  0  0  0  0  0  0
    0.2820   -2.1235   -0.2221 H   0  0  0  0  0  0  0  0  0  0  0  0
    0.9961    0.6693    0.8886 H   0  0  0  0  0  0  0  0  0  0  0  0
    2.4662   -2.0218    0.8379 H   0  0  0  0  0  0  0  0  0  0  0  0
    3.0824   -0.4156    1.5139 H   0  0  0  0  0  0  0  0  0  0  0  0
    0.0208    1.1991   -2.5692 C   0  0  0  0  0  0  0  0  0  0  0  0
    0.0208    1.1991   -1.2455 C   0  0  0  0  0  0  0  0  0  0  0  0
    0.0208    2.4213   -0.3850 C   0  0  0  0  0  0  0  0  0  0  0  0
    0.0208    0.2764   -3.1357 H   0  0  0  0  0  0  0  0  0  0  0  0
    0.0208    2.1247   -3.1352 H   0  0  0  0  0  0  0  0  0  0  0  0
    0.0208    0.0559   -0.6173 H   0  0  0  0  0  0  0  0  0  0  0  0
   -0.8569    2.4384    0.2662 H   0  0  0  0  0  0  0  0  0  0  0  0
    0.0208    3.3317   -0.9856 H   0  0  0  0  0  0  0  0  0  0  0  0
    0.8985    2.4384    0.2662 H   0  0  0  0  0  0  0  0  0  0  0  0
  1  2  1  0
  1  5  1  0
  2  3  1  0
  2  6  1  0
  3  4  2  3
  3  7  1  0
  4  8  1  0
  4  9  1  0
 10 11  2  3
 10 13  1  0
 10 14  1  0
 11 12  1  0
 11 15  1  0
 12 16  1  0
 12 17  1  0
 12 18  1  0
M  RAD  1   2   2
M  END
>  <reaction>  (11) 
rxn_1632

>  <mol_properties>  (11) 
{"0": {"label": "*0", "atom_type": "S2s"}, "1": {"label": "*1", "atom_type": "Cs"}, "9": {"label": "*4", "atom_type": "Cd"}, "10": {"label": "*3", "atom_type": "Cd"}, "14": {"label": "*2", "atom_type": "H0"}}

>  <type>  (11) 
unop_7

>  <geom_source>  (11) 
Heuristics

$$$$

     RDKit          3D

 18 16  0  0  0  0  0  0  0  0999 V2000
    1.5901   -0.9596    0.5114 S   0  0  0  0  0  0  0  0  0  0  0  0
   -0.1785   -0.5731    0.2991 C   0  0  0  0  0  3  0  0  0  0  0  0
   -1.0470   -1.7832    0.3817 C   0  0  0  0  0  0  0  0  0  0  0  0
   -1.9947   -1.9538    1.2906 C   0  0  0  0  0  0  0  0  0  0  0  0
    1.4743   -1.5259    1.7197 H   0  0  0  0  0  0  0  0  0  0  0  0
   -0.4813    0.1822    1.0236 H   0  0  0  0  0  0  0  0  0  0  0  0
   -0.8511   -2.5588   -0.3525 H   0  0  0  0  0  0  0  0  0  0  0  0
   -2.2027   -1.1985    2.0410 H   0  0  0  0  0  0  0  0  0  0  0  0
   -2.5976   -2.8524    1.3162 H   0  0  0  0  0  0  0  0  0  0  0  0
   -0.1785    1.7184   -2.2840 C   0  0  0  0  0  0  0  0  0  0  0  0
   -0.1785    1.7184   -0.9602 C   0  0  0  0  0  0  0  0  0  0  0  0
   -0.1785    2.9405   -0.0997 C   0  0  0  0  0  0  0  0  0  0  0  0
   -0.1785    0.7956   -2.8505 H   0  0  0  0  0  0  0  0  0  0  0  0
   -0.1785    2.6440   -2.8500 H   0  0  0  0  0  0  0  0  0  0  0  0
   -0.1785    0.5752   -0.3320 H   0  0  0  0  0  0  0  0  0  0  0  0
   -1.0562    2.9577    0.5515 H   0  0  0  0  0  0  0  0  0  0  0  0
   -0.1785    3.8510   -0.7003 H   0  0  0  0  0  0  0  0  0  0  0  0
    0.6993    2.9577    0.5515 H   0  0  0  0  0  0  0  0  0  0  0  0
  1  2  1  0
  1  5  1  0
  2  3  1  0
  2  6  1  0
  3  4  2  3
  3  7  1  0
  4  8  1  0
  4  9  1  0
 10 11  2  3
 10 13  1  0
 10 14  1  0
 11 12  1  0
 11 15  1  0
 12 16  1  0
 12 17  1  0
 12 18  1  0
M  RAD  1   2   2
M  END
>  <reaction>  (12) 
rxn_1632

>  <mol_properties>  (12) 
{"0": {"label": "*0", "atom_type": "S2s"}, "1": {"label": "*1", "atom_type": "Cs"}, "9": {"label": "*4", "atom_type": "Cd"}, "10": {"label": "*3", "atom_type": "Cd"}, "14": {"label": "*2", "atom_type": "H0"}}

>  <type>  (12) 
unop_8

>  <geom_source>  (12) 
Heuristics

$$$$

     RDKit          3D

 18 16  0  0  0  0  0  0  0  0999 V2000
   -0.4609   -1.8722   -0.7370 S   0  0  0  0  0  0  0  0  0  0  0  0
    0.4234   -0.7480    0.3929 C   0  0  0  0  0  3  0  0  0  0  0  0
   -0.4322   -0.2711    1.5182 C   0  0  0  0  0  0  0  0  0  0  0  0
   -0.1708   -0.5004    2.7958 C   0  0  0  0  0  0  0  0  0  0  0  0
   -0.7887   -2.7842    0.1874 H   0  0  0  0  0  0  0  0  0  0  0  0
    1.3287   -1.2303    0.7604 H   0  0  0  0  0  0  0  0  0  0  0  0
   -1.3247    0.2789    1.2354 H   0  0  0  0  0  0  0  0  0  0  0  0
    0.7086   -1.0562    3.1034 H   0  0  0  0  0  0  0  0  0  0  0  0
   -0.8243   -0.1395    3.5796 H   0  0  0  0  0  0  0  0  0  0  0  0
    0.4234    1.5434   -2.1901 C   0  0  0  0  0  0  0  0  0  0  0  0
    0.4234    1.5434   -0.8664 C   0  0  0  0  0  0  0  0  0  0  0  0
    0.4234    2.7656   -0.0059 C   0  0  0  0  0  0  0  0  0  0  0  0
    0.4234    0.6207   -2.7566 H   0  0  0  0  0  0  0  0  0  0  0  0
    0.4234    2.4690   -2.7561 H   0  0  0  0  0  0  0  0  0  0  0  0
    0.4234    0.4003   -0.2381 H   0  0  0  0  0  0  0  0  0  0  0  0
   -0.4544    2.7827    0.6454 H   0  0  0  0  0  0  0  0  0  0  0  0
    0.4234    3.6761   -0.6064 H   0  0  0  0  0  0  0  0  0  0  0  0
    1.3011    2.7827    0.6454 H   0  0  0  0  0  0  0  0  0  0  0  0
  1  2  1  0
  1  5  1  0
  2  3  1  0
  2  6  1  0
  3  4  2  3
  3  7  1  0
  4  8  1  0
  4  9  1  0
 10 11  2  3
 10 13  1  0
 10 14  1  0
 11 12  1  0
 11 15  1  0
 12 16  1  0
 12 17  1  0
 12 18  1  0
M  RAD  1   2   2
M  END
>  <reaction>  (13) 
rxn_1632

>  <mol_properties>  (13) 
{"0": {"label": "*0", "atom_type": "S2s"}, "1": {"label": "*1", "atom_type": "Cs"}, "9": {"label": "*4", "atom_type": "Cd"}, "10": {"label": "*3", "atom_type": "Cd"}, "14": {"label": "*2", "atom_type": "H0"}}

>  <type>  (13) 
unop_9

>  <geom_source>  (13) 
Heuristics

$$$$

     RDKit          3D

 18 16  0  0  0  0  0  0  0  0999 V2000
    1.4091   -1.3287   -0.1507 S   0  0  0  0  0  0  0  0  0  0  0  0
   -0.1225   -0.5164    0.4119 C   0  0  0  0  0  3  0  0  0  0  0  0
   -1.1852   -1.4911    0.7943 C   0  0  0  0  0  0  0  0  0  0  0  0
   -1.7102   -1.5763    2.0070 C   0  0  0  0  0  0  0  0  0  0  0  0
    1.6238   -2.0323    0.9686 H   0  0  0  0  0  0  0  0  0  0  0  0
    0.1009    0.1675    1.2302 H   0  0  0  0  0  0  0  0  0  0  0  0
   -1.5120   -2.1683    0.0110 H   0  0  0  0  0  0  0  0  0  0  0  0
   -1.3932   -0.9184    2.8091 H   0  0  0  0  0  0  0  0  0  0  0  0
   -2.4762   -2.3044    2.2408 H   0  0  0  0  0  0  0  0  0  0  0  0
   -0.1225    1.7751   -2.1711 C   0  0  0  0  0  0  0  0  0  0  0  0
   -0.1225    1.7751   -0.8474 C   0  0  0  0  0  0  0  0  0  0  0  0
   -0.1225    2.9973    0.0131 C   0  0  0  0  0  0  0  0  0  0  0  0
   -0.1225    0.8524   -2.7376 H   0  0  0  0  0  0  0  0  0  0  0  0
   -0.1225    2.7007   -2.7371 H   0  0  0  0  0  0  0  0  0  0  0  0
   -0.1225    0.6319   -0.2192 H   0  0  0  0  0  0  0  0  0  0  0  0
   -1.0002    3.0144    0.6643 H   0  0  0  0  0  0  0  0  0  0  0  0
   -0.1225    3.9077   -0.5875 H   0  0  0  0  0  0  0  0  0  0  0  0
    0.7552    3.0144    0.6643 H   0  0  0  0  0  0  0  0  0  0  0  0
  1  2  1  0
  1  5  1  0
  2  3  1  0
  2  6  1  0
  3  4  2  3
  3  7  1  0
  4  8  1  0
  4  9  1  0
 10 11  2  3
 10 13  1  0
 10 14  1  0
 11 12  1  0
 11 15  1  0
 12 16  1  0
 12 17  1  0
 12 18  1  0
M  RAD  1   2   2
M  END
>  <reaction>  (14) 
rxn_1632

>  <mol_properties>  (14) 
{"0": {"label": "*0", "atom_type": "S2s"}, "1": {"label": "*1", "atom_type": "Cs"}, "9": {"label": "*4", "atom_type": "Cd"}, "10": {"label": "*3", "atom_type": "Cd"}, "14": {"label": "*2", "atom_type": "H0"}}

>  <type>  (14) 
unop_10

>  <geom_source>  (14) 
Heuristics

$$$$

     RDKit          3D

 18 16  0  0  0  0  0  0  0  0999 V2000
   -1.0932   -0.6323    1.6041 S   0  0  0  0  0  0  0  0  0  0  0  0
   -0.2089   -0.9835    0.0495 C   0  0  0  0  0  3  0  0  0  0  0  0
    1.2722   -0.8744    0.1913 C   0  0  0  0  0  0  0  0  0  0  0  0
    2.1117   -1.8772   -0.0162 C   0  0  0  0  0  0  0  0  0  0  0  0
   -0.4950   -1.5833    2.3333 H   0  0  0  0  0  0  0  0  0  0  0  0
   -0.4998   -1.9633   -0.3279 H   0  0  0  0  0  0  0  0  0  0  0  0
    1.6489    0.0954    0.5019 H   0  0  0  0  0  0  0  0  0  0  0  0
    1.7594   -2.8582   -0.3168 H   0  0  0  0  0  0  0  0  0  0  0  0
    3.1802   -1.7534    0.1047 H   0  0  0  0  0  0  0  0  0  0  0  0
   -0.2089    1.3080   -2.5336 C   0  0  0  0  0  0  0  0  0  0  0  0
   -0.2089    1.3080   -1.2098 C   0  0  0  0  0  0  0  0  0  0  0  0
   -0.2089    2.5302   -0.3493 C   0  0  0  0  0  0  0  0  0  0  0  0
   -0.2089    0.3853   -3.1001 H   0  0  0  0  0  0  0  0  0  0  0  0
   -0.2089    2.2336   -3.0996 H   0  0  0  0  0  0  0  0  0  0  0  0
   -0.2089    0.1649   -0.5816 H   0  0  0  0  0  0  0  0  0  0  0  0
   -1.0866    2.5473    0.3019 H   0  0  0  0  0  0  0  0  0  0  0  0
   -0.2089    3.4406   -0.9499 H   0  0  0  0  0  0  0  0  0  0  0  0
    0.6688    2.5473    0.3019 H   0  0  0  0  0  0  0  0  0  0  0  0
  1  2  1  0
  1  5  1  0
  2  3  1  0
  2  6  1  0
  3  4  2  3
  3  7  1  0
  4  8  1  0
  4  9  1  0
 10 11  2  3
 10 13  1  0
 10 14  1  0
 11 12  1  0
 11 15  1  0
 12 16  1  0
 12 17  1  0
 12 18  1  0
M  RAD  1   2   2
M  END
>  <reaction>  (15) 
rxn_1632

>  <mol_properties>  (15) 
{"0": {"label": "*0", "atom_type": "S2s"}, "1": {"label": "*1", "atom_type": "Cs"}, "9": {"label": "*4", "atom_type": "Cd"}, "10": {"label": "*3", "atom_type": "Cd"}, "14": {"label": "*2", "atom_type": "H0"}}

>  <type>  (15) 
unop_11

>  <geom_source>  (15) 
Heuristics

$$$$

     RDKit          3D

 18 16  0  0  0  0  0  0  0  0999 V2000
    0.2718   -1.8097   -0.8316 S   0  0  0  0  0  0  0  0  0  0  0  0
    0.2718   -0.5715    0.5060 C   0  0  0  0  0  3  0  0  0  0  0  0
   -0.9194   -0.6852    1.3970 C   0  0  0  0  0  0  0  0  0  0  0  0
   -0.8519   -0.9421    2.6943 C   0  0  0  0  0  0  0  0  0  0  0  0
    0.2256   -2.8868   -0.0368 H   0  0  0  0  0  0  0  0  0  0  0  0
    1.1992   -0.6406    1.0737 H   0  0  0  0  0  0  0  0  0  0  0  0
   -1.8850   -0.5618    0.9162 H   0  0  0  0  0  0  0  0  0  0  0  0
    0.1001   -1.0798    3.1958 H   0  0  0  0  0  0  0  0  0  0  0  0
   -1.7444   -1.0217    3.3014 H   0  0  0  0  0  0  0  0  0  0  0  0
    0.2718    1.7200   -2.0770 C   0  0  0  0  0  0  0  0  0  0  0  0
    0.2718    1.7200   -0.7532 C   0  0  0  0  0  0  0  0  0  0  0  0
    0.2718    2.9422    0.1073 C   0  0  0  0  0  0  0  0  0  0  0  0
    0.2718    0.7973   -2.6435 H   0  0  0  0  0  0  0  0  0  0  0  0
    0.2718    2.6456   -2.6430 H   0  0  0  0  0  0  0  0  0  0  0  0
    0.2718    0.5768   -0.1250 H   0  0  0  0  0  0  0  0  0  0  0  0
   -0.6060    2.9593    0.7585 H   0  0  0  0  0  0  0  0  0  0  0  0
    0.2718    3.8526   -0.4933 H   0  0  0  0  0  0  0  0  0  0  0  0
    1.1495    2.9593    0.7585 H   0  0  0  0  0  0  0  0  0  0  0  0
  1  2  1  0
  1  5  1  0
  2  3  1  0
  2  6  1  0
  3  4  2  3
  3  7  1  0
  4  8  1  0
  4  9  1  0
 10 11  2  3
 10 13  1  0
 10 14  1  0
 11 12  1  0
 11 15  1  0
 12 16  1  0
 12 17  1  0
 12 18  1  0
M  RAD  1   2   2
M  END
>  <reaction>  (16) 
rxn_1632

>  <mol_properties>  (16) 
{"0": {"label": "*0", "atom_type": "S2s"}, "1": {"label": "*1", "atom_type": "Cs"}, "9": {"label": "*4", "atom_type": "Cd"}, "10": {"label": "*3", "atom_type": "Cd"}, "14": {"label": "*2", "atom_type": "H0"}}

>  <type>  (16) 
unop_12

>  <geom_source>  (16) 
Heuristics

$$$$

     RDKit          3D

 18 16  0  0  0  0  0  0  0  0999 V2000
   -1.2252   -1.9945    1.1995 S   0  0  0  0  0  0  0  0  0  0  0  0
   -0.8403   -0.3076    0.6362 C   0  0  0  0  0  3  0  0  0  0  0  0
    2.5149   -0.7178   -0.1677 C   0  0  0  0  0  0  0  0  0  0  0  0
   -1.9311    0.2172   -0.2488 C   0  0  0  0  0  0  0  0  0  0  0  0
   -3.1476    0.4969    0.2273 C   0  0  0  0  0  0  0  0  0  0  0  0
    1.7005    1.5827   -0.5569 C   0  0  0  0  0  0  0  0  0  0  0  0
    1.4392    0.2787   -0.4598 C   0  0  0  0  0  0  0  0  0  0  0  0
   -0.7107    0.3576    1.5161 H   0  0  0  0  0  0  0  0  0  0  0  0
    0.4038   -0.3373   -0.1074 H   0  0  0  0  0  0  0  0  0  0  0  0
    2.0708   -1.7338   -0.1331 H   0  0  0  0  0  0  0  0  0  0  0  0
    2.9840   -0.4944    0.8137 H   0  0  0  0  0  0  0  0  0  0  0  0
    3.2877   -0.6877   -0.9647 H   0  0  0  0  0  0  0  0  0  0  0  0
   -1.7143    0.3985   -1.2968 H   0  0  0  0  0  0  0  0  0  0  0  0
   -3.9132    0.8879   -0.4349 H   0  0  0  0  0  0  0  0  0  0  0  0
   -3.3869    0.3398    1.2748 H   0  0  0  0  0  0  0  0  0  0  0  0
    2.7096    1.9621   -0.4258 H   0  0  0  0  0  0  0  0  0  0  0  0
    0.8952    2.2768   -0.7699 H   0  0  0  0  0  0  0  0  0  0  0  0
   -1.1366   -2.5249   -0.1018 H   0  0  0  0  0  0  0  0  0  0  0  0
  1  2  1  0
  1 18  1  0
  2  4  1  0
  2  8  1  0
  3  7  1  0
  3 10  1  0
  3 11  1  0
  3 12  1  0
  4  5  2  3
  4 13  1  0
  5 14  1  0
  5 15  1  0
  6  7  2  3
  6 16  1  0
  6 17  1  0
  7  9  1  0
M  RAD  1   2   2
M  END
>  <reaction>  (17) 
rxn_1632

>  <mol_properties>  (17) 
{"0": {"label": "*0", "atom_type": "S2s"}, "1": {"label": "*1", "atom_type": "Cs"}, "9": {"label": "*4", "atom_type": "Cd"}, "10": {"label": "*3", "atom_type": "Cd"}, "14": {"label": "*2", "atom_type": "H0"}}

>  <type>  (17) 
unop_13

>  <geom_source>  (17) 
AutoTST

$$$$
