
     RDKit          3D

 13 12  0  0  0  0  0  0  0  0999 V2000
    3.0977   -0.3549   -0.5105 C   0  0  0  0  0  0  0  0  0  0  0  0
    2.0556    0.4221   -0.2627 C   0  0  0  0  0  0  0  0  0  0  0  0
    0.6313   -0.0354   -0.2366 C   0  0  0  0  0  0  0  0  0  0  0  0
   -0.2567    0.6038   -1.2694 C   0  0  0  0  0  0  0  0  0  0  0  0
    0.1459    1.3456   -2.2891 C   0  0  0  0  0  0  0  0  0  0  0  0
    4.1081    0.0344   -0.5074 H   0  0  0  0  0  0  0  0  0  0  0  0
    2.9777   -1.4116   -0.7243 H   0  0  0  0  0  0  0  0  0  0  0  0
    2.2171    1.4781   -0.0618 H   0  0  0  0  0  0  0  0  0  0  0  0
    0.5865   -1.1233   -0.3540 H   0  0  0  0  0  0  0  0  0  0  0  0
    0.2065    0.1743    0.7521 H   0  0  0  0  0  0  0  0  0  0  0  0
   -1.3190    0.4126   -1.1445 H   0  0  0  0  0  0  0  0  0  0  0  0
    1.1948    1.5564   -2.4628 H   0  0  0  0  0  0  0  0  0  0  0  0
   -0.5644    1.7621   -2.9918 H   0  0  0  0  0  0  0  0  0  0  0  0
  1  2  2  3
  1  6  1  0
  1  7  1  0
  2  3  1  0
  2  8  1  0
  3  4  1  0
  3  9  1  0
  3 10  1  0
  4  5  2  3
  4 11  1  0
  5 12  1  0
  5 13  1  0
M  END
>  <reaction>  (1) 
rxn_1152

>  <mol_properties>  (1) 
{"2": {"label": "donator", "atom_type": "Cs"}, "8": {"label": "d_hydrogen", "atom_type": "H0"}}

>  <type>  (1) 
r1h

$$$$

     RDKit          3D

 12 11  0  0  0  0  0  0  0  0999 V2000
    2.7049    0.9350   -0.4404 S   0  0  0  0  0  1  0  0  0  0  0  0
    1.0313    1.0813   -0.4080 C   0  0  0  0  0  0  0  0  0  0  0  0
    0.1364    0.1019   -0.0473 C   0  0  0  0  0  0  0  0  0  0  0  0
    0.5360   -1.2679    0.3784 C   0  0  0  0  0  0  0  0  0  0  0  0
   -1.3304    0.3842   -0.0689 C   0  0  0  0  0  0  0  0  0  0  0  0
    0.6069    2.0398   -0.6990 H   0  0  0  0  0  0  0  0  0  0  0  0
    0.1578   -1.4699    1.3849 H   0  0  0  0  0  0  0  0  0  0  0  0
    0.0783   -2.0109   -0.2814 H   0  0  0  0  0  0  0  0  0  0  0  0
    1.6154   -1.3973    0.3689 H   0  0  0  0  0  0  0  0  0  0  0  0
   -1.8406   -0.3126   -0.7406 H   0  0  0  0  0  0  0  0  0  0  0  0
   -1.5514    1.4016   -0.3887 H   0  0  0  0  0  0  0  0  0  0  0  0
   -1.7610    0.2281    0.9247 H   0  0  0  0  0  0  0  0  0  0  0  0
  1  2  1  0
  2  3  2  3
  2  6  1  0
  3  4  1  0
  3  5  1  0
  4  7  1  0
  4  8  1  0
  4  9  1  0
  5 10  1  0
  5 11  1  0
  5 12  1  0
M  RAD  1   1   2
M  END
>  <reaction>  (2) 
rxn_1152

>  <mol_properties>  (2) 
{"2": {"label": "acceptor", "atom_type": "Cs"}}

>  <type>  (2) 
r2

$$$$

     RDKit          3D

 13 12  0  0  0  0  0  0  0  0999 V2000
    2.7452   -1.1134   -0.3601 S   0  0  0  0  0  0  0  0  0  0  0  0
    1.4120   -0.4899    0.2856 C   0  0  0  0  0  0  0  0  0  0  0  0
    0.1714   -0.0257   -0.4180 C   0  0  0  0  0  0  0  0  0  0  0  0
   -0.0717    1.4493   -0.0658 C   0  0  0  0  0  0  0  0  0  0  0  0
    0.1609   -0.2576   -1.9191 C   0  0  0  0  0  0  0  0  0  0  0  0
    1.3665   -0.3550    1.3690 H   0  0  0  0  0  0  0  0  0  0  0  0
   -0.6453   -0.6023    0.0382 H   0  0  0  0  0  0  0  0  0  0  0  0
    0.7161    2.0755   -0.4895 H   0  0  0  0  0  0  0  0  0  0  0  0
   -0.0915    1.6095    1.0136 H   0  0  0  0  0  0  0  0  0  0  0  0
   -1.0268    1.7797   -0.4755 H   0  0  0  0  0  0  0  0  0  0  0  0
    0.3131   -1.3093   -2.1616 H   0  0  0  0  0  0  0  0  0  0  0  0
    0.9567    0.3095   -2.4051 H   0  0  0  0  0  0  0  0  0  0  0  0
   -0.7945    0.0619   -2.3384 H   0  0  0  0  0  0  0  0  0  0  0  0
  1  2  2  0
  2  3  1  0
  2  6  1  0
  3  4  1  0
  3  5  1  0
  3  7  1  0
  4  8  1  0
  4  9  1  0
  4 10  1  0
  5 11  1  0
  5 12  1  0
  5 13  1  0
M  END
>  <reaction>  (3) 
rxn_1152

>  <mol_properties>  (3) 
{"0": {"label": "a_hydrogen", "atom_type": "H0"}, "3": {"label": "acceptor", "atom_type": "Cs"}}

>  <type>  (3) 
r2h

$$$$

     RDKit          3D

 25 23  0  0  0  0  0  0  0  0999 V2000
   -0.7995   -2.5869   -1.1260 C   0  0  0  0  0  0  0  0  0  0  0  0
    0.3416   -2.2831   -0.5050 C   0  0  0  0  0  0  0  0  0  0  0  0
    0.4075   -1.4126    0.6609 C   0  0  0  0  0  3  0  0  0  0  0  0
    1.6007   -1.3083    1.4930 C   0  0  0  0  0  0  0  0  0  0  0  0
    2.8386   -1.6965    1.1735 C   0  0  0  0  0  0  0  0  0  0  0  0
   -0.8095   -3.2057   -2.0136 H   0  0  0  0  0  0  0  0  0  0  0  0
   -1.7552   -2.2305   -0.7585 H   0  0  0  0  0  0  0  0  0  0  0  0
    1.2761   -2.6511   -0.9148 H   0  0  0  0  0  0  0  0  0  0  0  0
    0.2938   -0.1854    0.0776 H   0  0  0  0  0  0  0  0  0  0  0  0
   -0.5321   -1.3226    1.2045 H   0  0  0  0  0  0  0  0  0  0  0  0
    1.4493   -0.8254    2.4533 H   0  0  0  0  0  0  0  0  0  0  0  0
    3.0751   -2.1792    0.2334 H   0  0  0  0  0  0  0  0  0  0  0  0
    3.6594   -1.5464    1.8619 H   0  0  0  0  0  0  0  0  0  0  0  0
   -2.5315    1.1774   -0.4931 S   0  0  0  0  0  0  0  0  0  0  0  0
   -1.0504    0.8861   -1.1282 C   0  0  0  0  0  0  0  0  0  0  0  0
    0.2188    1.0227   -0.4643 C   0  0  0  0  0  0  0  0  0  0  0  0
    1.4464    1.0041   -1.3460 C   0  0  0  0  0  0  0  0  0  0  0  0
    0.3207    1.8920    0.7636 C   0  0  0  0  0  0  0  0  0  0  0  0
   -0.9923    0.4794   -2.1379 H   0  0  0  0  0  0  0  0  0  0  0  0
    1.6326    1.9957   -1.7674 H   0  0  0  0  0  0  0  0  0  0  0  0
    2.3284    0.7182   -0.7688 H   0  0  0  0  0  0  0  0  0  0  0  0
    1.3312    0.2995   -2.1713 H   0  0  0  0  0  0  0  0  0  0  0  0
    1.2409    1.6724    1.3083 H   0  0  0  0  0  0  0  0  0  0  0  0
   -0.5346    1.7475    1.4220 H   0  0  0  0  0  0  0  0  0  0  0  0
    0.3431    2.9463    0.4750 H   0  0  0  0  0  0  0  0  0  0  0  0
  1  2  2  3
  1  6  1  0
  1  7  1  0
  2  3  1  0
  2  8  1  0
  3  4  1  0
  3 10  1  0
  4  5  2  3
  4 11  1  0
  5 12  1  0
  5 13  1  0
  9 16  1  0
 14 15  2  0
 15 16  1  0
 15 19  1  0
 16 17  1  0
 16 18  1  0
 17 20  1  0
 17 21  1  0
 17 22  1  0
 18 23  1  0
 18 24  1  0
 18 25  1  0
M  RAD  1   3   2
M  END
>  <reaction>  (4) 
rxn_1152

>  <mol_properties>  (4) 
{"1": {"label": "*4", "atom_type": "Cd"}, "2": {"label": "*3", "atom_type": "Cs"}, "8": {"label": "*2", "atom_type": "H0"}, "14": {"label": "*0", "atom_type": "CS"}, "15": {"label": "*1", "atom_type": "Cs"}}

>  <type>  (4) 
ts

$$$$

     RDKit          3D

 25 23  0  0  0  0  0  0  0  0999 V2000
    0.0858   -2.6535   -1.5303 C   0  0  0  0  0  0  0  0  0  0  0  0
    0.0858   -2.6535   -0.2070 C   0  0  0  0  0  0  0  0  0  0  0  0
    0.0858   -1.4277    0.6510 C   0  0  0  0  0  0  0  0  0  0  0  0
    1.2955   -1.2733    1.5322 C   0  0  0  0  0  0  0  0  0  0  0  0
    2.4067   -1.9890    1.4597 C   0  0  0  0  0  0  0  0  0  0  0  0
    0.0776   -3.5762   -2.0968 H   0  0  0  0  0  0  0  0  0  0  0  0
    0.0921   -1.7280   -2.0963 H   0  0  0  0  0  0  0  0  0  0  0  0
    0.0883   -3.6022    0.3235 H   0  0  0  0  0  0  0  0  0  0  0  0
   -0.0343   -0.3557   -0.0996 H   0  0  0  0  0  0  0  0  0  0  0  0
   -0.8022   -1.4412    1.2938 H   0  0  0  0  0  0  0  0  0  0  0  0
    1.2228   -0.4883    2.2799 H   0  0  0  0  0  0  0  0  0  0  0  0
    2.5321   -2.7759    0.7249 H   0  0  0  0  0  0  0  0  0  0  0  0
    3.2349   -1.8047    2.1321 H   0  0  0  0  0  0  0  0  0  0  0  0
   -1.5954    2.4294    0.8246 S   0  0  0  0  0  1  0  0  0  0  0  0
   -1.4152    1.3825   -0.3816 C   0  0  0  0  0  0  0  0  0  0  0  0
   -0.1548    0.7200   -0.8527 C   0  0  0  0  0  0  0  0  0  0  0  0
    0.0551    1.0595   -2.3358 C   0  0  0  0  0  0  0  0  0  0  0  0
    1.0797    1.0267   -0.0224 C   0  0  0  0  0  0  0  0  0  0  0  0
   -2.2927    1.1016   -0.9689 H   0  0  0  0  0  0  0  0  0  0  0  0
    0.2620    2.1249   -2.4557 H   0  0  0  0  0  0  0  0  0  0  0  0
    0.9042    0.5011   -2.7314 H   0  0  0  0  0  0  0  0  0  0  0  0
   -0.8227    0.8128   -2.9355 H   0  0  0  0  0  0  0  0  0  0  0  0
    1.9341    0.4658   -0.4047 H   0  0  0  0  0  0  0  0  0  0  0  0
    0.9315    0.7641    1.0249 H   0  0  0  0  0  0  0  0  0  0  0  0
    1.3205    2.0903   -0.0631 H   0  0  0  0  0  0  0  0  0  0  0  0
  1  2  2  3
  1  6  1  0
  1  7  1  0
  2  3  1  0
  2  8  1  0
  3  4  1  0
  3  9  1  0
  3 10  1  0
  4  5  2  3
  4 11  1  0
  5 12  1  0
  5 13  1  0
 14 15  1  0
 15 16  2  3
 15 19  1  0
 16 17  1  0
 16 18  1  0
 17 20  1  0
 17 21  1  0
 17 22  1  0
 18 23  1  0
 18 24  1  0
 18 25  1  0
M  RAD  1  14   2
M  END
>  <reaction>  (5) 
rxn_1152

>  <mol_properties>  (5) 
{"1": {"label": "*4", "atom_type": "Cd"}, "2": {"label": "*3", "atom_type": "Cs"}, "8": {"label": "*2", "atom_type": "H0"}, "14": {"label": "*0", "atom_type": "CS"}, "15": {"label": "*1", "atom_type": "Cs"}}

>  <type>  (5) 
unop_1

>  <geom_source>  (5) 
Heuristics

$$$$

     RDKit          3D

 25 23  0  0  0  0  0  0  0  0999 V2000
    0.3272   -2.2691   -0.8547 C   0  0  0  0  0  0  0  0  0  0  0  0
    0.3272   -2.2691    0.4685 C   0  0  0  0  0  0  0  0  0  0  0  0
    0.3272   -1.0433    1.3265 C   0  0  0  0  0  0  0  0  0  0  0  0
    1.5369   -0.8889    2.2077 C   0  0  0  0  0  0  0  0  0  0  0  0
    2.6481   -1.6046    2.1353 C   0  0  0  0  0  0  0  0  0  0  0  0
    0.3190   -3.1918   -1.4213 H   0  0  0  0  0  0  0  0  0  0  0  0
    0.3336   -1.3436   -1.4207 H   0  0  0  0  0  0  0  0  0  0  0  0
    0.3298   -3.2178    0.9990 H   0  0  0  0  0  0  0  0  0  0  0  0
    0.2071    0.0287    0.5760 H   0  0  0  0  0  0  0  0  0  0  0  0
   -0.5608   -1.0567    1.9693 H   0  0  0  0  0  0  0  0  0  0  0  0
    1.4642   -0.1039    2.9554 H   0  0  0  0  0  0  0  0  0  0  0  0
    2.7736   -2.3915    1.4004 H   0  0  0  0  0  0  0  0  0  0  0  0
    3.4763   -1.4203    2.8076 H   0  0  0  0  0  0  0  0  0  0  0  0
   -2.2554    0.9578   -1.6950 S   0  0  0  0  0  1  0  0  0  0  0  0
   -0.7114    0.6568   -1.3656 C   0  0  0  0  0  0  0  0  0  0  0  0
    0.0866    1.1045   -0.1772 C   0  0  0  0  0  0  0  0  0  0  0  0
    1.3010    1.9038   -0.6724 C   0  0  0  0  0  0  0  0  0  0  0  0
   -0.7015    1.8669    0.8740 C   0  0  0  0  0  0  0  0  0  0  0  0
   -0.1273    0.0685   -2.0774 H   0  0  0  0  0  0  0  0  0  0  0  0
    0.9773    2.8388   -1.1342 H   0  0  0  0  0  0  0  0  0  0  0  0
    1.9564    2.1464    0.1648 H   0  0  0  0  0  0  0  0  0  0  0  0
    1.8819    1.3435   -1.4072 H   0  0  0  0  0  0  0  0  0  0  0  0
   -0.0566    2.1074    1.7208 H   0  0  0  0  0  0  0  0  0  0  0  0
   -1.5495    1.2859    1.2363 H   0  0  0  0  0  0  0  0  0  0  0  0
   -1.0936    2.7994    0.4646 H   0  0  0  0  0  0  0  0  0  0  0  0
  1  2  2  3
  1  6  1  0
  1  7  1  0
  2  3  1  0
  2  8  1  0
  3  4  1  0
  3  9  1  0
  3 10  1  0
  4  5  2  3
  4 11  1  0
  5 12  1  0
  5 13  1  0
 14 15  1  0
 15 16  2  3
 15 19  1  0
 16 17  1  0
 16 18  1  0
 17 20  1  0
 17 21  1  0
 17 22  1  0
 18 23  1  0
 18 24  1  0
 18 25  1  0
M  RAD  1  14   2
M  END
>  <reaction>  (6) 
rxn_1152

>  <mol_properties>  (6) 
{"1": {"label": "*4", "atom_type": "Cd"}, "2": {"label": "*3", "atom_type": "Cs"}, "8": {"label": "*2", "atom_type": "H0"}, "14": {"label": "*0", "atom_type": "CS"}, "15": {"label": "*1", "atom_type": "Cs"}}

>  <type>  (6) 
unop_2

>  <geom_source>  (6) 
Heuristics

$$$$

     RDKit          3D

 25 23  0  0  0  0  0  0  0  0999 V2000
   -0.1888   -2.7374   -1.4998 C   0  0  0  0  0  0  0  0  0  0  0  0
   -0.1888   -2.7374   -0.1765 C   0  0  0  0  0  0  0  0  0  0  0  0
   -0.1888   -1.5116    0.6815 C   0  0  0  0  0  0  0  0  0  0  0  0
    1.0209   -1.3573    1.5627 C   0  0  0  0  0  0  0  0  0  0  0  0
    2.1321   -2.0730    1.4902 C   0  0  0  0  0  0  0  0  0  0  0  0
   -0.1970   -3.6602   -2.0663 H   0  0  0  0  0  0  0  0  0  0  0  0
   -0.1825   -1.8120   -2.0658 H   0  0  0  0  0  0  0  0  0  0  0  0
   -0.1863   -3.6862    0.3540 H   0  0  0  0  0  0  0  0  0  0  0  0
   -0.3089   -0.4397   -0.0691 H   0  0  0  0  0  0  0  0  0  0  0  0
   -1.0768   -1.5251    1.3242 H   0  0  0  0  0  0  0  0  0  0  0  0
    0.9482   -0.5722    2.3104 H   0  0  0  0  0  0  0  0  0  0  0  0
    2.2575   -2.8598    0.7554 H   0  0  0  0  0  0  0  0  0  0  0  0
    2.9603   -1.8887    2.1626 H   0  0  0  0  0  0  0  0  0  0  0  0
   -0.5125    2.8340    0.9019 S   0  0  0  0  0  1  0  0  0  0  0  0
   -1.1443    1.6335    0.0400 C   0  0  0  0  0  0  0  0  0  0  0  0
   -0.4294    0.6361   -0.8223 C   0  0  0  0  0  0  0  0  0  0  0  0
   -0.9880    0.7295   -2.2499 C   0  0  0  0  0  0  0  0  0  0  0  0
    1.0860    0.7392   -0.8004 C   0  0  0  0  0  0  0  0  0  0  0  0
   -2.2288    1.4999    0.0413 H   0  0  0  0  0  0  0  0  0  0  0  0
   -0.7286    1.6914   -2.6968 H   0  0  0  0  0  0  0  0  0  0  0  0
   -0.5633   -0.0601   -2.8707 H   0  0  0  0  0  0  0  0  0  0  0  0
   -2.0745    0.6274   -2.2667 H   0  0  0  0  0  0  0  0  0  0  0  0
    1.5218   -0.0524   -1.4121 H   0  0  0  0  0  0  0  0  0  0  0  0
    1.4773    0.6512    0.2130 H   0  0  0  0  0  0  0  0  0  0  0  0
    1.4154    1.7011   -1.1969 H   0  0  0  0  0  0  0  0  0  0  0  0
  1  2  2  3
  1  6  1  0
  1  7  1  0
  2  3  1  0
  2  8  1  0
  3  4  1  0
  3  9  1  0
  3 10  1  0
  4  5  2  3
  4 11  1  0
  5 12  1  0
  5 13  1  0
 14 15  1  0
 15 16  2  3
 15 19  1  0
 16 17  1  0
 16 18  1  0
 17 20  1  0
 17 21  1  0
 17 22  1  0
 18 23  1  0
 18 24  1  0
 18 25  1  0
M  RAD  1  14   2
M  END
>  <reaction>  (7) 
rxn_1152

>  <mol_properties>  (7) 
{"1": {"label": "*4", "atom_type": "Cd"}, "2": {"label": "*3", "atom_type": "Cs"}, "8": {"label": "*2", "atom_type": "H0"}, "14": {"label": "*0", "atom_type": "CS"}, "15": {"label": "*1", "atom_type": "Cs"}}

>  <type>  (7) 
unop_3

>  <geom_source>  (7) 
Heuristics

$$$$

     RDKit          3D

 25 23  0  0  0  0  0  0  0  0999 V2000
   -0.4770   -2.4407   -0.7335 C   0  0  0  0  0  0  0  0  0  0  0  0
   -0.4770   -2.4407    0.5898 C   0  0  0  0  0  0  0  0  0  0  0  0
   -0.4770   -1.2148    1.4478 C   0  0  0  0  0  0  0  0  0  0  0  0
    0.7327   -1.0605    2.3290 C   0  0  0  0  0  0  0  0  0  0  0  0
    1.8438   -1.7762    2.2566 C   0  0  0  0  0  0  0  0  0  0  0  0
   -0.4852   -3.3634   -1.3000 H   0  0  0  0  0  0  0  0  0  0  0  0
   -0.4707   -1.5152   -1.2994 H   0  0  0  0  0  0  0  0  0  0  0  0
   -0.4745   -3.3894    1.1203 H   0  0  0  0  0  0  0  0  0  0  0  0
   -0.5971   -0.1429    0.6972 H   0  0  0  0  0  0  0  0  0  0  0  0
   -1.3650   -1.2283    2.0906 H   0  0  0  0  0  0  0  0  0  0  0  0
    0.6600   -0.2755    3.0767 H   0  0  0  0  0  0  0  0  0  0  0  0
    1.9693   -2.5630    1.5217 H   0  0  0  0  0  0  0  0  0  0  0  0
    2.6720   -1.5919    2.9289 H   0  0  0  0  0  0  0  0  0  0  0  0
    0.6301    1.5776   -2.4178 S   0  0  0  0  0  1  0  0  0  0  0  0
    0.4721    0.9010   -0.9686 C   0  0  0  0  0  0  0  0  0  0  0  0
   -0.7176    0.9329   -0.0559 C   0  0  0  0  0  0  0  0  0  0  0  0
   -0.2904    1.5392    1.2889 C   0  0  0  0  0  0  0  0  0  0  0  0
   -1.9436    1.6264   -0.6248 C   0  0  0  0  0  0  0  0  0  0  0  0
    1.3190    0.3517   -0.5501 H   0  0  0  0  0  0  0  0  0  0  0  0
   -0.0307    2.5925    1.1649 H   0  0  0  0  0  0  0  0  0  0  0  0
   -1.1087    1.4725    2.0067 H   0  0  0  0  0  0  0  0  0  0  0  0
    0.5736    1.0220    1.7097 H   0  0  0  0  0  0  0  0  0  0  0  0
   -2.7717    1.5579    0.0826 H   0  0  0  0  0  0  0  0  0  0  0  0
   -2.2539    1.1779   -1.5684 H   0  0  0  0  0  0  0  0  0  0  0  0
   -1.7396    2.6816   -0.8144 H   0  0  0  0  0  0  0  0  0  0  0  0
  1  2  2  3
  1  6  1  0
  1  7  1  0
  2  3  1  0
  2  8  1  0
  3  4  1  0
  3  9  1  0
  3 10  1  0
  4  5  2  3
  4 11  1  0
  5 12  1  0
  5 13  1  0
 14 15  1  0
 15 16  2  3
 15 19  1  0
 16 17  1  0
 16 18  1  0
 17 20  1  0
 17 21  1  0
 17 22  1  0
 18 23  1  0
 18 24  1  0
 18 25  1  0
M  RAD  1  14   2
M  END
>  <reaction>  (8) 
rxn_1152

>  <mol_properties>  (8) 
{"1": {"label": "*4", "atom_type": "Cd"}, "2": {"label": "*3", "atom_type": "Cs"}, "8": {"label": "*2", "atom_type": "H0"}, "14": {"label": "*0", "atom_type": "CS"}, "15": {"label": "*1", "atom_type": "Cs"}}

>  <type>  (8) 
unop_4

>  <geom_source>  (8) 
Heuristics

$$$$

     RDKit          3D

 25 23  0  0  0  0  0  0  0  0999 V2000
   -0.3509   -2.7697   -1.3314 C   0  0  0  0  0  0  0  0  0  0  0  0
   -0.3509   -2.7697   -0.0082 C   0  0  0  0  0  0  0  0  0  0  0  0
   -0.3509   -1.5439    0.8498 C   0  0  0  0  0  0  0  0  0  0  0  0
    0.8588   -1.3895    1.7310 C   0  0  0  0  0  0  0  0  0  0  0  0
    1.9700   -2.1052    1.6586 C   0  0  0  0  0  0  0  0  0  0  0  0
   -0.3591   -3.6924   -1.8980 H   0  0  0  0  0  0  0  0  0  0  0  0
   -0.3446   -1.8442   -1.8974 H   0  0  0  0  0  0  0  0  0  0  0  0
   -0.3483   -3.7184    0.5223 H   0  0  0  0  0  0  0  0  0  0  0  0
   -0.4710   -0.4719    0.0993 H   0  0  0  0  0  0  0  0  0  0  0  0
   -1.2389   -1.5573    1.4926 H   0  0  0  0  0  0  0  0  0  0  0  0
    0.7861   -0.6045    2.4787 H   0  0  0  0  0  0  0  0  0  0  0  0
    2.0954   -2.8920    0.9237 H   0  0  0  0  0  0  0  0  0  0  0  0
    2.7982   -1.9209    2.3309 H   0  0  0  0  0  0  0  0  0  0  0  0
    0.4096    3.0207    0.3297 S   0  0  0  0  0  1  0  0  0  0  0  0
   -0.5788    1.7535    0.3093 C   0  0  0  0  0  0  0  0  0  0  0  0
   -0.5915    0.6039   -0.6539 C   0  0  0  0  0  0  0  0  0  0  0  0
   -1.9749    0.5325   -1.3172 C   0  0  0  0  0  0  0  0  0  0  0  0
    0.5278    0.6154   -1.6808 C   0  0  0  0  0  0  0  0  0  0  0  0
   -1.3653    1.6884    1.0650 H   0  0  0  0  0  0  0  0  0  0  0  0
   -2.1363    1.4052   -1.9532 H   0  0  0  0  0  0  0  0  0  0  0  0
   -2.0464   -0.3603   -1.9393 H   0  0  0  0  0  0  0  0  0  0  0  0
   -2.7767    0.4962   -0.5776 H   0  0  0  0  0  0  0  0  0  0  0  0
    0.4707   -0.2787   -2.3036 H   0  0  0  0  0  0  0  0  0  0  0  0
    1.5071    0.6450   -1.2033 H   0  0  0  0  0  0  0  0  0  0  0  0
    0.4519    1.4908   -2.3280 H   0  0  0  0  0  0  0  0  0  0  0  0
  1  2  2  3
  1  6  1  0
  1  7  1  0
  2  3  1  0
  2  8  1  0
  3  4  1  0
  3  9  1  0
  3 10  1  0
  4  5  2  3
  4 11  1  0
  5 12  1  0
  5 13  1  0
 14 15  1  0
 15 16  2  3
 15 19  1  0
 16 17  1  0
 16 18  1  0
 17 20  1  0
 17 21  1  0
 17 22  1  0
 18 23  1  0
 18 24  1  0
 18 25  1  0
M  RAD  1  14   2
M  END
>  <reaction>  (9) 
rxn_1152

>  <mol_properties>  (9) 
{"1": {"label": "*4", "atom_type": "Cd"}, "2": {"label": "*3", "atom_type": "Cs"}, "8": {"label": "*2", "atom_type": "H0"}, "14": {"label": "*0", "atom_type": "CS"}, "15": {"label": "*1", "atom_type": "Cs"}}

>  <type>  (9) 
unop_5

>  <geom_source>  (9) 
Heuristics

$$$$

     RDKit          3D

 25 23  0  0  0  0  0  0  0  0999 V2000
   -0.5544   -2.5866   -0.9281 C   0  0  0  0  0  0  0  0  0  0  0  0
   -0.5544   -2.5866    0.3952 C   0  0  0  0  0  0  0  0  0  0  0  0
   -0.5544   -1.3608    1.2532 C   0  0  0  0  0  0  0  0  0  0  0  0
    0.6553   -1.2064    2.1344 C   0  0  0  0  0  0  0  0  0  0  0  0
    1.7664   -1.9221    2.0619 C   0  0  0  0  0  0  0  0  0  0  0  0
   -0.5626   -3.5093   -1.4946 H   0  0  0  0  0  0  0  0  0  0  0  0
   -0.5481   -1.6612   -1.4941 H   0  0  0  0  0  0  0  0  0  0  0  0
   -0.5519   -3.5354    0.9257 H   0  0  0  0  0  0  0  0  0  0  0  0
   -0.6745   -0.2888    0.5026 H   0  0  0  0  0  0  0  0  0  0  0  0
   -1.4424   -1.3743    1.8959 H   0  0  0  0  0  0  0  0  0  0  0  0
    0.5826   -0.4214    2.8821 H   0  0  0  0  0  0  0  0  0  0  0  0
    1.8919   -2.7090    1.3271 H   0  0  0  0  0  0  0  0  0  0  0  0
    2.5946   -1.7378    2.7343 H   0  0  0  0  0  0  0  0  0  0  0  0
    1.1163    2.1458   -1.7706 S   0  0  0  0  0  1  0  0  0  0  0  0
    0.6120    1.1830   -0.5867 C   0  0  0  0  0  0  0  0  0  0  0  0
   -0.7950    0.7869   -0.2506 C   0  0  0  0  0  0  0  0  0  0  0  0
   -1.0886    1.1966    1.2002 C   0  0  0  0  0  0  0  0  0  0  0  0
   -1.8533    1.3048   -1.2094 C   0  0  0  0  0  0  0  0  0  0  0  0
    1.3523    0.7530    0.0922 H   0  0  0  0  0  0  0  0  0  0  0  0
   -1.0964    2.2845    1.2932 H   0  0  0  0  0  0  0  0  0  0  0  0
   -2.0663    0.8217    1.5048 H   0  0  0  0  0  0  0  0  0  0  0  0
   -0.3425    0.8004    1.8914 H   0  0  0  0  0  0  0  0  0  0  0  0
   -2.8353    0.9282   -0.9185 H   0  0  0  0  0  0  0  0  0  0  0  0
   -1.6505    0.9931   -2.2339 H   0  0  0  0  0  0  0  0  0  0  0  0
   -1.8863    2.3956   -1.1988 H   0  0  0  0  0  0  0  0  0  0  0  0
  1  2  2  3
  1  6  1  0
  1  7  1  0
  2  3  1  0
  2  8  1  0
  3  4  1  0
  3  9  1  0
  3 10  1  0
  4  5  2  3
  4 11  1  0
  5 12  1  0
  5 13  1  0
 14 15  1  0
 15 16  2  3
 15 19  1  0
 16 17  1  0
 16 18  1  0
 17 20  1  0
 17 21  1  0
 17 22  1  0
 18 23  1  0
 18 24  1  0
 18 25  1  0
M  RAD  1  14   2
M  END
>  <reaction>  (10) 
rxn_1152

>  <mol_properties>  (10) 
{"1": {"label": "*4", "atom_type": "Cd"}, "2": {"label": "*3", "atom_type": "Cs"}, "8": {"label": "*2", "atom_type": "H0"}, "14": {"label": "*0", "atom_type": "CS"}, "15": {"label": "*1", "atom_type": "Cs"}}

>  <type>  (10) 
unop_6

>  <geom_source>  (10) 
Heuristics

$$$$

     RDKit          3D

 25 23  0  0  0  0  0  0  0  0999 V2000
   -0.5022   -2.7012   -1.0999 C   0  0  0  0  0  0  0  0  0  0  0  0
   -0.5022   -2.7012    0.2234 C   0  0  0  0  0  0  0  0  0  0  0  0
   -0.5022   -1.4754    1.0814 C   0  0  0  0  0  0  0  0  0  0  0  0
    0.7075   -1.3210    1.9626 C   0  0  0  0  0  0  0  0  0  0  0  0
    1.8186   -2.0367    1.8901 C   0  0  0  0  0  0  0  0  0  0  0  0
   -0.5104   -3.6240   -1.6664 H   0  0  0  0  0  0  0  0  0  0  0  0
   -0.4959   -1.7758   -1.6659 H   0  0  0  0  0  0  0  0  0  0  0  0
   -0.4997   -3.6500    0.7539 H   0  0  0  0  0  0  0  0  0  0  0  0
   -0.6223   -0.4034    0.3308 H   0  0  0  0  0  0  0  0  0  0  0  0
   -1.3902   -1.4889    1.7241 H   0  0  0  0  0  0  0  0  0  0  0  0
    0.6348   -0.5360    2.7103 H   0  0  0  0  0  0  0  0  0  0  0  0
    1.9441   -2.8236    1.1553 H   0  0  0  0  0  0  0  0  0  0  0  0
    2.6468   -1.8524    2.5625 H   0  0  0  0  0  0  0  0  0  0  0  0
    1.1348    2.6461   -1.0464 S   0  0  0  0  0  1  0  0  0  0  0  0
    0.4949    1.4747   -0.1511 C   0  0  0  0  0  0  0  0  0  0  0  0
   -0.7428    0.6723   -0.4224 C   0  0  0  0  0  0  0  0  0  0  0  0
   -1.7109    0.8466    0.7571 C   0  0  0  0  0  0  0  0  0  0  0  0
   -1.4155    0.9615   -1.7533 C   0  0  0  0  0  0  0  0  0  0  0  0
    0.9819    1.2069    0.7897 H   0  0  0  0  0  0  0  0  0  0  0  0
   -2.0737    1.8755    0.8015 H   0  0  0  0  0  0  0  0  0  0  0  0
   -2.5710    0.1871    0.6364 H   0  0  0  0  0  0  0  0  0  0  0  0
   -1.2339    0.6116    1.7102 H   0  0  0  0  0  0  0  0  0  0  0  0
   -2.2732    0.3005   -1.8882 H   0  0  0  0  0  0  0  0  0  0  0  0
   -0.7292    0.8158   -2.5873 H   0  0  0  0  0  0  0  0  0  0  0  0
   -1.7671    1.9939   -1.7943 H   0  0  0  0  0  0  0  0  0  0  0  0
  1  2  2  3
  1  6  1  0
  1  7  1  0
  2  3  1  0
  2  8  1  0
  3  4  1  0
  3  9  1  0
  3 10  1  0
  4  5  2  3
  4 11  1  0
  5 12  1  0
  5 13  1  0
 14 15  1  0
 15 16  2  3
 15 19  1  0
 16 17  1  0
 16 18  1  0
 17 20  1  0
 17 21  1  0
 17 22  1  0
 18 23  1  0
 18 24  1  0
 18 25  1  0
M  RAD  1  14   2
M  END
>  <reaction>  (11) 
rxn_1152

>  <mol_properties>  (11) 
{"1": {"label": "*4", "atom_type": "Cd"}, "2": {"label": "*3", "atom_type": "Cs"}, "8": {"label": "*2", "atom_type": "H0"}, "14": {"label": "*0", "atom_type": "CS"}, "15": {"label": "*1", "atom_type": "Cs"}}

>  <type>  (11) 
unop_7

>  <geom_source>  (11) 
Heuristics

$$$$

     RDKit          3D

 25 23  0  0  0  0  0  0  0  0999 V2000
    0.3178   -2.5226   -1.3903 C   0  0  0  0  0  0  0  0  0  0  0  0
    0.3178   -2.5226   -0.0670 C   0  0  0  0  0  0  0  0  0  0  0  0
    0.3178   -1.2968    0.7910 C   0  0  0  0  0  0  0  0  0  0  0  0
    1.5275   -1.1424    1.6722 C   0  0  0  0  0  0  0  0  0  0  0  0
    2.6387   -1.8581    1.5997 C   0  0  0  0  0  0  0  0  0  0  0  0
    0.3096   -3.4453   -1.9568 H   0  0  0  0  0  0  0  0  0  0  0  0
    0.3241   -1.5972   -1.9563 H   0  0  0  0  0  0  0  0  0  0  0  0
    0.3204   -3.4714    0.4635 H   0  0  0  0  0  0  0  0  0  0  0  0
    0.1977   -0.2248    0.0404 H   0  0  0  0  0  0  0  0  0  0  0  0
   -0.5702   -1.3103    1.4338 H   0  0  0  0  0  0  0  0  0  0  0  0
    1.4548   -0.3574    2.4199 H   0  0  0  0  0  0  0  0  0  0  0  0
    2.7641   -2.6450    0.8649 H   0  0  0  0  0  0  0  0  0  0  0  0
    3.4669   -1.6738    2.2721 H   0  0  0  0  0  0  0  0  0  0  0  0
   -2.3535    1.8861    0.1986 S   0  0  0  0  0  1  0  0  0  0  0  0
   -1.4004    1.0854   -0.8181 C   0  0  0  0  0  0  0  0  0  0  0  0
    0.0772    0.8509   -0.7128 C   0  0  0  0  0  0  0  0  0  0  0  0
    0.7563    1.4166   -1.9688 C   0  0  0  0  0  0  0  0  0  0  0  0
    0.7200    1.3726    0.5609 C   0  0  0  0  0  0  0  0  0  0  0  0
   -1.8398    0.6541   -1.7208 H   0  0  0  0  0  0  0  0  0  0  0  0
    0.6676    2.5047   -1.9908 H   0  0  0  0  0  0  0  0  0  0  0  0
    1.8166    1.1613   -1.9686 H   0  0  0  0  0  0  0  0  0  0  0  0
    0.3115    1.0194   -2.8829 H   0  0  0  0  0  0  0  0  0  0  0  0
    1.7802    1.1147    0.5754 H   0  0  0  0  0  0  0  0  0  0  0  0
    0.2472    0.9513    1.4480 H   0  0  0  0  0  0  0  0  0  0  0  0
    0.6292    2.4582    0.6250 H   0  0  0  0  0  0  0  0  0  0  0  0
  1  2  2  3
  1  6  1  0
  1  7  1  0
  2  3  1  0
  2  8  1  0
  3  4  1  0
  3  9  1  0
  3 10  1  0
  4  5  2  3
  4 11  1  0
  5 12  1  0
  5 13  1  0
 14 15  1  0
 15 16  2  3
 15 19  1  0
 16 17  1  0
 16 18  1  0
 17 20  1  0
 17 21  1  0
 17 22  1  0
 18 23  1  0
 18 24  1  0
 18 25  1  0
M  RAD  1  14   2
M  END
>  <reaction>  (12) 
rxn_1152

>  <mol_properties>  (12) 
{"1": {"label": "*4", "atom_type": "Cd"}, "2": {"label": "*3", "atom_type": "Cs"}, "8": {"label": "*2", "atom_type": "H0"}, "14": {"label": "*0", "atom_type": "CS"}, "15": {"label": "*1", "atom_type": "Cs"}}

>  <type>  (12) 
unop_8

>  <geom_source>  (12) 
Heuristics

$$$$

     RDKit          3D

 25 23  0  0  0  0  0  0  0  0999 V2000
   -0.2451   -2.3089   -0.6076 C   0  0  0  0  0  0  0  0  0  0  0  0
   -0.2451   -2.3089    0.7156 C   0  0  0  0  0  0  0  0  0  0  0  0
   -0.2451   -1.0831    1.5736 C   0  0  0  0  0  0  0  0  0  0  0  0
    0.9647   -0.9287    2.4548 C   0  0  0  0  0  0  0  0  0  0  0  0
    2.0758   -1.6444    2.3824 C   0  0  0  0  0  0  0  0  0  0  0  0
   -0.2532   -3.2316   -1.1742 H   0  0  0  0  0  0  0  0  0  0  0  0
   -0.2387   -1.3834   -1.1736 H   0  0  0  0  0  0  0  0  0  0  0  0
   -0.2425   -3.2576    1.2461 H   0  0  0  0  0  0  0  0  0  0  0  0
   -0.3651   -0.0111    0.8231 H   0  0  0  0  0  0  0  0  0  0  0  0
   -1.1330   -1.0966    2.2164 H   0  0  0  0  0  0  0  0  0  0  0  0
    0.8920   -0.1437    3.2025 H   0  0  0  0  0  0  0  0  0  0  0  0
    2.2013   -2.4313    1.6475 H   0  0  0  0  0  0  0  0  0  0  0  0
    2.9040   -1.4601    3.0547 H   0  0  0  0  0  0  0  0  0  0  0  0
   -0.3059    1.1005   -2.7188 S   0  0  0  0  0  1  0  0  0  0  0  0
    0.1586    0.6978   -1.2339 C   0  0  0  0  0  0  0  0  0  0  0  0
   -0.4856    1.0646    0.0699 C   0  0  0  0  0  0  0  0  0  0  0  0
    0.5449    1.8015    0.9382 C   0  0  0  0  0  0  0  0  0  0  0  0
   -1.7828    1.8455   -0.0533 C   0  0  0  0  0  0  0  0  0  0  0  0
    1.0611    0.0941   -1.1113 H   0  0  0  0  0  0  0  0  0  0  0  0
    0.7959    2.7663    0.4927 H   0  0  0  0  0  0  0  0  0  0  0  0
    0.1360    1.9818    1.9330 H   0  0  0  0  0  0  0  0  0  0  0  0
    1.4660    1.2266    1.0486 H   0  0  0  0  0  0  0  0  0  0  0  0
   -2.2052    2.0240    0.9369 H   0  0  0  0  0  0  0  0  0  0  0  0
   -2.5169    1.3077   -0.6531 H   0  0  0  0  0  0  0  0  0  0  0  0
   -1.6108    2.8106   -0.5329 H   0  0  0  0  0  0  0  0  0  0  0  0
  1  2  2  3
  1  6  1  0
  1  7  1  0
  2  3  1  0
  2  8  1  0
  3  4  1  0
  3  9  1  0
  3 10  1  0
  4  5  2  3
  4 11  1  0
  5 12  1  0
  5 13  1  0
 14 15  1  0
 15 16  2  3
 15 19  1  0
 16 17  1  0
 16 18  1  0
 17 20  1  0
 17 21  1  0
 17 22  1  0
 18 23  1  0
 18 24  1  0
 18 25  1  0
M  RAD  1  14   2
M  END
>  <reaction>  (13) 
rxn_1152

>  <mol_properties>  (13) 
{"1": {"label": "*4", "atom_type": "Cd"}, "2": {"label": "*3", "atom_type": "Cs"}, "8": {"label": "*2", "atom_type": "H0"}, "14": {"label": "*0", "atom_type": "CS"}, "15": {"label": "*1", "atom_type": "Cs"}}

>  <type>  (13) 
unop_9

>  <geom_source>  (13) 
Heuristics

$$$$

     RDKit          3D

 25 23  0  0  0  0  0  0  0  0999 V2000
    0.4126   -2.3779   -1.1385 C   0  0  0  0  0  0  0  0  0  0  0  0
    0.4126   -2.3779    0.1848 C   0  0  0  0  0  0  0  0  0  0  0  0
    0.4126   -1.1521    1.0428 C   0  0  0  0  0  0  0  0  0  0  0  0
    1.6223   -0.9978    1.9240 C   0  0  0  0  0  0  0  0  0  0  0  0
    2.7335   -1.7135    1.8515 C   0  0  0  0  0  0  0  0  0  0  0  0
    0.4044   -3.3007   -1.7050 H   0  0  0  0  0  0  0  0  0  0  0  0
    0.4190   -1.4525   -1.7045 H   0  0  0  0  0  0  0  0  0  0  0  0
    0.4152   -3.3267    0.7153 H   0  0  0  0  0  0  0  0  0  0  0  0
    0.2925   -0.0801    0.2922 H   0  0  0  0  0  0  0  0  0  0  0  0
   -0.4753   -1.1656    1.6855 H   0  0  0  0  0  0  0  0  0  0  0  0
    1.5497   -0.2127    2.6717 H   0  0  0  0  0  0  0  0  0  0  0  0
    2.8590   -2.5003    1.1167 H   0  0  0  0  0  0  0  0  0  0  0  0
    3.5617   -1.5292    2.5239 H   0  0  0  0  0  0  0  0  0  0  0  0
   -2.5889    1.3417   -0.7211 S   0  0  0  0  0  1  0  0  0  0  0  0
   -1.1363    0.8238   -1.1737 C   0  0  0  0  0  0  0  0  0  0  0  0
    0.1720    0.9956   -0.4610 C   0  0  0  0  0  0  0  0  0  0  0  0
    1.1513    1.7193   -1.3970 C   0  0  0  0  0  0  0  0  0  0  0  0
    0.0793    1.6747    0.8946 C   0  0  0  0  0  0  0  0  0  0  0  0
   -1.0414    0.2875   -2.1210 H   0  0  0  0  0  0  0  0  0  0  0  0
    0.8179    2.7433   -1.5768 H   0  0  0  0  0  0  0  0  0  0  0  0
    2.1426    1.7585   -0.9441 H   0  0  0  0  0  0  0  0  0  0  0  0
    1.2379    1.2143   -2.3607 H   0  0  0  0  0  0  0  0  0  0  0  0
    1.0653    1.7115    1.3607 H   0  0  0  0  0  0  0  0  0  0  0  0
   -0.6010    1.1445    1.5609 H   0  0  0  0  0  0  0  0  0  0  0  0
   -0.2912    2.6962    0.7926 H   0  0  0  0  0  0  0  0  0  0  0  0
  1  2  2  3
  1  6  1  0
  1  7  1  0
  2  3  1  0
  2  8  1  0
  3  4  1  0
  3  9  1  0
  3 10  1  0
  4  5  2  3
  4 11  1  0
  5 12  1  0
  5 13  1  0
 14 15  1  0
 15 16  2  3
 15 19  1  0
 16 17  1  0
 16 18  1  0
 17 20  1  0
 17 21  1  0
 17 22  1  0
 18 23  1  0
 18 24  1  0
 18 25  1  0
M  RAD  1  14   2
M  END
>  <reaction>  (14) 
rxn_1152

>  <mol_properties>  (14) 
{"1": {"label": "*4", "atom_type": "Cd"}, "2": {"label": "*3", "atom_type": "Cs"}, "8": {"label": "*2", "atom_type": "H0"}, "14": {"label": "*0", "atom_type": "CS"}, "15": {"label": "*1", "atom_type": "Cs"}}

>  <type>  (14) 
unop_10

>  <geom_source>  (14) 
Heuristics

$$$$

     RDKit          3D

 25 23  0  0  0  0  0  0  0  0999 V2000
   -0.4101   -2.7604   -1.2091 C   0  0  0  0  0  0  0  0  0  0  0  0
   -0.4101   -2.7604    0.1142 C   0  0  0  0  0  0  0  0  0  0  0  0
   -0.4101   -1.5346    0.9722 C   0  0  0  0  0  0  0  0  0  0  0  0
    0.7996   -1.3802    1.8534 C   0  0  0  0  0  0  0  0  0  0  0  0
    1.9107   -2.0959    1.7810 C   0  0  0  0  0  0  0  0  0  0  0  0
   -0.4183   -3.6831   -1.7756 H   0  0  0  0  0  0  0  0  0  0  0  0
   -0.4038   -1.8349   -1.7750 H   0  0  0  0  0  0  0  0  0  0  0  0
   -0.4076   -3.7091    0.6447 H   0  0  0  0  0  0  0  0  0  0  0  0
   -0.5302   -0.4626    0.2216 H   0  0  0  0  0  0  0  0  0  0  0  0
   -1.2981   -1.5481    1.6150 H   0  0  0  0  0  0  0  0  0  0  0  0
    0.7269   -0.5952    2.6011 H   0  0  0  0  0  0  0  0  0  0  0  0
    2.0362   -2.8828    1.0461 H   0  0  0  0  0  0  0  0  0  0  0  0
    2.7389   -1.9116    2.4533 H   0  0  0  0  0  0  0  0  0  0  0  0
    0.8650    2.9566   -0.3854 S   0  0  0  0  0  1  0  0  0  0  0  0
    0.0767    1.6913    0.2153 C   0  0  0  0  0  0  0  0  0  0  0  0
   -0.6507    0.6131   -0.5315 C   0  0  0  0  0  0  0  0  0  0  0  0
   -2.1113    0.5854   -0.0576 C   0  0  0  0  0  0  0  0  0  0  0  0
   -0.5489    0.7008   -2.0446 C   0  0  0  0  0  0  0  0  0  0  0  0
    0.0260    1.5706    1.3001 H   0  0  0  0  0  0  0  0  0  0  0  0
   -2.6253    1.5007   -0.3581 H   0  0  0  0  0  0  0  0  0  0  0  0
   -2.6340   -0.2611   -0.5043 H   0  0  0  0  0  0  0  0  0  0  0  0
   -2.1829    0.4944    1.0277 H   0  0  0  0  0  0  0  0  0  0  0  0
   -1.0618   -0.1470   -2.5018 H   0  0  0  0  0  0  0  0  0  0  0  0
    0.4895    0.6989   -2.3755 H   0  0  0  0  0  0  0  0  0  0  0  0
   -1.0087    1.6198   -2.4120 H   0  0  0  0  0  0  0  0  0  0  0  0
  1  2  2  3
  1  6  1  0
  1  7  1  0
  2  3  1  0
  2  8  1  0
  3  4  1  0
  3  9  1  0
  3 10  1  0
  4  5  2  3
  4 11  1  0
  5 12  1  0
  5 13  1  0
 14 15  1  0
 15 16  2  3
 15 19  1  0
 16 17  1  0
 16 18  1  0
 17 20  1  0
 17 21  1  0
 17 22  1  0
 18 23  1  0
 18 24  1  0
 18 25  1  0
M  RAD  1  14   2
M  END
>  <reaction>  (15) 
rxn_1152

>  <mol_properties>  (15) 
{"1": {"label": "*4", "atom_type": "Cd"}, "2": {"label": "*3", "atom_type": "Cs"}, "8": {"label": "*2", "atom_type": "H0"}, "14": {"label": "*0", "atom_type": "CS"}, "15": {"label": "*1", "atom_type": "Cs"}}

>  <type>  (15) 
unop_11

>  <geom_source>  (15) 
Heuristics

$$$$

     RDKit          3D

 25 23  0  0  0  0  0  0  0  0999 V2000
    0.0728   -2.2417   -0.6451 C   0  0  0  0  0  0  0  0  0  0  0  0
    0.0728   -2.2417    0.6782 C   0  0  0  0  0  0  0  0  0  0  0  0
    0.0728   -1.0159    1.5362 C   0  0  0  0  0  0  0  0  0  0  0  0
    1.2825   -0.8615    2.4174 C   0  0  0  0  0  0  0  0  0  0  0  0
    2.3936   -1.5772    2.3449 C   0  0  0  0  0  0  0  0  0  0  0  0
    0.0646   -3.1644   -1.2116 H   0  0  0  0  0  0  0  0  0  0  0  0
    0.0791   -1.3162   -1.2111 H   0  0  0  0  0  0  0  0  0  0  0  0
    0.0753   -3.1904    1.2087 H   0  0  0  0  0  0  0  0  0  0  0  0
   -0.0473    0.0561    0.7856 H   0  0  0  0  0  0  0  0  0  0  0  0
   -0.8152   -1.0293    2.1789 H   0  0  0  0  0  0  0  0  0  0  0  0
    1.2098   -0.0765    3.1651 H   0  0  0  0  0  0  0  0  0  0  0  0
    2.5191   -2.3640    1.6101 H   0  0  0  0  0  0  0  0  0  0  0  0
    3.2218   -1.3929    3.0173 H   0  0  0  0  0  0  0  0  0  0  0  0
   -1.4098    0.8658   -2.4570 S   0  0  0  0  0  1  0  0  0  0  0  0
   -0.2511    0.6128   -1.3722 C   0  0  0  0  0  0  0  0  0  0  0  0
   -0.1678    1.1319    0.0324 C   0  0  0  0  0  0  0  0  0  0  0  0
    1.1339    1.9325    0.1851 C   0  0  0  0  0  0  0  0  0  0  0  0
   -1.3774    1.9257    0.4954 C   0  0  0  0  0  0  0  0  0  0  0  0
    0.6108    0.0044   -1.6564 H   0  0  0  0  0  0  0  0  0  0  0  0
    1.0961    2.8381   -0.4239 H   0  0  0  0  0  0  0  0  0  0  0  0
    1.2723    2.2275    1.2258 H   0  0  0  0  0  0  0  0  0  0  0  0
    2.0049    1.3510   -0.1219 H   0  0  0  0  0  0  0  0  0  0  0  0
   -1.2529    2.2187    1.5391 H   0  0  0  0  0  0  0  0  0  0  0  0
   -2.2949    1.3445    0.4041 H   0  0  0  0  0  0  0  0  0  0  0  0
   -1.5007    2.8297   -0.1033 H   0  0  0  0  0  0  0  0  0  0  0  0
  1  2  2  3
  1  6  1  0
  1  7  1  0
  2  3  1  0
  2  8  1  0
  3  4  1  0
  3  9  1  0
  3 10  1  0
  4  5  2  3
  4 11  1  0
  5 12  1  0
  5 13  1  0
 14 15  1  0
 15 16  2  3
 15 19  1  0
 16 17  1  0
 16 18  1  0
 17 20  1  0
 17 21  1  0
 17 22  1  0
 18 23  1  0
 18 24  1  0
 18 25  1  0
M  RAD  1  14   2
M  END
>  <reaction>  (16) 
rxn_1152

>  <mol_properties>  (16) 
{"1": {"label": "*4", "atom_type": "Cd"}, "2": {"label": "*3", "atom_type": "Cs"}, "8": {"label": "*2", "atom_type": "H0"}, "14": {"label": "*0", "atom_type": "CS"}, "15": {"label": "*1", "atom_type": "Cs"}}

>  <type>  (16) 
unop_12

>  <geom_source>  (16) 
Heuristics

$$$$

     RDKit          3D

 25 23  0  0  0  0  0  0  0  0999 V2000
   -1.0558    0.5054   -2.5532 S   0  0  0  0  0  0  0  0  0  0  0  0
   -1.4550   -0.2294   -0.1274 C   0  0  0  0  0  0  0  0  0  0  0  0
   -1.4718   -1.5435    0.6595 C   0  0  0  0  0  0  0  0  0  0  0  0
   -2.6558    0.6400    0.2647 C   0  0  0  0  0  0  0  0  0  0  0  0
    1.0359    0.6476    0.0314 C   0  0  0  0  0  3  0  0  0  0  0  0
    1.8576    1.4246    1.0158 C   0  0  0  0  0  0  0  0  0  0  0  0
    1.8340   -0.4601   -0.5818 C   0  0  0  0  0  0  0  0  0  0  0  0
   -1.4538   -0.5062   -1.6127 C   0  0  0  0  0  0  0  0  0  0  0  0
    2.8082    2.2756    0.6194 C   0  0  0  0  0  0  0  0  0  0  0  0
    1.5786   -1.7320   -0.2741 C   0  0  0  0  0  0  0  0  0  0  0  0
   -0.3754    0.3968    0.1881 H   0  0  0  0  0  0  0  0  0  0  0  0
   -1.4264   -1.3359    1.7497 H   0  0  0  0  0  0  0  0  0  0  0  0
   -0.5874   -2.1591    0.3888 H   0  0  0  0  0  0  0  0  0  0  0  0
   -2.3952   -2.1226    0.4411 H   0  0  0  0  0  0  0  0  0  0  0  0
   -2.6451    0.8351    1.3581 H   0  0  0  0  0  0  0  0  0  0  0  0
   -2.6082    1.6192   -0.2572 H   0  0  0  0  0  0  0  0  0  0  0  0
   -3.6093    0.1351   -0.0024 H   0  0  0  0  0  0  0  0  0  0  0  0
    0.6152    1.3122   -0.7532 H   0  0  0  0  0  0  0  0  0  0  0  0
    1.6670    1.2909    2.0757 H   0  0  0  0  0  0  0  0  0  0  0  0
    2.6404   -0.2235   -1.2699 H   0  0  0  0  0  0  0  0  0  0  0  0
   -1.6511   -1.5084   -1.9817 H   0  0  0  0  0  0  0  0  0  0  0  0
    3.0156    2.4286   -0.4355 H   0  0  0  0  0  0  0  0  0  0  0  0
    3.3858    2.8256    1.3551 H   0  0  0  0  0  0  0  0  0  0  0  0
    0.7829   -1.9892    0.4189 H   0  0  0  0  0  0  0  0  0  0  0  0
    2.1692   -2.5271   -0.7172 H   0  0  0  0  0  0  0  0  0  0  0  0
  1  8  2  0
  2  3  1  0
  2  4  1  0
  2  8  1  0
  2 11  1  0
  3 12  1  0
  3 13  1  0
  3 14  1  0
  4 15  1  0
  4 16  1  0
  4 17  1  0
  5  6  1  0
  5  7  1  0
  5 18  1  0
  6  9  2  3
  6 19  1  0
  7 10  2  3
  7 20  1  0
  8 21  1  0
  9 22  1  0
  9 23  1  0
 10 24  1  0
 10 25  1  0
M  RAD  1   5   2
M  END
>  <reaction>  (17) 
rxn_1152

>  <mol_properties>  (17) 
{"1": {"label": "*4", "atom_type": "Cd"}, "2": {"label": "*3", "atom_type": "Cs"}, "8": {"label": "*2", "atom_type": "H0"}, "14": {"label": "*0", "atom_type": "CS"}, "15": {"label": "*1", "atom_type": "Cs"}}

>  <type>  (17) 
unop_13

>  <geom_source>  (17) 
AutoTST

$$$$

     RDKit          3D

 25 23  0  0  0  0  0  0  0  0999 V2000
    0.3272   -2.2691   -0.8547 C   0  0  0  0  0  0  0  0  0  0  0  0
    0.3272   -2.2691    0.4685 C   0  0  0  0  0  0  0  0  0  0  0  0
    0.3272   -1.0433    1.3265 C   0  0  0  0  0  0  0  0  0  0  0  0
    1.5369   -0.8889    2.2077 C   0  0  0  0  0  0  0  0  0  0  0  0
    2.6481   -1.6046    2.1353 C   0  0  0  0  0  0  0  0  0  0  0  0
    0.3190   -3.1918   -1.4213 H   0  0  0  0  0  0  0  0  0  0  0  0
    0.3336   -1.3436   -1.4207 H   0  0  0  0  0  0  0  0  0  0  0  0
    0.3298   -3.2178    0.9990 H   0  0  0  0  0  0  0  0  0  0  0  0
    0.2071    0.0287    0.5760 H   0  0  0  0  0  0  0  0  0  0  0  0
   -0.5607   -1.0568    1.9693 H   0  0  0  0  0  0  0  0  0  0  0  0
    1.4643   -0.1039    2.9554 H   0  0  0  0  0  0  0  0  0  0  0  0
    2.7736   -2.3914    1.4004 H   0  0  0  0  0  0  0  0  0  0  0  0
    3.4763   -1.4203    2.8076 H   0  0  0  0  0  0  0  0  0  0  0  0
   -2.2554    0.9578   -1.6950 S   0  0  0  0  0  1  0  0  0  0  0  0
   -0.7114    0.6568   -1.3656 C   0  0  0  0  0  0  0  0  0  0  0  0
    0.0866    1.1045   -0.1772 C   0  0  0  0  0  0  0  0  0  0  0  0
    1.3010    1.9038   -0.6724 C   0  0  0  0  0  0  0  0  0  0  0  0
   -0.7015    1.8669    0.8740 C   0  0  0  0  0  0  0  0  0  0  0  0
   -0.1273    0.0685   -2.0774 H   0  0  0  0  0  0  0  0  0  0  0  0
    0.9773    2.8388   -1.1342 H   0  0  0  0  0  0  0  0  0  0  0  0
    1.9564    2.1464    0.1648 H   0  0  0  0  0  0  0  0  0  0  0  0
    1.8819    1.3435   -1.4072 H   0  0  0  0  0  0  0  0  0  0  0  0
   -0.0566    2.1074    1.7208 H   0  0  0  0  0  0  0  0  0  0  0  0
   -1.5495    1.2859    1.2363 H   0  0  0  0  0  0  0  0  0  0  0  0
   -1.0936    2.7994    0.4646 H   0  0  0  0  0  0  0  0  0  0  0  0
  1  2  2  3
  1  6  1  0
  1  7  1  0
  2  3  1  0
  2  8  1  0
  3  4  1  0
  3  9  1  0
  3 10  1  0
  4  5  2  3
  4 11  1  0
  5 12  1  0
  5 13  1  0
 14 15  1  0
 15 16  2  3
 15 19  1  0
 16 17  1  0
 16 18  1  0
 17 20  1  0
 17 21  1  0
 17 22  1  0
 18 23  1  0
 18 24  1  0
 18 25  1  0
M  RAD  1  14   2
M  END
>  <reaction>  (18) 
rxn_1152

>  <mol_properties>  (18) 
{"1": {"label": "*4", "atom_type": "Cd"}, "2": {"label": "*3", "atom_type": "Cs"}, "8": {"label": "*2", "atom_type": "H0"}, "14": {"label": "*0", "atom_type": "CS"}, "15": {"label": "*1", "atom_type": "Cs"}}

>  <type>  (18) 
unop_14

>  <geom_source>  (18) 
gaussian_log

$$$$
