
     RDKit          3D

  5  4  0  0  0  0  0  0  0  0999 V2000
    0.0000    0.0000    0.0000 C   0  0  0  0  0  0  0  0  0  0  0  0
   -0.6486   -0.7720   -0.4113 H   0  0  0  0  0  0  0  0  0  0  0  0
   -0.3482    0.9787   -0.3267 H   0  0  0  0  0  0  0  0  0  0  0  0
   -0.0223   -0.0487    1.0876 H   0  0  0  0  0  0  0  0  0  0  0  0
    1.0191   -0.1580   -0.3496 H   0  0  0  0  0  0  0  0  0  0  0  0
  1  2  1  0
  1  3  1  0
  1  4  1  0
  1  5  1  0
M  END
>  <reaction>  (1) 
rxn_866

>  <mol_properties>  (1) 
{"0": {"label": "donator", "atom_type": "Cs"}, "1": {"label": "d_hydrogen", "atom_type": "H0"}}

>  <type>  (1) 
r1h

$$$$

     RDKit          3D

  7  6  0  0  0  0  0  0  0  0999 V2000
   -0.6904   -0.9066   -0.0346 C   0  0  0  0  0  0  0  0  0  0  0  0
    0.1413    0.0254   -0.6161 C   0  0  0  0  0  0  0  0  0  0  0  0
    0.4603    0.1105   -1.9267 C   0  0  0  0  0  3  0  0  0  0  0  0
    0.8318    0.2180   -3.4201 S   0  0  0  0  0  0  0  0  0  0  0  0
   -0.8731   -0.8770    1.0287 H   0  0  0  0  0  0  0  0  0  0  0  0
   -1.1718   -1.6767   -0.6199 H   0  0  0  0  0  0  0  0  0  0  0  0
    0.6090    0.7866    0.0044 H   0  0  0  0  0  0  0  0  0  0  0  0
  1  2  2  3
  1  5  1  0
  1  6  1  0
  2  3  1  0
  2  7  1  0
  3  4  2  0
M  RAD  1   3   2
M  END
>  <reaction>  (2) 
rxn_866

>  <mol_properties>  (2) 
{"2": {"label": "acceptor", "atom_type": "CS"}}

>  <type>  (2) 
r2

$$$$

     RDKit          3D

  8  7  0  0  0  0  0  0  0  0999 V2000
   -1.1617    0.0338    0.5053 C   0  0  0  0  0  0  0  0  0  0  0  0
   -0.1023    0.4503   -0.1863 C   0  0  0  0  0  0  0  0  0  0  0  0
    1.0978   -0.3557   -0.3104 C   0  0  0  0  0  0  0  0  0  0  0  0
    2.4251    0.0667   -1.1256 S   0  0  0  0  0  0  0  0  0  0  0  0
   -1.1653   -0.9292    1.0039 H   0  0  0  0  0  0  0  0  0  0  0  0
   -2.0546    0.6389    0.5948 H   0  0  0  0  0  0  0  0  0  0  0  0
   -0.0991    1.4132   -0.6847 H   0  0  0  0  0  0  0  0  0  0  0  0
    1.0601   -1.3180    0.2032 H   0  0  0  0  0  0  0  0  0  0  0  0
  1  2  2  3
  1  5  1  0
  1  6  1  0
  2  3  1  0
  2  7  1  0
  3  4  2  0
  3  8  1  0
M  END
>  <reaction>  (3) 
rxn_866

>  <mol_properties>  (3) 
{"2": {"label": "acceptor", "atom_type": "CS"}, "7": {"label": "a_hydrogen", "atom_type": "H0"}}

>  <type>  (3) 
r2h

$$$$

     RDKit          3D

 12 10  0  0  0  0  0  0  0  0999 V2000
    0.2192    0.7721   -2.1945 C   0  0  0  0  0  0  0  0  0  0  0  0
    0.0019    1.0908   -0.9195 C   0  0  0  0  0  0  0  0  0  0  0  0
   -0.1759    0.0850    0.1073 C   0  0  0  0  0  0  0  0  0  0  0  0
   -0.4422    0.2911    1.6673 S   0  0  0  0  0  0  0  0  0  0  0  0
    0.3502    1.5355   -2.9506 H   0  0  0  0  0  0  0  0  0  0  0  0
    0.2718   -0.2612   -2.5151 H   0  0  0  0  0  0  0  0  0  0  0  0
   -0.0492    2.1298   -0.6068 H   0  0  0  0  0  0  0  0  0  0  0  0
   -0.0270   -2.4654   -0.7963 C   0  0  0  0  0  3  0  0  0  0  0  0
   -0.1005   -1.1129   -0.3493 H   0  0  0  0  0  0  0  0  0  0  0  0
    0.9705   -2.5772   -1.2102 H   0  0  0  0  0  0  0  0  0  0  0  0
   -0.1879   -2.9942    0.1377 H   0  0  0  0  0  0  0  0  0  0  0  0
   -0.8308   -2.5732   -1.5182 H   0  0  0  0  0  0  0  0  0  0  0  0
  1  2  2  3
  1  5  1  0
  1  6  1  0
  2  3  1  0
  2  7  1  0
  3  4  2  0
  3  9  1  0
  8 10  1  0
  8 11  1  0
  8 12  1  0
M  RAD  1   8   2
M  END
>  <reaction>  (4) 
rxn_866

>  <mol_properties>  (4) 
{"2": {"label": "*1", "atom_type": "CS"}, "3": {"label": "*0", "atom_type": "S2d"}, "7": {"label": "*3", "atom_type": "Cs"}, "8": {"label": "*2", "atom_type": "H0"}, "9": {"label": "*4", "atom_type": "H0"}}

>  <type>  (4) 
ts

$$$$

     RDKit          3D

 12 10  0  0  0  0  0  0  0  0999 V2000
   -2.3751    0.2061    0.3640 C   0  0  0  0  0  0  0  0  0  0  0  0
   -1.1386    0.5998    0.6643 C   0  0  0  0  0  0  0  0  0  0  0  0
    0.0012    0.2434   -0.1598 C   0  0  0  0  0  3  0  0  0  0  0  0
    1.5301    0.6742    0.1258 S   0  0  0  0  0  0  0  0  0  0  0  0
   -3.2220    0.4748    0.9821 H   0  0  0  0  0  0  0  0  0  0  0  0
   -2.5757   -0.3992   -0.5131 H   0  0  0  0  0  0  0  0  0  0  0  0
   -0.9384    1.2051    1.5413 H   0  0  0  0  0  0  0  0  0  0  0  0
    0.0012   -2.2235   -1.0319 C   0  0  0  0  0  0  0  0  0  0  0  0
    0.0012   -0.9915   -0.5964 H   0  0  0  0  0  0  0  0  0  0  0  0
    0.8903   -2.7369   -0.6690 H   0  0  0  0  0  0  0  0  0  0  0  0
   -0.8879   -2.7369   -0.6690 H   0  0  0  0  0  0  0  0  0  0  0  0
    0.0012   -2.2235   -2.1209 H   0  0  0  0  0  0  0  0  0  0  0  0
  1  2  2  3
  1  5  1  0
  1  6  1  0
  2  3  1  0
  2  7  1  0
  3  4  2  0
  8  9  1  0
  8 10  1  0
  8 11  1  0
  8 12  1  0
M  RAD  1   3   2
M  END
>  <reaction>  (5) 
rxn_866

>  <mol_properties>  (5) 
{"2": {"label": "*1", "atom_type": "CS"}, "3": {"label": "*0", "atom_type": "S2d"}, "7": {"label": "*3", "atom_type": "Cs"}, "8": {"label": "*2", "atom_type": "H0"}, "9": {"label": "*4", "atom_type": "H0"}}

>  <type>  (5) 
unop_1

>  <geom_source>  (5) 
Heuristics

$$$$

     RDKit          3D

 12 10  0  0  0  0  0  0  0  0999 V2000
   -0.7781    0.7905   -2.0814 C   0  0  0  0  0  0  0  0  0  0  0  0
   -0.5324    1.0585   -0.8001 C   0  0  0  0  0  0  0  0  0  0  0  0
    0.1257    0.1028    0.0709 C   0  0  0  0  0  3  0  0  0  0  0  0
    0.4630    0.3406    1.6312 S   0  0  0  0  0  0  0  0  0  0  0  0
   -1.2693    1.5070   -2.7270 H   0  0  0  0  0  0  0  0  0  0  0  0
   -0.4932   -0.1582   -2.5227 H   0  0  0  0  0  0  0  0  0  0  0  0
   -0.8174    2.0072   -0.3592 H   0  0  0  0  0  0  0  0  0  0  0  0
    0.1257   -2.3641   -0.8012 C   0  0  0  0  0  0  0  0  0  0  0  0
    0.1257   -1.1321   -0.3657 H   0  0  0  0  0  0  0  0  0  0  0  0
    1.0148   -2.8775   -0.4383 H   0  0  0  0  0  0  0  0  0  0  0  0
   -0.7635   -2.8775   -0.4383 H   0  0  0  0  0  0  0  0  0  0  0  0
    0.1257   -2.3641   -1.8902 H   0  0  0  0  0  0  0  0  0  0  0  0
  1  2  2  3
  1  5  1  0
  1  6  1  0
  2  3  1  0
  2  7  1  0
  3  4  2  0
  8  9  1  0
  8 10  1  0
  8 11  1  0
  8 12  1  0
M  RAD  1   3   2
M  END
>  <reaction>  (6) 
rxn_866

>  <mol_properties>  (6) 
{"2": {"label": "*1", "atom_type": "CS"}, "3": {"label": "*0", "atom_type": "S2d"}, "7": {"label": "*3", "atom_type": "Cs"}, "8": {"label": "*2", "atom_type": "H0"}, "9": {"label": "*4", "atom_type": "H0"}}

>  <type>  (6) 
unop_2

>  <geom_source>  (6) 
Heuristics

$$$$

     RDKit          3D

 12 10  0  0  0  0  0  0  0  0999 V2000
   -1.7729   -0.3606    1.5526 C   0  0  0  0  0  0  0  0  0  0  0  0
   -0.7420    0.3905    1.1690 C   0  0  0  0  0  0  0  0  0  0  0  0
   -0.0839    0.1946   -0.1092 C   0  0  0  0  0  3  0  0  0  0  0  0
    1.1680    1.0543   -0.6555 S   0  0  0  0  0  0  0  0  0  0  0  0
   -2.2603   -0.2103    2.5072 H   0  0  0  0  0  0  0  0  0  0  0  0
   -2.1600   -1.1509    0.9190 H   0  0  0  0  0  0  0  0  0  0  0  0
   -0.3551    1.1807    1.8027 H   0  0  0  0  0  0  0  0  0  0  0  0
   -0.0839   -2.2722   -0.9814 C   0  0  0  0  0  0  0  0  0  0  0  0
   -0.0839   -1.0403   -0.5458 H   0  0  0  0  0  0  0  0  0  0  0  0
    0.8052   -2.7856   -0.6184 H   0  0  0  0  0  0  0  0  0  0  0  0
   -0.9730   -2.7856   -0.6184 H   0  0  0  0  0  0  0  0  0  0  0  0
   -0.0839   -2.2722   -2.0703 H   0  0  0  0  0  0  0  0  0  0  0  0
  1  2  2  3
  1  5  1  0
  1  6  1  0
  2  3  1  0
  2  7  1  0
  3  4  2  0
  8  9  1  0
  8 10  1  0
  8 11  1  0
  8 12  1  0
M  RAD  1   3   2
M  END
>  <reaction>  (7) 
rxn_866

>  <mol_properties>  (7) 
{"2": {"label": "*1", "atom_type": "CS"}, "3": {"label": "*0", "atom_type": "S2d"}, "7": {"label": "*3", "atom_type": "Cs"}, "8": {"label": "*2", "atom_type": "H0"}, "9": {"label": "*4", "atom_type": "H0"}}

>  <type>  (7) 
unop_3

>  <geom_source>  (7) 
Heuristics

$$$$

     RDKit          3D

 12 10  0  0  0  0  0  0  0  0999 V2000
    1.5762    0.7666   -1.6178 C   0  0  0  0  0  0  0  0  0  0  0  0
    0.9703    0.9636   -0.4481 C   0  0  0  0  0  0  0  0  0  0  0  0
   -0.1695    0.1684   -0.0312 C   0  0  0  0  0  3  0  0  0  0  0  0
   -0.9639    0.3359    1.3636 S   0  0  0  0  0  0  0  0  0  0  0  0
    2.4261    1.3626   -1.9240 H   0  0  0  0  0  0  0  0  0  0  0  0
    1.2371   -0.0003   -2.3052 H   0  0  0  0  0  0  0  0  0  0  0  0
    1.3097    1.7306    0.2391 H   0  0  0  0  0  0  0  0  0  0  0  0
   -0.1695   -2.2985   -0.9034 C   0  0  0  0  0  0  0  0  0  0  0  0
   -0.1695   -1.0665   -0.4678 H   0  0  0  0  0  0  0  0  0  0  0  0
    0.7196   -2.8118   -0.5404 H   0  0  0  0  0  0  0  0  0  0  0  0
   -1.0586   -2.8118   -0.5404 H   0  0  0  0  0  0  0  0  0  0  0  0
   -0.1695   -2.2985   -1.9924 H   0  0  0  0  0  0  0  0  0  0  0  0
  1  2  2  3
  1  5  1  0
  1  6  1  0
  2  3  1  0
  2  7  1  0
  3  4  2  0
  8  9  1  0
  8 10  1  0
  8 11  1  0
  8 12  1  0
M  RAD  1   3   2
M  END
>  <reaction>  (8) 
rxn_866

>  <mol_properties>  (8) 
{"2": {"label": "*1", "atom_type": "CS"}, "3": {"label": "*0", "atom_type": "S2d"}, "7": {"label": "*3", "atom_type": "Cs"}, "8": {"label": "*2", "atom_type": "H0"}, "9": {"label": "*4", "atom_type": "H0"}}

>  <type>  (8) 
unop_4

>  <geom_source>  (8) 
Heuristics

$$$$

     RDKit          3D

 12 10  0  0  0  0  0  0  0  0999 V2000
    0.0000   -0.7924    2.2079 C   0  0  0  0  0  0  0  0  0  0  0  0
    0.0000    0.2667    1.4001 C   0  0  0  0  0  0  0  0  0  0  0  0
    0.0000    0.1295   -0.0443 C   0  0  0  0  0  3  0  0  0  0  0  0
   -0.0000    1.3524   -1.0976 S   0  0  0  0  0  0  0  0  0  0  0  0
    0.0000   -0.6846    3.2848 H   0  0  0  0  0  0  0  0  0  0  0  0
    0.0000   -1.8020    1.8123 H   0  0  0  0  0  0  0  0  0  0  0  0
    0.0000    1.2761    1.7960 H   0  0  0  0  0  0  0  0  0  0  0  0
    0.0000   -2.3374   -0.9165 C   0  0  0  0  0  0  0  0  0  0  0  0
    0.0000   -1.1054   -0.4809 H   0  0  0  0  0  0  0  0  0  0  0  0
    0.8891   -2.8507   -0.5535 H   0  0  0  0  0  0  0  0  0  0  0  0
   -0.8891   -2.8507   -0.5535 H   0  0  0  0  0  0  0  0  0  0  0  0
    0.0000   -2.3374   -2.0054 H   0  0  0  0  0  0  0  0  0  0  0  0
  1  2  2  3
  1  5  1  0
  1  6  1  0
  2  3  1  0
  2  7  1  0
  3  4  2  0
  8  9  1  0
  8 10  1  0
  8 11  1  0
  8 12  1  0
M  RAD  1   3   2
M  END
>  <reaction>  (9) 
rxn_866

>  <mol_properties>  (9) 
{"2": {"label": "*1", "atom_type": "CS"}, "3": {"label": "*0", "atom_type": "S2d"}, "7": {"label": "*3", "atom_type": "Cs"}, "8": {"label": "*2", "atom_type": "H0"}, "9": {"label": "*4", "atom_type": "H0"}}

>  <type>  (9) 
unop_5

>  <geom_source>  (9) 
Heuristics

$$$$

     RDKit          3D

 12 10  0  0  0  0  0  0  0  0999 V2000
    2.2041    0.5848   -0.7716 C   0  0  0  0  0  0  0  0  0  0  0  0
    1.2013    0.8025    0.0776 C   0  0  0  0  0  0  0  0  0  0  0  0
   -0.1148    0.2266   -0.1260 C   0  0  0  0  0  3  0  0  0  0  0  0
   -1.3852    0.4353    0.8473 S   0  0  0  0  0  0  0  0  0  0  0  0
    3.1841    1.0168   -0.6151 H   0  0  0  0  0  0  0  0  0  0  0  0
    2.0720   -0.0348   -1.6516 H   0  0  0  0  0  0  0  0  0  0  0  0
    1.3338    1.4221    0.9574 H   0  0  0  0  0  0  0  0  0  0  0  0
   -0.1148   -2.2403   -0.9982 C   0  0  0  0  0  0  0  0  0  0  0  0
   -0.1148   -1.0083   -0.5626 H   0  0  0  0  0  0  0  0  0  0  0  0
    0.7743   -2.7536   -0.6352 H   0  0  0  0  0  0  0  0  0  0  0  0
   -1.0039   -2.7536   -0.6352 H   0  0  0  0  0  0  0  0  0  0  0  0
   -0.1148   -2.2403   -2.0871 H   0  0  0  0  0  0  0  0  0  0  0  0
  1  2  2  3
  1  5  1  0
  1  6  1  0
  2  3  1  0
  2  7  1  0
  3  4  2  0
  8  9  1  0
  8 10  1  0
  8 11  1  0
  8 12  1  0
M  RAD  1   3   2
M  END
>  <reaction>  (10) 
rxn_866

>  <mol_properties>  (10) 
{"2": {"label": "*1", "atom_type": "CS"}, "3": {"label": "*0", "atom_type": "S2d"}, "7": {"label": "*3", "atom_type": "Cs"}, "8": {"label": "*2", "atom_type": "H0"}, "9": {"label": "*4", "atom_type": "H0"}}

>  <type>  (10) 
unop_6

>  <geom_source>  (10) 
Heuristics

$$$$

     RDKit          3D

 12 10  0  0  0  0  0  0  0  0999 V2000
    2.3751    0.2061    0.3640 C   0  0  0  0  0  0  0  0  0  0  0  0
    1.1386    0.5998    0.6643 C   0  0  0  0  0  0  0  0  0  0  0  0
   -0.0012    0.2434   -0.1598 C   0  0  0  0  0  3  0  0  0  0  0  0
   -1.5301    0.6742    0.1258 S   0  0  0  0  0  0  0  0  0  0  0  0
    3.2220    0.4748    0.9821 H   0  0  0  0  0  0  0  0  0  0  0  0
    2.5757   -0.3992   -0.5131 H   0  0  0  0  0  0  0  0  0  0  0  0
    0.9384    1.2051    1.5413 H   0  0  0  0  0  0  0  0  0  0  0  0
   -0.0012   -2.2235   -1.0319 C   0  0  0  0  0  0  0  0  0  0  0  0
   -0.0012   -0.9915   -0.5964 H   0  0  0  0  0  0  0  0  0  0  0  0
    0.8879   -2.7369   -0.6690 H   0  0  0  0  0  0  0  0  0  0  0  0
   -0.8903   -2.7369   -0.6690 H   0  0  0  0  0  0  0  0  0  0  0  0
   -0.0012   -2.2235   -2.1209 H   0  0  0  0  0  0  0  0  0  0  0  0
  1  2  2  3
  1  5  1  0
  1  6  1  0
  2  3  1  0
  2  7  1  0
  3  4  2  0
  8  9  1  0
  8 10  1  0
  8 11  1  0
  8 12  1  0
M  RAD  1   3   2
M  END
>  <reaction>  (11) 
rxn_866

>  <mol_properties>  (11) 
{"2": {"label": "*1", "atom_type": "CS"}, "3": {"label": "*0", "atom_type": "S2d"}, "7": {"label": "*3", "atom_type": "Cs"}, "8": {"label": "*2", "atom_type": "H0"}, "9": {"label": "*4", "atom_type": "H0"}}

>  <type>  (11) 
unop_7

>  <geom_source>  (11) 
Heuristics

$$$$

     RDKit          3D

 12 10  0  0  0  0  0  0  0  0999 V2000
   -2.2041    0.5848   -0.7716 C   0  0  0  0  0  0  0  0  0  0  0  0
   -1.2013    0.8025    0.0776 C   0  0  0  0  0  0  0  0  0  0  0  0
    0.1148    0.2266   -0.1260 C   0  0  0  0  0  3  0  0  0  0  0  0
    1.3852    0.4353    0.8473 S   0  0  0  0  0  0  0  0  0  0  0  0
   -3.1841    1.0168   -0.6151 H   0  0  0  0  0  0  0  0  0  0  0  0
   -2.0720   -0.0348   -1.6516 H   0  0  0  0  0  0  0  0  0  0  0  0
   -1.3338    1.4221    0.9574 H   0  0  0  0  0  0  0  0  0  0  0  0
    0.1148   -2.2403   -0.9982 C   0  0  0  0  0  0  0  0  0  0  0  0
    0.1148   -1.0083   -0.5626 H   0  0  0  0  0  0  0  0  0  0  0  0
    1.0039   -2.7536   -0.6352 H   0  0  0  0  0  0  0  0  0  0  0  0
   -0.7743   -2.7536   -0.6352 H   0  0  0  0  0  0  0  0  0  0  0  0
    0.1148   -2.2403   -2.0871 H   0  0  0  0  0  0  0  0  0  0  0  0
  1  2  2  3
  1  5  1  0
  1  6  1  0
  2  3  1  0
  2  7  1  0
  3  4  2  0
  8  9  1  0
  8 10  1  0
  8 11  1  0
  8 12  1  0
M  RAD  1   3   2
M  END
>  <reaction>  (12) 
rxn_866

>  <mol_properties>  (12) 
{"2": {"label": "*1", "atom_type": "CS"}, "3": {"label": "*0", "atom_type": "S2d"}, "7": {"label": "*3", "atom_type": "Cs"}, "8": {"label": "*2", "atom_type": "H0"}, "9": {"label": "*4", "atom_type": "H0"}}

>  <type>  (12) 
unop_8

>  <geom_source>  (12) 
Heuristics

$$$$

     RDKit          3D

 12 10  0  0  0  0  0  0  0  0999 V2000
    0.7781    0.7905   -2.0814 C   0  0  0  0  0  0  0  0  0  0  0  0
    0.5324    1.0585   -0.8001 C   0  0  0  0  0  0  0  0  0  0  0  0
   -0.1257    0.1028    0.0709 C   0  0  0  0  0  3  0  0  0  0  0  0
   -0.4630    0.3406    1.6312 S   0  0  0  0  0  0  0  0  0  0  0  0
    1.2693    1.5070   -2.7270 H   0  0  0  0  0  0  0  0  0  0  0  0
    0.4932   -0.1582   -2.5227 H   0  0  0  0  0  0  0  0  0  0  0  0
    0.8174    2.0072   -0.3592 H   0  0  0  0  0  0  0  0  0  0  0  0
   -0.1257   -2.3641   -0.8012 C   0  0  0  0  0  0  0  0  0  0  0  0
   -0.1257   -1.1321   -0.3657 H   0  0  0  0  0  0  0  0  0  0  0  0
    0.7635   -2.8775   -0.4383 H   0  0  0  0  0  0  0  0  0  0  0  0
   -1.0148   -2.8775   -0.4383 H   0  0  0  0  0  0  0  0  0  0  0  0
   -0.1257   -2.3641   -1.8902 H   0  0  0  0  0  0  0  0  0  0  0  0
  1  2  2  3
  1  5  1  0
  1  6  1  0
  2  3  1  0
  2  7  1  0
  3  4  2  0
  8  9  1  0
  8 10  1  0
  8 11  1  0
  8 12  1  0
M  RAD  1   3   2
M  END
>  <reaction>  (13) 
rxn_866

>  <mol_properties>  (13) 
{"2": {"label": "*1", "atom_type": "CS"}, "3": {"label": "*0", "atom_type": "S2d"}, "7": {"label": "*3", "atom_type": "Cs"}, "8": {"label": "*2", "atom_type": "H0"}, "9": {"label": "*4", "atom_type": "H0"}}

>  <type>  (13) 
unop_9

>  <geom_source>  (13) 
Heuristics

$$$$

     RDKit          3D

 12 10  0  0  0  0  0  0  0  0999 V2000
   -1.5762    0.7666   -1.6178 C   0  0  0  0  0  0  0  0  0  0  0  0
   -0.9703    0.9636   -0.4481 C   0  0  0  0  0  0  0  0  0  0  0  0
    0.1695    0.1684   -0.0312 C   0  0  0  0  0  3  0  0  0  0  0  0
    0.9639    0.3359    1.3636 S   0  0  0  0  0  0  0  0  0  0  0  0
   -2.4262    1.3626   -1.9240 H   0  0  0  0  0  0  0  0  0  0  0  0
   -1.2371   -0.0003   -2.3052 H   0  0  0  0  0  0  0  0  0  0  0  0
   -1.3097    1.7306    0.2391 H   0  0  0  0  0  0  0  0  0  0  0  0
    0.1695   -2.2985   -0.9034 C   0  0  0  0  0  0  0  0  0  0  0  0
    0.1695   -1.0665   -0.4678 H   0  0  0  0  0  0  0  0  0  0  0  0
    1.0586   -2.8118   -0.5404 H   0  0  0  0  0  0  0  0  0  0  0  0
   -0.7196   -2.8118   -0.5404 H   0  0  0  0  0  0  0  0  0  0  0  0
    0.1695   -2.2985   -1.9924 H   0  0  0  0  0  0  0  0  0  0  0  0
  1  2  2  3
  1  5  1  0
  1  6  1  0
  2  3  1  0
  2  7  1  0
  3  4  2  0
  8  9  1  0
  8 10  1  0
  8 11  1  0
  8 12  1  0
M  RAD  1   3   2
M  END
>  <reaction>  (14) 
rxn_866

>  <mol_properties>  (14) 
{"2": {"label": "*1", "atom_type": "CS"}, "3": {"label": "*0", "atom_type": "S2d"}, "7": {"label": "*3", "atom_type": "Cs"}, "8": {"label": "*2", "atom_type": "H0"}, "9": {"label": "*4", "atom_type": "H0"}}

>  <type>  (14) 
unop_10

>  <geom_source>  (14) 
Heuristics

$$$$

     RDKit          3D

 12 10  0  0  0  0  0  0  0  0999 V2000
    1.7729   -0.3606    1.5526 C   0  0  0  0  0  0  0  0  0  0  0  0
    0.7420    0.3905    1.1690 C   0  0  0  0  0  0  0  0  0  0  0  0
    0.0839    0.1946   -0.1092 C   0  0  0  0  0  3  0  0  0  0  0  0
   -1.1680    1.0543   -0.6555 S   0  0  0  0  0  0  0  0  0  0  0  0
    2.2603   -0.2103    2.5072 H   0  0  0  0  0  0  0  0  0  0  0  0
    2.1600   -1.1509    0.9190 H   0  0  0  0  0  0  0  0  0  0  0  0
    0.3551    1.1807    1.8027 H   0  0  0  0  0  0  0  0  0  0  0  0
    0.0839   -2.2722   -0.9814 C   0  0  0  0  0  0  0  0  0  0  0  0
    0.0839   -1.0403   -0.5458 H   0  0  0  0  0  0  0  0  0  0  0  0
    0.9730   -2.7856   -0.6184 H   0  0  0  0  0  0  0  0  0  0  0  0
   -0.8052   -2.7856   -0.6184 H   0  0  0  0  0  0  0  0  0  0  0  0
    0.0839   -2.2722   -2.0703 H   0  0  0  0  0  0  0  0  0  0  0  0
  1  2  2  3
  1  5  1  0
  1  6  1  0
  2  3  1  0
  2  7  1  0
  3  4  2  0
  8  9  1  0
  8 10  1  0
  8 11  1  0
  8 12  1  0
M  RAD  1   3   2
M  END
>  <reaction>  (15) 
rxn_866

>  <mol_properties>  (15) 
{"2": {"label": "*1", "atom_type": "CS"}, "3": {"label": "*0", "atom_type": "S2d"}, "7": {"label": "*3", "atom_type": "Cs"}, "8": {"label": "*2", "atom_type": "H0"}, "9": {"label": "*4", "atom_type": "H0"}}

>  <type>  (15) 
unop_11

>  <geom_source>  (15) 
Heuristics

$$$$

     RDKit          3D

 12 10  0  0  0  0  0  0  0  0999 V2000
   -0.0000    0.7715   -2.2153 C   0  0  0  0  0  0  0  0  0  0  0  0
   -0.0000    1.0874   -0.9214 C   0  0  0  0  0  0  0  0  0  0  0  0
   -0.0000    0.0729    0.1159 C   0  0  0  0  0  3  0  0  0  0  0  0
    0.0000    0.3620    1.7037 S   0  0  0  0  0  0  0  0  0  0  0  0
   -0.0000    1.5322   -2.9852 H   0  0  0  0  0  0  0  0  0  0  0  0
   -0.0000   -0.2625   -2.5422 H   0  0  0  0  0  0  0  0  0  0  0  0
   -0.0000    2.1214   -0.5949 H   0  0  0  0  0  0  0  0  0  0  0  0
   -0.0000   -2.3940   -0.7563 C   0  0  0  0  0  0  0  0  0  0  0  0
   -0.0000   -1.1620   -0.3207 H   0  0  0  0  0  0  0  0  0  0  0  0
    0.8891   -2.9073   -0.3933 H   0  0  0  0  0  0  0  0  0  0  0  0
   -0.8891   -2.9073   -0.3933 H   0  0  0  0  0  0  0  0  0  0  0  0
   -0.0000   -2.3940   -1.8452 H   0  0  0  0  0  0  0  0  0  0  0  0
  1  2  2  3
  1  5  1  0
  1  6  1  0
  2  3  1  0
  2  7  1  0
  3  4  2  0
  8  9  1  0
  8 10  1  0
  8 11  1  0
  8 12  1  0
M  RAD  1   3   2
M  END
>  <reaction>  (16) 
rxn_866

>  <mol_properties>  (16) 
{"2": {"label": "*1", "atom_type": "CS"}, "3": {"label": "*0", "atom_type": "S2d"}, "7": {"label": "*3", "atom_type": "Cs"}, "8": {"label": "*2", "atom_type": "H0"}, "9": {"label": "*4", "atom_type": "H0"}}

>  <type>  (16) 
unop_12

>  <geom_source>  (16) 
Heuristics

$$$$

     RDKit          3D

 12 10  0  0  0  0  0  0  0  0999 V2000
    0.2744    2.6475   -0.9327 S   0  0  0  0  0  0  0  0  0  0  0  0
    1.3464    0.4505    0.1917 C   0  0  0  0  0  0  0  0  0  0  0  0
    1.3007   -0.8232    0.5672 C   0  0  0  0  0  0  0  0  0  0  0  0
    0.2038    1.0801   -0.4765 C   0  0  0  0  0  3  0  0  0  0  0  0
   -1.8311   -0.5556   -0.3734 C   0  0  0  0  0  0  0  0  0  0  0  0
    2.2426    1.0281    0.3840 H   0  0  0  0  0  0  0  0  0  0  0  0
    2.1534   -1.2725    1.0596 H   0  0  0  0  0  0  0  0  0  0  0  0
    0.4207   -1.4293    0.3904 H   0  0  0  0  0  0  0  0  0  0  0  0
   -0.9539    0.3490   -0.7297 H   0  0  0  0  0  0  0  0  0  0  0  0
   -2.5651   -0.9864    0.3382 H   0  0  0  0  0  0  0  0  0  0  0  0
   -1.7524    0.5383   -0.2065 H   0  0  0  0  0  0  0  0  0  0  0  0
   -0.8396   -1.0265   -0.2123 H   0  0  0  0  0  0  0  0  0  0  0  0
  1  4  2  0
  2  3  2  3
  2  4  1  0
  2  6  1  0
  3  7  1  0
  3  8  1  0
  5  9  1  0
  5 10  1  0
  5 11  1  0
  5 12  1  0
M  RAD  1   4   2
M  END
>  <reaction>  (17) 
rxn_866

>  <mol_properties>  (17) 
{"2": {"label": "*1", "atom_type": "CS"}, "3": {"label": "*0", "atom_type": "S2d"}, "7": {"label": "*3", "atom_type": "Cs"}, "8": {"label": "*2", "atom_type": "H0"}, "9": {"label": "*4", "atom_type": "H0"}}

>  <type>  (17) 
unop_13

>  <geom_source>  (17) 
AutoTST

$$$$
