
     RDKit          3D

 10  9  0  0  0  0  0  0  0  0999 V2000
    2.2738    0.0217   -0.0992 C   0  0  0  0  0  0  0  0  0  0  0  0
    1.1083    0.2960   -0.0695 C   0  0  0  0  0  0  0  0  0  0  0  0
   -0.3173    0.6046   -0.0227 C   0  0  0  0  0  0  0  0  0  0  0  0
   -1.1561   -0.5495    0.5292 C   0  0  0  0  0  0  0  0  0  0  0  0
    3.3097   -0.2166   -0.1277 H   0  0  0  0  0  0  0  0  0  0  0  0
   -0.6542    0.8617   -1.0302 H   0  0  0  0  0  0  0  0  0  0  0  0
   -0.4633    1.4978    0.5900 H   0  0  0  0  0  0  0  0  0  0  0  0
   -0.8485   -0.7997    1.5447 H   0  0  0  0  0  0  0  0  0  0  0  0
   -2.2115   -0.2752    0.5459 H   0  0  0  0  0  0  0  0  0  0  0  0
   -1.0409   -1.4407   -0.0879 H   0  0  0  0  0  0  0  0  0  0  0  0
  1  2  3  0
  1  5  1  0
  2  3  1  0
  3  4  1  0
  3  6  1  0
  3  7  1  0
  4  8  1  0
  4  9  1  0
  4 10  1  0
M  END
>  <reaction>  (1) 
rxn_1265

>  <mol_properties>  (1) 
{"2": {"label": "donator", "atom_type": "Cs"}, "5": {"label": "d_hydrogen", "atom_type": "H0"}}

>  <type>  (1) 
r1h

$$$$

     RDKit          3D

 12 11  0  0  0  0  0  0  0  0999 V2000
   -2.3791    0.4612   -0.5870 C   0  0  0  0  0  0  0  0  0  0  0  0
   -1.3422   -0.3138   -0.1893 C   0  0  0  0  0  0  0  0  0  0  0  0
   -1.4723   -1.6058    0.3589 C   0  0  0  0  0  3  0  0  0  0  0  0
   -0.3798   -2.3973    0.7671 C   0  0  0  0  0  0  0  0  0  0  0  0
   -0.4849   -3.6397    1.2956 C   0  0  0  0  0  0  0  0  0  0  0  0
   -2.2205    1.4472   -1.0017 H   0  0  0  0  0  0  0  0  0  0  0  0
   -3.4026    0.1153   -0.5011 H   0  0  0  0  0  0  0  0  0  0  0  0
   -0.3330    0.0765   -0.2952 H   0  0  0  0  0  0  0  0  0  0  0  0
   -2.4723   -2.0151    0.4735 H   0  0  0  0  0  0  0  0  0  0  0  0
    0.6117   -1.9687    0.6436 H   0  0  0  0  0  0  0  0  0  0  0  0
    0.3893   -4.2030    1.5920 H   0  0  0  0  0  0  0  0  0  0  0  0
   -1.4516   -4.1084    1.4378 H   0  0  0  0  0  0  0  0  0  0  0  0
  1  2  2  3
  1  6  1  0
  1  7  1  0
  2  3  1  0
  2  8  1  0
  3  4  1  0
  3  9  1  0
  4  5  2  3
  4 10  1  0
  5 11  1  0
  5 12  1  0
M  RAD  1   3   2
M  END
>  <reaction>  (2) 
rxn_1265

>  <mol_properties>  (2) 
{"2": {"label": "acceptor", "atom_type": "Cs"}}

>  <type>  (2) 
r2

$$$$

     RDKit          3D

 13 12  0  0  0  0  0  0  0  0999 V2000
    3.0977   -0.3549   -0.5105 C   0  0  0  0  0  0  0  0  0  0  0  0
    2.0556    0.4221   -0.2627 C   0  0  0  0  0  0  0  0  0  0  0  0
    0.6313   -0.0354   -0.2366 C   0  0  0  0  0  0  0  0  0  0  0  0
   -0.2567    0.6038   -1.2694 C   0  0  0  0  0  0  0  0  0  0  0  0
    0.1459    1.3456   -2.2891 C   0  0  0  0  0  0  0  0  0  0  0  0
    4.1081    0.0344   -0.5074 H   0  0  0  0  0  0  0  0  0  0  0  0
    2.9777   -1.4116   -0.7243 H   0  0  0  0  0  0  0  0  0  0  0  0
    2.2171    1.4781   -0.0618 H   0  0  0  0  0  0  0  0  0  0  0  0
    0.5865   -1.1233   -0.3540 H   0  0  0  0  0  0  0  0  0  0  0  0
    0.2065    0.1743    0.7521 H   0  0  0  0  0  0  0  0  0  0  0  0
   -1.3190    0.4126   -1.1445 H   0  0  0  0  0  0  0  0  0  0  0  0
    1.1948    1.5564   -2.4628 H   0  0  0  0  0  0  0  0  0  0  0  0
   -0.5644    1.7621   -2.9918 H   0  0  0  0  0  0  0  0  0  0  0  0
  1  2  2  3
  1  6  1  0
  1  7  1  0
  2  3  1  0
  2  8  1  0
  3  4  1  0
  3  9  1  0
  3 10  1  0
  4  5  2  3
  4 11  1  0
  5 12  1  0
  5 13  1  0
M  END
>  <reaction>  (3) 
rxn_1265

>  <mol_properties>  (3) 
{"0": {"label": "a_hydrogen", "atom_type": "H0"}, "3": {"label": "acceptor", "atom_type": "Cs"}}

>  <type>  (3) 
r2h

$$$$

     RDKit          3D

 22 20  0  0  0  0  0  0  0  0999 V2000
   -3.4868    0.1814    0.3341 C   0  0  0  0  0  0  0  0  0  0  0  0
   -2.4305    0.7393    0.1785 C   0  0  0  0  0  0  0  0  0  0  0  0
   -1.1518    1.3249    0.0097 C   0  0  0  0  0  3  0  0  0  0  0  0
   -0.5830    1.4052   -1.3842 C   0  0  0  0  0  0  0  0  0  0  0  0
   -4.4312   -0.2892    0.4647 H   0  0  0  0  0  0  0  0  0  0  0  0
   -0.2681    0.4080    0.6147 H   0  0  0  0  0  0  0  0  0  0  0  0
   -0.9711    2.1948    0.6380 H   0  0  0  0  0  0  0  0  0  0  0  0
   -1.1438    2.1121   -2.0011 H   0  0  0  0  0  0  0  0  0  0  0  0
    0.4560    1.7360   -1.3484 H   0  0  0  0  0  0  0  0  0  0  0  0
   -0.6207    0.4290   -1.8701 H   0  0  0  0  0  0  0  0  0  0  0  0
    2.6290    0.8402    1.5962 C   0  0  0  0  0  0  0  0  0  0  0  0
    1.9054    0.1085    0.7519 C   0  0  0  0  0  0  0  0  0  0  0  0
    0.5901   -0.4588    1.0623 C   0  0  0  0  0  0  0  0  0  0  0  0
    0.1438   -1.7038    0.4195 C   0  0  0  0  0  0  0  0  0  0  0  0
    0.7723   -2.3839   -0.5373 C   0  0  0  0  0  0  0  0  0  0  0  0
    3.5774    1.2701    1.3015 H   0  0  0  0  0  0  0  0  0  0  0  0
    2.2981    1.0242    2.6126 H   0  0  0  0  0  0  0  0  0  0  0  0
    2.2793   -0.0437   -0.2562 H   0  0  0  0  0  0  0  0  0  0  0  0
    0.3344   -0.4095    2.1213 H   0  0  0  0  0  0  0  0  0  0  0  0
   -0.8262   -2.0607    0.7531 H   0  0  0  0  0  0  0  0  0  0  0  0
    0.3285   -3.2728   -0.9660 H   0  0  0  0  0  0  0  0  0  0  0  0
    1.7468   -2.0967   -0.9125 H   0  0  0  0  0  0  0  0  0  0  0  0
  1  2  3  0
  1  5  1  0
  2  3  1  0
  3  4  1  0
  3  7  1  0
  4  8  1  0
  4  9  1  0
  4 10  1  0
  6 13  1  0
 11 12  2  3
 11 16  1  0
 11 17  1  0
 12 13  1  0
 12 18  1  0
 13 14  1  0
 13 19  1  0
 14 15  2  3
 14 20  1  0
 15 21  1  0
 15 22  1  0
M  RAD  1   3   2
M  END
>  <reaction>  (4) 
rxn_1265

>  <mol_properties>  (4) 
{"1": {"label": "*4", "atom_type": "Ct"}, "2": {"label": "*3", "atom_type": "Cs"}, "5": {"label": "*2", "atom_type": "H0"}, "11": {"label": "*0", "atom_type": "Cd"}, "12": {"label": "*1", "atom_type": "Cs"}}

>  <type>  (4) 
ts

$$$$

     RDKit          3D

 22 20  0  0  0  0  0  0  0  0999 V2000
   -1.6336    0.6113   -3.0405 C   0  0  0  0  0  0  0  0  0  0  0  0
   -1.6336    0.6113   -1.8428 C   0  0  0  0  0  0  0  0  0  0  0  0
   -1.6336    0.6395   -0.3837 C   0  0  0  0  0  0  0  0  0  0  0  0
   -1.6335    2.0609    0.1819 C   0  0  0  0  0  0  0  0  0  0  0  0
   -1.6336    0.6113   -4.1038 H   0  0  0  0  0  0  0  0  0  0  0  0
   -0.5830   -0.0146    0.0504 H   0  0  0  0  0  0  0  0  0  0  0  0
   -2.5091    0.0944   -0.0219 H   0  0  0  0  0  0  0  0  0  0  0  0
   -2.5158    2.6087   -0.1495 H   0  0  0  0  0  0  0  0  0  0  0  0
   -1.6335    2.0336    1.2722 H   0  0  0  0  0  0  0  0  0  0  0  0
   -0.7513    2.6087   -0.1495 H   0  0  0  0  0  0  0  0  0  0  0  0
    1.1214    0.5553    2.5676 C   0  0  0  0  0  0  0  0  0  0  0  0
    1.3229    0.2560    1.2945 C   0  0  0  0  0  0  0  0  0  0  0  0
    0.4709   -0.6708    0.4858 C   0  0  0  0  0  3  0  0  0  0  0  0
    1.1806   -1.8929   -0.0304 C   0  0  0  0  0  0  0  0  0  0  0  0
    2.3857   -2.3034    0.3322 C   0  0  0  0  0  0  0  0  0  0  0  0
    1.7701    1.2413    3.0978 H   0  0  0  0  0  0  0  0  0  0  0  0
    0.2970    0.1254    3.1265 H   0  0  0  0  0  0  0  0  0  0  0  0
    2.1657    0.7010    0.7718 H   0  0  0  0  0  0  0  0  0  0  0  0
   -0.3983   -0.9862    1.0725 H   0  0  0  0  0  0  0  0  0  0  0  0
    0.6232   -2.4753   -0.7589 H   0  0  0  0  0  0  0  0  0  0  0  0
    2.8191   -3.2027   -0.0866 H   0  0  0  0  0  0  0  0  0  0  0  0
    2.9771   -1.7634    1.0626 H   0  0  0  0  0  0  0  0  0  0  0  0
  1  2  3  0
  1  5  1  0
  2  3  1  0
  3  4  1  0
  3  6  1  0
  3  7  1  0
  4  8  1  0
  4  9  1  0
  4 10  1  0
 11 12  2  3
 11 16  1  0
 11 17  1  0
 12 13  1  0
 12 18  1  0
 13 14  1  0
 13 19  1  0
 14 15  2  3
 14 20  1  0
 15 21  1  0
 15 22  1  0
M  RAD  1  13   2
M  END
>  <reaction>  (5) 
rxn_1265

>  <mol_properties>  (5) 
{"1": {"label": "*4", "atom_type": "Ct"}, "2": {"label": "*3", "atom_type": "Cs"}, "5": {"label": "*2", "atom_type": "H0"}, "11": {"label": "*0", "atom_type": "Cd"}, "12": {"label": "*1", "atom_type": "Cs"}}

>  <type>  (5) 
unop_1

>  <geom_source>  (5) 
Heuristics

$$$$

     RDKit          3D

 22 20  0  0  0  0  0  0  0  0999 V2000
   -1.6094    0.8286   -2.6995 C   0  0  0  0  0  0  0  0  0  0  0  0
   -1.6094    0.8286   -1.5018 C   0  0  0  0  0  0  0  0  0  0  0  0
   -1.6094    0.8569   -0.0426 C   0  0  0  0  0  0  0  0  0  0  0  0
   -1.6093    2.2782    0.5230 C   0  0  0  0  0  0  0  0  0  0  0  0
   -1.6094    0.8286   -3.7628 H   0  0  0  0  0  0  0  0  0  0  0  0
   -0.5588    0.2028    0.3914 H   0  0  0  0  0  0  0  0  0  0  0  0
   -2.4849    0.3118    0.3191 H   0  0  0  0  0  0  0  0  0  0  0  0
   -2.4916    2.8261    0.1915 H   0  0  0  0  0  0  0  0  0  0  0  0
   -1.6093    2.2509    1.6133 H   0  0  0  0  0  0  0  0  0  0  0  0
   -0.7271    2.8261    0.1915 H   0  0  0  0  0  0  0  0  0  0  0  0
    2.6425    0.4709   -0.0647 C   0  0  0  0  0  0  0  0  0  0  0  0
    1.5960   -0.3309   -0.1790 C   0  0  0  0  0  0  0  0  0  0  0  0
    0.4951   -0.4534    0.8268 C   0  0  0  0  0  3  0  0  0  0  0  0
    0.3569   -1.8161    1.4495 C   0  0  0  0  0  0  0  0  0  0  0  0
    1.2229   -2.8114    1.3422 C   0  0  0  0  0  0  0  0  0  0  0  0
    3.4044    0.5210   -0.8325 H   0  0  0  0  0  0  0  0  0  0  0  0
    2.7743    1.1093    0.8024 H   0  0  0  0  0  0  0  0  0  0  0  0
    1.5048   -0.9618   -1.0594 H   0  0  0  0  0  0  0  0  0  0  0  0
    0.6312    0.2879    1.6213 H   0  0  0  0  0  0  0  0  0  0  0  0
   -0.5417   -1.9618    2.0427 H   0  0  0  0  0  0  0  0  0  0  0  0
    1.0466   -3.7607    1.8317 H   0  0  0  0  0  0  0  0  0  0  0  0
    2.1387   -2.7124    0.7708 H   0  0  0  0  0  0  0  0  0  0  0  0
  1  2  3  0
  1  5  1  0
  2  3  1  0
  3  4  1  0
  3  6  1  0
  3  7  1  0
  4  8  1  0
  4  9  1  0
  4 10  1  0
 11 12  2  3
 11 16  1  0
 11 17  1  0
 12 13  1  0
 12 18  1  0
 13 14  1  0
 13 19  1  0
 14 15  2  3
 14 20  1  0
 15 21  1  0
 15 22  1  0
M  RAD  1  13   2
M  END
>  <reaction>  (6) 
rxn_1265

>  <mol_properties>  (6) 
{"1": {"label": "*4", "atom_type": "Ct"}, "2": {"label": "*3", "atom_type": "Cs"}, "5": {"label": "*2", "atom_type": "H0"}, "11": {"label": "*0", "atom_type": "Cd"}, "12": {"label": "*1", "atom_type": "Cs"}}

>  <type>  (6) 
unop_2

>  <geom_source>  (6) 
Heuristics

$$$$

     RDKit          3D

 22 20  0  0  0  0  0  0  0  0999 V2000
   -1.6157    0.6052   -3.0718 C   0  0  0  0  0  0  0  0  0  0  0  0
   -1.6157    0.6052   -1.8741 C   0  0  0  0  0  0  0  0  0  0  0  0
   -1.6157    0.6334   -0.4150 C   0  0  0  0  0  0  0  0  0  0  0  0
   -1.6157    2.0548    0.1506 C   0  0  0  0  0  0  0  0  0  0  0  0
   -1.6157    0.6052   -4.1351 H   0  0  0  0  0  0  0  0  0  0  0  0
   -0.5651   -0.0207    0.0191 H   0  0  0  0  0  0  0  0  0  0  0  0
   -2.4912    0.0883   -0.0533 H   0  0  0  0  0  0  0  0  0  0  0  0
   -2.4979    2.6027   -0.1808 H   0  0  0  0  0  0  0  0  0  0  0  0
   -1.6157    2.0275    1.2409 H   0  0  0  0  0  0  0  0  0  0  0  0
   -0.7335    2.6026   -0.1808 H   0  0  0  0  0  0  0  0  0  0  0  0
    0.5481   -0.5266    2.9513 C   0  0  0  0  0  0  0  0  0  0  0  0
    0.9239   -0.0898    1.7601 C   0  0  0  0  0  0  0  0  0  0  0  0
    0.4887   -0.6768    0.4545 C   0  0  0  0  0  3  0  0  0  0  0  0
    1.6003   -1.2482   -0.3832 C   0  0  0  0  0  0  0  0  0  0  0  0
    2.8458   -1.4553    0.0143 C   0  0  0  0  0  0  0  0  0  0  0  0
    0.8918   -0.0534    3.8626 H   0  0  0  0  0  0  0  0  0  0  0  0
   -0.1203   -1.3743    3.0583 H   0  0  0  0  0  0  0  0  0  0  0  0
    1.6021    0.7572    1.6954 H   0  0  0  0  0  0  0  0  0  0  0  0
   -0.2620   -1.4552    0.6270 H   0  0  0  0  0  0  0  0  0  0  0  0
    1.3210   -1.5135   -1.3992 H   0  0  0  0  0  0  0  0  0  0  0  0
    3.5829   -1.8795   -0.6555 H   0  0  0  0  0  0  0  0  0  0  0  0
    3.1711   -1.2174    1.0206 H   0  0  0  0  0  0  0  0  0  0  0  0
  1  2  3  0
  1  5  1  0
  2  3  1  0
  3  4  1  0
  3  6  1  0
  3  7  1  0
  4  8  1  0
  4  9  1  0
  4 10  1  0
 11 12  2  3
 11 16  1  0
 11 17  1  0
 12 13  1  0
 12 18  1  0
 13 14  1  0
 13 19  1  0
 14 15  2  3
 14 20  1  0
 15 21  1  0
 15 22  1  0
M  RAD  1  13   2
M  END
>  <reaction>  (7) 
rxn_1265

>  <mol_properties>  (7) 
{"1": {"label": "*4", "atom_type": "Ct"}, "2": {"label": "*3", "atom_type": "Cs"}, "5": {"label": "*2", "atom_type": "H0"}, "11": {"label": "*0", "atom_type": "Cd"}, "12": {"label": "*1", "atom_type": "Cs"}}

>  <type>  (7) 
unop_3

>  <geom_source>  (7) 
Heuristics

$$$$

     RDKit          3D

 22 20  0  0  0  0  0  0  0  0999 V2000
   -1.0780    0.9907   -3.0458 C   0  0  0  0  0  0  0  0  0  0  0  0
   -1.0780    0.9907   -1.8481 C   0  0  0  0  0  0  0  0  0  0  0  0
   -1.0780    1.0190   -0.3889 C   0  0  0  0  0  0  0  0  0  0  0  0
   -1.0780    2.4403    0.1767 C   0  0  0  0  0  0  0  0  0  0  0  0
   -1.0780    0.9907   -4.1091 H   0  0  0  0  0  0  0  0  0  0  0  0
   -0.0274    0.3649    0.0451 H   0  0  0  0  0  0  0  0  0  0  0  0
   -1.9535    0.4739   -0.0272 H   0  0  0  0  0  0  0  0  0  0  0  0
   -1.9602    2.9882   -0.1548 H   0  0  0  0  0  0  0  0  0  0  0  0
   -1.0780    2.4130    1.2669 H   0  0  0  0  0  0  0  0  0  0  0  0
   -0.1958    2.9882   -0.1548 H   0  0  0  0  0  0  0  0  0  0  0  0
    2.0022   -2.4870   -0.2175 C   0  0  0  0  0  0  0  0  0  0  0  0
    0.9562   -1.7048   -0.0052 C   0  0  0  0  0  0  0  0  0  0  0  0
    1.0264   -0.2913    0.4805 C   0  0  0  0  0  3  0  0  0  0  0  0
    0.3646   -0.0462    1.8093 C   0  0  0  0  0  0  0  0  0  0  0  0
   -0.0698   -0.9764    2.6448 C   0  0  0  0  0  0  0  0  0  0  0  0
    1.8870   -3.5014   -0.5782 H   0  0  0  0  0  0  0  0  0  0  0  0
    3.0143   -2.1394   -0.0396 H   0  0  0  0  0  0  0  0  0  0  0  0
   -0.0425   -2.0934   -0.1871 H   0  0  0  0  0  0  0  0  0  0  0  0
    2.0711    0.0317    0.5392 H   0  0  0  0  0  0  0  0  0  0  0  0
    0.2564    0.9996    2.0834 H   0  0  0  0  0  0  0  0  0  0  0  0
   -0.5296   -0.7098    3.5880 H   0  0  0  0  0  0  0  0  0  0  0  0
    0.0244   -2.0331    2.4221 H   0  0  0  0  0  0  0  0  0  0  0  0
  1  2  3  0
  1  5  1  0
  2  3  1  0
  3  4  1  0
  3  6  1  0
  3  7  1  0
  4  8  1  0
  4  9  1  0
  4 10  1  0
 11 12  2  3
 11 16  1  0
 11 17  1  0
 12 13  1  0
 12 18  1  0
 13 14  1  0
 13 19  1  0
 14 15  2  3
 14 20  1  0
 15 21  1  0
 15 22  1  0
M  RAD  1  13   2
M  END
>  <reaction>  (8) 
rxn_1265

>  <mol_properties>  (8) 
{"1": {"label": "*4", "atom_type": "Ct"}, "2": {"label": "*3", "atom_type": "Cs"}, "5": {"label": "*2", "atom_type": "H0"}, "11": {"label": "*0", "atom_type": "Cd"}, "12": {"label": "*1", "atom_type": "Cs"}}

>  <type>  (8) 
unop_4

>  <geom_source>  (8) 
Heuristics

$$$$

     RDKit          3D

 22 20  0  0  0  0  0  0  0  0999 V2000
   -1.5743    0.4783   -3.1323 C   0  0  0  0  0  0  0  0  0  0  0  0
   -1.5743    0.4783   -1.9346 C   0  0  0  0  0  0  0  0  0  0  0  0
   -1.5743    0.5065   -0.4755 C   0  0  0  0  0  0  0  0  0  0  0  0
   -1.5743    1.9279    0.0901 C   0  0  0  0  0  0  0  0  0  0  0  0
   -1.5743    0.4783   -4.1957 H   0  0  0  0  0  0  0  0  0  0  0  0
   -0.5237   -0.1476   -0.0414 H   0  0  0  0  0  0  0  0  0  0  0  0
   -2.4498   -0.0386   -0.1138 H   0  0  0  0  0  0  0  0  0  0  0  0
   -2.4565    2.4757   -0.2414 H   0  0  0  0  0  0  0  0  0  0  0  0
   -1.5743    1.9006    1.1804 H   0  0  0  0  0  0  0  0  0  0  0  0
   -0.6920    2.4757   -0.2414 H   0  0  0  0  0  0  0  0  0  0  0  0
    0.5174   -1.8500    2.6667 C   0  0  0  0  0  0  0  0  0  0  0  0
    0.5367   -0.7789    1.8900 C   0  0  0  0  0  0  0  0  0  0  0  0
    0.5301   -0.8038    0.3940 C   0  0  0  0  0  3  0  0  0  0  0  0
    1.7500   -0.2063   -0.2532 C   0  0  0  0  0  0  0  0  0  0  0  0
    2.8710    0.1318    0.3643 C   0  0  0  0  0  0  0  0  0  0  0  0
    0.5153   -1.7670    3.7464 H   0  0  0  0  0  0  0  0  0  0  0  0
    0.5011   -2.8514    2.2497 H   0  0  0  0  0  0  0  0  0  0  0  0
    0.5617    0.2072    2.3466 H   0  0  0  0  0  0  0  0  0  0  0  0
    0.4071   -1.8322    0.0383 H   0  0  0  0  0  0  0  0  0  0  0  0
    1.6761   -0.0603   -1.3273 H   0  0  0  0  0  0  0  0  0  0  0  0
    3.7059    0.5505   -0.1829 H   0  0  0  0  0  0  0  0  0  0  0  0
    2.9979   -0.0040    1.4322 H   0  0  0  0  0  0  0  0  0  0  0  0
  1  2  3  0
  1  5  1  0
  2  3  1  0
  3  4  1  0
  3  6  1  0
  3  7  1  0
  4  8  1  0
  4  9  1  0
  4 10  1  0
 11 12  2  3
 11 16  1  0
 11 17  1  0
 12 13  1  0
 12 18  1  0
 13 14  1  0
 13 19  1  0
 14 15  2  3
 14 20  1  0
 15 21  1  0
 15 22  1  0
M  RAD  1  13   2
M  END
>  <reaction>  (9) 
rxn_1265

>  <mol_properties>  (9) 
{"1": {"label": "*4", "atom_type": "Ct"}, "2": {"label": "*3", "atom_type": "Cs"}, "5": {"label": "*2", "atom_type": "H0"}, "11": {"label": "*0", "atom_type": "Cd"}, "12": {"label": "*1", "atom_type": "Cs"}}

>  <type>  (9) 
unop_5

>  <geom_source>  (9) 
Heuristics

$$$$

     RDKit          3D

 22 20  0  0  0  0  0  0  0  0999 V2000
   -1.0566    0.8117   -3.2272 C   0  0  0  0  0  0  0  0  0  0  0  0
   -1.0566    0.8117   -2.0295 C   0  0  0  0  0  0  0  0  0  0  0  0
   -1.0566    0.8399   -0.5704 C   0  0  0  0  0  0  0  0  0  0  0  0
   -1.0566    2.2613   -0.0047 C   0  0  0  0  0  0  0  0  0  0  0  0
   -1.0566    0.8117   -4.2905 H   0  0  0  0  0  0  0  0  0  0  0  0
   -0.0060    0.1858   -0.1363 H   0  0  0  0  0  0  0  0  0  0  0  0
   -1.9321    0.2949   -0.2086 H   0  0  0  0  0  0  0  0  0  0  0  0
   -1.9388    2.8092   -0.3362 H   0  0  0  0  0  0  0  0  0  0  0  0
   -1.0566    2.2340    1.0855 H   0  0  0  0  0  0  0  0  0  0  0  0
   -0.1743    2.8092   -0.3362 H   0  0  0  0  0  0  0  0  0  0  0  0
    1.5492   -2.9100    0.5378 C   0  0  0  0  0  0  0  0  0  0  0  0
    0.6844   -1.9099    0.4837 C   0  0  0  0  0  0  0  0  0  0  0  0
    1.0478   -0.4703    0.2991 C   0  0  0  0  0  3  0  0  0  0  0  0
    0.6679    0.4291    1.4439 C   0  0  0  0  0  0  0  0  0  0  0  0
    0.2488    0.0352    2.6361 C   0  0  0  0  0  0  0  0  0  0  0  0
    1.2233   -3.9346    0.6655 H   0  0  0  0  0  0  0  0  0  0  0  0
    2.6174   -2.7397    0.4543 H   0  0  0  0  0  0  0  0  0  0  0  0
   -0.3775   -2.1211    0.5804 H   0  0  0  0  0  0  0  0  0  0  0  0
    2.1236   -0.3774    0.1164 H   0  0  0  0  0  0  0  0  0  0  0  0
    0.7663    1.4928    1.2455 H   0  0  0  0  0  0  0  0  0  0  0  0
    0.0028    0.7539    3.4075 H   0  0  0  0  0  0  0  0  0  0  0  0
    0.1441   -1.0142    2.8866 H   0  0  0  0  0  0  0  0  0  0  0  0
  1  2  3  0
  1  5  1  0
  2  3  1  0
  3  4  1  0
  3  6  1  0
  3  7  1  0
  4  8  1  0
  4  9  1  0
  4 10  1  0
 11 12  2  3
 11 16  1  0
 11 17  1  0
 12 13  1  0
 12 18  1  0
 13 14  1  0
 13 19  1  0
 14 15  2  3
 14 20  1  0
 15 21  1  0
 15 22  1  0
M  RAD  1  13   2
M  END
>  <reaction>  (10) 
rxn_1265

>  <mol_properties>  (10) 
{"1": {"label": "*4", "atom_type": "Ct"}, "2": {"label": "*3", "atom_type": "Cs"}, "5": {"label": "*2", "atom_type": "H0"}, "11": {"label": "*0", "atom_type": "Cd"}, "12": {"label": "*1", "atom_type": "Cs"}}

>  <type>  (10) 
unop_6

>  <geom_source>  (10) 
Heuristics

$$$$

     RDKit          3D

 22 20  0  0  0  0  0  0  0  0999 V2000
   -1.1582    0.5900   -3.3173 C   0  0  0  0  0  0  0  0  0  0  0  0
   -1.1582    0.5900   -2.1196 C   0  0  0  0  0  0  0  0  0  0  0  0
   -1.1582    0.6182   -0.6605 C   0  0  0  0  0  0  0  0  0  0  0  0
   -1.1582    2.0396   -0.0949 C   0  0  0  0  0  0  0  0  0  0  0  0
   -1.1582    0.5900   -4.3806 H   0  0  0  0  0  0  0  0  0  0  0  0
   -0.1076   -0.0359   -0.2264 H   0  0  0  0  0  0  0  0  0  0  0  0
   -2.0337    0.0731   -0.2988 H   0  0  0  0  0  0  0  0  0  0  0  0
   -2.0404    2.5875   -0.4263 H   0  0  0  0  0  0  0  0  0  0  0  0
   -1.1582    2.0123    0.9954 H   0  0  0  0  0  0  0  0  0  0  0  0
   -0.2759    2.5874   -0.4263 H   0  0  0  0  0  0  0  0  0  0  0  0
    1.2179   -2.9064    1.3417 C   0  0  0  0  0  0  0  0  0  0  0  0
    0.4917   -1.8373    1.0578 C   0  0  0  0  0  0  0  0  0  0  0  0
    0.9463   -0.6920    0.2090 C   0  0  0  0  0  3  0  0  0  0  0  0
    1.0135    0.6328    0.9189 C   0  0  0  0  0  0  0  0  0  0  0  0
    0.9118    0.8210    2.2252 C   0  0  0  0  0  0  0  0  0  0  0  0
    0.8292   -3.7082    1.9570 H   0  0  0  0  0  0  0  0  0  0  0  0
    2.2294   -3.0195    0.9665 H   0  0  0  0  0  0  0  0  0  0  0  0
   -0.5148   -1.7574    1.4605 H   0  0  0  0  0  0  0  0  0  0  0  0
    1.9280   -0.9139   -0.2225 H   0  0  0  0  0  0  0  0  0  0  0  0
    1.1697    1.4930    0.2737 H   0  0  0  0  0  0  0  0  0  0  0  0
    0.9793    1.8128    2.6538 H   0  0  0  0  0  0  0  0  0  0  0  0
    0.7661   -0.0052    2.9115 H   0  0  0  0  0  0  0  0  0  0  0  0
  1  2  3  0
  1  5  1  0
  2  3  1  0
  3  4  1  0
  3  6  1  0
  3  7  1  0
  4  8  1  0
  4  9  1  0
  4 10  1  0
 11 12  2  3
 11 16  1  0
 11 17  1  0
 12 13  1  0
 12 18  1  0
 13 14  1  0
 13 19  1  0
 14 15  2  3
 14 20  1  0
 15 21  1  0
 15 22  1  0
M  RAD  1  13   2
M  END
>  <reaction>  (11) 
rxn_1265

>  <mol_properties>  (11) 
{"1": {"label": "*4", "atom_type": "Ct"}, "2": {"label": "*3", "atom_type": "Cs"}, "5": {"label": "*2", "atom_type": "H0"}, "11": {"label": "*0", "atom_type": "Cd"}, "12": {"label": "*1", "atom_type": "Cs"}}

>  <type>  (11) 
unop_7

>  <geom_source>  (11) 
Heuristics

$$$$

     RDKit          3D

 22 20  0  0  0  0  0  0  0  0999 V2000
   -1.6759    0.6063   -2.9454 C   0  0  0  0  0  0  0  0  0  0  0  0
   -1.6759    0.6063   -1.7477 C   0  0  0  0  0  0  0  0  0  0  0  0
   -1.6759    0.6345   -0.2886 C   0  0  0  0  0  0  0  0  0  0  0  0
   -1.6759    2.0559    0.2770 C   0  0  0  0  0  0  0  0  0  0  0  0
   -1.6759    0.6063   -4.0087 H   0  0  0  0  0  0  0  0  0  0  0  0
   -0.6253   -0.0196    0.1455 H   0  0  0  0  0  0  0  0  0  0  0  0
   -2.5514    0.0895    0.0731 H   0  0  0  0  0  0  0  0  0  0  0  0
   -2.5581    2.6038   -0.0544 H   0  0  0  0  0  0  0  0  0  0  0  0
   -1.6759    2.0286    1.3673 H   0  0  0  0  0  0  0  0  0  0  0  0
   -0.7936    2.6038   -0.0544 H   0  0  0  0  0  0  0  0  0  0  0  0
    1.7773    1.0736    1.7562 C   0  0  0  0  0  0  0  0  0  0  0  0
    1.5738    0.2772    0.7192 C   0  0  0  0  0  0  0  0  0  0  0  0
    0.4285   -0.6757    0.5809 C   0  0  0  0  0  3  0  0  0  0  0  0
    0.8202   -2.1257    0.4932 C   0  0  0  0  0  0  0  0  0  0  0  0
    2.0244   -2.6216    0.7301 C   0  0  0  0  0  0  0  0  0  0  0  0
    2.6227    1.7490    1.7946 H   0  0  0  0  0  0  0  0  0  0  0  0
    1.1027    1.0801    2.6058 H   0  0  0  0  0  0  0  0  0  0  0  0
    2.2779    0.2939   -0.1087 H   0  0  0  0  0  0  0  0  0  0  0  0
   -0.2679   -0.5458    1.4159 H   0  0  0  0  0  0  0  0  0  0  0  0
    0.0169   -2.8033    0.2170 H   0  0  0  0  0  0  0  0  0  0  0  0
    2.2170   -3.6839    0.6503 H   0  0  0  0  0  0  0  0  0  0  0  0
    2.8558   -1.9888    1.0188 H   0  0  0  0  0  0  0  0  0  0  0  0
  1  2  3  0
  1  5  1  0
  2  3  1  0
  3  4  1  0
  3  6  1  0
  3  7  1  0
  4  8  1  0
  4  9  1  0
  4 10  1  0
 11 12  2  3
 11 16  1  0
 11 17  1  0
 12 13  1  0
 12 18  1  0
 13 14  1  0
 13 19  1  0
 14 15  2  3
 14 20  1  0
 15 21  1  0
 15 22  1  0
M  RAD  1  13   2
M  END
>  <reaction>  (12) 
rxn_1265

>  <mol_properties>  (12) 
{"1": {"label": "*4", "atom_type": "Ct"}, "2": {"label": "*3", "atom_type": "Cs"}, "5": {"label": "*2", "atom_type": "H0"}, "11": {"label": "*0", "atom_type": "Cd"}, "12": {"label": "*1", "atom_type": "Cs"}}

>  <type>  (12) 
unop_8

>  <geom_source>  (12) 
Heuristics

$$$$

     RDKit          3D

 22 20  0  0  0  0  0  0  0  0999 V2000
   -1.2182    1.0630   -2.8420 C   0  0  0  0  0  0  0  0  0  0  0  0
   -1.2182    1.0630   -1.6443 C   0  0  0  0  0  0  0  0  0  0  0  0
   -1.2182    1.0912   -0.1852 C   0  0  0  0  0  0  0  0  0  0  0  0
   -1.2182    2.5126    0.3804 C   0  0  0  0  0  0  0  0  0  0  0  0
   -1.2182    1.0630   -3.9053 H   0  0  0  0  0  0  0  0  0  0  0  0
   -0.1677    0.4371    0.2489 H   0  0  0  0  0  0  0  0  0  0  0  0
   -2.0938    0.5461    0.1765 H   0  0  0  0  0  0  0  0  0  0  0  0
   -2.1005    3.0604    0.0490 H   0  0  0  0  0  0  0  0  0  0  0  0
   -1.2182    2.4853    1.4707 H   0  0  0  0  0  0  0  0  0  0  0  0
   -0.3360    3.0604    0.0490 H   0  0  0  0  0  0  0  0  0  0  0  0
    2.4618   -1.6152   -0.6680 C   0  0  0  0  0  0  0  0  0  0  0  0
    1.2328   -1.2928   -0.2984 C   0  0  0  0  0  0  0  0  0  0  0  0
    0.8862   -0.2190    0.6843 C   0  0  0  0  0  3  0  0  0  0  0  0
    0.1842   -0.7006    1.9248 C   0  0  0  0  0  0  0  0  0  0  0  0
    0.0434   -1.9627    2.2983 C   0  0  0  0  0  0  0  0  0  0  0  0
    2.6486   -2.3987   -1.3916 H   0  0  0  0  0  0  0  0  0  0  0  0
    3.3277   -1.1045   -0.2604 H   0  0  0  0  0  0  0  0  0  0  0  0
    0.3917   -1.8346   -0.7234 H   0  0  0  0  0  0  0  0  0  0  0  0
    1.7903    0.3254    0.9765 H   0  0  0  0  0  0  0  0  0  0  0  0
   -0.2255    0.0837    2.5554 H   0  0  0  0  0  0  0  0  0  0  0  0
   -0.4724   -2.2201    3.2145 H   0  0  0  0  0  0  0  0  0  0  0  0
    0.4431   -2.7803    1.7095 H   0  0  0  0  0  0  0  0  0  0  0  0
  1  2  3  0
  1  5  1  0
  2  3  1  0
  3  4  1  0
  3  6  1  0
  3  7  1  0
  4  8  1  0
  4  9  1  0
  4 10  1  0
 11 12  2  3
 11 16  1  0
 11 17  1  0
 12 13  1  0
 12 18  1  0
 13 14  1  0
 13 19  1  0
 14 15  2  3
 14 20  1  0
 15 21  1  0
 15 22  1  0
M  RAD  1  13   2
M  END
>  <reaction>  (13) 
rxn_1265

>  <mol_properties>  (13) 
{"1": {"label": "*4", "atom_type": "Ct"}, "2": {"label": "*3", "atom_type": "Cs"}, "5": {"label": "*2", "atom_type": "H0"}, "11": {"label": "*0", "atom_type": "Cd"}, "12": {"label": "*1", "atom_type": "Cs"}}

>  <type>  (13) 
unop_9

>  <geom_source>  (13) 
Heuristics

$$$$

     RDKit          3D

 22 20  0  0  0  0  0  0  0  0999 V2000
   -1.6867    0.6753   -2.8073 C   0  0  0  0  0  0  0  0  0  0  0  0
   -1.6867    0.6753   -1.6096 C   0  0  0  0  0  0  0  0  0  0  0  0
   -1.6867    0.7036   -0.1504 C   0  0  0  0  0  0  0  0  0  0  0  0
   -1.6867    2.1249    0.4152 C   0  0  0  0  0  0  0  0  0  0  0  0
   -1.6867    0.6753   -3.8706 H   0  0  0  0  0  0  0  0  0  0  0  0
   -0.6361    0.0495    0.2836 H   0  0  0  0  0  0  0  0  0  0  0  0
   -2.5622    0.1585    0.2113 H   0  0  0  0  0  0  0  0  0  0  0  0
   -2.5689    2.6728    0.0837 H   0  0  0  0  0  0  0  0  0  0  0  0
   -1.6867    2.0977    1.5055 H   0  0  0  0  0  0  0  0  0  0  0  0
   -0.8044    2.6728    0.0837 H   0  0  0  0  0  0  0  0  0  0  0  0
    2.3089    1.0297    0.7983 C   0  0  0  0  0  0  0  0  0  0  0  0
    1.6542    0.0518    0.1932 C   0  0  0  0  0  0  0  0  0  0  0  0
    0.4178   -0.6067    0.7190 C   0  0  0  0  0  3  0  0  0  0  0  0
    0.5601   -2.0756    1.0118 C   0  0  0  0  0  0  0  0  0  0  0  0
    1.6951   -2.7561    1.0417 C   0  0  0  0  0  0  0  0  0  0  0  0
    3.1958    1.4723    0.3623 H   0  0  0  0  0  0  0  0  0  0  0  0
    1.9796    1.4252    1.7532 H   0  0  0  0  0  0  0  0  0  0  0  0
    2.0214   -0.3230   -0.7587 H   0  0  0  0  0  0  0  0  0  0  0  0
    0.0793   -0.0949    1.6261 H   0  0  0  0  0  0  0  0  0  0  0  0
   -0.3707   -2.5949    1.2230 H   0  0  0  0  0  0  0  0  0  0  0  0
    1.7063   -3.8143    1.2695 H   0  0  0  0  0  0  0  0  0  0  0  0
    2.6504   -2.2818    0.8486 H   0  0  0  0  0  0  0  0  0  0  0  0
  1  2  3  0
  1  5  1  0
  2  3  1  0
  3  4  1  0
  3  6  1  0
  3  7  1  0
  4  8  1  0
  4  9  1  0
  4 10  1  0
 11 12  2  3
 11 16  1  0
 11 17  1  0
 12 13  1  0
 12 18  1  0
 13 14  1  0
 13 19  1  0
 14 15  2  3
 14 20  1  0
 15 21  1  0
 15 22  1  0
M  RAD  1  13   2
M  END
>  <reaction>  (14) 
rxn_1265

>  <mol_properties>  (14) 
{"1": {"label": "*4", "atom_type": "Ct"}, "2": {"label": "*3", "atom_type": "Cs"}, "5": {"label": "*2", "atom_type": "H0"}, "11": {"label": "*0", "atom_type": "Cd"}, "12": {"label": "*1", "atom_type": "Cs"}}

>  <type>  (14) 
unop_10

>  <geom_source>  (14) 
Heuristics

$$$$

     RDKit          3D

 22 20  0  0  0  0  0  0  0  0999 V2000
   -1.3663    0.4288   -3.2730 C   0  0  0  0  0  0  0  0  0  0  0  0
   -1.3663    0.4288   -2.0753 C   0  0  0  0  0  0  0  0  0  0  0  0
   -1.3663    0.4570   -0.6161 C   0  0  0  0  0  0  0  0  0  0  0  0
   -1.3662    1.8784   -0.0505 C   0  0  0  0  0  0  0  0  0  0  0  0
   -1.3663    0.4288   -4.3363 H   0  0  0  0  0  0  0  0  0  0  0  0
   -0.3157   -0.1971   -0.1821 H   0  0  0  0  0  0  0  0  0  0  0  0
   -2.2418   -0.0881   -0.2544 H   0  0  0  0  0  0  0  0  0  0  0  0
   -2.2485    2.4263   -0.3820 H   0  0  0  0  0  0  0  0  0  0  0  0
   -1.3662    1.8511    1.0397 H   0  0  0  0  0  0  0  0  0  0  0  0
   -0.4840    2.4262   -0.3820 H   0  0  0  0  0  0  0  0  0  0  0  0
    0.9241   -2.5977    2.0374 C   0  0  0  0  0  0  0  0  0  0  0  0
    0.4190   -1.4625    1.5821 C   0  0  0  0  0  0  0  0  0  0  0  0
    0.7382   -0.8532    0.2533 C   0  0  0  0  0  3  0  0  0  0  0  0
    1.4014    0.4957    0.3197 C   0  0  0  0  0  0  0  0  0  0  0  0
    1.8948    1.0668    1.4070 C   0  0  0  0  0  0  0  0  0  0  0  0
    0.6474   -2.9923    3.0070 H   0  0  0  0  0  0  0  0  0  0  0  0
    1.6332   -3.1757    1.4544 H   0  0  0  0  0  0  0  0  0  0  0  0
   -0.2820   -0.9079    2.2007 H   0  0  0  0  0  0  0  0  0  0  0  0
    1.3722   -1.5326   -0.3261 H   0  0  0  0  0  0  0  0  0  0  0  0
    1.4749    1.0193   -0.6296 H   0  0  0  0  0  0  0  0  0  0  0  0
    2.3640    2.0414    1.3624 H   0  0  0  0  0  0  0  0  0  0  0  0
    1.8554    0.5810    2.3752 H   0  0  0  0  0  0  0  0  0  0  0  0
  1  2  3  0
  1  5  1  0
  2  3  1  0
  3  4  1  0
  3  6  1  0
  3  7  1  0
  4  8  1  0
  4  9  1  0
  4 10  1  0
 11 12  2  3
 11 16  1  0
 11 17  1  0
 12 13  1  0
 12 18  1  0
 13 14  1  0
 13 19  1  0
 14 15  2  3
 14 20  1  0
 15 21  1  0
 15 22  1  0
M  RAD  1  13   2
M  END
>  <reaction>  (15) 
rxn_1265

>  <mol_properties>  (15) 
{"1": {"label": "*4", "atom_type": "Ct"}, "2": {"label": "*3", "atom_type": "Cs"}, "5": {"label": "*2", "atom_type": "H0"}, "11": {"label": "*0", "atom_type": "Cd"}, "12": {"label": "*1", "atom_type": "Cs"}}

>  <type>  (15) 
unop_11

>  <geom_source>  (15) 
Heuristics

$$$$

     RDKit          3D

 22 20  0  0  0  0  0  0  0  0999 V2000
   -1.4295    0.9948   -2.7042 C   0  0  0  0  0  0  0  0  0  0  0  0
   -1.4295    0.9948   -1.5065 C   0  0  0  0  0  0  0  0  0  0  0  0
   -1.4295    1.0231   -0.0474 C   0  0  0  0  0  0  0  0  0  0  0  0
   -1.4295    2.4445    0.5182 C   0  0  0  0  0  0  0  0  0  0  0  0
   -1.4295    0.9948   -3.7676 H   0  0  0  0  0  0  0  0  0  0  0  0
   -0.3789    0.3690    0.3867 H   0  0  0  0  0  0  0  0  0  0  0  0
   -2.3050    0.4780    0.3143 H   0  0  0  0  0  0  0  0  0  0  0  0
   -2.3117    2.9923    0.1868 H   0  0  0  0  0  0  0  0  0  0  0  0
   -1.4295    2.4172    1.6085 H   0  0  0  0  0  0  0  0  0  0  0  0
   -0.5473    2.9923    0.1868 H   0  0  0  0  0  0  0  0  0  0  0  0
    2.7125   -0.5015   -0.6142 C   0  0  0  0  0  0  0  0  0  0  0  0
    1.4502   -0.7987   -0.3510 C   0  0  0  0  0  0  0  0  0  0  0  0
    0.6749   -0.2872    0.8221 C   0  0  0  0  0  3  0  0  0  0  0  0
    0.2002   -1.3485    1.7770 C   0  0  0  0  0  0  0  0  0  0  0  0
    0.5751   -2.6180    1.7776 C   0  0  0  0  0  0  0  0  0  0  0  0
    3.2180   -0.8980   -1.4858 H   0  0  0  0  0  0  0  0  0  0  0  0
    3.2869    0.1523    0.0334 H   0  0  0  0  0  0  0  0  0  0  0  0
    0.9114   -1.4650   -1.0199 H   0  0  0  0  0  0  0  0  0  0  0  0
    1.2732    0.4453    1.3741 H   0  0  0  0  0  0  0  0  0  0  0  0
   -0.5071   -1.0082    2.5284 H   0  0  0  0  0  0  0  0  0  0  0  0
    0.1870   -3.3149    2.5094 H   0  0  0  0  0  0  0  0  0  0  0  0
    1.2858   -3.0038    1.0558 H   0  0  0  0  0  0  0  0  0  0  0  0
  1  2  3  0
  1  5  1  0
  2  3  1  0
  3  4  1  0
  3  6  1  0
  3  7  1  0
  4  8  1  0
  4  9  1  0
  4 10  1  0
 11 12  2  3
 11 16  1  0
 11 17  1  0
 12 13  1  0
 12 18  1  0
 13 14  1  0
 13 19  1  0
 14 15  2  3
 14 20  1  0
 15 21  1  0
 15 22  1  0
M  RAD  1  13   2
M  END
>  <reaction>  (16) 
rxn_1265

>  <mol_properties>  (16) 
{"1": {"label": "*4", "atom_type": "Ct"}, "2": {"label": "*3", "atom_type": "Cs"}, "5": {"label": "*2", "atom_type": "H0"}, "11": {"label": "*0", "atom_type": "Cd"}, "12": {"label": "*1", "atom_type": "Cs"}}

>  <type>  (16) 
unop_12

>  <geom_source>  (16) 
Heuristics

$$$$

     RDKit          3D

 22 20  0  0  0  0  0  0  0  0999 V2000
   -0.7469    0.1881   -0.1466 C   0  0  0  0  0  3  0  0  0  0  0  0
    2.2359   -1.2203    1.1421 C   0  0  0  0  0  0  0  0  0  0  0  0
   -1.3916    0.6487   -1.4225 C   0  0  0  0  0  0  0  0  0  0  0  0
   -1.5058   -0.9608    0.4532 C   0  0  0  0  0  0  0  0  0  0  0  0
    1.8338   -0.4803   -0.1254 C   0  0  0  0  0  0  0  0  0  0  0  0
   -2.4411    1.4756   -1.4253 C   0  0  0  0  0  0  0  0  0  0  0  0
   -2.6007   -0.7735    1.1957 C   0  0  0  0  0  0  0  0  0  0  0  0
    2.6203    0.7480   -0.2821 C   0  0  0  0  0  0  0  0  0  0  0  0
    3.2661    1.7577   -0.4117 C   0  0  0  0  0  0  0  0  0  0  0  0
   -0.6495    1.0261    0.5784 H   0  0  0  0  0  0  0  0  0  0  0  0
    0.5496   -0.2614   -0.4533 H   0  0  0  0  0  0  0  0  0  0  0  0
    2.0619   -0.5785    2.0320 H   0  0  0  0  0  0  0  0  0  0  0  0
    1.6193   -2.1377    1.2417 H   0  0  0  0  0  0  0  0  0  0  0  0
    3.3075   -1.5114    1.0985 H   0  0  0  0  0  0  0  0  0  0  0  0
   -0.9855    0.3029   -2.3680 H   0  0  0  0  0  0  0  0  0  0  0  0
   -1.1470   -1.9709    0.2818 H   0  0  0  0  0  0  0  0  0  0  0  0
    1.9870   -1.1328   -1.0107 H   0  0  0  0  0  0  0  0  0  0  0  0
   -2.8632    1.8487   -0.4976 H   0  0  0  0  0  0  0  0  0  0  0  0
   -2.8812    1.7900   -2.3660 H   0  0  0  0  0  0  0  0  0  0  0  0
   -2.9784    0.2242    1.3956 H   0  0  0  0  0  0  0  0  0  0  0  0
   -3.1237   -1.6265    1.6155 H   0  0  0  0  0  0  0  0  0  0  0  0
    3.8331    2.6441   -0.5252 H   0  0  0  0  0  0  0  0  0  0  0  0
  1  3  1  0
  1  4  1  0
  1 10  1  0
  2  5  1  0
  2 12  1  0
  2 13  1  0
  2 14  1  0
  3  6  2  3
  3 15  1  0
  4  7  2  3
  4 16  1  0
  5  8  1  0
  5 11  1  0
  5 17  1  0
  6 18  1  0
  6 19  1  0
  7 20  1  0
  7 21  1  0
  8  9  3  0
  9 22  1  0
M  RAD  1   1   2
M  END
>  <reaction>  (17) 
rxn_1265

>  <mol_properties>  (17) 
{"1": {"label": "*4", "atom_type": "Ct"}, "2": {"label": "*3", "atom_type": "Cs"}, "5": {"label": "*2", "atom_type": "H0"}, "11": {"label": "*0", "atom_type": "Cd"}, "12": {"label": "*1", "atom_type": "Cs"}}

>  <type>  (17) 
unop_13

>  <geom_source>  (17) 
AutoTST

$$$$
