
     RDKit          3D

  6  5  0  0  0  0  0  0  0  0999 V2000
   -0.6628   -0.1053   -0.2416 N   0  0  0  0  0  0  0  0  0  0  0  0
    0.6229    0.0313    0.3460 N   0  0  0  0  0  0  0  0  0  0  0  0
   -1.1552    0.7686   -0.1293 H   0  0  0  0  0  0  0  0  0  0  0  0
   -1.2103   -0.8412    0.1876 H   0  0  0  0  0  0  0  0  0  0  0  0
    1.2634   -0.5674   -0.1542 H   0  0  0  0  0  0  0  0  0  0  0  0
    0.6334   -0.2313    1.3241 H   0  0  0  0  0  0  0  0  0  0  0  0
  1  2  1  0
  1  3  1  0
  1  4  1  0
  2  5  1  0
  2  6  1  0
M  END
>  <reaction>  (1) 
rxn_724

>  <mol_properties>  (1) 
{"1": {"label": "donator", "atom_type": "N3s"}, "4": {"label": "d_hydrogen", "atom_type": "H0"}}

>  <type>  (1) 
r1h

$$$$

     RDKit          3D

  3  2  0  0  0  0  0  0  0  0999 V2000
    0.9943   -0.1797    0.0000 O   0  0  0  0  0  1  0  0  0  0  0  0
   -0.1595    0.4394    0.0000 O   0  0  0  0  0  0  0  0  0  0  0  0
   -0.8348   -0.2597    0.0000 H   0  0  0  0  0  0  0  0  0  0  0  0
  1  2  1  0
  2  3  1  0
M  RAD  1   1   2
M  END
>  <reaction>  (2) 
rxn_724

>  <mol_properties>  (2) 
{"0": {"label": "acceptor", "atom_type": "O2s"}}

>  <type>  (2) 
r2

$$$$

     RDKit          3D

  4  3  0  0  0  0  0  0  0  0999 V2000
    0.5949   -0.3853    0.2659 O   0  0  0  0  0  0  0  0  0  0  0  0
   -0.5918    0.4028    0.2462 O   0  0  0  0  0  0  0  0  0  0  0  0
    1.1865    0.1539   -0.2689 H   0  0  0  0  0  0  0  0  0  0  0  0
   -1.1896   -0.1714   -0.2432 H   0  0  0  0  0  0  0  0  0  0  0  0
  1  2  1  0
  1  3  1  0
  2  4  1  0
M  END
>  <reaction>  (3) 
rxn_724

>  <mol_properties>  (3) 
{"0": {"label": "acceptor", "atom_type": "O2s"}, "3": {"label": "a_hydrogen", "atom_type": "H0"}}

>  <type>  (3) 
r2h

$$$$

     RDKit          3D

  9  7  0  0  0  0  0  0  0  0999 V2000
   -0.3138    0.8739    1.1019 O   0  0  0  0  0  1  0  0  0  0  0  0
    0.1684    1.5176   -0.0108 O   0  0  0  0  0  0  0  0  0  0  0  0
   -0.5659    1.4832   -0.6363 H   0  0  0  0  0  0  0  0  0  0  0  0
    0.0028   -1.1938   -1.0125 N   0  0  0  0  0  0  0  0  0  0  0  0
    0.1231   -1.3817    0.3439 N   0  0  0  0  0  0  0  0  0  0  0  0
   -0.8072   -1.6626   -1.3880 H   0  0  0  0  0  0  0  0  0  0  0  0
    0.8355   -1.3481   -1.5579 H   0  0  0  0  0  0  0  0  0  0  0  0
   -0.2090   -0.3860    0.8380 H   0  0  0  0  0  0  0  0  0  0  0  0
    1.1133   -1.4282    0.5674 H   0  0  0  0  0  0  0  0  0  0  0  0
  1  2  1  0
  2  3  1  0
  4  5  1  0
  4  6  1  0
  4  7  1  0
  5  8  1  0
  5  9  1  0
M  RAD  1   1   2
M  END
>  <reaction>  (4) 
rxn_724

>  <mol_properties>  (4) 
{"0": {"label": "*3", "atom_type": "O2s"}, "1": {"label": "*4", "atom_type": "O2s"}, "3": {"label": "*0", "atom_type": "N3s"}, "4": {"label": "*1", "atom_type": "N3s"}, "7": {"label": "*2", "atom_type": "H0"}}

>  <type>  (4) 
ts

$$$$

     RDKit          3D

  9  7  0  0  0  0  0  0  0  0999 V2000
    0.2929    1.1055    0.5046 O   0  0  0  0  0  0  0  0  0  0  0  0
   -0.9174    1.1501    1.2549 O   0  0  0  0  0  0  0  0  0  0  0  0
   -0.6643    0.6654    2.0471 H   0  0  0  0  0  0  0  0  0  0  0  0
    0.2929   -1.1424   -1.6549 N   0  0  0  0  0  0  0  0  0  0  0  0
    0.2929   -1.1424   -0.2347 N   0  0  0  0  0  2  0  0  0  0  0  0
   -0.1882   -1.9718   -1.9702 H   0  0  0  0  0  0  0  0  0  0  0  0
    1.2280   -1.1447   -2.0438 H   0  0  0  0  0  0  0  0  0  0  0  0
    0.2929    0.0082    0.1437 H   0  0  0  0  0  0  0  0  0  0  0  0
    1.1030   -1.6096    0.1542 H   0  0  0  0  0  0  0  0  0  0  0  0
  1  2  1  0
  1  8  1  0
  2  3  1  0
  4  5  1  0
  4  6  1  0
  4  7  1  0
  5  9  1  0
M  RAD  1   5   2
M  END
>  <reaction>  (5) 
rxn_724

>  <mol_properties>  (5) 
{"0": {"label": "*3", "atom_type": "O2s"}, "1": {"label": "*4", "atom_type": "O2s"}, "3": {"label": "*0", "atom_type": "N3s"}, "4": {"label": "*1", "atom_type": "N3s"}, "7": {"label": "*2", "atom_type": "H0"}}

>  <type>  (5) 
unop_1

>  <geom_source>  (5) 
Heuristics

$$$$

     RDKit          3D

  9  7  0  0  0  0  0  0  0  0999 V2000
    0.1771    0.9423    0.9858 O   0  0  0  0  0  0  0  0  0  0  0  0
   -0.5217    1.5834   -0.0774 O   0  0  0  0  0  0  0  0  0  0  0  0
   -1.4246    1.5676    0.2559 H   0  0  0  0  0  0  0  0  0  0  0  0
    0.1771   -1.3056   -1.1737 N   0  0  0  0  0  0  0  0  0  0  0  0
    0.1771   -1.3056    0.2465 N   0  0  0  0  0  2  0  0  0  0  0  0
   -0.3040   -2.1350   -1.4890 H   0  0  0  0  0  0  0  0  0  0  0  0
    1.1122   -1.3079   -1.5626 H   0  0  0  0  0  0  0  0  0  0  0  0
    0.1771   -0.1550    0.6249 H   0  0  0  0  0  0  0  0  0  0  0  0
    0.9871   -1.7728    0.6354 H   0  0  0  0  0  0  0  0  0  0  0  0
  1  2  1  0
  1  8  1  0
  2  3  1  0
  4  5  1  0
  4  6  1  0
  4  7  1  0
  5  9  1  0
M  RAD  1   5   2
M  END
>  <reaction>  (6) 
rxn_724

>  <mol_properties>  (6) 
{"0": {"label": "*3", "atom_type": "O2s"}, "1": {"label": "*4", "atom_type": "O2s"}, "3": {"label": "*0", "atom_type": "N3s"}, "4": {"label": "*1", "atom_type": "N3s"}, "7": {"label": "*2", "atom_type": "H0"}}

>  <type>  (6) 
unop_2

>  <geom_source>  (6) 
Heuristics

$$$$

     RDKit          3D

  9  7  0  0  0  0  0  0  0  0999 V2000
    0.1519    1.1430    0.3805 O   0  0  0  0  0  0  0  0  0  0  0  0
   -0.5468    1.0279    1.6167 O   0  0  0  0  0  0  0  0  0  0  0  0
    0.1730    0.8150    2.2193 H   0  0  0  0  0  0  0  0  0  0  0  0
    0.1519   -1.1048   -1.7790 N   0  0  0  0  0  0  0  0  0  0  0  0
    0.1519   -1.1048   -0.3588 N   0  0  0  0  0  2  0  0  0  0  0  0
   -0.3291   -1.9342   -2.0943 H   0  0  0  0  0  0  0  0  0  0  0  0
    1.0871   -1.1071   -2.1679 H   0  0  0  0  0  0  0  0  0  0  0  0
    0.1519    0.0457    0.0196 H   0  0  0  0  0  0  0  0  0  0  0  0
    0.9620   -1.5721    0.0301 H   0  0  0  0  0  0  0  0  0  0  0  0
  1  2  1  0
  1  8  1  0
  2  3  1  0
  4  5  1  0
  4  6  1  0
  4  7  1  0
  5  9  1  0
M  RAD  1   5   2
M  END
>  <reaction>  (7) 
rxn_724

>  <mol_properties>  (7) 
{"0": {"label": "*3", "atom_type": "O2s"}, "1": {"label": "*4", "atom_type": "O2s"}, "3": {"label": "*0", "atom_type": "N3s"}, "4": {"label": "*1", "atom_type": "N3s"}, "7": {"label": "*2", "atom_type": "H0"}}

>  <type>  (7) 
unop_3

>  <geom_source>  (7) 
Heuristics

$$$$

     RDKit          3D

  9  7  0  0  0  0  0  0  0  0999 V2000
   -0.3326    0.9695    0.8662 O   0  0  0  0  0  0  0  0  0  0  0  0
    0.8776    1.4508    0.2889 O   0  0  0  0  0  0  0  0  0  0  0  0
    0.6596    2.3768    0.1422 H   0  0  0  0  0  0  0  0  0  0  0  0
   -0.3326   -1.2784   -1.2933 N   0  0  0  0  0  0  0  0  0  0  0  0
   -0.3326   -1.2784    0.1269 N   0  0  0  0  0  2  0  0  0  0  0  0
   -0.8137   -2.1078   -1.6086 H   0  0  0  0  0  0  0  0  0  0  0  0
    0.6025   -1.2807   -1.6822 H   0  0  0  0  0  0  0  0  0  0  0  0
   -0.3326   -0.1279    0.5053 H   0  0  0  0  0  0  0  0  0  0  0  0
    0.4774   -1.7456    0.5158 H   0  0  0  0  0  0  0  0  0  0  0  0
  1  2  1  0
  1  8  1  0
  2  3  1  0
  4  5  1  0
  4  6  1  0
  4  7  1  0
  5  9  1  0
M  RAD  1   5   2
M  END
>  <reaction>  (8) 
rxn_724

>  <mol_properties>  (8) 
{"0": {"label": "*3", "atom_type": "O2s"}, "1": {"label": "*4", "atom_type": "O2s"}, "3": {"label": "*0", "atom_type": "N3s"}, "4": {"label": "*1", "atom_type": "N3s"}, "7": {"label": "*2", "atom_type": "H0"}}

>  <type>  (8) 
unop_4

>  <geom_source>  (8) 
Heuristics

$$$$

     RDKit          3D

  9  7  0  0  0  0  0  0  0  0999 V2000
   -0.0329    1.1494    0.3397 O   0  0  0  0  0  0  0  0  0  0  0  0
   -0.0329    0.9758    1.7538 O   0  0  0  0  0  0  0  0  0  0  0  0
    0.8278    1.3384    1.9868 H   0  0  0  0  0  0  0  0  0  0  0  0
   -0.0329   -1.0985   -1.8198 N   0  0  0  0  0  0  0  0  0  0  0  0
   -0.0329   -1.0985   -0.3996 N   0  0  0  0  0  2  0  0  0  0  0  0
   -0.5140   -1.9278   -2.1351 H   0  0  0  0  0  0  0  0  0  0  0  0
    0.9022   -1.1007   -2.2086 H   0  0  0  0  0  0  0  0  0  0  0  0
   -0.0329    0.0521   -0.0212 H   0  0  0  0  0  0  0  0  0  0  0  0
    0.7771   -1.5657   -0.0107 H   0  0  0  0  0  0  0  0  0  0  0  0
  1  2  1  0
  1  8  1  0
  2  3  1  0
  4  5  1  0
  4  6  1  0
  4  7  1  0
  5  9  1  0
M  RAD  1   5   2
M  END
>  <reaction>  (9) 
rxn_724

>  <mol_properties>  (9) 
{"0": {"label": "*3", "atom_type": "O2s"}, "1": {"label": "*4", "atom_type": "O2s"}, "3": {"label": "*0", "atom_type": "N3s"}, "4": {"label": "*1", "atom_type": "N3s"}, "7": {"label": "*2", "atom_type": "H0"}}

>  <type>  (9) 
unop_5

>  <geom_source>  (9) 
Heuristics

$$$$

     RDKit          3D

  9  7  0  0  0  0  0  0  0  0999 V2000
   -0.3852    1.0260    0.6919 O   0  0  0  0  0  0  0  0  0  0  0  0
    1.0123    1.2890    0.7784 O   0  0  0  0  0  0  0  0  0  0  0  0
    1.0285    2.2469    0.6845 H   0  0  0  0  0  0  0  0  0  0  0  0
   -0.3852   -1.2218   -1.4676 N   0  0  0  0  0  0  0  0  0  0  0  0
   -0.3852   -1.2218   -0.0474 N   0  0  0  0  0  2  0  0  0  0  0  0
   -0.8663   -2.0512   -1.7830 H   0  0  0  0  0  0  0  0  0  0  0  0
    0.5499   -1.2241   -1.8565 H   0  0  0  0  0  0  0  0  0  0  0  0
   -0.3852   -0.0713    0.3310 H   0  0  0  0  0  0  0  0  0  0  0  0
    0.4248   -1.6891    0.3414 H   0  0  0  0  0  0  0  0  0  0  0  0
  1  2  1  0
  1  8  1  0
  2  3  1  0
  4  5  1  0
  4  6  1  0
  4  7  1  0
  5  9  1  0
M  RAD  1   5   2
M  END
>  <reaction>  (10) 
rxn_724

>  <mol_properties>  (10) 
{"0": {"label": "*3", "atom_type": "O2s"}, "1": {"label": "*4", "atom_type": "O2s"}, "3": {"label": "*0", "atom_type": "N3s"}, "4": {"label": "*1", "atom_type": "N3s"}, "7": {"label": "*2", "atom_type": "H0"}}

>  <type>  (10) 
unop_6

>  <geom_source>  (10) 
Heuristics

$$$$

     RDKit          3D

  9  7  0  0  0  0  0  0  0  0999 V2000
   -0.3394    1.0835    0.5178 O   0  0  0  0  0  0  0  0  0  0  0  0
    0.8708    1.1281    1.2680 O   0  0  0  0  0  0  0  0  0  0  0  0
    1.0924    2.0631    1.2102 H   0  0  0  0  0  0  0  0  0  0  0  0
   -0.3394   -1.1644   -1.6417 N   0  0  0  0  0  0  0  0  0  0  0  0
   -0.3394   -1.1644   -0.2215 N   0  0  0  0  0  2  0  0  0  0  0  0
   -0.8205   -1.9938   -1.9571 H   0  0  0  0  0  0  0  0  0  0  0  0
    0.5957   -1.1667   -2.0306 H   0  0  0  0  0  0  0  0  0  0  0  0
   -0.3394   -0.0138    0.1569 H   0  0  0  0  0  0  0  0  0  0  0  0
    0.4706   -1.6316    0.1673 H   0  0  0  0  0  0  0  0  0  0  0  0
  1  2  1  0
  1  8  1  0
  2  3  1  0
  4  5  1  0
  4  6  1  0
  4  7  1  0
  5  9  1  0
M  RAD  1   5   2
M  END
>  <reaction>  (11) 
rxn_724

>  <mol_properties>  (11) 
{"0": {"label": "*3", "atom_type": "O2s"}, "1": {"label": "*4", "atom_type": "O2s"}, "3": {"label": "*0", "atom_type": "N3s"}, "4": {"label": "*1", "atom_type": "N3s"}, "7": {"label": "*2", "atom_type": "H0"}}

>  <type>  (11) 
unop_7

>  <geom_source>  (11) 
Heuristics

$$$$

     RDKit          3D

  9  7  0  0  0  0  0  0  0  0999 V2000
    0.3495    1.0487    0.6783 O   0  0  0  0  0  0  0  0  0  0  0  0
   -1.0480    1.3117    0.7648 O   0  0  0  0  0  0  0  0  0  0  0  0
   -1.2856    0.8049    1.5479 H   0  0  0  0  0  0  0  0  0  0  0  0
    0.3495   -1.1991   -1.4812 N   0  0  0  0  0  0  0  0  0  0  0  0
    0.3495   -1.1991   -0.0610 N   0  0  0  0  0  2  0  0  0  0  0  0
   -0.1316   -2.0285   -1.7966 H   0  0  0  0  0  0  0  0  0  0  0  0
    1.2846   -1.2014   -1.8701 H   0  0  0  0  0  0  0  0  0  0  0  0
    0.3495   -0.0486    0.3174 H   0  0  0  0  0  0  0  0  0  0  0  0
    1.1595   -1.6664    0.3278 H   0  0  0  0  0  0  0  0  0  0  0  0
  1  2  1  0
  1  8  1  0
  2  3  1  0
  4  5  1  0
  4  6  1  0
  4  7  1  0
  5  9  1  0
M  RAD  1   5   2
M  END
>  <reaction>  (12) 
rxn_724

>  <mol_properties>  (12) 
{"0": {"label": "*3", "atom_type": "O2s"}, "1": {"label": "*4", "atom_type": "O2s"}, "3": {"label": "*0", "atom_type": "N3s"}, "4": {"label": "*1", "atom_type": "N3s"}, "7": {"label": "*2", "atom_type": "H0"}}

>  <type>  (12) 
unop_8

>  <geom_source>  (12) 
Heuristics

$$$$

     RDKit          3D

  9  7  0  0  0  0  0  0  0  0999 V2000
   -0.1938    0.9300    0.9932 O   0  0  0  0  0  0  0  0  0  0  0  0
    0.5050    1.5711   -0.0700 O   0  0  0  0  0  0  0  0  0  0  0  0
   -0.0437    2.3491   -0.2121 H   0  0  0  0  0  0  0  0  0  0  0  0
   -0.1938   -1.3179   -1.1663 N   0  0  0  0  0  0  0  0  0  0  0  0
   -0.1938   -1.3179    0.2539 N   0  0  0  0  0  2  0  0  0  0  0  0
   -0.6748   -2.1473   -1.4817 H   0  0  0  0  0  0  0  0  0  0  0  0
    0.7414   -1.3202   -1.5552 H   0  0  0  0  0  0  0  0  0  0  0  0
   -0.1938   -0.1673    0.6323 H   0  0  0  0  0  0  0  0  0  0  0  0
    0.6163   -1.7851    0.6428 H   0  0  0  0  0  0  0  0  0  0  0  0
  1  2  1  0
  1  8  1  0
  2  3  1  0
  4  5  1  0
  4  6  1  0
  4  7  1  0
  5  9  1  0
M  RAD  1   5   2
M  END
>  <reaction>  (13) 
rxn_724

>  <mol_properties>  (13) 
{"0": {"label": "*3", "atom_type": "O2s"}, "1": {"label": "*4", "atom_type": "O2s"}, "3": {"label": "*0", "atom_type": "N3s"}, "4": {"label": "*1", "atom_type": "N3s"}, "7": {"label": "*2", "atom_type": "H0"}}

>  <type>  (13) 
unop_9

>  <geom_source>  (13) 
Heuristics

$$$$

     RDKit          3D

  9  7  0  0  0  0  0  0  0  0999 V2000
    0.3069    0.9892    0.8544 O   0  0  0  0  0  0  0  0  0  0  0  0
   -0.9033    1.4705    0.2771 O   0  0  0  0  0  0  0  0  0  0  0  0
   -1.5559    1.1224    0.8933 H   0  0  0  0  0  0  0  0  0  0  0  0
    0.3069   -1.2587   -1.3051 N   0  0  0  0  0  0  0  0  0  0  0  0
    0.3069   -1.2587    0.1151 N   0  0  0  0  0  2  0  0  0  0  0  0
   -0.1741   -2.0881   -1.6204 H   0  0  0  0  0  0  0  0  0  0  0  0
    1.2421   -1.2609   -1.6940 H   0  0  0  0  0  0  0  0  0  0  0  0
    0.3069   -0.1081    0.4935 H   0  0  0  0  0  0  0  0  0  0  0  0
    1.1170   -1.7259    0.5040 H   0  0  0  0  0  0  0  0  0  0  0  0
  1  2  1  0
  1  8  1  0
  2  3  1  0
  4  5  1  0
  4  6  1  0
  4  7  1  0
  5  9  1  0
M  RAD  1   5   2
M  END
>  <reaction>  (14) 
rxn_724

>  <mol_properties>  (14) 
{"0": {"label": "*3", "atom_type": "O2s"}, "1": {"label": "*4", "atom_type": "O2s"}, "3": {"label": "*0", "atom_type": "N3s"}, "4": {"label": "*1", "atom_type": "N3s"}, "7": {"label": "*2", "atom_type": "H0"}}

>  <type>  (14) 
unop_10

>  <geom_source>  (14) 
Heuristics

$$$$

     RDKit          3D

  9  7  0  0  0  0  0  0  0  0999 V2000
   -0.2104    1.1273    0.3900 O   0  0  0  0  0  0  0  0  0  0  0  0
    0.4883    1.0121    1.6261 O   0  0  0  0  0  0  0  0  0  0  0  0
    1.0152    1.8177    1.6189 H   0  0  0  0  0  0  0  0  0  0  0  0
   -0.2104   -1.1206   -1.7696 N   0  0  0  0  0  0  0  0  0  0  0  0
   -0.2104   -1.1206   -0.3494 N   0  0  0  0  0  2  0  0  0  0  0  0
   -0.6915   -1.9500   -2.0849 H   0  0  0  0  0  0  0  0  0  0  0  0
    0.7247   -1.1229   -2.1584 H   0  0  0  0  0  0  0  0  0  0  0  0
   -0.2104    0.0299    0.0291 H   0  0  0  0  0  0  0  0  0  0  0  0
    0.5996   -1.5879    0.0395 H   0  0  0  0  0  0  0  0  0  0  0  0
  1  2  1  0
  1  8  1  0
  2  3  1  0
  4  5  1  0
  4  6  1  0
  4  7  1  0
  5  9  1  0
M  RAD  1   5   2
M  END
>  <reaction>  (15) 
rxn_724

>  <mol_properties>  (15) 
{"0": {"label": "*3", "atom_type": "O2s"}, "1": {"label": "*4", "atom_type": "O2s"}, "3": {"label": "*0", "atom_type": "N3s"}, "4": {"label": "*1", "atom_type": "N3s"}, "7": {"label": "*2", "atom_type": "H0"}}

>  <type>  (15) 
unop_11

>  <geom_source>  (15) 
Heuristics

$$$$

     RDKit          3D

  9  7  0  0  0  0  0  0  0  0999 V2000
   -0.0063    0.9201    1.0371 O   0  0  0  0  0  0  0  0  0  0  0  0
   -0.0063    1.6197   -0.2040 O   0  0  0  0  0  0  0  0  0  0  0  0
   -0.8670    2.0498   -0.1763 H   0  0  0  0  0  0  0  0  0  0  0  0
   -0.0063   -1.3278   -1.1224 N   0  0  0  0  0  0  0  0  0  0  0  0
   -0.0063   -1.3278    0.2977 N   0  0  0  0  0  2  0  0  0  0  0  0
   -0.4873   -2.1572   -1.4378 H   0  0  0  0  0  0  0  0  0  0  0  0
    0.9289   -1.3301   -1.5113 H   0  0  0  0  0  0  0  0  0  0  0  0
   -0.0063   -0.1772    0.6762 H   0  0  0  0  0  0  0  0  0  0  0  0
    0.8038   -1.7950    0.6866 H   0  0  0  0  0  0  0  0  0  0  0  0
  1  2  1  0
  1  8  1  0
  2  3  1  0
  4  5  1  0
  4  6  1  0
  4  7  1  0
  5  9  1  0
M  RAD  1   5   2
M  END
>  <reaction>  (16) 
rxn_724

>  <mol_properties>  (16) 
{"0": {"label": "*3", "atom_type": "O2s"}, "1": {"label": "*4", "atom_type": "O2s"}, "3": {"label": "*0", "atom_type": "N3s"}, "4": {"label": "*1", "atom_type": "N3s"}, "7": {"label": "*2", "atom_type": "H0"}}

>  <type>  (16) 
unop_12

>  <geom_source>  (16) 
Heuristics

$$$$
