
     RDKit          3D

 10  9  0  0  0  0  0  0  0  0999 V2000
    1.8334    0.0847   -0.1062 C   0  0  0  0  0  0  0  0  0  0  0  0
    0.5993   -0.4071   -0.0750 C   0  0  0  0  0  0  0  0  0  0  0  0
   -0.5993    0.4071    0.0750 C   0  0  0  0  0  0  0  0  0  0  0  0
   -1.8334   -0.0847    0.1062 C   0  0  0  0  0  0  0  0  0  0  0  0
    2.0179    1.1498   -0.0189 H   0  0  0  0  0  0  0  0  0  0  0  0
    2.6972   -0.5572   -0.2194 H   0  0  0  0  0  0  0  0  0  0  0  0
    0.4465   -1.4793   -0.1649 H   0  0  0  0  0  0  0  0  0  0  0  0
   -0.4465    1.4793    0.1649 H   0  0  0  0  0  0  0  0  0  0  0  0
   -2.0179   -1.1498    0.0189 H   0  0  0  0  0  0  0  0  0  0  0  0
   -2.6972    0.5572    0.2194 H   0  0  0  0  0  0  0  0  0  0  0  0
  1  2  2  3
  1  5  1  0
  1  6  1  0
  2  3  1  0
  2  7  1  0
  3  4  2  3
  3  8  1  0
  4  9  1  0
  4 10  1  0
M  END
>  <reaction>  (1) 
rxn_1669

>  <mol_properties>  (1) 
{"2": {"label": "donator", "atom_type": "Cd"}, "7": {"label": "d_hydrogen", "atom_type": "H0"}}

>  <type>  (1) 
r1h

$$$$

     RDKit          3D

  8  7  0  0  0  0  0  0  0  0999 V2000
   -1.0607    0.1793   -0.1423 C   0  0  0  0  0  0  0  0  0  0  0  0
    0.2796    0.0327    0.4820 C   0  0  0  0  0  3  0  0  0  0  0  0
    0.8817   -1.4663    1.0791 S   0  0  0  0  0  0  0  0  0  0  0  0
   -1.3043    1.2328   -0.2850 H   0  0  0  0  0  0  0  0  0  0  0  0
   -1.8444   -0.2641    0.4799 H   0  0  0  0  0  0  0  0  0  0  0  0
   -1.1164   -0.3100   -1.1237 H   0  0  0  0  0  0  0  0  0  0  0  0
    1.0449    0.7826    0.3391 H   0  0  0  0  0  0  0  0  0  0  0  0
   -0.2993   -2.0726    1.2718 H   0  0  0  0  0  0  0  0  0  0  0  0
  1  2  1  0
  1  4  1  0
  1  5  1  0
  1  6  1  0
  2  3  1  0
  2  7  1  0
  3  8  1  0
M  RAD  1   2   2
M  END
>  <reaction>  (2) 
rxn_1669

>  <mol_properties>  (2) 
{"1": {"label": "acceptor", "atom_type": "Cs"}}

>  <type>  (2) 
r2

$$$$

     RDKit          3D

  9  8  0  0  0  0  0  0  0  0999 V2000
   -0.8818   -0.3578    0.1297 C   0  0  0  0  0  0  0  0  0  0  0  0
    0.6153   -0.3021   -0.1188 C   0  0  0  0  0  0  0  0  0  0  0  0
    1.5354   -1.7170    0.5545 S   0  0  0  0  0  0  0  0  0  0  0  0
   -1.1018   -0.3317    1.1984 H   0  0  0  0  0  0  0  0  0  0  0  0
   -1.3114   -1.2723   -0.2799 H   0  0  0  0  0  0  0  0  0  0  0  0
   -1.3767    0.4976   -0.3363 H   0  0  0  0  0  0  0  0  0  0  0  0
    1.0467    0.6194    0.2718 H   0  0  0  0  0  0  0  0  0  0  0  0
    0.8295   -0.3275   -1.1882 H   0  0  0  0  0  0  0  0  0  0  0  0
    1.2306   -1.5077    1.8423 H   0  0  0  0  0  0  0  0  0  0  0  0
  1  2  1  0
  1  4  1  0
  1  5  1  0
  1  6  1  0
  2  3  1  0
  2  7  1  0
  2  8  1  0
  3  9  1  0
M  END
>  <reaction>  (3) 
rxn_1669

>  <mol_properties>  (3) 
{"1": {"label": "acceptor", "atom_type": "Cs"}, "8": {"label": "a_hydrogen", "atom_type": "H0"}}

>  <type>  (3) 
r2h

$$$$

     RDKit          3D

 18 16  0  0  0  0  0  0  0  0999 V2000
   -0.2500    0.9519   -1.6993 C   0  0  0  0  0  0  0  0  0  0  0  0
   -0.8550    1.0056   -0.3172 C   0  0  0  0  0  0  0  0  0  0  0  0
   -0.3065    2.3385    0.7371 S   0  0  0  0  0  0  0  0  0  0  0  0
   -0.6463    0.0998   -2.2551 H   0  0  0  0  0  0  0  0  0  0  0  0
    0.8339    0.8330   -1.6411 H   0  0  0  0  0  0  0  0  0  0  0  0
   -0.4622    1.8628   -2.2632 H   0  0  0  0  0  0  0  0  0  0  0  0
   -1.9448    1.0333   -0.3201 H   0  0  0  0  0  0  0  0  0  0  0  0
    1.0078    2.1679    0.5345 H   0  0  0  0  0  0  0  0  0  0  0  0
   -1.3604   -2.6232   -0.8026 C   0  0  0  0  0  0  0  0  0  0  0  0
   -0.4941   -2.5342    0.2018 C   0  0  0  0  0  0  0  0  0  0  0  0
   -0.1239   -1.3046    0.8660 C   0  0  0  0  0  3  0  0  0  0  0  0
    0.6076   -1.1088    1.9451 C   0  0  0  0  0  0  0  0  0  0  0  0
   -1.8589   -1.7457   -1.1969 H   0  0  0  0  0  0  0  0  0  0  0  0
   -1.6036   -3.5758   -1.2544 H   0  0  0  0  0  0  0  0  0  0  0  0
   -0.0173   -3.4409    0.5751 H   0  0  0  0  0  0  0  0  0  0  0  0
   -0.5773   -0.0870    0.2513 H   0  0  0  0  0  0  0  0  0  0  0  0
    1.0405   -1.9406    2.4994 H   0  0  0  0  0  0  0  0  0  0  0  0
    0.7920   -0.1115    2.3303 H   0  0  0  0  0  0  0  0  0  0  0  0
  1  2  1  0
  1  4  1  0
  1  5  1  0
  1  6  1  0
  2  3  1  0
  2  7  1  0
  2 16  1  0
  3  8  1  0
  9 10  2  3
  9 13  1  0
  9 14  1  0
 10 11  1  0
 10 15  1  0
 11 12  2  3
 12 17  1  0
 12 18  1  0
M  RAD  1  11   2
M  END
>  <reaction>  (4) 
rxn_1669

>  <mol_properties>  (4) 
{"1": {"label": "*1", "atom_type": "Cs"}, "2": {"label": "*0", "atom_type": "S2s"}, "9": {"label": "*4", "atom_type": "Cd"}, "10": {"label": "*3", "atom_type": "Cd"}, "15": {"label": "*2", "atom_type": "H0"}}

>  <type>  (4) 
ts

$$$$

     RDKit          3D

 18 16  0  0  0  0  0  0  0  0999 V2000
   -1.3041    1.9092    0.3138 C   0  0  0  0  0  0  0  0  0  0  0  0
   -0.0784    1.0810   -0.0297 C   0  0  0  0  0  3  0  0  0  0  0  0
    0.7902    1.6230   -1.5309 S   0  0  0  0  0  0  0  0  0  0  0  0
   -1.7517    1.5574    1.2464 H   0  0  0  0  0  0  0  0  0  0  0  0
   -2.0594    1.8333   -0.4705 H   0  0  0  0  0  0  0  0  0  0  0  0
   -1.0439    2.9616    0.4294 H   0  0  0  0  0  0  0  0  0  0  0  0
    0.6726    1.1596    0.7577 H   0  0  0  0  0  0  0  0  0  0  0  0
   -0.2187    1.4078   -2.3859 H   0  0  0  0  0  0  0  0  0  0  0  0
   -0.0784   -2.3975   -0.8841 C   0  0  0  0  0  0  0  0  0  0  0  0
   -0.0784   -2.3975    0.4448 C   0  0  0  0  0  0  0  0  0  0  0  0
   -0.0784   -1.1902    1.2601 C   0  0  0  0  0  0  0  0  0  0  0  0
   -0.0784   -1.1902    2.5889 C   0  0  0  0  0  0  0  0  0  0  0  0
   -0.0784   -1.4709   -1.4476 H   0  0  0  0  0  0  0  0  0  0  0  0
   -0.0784   -3.3190   -1.4513 H   0  0  0  0  0  0  0  0  0  0  0  0
   -0.0784   -3.3424    0.9814 H   0  0  0  0  0  0  0  0  0  0  0  0
   -0.0784   -0.0562    0.6161 H   0  0  0  0  0  0  0  0  0  0  0  0
   -0.0784   -2.1168    3.1524 H   0  0  0  0  0  0  0  0  0  0  0  0
   -0.0784   -0.2686    3.1561 H   0  0  0  0  0  0  0  0  0  0  0  0
  1  2  1  0
  1  4  1  0
  1  5  1  0
  1  6  1  0
  2  3  1  0
  2  7  1  0
  3  8  1  0
  9 10  2  3
  9 13  1  0
  9 14  1  0
 10 11  1  0
 10 15  1  0
 11 12  2  3
 11 16  1  0
 12 17  1  0
 12 18  1  0
M  RAD  1   2   2
M  END
>  <reaction>  (5) 
rxn_1669

>  <mol_properties>  (5) 
{"1": {"label": "*1", "atom_type": "Cs"}, "2": {"label": "*0", "atom_type": "S2s"}, "9": {"label": "*4", "atom_type": "Cd"}, "10": {"label": "*3", "atom_type": "Cd"}, "15": {"label": "*2", "atom_type": "H0"}}

>  <type>  (5) 
unop_1

>  <geom_source>  (5) 
Heuristics

$$$$

     RDKit          3D

 18 16  0  0  0  0  0  0  0  0999 V2000
   -1.0319    0.9354   -1.5571 C   0  0  0  0  0  0  0  0  0  0  0  0
   -0.3243    1.0619   -0.2193 C   0  0  0  0  0  3  0  0  0  0  0  0
    1.1443    2.1315   -0.2516 S   0  0  0  0  0  0  0  0  0  0  0  0
   -1.9261    0.3155   -1.4571 H   0  0  0  0  0  0  0  0  0  0  0  0
   -0.3822    0.4699   -2.3004 H   0  0  0  0  0  0  0  0  0  0  0  0
   -1.3288    1.9138   -1.9354 H   0  0  0  0  0  0  0  0  0  0  0  0
   -0.9783    1.5266    0.5199 H   0  0  0  0  0  0  0  0  0  0  0  0
    1.8512    1.4062   -1.1286 H   0  0  0  0  0  0  0  0  0  0  0  0
   -0.3243   -2.4166   -1.0738 C   0  0  0  0  0  0  0  0  0  0  0  0
   -0.3243   -2.4166    0.2551 C   0  0  0  0  0  0  0  0  0  0  0  0
   -0.3243   -1.2093    1.0704 C   0  0  0  0  0  0  0  0  0  0  0  0
   -0.3243   -1.2093    2.3993 C   0  0  0  0  0  0  0  0  0  0  0  0
   -0.3243   -1.4900   -1.6372 H   0  0  0  0  0  0  0  0  0  0  0  0
   -0.3243   -3.3381   -1.6410 H   0  0  0  0  0  0  0  0  0  0  0  0
   -0.3243   -3.3615    0.7917 H   0  0  0  0  0  0  0  0  0  0  0  0
   -0.3243   -0.0753    0.4265 H   0  0  0  0  0  0  0  0  0  0  0  0
   -0.3243   -2.1359    2.9627 H   0  0  0  0  0  0  0  0  0  0  0  0
   -0.3243   -0.2877    2.9665 H   0  0  0  0  0  0  0  0  0  0  0  0
  1  2  1  0
  1  4  1  0
  1  5  1  0
  1  6  1  0
  2  3  1  0
  2  7  1  0
  3  8  1  0
  9 10  2  3
  9 13  1  0
  9 14  1  0
 10 11  1  0
 10 15  1  0
 11 12  2  3
 11 16  1  0
 12 17  1  0
 12 18  1  0
M  RAD  1   2   2
M  END
>  <reaction>  (6) 
rxn_1669

>  <mol_properties>  (6) 
{"1": {"label": "*1", "atom_type": "Cs"}, "2": {"label": "*0", "atom_type": "S2s"}, "9": {"label": "*4", "atom_type": "Cd"}, "10": {"label": "*3", "atom_type": "Cd"}, "15": {"label": "*2", "atom_type": "H0"}}

>  <type>  (6) 
unop_2

>  <geom_source>  (6) 
Heuristics

$$$$

     RDKit          3D

 18 16  0  0  0  0  0  0  0  0999 V2000
   -0.5962    2.2139    0.7865 C   0  0  0  0  0  0  0  0  0  0  0  0
    0.1115    1.1299   -0.0075 C   0  0  0  0  0  3  0  0  0  0  0  0
    0.0698    1.3771   -1.8072 S   0  0  0  0  0  0  0  0  0  0  0  0
   -0.4965    2.0267    1.8583 H   0  0  0  0  0  0  0  0  0  0  0  0
   -1.6609    2.2409    0.5480 H   0  0  0  0  0  0  0  0  0  0  0  0
   -0.1771    3.1959    0.5655 H   0  0  0  0  0  0  0  0  0  0  0  0
    1.1748    1.1066    0.2354 H   0  0  0  0  0  0  0  0  0  0  0  0
   -1.2614    1.3154   -1.9463 H   0  0  0  0  0  0  0  0  0  0  0  0
    0.1115   -2.3486   -0.8619 C   0  0  0  0  0  0  0  0  0  0  0  0
    0.1115   -2.3486    0.4670 C   0  0  0  0  0  0  0  0  0  0  0  0
    0.1115   -1.1412    1.2822 C   0  0  0  0  0  0  0  0  0  0  0  0
    0.1115   -1.1412    2.6111 C   0  0  0  0  0  0  0  0  0  0  0  0
    0.1115   -1.4220   -1.4254 H   0  0  0  0  0  0  0  0  0  0  0  0
    0.1115   -3.2701   -1.4291 H   0  0  0  0  0  0  0  0  0  0  0  0
    0.1115   -3.2935    1.0036 H   0  0  0  0  0  0  0  0  0  0  0  0
    0.1115   -0.0073    0.6383 H   0  0  0  0  0  0  0  0  0  0  0  0
    0.1115   -2.0678    3.1746 H   0  0  0  0  0  0  0  0  0  0  0  0
    0.1115   -0.2197    3.1783 H   0  0  0  0  0  0  0  0  0  0  0  0
  1  2  1  0
  1  4  1  0
  1  5  1  0
  1  6  1  0
  2  3  1  0
  2  7  1  0
  3  8  1  0
  9 10  2  3
  9 13  1  0
  9 14  1  0
 10 11  1  0
 10 15  1  0
 11 12  2  3
 11 16  1  0
 12 17  1  0
 12 18  1  0
M  RAD  1   2   2
M  END
>  <reaction>  (7) 
rxn_1669

>  <mol_properties>  (7) 
{"1": {"label": "*1", "atom_type": "Cs"}, "2": {"label": "*0", "atom_type": "S2s"}, "9": {"label": "*4", "atom_type": "Cd"}, "10": {"label": "*3", "atom_type": "Cd"}, "15": {"label": "*2", "atom_type": "H0"}}

>  <type>  (7) 
unop_3

>  <geom_source>  (7) 
Heuristics

$$$$

     RDKit          3D

 18 16  0  0  0  0  0  0  0  0999 V2000
    0.9967    1.2619   -1.6555 C   0  0  0  0  0  0  0  0  0  0  0  0
   -0.2290    1.1325   -0.7682 C   0  0  0  0  0  3  0  0  0  0  0  0
   -0.0216    1.8330    0.8955 S   0  0  0  0  0  0  0  0  0  0  0  0
    0.7899    0.8606   -2.6505 H   0  0  0  0  0  0  0  0  0  0  0  0
    1.8405    0.7088   -1.2392 H   0  0  0  0  0  0  0  0  0  0  0  0
    1.2960    2.3052   -1.7577 H   0  0  0  0  0  0  0  0  0  0  0  0
   -1.0695    1.6862   -1.1894 H   0  0  0  0  0  0  0  0  0  0  0  0
    0.9713    1.0232    1.2873 H   0  0  0  0  0  0  0  0  0  0  0  0
   -0.2290   -2.3459   -1.6227 C   0  0  0  0  0  0  0  0  0  0  0  0
   -0.2290   -2.3459   -0.2938 C   0  0  0  0  0  0  0  0  0  0  0  0
   -0.2290   -1.1386    0.5215 C   0  0  0  0  0  0  0  0  0  0  0  0
   -0.2290   -1.1386    1.8504 C   0  0  0  0  0  0  0  0  0  0  0  0
   -0.2290   -1.4193   -2.1861 H   0  0  0  0  0  0  0  0  0  0  0  0
   -0.2290   -3.2675   -2.1899 H   0  0  0  0  0  0  0  0  0  0  0  0
   -0.2290   -3.2908    0.2428 H   0  0  0  0  0  0  0  0  0  0  0  0
   -0.2290   -0.0047   -0.1224 H   0  0  0  0  0  0  0  0  0  0  0  0
   -0.2290   -2.0652    2.4138 H   0  0  0  0  0  0  0  0  0  0  0  0
   -0.2290   -0.2170    2.4176 H   0  0  0  0  0  0  0  0  0  0  0  0
  1  2  1  0
  1  4  1  0
  1  5  1  0
  1  6  1  0
  2  3  1  0
  2  7  1  0
  3  8  1  0
  9 10  2  3
  9 13  1  0
  9 14  1  0
 10 11  1  0
 10 15  1  0
 11 12  2  3
 11 16  1  0
 12 17  1  0
 12 18  1  0
M  RAD  1   2   2
M  END
>  <reaction>  (8) 
rxn_1669

>  <mol_properties>  (8) 
{"1": {"label": "*1", "atom_type": "Cs"}, "2": {"label": "*0", "atom_type": "S2s"}, "9": {"label": "*4", "atom_type": "Cd"}, "10": {"label": "*3", "atom_type": "Cd"}, "15": {"label": "*2", "atom_type": "H0"}}

>  <type>  (8) 
unop_4

>  <geom_source>  (8) 
Heuristics

$$$$

     RDKit          3D

 18 16  0  0  0  0  0  0  0  0999 V2000
    0.3952    2.3639    0.7515 C   0  0  0  0  0  0  0  0  0  0  0  0
    0.3952    1.1862   -0.2073 C   0  0  0  0  0  3  0  0  0  0  0  0
   -0.9808    1.1917   -1.3941 S   0  0  0  0  0  0  0  0  0  0  0  0
    1.2689    2.3212    1.4062 H   0  0  0  0  0  0  0  0  0  0  0  0
   -0.4965    2.3554    1.3808 H   0  0  0  0  0  0  0  0  0  0  0  0
    0.4147    3.3090    0.2084 H   0  0  0  0  0  0  0  0  0  0  0  0
    1.2889    1.1989   -0.8330 H   0  0  0  0  0  0  0  0  0  0  0  0
   -1.9691    1.1077   -0.4934 H   0  0  0  0  0  0  0  0  0  0  0  0
    0.3952   -2.2923   -1.0618 C   0  0  0  0  0  0  0  0  0  0  0  0
    0.3952   -2.2923    0.2671 C   0  0  0  0  0  0  0  0  0  0  0  0
    0.3952   -1.0849    1.0824 C   0  0  0  0  0  0  0  0  0  0  0  0
    0.3952   -1.0849    2.4113 C   0  0  0  0  0  0  0  0  0  0  0  0
    0.3952   -1.3657   -1.6252 H   0  0  0  0  0  0  0  0  0  0  0  0
    0.3952   -3.2138   -1.6290 H   0  0  0  0  0  0  0  0  0  0  0  0
    0.3952   -3.2372    0.8037 H   0  0  0  0  0  0  0  0  0  0  0  0
    0.3952    0.0490    0.4385 H   0  0  0  0  0  0  0  0  0  0  0  0
    0.3952   -2.0115    2.9747 H   0  0  0  0  0  0  0  0  0  0  0  0
    0.3952   -0.1634    2.9785 H   0  0  0  0  0  0  0  0  0  0  0  0
  1  2  1  0
  1  4  1  0
  1  5  1  0
  1  6  1  0
  2  3  1  0
  2  7  1  0
  3  8  1  0
  9 10  2  3
  9 13  1  0
  9 14  1  0
 10 11  1  0
 10 15  1  0
 11 12  2  3
 11 16  1  0
 12 17  1  0
 12 18  1  0
M  RAD  1   2   2
M  END
>  <reaction>  (9) 
rxn_1669

>  <mol_properties>  (9) 
{"1": {"label": "*1", "atom_type": "Cs"}, "2": {"label": "*0", "atom_type": "S2s"}, "9": {"label": "*4", "atom_type": "Cd"}, "10": {"label": "*3", "atom_type": "Cd"}, "15": {"label": "*2", "atom_type": "H0"}}

>  <type>  (9) 
unop_5

>  <geom_source>  (9) 
Heuristics

$$$$

     RDKit          3D

 18 16  0  0  0  0  0  0  0  0999 V2000
    1.4018    1.6344   -1.1185 C   0  0  0  0  0  0  0  0  0  0  0  0
   -0.0136    1.1557   -0.8466 C   0  0  0  0  0  3  0  0  0  0  0  0
   -0.6504    1.6069    0.7944 S   0  0  0  0  0  0  0  0  0  0  0  0
    1.7051    1.3675   -2.1336 H   0  0  0  0  0  0  0  0  0  0  0  0
    2.1093    1.1761   -0.4252 H   0  0  0  0  0  0  0  0  0  0  0  0
    1.4756    2.7166   -1.0078 H   0  0  0  0  0  0  0  0  0  0  0  0
   -0.7163    1.6159   -1.5427 H   0  0  0  0  0  0  0  0  0  0  0  0
    0.2568    0.9287    1.5100 H   0  0  0  0  0  0  0  0  0  0  0  0
   -0.0136   -2.3228   -1.7010 C   0  0  0  0  0  0  0  0  0  0  0  0
   -0.0136   -2.3228   -0.3721 C   0  0  0  0  0  0  0  0  0  0  0  0
   -0.0136   -1.1154    0.4431 C   0  0  0  0  0  0  0  0  0  0  0  0
   -0.0136   -1.1154    1.7720 C   0  0  0  0  0  0  0  0  0  0  0  0
   -0.0136   -1.3962   -2.2645 H   0  0  0  0  0  0  0  0  0  0  0  0
   -0.0136   -3.2443   -2.2682 H   0  0  0  0  0  0  0  0  0  0  0  0
   -0.0136   -3.2677    0.1645 H   0  0  0  0  0  0  0  0  0  0  0  0
   -0.0136    0.0185   -0.2008 H   0  0  0  0  0  0  0  0  0  0  0  0
   -0.0136   -2.0421    2.3355 H   0  0  0  0  0  0  0  0  0  0  0  0
   -0.0136   -0.1939    2.3392 H   0  0  0  0  0  0  0  0  0  0  0  0
  1  2  1  0
  1  4  1  0
  1  5  1  0
  1  6  1  0
  2  3  1  0
  2  7  1  0
  3  8  1  0
  9 10  2  3
  9 13  1  0
  9 14  1  0
 10 11  1  0
 10 15  1  0
 11 12  2  3
 11 16  1  0
 12 17  1  0
 12 18  1  0
M  RAD  1   2   2
M  END
>  <reaction>  (10) 
rxn_1669

>  <mol_properties>  (10) 
{"1": {"label": "*1", "atom_type": "Cs"}, "2": {"label": "*0", "atom_type": "S2s"}, "9": {"label": "*4", "atom_type": "Cd"}, "10": {"label": "*3", "atom_type": "Cd"}, "15": {"label": "*2", "atom_type": "H0"}}

>  <type>  (10) 
unop_6

>  <geom_source>  (10) 
Heuristics

$$$$

     RDKit          3D

 18 16  0  0  0  0  0  0  0  0999 V2000
    1.4485    2.0148   -0.4562 C   0  0  0  0  0  0  0  0  0  0  0  0
    0.2228    1.1866   -0.7996 C   0  0  0  0  0  3  0  0  0  0  0  0
   -1.1485    1.3608    0.3798 S   0  0  0  0  0  0  0  0  0  0  0  0
    2.2152    1.8966   -1.2256 H   0  0  0  0  0  0  0  0  0  0  0  0
    1.8780    1.7005    0.4968 H   0  0  0  0  0  0  0  0  0  0  0  0
    1.1954    3.0725   -0.3785 H   0  0  0  0  0  0  0  0  0  0  0  0
   -0.2017    1.5041   -1.7532 H   0  0  0  0  0  0  0  0  0  0  0  0
   -0.5007    0.8815    1.4502 H   0  0  0  0  0  0  0  0  0  0  0  0
    0.2228   -2.2919   -1.6541 C   0  0  0  0  0  0  0  0  0  0  0  0
    0.2228   -2.2919   -0.3252 C   0  0  0  0  0  0  0  0  0  0  0  0
    0.2228   -1.0845    0.4901 C   0  0  0  0  0  0  0  0  0  0  0  0
    0.2228   -1.0845    1.8190 C   0  0  0  0  0  0  0  0  0  0  0  0
    0.2228   -1.3653   -2.2175 H   0  0  0  0  0  0  0  0  0  0  0  0
    0.2228   -3.2134   -2.2213 H   0  0  0  0  0  0  0  0  0  0  0  0
    0.2228   -3.2368    0.2114 H   0  0  0  0  0  0  0  0  0  0  0  0
    0.2228    0.0494   -0.1538 H   0  0  0  0  0  0  0  0  0  0  0  0
    0.2228   -2.0111    2.3824 H   0  0  0  0  0  0  0  0  0  0  0  0
    0.2228   -0.1630    2.3862 H   0  0  0  0  0  0  0  0  0  0  0  0
  1  2  1  0
  1  4  1  0
  1  5  1  0
  1  6  1  0
  2  3  1  0
  2  7  1  0
  3  8  1  0
  9 10  2  3
  9 13  1  0
  9 14  1  0
 10 11  1  0
 10 15  1  0
 11 12  2  3
 11 16  1  0
 12 17  1  0
 12 18  1  0
M  RAD  1   2   2
M  END
>  <reaction>  (11) 
rxn_1669

>  <mol_properties>  (11) 
{"1": {"label": "*1", "atom_type": "Cs"}, "2": {"label": "*0", "atom_type": "S2s"}, "9": {"label": "*4", "atom_type": "Cd"}, "10": {"label": "*3", "atom_type": "Cd"}, "15": {"label": "*2", "atom_type": "H0"}}

>  <type>  (11) 
unop_7

>  <geom_source>  (11) 
Heuristics

$$$$

     RDKit          3D

 18 16  0  0  0  0  0  0  0  0999 V2000
   -1.5835    1.5299   -0.3563 C   0  0  0  0  0  0  0  0  0  0  0  0
   -0.1682    1.0511   -0.0844 C   0  0  0  0  0  3  0  0  0  0  0  0
    1.1014    1.8664   -1.0969 S   0  0  0  0  0  0  0  0  0  0  0  0
   -2.2887    1.0318    0.3133 H   0  0  0  0  0  0  0  0  0  0  0  0
   -1.8809    1.3074   -1.3827 H   0  0  0  0  0  0  0  0  0  0  0  0
   -1.6663    2.6068   -0.2081 H   0  0  0  0  0  0  0  0  0  0  0  0
    0.1235    1.2750    0.9427 H   0  0  0  0  0  0  0  0  0  0  0  0
    0.6488    1.4496   -2.2871 H   0  0  0  0  0  0  0  0  0  0  0  0
   -0.1682   -2.4274   -0.9389 C   0  0  0  0  0  0  0  0  0  0  0  0
   -0.1682   -2.4274    0.3900 C   0  0  0  0  0  0  0  0  0  0  0  0
   -0.1682   -1.2200    1.2053 C   0  0  0  0  0  0  0  0  0  0  0  0
   -0.1682   -1.2200    2.5342 C   0  0  0  0  0  0  0  0  0  0  0  0
   -0.1682   -1.5008   -1.5023 H   0  0  0  0  0  0  0  0  0  0  0  0
   -0.1682   -3.3489   -1.5061 H   0  0  0  0  0  0  0  0  0  0  0  0
   -0.1682   -3.3723    0.9266 H   0  0  0  0  0  0  0  0  0  0  0  0
   -0.1682   -0.0861    0.5614 H   0  0  0  0  0  0  0  0  0  0  0  0
   -0.1682   -2.1466    3.0976 H   0  0  0  0  0  0  0  0  0  0  0  0
   -0.1682   -0.2985    3.1014 H   0  0  0  0  0  0  0  0  0  0  0  0
  1  2  1  0
  1  4  1  0
  1  5  1  0
  1  6  1  0
  2  3  1  0
  2  7  1  0
  3  8  1  0
  9 10  2  3
  9 13  1  0
  9 14  1  0
 10 11  1  0
 10 15  1  0
 11 12  2  3
 11 16  1  0
 12 17  1  0
 12 18  1  0
M  RAD  1   2   2
M  END
>  <reaction>  (12) 
rxn_1669

>  <mol_properties>  (12) 
{"1": {"label": "*1", "atom_type": "Cs"}, "2": {"label": "*0", "atom_type": "S2s"}, "9": {"label": "*4", "atom_type": "Cd"}, "10": {"label": "*3", "atom_type": "Cd"}, "15": {"label": "*2", "atom_type": "H0"}}

>  <type>  (12) 
unop_8

>  <geom_source>  (12) 
Heuristics

$$$$

     RDKit          3D

 18 16  0  0  0  0  0  0  0  0999 V2000
    0.3367    0.9865   -1.9297 C   0  0  0  0  0  0  0  0  0  0  0  0
   -0.3710    1.1130   -0.5920 C   0  0  0  0  0  3  0  0  0  0  0  0
    0.5810    2.0047    0.6731 S   0  0  0  0  0  0  0  0  0  0  0  0
   -0.3060    0.4796   -2.6535 H   0  0  0  0  0  0  0  0  0  0  0  0
    1.2556    0.4057   -1.8322 H   0  0  0  0  0  0  0  0  0  0  0  0
    0.5993    1.9675   -2.3264 H   0  0  0  0  0  0  0  0  0  0  0  0
   -1.2890    1.6933   -0.6953 H   0  0  0  0  0  0  0  0  0  0  0  0
    1.6126    1.1515    0.7278 H   0  0  0  0  0  0  0  0  0  0  0  0
   -0.3710   -2.3655   -1.4464 C   0  0  0  0  0  0  0  0  0  0  0  0
   -0.3710   -2.3655   -0.1175 C   0  0  0  0  0  0  0  0  0  0  0  0
   -0.3710   -1.1581    0.6978 C   0  0  0  0  0  0  0  0  0  0  0  0
   -0.3710   -1.1581    2.0267 C   0  0  0  0  0  0  0  0  0  0  0  0
   -0.3710   -1.4389   -2.0099 H   0  0  0  0  0  0  0  0  0  0  0  0
   -0.3710   -3.2870   -2.0136 H   0  0  0  0  0  0  0  0  0  0  0  0
   -0.3710   -3.3104    0.4191 H   0  0  0  0  0  0  0  0  0  0  0  0
   -0.3710   -0.0242    0.0538 H   0  0  0  0  0  0  0  0  0  0  0  0
   -0.3710   -2.0847    2.5901 H   0  0  0  0  0  0  0  0  0  0  0  0
   -0.3710   -0.2366    2.5938 H   0  0  0  0  0  0  0  0  0  0  0  0
  1  2  1  0
  1  4  1  0
  1  5  1  0
  1  6  1  0
  2  3  1  0
  2  7  1  0
  3  8  1  0
  9 10  2  3
  9 13  1  0
  9 14  1  0
 10 11  1  0
 10 15  1  0
 11 12  2  3
 11 16  1  0
 12 17  1  0
 12 18  1  0
M  RAD  1   2   2
M  END
>  <reaction>  (13) 
rxn_1669

>  <mol_properties>  (13) 
{"1": {"label": "*1", "atom_type": "Cs"}, "2": {"label": "*0", "atom_type": "S2s"}, "9": {"label": "*4", "atom_type": "Cd"}, "10": {"label": "*3", "atom_type": "Cd"}, "15": {"label": "*2", "atom_type": "H0"}}

>  <type>  (13) 
unop_9

>  <geom_source>  (13) 
Heuristics

$$$$

     RDKit          3D

 18 16  0  0  0  0  0  0  0  0999 V2000
   -1.4634    1.1751   -1.0234 C   0  0  0  0  0  0  0  0  0  0  0  0
   -0.2377    1.0458   -0.1362 C   0  0  0  0  0  3  0  0  0  0  0  0
    1.1797    2.0482   -0.6730 S   0  0  0  0  0  0  0  0  0  0  0  0
   -2.2882    0.5822   -0.6212 H   0  0  0  0  0  0  0  0  0  0  0  0
   -1.2542    0.8177   -2.0333 H   0  0  0  0  0  0  0  0  0  0  0  0
   -1.7856    2.2143   -1.0945 H   0  0  0  0  0  0  0  0  0  0  0  0
   -0.4524    1.4034    0.8719 H   0  0  0  0  0  0  0  0  0  0  0  0
    1.3538    1.4553   -1.8618 H   0  0  0  0  0  0  0  0  0  0  0  0
   -0.2377   -2.4326   -0.9906 C   0  0  0  0  0  0  0  0  0  0  0  0
   -0.2377   -2.4326    0.3383 C   0  0  0  0  0  0  0  0  0  0  0  0
   -0.2377   -1.2253    1.1536 C   0  0  0  0  0  0  0  0  0  0  0  0
   -0.2377   -1.2253    2.4825 C   0  0  0  0  0  0  0  0  0  0  0  0
   -0.2377   -1.5060   -1.5540 H   0  0  0  0  0  0  0  0  0  0  0  0
   -0.2377   -3.3542   -1.5578 H   0  0  0  0  0  0  0  0  0  0  0  0
   -0.2377   -3.3776    0.8749 H   0  0  0  0  0  0  0  0  0  0  0  0
   -0.2377   -0.0914    0.5096 H   0  0  0  0  0  0  0  0  0  0  0  0
   -0.2377   -2.1519    3.0459 H   0  0  0  0  0  0  0  0  0  0  0  0
   -0.2377   -0.3038    3.0497 H   0  0  0  0  0  0  0  0  0  0  0  0
  1  2  1  0
  1  4  1  0
  1  5  1  0
  1  6  1  0
  2  3  1  0
  2  7  1  0
  3  8  1  0
  9 10  2  3
  9 13  1  0
  9 14  1  0
 10 11  1  0
 10 15  1  0
 11 12  2  3
 11 16  1  0
 12 17  1  0
 12 18  1  0
M  RAD  1   2   2
M  END
>  <reaction>  (14) 
rxn_1669

>  <mol_properties>  (14) 
{"1": {"label": "*1", "atom_type": "Cs"}, "2": {"label": "*0", "atom_type": "S2s"}, "9": {"label": "*4", "atom_type": "Cd"}, "10": {"label": "*3", "atom_type": "Cd"}, "15": {"label": "*2", "atom_type": "H0"}}

>  <type>  (14) 
unop_10

>  <geom_source>  (14) 
Heuristics

$$$$

     RDKit          3D

 18 16  0  0  0  0  0  0  0  0999 V2000
    1.1260    2.2937    0.2053 C   0  0  0  0  0  0  0  0  0  0  0  0
    0.4184    1.2096   -0.5886 C   0  0  0  0  0  3  0  0  0  0  0  0
   -1.3847    1.1792   -0.3651 S   0  0  0  0  0  0  0  0  0  0  0  0
    2.1977    2.2827   -0.0075 H   0  0  0  0  0  0  0  0  0  0  0  0
    0.9953    2.1408    1.2781 H   0  0  0  0  0  0  0  0  0  0  0  0
    0.7330    3.2795   -0.0443 H   0  0  0  0  0  0  0  0  0  0  0  0
    0.5531    1.3666   -1.6598 H   0  0  0  0  0  0  0  0  0  0  0  0
   -1.3785    0.9182    0.9490 H   0  0  0  0  0  0  0  0  0  0  0  0
    0.4184   -2.2689   -1.4431 C   0  0  0  0  0  0  0  0  0  0  0  0
    0.4184   -2.2689   -0.1142 C   0  0  0  0  0  0  0  0  0  0  0  0
    0.4184   -1.0615    0.7011 C   0  0  0  0  0  0  0  0  0  0  0  0
    0.4184   -1.0615    2.0300 C   0  0  0  0  0  0  0  0  0  0  0  0
    0.4184   -1.3422   -2.0065 H   0  0  0  0  0  0  0  0  0  0  0  0
    0.4184   -3.1904   -2.0103 H   0  0  0  0  0  0  0  0  0  0  0  0
    0.4184   -3.2138    0.4224 H   0  0  0  0  0  0  0  0  0  0  0  0
    0.4184    0.0724    0.0572 H   0  0  0  0  0  0  0  0  0  0  0  0
    0.4184   -1.9881    2.5934 H   0  0  0  0  0  0  0  0  0  0  0  0
    0.4184   -0.1400    2.5972 H   0  0  0  0  0  0  0  0  0  0  0  0
  1  2  1  0
  1  4  1  0
  1  5  1  0
  1  6  1  0
  2  3  1  0
  2  7  1  0
  3  8  1  0
  9 10  2  3
  9 13  1  0
  9 14  1  0
 10 11  1  0
 10 15  1  0
 11 12  2  3
 11 16  1  0
 12 17  1  0
 12 18  1  0
M  RAD  1   2   2
M  END
>  <reaction>  (15) 
rxn_1669

>  <mol_properties>  (15) 
{"1": {"label": "*1", "atom_type": "Cs"}, "2": {"label": "*0", "atom_type": "S2s"}, "9": {"label": "*4", "atom_type": "Cd"}, "10": {"label": "*3", "atom_type": "Cd"}, "15": {"label": "*2", "atom_type": "H0"}}

>  <type>  (15) 
unop_11

>  <geom_source>  (15) 
Heuristics

$$$$

     RDKit          3D

 18 16  0  0  0  0  0  0  0  0999 V2000
   -0.3952    0.8683   -1.8820 C   0  0  0  0  0  0  0  0  0  0  0  0
   -0.3952    1.0885   -0.3794 C   0  0  0  0  0  3  0  0  0  0  0  0
    0.9808    2.1105    0.2238 S   0  0  0  0  0  0  0  0  0  0  0  0
   -1.2689    0.2842   -2.1808 H   0  0  0  0  0  0  0  0  0  0  0  0
    0.4965    0.3236   -2.1971 H   0  0  0  0  0  0  0  0  0  0  0  0
   -0.4147    1.8189   -2.4155 H   0  0  0  0  0  0  0  0  0  0  0  0
   -1.2889    1.6323   -0.0698 H   0  0  0  0  0  0  0  0  0  0  0  0
    1.9691    1.2940   -0.1654 H   0  0  0  0  0  0  0  0  0  0  0  0
   -0.3952   -2.3900   -1.2338 C   0  0  0  0  0  0  0  0  0  0  0  0
   -0.3952   -2.3900    0.0951 C   0  0  0  0  0  0  0  0  0  0  0  0
   -0.3952   -1.1826    0.9104 C   0  0  0  0  0  0  0  0  0  0  0  0
   -0.3952   -1.1826    2.2393 C   0  0  0  0  0  0  0  0  0  0  0  0
   -0.3952   -1.4634   -1.7973 H   0  0  0  0  0  0  0  0  0  0  0  0
   -0.3952   -3.3115   -1.8010 H   0  0  0  0  0  0  0  0  0  0  0  0
   -0.3952   -3.3349    0.6317 H   0  0  0  0  0  0  0  0  0  0  0  0
   -0.3952   -0.0487    0.2664 H   0  0  0  0  0  0  0  0  0  0  0  0
   -0.3952   -2.1092    2.8027 H   0  0  0  0  0  0  0  0  0  0  0  0
   -0.3952   -0.2611    2.8064 H   0  0  0  0  0  0  0  0  0  0  0  0
  1  2  1  0
  1  4  1  0
  1  5  1  0
  1  6  1  0
  2  3  1  0
  2  7  1  0
  3  8  1  0
  9 10  2  3
  9 13  1  0
  9 14  1  0
 10 11  1  0
 10 15  1  0
 11 12  2  3
 11 16  1  0
 12 17  1  0
 12 18  1  0
M  RAD  1   2   2
M  END
>  <reaction>  (16) 
rxn_1669

>  <mol_properties>  (16) 
{"1": {"label": "*1", "atom_type": "Cs"}, "2": {"label": "*0", "atom_type": "S2s"}, "9": {"label": "*4", "atom_type": "Cd"}, "10": {"label": "*3", "atom_type": "Cd"}, "15": {"label": "*2", "atom_type": "H0"}}

>  <type>  (16) 
unop_12

>  <geom_source>  (16) 
Heuristics

$$$$

     RDKit          3D

 18 16  0  0  0  0  0  0  0  0999 V2000
   -2.0122    1.8161   -0.6207 S   0  0  0  0  0  0  0  0  0  0  0  0
   -1.4951    0.0722   -0.5973 C   0  0  0  0  0  3  0  0  0  0  0  0
   -1.9278   -0.5958    0.6986 C   0  0  0  0  0  0  0  0  0  0  0  0
    1.5348    0.7824    0.4538 C   0  0  0  0  0  0  0  0  0  0  0  0
    2.1867   -0.1114    1.1991 C   0  0  0  0  0  0  0  0  0  0  0  0
    1.1690   -0.6004   -1.6021 C   0  0  0  0  0  0  0  0  0  0  0  0
    1.0403    0.5344   -0.9163 C   0  0  0  0  0  0  0  0  0  0  0  0
   -1.9586   -0.4533   -1.4587 H   0  0  0  0  0  0  0  0  0  0  0  0
   -0.0386   -0.0031   -0.7227 H   0  0  0  0  0  0  0  0  0  0  0  0
   -1.6138   -1.6603    0.6878 H   0  0  0  0  0  0  0  0  0  0  0  0
   -1.4500   -0.0923    1.5651 H   0  0  0  0  0  0  0  0  0  0  0  0
   -3.0323   -0.5469    0.8055 H   0  0  0  0  0  0  0  0  0  0  0  0
    1.3500    1.7624    0.8743 H   0  0  0  0  0  0  0  0  0  0  0  0
    2.5122    0.1600    2.1950 H   0  0  0  0  0  0  0  0  0  0  0  0
    2.4087   -1.1091    0.8504 H   0  0  0  0  0  0  0  0  0  0  0  0
    0.7625   -0.6590   -2.6023 H   0  0  0  0  0  0  0  0  0  0  0  0
    1.6653   -1.4714   -1.2003 H   0  0  0  0  0  0  0  0  0  0  0  0
   -1.1012    2.1755    0.3908 H   0  0  0  0  0  0  0  0  0  0  0  0
  1  2  1  0
  1 18  1  0
  2  3  1  0
  2  8  1  0
  3 10  1  0
  3 11  1  0
  3 12  1  0
  4  5  2  3
  4  7  1  0
  4 13  1  0
  5 14  1  0
  5 15  1  0
  6  7  2  3
  6 16  1  0
  6 17  1  0
  7  9  1  0
M  RAD  1   2   2
M  END
>  <reaction>  (17) 
rxn_1669

>  <mol_properties>  (17) 
{"1": {"label": "*1", "atom_type": "Cs"}, "2": {"label": "*0", "atom_type": "S2s"}, "9": {"label": "*4", "atom_type": "Cd"}, "10": {"label": "*3", "atom_type": "Cd"}, "15": {"label": "*2", "atom_type": "H0"}}

>  <type>  (17) 
unop_13

>  <geom_source>  (17) 
AutoTST

$$$$
