
     RDKit          3D

 10  9  0  0  0  0  0  0  0  0999 V2000
   -1.1508    0.0666    0.2839 C   0  0  0  0  0  0  0  0  0  0  0  0
    0.1022   -0.3749   -0.4771 C   0  0  0  0  0  0  0  0  0  0  0  0
    1.3428    0.1620    0.1542 C   0  0  0  0  0  0  0  0  0  0  0  0
    2.5613   -0.6971    0.7526 S   0  0  0  0  0  0  0  0  0  0  0  0
   -1.2137    1.1546    0.3481 H   0  0  0  0  0  0  0  0  0  0  0  0
   -2.0472   -0.2935   -0.2212 H   0  0  0  0  0  0  0  0  0  0  0  0
   -1.1467   -0.3334    1.2987 H   0  0  0  0  0  0  0  0  0  0  0  0
    0.1602   -1.4616   -0.5369 H   0  0  0  0  0  0  0  0  0  0  0  0
    0.0536    0.0174   -1.4997 H   0  0  0  0  0  0  0  0  0  0  0  0
    1.3824    1.2528    0.2110 H   0  0  0  0  0  0  0  0  0  0  0  0
  1  2  1  0
  1  5  1  0
  1  6  1  0
  1  7  1  0
  2  3  1  0
  2  8  1  0
  2  9  1  0
  3  4  2  0
  3 10  1  0
M  END
>  <reaction>  (1) 
rxn_2024

>  <mol_properties>  (1) 
{"1": {"label": "donator", "atom_type": "Cs"}, "7": {"label": "d_hydrogen", "atom_type": "H0"}}

>  <type>  (1) 
r1h

$$$$

     RDKit          3D

  7  6  0  0  0  0  0  0  0  0999 V2000
   -1.3496    0.0255    0.0758 C   0  0  0  0  0  0  0  0  0  0  0  0
   -0.0636   -0.0704   -0.0033 C   0  0  0  0  0  0  0  0  0  0  0  0
    1.2597   -0.1602   -0.0839 C   0  0  0  0  0  0  0  0  0  0  0  0
    2.2616    1.2090   -0.0064 S   0  0  0  0  0  1  0  0  0  0  0  0
   -1.8547   -0.0180    1.0345 H   0  0  0  0  0  0  0  0  0  0  0  0
   -1.9552    0.1601   -0.8138 H   0  0  0  0  0  0  0  0  0  0  0  0
    1.7017   -1.1460   -0.2029 H   0  0  0  0  0  0  0  0  0  0  0  0
  1  2  2  0
  1  5  1  0
  1  6  1  0
  2  3  2  0
  3  4  1  0
  3  7  1  0
M  RAD  1   4   2
M  END
>  <reaction>  (2) 
rxn_2024

>  <mol_properties>  (2) 
{"1": {"label": "acceptor", "atom_type": "Cd"}}

>  <type>  (2) 
r2

$$$$

     RDKit          3D

  8  7  0  0  0  0  0  0  0  0999 V2000
   -1.1617    0.0338    0.5053 C   0  0  0  0  0  0  0  0  0  0  0  0
   -0.1023    0.4503   -0.1863 C   0  0  0  0  0  0  0  0  0  0  0  0
    1.0978   -0.3557   -0.3104 C   0  0  0  0  0  0  0  0  0  0  0  0
    2.4251    0.0667   -1.1256 S   0  0  0  0  0  0  0  0  0  0  0  0
   -1.1653   -0.9292    1.0039 H   0  0  0  0  0  0  0  0  0  0  0  0
   -2.0546    0.6389    0.5948 H   0  0  0  0  0  0  0  0  0  0  0  0
   -0.0991    1.4132   -0.6847 H   0  0  0  0  0  0  0  0  0  0  0  0
    1.0601   -1.3180    0.2032 H   0  0  0  0  0  0  0  0  0  0  0  0
  1  2  2  3
  1  5  1  0
  1  6  1  0
  2  3  1  0
  2  7  1  0
  3  4  2  0
  3  8  1  0
M  END
>  <reaction>  (3) 
rxn_2024

>  <mol_properties>  (3) 
{"1": {"label": "acceptor", "atom_type": "Cd"}, "7": {"label": "a_hydrogen", "atom_type": "H0"}}

>  <type>  (3) 
r2h

$$$$

     RDKit          3D

 17 15  0  0  0  0  0  0  0  0999 V2000
   -0.6168   -0.8792    1.8756 C   0  0  0  0  0  0  0  0  0  0  0  0
   -0.6026   -1.2266    0.6142 C   0  0  0  0  0  0  0  0  0  0  0  0
   -1.3834   -1.8144   -0.3985 C   0  0  0  0  0  0  0  0  0  0  0  0
   -2.5850   -1.0448   -1.2005 S   0  0  0  0  0  1  0  0  0  0  0  0
   -1.4708   -1.1046    2.5061 H   0  0  0  0  0  0  0  0  0  0  0  0
    0.2242   -0.3668    2.3302 H   0  0  0  0  0  0  0  0  0  0  0  0
   -1.0988   -2.8263   -0.6887 H   0  0  0  0  0  0  0  0  0  0  0  0
    1.2631    0.0871   -1.7798 C   0  0  0  0  0  0  0  0  0  0  0  0
    1.7195   -0.4154   -0.4325 C   0  0  0  0  0  0  0  0  0  0  0  0
    2.1902    0.5400    0.5441 C   0  0  0  0  0  0  0  0  0  0  0  0
    3.2535    0.2255    1.7354 S   0  0  0  0  0  0  0  0  0  0  0  0
    2.1226    0.3434   -2.4032 H   0  0  0  0  0  0  0  0  0  0  0  0
    0.6877   -0.6774   -2.3039 H   0  0  0  0  0  0  0  0  0  0  0  0
    0.6342    0.9728   -1.6796 H   0  0  0  0  0  0  0  0  0  0  0  0
    0.6222   -0.8467    0.0861 H   0  0  0  0  0  0  0  0  0  0  0  0
    2.2980   -1.3379   -0.4488 H   0  0  0  0  0  0  0  0  0  0  0  0
    1.7541    1.5375    0.4660 H   0  0  0  0  0  0  0  0  0  0  0  0
  1  2  2  0
  1  5  1  0
  1  6  1  0
  2  3  2  0
  3  4  1  0
  3  7  1  0
  8  9  1  0
  8 12  1  0
  8 13  1  0
  8 14  1  0
  9 10  1  0
  9 15  1  0
  9 16  1  0
 10 11  2  0
 10 17  1  0
M  RAD  1   4   2
M  END
>  <reaction>  (4) 
rxn_2024

>  <mol_properties>  (4) 
{"1": {"label": "*3", "atom_type": "Cdd"}, "2": {"label": "*4", "atom_type": "Cd"}, "8": {"label": "*1", "atom_type": "Cs"}, "9": {"label": "*0", "atom_type": "CS"}, "14": {"label": "*2", "atom_type": "H0"}}

>  <type>  (4) 
ts

$$$$

     RDKit          3D

 17 15  0  0  0  0  0  0  0  0999 V2000
   -0.3007   -2.8157    1.0512 C   0  0  0  0  0  0  0  0  0  0  0  0
   -0.4620   -1.7475    0.2721 C   0  0  0  0  0  0  0  0  0  0  0  0
   -1.4205   -0.7051    0.5884 C   0  0  0  0  0  0  0  0  0  0  0  0
   -1.6830    0.6202   -0.2945 S   0  0  0  0  0  0  0  0  0  0  0  0
   -0.8840   -2.9455    1.9561 H   0  0  0  0  0  0  0  0  0  0  0  0
    0.4157   -3.5904    0.8107 H   0  0  0  0  0  0  0  0  0  0  0  0
   -1.9901   -0.8675    1.5053 H   0  0  0  0  0  0  0  0  0  0  0  0
    1.5880   -0.4322   -2.1939 C   0  0  0  0  0  0  0  0  0  0  0  0
    1.5880   -0.4322   -0.6628 C   0  0  0  0  0  0  0  0  0  0  0  0
    1.5880    0.9560   -0.1161 C   0  0  0  0  0  0  0  0  0  0  0  0
    0.4684    1.6117    0.8314 S   0  0  0  0  0  1  0  0  0  0  0  0
    2.4432    0.1180   -2.5910 H   0  0  0  0  0  0  0  0  0  0  0  0
    1.6388   -1.4531   -2.5725 H   0  0  0  0  0  0  0  0  0  0  0  0
    0.6785    0.0302   -2.5795 H   0  0  0  0  0  0  0  0  0  0  0  0
    0.5603   -1.0915   -0.1942 H   0  0  0  0  0  0  0  0  0  0  0  0
    2.4983   -0.9289   -0.3074 H   0  0  0  0  0  0  0  0  0  0  0  0
    2.4434    1.5613   -0.4265 H   0  0  0  0  0  0  0  0  0  0  0  0
  1  2  2  3
  1  5  1  0
  1  6  1  0
  2  3  1  0
  2 15  1  0
  3  4  2  0
  3  7  1  0
  8  9  1  0
  8 12  1  0
  8 13  1  0
  8 14  1  0
  9 10  2  3
  9 16  1  0
 10 11  1  0
 10 17  1  0
M  RAD  1  11   2
M  END
>  <reaction>  (5) 
rxn_2024

>  <mol_properties>  (5) 
{"1": {"label": "*3", "atom_type": "Cdd"}, "2": {"label": "*4", "atom_type": "Cd"}, "8": {"label": "*1", "atom_type": "Cs"}, "9": {"label": "*0", "atom_type": "CS"}, "14": {"label": "*2", "atom_type": "H0"}}

>  <type>  (5) 
unop_1

>  <geom_source>  (5) 
Heuristics

$$$$

     RDKit          3D

 17 15  0  0  0  0  0  0  0  0999 V2000
   -1.3320   -2.4789   -0.9812 C   0  0  0  0  0  0  0  0  0  0  0  0
   -0.7991   -1.4605   -0.3081 C   0  0  0  0  0  0  0  0  0  0  0  0
   -1.0533   -1.2590    1.1061 C   0  0  0  0  0  0  0  0  0  0  0  0
   -0.4524   -0.0572    2.0001 S   0  0  0  0  0  0  0  0  0  0  0  0
   -1.9794   -3.1989   -0.4930 H   0  0  0  0  0  0  0  0  0  0  0  0
   -1.1392   -2.6247   -2.0361 H   0  0  0  0  0  0  0  0  0  0  0  0
   -1.7084   -2.0014    1.5655 H   0  0  0  0  0  0  0  0  0  0  0  0
    1.2509   -0.1452   -2.7741 C   0  0  0  0  0  0  0  0  0  0  0  0
    1.2509   -0.1452   -1.2430 C   0  0  0  0  0  0  0  0  0  0  0  0
    1.2509    1.2430   -0.6963 C   0  0  0  0  0  0  0  0  0  0  0  0
    0.1314    1.8987    0.2512 S   0  0  0  0  0  1  0  0  0  0  0  0
    2.1061    0.4050   -3.1712 H   0  0  0  0  0  0  0  0  0  0  0  0
    1.3018   -1.1661   -3.1528 H   0  0  0  0  0  0  0  0  0  0  0  0
    0.3414    0.3172   -3.1597 H   0  0  0  0  0  0  0  0  0  0  0  0
    0.2233   -0.8045   -0.7744 H   0  0  0  0  0  0  0  0  0  0  0  0
    2.1613   -0.6419   -0.8876 H   0  0  0  0  0  0  0  0  0  0  0  0
    2.1064    1.8483   -1.0067 H   0  0  0  0  0  0  0  0  0  0  0  0
  1  2  2  3
  1  5  1  0
  1  6  1  0
  2  3  1  0
  2 15  1  0
  3  4  2  0
  3  7  1  0
  8  9  1  0
  8 12  1  0
  8 13  1  0
  8 14  1  0
  9 10  2  3
  9 16  1  0
 10 11  1  0
 10 17  1  0
M  RAD  1  11   2
M  END
>  <reaction>  (6) 
rxn_2024

>  <mol_properties>  (6) 
{"1": {"label": "*3", "atom_type": "Cdd"}, "2": {"label": "*4", "atom_type": "Cd"}, "8": {"label": "*1", "atom_type": "Cs"}, "9": {"label": "*0", "atom_type": "CS"}, "14": {"label": "*2", "atom_type": "H0"}}

>  <type>  (6) 
unop_2

>  <geom_source>  (6) 
Heuristics

$$$$

     RDKit          3D

 17 15  0  0  0  0  0  0  0  0999 V2000
   -0.3338   -2.2012    1.7487 C   0  0  0  0  0  0  0  0  0  0  0  0
   -0.3957   -1.5645    0.5805 C   0  0  0  0  0  0  0  0  0  0  0  0
   -1.5980   -0.8802    0.1427 C   0  0  0  0  0  0  0  0  0  0  0  0
   -1.7637   -0.0853   -1.2521 S   0  0  0  0  0  0  0  0  0  0  0  0
   -1.1855   -2.2313    2.4192 H   0  0  0  0  0  0  0  0  0  0  0  0
    0.5655   -2.7101    2.0706 H   0  0  0  0  0  0  0  0  0  0  0  0
   -2.4353   -0.9303    0.8411 H   0  0  0  0  0  0  0  0  0  0  0  0
    1.6543   -0.2492   -1.8855 C   0  0  0  0  0  0  0  0  0  0  0  0
    1.6543   -0.2492   -0.3544 C   0  0  0  0  0  0  0  0  0  0  0  0
    1.6543    1.1390    0.1923 C   0  0  0  0  0  0  0  0  0  0  0  0
    0.5348    1.7947    1.1398 S   0  0  0  0  0  1  0  0  0  0  0  0
    2.5095    0.3010   -2.2826 H   0  0  0  0  0  0  0  0  0  0  0  0
    1.7051   -1.2701   -2.2641 H   0  0  0  0  0  0  0  0  0  0  0  0
    0.7448    0.2132   -2.2711 H   0  0  0  0  0  0  0  0  0  0  0  0
    0.6266   -0.9085    0.1142 H   0  0  0  0  0  0  0  0  0  0  0  0
    2.5647   -0.7459    0.0010 H   0  0  0  0  0  0  0  0  0  0  0  0
    2.5098    1.7443   -0.1181 H   0  0  0  0  0  0  0  0  0  0  0  0
  1  2  2  3
  1  5  1  0
  1  6  1  0
  2  3  1  0
  2 15  1  0
  3  4  2  0
  3  7  1  0
  8  9  1  0
  8 12  1  0
  8 13  1  0
  8 14  1  0
  9 10  2  3
  9 16  1  0
 10 11  1  0
 10 17  1  0
M  RAD  1  11   2
M  END
>  <reaction>  (7) 
rxn_2024

>  <mol_properties>  (7) 
{"1": {"label": "*3", "atom_type": "Cdd"}, "2": {"label": "*4", "atom_type": "Cd"}, "8": {"label": "*1", "atom_type": "Cs"}, "9": {"label": "*0", "atom_type": "CS"}, "14": {"label": "*2", "atom_type": "H0"}}

>  <type>  (7) 
unop_3

>  <geom_source>  (7) 
Heuristics

$$$$

     RDKit          3D

 17 15  0  0  0  0  0  0  0  0999 V2000
   -2.3520   -0.6109   -0.4853 C   0  0  0  0  0  0  0  0  0  0  0  0
   -1.1048   -0.9823   -0.2013 C   0  0  0  0  0  0  0  0  0  0  0  0
   -0.7579   -1.5997    1.0651 C   0  0  0  0  0  0  0  0  0  0  0  0
    0.7218   -2.0804    1.4943 S   0  0  0  0  0  0  0  0  0  0  0  0
   -3.1584   -0.7575    0.2247 H   0  0  0  0  0  0  0  0  0  0  0  0
   -2.6055   -0.1507   -1.4315 H   0  0  0  0  0  0  0  0  0  0  0  0
   -1.5927   -1.7323    1.7556 H   0  0  0  0  0  0  0  0  0  0  0  0
    0.9452    0.3330   -2.6673 C   0  0  0  0  0  0  0  0  0  0  0  0
    0.9452    0.3330   -1.1362 C   0  0  0  0  0  0  0  0  0  0  0  0
    0.9452    1.7212   -0.5895 C   0  0  0  0  0  0  0  0  0  0  0  0
   -0.1743    2.3769    0.3580 S   0  0  0  0  0  1  0  0  0  0  0  0
    1.8004    0.8832   -3.0644 H   0  0  0  0  0  0  0  0  0  0  0  0
    0.9961   -0.6879   -3.0459 H   0  0  0  0  0  0  0  0  0  0  0  0
    0.0357    0.7954   -3.0529 H   0  0  0  0  0  0  0  0  0  0  0  0
   -0.0824   -0.3263   -0.6676 H   0  0  0  0  0  0  0  0  0  0  0  0
    1.8556   -0.1637   -0.7808 H   0  0  0  0  0  0  0  0  0  0  0  0
    1.8007    2.3265   -0.8999 H   0  0  0  0  0  0  0  0  0  0  0  0
  1  2  2  3
  1  5  1  0
  1  6  1  0
  2  3  1  0
  2 15  1  0
  3  4  2  0
  3  7  1  0
  8  9  1  0
  8 12  1  0
  8 13  1  0
  8 14  1  0
  9 10  2  3
  9 16  1  0
 10 11  1  0
 10 17  1  0
M  RAD  1  11   2
M  END
>  <reaction>  (8) 
rxn_2024

>  <mol_properties>  (8) 
{"1": {"label": "*3", "atom_type": "Cdd"}, "2": {"label": "*4", "atom_type": "Cd"}, "8": {"label": "*1", "atom_type": "Cs"}, "9": {"label": "*0", "atom_type": "CS"}, "14": {"label": "*2", "atom_type": "H0"}}

>  <type>  (8) 
unop_4

>  <geom_source>  (8) 
Heuristics

$$$$

     RDKit          3D

 17 15  0  0  0  0  0  0  0  0999 V2000
   -0.7327   -1.1965    2.0905 C   0  0  0  0  0  0  0  0  0  0  0  0
   -0.5332   -1.0685    0.7799 C   0  0  0  0  0  0  0  0  0  0  0  0
   -1.4384   -1.6493   -0.1941 C   0  0  0  0  0  0  0  0  0  0  0  0
   -1.2765   -1.5454   -1.7965 S   0  0  0  0  0  0  0  0  0  0  0  0
   -1.5847   -1.7431    2.4795 H   0  0  0  0  0  0  0  0  0  0  0  0
   -0.0544   -0.7613    2.8129 H   0  0  0  0  0  0  0  0  0  0  0  0
   -2.2844   -2.1921    0.2314 H   0  0  0  0  0  0  0  0  0  0  0  0
    1.5168    0.2469   -1.6861 C   0  0  0  0  0  0  0  0  0  0  0  0
    1.5168    0.2469   -0.1550 C   0  0  0  0  0  0  0  0  0  0  0  0
    1.5168    1.6350    0.3917 C   0  0  0  0  0  0  0  0  0  0  0  0
    0.3973    2.2907    1.3392 S   0  0  0  0  0  1  0  0  0  0  0  0
    2.3720    0.7970   -2.0832 H   0  0  0  0  0  0  0  0  0  0  0  0
    1.5676   -0.7741   -2.0648 H   0  0  0  0  0  0  0  0  0  0  0  0
    0.6073    0.7092   -2.0717 H   0  0  0  0  0  0  0  0  0  0  0  0
    0.4891   -0.4125    0.3136 H   0  0  0  0  0  0  0  0  0  0  0  0
    2.4272   -0.2499    0.2004 H   0  0  0  0  0  0  0  0  0  0  0  0
    2.3723    2.2403    0.0813 H   0  0  0  0  0  0  0  0  0  0  0  0
  1  2  2  3
  1  5  1  0
  1  6  1  0
  2  3  1  0
  2 15  1  0
  3  4  2  0
  3  7  1  0
  8  9  1  0
  8 12  1  0
  8 13  1  0
  8 14  1  0
  9 10  2  3
  9 16  1  0
 10 11  1  0
 10 17  1  0
M  RAD  1  11   2
M  END
>  <reaction>  (9) 
rxn_2024

>  <mol_properties>  (9) 
{"1": {"label": "*3", "atom_type": "Cdd"}, "2": {"label": "*4", "atom_type": "Cd"}, "8": {"label": "*1", "atom_type": "Cs"}, "9": {"label": "*0", "atom_type": "CS"}, "14": {"label": "*2", "atom_type": "H0"}}

>  <type>  (9) 
unop_5

>  <geom_source>  (9) 
Heuristics

$$$$

     RDKit          3D

 17 15  0  0  0  0  0  0  0  0999 V2000
   -2.3191   -0.2142    0.2446 C   0  0  0  0  0  0  0  0  0  0  0  0
   -1.1612   -0.8242   -0.0030 C   0  0  0  0  0  0  0  0  0  0  0  0
   -0.6048   -1.8108    0.9038 C   0  0  0  0  0  0  0  0  0  0  0  0
    0.7871   -2.5981    0.6860 S   0  0  0  0  0  0  0  0  0  0  0  0
   -2.8914   -0.4345    1.1389 H   0  0  0  0  0  0  0  0  0  0  0  0
   -2.7297    0.5211   -0.4351 H   0  0  0  0  0  0  0  0  0  0  0  0
   -1.2061   -2.0083    1.7931 H   0  0  0  0  0  0  0  0  0  0  0  0
    0.8888    0.4911   -2.4690 C   0  0  0  0  0  0  0  0  0  0  0  0
    0.8888    0.4911   -0.9379 C   0  0  0  0  0  0  0  0  0  0  0  0
    0.8888    1.8793   -0.3912 C   0  0  0  0  0  0  0  0  0  0  0  0
   -0.2307    2.5350    0.5563 S   0  0  0  0  0  1  0  0  0  0  0  0
    1.7440    1.0413   -2.8661 H   0  0  0  0  0  0  0  0  0  0  0  0
    0.9396   -0.5298   -2.8476 H   0  0  0  0  0  0  0  0  0  0  0  0
   -0.0207    0.9535   -2.8546 H   0  0  0  0  0  0  0  0  0  0  0  0
   -0.1388   -0.1682   -0.4692 H   0  0  0  0  0  0  0  0  0  0  0  0
    1.7992   -0.0056   -0.5825 H   0  0  0  0  0  0  0  0  0  0  0  0
    1.7443    2.4846   -0.7015 H   0  0  0  0  0  0  0  0  0  0  0  0
  1  2  2  3
  1  5  1  0
  1  6  1  0
  2  3  1  0
  2 15  1  0
  3  4  2  0
  3  7  1  0
  8  9  1  0
  8 12  1  0
  8 13  1  0
  8 14  1  0
  9 10  2  3
  9 16  1  0
 10 11  1  0
 10 17  1  0
M  RAD  1  11   2
M  END
>  <reaction>  (10) 
rxn_2024

>  <mol_properties>  (10) 
{"1": {"label": "*3", "atom_type": "Cdd"}, "2": {"label": "*4", "atom_type": "Cd"}, "8": {"label": "*1", "atom_type": "Cs"}, "9": {"label": "*0", "atom_type": "CS"}, "14": {"label": "*2", "atom_type": "H0"}}

>  <type>  (10) 
unop_6

>  <geom_source>  (10) 
Heuristics

$$$$

     RDKit          3D

 17 15  0  0  0  0  0  0  0  0999 V2000
   -2.0246   -0.1290    1.0512 C   0  0  0  0  0  0  0  0  0  0  0  0
   -1.1208   -0.7208    0.2721 C   0  0  0  0  0  0  0  0  0  0  0  0
   -0.5727   -2.0265    0.5884 C   0  0  0  0  0  0  0  0  0  0  0  0
    0.5226   -2.8174   -0.2945 S   0  0  0  0  0  0  0  0  0  0  0  0
   -2.3857   -0.6050    1.9561 H   0  0  0  0  0  0  0  0  0  0  0  0
   -2.4302    0.8451    0.8107 H   0  0  0  0  0  0  0  0  0  0  0  0
   -0.9577   -2.4766    1.5053 H   0  0  0  0  0  0  0  0  0  0  0  0
    0.9292    0.5945   -2.1939 C   0  0  0  0  0  0  0  0  0  0  0  0
    0.9292    0.5945   -0.6628 C   0  0  0  0  0  0  0  0  0  0  0  0
    0.9292    1.9827   -0.1161 C   0  0  0  0  0  0  0  0  0  0  0  0
   -0.1903    2.6384    0.8314 S   0  0  0  0  0  1  0  0  0  0  0  0
    1.7844    1.1447   -2.5910 H   0  0  0  0  0  0  0  0  0  0  0  0
    0.9801   -0.4264   -2.5725 H   0  0  0  0  0  0  0  0  0  0  0  0
    0.0197    1.0569   -2.5795 H   0  0  0  0  0  0  0  0  0  0  0  0
   -0.0984   -0.0648   -0.1942 H   0  0  0  0  0  0  0  0  0  0  0  0
    1.8396    0.0978   -0.3074 H   0  0  0  0  0  0  0  0  0  0  0  0
    1.7847    2.5880   -0.4265 H   0  0  0  0  0  0  0  0  0  0  0  0
  1  2  2  3
  1  5  1  0
  1  6  1  0
  2  3  1  0
  2 15  1  0
  3  4  2  0
  3  7  1  0
  8  9  1  0
  8 12  1  0
  8 13  1  0
  8 14  1  0
  9 10  2  3
  9 16  1  0
 10 11  1  0
 10 17  1  0
M  RAD  1  11   2
M  END
>  <reaction>  (11) 
rxn_2024

>  <mol_properties>  (11) 
{"1": {"label": "*3", "atom_type": "Cdd"}, "2": {"label": "*4", "atom_type": "Cd"}, "8": {"label": "*1", "atom_type": "Cs"}, "9": {"label": "*0", "atom_type": "CS"}, "14": {"label": "*2", "atom_type": "H0"}}

>  <type>  (11) 
unop_7

>  <geom_source>  (11) 
Heuristics

$$$$

     RDKit          3D

 17 16  0  0  0  0  0  0  0  0999 V2000
   -0.5009   -3.0479    0.2446 C   0  0  0  0  0  0  0  0  0  0  0  0
   -0.5729   -1.7411   -0.0030 C   0  0  0  0  0  0  0  0  0  0  0  0
   -1.2379   -0.8242    0.9038 C   0  0  0  0  0  3  0  0  0  0  0  0
   -1.3734    0.7692    0.6860 S   0  0  0  0  0  0  0  0  0  0  0  0
   -0.9397   -3.4763    1.1389 H   0  0  0  0  0  0  0  0  0  0  0  0
   -0.0037   -3.7276   -0.4351 H   0  0  0  0  0  0  0  0  0  0  0  0
   -1.6680   -1.2885    1.7931 H   0  0  0  0  0  0  0  0  0  0  0  0
    1.4771   -0.4258   -2.4690 C   0  0  0  0  0  0  0  0  0  0  0  0
    1.4771   -0.4258   -0.9379 C   0  0  0  0  0  0  0  0  0  0  0  0
    1.4771    0.9624   -0.3912 C   0  0  0  0  0  0  0  0  0  0  0  0
    0.3576    1.6181    0.5563 S   0  0  0  0  0  0  0  0  0  0  0  0
    2.3323    0.1244   -2.8661 H   0  0  0  0  0  0  0  0  0  0  0  0
    1.5280   -1.4467   -2.8476 H   0  0  0  0  0  0  0  0  0  0  0  0
    0.5676    0.0366   -2.8546 H   0  0  0  0  0  0  0  0  0  0  0  0
    0.4495   -1.0852   -0.4692 H   0  0  0  0  0  0  0  0  0  0  0  0
    2.3875   -0.9225   -0.5825 H   0  0  0  0  0  0  0  0  0  0  0  0
    2.3326    1.5676   -0.7015 H   0  0  0  0  0  0  0  0  0  0  0  0
  1  2  2  3
  1  5  1  0
  1  6  1  0
  2  3  1  0
  2 15  1  0
  3  4  1  0
  3  7  1  0
  4 11  1  0
  8  9  1  0
  8 12  1  0
  8 13  1  0
  8 14  1  0
  9 10  2  3
  9 16  1  0
 10 11  1  0
 10 17  1  0
M  RAD  1   3   2
M  END
>  <reaction>  (12) 
rxn_2024

>  <mol_properties>  (12) 
{"1": {"label": "*3", "atom_type": "Cdd"}, "2": {"label": "*4", "atom_type": "Cd"}, "8": {"label": "*1", "atom_type": "Cs"}, "9": {"label": "*0", "atom_type": "CS"}, "14": {"label": "*2", "atom_type": "H0"}}

>  <type>  (12) 
unop_8

>  <geom_source>  (12) 
Heuristics

$$$$

     RDKit          3D

 17 15  0  0  0  0  0  0  0  0999 V2000
   -2.1482   -1.2068   -0.9812 C   0  0  0  0  0  0  0  0  0  0  0  0
   -1.0004   -1.1468   -0.3081 C   0  0  0  0  0  0  0  0  0  0  0  0
   -0.9232   -1.4618    1.1061 C   0  0  0  0  0  0  0  0  0  0  0  0
    0.4198   -1.4164    2.0001 S   0  0  0  0  0  0  0  0  0  0  0  0
   -3.0725   -1.4952   -0.4930 H   0  0  0  0  0  0  0  0  0  0  0  0
   -2.2004   -0.9707   -2.0361 H   0  0  0  0  0  0  0  0  0  0  0  0
   -1.8710   -1.7480    1.5655 H   0  0  0  0  0  0  0  0  0  0  0  0
    1.0496    0.1686   -2.7741 C   0  0  0  0  0  0  0  0  0  0  0  0
    1.0496    0.1686   -1.2430 C   0  0  0  0  0  0  0  0  0  0  0  0
    1.0496    1.5567   -0.6963 C   0  0  0  0  0  0  0  0  0  0  0  0
   -0.0699    2.2124    0.2512 S   0  0  0  0  0  1  0  0  0  0  0  0
    1.9048    0.7187   -3.1712 H   0  0  0  0  0  0  0  0  0  0  0  0
    1.1005   -0.8524   -3.1528 H   0  0  0  0  0  0  0  0  0  0  0  0
    0.1401    0.6309   -3.1597 H   0  0  0  0  0  0  0  0  0  0  0  0
    0.0220   -0.4908   -0.7744 H   0  0  0  0  0  0  0  0  0  0  0  0
    1.9600   -0.3281   -0.8876 H   0  0  0  0  0  0  0  0  0  0  0  0
    1.9051    2.1620   -1.0067 H   0  0  0  0  0  0  0  0  0  0  0  0
  1  2  2  3
  1  5  1  0
  1  6  1  0
  2  3  1  0
  2 15  1  0
  3  4  2  0
  3  7  1  0
  8  9  1  0
  8 12  1  0
  8 13  1  0
  8 14  1  0
  9 10  2  3
  9 16  1  0
 10 11  1  0
 10 17  1  0
M  RAD  1  11   2
M  END
>  <reaction>  (13) 
rxn_2024

>  <mol_properties>  (13) 
{"1": {"label": "*3", "atom_type": "Cdd"}, "2": {"label": "*4", "atom_type": "Cd"}, "8": {"label": "*1", "atom_type": "Cs"}, "9": {"label": "*0", "atom_type": "CS"}, "14": {"label": "*2", "atom_type": "H0"}}

>  <type>  (13) 
unop_9

>  <geom_source>  (13) 
Heuristics

$$$$

     RDKit          3D

 17 16  0  0  0  0  0  0  0  0999 V2000
   -0.8752   -2.9125   -0.4853 C   0  0  0  0  0  0  0  0  0  0  0  0
   -0.6931   -1.6239   -0.2013 C   0  0  0  0  0  0  0  0  0  0  0  0
   -1.1098   -1.0513    1.0651 C   0  0  0  0  0  3  0  0  0  0  0  0
   -0.9300    0.4941    1.4943 S   0  0  0  0  0  0  0  0  0  0  0  0
   -1.3447   -3.5844    0.2247 H   0  0  0  0  0  0  0  0  0  0  0  0
   -0.5625   -3.3347   -1.4315 H   0  0  0  0  0  0  0  0  0  0  0  0
   -1.5782   -1.7549    1.7556 H   0  0  0  0  0  0  0  0  0  0  0  0
    1.3569   -0.3086   -2.6673 C   0  0  0  0  0  0  0  0  0  0  0  0
    1.3569   -0.3086   -1.1362 C   0  0  0  0  0  0  0  0  0  0  0  0
    1.3569    1.0796   -0.5895 C   0  0  0  0  0  0  0  0  0  0  0  0
    0.2374    1.7353    0.3580 S   0  0  0  0  0  0  0  0  0  0  0  0
    2.2121    0.2415   -3.0644 H   0  0  0  0  0  0  0  0  0  0  0  0
    1.4078   -1.3295   -3.0459 H   0  0  0  0  0  0  0  0  0  0  0  0
    0.4474    0.1538   -3.0529 H   0  0  0  0  0  0  0  0  0  0  0  0
    0.3293   -0.9680   -0.6676 H   0  0  0  0  0  0  0  0  0  0  0  0
    2.2673   -0.8053   -0.7808 H   0  0  0  0  0  0  0  0  0  0  0  0
    2.2124    1.6848   -0.8999 H   0  0  0  0  0  0  0  0  0  0  0  0
  1  2  2  3
  1  5  1  0
  1  6  1  0
  2  3  1  0
  2 15  1  0
  3  4  1  0
  3  7  1  0
  4 11  1  0
  8  9  1  0
  8 12  1  0
  8 13  1  0
  8 14  1  0
  9 10  2  3
  9 16  1  0
 10 11  1  0
 10 17  1  0
M  RAD  1   3   2
M  END
>  <reaction>  (14) 
rxn_2024

>  <mol_properties>  (14) 
{"1": {"label": "*3", "atom_type": "Cdd"}, "2": {"label": "*4", "atom_type": "Cd"}, "8": {"label": "*1", "atom_type": "Cs"}, "9": {"label": "*0", "atom_type": "CS"}, "14": {"label": "*2", "atom_type": "H0"}}

>  <type>  (14) 
unop_10

>  <geom_source>  (14) 
Heuristics

$$$$

     RDKit          3D

 17 15  0  0  0  0  0  0  0  0999 V2000
   -1.4798   -0.4151    1.7487 C   0  0  0  0  0  0  0  0  0  0  0  0
   -0.9268   -0.7368    0.5805 C   0  0  0  0  0  0  0  0  0  0  0  0
   -0.8058   -2.1148    0.1427 C   0  0  0  0  0  0  0  0  0  0  0  0
   -0.1523   -2.5967   -1.2521 S   0  0  0  0  0  0  0  0  0  0  0  0
   -1.8621   -1.1768    2.4192 H   0  0  0  0  0  0  0  0  0  0  0  0
   -1.5676    0.6145    2.0706 H   0  0  0  0  0  0  0  0  0  0  0  0
   -1.2004   -2.8551    0.8411 H   0  0  0  0  0  0  0  0  0  0  0  0
    1.1232    0.5786   -1.8855 C   0  0  0  0  0  0  0  0  0  0  0  0
    1.1232    0.5786   -0.3544 C   0  0  0  0  0  0  0  0  0  0  0  0
    1.1232    1.9668    0.1923 C   0  0  0  0  0  0  0  0  0  0  0  0
    0.0037    2.6224    1.1398 S   0  0  0  0  0  1  0  0  0  0  0  0
    1.9784    1.1287   -2.2826 H   0  0  0  0  0  0  0  0  0  0  0  0
    1.1740   -0.4423   -2.2641 H   0  0  0  0  0  0  0  0  0  0  0  0
    0.2137    1.0409   -2.2711 H   0  0  0  0  0  0  0  0  0  0  0  0
    0.0956   -0.0808    0.1142 H   0  0  0  0  0  0  0  0  0  0  0  0
    2.0336    0.0819    0.0010 H   0  0  0  0  0  0  0  0  0  0  0  0
    1.9787    2.5720   -0.1181 H   0  0  0  0  0  0  0  0  0  0  0  0
  1  2  2  3
  1  5  1  0
  1  6  1  0
  2  3  1  0
  2 15  1  0
  3  4  2  0
  3  7  1  0
  8  9  1  0
  8 12  1  0
  8 13  1  0
  8 14  1  0
  9 10  2  3
  9 16  1  0
 10 11  1  0
 10 17  1  0
M  RAD  1  11   2
M  END
>  <reaction>  (15) 
rxn_2024

>  <mol_properties>  (15) 
{"1": {"label": "*3", "atom_type": "Cdd"}, "2": {"label": "*4", "atom_type": "Cd"}, "8": {"label": "*1", "atom_type": "Cs"}, "9": {"label": "*0", "atom_type": "CS"}, "14": {"label": "*2", "atom_type": "H0"}}

>  <type>  (15) 
unop_11

>  <geom_source>  (15) 
Heuristics

$$$$

     RDKit          3D

 17 15  0  0  0  0  0  0  0  0999 V2000
   -1.7810   -1.8691   -1.1544 C   0  0  0  0  0  0  0  0  0  0  0  0
   -0.8946   -1.3004   -0.3389 C   0  0  0  0  0  0  0  0  0  0  0  0
   -1.0189   -1.3801    1.1045 C   0  0  0  0  0  0  0  0  0  0  0  0
    0.0038   -0.7239    2.1666 S   0  0  0  0  0  0  0  0  0  0  0  0
   -2.6332   -2.4158   -0.7662 H   0  0  0  0  0  0  0  0  0  0  0  0
   -1.6837   -1.8066   -2.2305 H   0  0  0  0  0  0  0  0  0  0  0  0
   -1.8873   -1.9372    1.4608 H   0  0  0  0  0  0  0  0  0  0  0  0
    1.1554    0.0150   -2.8049 C   0  0  0  0  0  0  0  0  0  0  0  0
    1.1554    0.0150   -1.2738 C   0  0  0  0  0  0  0  0  0  0  0  0
    1.1554    1.4031   -0.7271 C   0  0  0  0  0  0  0  0  0  0  0  0
    0.0358    2.0588    0.2204 S   0  0  0  0  0  1  0  0  0  0  0  0
    2.0106    0.5651   -3.2020 H   0  0  0  0  0  0  0  0  0  0  0  0
    1.2062   -1.0060   -3.1836 H   0  0  0  0  0  0  0  0  0  0  0  0
    0.2459    0.4773   -3.1905 H   0  0  0  0  0  0  0  0  0  0  0  0
    0.1277   -0.6444   -0.8052 H   0  0  0  0  0  0  0  0  0  0  0  0
    2.0657   -0.4818   -0.9184 H   0  0  0  0  0  0  0  0  0  0  0  0
    2.0108    2.0084   -1.0375 H   0  0  0  0  0  0  0  0  0  0  0  0
  1  2  2  3
  1  5  1  0
  1  6  1  0
  2  3  1  0
  2 15  1  0
  3  4  2  0
  3  7  1  0
  8  9  1  0
  8 12  1  0
  8 13  1  0
  8 14  1  0
  9 10  2  3
  9 16  1  0
 10 11  1  0
 10 17  1  0
M  RAD  1  11   2
M  END
>  <reaction>  (16) 
rxn_2024

>  <mol_properties>  (16) 
{"1": {"label": "*3", "atom_type": "Cdd"}, "2": {"label": "*4", "atom_type": "Cd"}, "8": {"label": "*1", "atom_type": "Cs"}, "9": {"label": "*0", "atom_type": "CS"}, "14": {"label": "*2", "atom_type": "H0"}}

>  <type>  (16) 
unop_12

>  <geom_source>  (16) 
Heuristics

$$$$

     RDKit          3D

 17 15  0  0  0  0  0  0  0  0999 V2000
    3.6507    1.5975    0.1381 S   0  0  0  0  0  0  0  0  0  0  0  0
   -2.1167    1.9622    0.5345 S   0  0  0  0  0  1  0  0  0  0  0  0
   -2.1474   -1.2837    0.3125 C   0  0  0  0  0  0  0  0  0  0  0  0
   -0.9932   -0.3382    0.6262 C   0  0  0  0  0  0  0  0  0  0  0  0
    1.4350    0.0235   -0.2263 C   0  0  0  0  0  0  0  0  0  0  0  0
   -1.1792    1.0133   -0.0012 C   0  0  0  0  0  0  0  0  0  0  0  0
    1.6937   -0.2013   -1.5141 C   0  0  0  0  0  0  0  0  0  0  0  0
    2.2830    0.8524    0.6506 C   0  0  0  0  0  0  0  0  0  0  0  0
   -1.9234   -2.2863    0.7323 H   0  0  0  0  0  0  0  0  0  0  0  0
   -3.0904   -0.9091    0.7643 H   0  0  0  0  0  0  0  0  0  0  0  0
   -2.2750   -1.3789   -0.7866 H   0  0  0  0  0  0  0  0  0  0  0  0
   -0.8324   -0.2566    1.7236 H   0  0  0  0  0  0  0  0  0  0  0  0
    0.4370   -0.4848    0.2627 H   0  0  0  0  0  0  0  0  0  0  0  0
    1.0228   -0.8219   -2.0930 H   0  0  0  0  0  0  0  0  0  0  0  0
    2.5598    0.2185   -2.0079 H   0  0  0  0  0  0  0  0  0  0  0  0
    1.9879    0.9750    1.6840 H   0  0  0  0  0  0  0  0  0  0  0  0
   -0.5121    1.3185   -0.7997 H   0  0  0  0  0  0  0  0  0  0  0  0
  1  8  2  0
  2  6  1  0
  3  4  1  0
  3  9  1  0
  3 10  1  0
  3 11  1  0
  4  6  2  3
  4 12  1  0
  5  7  2  3
  5  8  1  0
  5 13  1  0
  6 17  1  0
  7 14  1  0
  7 15  1  0
  8 16  1  0
M  RAD  1   2   2
M  END
>  <reaction>  (17) 
rxn_2024

>  <mol_properties>  (17) 
{"1": {"label": "*3", "atom_type": "Cdd"}, "2": {"label": "*4", "atom_type": "Cd"}, "8": {"label": "*1", "atom_type": "Cs"}, "9": {"label": "*0", "atom_type": "CS"}, "14": {"label": "*2", "atom_type": "H0"}}

>  <type>  (17) 
unop_13

>  <geom_source>  (17) 
AutoTST

$$$$
