
     RDKit          3D

  7  6  0  0  0  0  0  0  0  0999 V2000
    1.6964   -0.0938    0.0583 C   0  0  0  0  0  0  0  0  0  0  0  0
    0.5019   -0.0278    0.0173 C   0  0  0  0  0  0  0  0  0  0  0  0
   -0.9505    0.0525   -0.0327 C   0  0  0  0  0  0  0  0  0  0  0  0
    2.7574   -0.1524    0.0947 H   0  0  0  0  0  0  0  0  0  0  0  0
   -1.2692    0.9972   -0.4754 H   0  0  0  0  0  0  0  0  0  0  0  0
   -1.3749   -0.0147    0.9700 H   0  0  0  0  0  0  0  0  0  0  0  0
   -1.3610   -0.7611   -0.6323 H   0  0  0  0  0  0  0  0  0  0  0  0
  1  2  3  0
  1  4  1  0
  2  3  1  0
  3  5  1  0
  3  6  1  0
  3  7  1  0
M  END
>  <reaction>  (1) 
rxn_1217

>  <mol_properties>  (1) 
{"2": {"label": "donator", "atom_type": "Cs"}, "4": {"label": "d_hydrogen", "atom_type": "H0"}}

>  <type>  (1) 
r1h

$$$$

     RDKit          3D

 13 12  0  0  0  0  0  0  0  0999 V2000
   -1.3649   -0.5967   -0.3477 C   0  0  0  0  0  0  0  0  0  0  0  0
   -0.1601   -0.2776    0.4669 C   0  0  0  0  0  3  0  0  0  0  0  0
    1.1241   -0.9571    0.1414 C   0  0  0  0  0  0  0  0  0  0  0  0
   -0.1188    1.0130    1.2081 C   0  0  0  0  0  0  0  0  0  0  0  0
   -1.4266   -1.6632   -0.5770 H   0  0  0  0  0  0  0  0  0  0  0  0
   -2.2858   -0.3004    0.1602 H   0  0  0  0  0  0  0  0  0  0  0  0
   -1.3532   -0.0668   -1.3138 H   0  0  0  0  0  0  0  0  0  0  0  0
    1.6174   -0.4963   -0.7297 H   0  0  0  0  0  0  0  0  0  0  0  0
    0.9723   -2.0104   -0.1064 H   0  0  0  0  0  0  0  0  0  0  0  0
    1.8338   -0.8977    0.9701 H   0  0  0  0  0  0  0  0  0  0  0  0
   -1.0852    1.2507    1.6593 H   0  0  0  0  0  0  0  0  0  0  0  0
    0.6358    1.0009    1.9983 H   0  0  0  0  0  0  0  0  0  0  0  0
    0.1343    1.8546    0.5434 H   0  0  0  0  0  0  0  0  0  0  0  0
  1  2  1  0
  1  5  1  0
  1  6  1  0
  1  7  1  0
  2  3  1  0
  2  4  1  0
  3  8  1  0
  3  9  1  0
  3 10  1  0
  4 11  1  0
  4 12  1  0
  4 13  1  0
M  RAD  1   2   2
M  END
>  <reaction>  (2) 
rxn_1217

>  <mol_properties>  (2) 
{"1": {"label": "acceptor", "atom_type": "Cs"}}

>  <type>  (2) 
r2

$$$$

     RDKit          3D

 14 13  0  0  0  0  0  0  0  0999 V2000
   -0.7647   -1.2352   -0.0349 C   0  0  0  0  0  0  0  0  0  0  0  0
    0.0570   -0.0126    0.3624 C   0  0  0  0  0  0  0  0  0  0  0  0
    1.4161   -0.0194   -0.3308 C   0  0  0  0  0  0  0  0  0  0  0  0
   -0.7022    1.2765    0.0629 C   0  0  0  0  0  0  0  0  0  0  0  0
   -0.2387   -2.1618    0.2040 H   0  0  0  0  0  0  0  0  0  0  0  0
   -0.9625   -1.2316   -1.1108 H   0  0  0  0  0  0  0  0  0  0  0  0
   -1.7273   -1.2512    0.4806 H   0  0  0  0  0  0  0  0  0  0  0  0
    0.2295   -0.0590    1.4432 H   0  0  0  0  0  0  0  0  0  0  0  0
    1.2933    0.0260   -1.4168 H   0  0  0  0  0  0  0  0  0  0  0  0
    2.0206    0.8381   -0.0279 H   0  0  0  0  0  0  0  0  0  0  0  0
    1.9767   -0.9268   -0.0966 H   0  0  0  0  0  0  0  0  0  0  0  0
   -1.6639    1.3001    0.5798 H   0  0  0  0  0  0  0  0  0  0  0  0
   -0.8977    1.3664   -1.0096 H   0  0  0  0  0  0  0  0  0  0  0  0
   -0.1313    2.1545    0.3722 H   0  0  0  0  0  0  0  0  0  0  0  0
  1  2  1  0
  1  5  1  0
  1  6  1  0
  1  7  1  0
  2  3  1  0
  2  4  1  0
  2  8  1  0
  3  9  1  0
  3 10  1  0
  3 11  1  0
  4 12  1  0
  4 13  1  0
  4 14  1  0
M  END
>  <reaction>  (3) 
rxn_1217

>  <mol_properties>  (3) 
{"0": {"label": "a_hydrogen", "atom_type": "H0"}, "2": {"label": "acceptor", "atom_type": "Cs"}}

>  <type>  (3) 
r2h

$$$$

     RDKit          3D

 20 18  0  0  0  0  0  0  0  0999 V2000
    0.3380   -1.3808   -2.6204 C   0  0  0  0  0  0  0  0  0  0  0  0
   -0.1894   -1.4554   -1.5409 C   0  0  0  0  0  0  0  0  0  0  0  0
   -0.7737   -1.4688   -0.2453 C   0  0  0  0  0  3  0  0  0  0  0  0
    0.7908   -1.3403   -3.5813 H   0  0  0  0  0  0  0  0  0  0  0  0
   -0.3445   -0.3550    0.3831 H   0  0  0  0  0  0  0  0  0  0  0  0
   -0.4261   -2.2692    0.4035 H   0  0  0  0  0  0  0  0  0  0  0  0
   -1.8556   -1.3597   -0.2320 H   0  0  0  0  0  0  0  0  0  0  0  0
   -0.4495    0.8251    2.3082 C   0  0  0  0  0  0  0  0  0  0  0  0
    0.1353    0.7744    0.9199 C   0  0  0  0  0  0  0  0  0  0  0  0
   -0.3749    1.8335   -0.0234 C   0  0  0  0  0  0  0  0  0  0  0  0
    1.6264    0.5603    0.8662 C   0  0  0  0  0  0  0  0  0  0  0  0
   -1.5409    0.8516    2.2805 H   0  0  0  0  0  0  0  0  0  0  0  0
   -0.1422   -0.0382    2.9022 H   0  0  0  0  0  0  0  0  0  0  0  0
   -0.1124    1.7247    2.8374 H   0  0  0  0  0  0  0  0  0  0  0  0
   -0.0003    2.8230    0.2651 H   0  0  0  0  0  0  0  0  0  0  0  0
   -1.4660    1.8793   -0.0187 H   0  0  0  0  0  0  0  0  0  0  0  0
   -0.0457    1.6379   -1.0460 H   0  0  0  0  0  0  0  0  0  0  0  0
    1.9309   -0.2817    1.4912 H   0  0  0  0  0  0  0  0  0  0  0  0
    1.9567    0.3641   -0.1559 H   0  0  0  0  0  0  0  0  0  0  0  0
    2.1590    1.4493    1.2249 H   0  0  0  0  0  0  0  0  0  0  0  0
  1  2  3  0
  1  4  1  0
  2  3  1  0
  3  6  1  0
  3  7  1  0
  5  9  1  0
  8  9  1  0
  8 12  1  0
  8 13  1  0
  8 14  1  0
  9 10  1  0
  9 11  1  0
 10 15  1  0
 10 16  1  0
 10 17  1  0
 11 18  1  0
 11 19  1  0
 11 20  1  0
M  RAD  1   3   2
M  END
>  <reaction>  (4) 
rxn_1217

>  <mol_properties>  (4) 
{"1": {"label": "*4", "atom_type": "Ct"}, "2": {"label": "*3", "atom_type": "Cs"}, "4": {"label": "*2", "atom_type": "H0"}, "7": {"label": "*0", "atom_type": "Cs"}, "8": {"label": "*1", "atom_type": "Cs"}}

>  <type>  (4) 
ts

$$$$

     RDKit          3D

 20 18  0  0  0  0  0  0  0  0999 V2000
   -0.1982   -1.5622   -2.8456 C   0  0  0  0  0  0  0  0  0  0  0  0
   -0.1982   -1.5622   -1.6486 C   0  0  0  0  0  0  0  0  0  0  0  0
   -0.1982   -1.5622   -0.1931 C   0  0  0  0  0  0  0  0  0  0  0  0
   -0.1982   -1.5622   -3.9089 H   0  0  0  0  0  0  0  0  0  0  0  0
   -0.0867   -0.3426    0.2693 H   0  0  0  0  0  0  0  0  0  0  0  0
    0.6355   -2.1508    0.1922 H   0  0  0  0  0  0  0  0  0  0  0  0
   -1.1248   -1.9899    0.1922 H   0  0  0  0  0  0  0  0  0  0  0  0
   -1.2101    1.1786    1.5786 C   0  0  0  0  0  0  0  0  0  0  0  0
    0.0252    0.8821    0.7337 C   0  0  0  0  0  3  0  0  0  0  0  0
    0.6573    2.1718    0.2191 C   0  0  0  0  0  0  0  0  0  0  0  0
    1.0374    0.0531    1.5185 C   0  0  0  0  0  0  0  0  0  0  0  0
   -1.9512    1.7469    1.0126 H   0  0  0  0  0  0  0  0  0  0  0  0
   -1.6840    0.2581    1.9258 H   0  0  0  0  0  0  0  0  0  0  0  0
   -0.9399    1.7677    2.4599 H   0  0  0  0  0  0  0  0  0  0  0  0
    0.9917    2.7949    1.0538 H   0  0  0  0  0  0  0  0  0  0  0  0
   -0.0542    2.7558   -0.3684 H   0  0  0  0  0  0  0  0  0  0  0  0
    1.5252    1.9649   -0.4106 H   0  0  0  0  0  0  0  0  0  0  0  0
    0.5990   -0.8851    1.8649 H   0  0  0  0  0  0  0  0  0  0  0  0
    1.9112   -0.1874    0.9093 H   0  0  0  0  0  0  0  0  0  0  0  0
    1.3850    0.6036    2.3977 H   0  0  0  0  0  0  0  0  0  0  0  0
  1  2  3  0
  1  4  1  0
  2  3  1  0
  3  5  1  0
  3  6  1  0
  3  7  1  0
  8  9  1  0
  8 12  1  0
  8 13  1  0
  8 14  1  0
  9 10  1  0
  9 11  1  0
 10 15  1  0
 10 16  1  0
 10 17  1  0
 11 18  1  0
 11 19  1  0
 11 20  1  0
M  RAD  1   9   2
M  END
>  <reaction>  (5) 
rxn_1217

>  <mol_properties>  (5) 
{"1": {"label": "*4", "atom_type": "Ct"}, "2": {"label": "*3", "atom_type": "Cs"}, "4": {"label": "*2", "atom_type": "H0"}, "7": {"label": "*0", "atom_type": "Cs"}, "8": {"label": "*1", "atom_type": "Cs"}}

>  <type>  (5) 
unop_1

>  <geom_source>  (5) 
Heuristics

$$$$

     RDKit          3D

 20 18  0  0  0  0  0  0  0  0999 V2000
   -0.0885   -1.6375   -2.7705 C   0  0  0  0  0  0  0  0  0  0  0  0
   -0.0885   -1.6375   -1.5734 C   0  0  0  0  0  0  0  0  0  0  0  0
   -0.0885   -1.6375   -0.1180 C   0  0  0  0  0  0  0  0  0  0  0  0
   -0.0885   -1.6375   -3.8337 H   0  0  0  0  0  0  0  0  0  0  0  0
    0.0230   -0.4179    0.3444 H   0  0  0  0  0  0  0  0  0  0  0  0
    0.7452   -2.2261    0.2674 H   0  0  0  0  0  0  0  0  0  0  0  0
   -1.0151   -2.0652    0.2674 H   0  0  0  0  0  0  0  0  0  0  0  0
   -0.5075    1.7525   -0.2014 C   0  0  0  0  0  0  0  0  0  0  0  0
    0.1349    0.8067    0.8088 C   0  0  0  0  0  3  0  0  0  0  0  0
    1.4620    1.3658    1.3130 C   0  0  0  0  0  0  0  0  0  0  0  0
   -0.8135    0.5212    1.9693 C   0  0  0  0  0  0  0  0  0  0  0  0
    0.1554    1.9377   -1.0493 H   0  0  0  0  0  0  0  0  0  0  0  0
   -1.4436    1.3443   -0.5880 H   0  0  0  0  0  0  0  0  0  0  0  0
   -0.7311    2.7169    0.2641 H   0  0  0  0  0  0  0  0  0  0  0  0
    1.3059    2.3169    1.8305 H   0  0  0  0  0  0  0  0  0  0  0  0
    2.1560    1.5449    0.4892 H   0  0  0  0  0  0  0  0  0  0  0  0
    1.9410    0.6795    2.0146 H   0  0  0  0  0  0  0  0  0  0  0  0
   -1.7546    0.0936    1.6170 H   0  0  0  0  0  0  0  0  0  0  0  0
   -0.3706   -0.1785    2.6811 H   0  0  0  0  0  0  0  0  0  0  0  0
   -1.0476    1.4433    2.5094 H   0  0  0  0  0  0  0  0  0  0  0  0
  1  2  3  0
  1  4  1  0
  2  3  1  0
  3  5  1  0
  3  6  1  0
  3  7  1  0
  8  9  1  0
  8 12  1  0
  8 13  1  0
  8 14  1  0
  9 10  1  0
  9 11  1  0
 10 15  1  0
 10 16  1  0
 10 17  1  0
 11 18  1  0
 11 19  1  0
 11 20  1  0
M  RAD  1   9   2
M  END
>  <reaction>  (6) 
rxn_1217

>  <mol_properties>  (6) 
{"1": {"label": "*4", "atom_type": "Ct"}, "2": {"label": "*3", "atom_type": "Cs"}, "4": {"label": "*2", "atom_type": "H0"}, "7": {"label": "*0", "atom_type": "Cs"}, "8": {"label": "*1", "atom_type": "Cs"}}

>  <type>  (6) 
unop_2

>  <geom_source>  (6) 
Heuristics

$$$$

     RDKit          3D

 20 18  0  0  0  0  0  0  0  0999 V2000
   -0.2291   -1.6046   -2.7891 C   0  0  0  0  0  0  0  0  0  0  0  0
   -0.2291   -1.6046   -1.5921 C   0  0  0  0  0  0  0  0  0  0  0  0
   -0.2291   -1.6046   -0.1367 C   0  0  0  0  0  0  0  0  0  0  0  0
   -0.2291   -1.6046   -3.8524 H   0  0  0  0  0  0  0  0  0  0  0  0
   -0.1176   -0.3850    0.3257 H   0  0  0  0  0  0  0  0  0  0  0  0
    0.6046   -2.1932    0.2487 H   0  0  0  0  0  0  0  0  0  0  0  0
   -1.1557   -2.0323    0.2487 H   0  0  0  0  0  0  0  0  0  0  0  0
   -0.7289    0.9010    2.1321 C   0  0  0  0  0  0  0  0  0  0  0  0
   -0.0057    0.8397    0.7901 C   0  0  0  0  0  3  0  0  0  0  0  0
   -0.1551    2.1534    0.0287 C   0  0  0  0  0  0  0  0  0  0  0  0
    1.4655    0.4821    0.9785 C   0  0  0  0  0  0  0  0  0  0  0  0
   -1.7892    1.1278    2.0018 H   0  0  0  0  0  0  0  0  0  0  0  0
   -0.6502   -0.0466    2.6692 H   0  0  0  0  0  0  0  0  0  0  0  0
   -0.2964    1.6806    2.7659 H   0  0  0  0  0  0  0  0  0  0  0  0
    0.2971    2.9760    0.5903 H   0  0  0  0  0  0  0  0  0  0  0  0
   -1.2063    2.4001   -0.1349 H   0  0  0  0  0  0  0  0  0  0  0  0
    0.3358    2.1057   -0.9455 H   0  0  0  0  0  0  0  0  0  0  0  0
    1.5789   -0.4720    1.4975 H   0  0  0  0  0  0  0  0  0  0  0  0
    1.9820    0.4078    0.0192 H   0  0  0  0  0  0  0  0  0  0  0  0
    1.9735    1.2474    1.5726 H   0  0  0  0  0  0  0  0  0  0  0  0
  1  2  3  0
  1  4  1  0
  2  3  1  0
  3  5  1  0
  3  6  1  0
  3  7  1  0
  8  9  1  0
  8 12  1  0
  8 13  1  0
  8 14  1  0
  9 10  1  0
  9 11  1  0
 10 15  1  0
 10 16  1  0
 10 17  1  0
 11 18  1  0
 11 19  1  0
 11 20  1  0
M  RAD  1   9   2
M  END
>  <reaction>  (7) 
rxn_1217

>  <mol_properties>  (7) 
{"1": {"label": "*4", "atom_type": "Ct"}, "2": {"label": "*3", "atom_type": "Cs"}, "4": {"label": "*2", "atom_type": "H0"}, "7": {"label": "*0", "atom_type": "Cs"}, "8": {"label": "*1", "atom_type": "Cs"}}

>  <type>  (7) 
unop_3

>  <geom_source>  (7) 
Heuristics

$$$$

     RDKit          3D

 20 18  0  0  0  0  0  0  0  0999 V2000
   -0.2111   -1.5847   -2.8222 C   0  0  0  0  0  0  0  0  0  0  0  0
   -0.2111   -1.5847   -1.6252 C   0  0  0  0  0  0  0  0  0  0  0  0
   -0.2111   -1.5847   -0.1698 C   0  0  0  0  0  0  0  0  0  0  0  0
   -0.2111   -1.5847   -3.8855 H   0  0  0  0  0  0  0  0  0  0  0  0
   -0.0997   -0.3651    0.2927 H   0  0  0  0  0  0  0  0  0  0  0  0
    0.6226   -2.1733    0.2156 H   0  0  0  0  0  0  0  0  0  0  0  0
   -1.1377   -2.0124    0.2156 H   0  0  0  0  0  0  0  0  0  0  0  0
    1.3275    1.4380    0.2439 C   0  0  0  0  0  0  0  0  0  0  0  0
    0.0123    0.8596    0.7570 C   0  0  0  0  0  3  0  0  0  0  0  0
    0.2268    0.0782    2.0498 C   0  0  0  0  0  0  0  0  0  0  0  0
   -1.0292    1.9579    0.9493 C   0  0  0  0  0  0  0  0  0  0  0  0
    2.0680    0.6530    0.0764 H   0  0  0  0  0  0  0  0  0  0  0  0
    1.1854    1.9739   -0.6969 H   0  0  0  0  0  0  0  0  0  0  0  0
    1.7460    2.1421    0.9691 H   0  0  0  0  0  0  0  0  0  0  0  0
    0.6074    0.7356    2.8369 H   0  0  0  0  0  0  0  0  0  0  0  0
    0.9498   -0.7283    1.9109 H   0  0  0  0  0  0  0  0  0  0  0  0
   -0.7063   -0.3630    2.4066 H   0  0  0  0  0  0  0  0  0  0  0  0
   -1.2085    2.5021    0.0197 H   0  0  0  0  0  0  0  0  0  0  0  0
   -1.9821    1.5464    1.2885 H   0  0  0  0  0  0  0  0  0  0  0  0
   -0.6917    2.6798    1.6988 H   0  0  0  0  0  0  0  0  0  0  0  0
  1  2  3  0
  1  4  1  0
  2  3  1  0
  3  5  1  0
  3  6  1  0
  3  7  1  0
  8  9  1  0
  8 12  1  0
  8 13  1  0
  8 14  1  0
  9 10  1  0
  9 11  1  0
 10 15  1  0
 10 16  1  0
 10 17  1  0
 11 18  1  0
 11 19  1  0
 11 20  1  0
M  RAD  1   9   2
M  END
>  <reaction>  (8) 
rxn_1217

>  <mol_properties>  (8) 
{"1": {"label": "*4", "atom_type": "Ct"}, "2": {"label": "*3", "atom_type": "Cs"}, "4": {"label": "*2", "atom_type": "H0"}, "7": {"label": "*0", "atom_type": "Cs"}, "8": {"label": "*1", "atom_type": "Cs"}}

>  <type>  (8) 
unop_4

>  <geom_source>  (8) 
Heuristics

$$$$

     RDKit          3D

 20 18  0  0  0  0  0  0  0  0999 V2000
   -0.1510   -1.6527   -2.7449 C   0  0  0  0  0  0  0  0  0  0  0  0
   -0.1510   -1.6527   -1.5479 C   0  0  0  0  0  0  0  0  0  0  0  0
   -0.1510   -1.6527   -0.0924 C   0  0  0  0  0  0  0  0  0  0  0  0
   -0.1510   -1.6527   -3.8082 H   0  0  0  0  0  0  0  0  0  0  0  0
   -0.0396   -0.4331    0.3700 H   0  0  0  0  0  0  0  0  0  0  0  0
    0.6827   -2.2413    0.2929 H   0  0  0  0  0  0  0  0  0  0  0  0
   -1.0776   -2.0804    0.2929 H   0  0  0  0  0  0  0  0  0  0  0  0
    0.0657    0.7184    2.3583 C   0  0  0  0  0  0  0  0  0  0  0  0
    0.0723    0.7915    0.8344 C   0  0  0  0  0  3  0  0  0  0  0  0
   -1.1163    1.5988    0.3212 C   0  0  0  0  0  0  0  0  0  0  0  0
    1.3876    1.3700    0.3212 C   0  0  0  0  0  0  0  0  0  0  0  0
   -0.8617    0.2780    2.7306 H   0  0  0  0  0  0  0  0  0  0  0  0
    0.8979    0.1172    2.7306 H   0  0  0  0  0  0  0  0  0  0  0  0
    0.1571    1.7189    2.7910 H   0  0  0  0  0  0  0  0  0  0  0  0
   -1.0654    2.6296    0.6839 H   0  0  0  0  0  0  0  0  0  0  0  0
   -2.0623    1.1724    0.6613 H   0  0  0  0  0  0  0  0  0  0  0  0
   -1.1334    1.6302   -0.7702 H   0  0  0  0  0  0  0  0  0  0  0  0
    2.2407    0.7792    0.6614 H   0  0  0  0  0  0  0  0  0  0  0  0
    1.4102    1.3976   -0.7702 H   0  0  0  0  0  0  0  0  0  0  0  0
    1.5244    2.3930    0.6838 H   0  0  0  0  0  0  0  0  0  0  0  0
  1  2  3  0
  1  4  1  0
  2  3  1  0
  3  5  1  0
  3  6  1  0
  3  7  1  0
  8  9  1  0
  8 12  1  0
  8 13  1  0
  8 14  1  0
  9 10  1  0
  9 11  1  0
 10 15  1  0
 10 16  1  0
 10 17  1  0
 11 18  1  0
 11 19  1  0
 11 20  1  0
M  RAD  1   9   2
M  END
>  <reaction>  (9) 
rxn_1217

>  <mol_properties>  (9) 
{"1": {"label": "*4", "atom_type": "Ct"}, "2": {"label": "*3", "atom_type": "Cs"}, "4": {"label": "*2", "atom_type": "H0"}, "7": {"label": "*0", "atom_type": "Cs"}, "8": {"label": "*1", "atom_type": "Cs"}}

>  <type>  (9) 
unop_5

>  <geom_source>  (9) 
Heuristics

$$$$

     RDKit          3D

 20 18  0  0  0  0  0  0  0  0999 V2000
   -0.1574   -1.5609   -2.8565 C   0  0  0  0  0  0  0  0  0  0  0  0
   -0.1574   -1.5609   -1.6595 C   0  0  0  0  0  0  0  0  0  0  0  0
   -0.1574   -1.5609   -0.2040 C   0  0  0  0  0  0  0  0  0  0  0  0
   -0.1574   -1.5609   -3.9198 H   0  0  0  0  0  0  0  0  0  0  0  0
   -0.0460   -0.3414    0.2584 H   0  0  0  0  0  0  0  0  0  0  0  0
    0.6763   -2.1495    0.1813 H   0  0  0  0  0  0  0  0  0  0  0  0
   -1.0840   -1.9886    0.1813 H   0  0  0  0  0  0  0  0  0  0  0  0
    1.5515    1.1887    0.8886 C   0  0  0  0  0  0  0  0  0  0  0  0
    0.0659    0.8833    0.7228 C   0  0  0  0  0  3  0  0  0  0  0  0
   -0.4518    0.0422    1.8856 C   0  0  0  0  0  0  0  0  0  0  0  0
   -0.7427    2.1688    0.5761 C   0  0  0  0  0  0  0  0  0  0  0  0
    2.1393    0.2715    0.9648 H   0  0  0  0  0  0  0  0  0  0  0  0
    1.9349    1.7660    0.0447 H   0  0  0  0  0  0  0  0  0  0  0  0
    1.7243    1.7721    1.7978 H   0  0  0  0  0  0  0  0  0  0  0  0
   -0.3479    0.5862    2.8289 H   0  0  0  0  0  0  0  0  0  0  0  0
    0.1043   -0.8932    1.9776 H   0  0  0  0  0  0  0  0  0  0  0  0
   -1.5079   -0.2044    1.7579 H   0  0  0  0  0  0  0  0  0  0  0  0
   -0.3956    2.7616   -0.2727 H   0  0  0  0  0  0  0  0  0  0  0  0
   -1.8034    1.9558    0.4276 H   0  0  0  0  0  0  0  0  0  0  0  0
   -0.6489    2.7858    1.4746 H   0  0  0  0  0  0  0  0  0  0  0  0
  1  2  3  0
  1  4  1  0
  2  3  1  0
  3  5  1  0
  3  6  1  0
  3  7  1  0
  8  9  1  0
  8 12  1  0
  8 13  1  0
  8 14  1  0
  9 10  1  0
  9 11  1  0
 10 15  1  0
 10 16  1  0
 10 17  1  0
 11 18  1  0
 11 19  1  0
 11 20  1  0
M  RAD  1   9   2
M  END
>  <reaction>  (10) 
rxn_1217

>  <mol_properties>  (10) 
{"1": {"label": "*4", "atom_type": "Ct"}, "2": {"label": "*3", "atom_type": "Cs"}, "4": {"label": "*2", "atom_type": "H0"}, "7": {"label": "*0", "atom_type": "Cs"}, "8": {"label": "*1", "atom_type": "Cs"}}

>  <type>  (10) 
unop_6

>  <geom_source>  (10) 
Heuristics

$$$$

     RDKit          3D

 20 18  0  0  0  0  0  0  0  0999 V2000
   -0.0883   -1.5722   -2.8456 C   0  0  0  0  0  0  0  0  0  0  0  0
   -0.0883   -1.5722   -1.6486 C   0  0  0  0  0  0  0  0  0  0  0  0
   -0.0883   -1.5722   -0.1931 C   0  0  0  0  0  0  0  0  0  0  0  0
   -0.0883   -1.5722   -3.9089 H   0  0  0  0  0  0  0  0  0  0  0  0
    0.0232   -0.3527    0.2693 H   0  0  0  0  0  0  0  0  0  0  0  0
    0.7454   -2.1608    0.1922 H   0  0  0  0  0  0  0  0  0  0  0  0
   -1.0149   -1.9999    0.1922 H   0  0  0  0  0  0  0  0  0  0  0  0
    1.4037    0.9398    1.5786 C   0  0  0  0  0  0  0  0  0  0  0  0
    0.1351    0.8720    0.7337 C   0  0  0  0  0  3  0  0  0  0  0  0
   -1.0106    0.2403    1.5185 C   0  0  0  0  0  0  0  0  0  0  0  0
   -0.2527    2.2550    0.2191 C   0  0  0  0  0  0  0  0  0  0  0  0
    1.7030   -0.0514    1.9257 H   0  0  0  0  0  0  0  0  0  0  0  0
    2.2355    1.3644    1.0126 H   0  0  0  0  0  0  0  0  0  0  0  0
    1.2447    1.5680    2.4599 H   0  0  0  0  0  0  0  0  0  0  0  0
   -1.2525    0.8446    2.3978 H   0  0  0  0  0  0  0  0  0  0  0  0
   -0.7496   -0.7619    1.8647 H   0  0  0  0  0  0  0  0  0  0  0  0
   -1.9136    0.1623    0.9094 H   0  0  0  0  0  0  0  0  0  0  0  0
    0.5529    2.7004   -0.3683 H   0  0  0  0  0  0  0  0  0  0  0  0
   -1.1436    2.2088   -0.4107 H   0  0  0  0  0  0  0  0  0  0  0  0
   -0.4688    2.9283    1.0537 H   0  0  0  0  0  0  0  0  0  0  0  0
  1  2  3  0
  1  4  1  0
  2  3  1  0
  3  5  1  0
  3  6  1  0
  3  7  1  0
  8  9  1  0
  8 12  1  0
  8 13  1  0
  8 14  1  0
  9 10  1  0
  9 11  1  0
 10 15  1  0
 10 16  1  0
 10 17  1  0
 11 18  1  0
 11 19  1  0
 11 20  1  0
M  RAD  1   9   2
M  END
>  <reaction>  (11) 
rxn_1217

>  <mol_properties>  (11) 
{"1": {"label": "*4", "atom_type": "Ct"}, "2": {"label": "*3", "atom_type": "Cs"}, "4": {"label": "*2", "atom_type": "H0"}, "7": {"label": "*0", "atom_type": "Cs"}, "8": {"label": "*1", "atom_type": "Cs"}}

>  <type>  (11) 
unop_7

>  <geom_source>  (11) 
Heuristics

$$$$

     RDKit          3D

 20 18  0  0  0  0  0  0  0  0999 V2000
   -0.1281   -1.5636   -2.8565 C   0  0  0  0  0  0  0  0  0  0  0  0
   -0.1281   -1.5636   -1.6595 C   0  0  0  0  0  0  0  0  0  0  0  0
   -0.1281   -1.5636   -0.2040 C   0  0  0  0  0  0  0  0  0  0  0  0
   -0.1281   -1.5636   -3.9198 H   0  0  0  0  0  0  0  0  0  0  0  0
   -0.0167   -0.3440    0.2584 H   0  0  0  0  0  0  0  0  0  0  0  0
    0.7056   -2.1522    0.1813 H   0  0  0  0  0  0  0  0  0  0  0  0
   -1.0547   -1.9913    0.1813 H   0  0  0  0  0  0  0  0  0  0  0  0
   -1.3104    1.4503    0.8886 C   0  0  0  0  0  0  0  0  0  0  0  0
    0.0953    0.8806    0.7228 C   0  0  0  0  0  3  0  0  0  0  0  0
    1.1236    1.9982    0.5761 C   0  0  0  0  0  0  0  0  0  0  0  0
    0.4520   -0.0404    1.8856 C   0  0  0  0  0  0  0  0  0  0  0  0
   -1.5828    2.0874    0.0446 H   0  0  0  0  0  0  0  0  0  0  0  0
   -2.0547    0.6548    0.9649 H   0  0  0  0  0  0  0  0  0  0  0  0
   -1.3744    2.0553    1.7978 H   0  0  0  0  0  0  0  0  0  0  0  0
    1.1430    2.6221    1.4745 H   0  0  0  0  0  0  0  0  0  0  0  0
    0.8897    2.6441   -0.2728 H   0  0  0  0  0  0  0  0  0  0  0  0
    2.1281    1.5965    0.4278 H   0  0  0  0  0  0  0  0  0  0  0  0
   -0.2646   -0.8594    1.9777 H   0  0  0  0  0  0  0  0  0  0  0  0
    1.4458   -0.4745    1.7578 H   0  0  0  0  0  0  0  0  0  0  0  0
    0.4486    0.5135    2.8289 H   0  0  0  0  0  0  0  0  0  0  0  0
  1  2  3  0
  1  4  1  0
  2  3  1  0
  3  5  1  0
  3  6  1  0
  3  7  1  0
  8  9  1  0
  8 12  1  0
  8 13  1  0
  8 14  1  0
  9 10  1  0
  9 11  1  0
 10 15  1  0
 10 16  1  0
 10 17  1  0
 11 18  1  0
 11 19  1  0
 11 20  1  0
M  RAD  1   9   2
M  END
>  <reaction>  (12) 
rxn_1217

>  <mol_properties>  (12) 
{"1": {"label": "*4", "atom_type": "Ct"}, "2": {"label": "*3", "atom_type": "Cs"}, "4": {"label": "*2", "atom_type": "H0"}, "7": {"label": "*0", "atom_type": "Cs"}, "8": {"label": "*1", "atom_type": "Cs"}}

>  <type>  (12) 
unop_8

>  <geom_source>  (12) 
Heuristics

$$$$

     RDKit          3D

 20 18  0  0  0  0  0  0  0  0999 V2000
   -0.2098   -1.6264   -2.7705 C   0  0  0  0  0  0  0  0  0  0  0  0
   -0.2098   -1.6264   -1.5734 C   0  0  0  0  0  0  0  0  0  0  0  0
   -0.2098   -1.6264   -0.1180 C   0  0  0  0  0  0  0  0  0  0  0  0
   -0.2098   -1.6264   -3.8337 H   0  0  0  0  0  0  0  0  0  0  0  0
   -0.0984   -0.4069    0.3444 H   0  0  0  0  0  0  0  0  0  0  0  0
    0.6239   -2.2150    0.2674 H   0  0  0  0  0  0  0  0  0  0  0  0
   -1.1364   -2.0541    0.2674 H   0  0  0  0  0  0  0  0  0  0  0  0
    0.8168    1.6315   -0.2014 C   0  0  0  0  0  0  0  0  0  0  0  0
    0.0136    0.8178    0.8088 C   0  0  0  0  0  3  0  0  0  0  0  0
    0.8945    0.3651    1.9693 C   0  0  0  0  0  0  0  0  0  0  0  0
   -1.1902    1.6082    1.3130 C   0  0  0  0  0  0  0  0  0  0  0  0
    1.6634    1.0603   -0.5881 H   0  0  0  0  0  0  0  0  0  0  0  0
    0.1984    1.9338   -1.0492 H   0  0  0  0  0  0  0  0  0  0  0  0
    1.2116    2.5393    0.2641 H   0  0  0  0  0  0  0  0  0  0  0  0
    1.2919    1.2295    2.5093 H   0  0  0  0  0  0  0  0  0  0  0  0
    1.7424   -0.2261    1.6170 H   0  0  0  0  0  0  0  0  0  0  0  0
    0.3320   -0.2426    2.6812 H   0  0  0  0  0  0  0  0  0  0  0  0
   -1.8402    1.9102    0.4891 H   0  0  0  0  0  0  0  0  0  0  0  0
   -1.7857    1.0201    2.0144 H   0  0  0  0  0  0  0  0  0  0  0  0
   -0.8643    2.5151    1.8306 H   0  0  0  0  0  0  0  0  0  0  0  0
  1  2  3  0
  1  4  1  0
  2  3  1  0
  3  5  1  0
  3  6  1  0
  3  7  1  0
  8  9  1  0
  8 12  1  0
  8 13  1  0
  8 14  1  0
  9 10  1  0
  9 11  1  0
 10 15  1  0
 10 16  1  0
 10 17  1  0
 11 18  1  0
 11 19  1  0
 11 20  1  0
M  RAD  1   9   2
M  END
>  <reaction>  (13) 
rxn_1217

>  <mol_properties>  (13) 
{"1": {"label": "*4", "atom_type": "Ct"}, "2": {"label": "*3", "atom_type": "Cs"}, "4": {"label": "*2", "atom_type": "H0"}, "7": {"label": "*0", "atom_type": "Cs"}, "8": {"label": "*1", "atom_type": "Cs"}}

>  <type>  (13) 
unop_9

>  <geom_source>  (13) 
Heuristics

$$$$

     RDKit          3D

 20 18  0  0  0  0  0  0  0  0999 V2000
   -0.0796   -1.5967   -2.8222 C   0  0  0  0  0  0  0  0  0  0  0  0
   -0.0796   -1.5967   -1.6252 C   0  0  0  0  0  0  0  0  0  0  0  0
   -0.0796   -1.5967   -0.1698 C   0  0  0  0  0  0  0  0  0  0  0  0
   -0.0796   -1.5967   -3.8855 H   0  0  0  0  0  0  0  0  0  0  0  0
    0.0318   -0.3771    0.2927 H   0  0  0  0  0  0  0  0  0  0  0  0
    0.7541   -2.1853    0.2156 H   0  0  0  0  0  0  0  0  0  0  0  0
   -1.0062   -2.0244    0.2156 H   0  0  0  0  0  0  0  0  0  0  0  0
   -1.0449    1.6548    0.2439 C   0  0  0  0  0  0  0  0  0  0  0  0
    0.1438    0.8476    0.7570 C   0  0  0  0  0  3  0  0  0  0  0  0
    1.3670    1.7389    0.9493 C   0  0  0  0  0  0  0  0  0  0  0  0
   -0.2089    0.1180    2.0498 C   0  0  0  0  0  0  0  0  0  0  0  0
   -0.8079    2.1560   -0.6969 H   0  0  0  0  0  0  0  0  0  0  0  0
   -1.9154    1.0170    0.0765 H   0  0  0  0  0  0  0  0  0  0  0  0
   -1.3287    2.4231    0.9690 H   0  0  0  0  0  0  0  0  0  0  0  0
    1.1660    2.5101    1.6987 H   0  0  0  0  0  0  0  0  0  0  0  0
    1.6421    2.2415    0.0197 H   0  0  0  0  0  0  0  0  0  0  0  0
    2.2296    1.1615    1.2887 H   0  0  0  0  0  0  0  0  0  0  0  0
   -1.0662   -0.5440    1.9110 H   0  0  0  0  0  0  0  0  0  0  0  0
    0.6287   -0.4851    2.4065 H   0  0  0  0  0  0  0  0  0  0  0  0
   -0.4639    0.8336    2.8370 H   0  0  0  0  0  0  0  0  0  0  0  0
  1  2  3  0
  1  4  1  0
  2  3  1  0
  3  5  1  0
  3  6  1  0
  3  7  1  0
  8  9  1  0
  8 12  1  0
  8 13  1  0
  8 14  1  0
  9 10  1  0
  9 11  1  0
 10 15  1  0
 10 16  1  0
 10 17  1  0
 11 18  1  0
 11 19  1  0
 11 20  1  0
M  RAD  1   9   2
M  END
>  <reaction>  (14) 
rxn_1217

>  <mol_properties>  (14) 
{"1": {"label": "*4", "atom_type": "Ct"}, "2": {"label": "*3", "atom_type": "Cs"}, "4": {"label": "*2", "atom_type": "H0"}, "7": {"label": "*0", "atom_type": "Cs"}, "8": {"label": "*1", "atom_type": "Cs"}}

>  <type>  (14) 
unop_10

>  <geom_source>  (14) 
Heuristics

$$$$

     RDKit          3D

 20 18  0  0  0  0  0  0  0  0999 V2000
   -0.0656   -1.6195   -2.7891 C   0  0  0  0  0  0  0  0  0  0  0  0
   -0.0656   -1.6195   -1.5921 C   0  0  0  0  0  0  0  0  0  0  0  0
   -0.0656   -1.6195   -0.1367 C   0  0  0  0  0  0  0  0  0  0  0  0
   -0.0656   -1.6195   -3.8524 H   0  0  0  0  0  0  0  0  0  0  0  0
    0.0459   -0.4000    0.3257 H   0  0  0  0  0  0  0  0  0  0  0  0
    0.7681   -2.2081    0.2487 H   0  0  0  0  0  0  0  0  0  0  0  0
   -0.9922   -2.0472    0.2487 H   0  0  0  0  0  0  0  0  0  0  0  0
    0.8802    0.7539    2.1321 C   0  0  0  0  0  0  0  0  0  0  0  0
    0.1578    0.8247    0.7901 C   0  0  0  0  0  3  0  0  0  0  0  0
   -1.3538    0.7397    0.9785 C   0  0  0  0  0  0  0  0  0  0  0  0
    0.5429    2.0896    0.0287 C   0  0  0  0  0  0  0  0  0  0  0  0
    0.6311   -0.1637    2.6692 H   0  0  0  0  0  0  0  0  0  0  0  0
    1.9640    0.7849    2.0018 H   0  0  0  0  0  0  0  0  0  0  0  0
    0.5961    1.5990    2.7660 H   0  0  0  0  0  0  0  0  0  0  0  0
   -1.7146    1.5844    1.5727 H   0  0  0  0  0  0  0  0  0  0  0  0
   -1.6383   -0.1781    1.4973 H   0  0  0  0  0  0  0  0  0  0  0  0
   -1.8753    0.7605    0.0192 H   0  0  0  0  0  0  0  0  0  0  0  0
    1.6214    2.1417   -0.1347 H   0  0  0  0  0  0  0  0  0  0  0  0
    0.0516    2.1316   -0.9456 H   0  0  0  0  0  0  0  0  0  0  0  0
    0.2471    2.9806    0.5903 H   0  0  0  0  0  0  0  0  0  0  0  0
  1  2  3  0
  1  4  1  0
  2  3  1  0
  3  5  1  0
  3  6  1  0
  3  7  1  0
  8  9  1  0
  8 12  1  0
  8 13  1  0
  8 14  1  0
  9 10  1  0
  9 11  1  0
 10 15  1  0
 10 16  1  0
 10 17  1  0
 11 18  1  0
 11 19  1  0
 11 20  1  0
M  RAD  1   9   2
M  END
>  <reaction>  (15) 
rxn_1217

>  <mol_properties>  (15) 
{"1": {"label": "*4", "atom_type": "Ct"}, "2": {"label": "*3", "atom_type": "Cs"}, "4": {"label": "*2", "atom_type": "H0"}, "7": {"label": "*0", "atom_type": "Cs"}, "8": {"label": "*1", "atom_type": "Cs"}}

>  <type>  (15) 
unop_11

>  <geom_source>  (15) 
Heuristics

$$$$

     RDKit          3D

 20 18  0  0  0  0  0  0  0  0999 V2000
   -0.1510   -1.6527   -2.7449 C   0  0  0  0  0  0  0  0  0  0  0  0
   -0.1510   -1.6527   -1.5479 C   0  0  0  0  0  0  0  0  0  0  0  0
   -0.1510   -1.6527   -0.0924 C   0  0  0  0  0  0  0  0  0  0  0  0
   -0.1510   -1.6527   -3.8082 H   0  0  0  0  0  0  0  0  0  0  0  0
   -0.0396   -0.4331    0.3700 H   0  0  0  0  0  0  0  0  0  0  0  0
    0.6827   -2.2413    0.2929 H   0  0  0  0  0  0  0  0  0  0  0  0
   -1.0776   -2.0804    0.2929 H   0  0  0  0  0  0  0  0  0  0  0  0
    0.1590    1.7397   -0.3578 C   0  0  0  0  0  0  0  0  0  0  0  0
    0.0723    0.7915    0.8344 C   0  0  0  0  0  3  0  0  0  0  0  0
    1.3409    0.8593    1.6793 C   0  0  0  0  0  0  0  0  0  0  0  0
   -1.1630    1.0881    1.6793 C   0  0  0  0  0  0  0  0  0  0  0  0
    1.0254    1.5135   -0.9829 H   0  0  0  0  0  0  0  0  0  0  0  0
   -0.7341    1.6744   -0.9828 H   0  0  0  0  0  0  0  0  0  0  0  0
    0.2537    2.7754   -0.0184 H   0  0  0  0  0  0  0  0  0  0  0  0
    1.4761    1.8647    2.0886 H   0  0  0  0  0  0  0  0  0  0  0  0
    2.2261    0.6192    1.0865 H   0  0  0  0  0  0  0  0  0  0  0  0
    1.2971    0.1613    2.5180 H   0  0  0  0  0  0  0  0  0  0  0  0
   -2.0770    1.0126    1.0865 H   0  0  0  0  0  0  0  0  0  0  0  0
   -1.2465    0.3937    2.5179 H   0  0  0  0  0  0  0  0  0  0  0  0
   -1.1136    2.1013    2.0888 H   0  0  0  0  0  0  0  0  0  0  0  0
  1  2  3  0
  1  4  1  0
  2  3  1  0
  3  5  1  0
  3  6  1  0
  3  7  1  0
  8  9  1  0
  8 12  1  0
  8 13  1  0
  8 14  1  0
  9 10  1  0
  9 11  1  0
 10 15  1  0
 10 16  1  0
 10 17  1  0
 11 18  1  0
 11 19  1  0
 11 20  1  0
M  RAD  1   9   2
M  END
>  <reaction>  (16) 
rxn_1217

>  <mol_properties>  (16) 
{"1": {"label": "*4", "atom_type": "Ct"}, "2": {"label": "*3", "atom_type": "Cs"}, "4": {"label": "*2", "atom_type": "H0"}, "7": {"label": "*0", "atom_type": "Cs"}, "8": {"label": "*1", "atom_type": "Cs"}}

>  <type>  (16) 
unop_12

>  <geom_source>  (16) 
Heuristics

$$$$

     RDKit          3D

 20 18  0  0  0  0  0  0  0  0999 V2000
   -0.7732    0.0591   -0.0083 C   0  0  0  0  0  3  0  0  0  0  0  0
   -0.7686   -0.9576   -1.1536 C   0  0  0  0  0  0  0  0  0  0  0  0
   -1.9469    1.0321   -0.1531 C   0  0  0  0  0  0  0  0  0  0  0  0
   -0.8240   -0.6524    1.3468 C   0  0  0  0  0  0  0  0  0  0  0  0
    1.6324    0.9705   -0.4158 C   0  0  0  0  0  0  0  0  0  0  0  0
    2.6480    0.0281    0.0542 C   0  0  0  0  0  0  0  0  0  0  0  0
    3.4846   -0.7486    0.4415 C   0  0  0  0  0  0  0  0  0  0  0  0
    0.3766    0.7709   -0.0698 H   0  0  0  0  0  0  0  0  0  0  0  0
   -0.6937   -0.4315   -2.1288 H   0  0  0  0  0  0  0  0  0  0  0  0
   -1.6978   -1.5673   -1.1426 H   0  0  0  0  0  0  0  0  0  0  0  0
    0.1076   -1.6334   -1.0586 H   0  0  0  0  0  0  0  0  0  0  0  0
   -1.9179    1.7868    0.6613 H   0  0  0  0  0  0  0  0  0  0  0  0
   -1.8784    1.5690   -1.1229 H   0  0  0  0  0  0  0  0  0  0  0  0
   -2.9159    0.4897   -0.1083 H   0  0  0  0  0  0  0  0  0  0  0  0
   -0.7888    0.0932    2.1693 H   0  0  0  0  0  0  0  0  0  0  0  0
   -1.7550   -1.2518    1.4423 H   0  0  0  0  0  0  0  0  0  0  0  0
    0.0519   -1.3266    1.4554 H   0  0  0  0  0  0  0  0  0  0  0  0
    1.9818    1.4558   -1.3503 H   0  0  0  0  0  0  0  0  0  0  0  0
    1.4582    1.7444    0.3599 H   0  0  0  0  0  0  0  0  0  0  0  0
    4.2192   -1.4304    0.7814 H   0  0  0  0  0  0  0  0  0  0  0  0
  1  2  1  0
  1  3  1  0
  1  4  1  0
  2  9  1  0
  2 10  1  0
  2 11  1  0
  3 12  1  0
  3 13  1  0
  3 14  1  0
  4 15  1  0
  4 16  1  0
  4 17  1  0
  5  6  1  0
  5  8  1  0
  5 18  1  0
  5 19  1  0
  6  7  3  0
  7 20  1  0
M  RAD  1   1   2
M  END
>  <reaction>  (17) 
rxn_1217

>  <mol_properties>  (17) 
{"1": {"label": "*4", "atom_type": "Ct"}, "2": {"label": "*3", "atom_type": "Cs"}, "4": {"label": "*2", "atom_type": "H0"}, "7": {"label": "*0", "atom_type": "Cs"}, "8": {"label": "*1", "atom_type": "Cs"}}

>  <type>  (17) 
unop_13

>  <geom_source>  (17) 
AutoTST

$$$$

     RDKit          3D

 20 18  0  0  0  0  0  0  0  0999 V2000
   -0.0885   -1.6375   -2.7705 C   0  0  0  0  0  0  0  0  0  0  0  0
   -0.0885   -1.6375   -1.5734 C   0  0  0  0  0  0  0  0  0  0  0  0
   -0.0885   -1.6375   -0.1180 C   0  0  0  0  0  0  0  0  0  0  0  0
   -0.0885   -1.6375   -3.8337 H   0  0  0  0  0  0  0  0  0  0  0  0
    0.0230   -0.4179    0.3444 H   0  0  0  0  0  0  0  0  0  0  0  0
    0.7452   -2.2261    0.2674 H   0  0  0  0  0  0  0  0  0  0  0  0
   -1.0151   -2.0652    0.2674 H   0  0  0  0  0  0  0  0  0  0  0  0
   -0.5075    1.7525   -0.2014 C   0  0  0  0  0  0  0  0  0  0  0  0
    0.1349    0.8067    0.8088 C   0  0  0  0  0  3  0  0  0  0  0  0
    1.4620    1.3658    1.3130 C   0  0  0  0  0  0  0  0  0  0  0  0
   -0.8135    0.5212    1.9693 C   0  0  0  0  0  0  0  0  0  0  0  0
    0.1554    1.9377   -1.0493 H   0  0  0  0  0  0  0  0  0  0  0  0
   -1.4437    1.3443   -0.5880 H   0  0  0  0  0  0  0  0  0  0  0  0
   -0.7311    2.7169    0.2641 H   0  0  0  0  0  0  0  0  0  0  0  0
    1.3059    2.3169    1.8305 H   0  0  0  0  0  0  0  0  0  0  0  0
    2.1560    1.5449    0.4892 H   0  0  0  0  0  0  0  0  0  0  0  0
    1.9410    0.6795    2.0145 H   0  0  0  0  0  0  0  0  0  0  0  0
   -1.7546    0.0936    1.6170 H   0  0  0  0  0  0  0  0  0  0  0  0
   -0.3706   -0.1785    2.6811 H   0  0  0  0  0  0  0  0  0  0  0  0
   -1.0476    1.4433    2.5094 H   0  0  0  0  0  0  0  0  0  0  0  0
  1  2  3  0
  1  4  1  0
  2  3  1  0
  3  5  1  0
  3  6  1  0
  3  7  1  0
  8  9  1  0
  8 12  1  0
  8 13  1  0
  8 14  1  0
  9 10  1  0
  9 11  1  0
 10 15  1  0
 10 16  1  0
 10 17  1  0
 11 18  1  0
 11 19  1  0
 11 20  1  0
M  RAD  1   9   2
M  END
>  <reaction>  (18) 
rxn_1217

>  <mol_properties>  (18) 
{"1": {"label": "*4", "atom_type": "Ct"}, "2": {"label": "*3", "atom_type": "Cs"}, "4": {"label": "*2", "atom_type": "H0"}, "7": {"label": "*0", "atom_type": "Cs"}, "8": {"label": "*1", "atom_type": "Cs"}}

>  <type>  (18) 
unop_14

>  <geom_source>  (18) 
gaussian_log

$$$$
