
     RDKit          3D

  7  6  0  0  0  0  0  0  0  0999 V2000
   -0.6782    0.0507    0.0301 C   0  0  0  0  0  0  0  0  0  0  0  0
    0.8092    0.0996    0.0213 C   0  0  0  0  0  0  0  0  0  0  0  0
    1.7473    0.7521    1.1507 S   0  0  0  0  0  0  0  0  0  0  0  0
   -1.0667    0.5456   -0.8653 H   0  0  0  0  0  0  0  0  0  0  0  0
   -1.0112   -0.9904   -0.0239 H   0  0  0  0  0  0  0  0  0  0  0  0
   -1.0920    0.5225    0.9188 H   0  0  0  0  0  0  0  0  0  0  0  0
    1.2740   -0.3620   -0.8520 H   0  0  0  0  0  0  0  0  0  0  0  0
  1  2  1  0
  1  4  1  0
  1  5  1  0
  1  6  1  0
  2  3  2  0
  2  7  1  0
M  END
>  <reaction>  (1) 
rxn_1952

>  <mol_properties>  (1) 
{"0": {"label": "donator", "atom_type": "Cs"}, "3": {"label": "d_hydrogen", "atom_type": "H0"}}

>  <type>  (1) 
r1h

$$$$

     RDKit          3D

  7  6  0  0  0  0  0  0  0  0999 V2000
   -0.6201    0.0189   -0.0017 C   0  0  0  0  0  0  0  0  0  0  0  0
    0.8589   -0.0553    0.0500 C   0  0  0  0  0  3  0  0  0  0  0  0
   -1.0738   -0.9730   -0.0559 H   0  0  0  0  0  0  0  0  0  0  0  0
   -0.9680    0.5706   -0.8872 H   0  0  0  0  0  0  0  0  0  0  0  0
   -1.0303    0.5369    0.8678 H   0  0  0  0  0  0  0  0  0  0  0  0
    1.3939   -0.8386   -0.4695 H   0  0  0  0  0  0  0  0  0  0  0  0
    1.4394    0.7404    0.4965 H   0  0  0  0  0  0  0  0  0  0  0  0
  1  2  1  0
  1  3  1  0
  1  4  1  0
  1  5  1  0
  2  6  1  0
  2  7  1  0
M  RAD  1   2   2
M  END
>  <reaction>  (2) 
rxn_1952

>  <mol_properties>  (2) 
{"1": {"label": "acceptor", "atom_type": "Cs"}}

>  <type>  (2) 
r2

$$$$

     RDKit          3D

  8  7  0  0  0  0  0  0  0  0999 V2000
    0.7610    0.0250    0.0051 C   0  0  0  0  0  0  0  0  0  0  0  0
   -0.7610   -0.0250   -0.0051 C   0  0  0  0  0  0  0  0  0  0  0  0
    1.1904   -0.9237   -0.3217 H   0  0  0  0  0  0  0  0  0  0  0  0
    1.1359    0.8041   -0.6609 H   0  0  0  0  0  0  0  0  0  0  0  0
    1.1435    0.2336    1.0058 H   0  0  0  0  0  0  0  0  0  0  0  0
   -1.1359   -0.8041    0.6609 H   0  0  0  0  0  0  0  0  0  0  0  0
   -1.1435   -0.2336   -1.0058 H   0  0  0  0  0  0  0  0  0  0  0  0
   -1.1904    0.9237    0.3217 H   0  0  0  0  0  0  0  0  0  0  0  0
  1  2  1  0
  1  3  1  0
  1  4  1  0
  1  5  1  0
  2  6  1  0
  2  7  1  0
  2  8  1  0
M  END
>  <reaction>  (3) 
rxn_1952

>  <mol_properties>  (3) 
{"0": {"label": "a_hydrogen", "atom_type": "H0"}, "2": {"label": "acceptor", "atom_type": "Cs"}}

>  <type>  (3) 
r2h

$$$$

     RDKit          3D

 14 12  0  0  0  0  0  0  0  0999 V2000
    0.9301    0.7338    0.6430 C   0  0  0  0  0  0  0  0  0  0  0  0
    0.7038   -0.2934   -0.3501 C   0  0  0  0  0  0  0  0  0  0  0  0
    0.0722   -0.0577   -1.8309 S   0  0  0  0  0  0  0  0  0  0  0  0
   -0.1140    0.7934    1.3232 H   0  0  0  0  0  0  0  0  0  0  0  0
    1.6923    0.4994    1.3845 H   0  0  0  0  0  0  0  0  0  0  0  0
    1.0075    1.7421    0.2438 H   0  0  0  0  0  0  0  0  0  0  0  0
    0.9339   -1.3117   -0.0343 H   0  0  0  0  0  0  0  0  0  0  0  0
   -1.9500   -0.5166    1.8381 C   0  0  0  0  0  0  0  0  0  0  0  0
   -1.3965    0.8543    2.0501 C   0  0  0  0  0  3  0  0  0  0  0  0
   -2.9616   -0.5980    2.2506 H   0  0  0  0  0  0  0  0  0  0  0  0
   -1.3368   -1.2769    2.3247 H   0  0  0  0  0  0  0  0  0  0  0  0
   -2.0148   -0.7560    0.7746 H   0  0  0  0  0  0  0  0  0  0  0  0
   -1.0700    1.1151    3.0525 H   0  0  0  0  0  0  0  0  0  0  0  0
   -1.8763    1.6682    1.5150 H   0  0  0  0  0  0  0  0  0  0  0  0
  1  2  1  0
  1  4  1  0
  1  5  1  0
  1  6  1  0
  2  3  2  0
  2  7  1  0
  8  9  1  0
  8 10  1  0
  8 11  1  0
  8 12  1  0
  9 13  1  0
  9 14  1  0
M  RAD  1   9   2
M  END
>  <reaction>  (4) 
rxn_1952

>  <mol_properties>  (4) 
{"0": {"label": "*1", "atom_type": "Cs"}, "1": {"label": "*0", "atom_type": "CS"}, "3": {"label": "*2", "atom_type": "H0"}, "7": {"label": "*4", "atom_type": "Cs"}, "8": {"label": "*3", "atom_type": "Cs"}}

>  <type>  (4) 
ts

$$$$

     RDKit          3D

 14 12  0  0  0  0  0  0  0  0999 V2000
    0.6254    0.6237    0.2402 C   0  0  0  0  0  0  0  0  0  0  0  0
    0.6254   -0.5748   -0.6420 C   0  0  0  0  0  0  0  0  0  0  0  0
    0.6254   -0.5748   -2.2486 S   0  0  0  0  0  1  0  0  0  0  0  0
   -0.4259    0.5914    1.0265 H   0  0  0  0  0  0  0  0  0  0  0  0
    1.5016    0.5968    0.8954 H   0  0  0  0  0  0  0  0  0  0  0  0
    0.6254    1.5475   -0.3344 H   0  0  0  0  0  0  0  0  0  0  0  0
    0.6254   -1.5292   -0.1120 H   0  0  0  0  0  0  0  0  0  0  0  0
   -1.0666    0.5393    3.2777 C   0  0  0  0  0  0  0  0  0  0  0  0
   -1.4744    0.5592    1.8107 C   0  0  0  0  0  0  0  0  0  0  0  0
   -1.7243    1.1684    3.8800 H   0  0  0  0  0  0  0  0  0  0  0  0
   -0.0469    0.9054    3.4101 H   0  0  0  0  0  0  0  0  0  0  0  0
   -1.1104   -0.4715    3.6871 H   0  0  0  0  0  0  0  0  0  0  0  0
   -1.4306    1.5700    1.4013 H   0  0  0  0  0  0  0  0  0  0  0  0
   -2.4941    0.1931    1.6783 H   0  0  0  0  0  0  0  0  0  0  0  0
  1  2  2  3
  1  5  1  0
  1  6  1  0
  2  3  1  0
  2  7  1  0
  4  9  1  0
  8  9  1  0
  8 10  1  0
  8 11  1  0
  8 12  1  0
  9 13  1  0
  9 14  1  0
M  RAD  1   3   2
M  END
>  <reaction>  (5) 
rxn_1952

>  <mol_properties>  (5) 
{"0": {"label": "*1", "atom_type": "Cs"}, "1": {"label": "*0", "atom_type": "CS"}, "3": {"label": "*2", "atom_type": "H0"}, "7": {"label": "*4", "atom_type": "Cs"}, "8": {"label": "*3", "atom_type": "Cs"}}

>  <type>  (5) 
unop_1

>  <geom_source>  (5) 
Heuristics

$$$$

     RDKit          3D

 14 12  0  0  0  0  0  0  0  0999 V2000
    0.7647    0.8696    0.4332 C   0  0  0  0  0  0  0  0  0  0  0  0
    0.7647   -0.3289   -0.4490 C   0  0  0  0  0  0  0  0  0  0  0  0
    0.7647   -0.3289   -2.0556 S   0  0  0  0  0  1  0  0  0  0  0  0
   -0.2867    0.8373    1.2195 H   0  0  0  0  0  0  0  0  0  0  0  0
    1.6408    0.8427    1.0884 H   0  0  0  0  0  0  0  0  0  0  0  0
    0.7647    1.7934   -0.1415 H   0  0  0  0  0  0  0  0  0  0  0  0
    0.7647   -1.2833    0.0810 H   0  0  0  0  0  0  0  0  0  0  0  0
   -1.7533   -0.6271    2.3084 C   0  0  0  0  0  0  0  0  0  0  0  0
   -1.3352    0.8051    2.0037 C   0  0  0  0  0  0  0  0  0  0  0  0
   -2.4007   -0.6723    3.1859 H   0  0  0  0  0  0  0  0  0  0  0  0
   -0.8856   -1.2594    2.5050 H   0  0  0  0  0  0  0  0  0  0  0  0
   -2.2995   -1.0665    1.4719 H   0  0  0  0  0  0  0  0  0  0  0  0
   -0.7890    1.2446    2.8402 H   0  0  0  0  0  0  0  0  0  0  0  0
   -2.2028    1.4374    1.8071 H   0  0  0  0  0  0  0  0  0  0  0  0
  1  2  2  3
  1  5  1  0
  1  6  1  0
  2  3  1  0
  2  7  1  0
  4  9  1  0
  8  9  1  0
  8 10  1  0
  8 11  1  0
  8 12  1  0
  9 13  1  0
  9 14  1  0
M  RAD  1   3   2
M  END
>  <reaction>  (6) 
rxn_1952

>  <mol_properties>  (6) 
{"0": {"label": "*1", "atom_type": "Cs"}, "1": {"label": "*0", "atom_type": "CS"}, "3": {"label": "*2", "atom_type": "H0"}, "7": {"label": "*4", "atom_type": "Cs"}, "8": {"label": "*3", "atom_type": "Cs"}}

>  <type>  (6) 
unop_2

>  <geom_source>  (6) 
Heuristics

$$$$

     RDKit          3D

 14 12  0  0  0  0  0  0  0  0999 V2000
    0.6495    0.5062    0.2657 C   0  0  0  0  0  0  0  0  0  0  0  0
    0.6495   -0.6923   -0.6165 C   0  0  0  0  0  0  0  0  0  0  0  0
    0.6495   -0.6923   -2.2231 S   0  0  0  0  0  1  0  0  0  0  0  0
   -0.4018    0.4739    1.0520 H   0  0  0  0  0  0  0  0  0  0  0  0
    1.5257    0.4793    0.9209 H   0  0  0  0  0  0  0  0  0  0  0  0
    0.6495    1.4300   -0.3090 H   0  0  0  0  0  0  0  0  0  0  0  0
    0.6496   -1.6467   -0.0865 H   0  0  0  0  0  0  0  0  0  0  0  0
   -1.1684    1.1320    3.1639 C   0  0  0  0  0  0  0  0  0  0  0  0
   -1.4503    0.4417    1.8362 C   0  0  0  0  0  0  0  0  0  0  0  0
   -2.0788    1.5572    3.5902 H   0  0  0  0  0  0  0  0  0  0  0  0
   -0.4495    1.9442    3.0430 H   0  0  0  0  0  0  0  0  0  0  0  0
   -0.7571    0.4327    3.8941 H   0  0  0  0  0  0  0  0  0  0  0  0
   -1.8616    1.1409    1.1060 H   0  0  0  0  0  0  0  0  0  0  0  0
   -2.1692   -0.3706    1.9571 H   0  0  0  0  0  0  0  0  0  0  0  0
  1  2  2  3
  1  5  1  0
  1  6  1  0
  2  3  1  0
  2  7  1  0
  4  9  1  0
  8  9  1  0
  8 10  1  0
  8 11  1  0
  8 12  1  0
  9 13  1  0
  9 14  1  0
M  RAD  1   3   2
M  END
>  <reaction>  (7) 
rxn_1952

>  <mol_properties>  (7) 
{"0": {"label": "*1", "atom_type": "Cs"}, "1": {"label": "*0", "atom_type": "CS"}, "3": {"label": "*2", "atom_type": "H0"}, "7": {"label": "*4", "atom_type": "Cs"}, "8": {"label": "*3", "atom_type": "Cs"}}

>  <type>  (7) 
unop_3

>  <geom_source>  (7) 
Heuristics

$$$$

     RDKit          3D

 14 12  0  0  0  0  0  0  0  0999 V2000
    0.9139    0.6229    0.6244 C   0  0  0  0  0  0  0  0  0  0  0  0
    0.9139   -0.5756   -0.2578 C   0  0  0  0  0  0  0  0  0  0  0  0
    0.9139   -0.5756   -1.8644 S   0  0  0  0  0  1  0  0  0  0  0  0
   -0.1374    0.5906    1.4107 H   0  0  0  0  0  0  0  0  0  0  0  0
    1.7901    0.5960    1.2797 H   0  0  0  0  0  0  0  0  0  0  0  0
    0.9139    1.5467    0.0498 H   0  0  0  0  0  0  0  0  0  0  0  0
    0.9139   -1.5300    0.2722 H   0  0  0  0  0  0  0  0  0  0  0  0
   -2.4782    0.5512    1.3893 C   0  0  0  0  0  0  0  0  0  0  0  0
   -1.1860    0.5584    2.1949 C   0  0  0  0  0  0  0  0  0  0  0  0
   -3.2807    1.0625    1.9237 H   0  0  0  0  0  0  0  0  0  0  0  0
   -2.8128   -0.4678    1.1869 H   0  0  0  0  0  0  0  0  0  0  0  0
   -2.3487    1.0532    0.4288 H   0  0  0  0  0  0  0  0  0  0  0  0
   -1.3155    0.0564    3.1553 H   0  0  0  0  0  0  0  0  0  0  0  0
   -0.8513    1.5774    2.3973 H   0  0  0  0  0  0  0  0  0  0  0  0
  1  2  2  3
  1  5  1  0
  1  6  1  0
  2  3  1  0
  2  7  1  0
  4  9  1  0
  8  9  1  0
  8 10  1  0
  8 11  1  0
  8 12  1  0
  9 13  1  0
  9 14  1  0
M  RAD  1   3   2
M  END
>  <reaction>  (8) 
rxn_1952

>  <mol_properties>  (8) 
{"0": {"label": "*1", "atom_type": "Cs"}, "1": {"label": "*0", "atom_type": "CS"}, "3": {"label": "*2", "atom_type": "H0"}, "7": {"label": "*4", "atom_type": "Cs"}, "8": {"label": "*3", "atom_type": "Cs"}}

>  <type>  (8) 
unop_4

>  <geom_source>  (8) 
Heuristics

$$$$

     RDKit          3D

 14 12  0  0  0  0  0  0  0  0999 V2000
    0.7031    0.4233    0.3317 C   0  0  0  0  0  0  0  0  0  0  0  0
    0.7031   -0.7752   -0.5505 C   0  0  0  0  0  0  0  0  0  0  0  0
    0.7031   -0.7752   -2.1571 S   0  0  0  0  0  1  0  0  0  0  0  0
   -0.3482    0.3910    1.1180 H   0  0  0  0  0  0  0  0  0  0  0  0
    1.5793    0.3964    0.9869 H   0  0  0  0  0  0  0  0  0  0  0  0
    0.7031    1.3471   -0.2430 H   0  0  0  0  0  0  0  0  0  0  0  0
    0.7031   -1.7296   -0.0205 H   0  0  0  0  0  0  0  0  0  0  0  0
   -1.4348    1.5707    2.8235 C   0  0  0  0  0  0  0  0  0  0  0  0
   -1.3968    0.3588    1.9022 C   0  0  0  0  0  0  0  0  0  0  0  0
   -2.3086    1.5438    3.4770 H   0  0  0  0  0  0  0  0  0  0  0  0
   -1.4772    2.5003    2.2533 H   0  0  0  0  0  0  0  0  0  0  0  0
   -0.5483    1.6129    3.4588 H   0  0  0  0  0  0  0  0  0  0  0  0
   -2.2832    0.3166    1.2669 H   0  0  0  0  0  0  0  0  0  0  0  0
   -1.3544   -0.5708    2.4724 H   0  0  0  0  0  0  0  0  0  0  0  0
  1  2  2  3
  1  5  1  0
  1  6  1  0
  2  3  1  0
  2  7  1  0
  4  9  1  0
  8  9  1  0
  8 10  1  0
  8 11  1  0
  8 12  1  0
  9 13  1  0
  9 14  1  0
M  RAD  1   3   2
M  END
>  <reaction>  (9) 
rxn_1952

>  <mol_properties>  (9) 
{"0": {"label": "*1", "atom_type": "Cs"}, "1": {"label": "*0", "atom_type": "CS"}, "3": {"label": "*2", "atom_type": "H0"}, "7": {"label": "*4", "atom_type": "Cs"}, "8": {"label": "*3", "atom_type": "Cs"}}

>  <type>  (9) 
unop_5

>  <geom_source>  (9) 
Heuristics

$$$$

     RDKit          3D

 14 12  0  0  0  0  0  0  0  0999 V2000
    0.8940    0.5026    0.5943 C   0  0  0  0  0  0  0  0  0  0  0  0
    0.8940   -0.6959   -0.2879 C   0  0  0  0  0  0  0  0  0  0  0  0
    0.8940   -0.6959   -1.8946 S   0  0  0  0  0  1  0  0  0  0  0  0
   -0.1573    0.4703    1.3806 H   0  0  0  0  0  0  0  0  0  0  0  0
    1.7702    0.4757    1.2495 H   0  0  0  0  0  0  0  0  0  0  0  0
    0.8940    1.4264    0.0196 H   0  0  0  0  0  0  0  0  0  0  0  0
    0.8940   -1.6503    0.2420 H   0  0  0  0  0  0  0  0  0  0  0  0
   -2.3962    1.1394    1.5243 C   0  0  0  0  0  0  0  0  0  0  0  0
   -1.2059    0.4381    2.1647 C   0  0  0  0  0  0  0  0  0  0  0  0
   -2.9586    1.7166    2.2604 H   0  0  0  0  0  0  0  0  0  0  0  0
   -3.0830    0.4211    1.0730 H   0  0  0  0  0  0  0  0  0  0  0  0
   -2.0754    1.8274    0.7401 H   0  0  0  0  0  0  0  0  0  0  0  0
   -1.5267   -0.2499    2.9489 H   0  0  0  0  0  0  0  0  0  0  0  0
   -0.5191    1.1564    2.6161 H   0  0  0  0  0  0  0  0  0  0  0  0
  1  2  2  3
  1  5  1  0
  1  6  1  0
  2  3  1  0
  2  7  1  0
  4  9  1  0
  8  9  1  0
  8 10  1  0
  8 11  1  0
  8 12  1  0
  9 13  1  0
  9 14  1  0
M  RAD  1   3   2
M  END
>  <reaction>  (10) 
rxn_1952

>  <mol_properties>  (10) 
{"0": {"label": "*1", "atom_type": "Cs"}, "1": {"label": "*0", "atom_type": "CS"}, "3": {"label": "*2", "atom_type": "H0"}, "7": {"label": "*4", "atom_type": "Cs"}, "8": {"label": "*3", "atom_type": "Cs"}}

>  <type>  (10) 
unop_6

>  <geom_source>  (10) 
Heuristics

$$$$

     RDKit          3D

 14 12  0  0  0  0  0  0  0  0999 V2000
    0.8411    0.4177    0.5201 C   0  0  0  0  0  0  0  0  0  0  0  0
    0.8411   -0.7808   -0.3621 C   0  0  0  0  0  0  0  0  0  0  0  0
    0.8411   -0.7808   -1.9687 S   0  0  0  0  0  1  0  0  0  0  0  0
   -0.2103    0.3854    1.3064 H   0  0  0  0  0  0  0  0  0  0  0  0
    1.7172    0.3908    1.1753 H   0  0  0  0  0  0  0  0  0  0  0  0
    0.8411    1.3415   -0.0546 H   0  0  0  0  0  0  0  0  0  0  0  0
    0.8411   -1.7352    0.1679 H   0  0  0  0  0  0  0  0  0  0  0  0
   -2.1469    1.5714    1.8756 C   0  0  0  0  0  0  0  0  0  0  0  0
   -1.2588    0.3532    2.0906 C   0  0  0  0  0  0  0  0  0  0  0  0
   -2.5394    1.9471    2.8222 H   0  0  0  0  0  0  0  0  0  0  0  0
   -2.9986    1.3325    1.2363 H   0  0  0  0  0  0  0  0  0  0  0  0
   -1.5952    2.3846    1.4006 H   0  0  0  0  0  0  0  0  0  0  0  0
   -1.8105   -0.4600    2.5655 H   0  0  0  0  0  0  0  0  0  0  0  0
   -0.4070    0.5921    2.7298 H   0  0  0  0  0  0  0  0  0  0  0  0
  1  2  2  3
  1  5  1  0
  1  6  1  0
  2  3  1  0
  2  7  1  0
  4  9  1  0
  8  9  1  0
  8 10  1  0
  8 11  1  0
  8 12  1  0
  9 13  1  0
  9 14  1  0
M  RAD  1   3   2
M  END
>  <reaction>  (11) 
rxn_1952

>  <mol_properties>  (11) 
{"0": {"label": "*1", "atom_type": "Cs"}, "1": {"label": "*0", "atom_type": "CS"}, "3": {"label": "*2", "atom_type": "H0"}, "7": {"label": "*4", "atom_type": "Cs"}, "8": {"label": "*3", "atom_type": "Cs"}}

>  <type>  (11) 
unop_7

>  <geom_source>  (11) 
Heuristics

$$$$

     RDKit          3D

 14 12  0  0  0  0  0  0  0  0999 V2000
    0.6405    0.7448    0.2653 C   0  0  0  0  0  0  0  0  0  0  0  0
    0.6405   -0.4537   -0.6169 C   0  0  0  0  0  0  0  0  0  0  0  0
    0.6405   -0.4537   -2.2236 S   0  0  0  0  0  1  0  0  0  0  0  0
   -0.4108    0.7125    1.0516 H   0  0  0  0  0  0  0  0  0  0  0  0
    1.5167    0.7179    0.9205 H   0  0  0  0  0  0  0  0  0  0  0  0
    0.6405    1.6686   -0.3094 H   0  0  0  0  0  0  0  0  0  0  0  0
    0.6405   -1.4081   -0.0870 H   0  0  0  0  0  0  0  0  0  0  0  0
   -1.1533   -0.0481    3.1375 C   0  0  0  0  0  0  0  0  0  0  0  0
   -1.4593    0.6803    1.8358 C   0  0  0  0  0  0  0  0  0  0  0  0
   -1.6276    0.4449    3.9880 H   0  0  0  0  0  0  0  0  0  0  0  0
   -0.0795   -0.0795    3.3306 H   0  0  0  0  0  0  0  0  0  0  0  0
   -1.5141   -1.0778    3.1093 H   0  0  0  0  0  0  0  0  0  0  0  0
   -1.0986    1.7100    1.8640 H   0  0  0  0  0  0  0  0  0  0  0  0
   -2.5331    0.7117    1.6427 H   0  0  0  0  0  0  0  0  0  0  0  0
  1  2  2  3
  1  5  1  0
  1  6  1  0
  2  3  1  0
  2  7  1  0
  4  9  1  0
  8  9  1  0
  8 10  1  0
  8 11  1  0
  8 12  1  0
  9 13  1  0
  9 14  1  0
M  RAD  1   3   2
M  END
>  <reaction>  (12) 
rxn_1952

>  <mol_properties>  (12) 
{"0": {"label": "*1", "atom_type": "Cs"}, "1": {"label": "*0", "atom_type": "CS"}, "3": {"label": "*2", "atom_type": "H0"}, "7": {"label": "*4", "atom_type": "Cs"}, "8": {"label": "*3", "atom_type": "Cs"}}

>  <type>  (12) 
unop_8

>  <geom_source>  (12) 
Heuristics

$$$$

     RDKit          3D

 14 12  0  0  0  0  0  0  0  0999 V2000
    0.8943    0.7458    0.6014 C   0  0  0  0  0  0  0  0  0  0  0  0
    0.8943   -0.4527   -0.2808 C   0  0  0  0  0  0  0  0  0  0  0  0
    0.8943   -0.4527   -1.8874 S   0  0  0  0  0  1  0  0  0  0  0  0
   -0.1571    0.7135    1.3877 H   0  0  0  0  0  0  0  0  0  0  0  0
    1.7704    0.7189    1.2566 H   0  0  0  0  0  0  0  0  0  0  0  0
    0.8943    1.6696    0.0268 H   0  0  0  0  0  0  0  0  0  0  0  0
    0.8943   -1.4071    0.2492 H   0  0  0  0  0  0  0  0  0  0  0  0
   -2.3719   -0.0361    1.5055 C   0  0  0  0  0  0  0  0  0  0  0  0
   -1.2056    0.6813    2.1719 C   0  0  0  0  0  0  0  0  0  0  0  0
   -3.3166    0.2027    1.9972 H   0  0  0  0  0  0  0  0  0  0  0  0
   -2.2442   -1.1193    1.5437 H   0  0  0  0  0  0  0  0  0  0  0  0
   -2.4643    0.2489    0.4560 H   0  0  0  0  0  0  0  0  0  0  0  0
   -1.1131    0.3963    3.2214 H   0  0  0  0  0  0  0  0  0  0  0  0
   -1.3333    1.7646    2.1337 H   0  0  0  0  0  0  0  0  0  0  0  0
  1  2  2  3
  1  5  1  0
  1  6  1  0
  2  3  1  0
  2  7  1  0
  4  9  1  0
  8  9  1  0
  8 10  1  0
  8 11  1  0
  8 12  1  0
  9 13  1  0
  9 14  1  0
M  RAD  1   3   2
M  END
>  <reaction>  (13) 
rxn_1952

>  <mol_properties>  (13) 
{"0": {"label": "*1", "atom_type": "Cs"}, "1": {"label": "*0", "atom_type": "CS"}, "3": {"label": "*2", "atom_type": "H0"}, "7": {"label": "*4", "atom_type": "Cs"}, "8": {"label": "*3", "atom_type": "Cs"}}

>  <type>  (13) 
unop_9

>  <geom_source>  (13) 
Heuristics

$$$$

     RDKit          3D

 14 12  0  0  0  0  0  0  0  0999 V2000
    0.6915    0.8354    0.3358 C   0  0  0  0  0  0  0  0  0  0  0  0
    0.6915   -0.3631   -0.5464 C   0  0  0  0  0  0  0  0  0  0  0  0
    0.6915   -0.3631   -2.1531 S   0  0  0  0  0  1  0  0  0  0  0  0
   -0.3599    0.8031    1.1221 H   0  0  0  0  0  0  0  0  0  0  0  0
    1.5677    0.8085    0.9910 H   0  0  0  0  0  0  0  0  0  0  0  0
    0.6915    1.7592   -0.2389 H   0  0  0  0  0  0  0  0  0  0  0  0
    0.6915   -1.3175   -0.0165 H   0  0  0  0  0  0  0  0  0  0  0  0
   -1.4046   -0.4744    2.7826 C   0  0  0  0  0  0  0  0  0  0  0  0
   -1.4084    0.7709    1.9062 C   0  0  0  0  0  0  0  0  0  0  0  0
   -1.8751   -0.2804    3.7481 H   0  0  0  0  0  0  0  0  0  0  0  0
   -0.3874   -0.8205    2.9743 H   0  0  0  0  0  0  0  0  0  0  0  0
   -1.9485   -1.2936    2.3087 H   0  0  0  0  0  0  0  0  0  0  0  0
   -0.8646    1.5900    2.3801 H   0  0  0  0  0  0  0  0  0  0  0  0
   -2.4256    1.1170    1.7145 H   0  0  0  0  0  0  0  0  0  0  0  0
  1  2  2  3
  1  5  1  0
  1  6  1  0
  2  3  1  0
  2  7  1  0
  4  9  1  0
  8  9  1  0
  8 10  1  0
  8 11  1  0
  8 12  1  0
  9 13  1  0
  9 14  1  0
M  RAD  1   3   2
M  END
>  <reaction>  (14) 
rxn_1952

>  <mol_properties>  (14) 
{"0": {"label": "*1", "atom_type": "Cs"}, "1": {"label": "*0", "atom_type": "CS"}, "3": {"label": "*2", "atom_type": "H0"}, "7": {"label": "*4", "atom_type": "Cs"}, "8": {"label": "*3", "atom_type": "Cs"}}

>  <type>  (14) 
unop_10

>  <geom_source>  (14) 
Heuristics

$$$$

     RDKit          3D

 14 12  0  0  0  0  0  0  0  0999 V2000
    0.7710    0.3902    0.4233 C   0  0  0  0  0  0  0  0  0  0  0  0
    0.7710   -0.8083   -0.4589 C   0  0  0  0  0  0  0  0  0  0  0  0
    0.7710   -0.8083   -2.0655 S   0  0  0  0  0  1  0  0  0  0  0  0
   -0.2804    0.3579    1.2096 H   0  0  0  0  0  0  0  0  0  0  0  0
    1.6471    0.3633    1.0785 H   0  0  0  0  0  0  0  0  0  0  0  0
    0.7710    1.3140   -0.1513 H   0  0  0  0  0  0  0  0  0  0  0  0
    0.7710   -1.7627    0.0711 H   0  0  0  0  0  0  0  0  0  0  0  0
   -1.7952    1.7308    2.3504 C   0  0  0  0  0  0  0  0  0  0  0  0
   -1.3289    0.3257    1.9938 C   0  0  0  0  0  0  0  0  0  0  0  0
   -2.2811    1.7505    3.3276 H   0  0  0  0  0  0  0  0  0  0  0  0
   -2.5108    2.1082    1.6179 H   0  0  0  0  0  0  0  0  0  0  0  0
   -0.9573    2.4293    2.3840 H   0  0  0  0  0  0  0  0  0  0  0  0
   -2.1668   -0.3729    1.9602 H   0  0  0  0  0  0  0  0  0  0  0  0
   -0.6132   -0.0518    2.7263 H   0  0  0  0  0  0  0  0  0  0  0  0
  1  2  2  3
  1  5  1  0
  1  6  1  0
  2  3  1  0
  2  7  1  0
  4  9  1  0
  8  9  1  0
  8 10  1  0
  8 11  1  0
  8 12  1  0
  9 13  1  0
  9 14  1  0
M  RAD  1   3   2
M  END
>  <reaction>  (15) 
rxn_1952

>  <mol_properties>  (15) 
{"0": {"label": "*1", "atom_type": "Cs"}, "1": {"label": "*0", "atom_type": "CS"}, "3": {"label": "*2", "atom_type": "H0"}, "7": {"label": "*4", "atom_type": "Cs"}, "8": {"label": "*3", "atom_type": "Cs"}}

>  <type>  (15) 
unop_11

>  <geom_source>  (15) 
Heuristics

$$$$

     RDKit          3D

 14 12  0  0  0  0  0  0  0  0999 V2000
    0.8395    0.8368    0.5310 C   0  0  0  0  0  0  0  0  0  0  0  0
    0.8395   -0.3617   -0.3512 C   0  0  0  0  0  0  0  0  0  0  0  0
    0.8395   -0.3617   -1.9578 S   0  0  0  0  0  1  0  0  0  0  0  0
   -0.2119    0.8045    1.3173 H   0  0  0  0  0  0  0  0  0  0  0  0
    1.7156    0.8099    1.1862 H   0  0  0  0  0  0  0  0  0  0  0  0
    0.8395    1.7606   -0.0436 H   0  0  0  0  0  0  0  0  0  0  0  0
    0.8395   -1.3161    0.1788 H   0  0  0  0  0  0  0  0  0  0  0  0
   -2.1067   -0.4667    1.8415 C   0  0  0  0  0  0  0  0  0  0  0  0
   -1.2604    0.7723    2.1015 C   0  0  0  0  0  0  0  0  0  0  0  0
   -2.9805   -0.4935    2.4950 H   0  0  0  0  0  0  0  0  0  0  0  0
   -1.5354   -1.3801    2.0162 H   0  0  0  0  0  0  0  0  0  0  0  0
   -2.4642   -0.4927    0.8106 H   0  0  0  0  0  0  0  0  0  0  0  0
   -0.9029    0.7983    3.1324 H   0  0  0  0  0  0  0  0  0  0  0  0
   -1.8317    1.6857    1.9268 H   0  0  0  0  0  0  0  0  0  0  0  0
  1  2  2  3
  1  5  1  0
  1  6  1  0
  2  3  1  0
  2  7  1  0
  4  9  1  0
  8  9  1  0
  8 10  1  0
  8 11  1  0
  8 12  1  0
  9 13  1  0
  9 14  1  0
M  RAD  1   3   2
M  END
>  <reaction>  (16) 
rxn_1952

>  <mol_properties>  (16) 
{"0": {"label": "*1", "atom_type": "Cs"}, "1": {"label": "*0", "atom_type": "CS"}, "3": {"label": "*2", "atom_type": "H0"}, "7": {"label": "*4", "atom_type": "Cs"}, "8": {"label": "*3", "atom_type": "Cs"}}

>  <type>  (16) 
unop_12

>  <geom_source>  (16) 
Heuristics

$$$$

     RDKit          3D

 14 12  0  0  0  0  0  0  0  0999 V2000
    2.1783   -1.4923   -1.1322 S   0  0  0  0  0  1  0  0  0  0  0  0
   -0.8908   -0.4151   -0.1921 C   0  0  0  0  0  0  0  0  0  0  0  0
   -2.1509    0.3230    0.2232 C   0  0  0  0  0  0  0  0  0  0  0  0
    1.5028    0.2117    0.6232 C   0  0  0  0  0  0  0  0  0  0  0  0
    2.1768   -0.1370   -0.6628 C   0  0  0  0  0  0  0  0  0  0  0  0
   -0.9500   -1.4750    0.1338 H   0  0  0  0  0  0  0  0  0  0  0  0
   -0.7791   -0.3788   -1.2962 H   0  0  0  0  0  0  0  0  0  0  0  0
    0.1508    0.1479    0.3641 H   0  0  0  0  0  0  0  0  0  0  0  0
   -2.2589    0.2872    1.3274 H   0  0  0  0  0  0  0  0  0  0  0  0
   -3.0383   -0.1512   -0.2465 H   0  0  0  0  0  0  0  0  0  0  0  0
   -2.0880    1.3827   -0.1017 H   0  0  0  0  0  0  0  0  0  0  0  0
    1.4998    1.3130    0.7619 H   0  0  0  0  0  0  0  0  0  0  0  0
    2.0361   -0.2599    1.4761 H   0  0  0  0  0  0  0  0  0  0  0  0
    2.6115    0.6440   -1.2782 H   0  0  0  0  0  0  0  0  0  0  0  0
  1  5  1  0
  2  3  1  0
  2  6  1  0
  2  7  1  0
  2  8  1  0
  3  9  1  0
  3 10  1  0
  3 11  1  0
  4  5  2  3
  4 12  1  0
  4 13  1  0
  5 14  1  0
M  RAD  1   1   2
M  END
>  <reaction>  (17) 
rxn_1952

>  <mol_properties>  (17) 
{"0": {"label": "*1", "atom_type": "Cs"}, "1": {"label": "*0", "atom_type": "CS"}, "3": {"label": "*2", "atom_type": "H0"}, "7": {"label": "*4", "atom_type": "Cs"}, "8": {"label": "*3", "atom_type": "Cs"}}

>  <type>  (17) 
unop_13

>  <geom_source>  (17) 
AutoTST

$$$$
