
     RDKit          3D

 12 11  0  0  0  0  0  0  0  0999 V2000
    1.9877    0.1011    0.4814 C   0  0  0  0  0  0  0  0  0  0  0  0
    0.8179    0.5502    0.0525 C   0  0  0  0  0  0  0  0  0  0  0  0
   -0.2939   -0.2692   -0.5320 C   0  0  0  0  0  0  0  0  0  0  0  0
   -0.0292   -1.7631   -0.6328 C   0  0  0  0  0  0  0  0  0  0  0  0
    2.2522   -0.9490    0.4436 H   0  0  0  0  0  0  0  0  0  0  0  0
    2.7295    0.7757    0.8896 H   0  0  0  0  0  0  0  0  0  0  0  0
    0.6162    1.6164    0.1190 H   0  0  0  0  0  0  0  0  0  0  0  0
   -0.5268    0.1319   -1.5245 H   0  0  0  0  0  0  0  0  0  0  0  0
   -1.1959   -0.0938    0.0644 H   0  0  0  0  0  0  0  0  0  0  0  0
    0.1590   -2.1992    0.3502 H   0  0  0  0  0  0  0  0  0  0  0  0
    0.8382   -1.9701   -1.2626 H   0  0  0  0  0  0  0  0  0  0  0  0
   -0.8879   -2.2759   -1.0672 H   0  0  0  0  0  0  0  0  0  0  0  0
  1  2  2  3
  1  5  1  0
  1  6  1  0
  2  3  1  0
  2  7  1  0
  3  4  1  0
  3  8  1  0
  3  9  1  0
  4 10  1  0
  4 11  1  0
  4 12  1  0
M  END
>  <reaction>  (1) 
rxn_1052

>  <mol_properties>  (1) 
{"2": {"label": "donator", "atom_type": "Cs"}, "7": {"label": "d_hydrogen", "atom_type": "H0"}}

>  <type>  (1) 
r1h

$$$$

     RDKit          3D

 17 17  0  0  0  0  0  0  0  0999 V2000
    2.7069    0.2860   -0.1817 C   0  0  0  0  0  0  0  0  0  0  0  0
    1.6304   -0.7245    0.0085 C   0  0  0  0  0  0  0  0  0  0  0  0
    1.4786   -1.8800   -0.7837 C   0  0  0  0  0  0  0  0  0  0  0  0
    0.4231   -2.7891   -0.5312 C   0  0  0  0  0  3  0  0  0  0  0  0
    0.2582   -3.9235   -1.2940 C   0  0  0  0  0  0  0  0  0  0  0  0
    1.1348   -4.2030   -2.3401 C   0  0  0  0  0  0  0  0  0  0  0  0
    2.1804   -3.3260   -2.6093 C   0  0  0  0  0  0  0  0  0  0  0  0
    2.3549   -2.1866   -1.8513 C   0  0  0  0  0  0  0  0  0  0  0  0
    2.6698    0.7343   -1.1808 H   0  0  0  0  0  0  0  0  0  0  0  0
    3.7029   -0.1584   -0.0766 H   0  0  0  0  0  0  0  0  0  0  0  0
    2.6250    1.0917    0.5463 H   0  0  0  0  0  0  0  0  0  0  0  0
    0.9136   -0.5677    0.8059 H   0  0  0  0  0  0  0  0  0  0  0  0
   -0.2629   -2.5783    0.2811 H   0  0  0  0  0  0  0  0  0  0  0  0
   -0.5582   -4.6017   -1.0785 H   0  0  0  0  0  0  0  0  0  0  0  0
    1.0033   -5.0952   -2.9384 H   0  0  0  0  0  0  0  0  0  0  0  0
    2.8650   -3.5382   -3.4214 H   0  0  0  0  0  0  0  0  0  0  0  0
    3.1750   -1.5169   -2.0772 H   0  0  0  0  0  0  0  0  0  0  0  0
  1  2  1  0
  1  9  1  0
  1 10  1  0
  1 11  1  0
  2  3  2  3
  2 12  1  0
  3  4  1  0
  3  8  1  0
  4  5  1  0
  4 13  1  0
  5  6  2  0
  5 14  1  0
  6  7  1  0
  6 15  1  0
  7  8  2  0
  7 16  1  0
  8 17  1  0
M  RAD  1   4   2
M  END
>  <reaction>  (2) 
rxn_1052

>  <mol_properties>  (2) 
{"1": {"label": "acceptor", "atom_type": "Cs"}}

>  <type>  (2) 
r2

$$$$

     RDKit          3D

 18 18  0  0  0  0  0  0  0  0999 V2000
   -2.4852    0.3210   -0.3966 C   0  0  0  0  0  0  0  0  0  0  0  0
   -1.5917   -0.2708    0.6941 C   0  0  0  0  0  0  0  0  0  0  0  0
   -0.1292   -0.1692    0.3493 C   0  0  0  0  0  0  0  0  0  0  0  0
    0.6099    0.9558    0.7015 C   0  0  0  0  0  0  0  0  0  0  0  0
    1.9447    1.0728    0.3458 C   0  0  0  0  0  0  0  0  0  0  0  0
    2.5646    0.0613   -0.3720 C   0  0  0  0  0  0  0  0  0  0  0  0
    1.8399   -1.0657   -0.7287 C   0  0  0  0  0  0  0  0  0  0  0  0
    0.5055   -1.1769   -0.3700 C   0  0  0  0  0  0  0  0  0  0  0  0
   -2.3325   -0.1971   -1.3452 H   0  0  0  0  0  0  0  0  0  0  0  0
   -2.2554    1.3763   -0.5546 H   0  0  0  0  0  0  0  0  0  0  0  0
   -3.5397    0.2376   -0.1280 H   0  0  0  0  0  0  0  0  0  0  0  0
   -1.7801    0.2462    1.6380 H   0  0  0  0  0  0  0  0  0  0  0  0
   -1.8568   -1.3190    0.8516 H   0  0  0  0  0  0  0  0  0  0  0  0
    0.1327    1.7497    1.2656 H   0  0  0  0  0  0  0  0  0  0  0  0
    2.5033    1.9550    0.6330 H   0  0  0  0  0  0  0  0  0  0  0  0
    3.6077    0.1491   -0.6484 H   0  0  0  0  0  0  0  0  0  0  0  0
    2.3163   -1.8632   -1.2854 H   0  0  0  0  0  0  0  0  0  0  0  0
   -0.0540   -2.0629   -0.6500 H   0  0  0  0  0  0  0  0  0  0  0  0
  1  2  1  0
  1  9  1  0
  1 10  1  0
  1 11  1  0
  2  3  1  0
  2 12  1  0
  2 13  1  0
  3  4  2  0
  3  8  1  0
  4  5  1  0
  4 14  1  0
  5  6  2  0
  5 15  1  0
  6  7  1  0
  6 16  1  0
  7  8  2  0
  7 17  1  0
  8 18  1  0
M  END
>  <reaction>  (3) 
rxn_1052

>  <mol_properties>  (3) 
{"0": {"label": "a_hydrogen", "atom_type": "H0"}, "2": {"label": "acceptor", "atom_type": "Cs"}}

>  <type>  (3) 
r2h

$$$$

     RDKit          3D

 29 28  0  0  0  0  0  0  0  0999 V2000
   -2.7975   -1.4239   -1.0118 C   0  0  0  0  0  0  0  0  0  0  0  0
   -3.0156   -0.2256   -0.4622 C   0  0  0  0  0  0  0  0  0  0  0  0
   -2.2362    0.9835   -0.6982 C   0  0  0  0  0  0  0  0  0  0  0  0
   -1.3051    1.0379   -1.8814 C   0  0  0  0  0  0  0  0  0  0  0  0
   -2.0122   -1.5878   -1.7397 H   0  0  0  0  0  0  0  0  0  0  0  0
   -3.4090   -2.2774   -0.7496 H   0  0  0  0  0  0  0  0  0  0  0  0
   -3.8187   -0.1337    0.2644 H   0  0  0  0  0  0  0  0  0  0  0  0
   -1.3944    1.0429    0.3401 H   0  0  0  0  0  0  0  0  0  0  0  0
   -2.8034    1.9000   -0.5380 H   0  0  0  0  0  0  0  0  0  0  0  0
   -1.8568    0.9563   -2.8226 H   0  0  0  0  0  0  0  0  0  0  0  0
   -0.5739    0.2278   -1.8509 H   0  0  0  0  0  0  0  0  0  0  0  0
   -0.7503    1.9770   -1.8943 H   0  0  0  0  0  0  0  0  0  0  0  0
   -0.2200    2.5642    1.5415 C   0  0  0  0  0  0  0  0  0  0  0  0
   -0.4237    1.0937    1.2949 C   0  0  0  0  0  0  0  0  0  0  0  0
    0.6582    0.2848    0.7274 C   0  0  0  0  0  0  0  0  0  0  0  0
    0.5378   -1.1109    0.7088 C   0  0  0  0  0  3  0  0  0  0  0  0
    1.4970   -1.9038    0.1078 C   0  0  0  0  0  0  0  0  0  0  0  0
    2.6094   -1.3248   -0.4898 C   0  0  0  0  0  0  0  0  0  0  0  0
    2.7489    0.0549   -0.4735 C   0  0  0  0  0  0  0  0  0  0  0  0
    1.7859    0.8508    0.1248 C   0  0  0  0  0  0  0  0  0  0  0  0
    0.0272    3.0969    0.6203 H   0  0  0  0  0  0  0  0  0  0  0  0
    0.5903    2.7469    2.2543 H   0  0  0  0  0  0  0  0  0  0  0  0
   -1.1278    3.0129    1.9461 H   0  0  0  0  0  0  0  0  0  0  0  0
   -0.9652    0.5812    2.0891 H   0  0  0  0  0  0  0  0  0  0  0  0
   -0.3342   -1.5683    1.1616 H   0  0  0  0  0  0  0  0  0  0  0  0
    1.3786   -2.9803    0.1043 H   0  0  0  0  0  0  0  0  0  0  0  0
    3.3622   -1.9446   -0.9598 H   0  0  0  0  0  0  0  0  0  0  0  0
    3.6155    0.5163   -0.9308 H   0  0  0  0  0  0  0  0  0  0  0  0
    1.9145    1.9257    0.1242 H   0  0  0  0  0  0  0  0  0  0  0  0
  1  2  2  3
  1  5  1  0
  1  6  1  0
  2  3  1  0
  2  7  1  0
  3  4  1  0
  3  8  1  0
  3  9  1  0
  4 10  1  0
  4 11  1  0
  4 12  1  0
 13 14  1  0
 13 21  1  0
 13 22  1  0
 13 23  1  0
 14 15  2  3
 14 24  1  0
 15 16  1  0
 15 20  1  0
 16 17  1  0
 16 25  1  0
 17 18  2  0
 17 26  1  0
 18 19  1  0
 18 27  1  0
 19 20  2  0
 19 28  1  0
 20 29  1  0
M  RAD  1  16   2
M  END
>  <reaction>  (4) 
rxn_1052

>  <mol_properties>  (4) 
{"1": {"label": "*0", "atom_type": "Cd"}, "2": {"label": "*1", "atom_type": "Cs"}, "7": {"label": "*2", "atom_type": "H0"}, "13": {"label": "*3", "atom_type": "Cd"}, "14": {"label": "*4", "atom_type": "Cd"}}

>  <type>  (4) 
ts

$$$$

     RDKit          3D

 29 28  0  0  0  0  0  0  0  0999 V2000
   -2.1412   -0.0923   -3.5314 C   0  0  0  0  0  0  0  0  0  0  0  0
   -2.1412   -0.0923   -2.2070 C   0  0  0  0  0  0  0  0  0  0  0  0
   -2.1412    1.1122   -1.3136 C   0  0  0  0  0  3  0  0  0  0  0  0
   -2.1412    2.4579   -2.0213 C   0  0  0  0  0  0  0  0  0  0  0  0
   -2.1412    0.8246   -4.1088 H   0  0  0  0  0  0  0  0  0  0  0  0
   -2.1412   -1.0197   -4.0901 H   0  0  0  0  0  0  0  0  0  0  0  0
   -2.1412   -1.0480   -1.6888 H   0  0  0  0  0  0  0  0  0  0  0  0
   -1.0979    1.0306   -0.5178 H   0  0  0  0  0  0  0  0  0  0  0  0
   -3.0106    1.0442   -0.6504 H   0  0  0  0  0  0  0  0  0  0  0  0
   -3.0236    2.5729   -2.6537 H   0  0  0  0  0  0  0  0  0  0  0  0
   -1.2588    2.5729   -2.6537 H   0  0  0  0  0  0  0  0  0  0  0  0
   -2.1412    3.2723   -1.2960 H   0  0  0  0  0  0  0  0  0  0  0  0
    0.8461    2.1629    0.0552 C   0  0  0  0  0  0  0  0  0  0  0  0
   -0.0575    0.9493    0.2758 C   0  0  0  0  0  0  0  0  0  0  0  0
    0.6697   -0.1882    0.9435 C   0  0  0  0  0  0  0  0  0  0  0  0
    0.7202   -0.2857    2.3304 C   0  0  0  0  0  0  0  0  0  0  0  0
    1.4271   -1.3055    2.9488 C   0  0  0  0  0  0  0  0  0  0  0  0
    2.0984   -2.2487    2.1856 C   0  0  0  0  0  0  0  0  0  0  0  0
    2.0556   -2.1637    0.8023 C   0  0  0  0  0  0  0  0  0  0  0  0
    1.3470   -1.1416    0.1898 C   0  0  0  0  0  0  0  0  0  0  0  0
    1.6989    1.9010   -0.5740 H   0  0  0  0  0  0  0  0  0  0  0  0
    1.2364    2.5324    1.0053 H   0  0  0  0  0  0  0  0  0  0  0  0
    0.3010    2.9750   -0.4291 H   0  0  0  0  0  0  0  0  0  0  0  0
   -0.9153    1.2414    0.8862 H   0  0  0  0  0  0  0  0  0  0  0  0
    0.1951    0.4465    2.9340 H   0  0  0  0  0  0  0  0  0  0  0  0
    1.4507   -1.3659    4.0298 H   0  0  0  0  0  0  0  0  0  0  0  0
    2.6486   -3.0477    2.6662 H   0  0  0  0  0  0  0  0  0  0  0  0
    2.5729   -2.8981    0.1974 H   0  0  0  0  0  0  0  0  0  0  0  0
    1.3156   -1.0834   -0.8927 H   0  0  0  0  0  0  0  0  0  0  0  0
  1  2  2  3
  1  5  1  0
  1  6  1  0
  2  3  1  0
  2  7  1  0
  3  4  1  0
  3  9  1  0
  4 10  1  0
  4 11  1  0
  4 12  1  0
  8 14  1  0
 13 14  1  0
 13 21  1  0
 13 22  1  0
 13 23  1  0
 14 15  1  0
 14 24  1  0
 15 16  2  0
 15 20  1  0
 16 17  1  0
 16 25  1  0
 17 18  2  0
 17 26  1  0
 18 19  1  0
 18 27  1  0
 19 20  2  0
 19 28  1  0
 20 29  1  0
M  RAD  1   3   2
M  END
>  <reaction>  (5) 
rxn_1052

>  <mol_properties>  (5) 
{"1": {"label": "*0", "atom_type": "Cd"}, "2": {"label": "*1", "atom_type": "Cs"}, "7": {"label": "*2", "atom_type": "H0"}, "13": {"label": "*3", "atom_type": "Cd"}, "14": {"label": "*4", "atom_type": "Cd"}}

>  <type>  (5) 
unop_1

>  <geom_source>  (5) 
Heuristics

$$$$

     RDKit          3D

 29 28  0  0  0  0  0  0  0  0999 V2000
   -1.3862   -0.5845   -4.2094 C   0  0  0  0  0  0  0  0  0  0  0  0
   -1.3862   -0.5845   -2.8851 C   0  0  0  0  0  0  0  0  0  0  0  0
   -1.3862    0.6200   -1.9916 C   0  0  0  0  0  3  0  0  0  0  0  0
   -1.3862    1.9657   -2.6993 C   0  0  0  0  0  0  0  0  0  0  0  0
   -1.3862    0.3324   -4.7869 H   0  0  0  0  0  0  0  0  0  0  0  0
   -1.3862   -1.5119   -4.7681 H   0  0  0  0  0  0  0  0  0  0  0  0
   -1.3862   -1.5403   -2.3669 H   0  0  0  0  0  0  0  0  0  0  0  0
   -0.3429    0.5384   -1.1959 H   0  0  0  0  0  0  0  0  0  0  0  0
   -2.2556    0.5520   -1.3285 H   0  0  0  0  0  0  0  0  0  0  0  0
   -2.2686    2.0807   -3.3318 H   0  0  0  0  0  0  0  0  0  0  0  0
   -0.5038    2.0807   -3.3318 H   0  0  0  0  0  0  0  0  0  0  0  0
   -1.3862    2.7801   -1.9740 H   0  0  0  0  0  0  0  0  0  0  0  0
    1.8218   -0.2965   -1.1139 C   0  0  0  0  0  0  0  0  0  0  0  0
    0.6975    0.4570   -0.4023 C   0  0  0  0  0  0  0  0  0  0  0  0
    0.5880    0.0768    1.0509 C   0  0  0  0  0  0  0  0  0  0  0  0
    1.3192    0.7534    2.0220 C   0  0  0  0  0  0  0  0  0  0  0  0
    1.2559    0.3766    3.3546 C   0  0  0  0  0  0  0  0  0  0  0  0
    0.4562   -0.6889    3.7390 C   0  0  0  0  0  0  0  0  0  0  0  0
   -0.2786   -1.3715    2.7815 C   0  0  0  0  0  0  0  0  0  0  0  0
   -0.2111   -0.9898    1.4504 C   0  0  0  0  0  0  0  0  0  0  0  0
    1.6559   -1.3744   -1.0658 H   0  0  0  0  0  0  0  0  0  0  0  0
    2.7849   -0.0882   -0.6441 H   0  0  0  0  0  0  0  0  0  0  0  0
    1.8845   -0.0071   -2.1643 H   0  0  0  0  0  0  0  0  0  0  0  0
    0.8720    1.5324   -0.4851 H   0  0  0  0  0  0  0  0  0  0  0  0
    1.9446    1.5899    1.7294 H   0  0  0  0  0  0  0  0  0  0  0  0
    1.8301    0.9188    4.0956 H   0  0  0  0  0  0  0  0  0  0  0  0
    0.4028   -0.9833    4.7795 H   0  0  0  0  0  0  0  0  0  0  0  0
   -0.9096   -2.2022    3.0723 H   0  0  0  0  0  0  0  0  0  0  0  0
   -0.7911   -1.5266    0.7076 H   0  0  0  0  0  0  0  0  0  0  0  0
  1  2  2  3
  1  5  1  0
  1  6  1  0
  2  3  1  0
  2  7  1  0
  3  4  1  0
  3  9  1  0
  4 10  1  0
  4 11  1  0
  4 12  1  0
  8 14  1  0
 13 14  1  0
 13 21  1  0
 13 22  1  0
 13 23  1  0
 14 15  1  0
 14 24  1  0
 15 16  2  0
 15 20  1  0
 16 17  1  0
 16 25  1  0
 17 18  2  0
 17 26  1  0
 18 19  1  0
 18 27  1  0
 19 20  2  0
 19 28  1  0
 20 29  1  0
M  RAD  1   3   2
M  END
>  <reaction>  (6) 
rxn_1052

>  <mol_properties>  (6) 
{"1": {"label": "*0", "atom_type": "Cd"}, "2": {"label": "*1", "atom_type": "Cs"}, "7": {"label": "*2", "atom_type": "H0"}, "13": {"label": "*3", "atom_type": "Cd"}, "14": {"label": "*4", "atom_type": "Cd"}}

>  <type>  (6) 
unop_2

>  <geom_source>  (6) 
Heuristics

$$$$

     RDKit          3D

 29 28  0  0  0  0  0  0  0  0999 V2000
   -2.4725   -0.2451   -2.9469 C   0  0  0  0  0  0  0  0  0  0  0  0
   -2.4725   -0.2451   -1.6226 C   0  0  0  0  0  0  0  0  0  0  0  0
   -2.4725    0.9594   -0.7291 C   0  0  0  0  0  3  0  0  0  0  0  0
   -2.4725    2.3052   -1.4368 C   0  0  0  0  0  0  0  0  0  0  0  0
   -2.4725    0.6718   -3.5244 H   0  0  0  0  0  0  0  0  0  0  0  0
   -2.4725   -1.1724   -3.5056 H   0  0  0  0  0  0  0  0  0  0  0  0
   -2.4725   -1.2008   -1.1044 H   0  0  0  0  0  0  0  0  0  0  0  0
   -1.4293    0.8779    0.0666 H   0  0  0  0  0  0  0  0  0  0  0  0
   -3.3419    0.8915   -0.0660 H   0  0  0  0  0  0  0  0  0  0  0  0
   -3.3550    2.4202   -2.0692 H   0  0  0  0  0  0  0  0  0  0  0  0
   -1.5901    2.4202   -2.0692 H   0  0  0  0  0  0  0  0  0  0  0  0
   -2.4725    3.1195   -0.7115 H   0  0  0  0  0  0  0  0  0  0  0  0
    0.0873    2.2044    1.2200 C   0  0  0  0  0  0  0  0  0  0  0  0
   -0.3888    0.7965    0.8603 C   0  0  0  0  0  0  0  0  0  0  0  0
    0.7420   -0.1979    0.8350 C   0  0  0  0  0  0  0  0  0  0  0  0
    1.1119   -0.8862    1.9862 C   0  0  0  0  0  0  0  0  0  0  0  0
    2.1816   -1.7681    1.9776 C   0  0  0  0  0  0  0  0  0  0  0  0
    2.9022   -1.9764    0.8114 C   0  0  0  0  0  0  0  0  0  0  0  0
    2.5436   -1.2975   -0.3432 C   0  0  0  0  0  0  0  0  0  0  0  0
    1.4730   -0.4169   -0.3283 C   0  0  0  0  0  0  0  0  0  0  0  0
    0.8242    2.5600    0.4974 H   0  0  0  0  0  0  0  0  0  0  0  0
    0.5578    2.2138    2.2050 H   0  0  0  0  0  0  0  0  0  0  0  0
   -0.7460    2.9090    1.2329 H   0  0  0  0  0  0  0  0  0  0  0  0
   -1.1426    0.4726    1.5819 H   0  0  0  0  0  0  0  0  0  0  0  0
    0.5511   -0.7308    2.9014 H   0  0  0  0  0  0  0  0  0  0  0  0
    2.4509   -2.2969    2.8835 H   0  0  0  0  0  0  0  0  0  0  0  0
    3.7360   -2.6668    0.8015 H   0  0  0  0  0  0  0  0  0  0  0  0
    3.0974   -1.4567   -1.2602 H   0  0  0  0  0  0  0  0  0  0  0  0
    1.1966    0.1081   -1.2362 H   0  0  0  0  0  0  0  0  0  0  0  0
  1  2  2  3
  1  5  1  0
  1  6  1  0
  2  3  1  0
  2  7  1  0
  3  4  1  0
  3  9  1  0
  4 10  1  0
  4 11  1  0
  4 12  1  0
  8 14  1  0
 13 14  1  0
 13 21  1  0
 13 22  1  0
 13 23  1  0
 14 15  1  0
 14 24  1  0
 15 16  2  0
 15 20  1  0
 16 17  1  0
 16 25  1  0
 17 18  2  0
 17 26  1  0
 18 19  1  0
 18 27  1  0
 19 20  2  0
 19 28  1  0
 20 29  1  0
M  RAD  1   3   2
M  END
>  <reaction>  (7) 
rxn_1052

>  <mol_properties>  (7) 
{"1": {"label": "*0", "atom_type": "Cd"}, "2": {"label": "*1", "atom_type": "Cs"}, "7": {"label": "*2", "atom_type": "H0"}, "13": {"label": "*3", "atom_type": "Cd"}, "14": {"label": "*4", "atom_type": "Cd"}}

>  <type>  (7) 
unop_3

>  <geom_source>  (7) 
Heuristics

$$$$

     RDKit          3D

 29 28  0  0  0  0  0  0  0  0999 V2000
   -0.7345   -1.9804   -3.6532 C   0  0  0  0  0  0  0  0  0  0  0  0
   -0.7345   -1.9804   -2.3289 C   0  0  0  0  0  0  0  0  0  0  0  0
   -0.7345   -0.7759   -1.4354 C   0  0  0  0  0  3  0  0  0  0  0  0
   -0.7345    0.5699   -2.1431 C   0  0  0  0  0  0  0  0  0  0  0  0
   -0.7345   -1.0635   -4.2306 H   0  0  0  0  0  0  0  0  0  0  0  0
   -0.7345   -2.9077   -4.2119 H   0  0  0  0  0  0  0  0  0  0  0  0
   -0.7345   -2.9361   -1.8107 H   0  0  0  0  0  0  0  0  0  0  0  0
    0.3088   -0.8574   -0.6396 H   0  0  0  0  0  0  0  0  0  0  0  0
   -1.6039   -0.8438   -0.7723 H   0  0  0  0  0  0  0  0  0  0  0  0
   -1.6169    0.6849   -2.7755 H   0  0  0  0  0  0  0  0  0  0  0  0
    0.1480    0.6849   -2.7755 H   0  0  0  0  0  0  0  0  0  0  0  0
   -0.7345    1.3842   -1.4178 H   0  0  0  0  0  0  0  0  0  0  0  0
    1.2523   -2.2155    0.9899 C   0  0  0  0  0  0  0  0  0  0  0  0
    1.3493   -0.9388    0.1540 C   0  0  0  0  0  0  0  0  0  0  0  0
    0.6888    0.2348    0.8283 C   0  0  0  0  0  0  0  0  0  0  0  0
    1.4024    1.0493    1.7019 C   0  0  0  0  0  0  0  0  0  0  0  0
    0.7862    2.1027    2.3596 C   0  0  0  0  0  0  0  0  0  0  0  0
   -0.5607    2.3594    2.1530 C   0  0  0  0  0  0  0  0  0  0  0  0
   -1.2835    1.5559    1.2843 C   0  0  0  0  0  0  0  0  0  0  0  0
   -0.6616    0.5040    0.6295 C   0  0  0  0  0  0  0  0  0  0  0  0
    0.2090   -2.4818    1.1698 H   0  0  0  0  0  0  0  0  0  0  0  0
    1.7318   -2.0794    1.9610 H   0  0  0  0  0  0  0  0  0  0  0  0
    1.7362   -3.0531    0.4844 H   0  0  0  0  0  0  0  0  0  0  0  0
    2.4003   -0.7067   -0.0339 H   0  0  0  0  0  0  0  0  0  0  0  0
    2.4570    0.8567    1.8662 H   0  0  0  0  0  0  0  0  0  0  0  0
    1.3604    2.7272    3.0327 H   0  0  0  0  0  0  0  0  0  0  0  0
   -1.0434    3.1832    2.6632 H   0  0  0  0  0  0  0  0  0  0  0  0
   -2.3349    1.7509    1.1128 H   0  0  0  0  0  0  0  0  0  0  0  0
   -1.2328   -0.1181   -0.0509 H   0  0  0  0  0  0  0  0  0  0  0  0
  1  2  2  3
  1  5  1  0
  1  6  1  0
  2  3  1  0
  2  7  1  0
  3  4  1  0
  3  9  1  0
  4 10  1  0
  4 11  1  0
  4 12  1  0
  8 14  1  0
 13 14  1  0
 13 21  1  0
 13 22  1  0
 13 23  1  0
 14 15  1  0
 14 24  1  0
 15 16  2  0
 15 20  1  0
 16 17  1  0
 16 25  1  0
 17 18  2  0
 17 26  1  0
 18 19  1  0
 18 27  1  0
 19 20  2  0
 19 28  1  0
 20 29  1  0
M  RAD  1   3   2
M  END
>  <reaction>  (8) 
rxn_1052

>  <mol_properties>  (8) 
{"1": {"label": "*0", "atom_type": "Cd"}, "2": {"label": "*1", "atom_type": "Cs"}, "7": {"label": "*2", "atom_type": "H0"}, "13": {"label": "*3", "atom_type": "Cd"}, "14": {"label": "*4", "atom_type": "Cd"}}

>  <type>  (8) 
unop_4

>  <geom_source>  (8) 
Heuristics

$$$$

     RDKit          3D

 29 28  0  0  0  0  0  0  0  0999 V2000
   -2.5410   -1.0448   -2.2576 C   0  0  0  0  0  0  0  0  0  0  0  0
   -2.5410   -1.0448   -0.9333 C   0  0  0  0  0  0  0  0  0  0  0  0
   -2.5410    0.1597   -0.0398 C   0  0  0  0  0  3  0  0  0  0  0  0
   -2.5410    1.5055   -0.7475 C   0  0  0  0  0  0  0  0  0  0  0  0
   -2.5410   -0.1279   -2.8351 H   0  0  0  0  0  0  0  0  0  0  0  0
   -2.5410   -1.9721   -2.8163 H   0  0  0  0  0  0  0  0  0  0  0  0
   -2.5410   -2.0005   -0.4151 H   0  0  0  0  0  0  0  0  0  0  0  0
   -1.4977    0.0782    0.7559 H   0  0  0  0  0  0  0  0  0  0  0  0
   -3.4104    0.0918    0.6233 H   0  0  0  0  0  0  0  0  0  0  0  0
   -3.4234    1.6205   -1.3800 H   0  0  0  0  0  0  0  0  0  0  0  0
   -1.6585    1.6205   -1.3800 H   0  0  0  0  0  0  0  0  0  0  0  0
   -2.5410    2.3198   -0.0222 H   0  0  0  0  0  0  0  0  0  0  0  0
   -0.4282    1.2132    2.4757 C   0  0  0  0  0  0  0  0  0  0  0  0
   -0.4572   -0.0032    1.5495 C   0  0  0  0  0  0  0  0  0  0  0  0
    0.7965   -0.1198    0.7232 C   0  0  0  0  0  0  0  0  0  0  0  0
    1.9011   -0.8196    1.1985 C   0  0  0  0  0  0  0  0  0  0  0  0
    3.0726   -0.8903    0.4606 C   0  0  0  0  0  0  0  0  0  0  0  0
    3.1584   -0.2587   -0.7708 C   0  0  0  0  0  0  0  0  0  0  0  0
    2.0646    0.4414   -1.2568 C   0  0  0  0  0  0  0  0  0  0  0  0
    0.8958    0.5085   -0.5142 C   0  0  0  0  0  0  0  0  0  0  0  0
   -0.3245    2.1350    1.9004 H   0  0  0  0  0  0  0  0  0  0  0  0
    0.4172    1.1552    3.1639 H   0  0  0  0  0  0  0  0  0  0  0  0
   -1.3444    1.2796    3.0650 H   0  0  0  0  0  0  0  0  0  0  0  0
   -0.5866   -0.9100    2.1451 H   0  0  0  0  0  0  0  0  0  0  0  0
    1.8405   -1.3188    2.1594 H   0  0  0  0  0  0  0  0  0  0  0  0
    3.9199   -1.4434    0.8468 H   0  0  0  0  0  0  0  0  0  0  0  0
    4.0711   -0.3150   -1.3502 H   0  0  0  0  0  0  0  0  0  0  0  0
    2.1201    0.9343   -2.2195 H   0  0  0  0  0  0  0  0  0  0  0  0
    0.0435    1.0554   -0.9023 H   0  0  0  0  0  0  0  0  0  0  0  0
  1  2  2  3
  1  5  1  0
  1  6  1  0
  2  3  1  0
  2  7  1  0
  3  4  1  0
  3  9  1  0
  4 10  1  0
  4 11  1  0
  4 12  1  0
  8 14  1  0
 13 14  1  0
 13 21  1  0
 13 22  1  0
 13 23  1  0
 14 15  1  0
 14 24  1  0
 15 16  2  0
 15 20  1  0
 16 17  1  0
 16 25  1  0
 17 18  2  0
 17 26  1  0
 18 19  1  0
 18 27  1  0
 19 20  2  0
 19 28  1  0
 20 29  1  0
M  RAD  1   3   2
M  END
>  <reaction>  (9) 
rxn_1052

>  <mol_properties>  (9) 
{"1": {"label": "*0", "atom_type": "Cd"}, "2": {"label": "*1", "atom_type": "Cs"}, "7": {"label": "*2", "atom_type": "H0"}, "13": {"label": "*3", "atom_type": "Cd"}, "14": {"label": "*4", "atom_type": "Cd"}}

>  <type>  (9) 
unop_5

>  <geom_source>  (9) 
Heuristics

$$$$

     RDKit          3D

 29 27  0  0  0  0  0  0  0  0999 V2000
   -0.9673   -2.3049   -3.1234 C   0  0  0  0  0  3  0  0  0  0  0  0
   -0.9673   -2.3049   -1.7990 C   0  0  0  0  0  0  0  0  0  0  0  0
   -0.9673   -1.1004   -0.9056 C   0  0  0  0  0  3  0  0  0  0  0  0
   -0.9673    0.2454   -1.6133 C   0  0  0  0  0  3  0  0  0  0  0  0
   -0.9673   -1.3880   -3.7008 H   0  0  0  0  0  0  0  0  0  0  0  0
   -0.9673   -3.2322   -3.6821 H   0  0  0  0  0  0  0  0  0  0  0  0
   -0.9673   -3.2606   -1.2809 H   0  0  0  0  0  0  0  0  0  0  0  0
    0.0760   -1.1820   -0.1098 H   0  0  0  0  0  0  0  0  0  0  0  0
   -1.8366   -1.1684   -0.2425 H   0  0  0  0  0  0  0  0  0  0  0  0
   -1.8497    0.3604   -2.2457 H   0  0  0  0  0  0  0  0  0  0  0  0
   -0.0848    0.3604   -2.2457 H   0  0  0  0  0  0  0  0  0  0  0  0
   -0.9673    1.0597   -0.8880 H   0  0  0  0  0  0  0  0  0  0  0  0
    0.7261   -2.0122    1.9585 C   0  0  0  0  0  0  0  0  0  0  0  0
    1.1165   -1.2633    0.6838 C   0  0  0  0  0  0  0  0  0  0  0  0
    0.7391    0.1936    0.7411 C   0  0  0  0  0  0  0  0  0  0  0  0
    1.6161    1.1371    1.2668 C   0  0  0  0  0  0  0  0  0  0  0  0
    1.2543    2.4719    1.3633 C   0  0  0  0  0  0  0  0  0  0  0  0
    0.0029    2.8863    0.9334 C   0  0  0  0  0  0  0  0  0  0  0  0
   -0.8806    1.9565    0.4066 C   0  0  0  0  0  0  0  0  0  0  0  0
   -0.5130    0.6231    0.3127 C   0  0  0  0  0  0  0  0  0  0  0  0
   -0.3512   -1.9561    2.1255 H   0  0  0  0  0  0  0  0  0  0  0  0
    1.2196   -1.5769    2.8294 H   0  0  0  0  0  0  0  0  0  0  0  0
    1.0077   -3.0648    1.8970 H   0  0  0  0  0  0  0  0  0  0  0  0
    2.1936   -1.3545    0.5245 H   0  0  0  0  0  0  0  0  0  0  0  0
    2.5979    0.8210    1.6023 H   0  0  0  0  0  0  0  0  0  0  0  0
    1.9532    3.1912    1.7721 H   0  0  0  0  0  0  0  0  0  0  0  0
   -0.2808    3.9286    1.0050 H   0  0  0  0  0  0  0  0  0  0  0  0
   -1.8586    2.2710    0.0640 H   0  0  0  0  0  0  0  0  0  0  0  0
   -1.2083   -0.0978   -0.1033 H   0  0  0  0  0  0  0  0  0  0  0  0
  1  2  1  0
  1  5  1  0
  1  6  1  0
  2  3  2  3
  2  7  1  0
  3  9  1  0
  4 10  1  0
  4 11  1  0
  4 12  1  0
  8 14  1  0
 13 14  1  0
 13 21  1  0
 13 22  1  0
 13 23  1  0
 14 15  1  0
 14 24  1  0
 15 16  2  0
 15 20  1  0
 16 17  1  0
 16 25  1  0
 17 18  2  0
 17 26  1  0
 18 19  1  0
 18 27  1  0
 19 20  2  0
 19 28  1  0
 20 29  1  0
M  CHG  2   1   1   3  -1
M  RAD  1   4   2
M  END
>  <reaction>  (10) 
rxn_1052

>  <mol_properties>  (10) 
{"1": {"label": "*0", "atom_type": "Cd"}, "2": {"label": "*1", "atom_type": "Cs"}, "7": {"label": "*2", "atom_type": "H0"}, "13": {"label": "*3", "atom_type": "Cd"}, "14": {"label": "*4", "atom_type": "Cd"}}

>  <type>  (10) 
unop_6

>  <geom_source>  (10) 
Heuristics

$$$$

     RDKit          3D

 29 27  0  0  0  0  0  0  0  0999 V2000
   -1.3854   -2.3327   -2.5776 C   0  0  0  0  0  3  0  0  0  0  0  0
   -1.3854   -2.3327   -1.2532 C   0  0  0  0  0  0  0  0  0  0  0  0
   -1.3854   -1.1282   -0.3598 C   0  0  0  0  0  3  0  0  0  0  0  0
   -1.3854    0.2176   -1.0675 C   0  0  0  0  0  0  0  0  0  0  0  0
   -1.3854   -1.4158   -3.1550 H   0  0  0  0  0  0  0  0  0  0  0  0
   -1.3854   -3.2600   -3.1363 H   0  0  0  0  0  0  0  0  0  0  0  0
   -1.3854   -3.2884   -0.7351 H   0  0  0  0  0  0  0  0  0  0  0  0
   -0.3421   -1.2097    0.4360 H   0  0  0  0  0  0  0  0  0  0  0  0
   -2.2548   -1.1961    0.3033 H   0  0  0  0  0  0  0  0  0  0  0  0
   -2.2678    0.3326   -1.6999 H   0  0  0  0  0  0  0  0  0  0  0  0
   -0.5029    0.3326   -1.6999 H   0  0  0  0  0  0  0  0  0  0  0  0
   -1.3854    1.0319   -0.3422 H   0  0  0  0  0  0  0  0  0  0  0  0
    0.2272   -1.3199    2.6840 C   0  0  0  0  0  0  0  0  0  0  0  0
    0.6984   -1.2911    1.2296 C   0  0  0  0  0  0  0  0  0  0  0  0
    0.7762    0.1105    0.6839 C   0  0  0  0  0  0  0  0  0  0  0  0
    1.9390    0.8631    0.8151 C   0  0  0  0  0  0  0  0  0  0  0  0
    1.9993    2.1694    0.3549 C   0  0  0  0  0  0  0  0  0  0  0  0
    0.8915    2.7469   -0.2468 C   0  0  0  0  0  0  0  0  0  0  0  0
   -0.2736    2.0077   -0.3847 C   0  0  0  0  0  0  0  0  0  0  0  0
   -0.3276    0.7018    0.0776 C   0  0  0  0  0  3  0  0  0  0  0  0
   -0.7642   -0.8729    2.7784 H   0  0  0  0  0  0  0  0  0  0  0  0
    0.9080   -0.7539    3.3225 H   0  0  0  0  0  0  0  0  0  0  0  0
    0.1776   -2.3432    3.0601 H   0  0  0  0  0  0  0  0  0  0  0  0
    1.6799   -1.7654    1.1564 H   0  0  0  0  0  0  0  0  0  0  0  0
    2.8106    0.4172    1.2818 H   0  0  0  0  0  0  0  0  0  0  0  0
    2.9152    2.7370    0.4632 H   0  0  0  0  0  0  0  0  0  0  0  0
    0.9370    3.7658   -0.6096 H   0  0  0  0  0  0  0  0  0  0  0  0
   -1.1428    2.4482   -0.8572 H   0  0  0  0  0  0  0  0  0  0  0  0
   -1.2414    0.1289   -0.0367 H   0  0  0  0  0  0  0  0  0  0  0  0
  1  2  1  0
  1  5  1  0
  1  6  1  0
  2  3  2  3
  2  7  1  0
  3  9  1  0
  4 10  1  0
  4 11  1  0
  4 12  1  0
  4 29  1  0
  8 14  1  0
 13 14  1  0
 13 21  1  0
 13 22  1  0
 13 23  1  0
 14 15  1  0
 14 24  1  0
 15 16  2  0
 15 20  1  0
 16 17  1  0
 16 25  1  0
 17 18  2  0
 17 26  1  0
 18 19  1  0
 18 27  1  0
 19 20  2  0
 19 28  1  0
M  CHG  2   1   1   3  -1
M  RAD  1  20   2
M  END
>  <reaction>  (11) 
rxn_1052

>  <mol_properties>  (11) 
{"1": {"label": "*0", "atom_type": "Cd"}, "2": {"label": "*1", "atom_type": "Cs"}, "7": {"label": "*2", "atom_type": "H0"}, "13": {"label": "*3", "atom_type": "Cd"}, "14": {"label": "*4", "atom_type": "Cd"}}

>  <type>  (11) 
unop_7

>  <geom_source>  (11) 
Heuristics

$$$$

     RDKit          3D

 29 28  0  0  0  0  0  0  0  0999 V2000
   -1.8853   -0.2120   -3.8790 C   0  0  0  0  0  0  0  0  0  0  0  0
   -1.8853   -0.2120   -2.5547 C   0  0  0  0  0  0  0  0  0  0  0  0
   -1.8853    0.9925   -1.6612 C   0  0  0  0  0  3  0  0  0  0  0  0
   -1.8853    2.3383   -2.3689 C   0  0  0  0  0  0  0  0  0  0  0  0
   -1.8853    0.7049   -4.4565 H   0  0  0  0  0  0  0  0  0  0  0  0
   -1.8853   -1.1393   -4.4377 H   0  0  0  0  0  0  0  0  0  0  0  0
   -1.8853   -1.1677   -2.0365 H   0  0  0  0  0  0  0  0  0  0  0  0
   -0.8420    0.9110   -0.8655 H   0  0  0  0  0  0  0  0  0  0  0  0
   -2.7547    0.9246   -0.9981 H   0  0  0  0  0  0  0  0  0  0  0  0
   -2.7677    2.4533   -3.0013 H   0  0  0  0  0  0  0  0  0  0  0  0
   -1.0028    2.4533   -3.0013 H   0  0  0  0  0  0  0  0  0  0  0  0
   -1.8853    3.1526   -1.6436 H   0  0  0  0  0  0  0  0  0  0  0  0
    1.3955    1.5154   -0.7313 C   0  0  0  0  0  0  0  0  0  0  0  0
    0.1985    0.8296   -0.0718 C   0  0  0  0  0  0  0  0  0  0  0  0
    0.6165   -0.1196    1.0202 C   0  0  0  0  0  0  0  0  0  0  0  0
    0.7681    0.3234    2.3304 C   0  0  0  0  0  0  0  0  0  0  0  0
    1.1970   -0.5369    3.3294 C   0  0  0  0  0  0  0  0  0  0  0  0
    1.4828   -1.8608    3.0321 C   0  0  0  0  0  0  0  0  0  0  0  0
    1.3352   -2.3155    1.7305 C   0  0  0  0  0  0  0  0  0  0  0  0
    0.9059   -1.4504    0.7359 C   0  0  0  0  0  0  0  0  0  0  0  0
    2.0683    0.7783   -1.1736 H   0  0  0  0  0  0  0  0  0  0  0  0
    1.9666    2.0870    0.0027 H   0  0  0  0  0  0  0  0  0  0  0  0
    1.0717    2.1981   -1.5188 H   0  0  0  0  0  0  0  0  0  0  0  0
   -0.4720    1.5871    0.3410 H   0  0  0  0  0  0  0  0  0  0  0  0
    0.5435    1.3567    2.5712 H   0  0  0  0  0  0  0  0  0  0  0  0
    1.3049   -0.1732    4.3437 H   0  0  0  0  0  0  0  0  0  0  0  0
    1.8151   -2.5352    3.8111 H   0  0  0  0  0  0  0  0  0  0  0  0
    1.5516   -3.3488    1.4891 H   0  0  0  0  0  0  0  0  0  0  0  0
    0.7899   -1.8142   -0.2792 H   0  0  0  0  0  0  0  0  0  0  0  0
  1  2  2  3
  1  5  1  0
  1  6  1  0
  2  3  1  0
  2  7  1  0
  3  4  1  0
  3  9  1  0
  4 10  1  0
  4 11  1  0
  4 12  1  0
  8 14  1  0
 13 14  1  0
 13 21  1  0
 13 22  1  0
 13 23  1  0
 14 15  1  0
 14 24  1  0
 15 16  2  0
 15 20  1  0
 16 17  1  0
 16 25  1  0
 17 18  2  0
 17 26  1  0
 18 19  1  0
 18 27  1  0
 19 20  2  0
 19 28  1  0
 20 29  1  0
M  RAD  1   3   2
M  END
>  <reaction>  (12) 
rxn_1052

>  <mol_properties>  (12) 
{"1": {"label": "*0", "atom_type": "Cd"}, "2": {"label": "*1", "atom_type": "Cs"}, "7": {"label": "*2", "atom_type": "H0"}, "13": {"label": "*3", "atom_type": "Cd"}, "14": {"label": "*4", "atom_type": "Cd"}}

>  <type>  (12) 
unop_8

>  <geom_source>  (12) 
Heuristics

$$$$

     RDKit          3D

 29 28  0  0  0  0  0  0  0  0999 V2000
   -0.7500   -1.4581   -4.0557 C   0  0  0  0  0  0  0  0  0  0  0  0
   -0.7500   -1.4581   -2.7314 C   0  0  0  0  0  0  0  0  0  0  0  0
   -0.7500   -0.2536   -1.8379 C   0  0  0  0  0  3  0  0  0  0  0  0
   -0.7500    1.0922   -2.5456 C   0  0  0  0  0  0  0  0  0  0  0  0
   -0.7500   -0.5412   -4.6332 H   0  0  0  0  0  0  0  0  0  0  0  0
   -0.7500   -2.3854   -4.6144 H   0  0  0  0  0  0  0  0  0  0  0  0
   -0.7500   -2.4138   -2.2132 H   0  0  0  0  0  0  0  0  0  0  0  0
    0.2933   -0.3352   -1.0422 H   0  0  0  0  0  0  0  0  0  0  0  0
   -1.6194   -0.3216   -1.1748 H   0  0  0  0  0  0  0  0  0  0  0  0
   -1.6324    1.2072   -3.1780 H   0  0  0  0  0  0  0  0  0  0  0  0
    0.1325    1.2072   -3.1780 H   0  0  0  0  0  0  0  0  0  0  0  0
   -0.7500    1.9065   -1.8203 H   0  0  0  0  0  0  0  0  0  0  0  0
    1.6643   -1.8875    0.0070 C   0  0  0  0  0  0  0  0  0  0  0  0
    1.3338   -0.4165   -0.2485 C   0  0  0  0  0  0  0  0  0  0  0  0
    0.6388    0.2230    0.9246 C   0  0  0  0  0  0  0  0  0  0  0  0
    1.3693    0.8221    1.9460 C   0  0  0  0  0  0  0  0  0  0  0  0
    0.7349    1.3713    3.0496 C   0  0  0  0  0  0  0  0  0  0  0  0
   -0.6474    1.3294    3.1498 C   0  0  0  0  0  0  0  0  0  0  0  0
   -1.3877    0.7361    2.1385 C   0  0  0  0  0  0  0  0  0  0  0  0
   -0.7475    0.1887    1.0374 C   0  0  0  0  0  0  0  0  0  0  0  0
    0.7558   -2.4593    0.2049 H   0  0  0  0  0  0  0  0  0  0  0  0
    2.3175   -1.9920    0.8753 H   0  0  0  0  0  0  0  0  0  0  0  0
    2.1668   -2.3319   -0.8539 H   0  0  0  0  0  0  0  0  0  0  0  0
    2.2542    0.1296   -0.4685 H   0  0  0  0  0  0  0  0  0  0  0  0
    2.4507    0.8615    1.8732 H   0  0  0  0  0  0  0  0  0  0  0  0
    1.3217    1.8364    3.8320 H   0  0  0  0  0  0  0  0  0  0  0  0
   -1.1452    1.7602    4.0092 H   0  0  0  0  0  0  0  0  0  0  0  0
   -2.4680    0.7023    2.2053 H   0  0  0  0  0  0  0  0  0  0  0  0
   -1.3334   -0.2710    0.2489 H   0  0  0  0  0  0  0  0  0  0  0  0
  1  2  2  3
  1  5  1  0
  1  6  1  0
  2  3  1  0
  2  7  1  0
  3  4  1  0
  3  9  1  0
  4 10  1  0
  4 11  1  0
  4 12  1  0
  8 14  1  0
 13 14  1  0
 13 21  1  0
 13 22  1  0
 13 23  1  0
 14 15  1  0
 14 24  1  0
 15 16  2  0
 15 20  1  0
 16 17  1  0
 16 25  1  0
 17 18  2  0
 17 26  1  0
 18 19  1  0
 18 27  1  0
 19 20  2  0
 19 28  1  0
 20 29  1  0
M  RAD  1   3   2
M  END
>  <reaction>  (13) 
rxn_1052

>  <mol_properties>  (13) 
{"1": {"label": "*0", "atom_type": "Cd"}, "2": {"label": "*1", "atom_type": "Cs"}, "7": {"label": "*2", "atom_type": "H0"}, "13": {"label": "*3", "atom_type": "Cd"}, "14": {"label": "*4", "atom_type": "Cd"}}

>  <type>  (13) 
unop_9

>  <geom_source>  (13) 
Heuristics

$$$$

     RDKit          3D

 29 28  0  0  0  0  0  0  0  0999 V2000
   -1.6678   -0.3823   -4.0817 C   0  0  0  0  0  0  0  0  0  0  0  0
   -1.6678   -0.3823   -2.7574 C   0  0  0  0  0  0  0  0  0  0  0  0
   -1.6678    0.8222   -1.8639 C   0  0  0  0  0  3  0  0  0  0  0  0
   -1.6678    2.1680   -2.5716 C   0  0  0  0  0  0  0  0  0  0  0  0
   -1.6678    0.5346   -4.6592 H   0  0  0  0  0  0  0  0  0  0  0  0
   -1.6678   -1.3096   -4.6404 H   0  0  0  0  0  0  0  0  0  0  0  0
   -1.6678   -1.3380   -2.2392 H   0  0  0  0  0  0  0  0  0  0  0  0
   -0.6246    0.7407   -1.0682 H   0  0  0  0  0  0  0  0  0  0  0  0
   -2.5372    0.7543   -1.2008 H   0  0  0  0  0  0  0  0  0  0  0  0
   -2.5503    2.2830   -3.2041 H   0  0  0  0  0  0  0  0  0  0  0  0
   -0.7854    2.2830   -3.2041 H   0  0  0  0  0  0  0  0  0  0  0  0
   -1.6678    2.9823   -1.8463 H   0  0  0  0  0  0  0  0  0  0  0  0
    1.6937    0.6251   -1.1137 C   0  0  0  0  0  0  0  0  0  0  0  0
    0.4159    0.6593   -0.2746 C   0  0  0  0  0  0  0  0  0  0  0  0
    0.5904   -0.0232    1.0566 C   0  0  0  0  0  0  0  0  0  0  0  0
    1.0418    0.6839    2.1666 C   0  0  0  0  0  0  0  0  0  0  0  0
    1.2474    0.0492    3.3818 C   0  0  0  0  0  0  0  0  0  0  0  0
    1.0037   -1.3101    3.5067 C   0  0  0  0  0  0  0  0  0  0  0  0
    0.5527   -2.0267    2.4086 C   0  0  0  0  0  0  0  0  0  0  0  0
    0.3490   -1.3863    1.1960 C   0  0  0  0  0  0  0  0  0  0  0  0
    2.0016   -0.4041   -1.3077 H   0  0  0  0  0  0  0  0  0  0  0  0
    2.5128    1.1232   -0.5917 H   0  0  0  0  0  0  0  0  0  0  0  0
    1.5465    1.1241   -2.0731 H   0  0  0  0  0  0  0  0  0  0  0  0
    0.1140    1.6972   -0.1149 H   0  0  0  0  0  0  0  0  0  0  0  0
    1.2317    1.7480    2.0774 H   0  0  0  0  0  0  0  0  0  0  0  0
    1.5956    0.6185    4.2347 H   0  0  0  0  0  0  0  0  0  0  0  0
    1.1606   -1.8074    4.4554 H   0  0  0  0  0  0  0  0  0  0  0  0
    0.3551   -3.0878    2.4972 H   0  0  0  0  0  0  0  0  0  0  0  0
   -0.0069   -1.9528    0.3424 H   0  0  0  0  0  0  0  0  0  0  0  0
  1  2  2  3
  1  5  1  0
  1  6  1  0
  2  3  1  0
  2  7  1  0
  3  4  1  0
  3  9  1  0
  4 10  1  0
  4 11  1  0
  4 12  1  0
  8 14  1  0
 13 14  1  0
 13 21  1  0
 13 22  1  0
 13 23  1  0
 14 15  1  0
 14 24  1  0
 15 16  2  0
 15 20  1  0
 16 17  1  0
 16 25  1  0
 17 18  2  0
 17 26  1  0
 18 19  1  0
 18 27  1  0
 19 20  2  0
 19 28  1  0
 20 29  1  0
M  RAD  1   3   2
M  END
>  <reaction>  (14) 
rxn_1052

>  <mol_properties>  (14) 
{"1": {"label": "*0", "atom_type": "Cd"}, "2": {"label": "*1", "atom_type": "Cs"}, "7": {"label": "*2", "atom_type": "H0"}, "13": {"label": "*3", "atom_type": "Cd"}, "14": {"label": "*4", "atom_type": "Cd"}}

>  <type>  (14) 
unop_10

>  <geom_source>  (14) 
Heuristics

$$$$

     RDKit          3D

 29 27  0  0  0  0  0  0  0  0999 V2000
   -1.9744   -1.9618   -2.1643 C   0  0  0  0  0  3  0  0  0  0  0  0
   -1.9744   -1.9618   -0.8399 C   0  0  0  0  0  0  0  0  0  0  0  0
   -1.9744   -0.7573    0.0535 C   0  0  0  0  0  3  0  0  0  0  0  0
   -1.9744    0.5884   -0.6542 C   0  0  0  0  0  0  0  0  0  0  0  0
   -1.9744   -1.0449   -2.7417 H   0  0  0  0  0  0  0  0  0  0  0  0
   -1.9744   -2.8892   -2.7230 H   0  0  0  0  0  0  0  0  0  0  0  0
   -1.9744   -2.9175   -0.3217 H   0  0  0  0  0  0  0  0  0  0  0  0
   -0.9311   -0.8389    0.8493 H   0  0  0  0  0  0  0  0  0  0  0  0
   -2.8438   -0.8253    0.7167 H   0  0  0  0  0  0  0  0  0  0  0  0
   -2.8568    0.7034   -1.2866 H   0  0  0  0  0  0  0  0  0  0  0  0
   -1.0920    0.7034   -1.2866 H   0  0  0  0  0  0  0  0  0  0  0  0
   -1.9744    1.4028    0.0711 H   0  0  0  0  0  0  0  0  0  0  0  0
   -0.2083   -0.2297    2.9697 C   0  0  0  0  0  0  0  0  0  0  0  0
    0.1093   -0.9202    1.6429 C   0  0  0  0  0  0  0  0  0  0  0  0
    0.7974    0.0022    0.6714 C   0  0  0  0  0  0  0  0  0  0  0  0
    2.1838    0.1176    0.6577 C   0  0  0  0  0  0  0  0  0  0  0  0
    2.8180    0.9995   -0.2037 C   0  0  0  0  0  0  0  0  0  0  0  0
    2.0715    1.7843   -1.0695 C   0  0  0  0  0  0  0  0  0  0  0  0
    0.6889    1.6786   -1.0668 C   0  0  0  0  0  0  0  0  0  0  0  0
    0.0606    0.7948   -0.2031 C   0  0  0  0  0  3  0  0  0  0  0  0
   -0.8614    0.6305    2.8115 H   0  0  0  0  0  0  0  0  0  0  0  0
    0.7050    0.1309    3.4465 H   0  0  0  0  0  0  0  0  0  0  0  0
   -0.7060   -0.9142    3.6589 H   0  0  0  0  0  0  0  0  0  0  0  0
    0.7425   -1.7910    1.8291 H   0  0  0  0  0  0  0  0  0  0  0  0
    2.7746   -0.4951    1.3298 H   0  0  0  0  0  0  0  0  0  0  0  0
    3.8986    1.0715   -0.2014 H   0  0  0  0  0  0  0  0  0  0  0  0
    2.5646    2.4716   -1.7452 H   0  0  0  0  0  0  0  0  0  0  0  0
    0.0973    2.2839   -1.7423 H   0  0  0  0  0  0  0  0  0  0  0  0
   -1.0210    0.7155   -0.2089 H   0  0  0  0  0  0  0  0  0  0  0  0
  1  2  1  0
  1  5  1  0
  1  6  1  0
  2  3  2  3
  2  7  1  0
  3  9  1  0
  4 10  1  0
  4 11  1  0
  4 12  1  0
  4 29  1  0
  8 14  1  0
 13 14  1  0
 13 21  1  0
 13 22  1  0
 13 23  1  0
 14 15  1  0
 14 24  1  0
 15 16  2  0
 15 20  1  0
 16 17  1  0
 16 25  1  0
 17 18  2  0
 17 26  1  0
 18 19  1  0
 18 27  1  0
 19 20  2  0
 19 28  1  0
M  CHG  2   1   1   3  -1
M  RAD  1  20   2
M  END
>  <reaction>  (15) 
rxn_1052

>  <mol_properties>  (15) 
{"1": {"label": "*0", "atom_type": "Cd"}, "2": {"label": "*1", "atom_type": "Cs"}, "7": {"label": "*2", "atom_type": "H0"}, "13": {"label": "*3", "atom_type": "Cd"}, "14": {"label": "*4", "atom_type": "Cd"}}

>  <type>  (15) 
unop_11

>  <geom_source>  (15) 
Heuristics

$$$$

     RDKit          3D

 29 28  0  0  0  0  0  0  0  0999 V2000
   -1.0229   -0.9318   -4.2364 C   0  0  0  0  0  0  0  0  0  0  0  0
   -1.0229   -0.9318   -2.9120 C   0  0  0  0  0  0  0  0  0  0  0  0
   -1.0229    0.2727   -2.0186 C   0  0  0  0  0  3  0  0  0  0  0  0
   -1.0229    1.6185   -2.7263 C   0  0  0  0  0  0  0  0  0  0  0  0
   -1.0229   -0.0149   -4.8138 H   0  0  0  0  0  0  0  0  0  0  0  0
   -1.0229   -1.8591   -4.7951 H   0  0  0  0  0  0  0  0  0  0  0  0
   -1.0229   -1.8875   -2.3938 H   0  0  0  0  0  0  0  0  0  0  0  0
    0.0204    0.1911   -1.2228 H   0  0  0  0  0  0  0  0  0  0  0  0
   -1.8923    0.2047   -1.3554 H   0  0  0  0  0  0  0  0  0  0  0  0
   -1.9053    1.7335   -3.3587 H   0  0  0  0  0  0  0  0  0  0  0  0
   -0.1404    1.7335   -3.3587 H   0  0  0  0  0  0  0  0  0  0  0  0
   -1.0229    2.4328   -2.0010 H   0  0  0  0  0  0  0  0  0  0  0  0
    1.8384   -1.1697   -0.7401 C   0  0  0  0  0  0  0  0  0  0  0  0
    1.0609    0.1098   -0.4292 C   0  0  0  0  0  0  0  0  0  0  0  0
    0.6039    0.1641    1.0048 C   0  0  0  0  0  0  0  0  0  0  0  0
    1.4161    0.7140    1.9916 C   0  0  0  0  0  0  0  0  0  0  0  0
    1.0182    0.7243    3.3195 C   0  0  0  0  0  0  0  0  0  0  0  0
   -0.2048    0.1816    3.6836 C   0  0  0  0  0  0  0  0  0  0  0  0
   -1.0245   -0.3689    2.7100 C   0  0  0  0  0  0  0  0  0  0  0  0
   -0.6210   -0.3762    1.3838 C   0  0  0  0  0  0  0  0  0  0  0  0
    1.2218   -2.0514   -0.5560 H   0  0  0  0  0  0  0  0  0  0  0  0
    2.7247   -1.2471   -0.1076 H   0  0  0  0  0  0  0  0  0  0  0  0
    2.1602   -1.1896   -1.7828 H   0  0  0  0  0  0  0  0  0  0  0  0
    1.6888    0.9777   -0.6445 H   0  0  0  0  0  0  0  0  0  0  0  0
    2.3727    1.1432    1.7141 H   0  0  0  0  0  0  0  0  0  0  0  0
    1.6635    1.1606    4.0719 H   0  0  0  0  0  0  0  0  0  0  0  0
   -0.5190    0.1911    4.7195 H   0  0  0  0  0  0  0  0  0  0  0  0
   -1.9834   -0.7912    2.9836 H   0  0  0  0  0  0  0  0  0  0  0  0
   -1.2689   -0.8058    0.6275 H   0  0  0  0  0  0  0  0  0  0  0  0
  1  2  2  3
  1  5  1  0
  1  6  1  0
  2  3  1  0
  2  7  1  0
  3  4  1  0
  3  9  1  0
  4 10  1  0
  4 11  1  0
  4 12  1  0
  8 14  1  0
 13 14  1  0
 13 21  1  0
 13 22  1  0
 13 23  1  0
 14 15  1  0
 14 24  1  0
 15 16  2  0
 15 20  1  0
 16 17  1  0
 16 25  1  0
 17 18  2  0
 17 26  1  0
 18 19  1  0
 18 27  1  0
 19 20  2  0
 19 28  1  0
 20 29  1  0
M  RAD  1   3   2
M  END
>  <reaction>  (16) 
rxn_1052

>  <mol_properties>  (16) 
{"1": {"label": "*0", "atom_type": "Cd"}, "2": {"label": "*1", "atom_type": "Cs"}, "7": {"label": "*2", "atom_type": "H0"}, "13": {"label": "*3", "atom_type": "Cd"}, "14": {"label": "*4", "atom_type": "Cd"}}

>  <type>  (16) 
unop_12

>  <geom_source>  (16) 
Heuristics

$$$$

     RDKit          3D

 29 28  0  0  0  0  0  0  0  0999 V2000
   -0.2391    1.2261   -0.2884 C   0  0  0  0  0  0  0  0  0  0  0  0
   -0.4149    2.5048    0.5220 C   0  0  0  0  0  0  0  0  0  0  0  0
    2.0718   -1.4752    0.8094 C   0  0  0  0  0  0  0  0  0  0  0  0
   -1.4235    0.3162   -0.1136 C   0  0  0  0  0  0  0  0  0  0  0  0
    1.8765   -0.3302   -0.1770 C   0  0  0  0  0  3  0  0  0  0  0  0
   -1.4391   -0.6309    0.9231 C   0  0  0  0  0  0  0  0  0  0  0  0
   -2.5444    0.4399   -0.9516 C   0  0  0  0  0  0  0  0  0  0  0  0
   -2.5526   -1.4575    1.1044 C   0  0  0  0  0  0  0  0  0  0  0  0
   -3.6592   -1.3379    0.2589 C   0  0  0  0  0  0  0  0  0  0  0  0
   -3.6558   -0.3886   -0.7670 C   0  0  0  0  0  0  0  0  0  0  0  0
    3.1715    0.3543   -0.5055 C   0  0  0  0  0  0  0  0  0  0  0  0
    4.1085   -0.2337   -1.2548 C   0  0  0  0  0  0  0  0  0  0  0  0
   -0.1103    1.4851   -1.3620 H   0  0  0  0  0  0  0  0  0  0  0  0
    0.8756    0.6066    0.1112 H   0  0  0  0  0  0  0  0  0  0  0  0
    0.4726    3.1564    0.3806 H   0  0  0  0  0  0  0  0  0  0  0  0
   -1.3196    3.0547    0.1852 H   0  0  0  0  0  0  0  0  0  0  0  0
   -0.5106    2.2641    1.6021 H   0  0  0  0  0  0  0  0  0  0  0  0
    2.7006   -2.2733    0.3608 H   0  0  0  0  0  0  0  0  0  0  0  0
    1.0827   -1.9047    1.0714 H   0  0  0  0  0  0  0  0  0  0  0  0
    2.5538   -1.1013    1.7374 H   0  0  0  0  0  0  0  0  0  0  0  0
    1.3749   -0.6875   -1.1023 H   0  0  0  0  0  0  0  0  0  0  0  0
   -0.5920   -0.7277    1.5908 H   0  0  0  0  0  0  0  0  0  0  0  0
   -2.5589   -2.1887    1.9024 H   0  0  0  0  0  0  0  0  0  0  0  0
   -2.5572    1.1772   -1.7448 H   0  0  0  0  0  0  0  0  0  0  0  0
   -4.5205   -1.9776    0.4013 H   0  0  0  0  0  0  0  0  0  0  0  0
   -4.5156   -0.2926   -1.4173 H   0  0  0  0  0  0  0  0  0  0  0  0
    3.3317    1.3660   -0.1470 H   0  0  0  0  0  0  0  0  0  0  0  0
    5.0281    0.2936   -1.4865 H   0  0  0  0  0  0  0  0  0  0  0  0
    3.9650   -1.2375   -1.6431 H   0  0  0  0  0  0  0  0  0  0  0  0
  1  2  1  0
  1  4  1  0
  1 13  1  0
  1 14  1  0
  2 15  1  0
  2 16  1  0
  2 17  1  0
  3  5  1  0
  3 18  1  0
  3 19  1  0
  3 20  1  0
  4  6  2  0
  4  7  1  0
  5 11  1  0
  5 21  1  0
  6  8  1  0
  6 22  1  0
  7 10  2  0
  7 24  1  0
  8  9  2  0
  8 23  1  0
  9 10  1  0
  9 25  1  0
 10 26  1  0
 11 12  2  3
 11 27  1  0
 12 28  1  0
 12 29  1  0
M  RAD  1   5   2
M  END
>  <reaction>  (17) 
rxn_1052

>  <mol_properties>  (17) 
{"1": {"label": "*0", "atom_type": "Cd"}, "2": {"label": "*1", "atom_type": "Cs"}, "7": {"label": "*2", "atom_type": "H0"}, "13": {"label": "*3", "atom_type": "Cd"}, "14": {"label": "*4", "atom_type": "Cd"}}

>  <type>  (17) 
unop_13

>  <geom_source>  (17) 
AutoTST

$$$$
