
     RDKit          3D

  9  8  0  0  0  0  0  0  0  0999 V2000
   -2.1022   -0.6873    0.3932 C   0  0  0  0  0  0  0  0  0  0  0  0
   -1.2072   -0.1086   -0.1482 C   0  0  0  0  0  0  0  0  0  0  0  0
   -0.1242    0.6105   -0.8193 C   0  0  0  0  0  0  0  0  0  0  0  0
    1.2067    0.1106   -0.4741 C   0  0  0  0  0  0  0  0  0  0  0  0
    2.3005   -0.2875   -0.2012 C   0  0  0  0  0  0  0  0  0  0  0  0
   -2.8942   -1.2059    0.8778 H   0  0  0  0  0  0  0  0  0  0  0  0
   -0.1862    1.6723   -0.5649 H   0  0  0  0  0  0  0  0  0  0  0  0
   -0.2641    0.5418   -1.9017 H   0  0  0  0  0  0  0  0  0  0  0  0
    3.2709   -0.6459    0.0455 H   0  0  0  0  0  0  0  0  0  0  0  0
  1  2  3  0
  1  6  1  0
  2  3  1  0
  3  4  1  0
  3  7  1  0
  3  8  1  0
  4  5  3  0
  5  9  1  0
M  END
>  <reaction>  (1) 
rxn_1370

>  <mol_properties>  (1) 
{"2": {"label": "donator", "atom_type": "Cs"}, "6": {"label": "d_hydrogen", "atom_type": "H0"}}

>  <type>  (1) 
r1h

$$$$

     RDKit          3D

  6  5  0  0  0  0  0  0  0  0999 V2000
   -0.7309   -0.0987    0.0327 C   0  0  0  0  0  0  0  0  0  0  0  0
    0.6208    0.0065   -0.0096 C   0  0  0  0  0  0  0  0  0  0  0  0
    1.6572   -1.2972    0.2837 S   0  0  0  0  0  1  0  0  0  0  0  0
   -1.3651    0.7588   -0.1608 H   0  0  0  0  0  0  0  0  0  0  0  0
   -1.2044   -1.0453    0.2616 H   0  0  0  0  0  0  0  0  0  0  0  0
    1.0609    0.9725   -0.2426 H   0  0  0  0  0  0  0  0  0  0  0  0
  1  2  2  3
  1  4  1  0
  1  5  1  0
  2  3  1  0
  2  6  1  0
M  RAD  1   3   2
M  END
>  <reaction>  (2) 
rxn_1370

>  <mol_properties>  (2) 
{"0": {"label": "acceptor", "atom_type": "Cs"}}

>  <type>  (2) 
r2

$$$$

     RDKit          3D

  7  6  0  0  0  0  0  0  0  0999 V2000
   -0.6782    0.0507    0.0301 C   0  0  0  0  0  0  0  0  0  0  0  0
    0.8092    0.0996    0.0213 C   0  0  0  0  0  0  0  0  0  0  0  0
    1.7473    0.7521    1.1507 S   0  0  0  0  0  0  0  0  0  0  0  0
   -1.0667    0.5456   -0.8653 H   0  0  0  0  0  0  0  0  0  0  0  0
   -1.0112   -0.9904   -0.0239 H   0  0  0  0  0  0  0  0  0  0  0  0
   -1.0920    0.5225    0.9188 H   0  0  0  0  0  0  0  0  0  0  0  0
    1.2740   -0.3620   -0.8520 H   0  0  0  0  0  0  0  0  0  0  0  0
  1  2  1  0
  1  4  1  0
  1  5  1  0
  1  6  1  0
  2  3  2  0
  2  7  1  0
M  END
>  <reaction>  (3) 
rxn_1370

>  <mol_properties>  (3) 
{"0": {"label": "a_hydrogen", "atom_type": "H0"}, "1": {"label": "acceptor", "atom_type": "Cs"}}

>  <type>  (3) 
r2h

$$$$

     RDKit          3D

 15 13  0  0  0  0  0  0  0  0999 V2000
   -0.8052   -0.9848   -2.2346 C   0  0  0  0  0  0  0  0  0  0  0  0
   -1.0014   -1.1699   -1.0646 C   0  0  0  0  0  0  0  0  0  0  0  0
   -1.1256   -1.2948    0.3482 C   0  0  0  0  0  3  0  0  0  0  0  0
   -2.3800   -0.9816    0.9556 C   0  0  0  0  0  0  0  0  0  0  0  0
   -3.4049   -0.6792    1.5013 C   0  0  0  0  0  0  0  0  0  0  0  0
   -0.6454   -0.8456   -3.2771 H   0  0  0  0  0  0  0  0  0  0  0  0
   -0.2769   -0.3060    0.7693 H   0  0  0  0  0  0  0  0  0  0  0  0
   -0.6247   -2.1645    0.7699 H   0  0  0  0  0  0  0  0  0  0  0  0
   -4.3244   -0.4271    1.9729 H   0  0  0  0  0  0  0  0  0  0  0  0
    0.5501    0.6591    1.1746 C   0  0  0  0  0  0  0  0  0  0  0  0
    1.1142    1.1571   -0.0373 C   0  0  0  0  0  0  0  0  0  0  0  0
    2.5154    0.6320   -0.7020 S   0  0  0  0  0  0  0  0  0  0  0  0
   -0.1750    1.2908    1.6833 H   0  0  0  0  0  0  0  0  0  0  0  0
    1.2141    0.0948    1.8232 H   0  0  0  0  0  0  0  0  0  0  0  0
    0.5290    1.9083   -0.5656 H   0  0  0  0  0  0  0  0  0  0  0  0
  1  2  3  0
  1  6  1  0
  2  3  1  0
  3  4  1  0
  3  8  1  0
  4  5  3  0
  5  9  1  0
  7 10  1  0
 10 11  1  0
 10 13  1  0
 10 14  1  0
 11 12  2  0
 11 15  1  0
M  RAD  1   3   2
M  END
>  <reaction>  (4) 
rxn_1370

>  <mol_properties>  (4) 
{"1": {"label": "*4", "atom_type": "Ct"}, "2": {"label": "*3", "atom_type": "Cs"}, "6": {"label": "*2", "atom_type": "H0"}, "9": {"label": "*1", "atom_type": "Cs"}, "10": {"label": "*0", "atom_type": "CS"}}

>  <type>  (4) 
ts

$$$$

     RDKit          3D

 15 13  0  0  0  0  0  0  0  0999 V2000
   -0.3247   -1.6851   -3.2198 C   0  0  0  0  0  0  0  0  0  0  0  0
   -0.3247   -1.6851   -2.0243 C   0  0  0  0  0  0  0  0  0  0  0  0
   -0.3247   -1.6851   -0.5613 C   0  0  0  0  0  0  0  0  0  0  0  0
   -1.6387   -1.4095    0.0199 C   0  0  0  0  0  0  0  0  0  0  0  0
   -2.7124   -1.1843    0.4948 C   0  0  0  0  0  0  0  0  0  0  0  0
   -0.3247   -1.6851   -4.2833 H   0  0  0  0  0  0  0  0  0  0  0  0
    0.5335   -0.7907   -0.1303 H   0  0  0  0  0  0  0  0  0  0  0  0
    0.0307   -2.6550   -0.2021 H   0  0  0  0  0  0  0  0  0  0  0  0
   -3.6676   -0.9840    0.9172 H   0  0  0  0  0  0  0  0  0  0  0  0
    1.3922    0.1043    0.3011 C   0  0  0  0  0  0  0  0  0  0  0  0
    0.6828    1.1187    1.1270 C   0  0  0  0  0  0  0  0  0  0  0  0
    1.2144    2.5902    1.4925 S   0  0  0  0  0  1  0  0  0  0  0  0
    1.5373   -0.8089    0.8864 H   0  0  0  0  0  0  0  0  0  0  0  0
    2.3542    0.4715   -0.0501 H   0  0  0  0  0  0  0  0  0  0  0  0
   -0.2900    0.7978    1.5044 H   0  0  0  0  0  0  0  0  0  0  0  0
  1  2  3  0
  1  6  1  0
  2  3  1  0
  3  4  1  0
  3  7  1  0
  3  8  1  0
  4  5  3  0
  5  9  1  0
 10 11  2  3
 10 13  1  0
 10 14  1  0
 11 12  1  0
 11 15  1  0
M  RAD  1  12   2
M  END
>  <reaction>  (5) 
rxn_1370

>  <mol_properties>  (5) 
{"1": {"label": "*4", "atom_type": "Ct"}, "2": {"label": "*3", "atom_type": "Cs"}, "6": {"label": "*2", "atom_type": "H0"}, "9": {"label": "*1", "atom_type": "Cs"}, "10": {"label": "*0", "atom_type": "CS"}}

>  <type>  (5) 
unop_1

>  <geom_source>  (5) 
Heuristics

$$$$

     RDKit          3D

 15 13  0  0  0  0  0  0  0  0999 V2000
   -0.8232   -1.5473   -2.3493 C   0  0  0  0  0  0  0  0  0  0  0  0
   -0.8232   -1.5473   -1.1538 C   0  0  0  0  0  0  0  0  0  0  0  0
   -0.8232   -1.5473    0.3092 C   0  0  0  0  0  0  0  0  0  0  0  0
   -2.1372   -1.2717    0.8904 C   0  0  0  0  0  0  0  0  0  0  0  0
   -3.2110   -1.0465    1.3653 C   0  0  0  0  0  0  0  0  0  0  0  0
   -0.8232   -1.5473   -3.4128 H   0  0  0  0  0  0  0  0  0  0  0  0
    0.0349   -0.6529    0.7403 H   0  0  0  0  0  0  0  0  0  0  0  0
   -0.4679   -2.5171    0.6684 H   0  0  0  0  0  0  0  0  0  0  0  0
   -4.1662   -0.8461    1.7877 H   0  0  0  0  0  0  0  0  0  0  0  0
    0.8937    0.2422    1.1716 C   0  0  0  0  0  0  0  0  0  0  0  0
    0.9901    1.3552    0.1885 C   0  0  0  0  0  0  0  0  0  0  0  0
    2.3313    2.1199   -0.2559 S   0  0  0  0  0  1  0  0  0  0  0  0
    0.2153    0.5263    1.9820 H   0  0  0  0  0  0  0  0  0  0  0  0
    1.8668   -0.0186    1.5823 H   0  0  0  0  0  0  0  0  0  0  0  0
    0.0379    1.6550   -0.2534 H   0  0  0  0  0  0  0  0  0  0  0  0
  1  2  3  0
  1  6  1  0
  2  3  1  0
  3  4  1  0
  3  7  1  0
  3  8  1  0
  4  5  3  0
  5  9  1  0
 10 11  2  3
 10 13  1  0
 10 14  1  0
 11 12  1  0
 11 15  1  0
M  RAD  1  12   2
M  END
>  <reaction>  (6) 
rxn_1370

>  <mol_properties>  (6) 
{"1": {"label": "*4", "atom_type": "Ct"}, "2": {"label": "*3", "atom_type": "Cs"}, "6": {"label": "*2", "atom_type": "H0"}, "9": {"label": "*1", "atom_type": "Cs"}, "10": {"label": "*0", "atom_type": "CS"}}

>  <type>  (6) 
unop_2

>  <geom_source>  (6) 
Heuristics

$$$$

     RDKit          3D

 15 13  0  0  0  0  0  0  0  0999 V2000
   -0.3535   -1.5125   -3.4467 C   0  0  0  0  0  0  0  0  0  0  0  0
   -0.3535   -1.5125   -2.2512 C   0  0  0  0  0  0  0  0  0  0  0  0
   -0.3535   -1.5125   -0.7882 C   0  0  0  0  0  0  0  0  0  0  0  0
   -1.6675   -1.2369   -0.2071 C   0  0  0  0  0  0  0  0  0  0  0  0
   -2.7412   -1.0117    0.2678 C   0  0  0  0  0  0  0  0  0  0  0  0
   -0.3535   -1.5125   -4.5102 H   0  0  0  0  0  0  0  0  0  0  0  0
    0.5047   -0.6181   -0.3572 H   0  0  0  0  0  0  0  0  0  0  0  0
    0.0019   -2.4824   -0.4290 H   0  0  0  0  0  0  0  0  0  0  0  0
   -3.6964   -0.8113    0.6903 H   0  0  0  0  0  0  0  0  0  0  0  0
    1.3634    0.2769    0.0742 C   0  0  0  0  0  0  0  0  0  0  0  0
    0.9076    0.8144    1.3849 C   0  0  0  0  0  0  0  0  0  0  0  0
    1.1782    2.2922    1.9544 S   0  0  0  0  0  1  0  0  0  0  0  0
    1.9815   -0.6114    0.2370 H   0  0  0  0  0  0  0  0  0  0  0  0
    1.9262    1.0167   -0.4913 H   0  0  0  0  0  0  0  0  0  0  0  0
    0.3369    0.1089    1.9918 H   0  0  0  0  0  0  0  0  0  0  0  0
  1  2  3  0
  1  6  1  0
  2  3  1  0
  3  4  1  0
  3  7  1  0
  3  8  1  0
  4  5  3  0
  5  9  1  0
 10 11  2  3
 10 13  1  0
 10 14  1  0
 11 12  1  0
 11 15  1  0
M  RAD  1  12   2
M  END
>  <reaction>  (7) 
rxn_1370

>  <mol_properties>  (7) 
{"1": {"label": "*4", "atom_type": "Ct"}, "2": {"label": "*3", "atom_type": "Cs"}, "6": {"label": "*2", "atom_type": "H0"}, "9": {"label": "*1", "atom_type": "Cs"}, "10": {"label": "*0", "atom_type": "CS"}}

>  <type>  (7) 
unop_3

>  <geom_source>  (7) 
Heuristics

$$$$

     RDKit          3D

 15 13  0  0  0  0  0  0  0  0999 V2000
   -1.2242   -0.5851   -2.8289 C   0  0  0  0  0  0  0  0  0  0  0  0
   -1.2242   -0.5851   -1.6334 C   0  0  0  0  0  0  0  0  0  0  0  0
   -1.2242   -0.5851   -0.1704 C   0  0  0  0  0  0  0  0  0  0  0  0
   -2.5382   -0.3095    0.4107 C   0  0  0  0  0  0  0  0  0  0  0  0
   -3.6120   -0.0843    0.8856 C   0  0  0  0  0  0  0  0  0  0  0  0
   -1.2242   -0.5851   -3.8924 H   0  0  0  0  0  0  0  0  0  0  0  0
   -0.3660    0.3093    0.2606 H   0  0  0  0  0  0  0  0  0  0  0  0
   -0.8688   -1.5549    0.1888 H   0  0  0  0  0  0  0  0  0  0  0  0
   -4.5671    0.1161    1.3081 H   0  0  0  0  0  0  0  0  0  0  0  0
    0.4927    1.2044    0.6920 C   0  0  0  0  0  0  0  0  0  0  0  0
    1.8544    0.8698    0.1936 C   0  0  0  0  0  0  0  0  0  0  0  0
    2.9394   -0.0548    0.9348 S   0  0  0  0  0  1  0  0  0  0  0  0
    0.3899    2.2906    0.7771 H   0  0  0  0  0  0  0  0  0  0  0  0
    0.2903    0.7402    1.6549 H   0  0  0  0  0  0  0  0  0  0  0  0
    2.1066    1.3126   -0.7718 H   0  0  0  0  0  0  0  0  0  0  0  0
  1  2  3  0
  1  6  1  0
  2  3  1  0
  3  4  1  0
  3  7  1  0
  3  8  1  0
  4  5  3  0
  5  9  1  0
 10 11  2  3
 10 13  1  0
 10 14  1  0
 11 12  1  0
 11 15  1  0
M  RAD  1  12   2
M  END
>  <reaction>  (8) 
rxn_1370

>  <mol_properties>  (8) 
{"1": {"label": "*4", "atom_type": "Ct"}, "2": {"label": "*3", "atom_type": "Cs"}, "6": {"label": "*2", "atom_type": "H0"}, "9": {"label": "*1", "atom_type": "Cs"}, "10": {"label": "*0", "atom_type": "CS"}}

>  <type>  (8) 
unop_4

>  <geom_source>  (8) 
Heuristics

$$$$

     RDKit          3D

 15 13  0  0  0  0  0  0  0  0999 V2000
   -0.3732   -1.2663   -3.6055 C   0  0  0  0  0  0  0  0  0  0  0  0
   -0.3732   -1.2663   -2.4100 C   0  0  0  0  0  0  0  0  0  0  0  0
   -0.3732   -1.2663   -0.9470 C   0  0  0  0  0  0  0  0  0  0  0  0
   -1.6873   -0.9907   -0.3659 C   0  0  0  0  0  0  0  0  0  0  0  0
   -2.7610   -0.7655    0.1090 C   0  0  0  0  0  0  0  0  0  0  0  0
   -0.3732   -1.2663   -4.6690 H   0  0  0  0  0  0  0  0  0  0  0  0
    0.4849   -0.3719   -0.5160 H   0  0  0  0  0  0  0  0  0  0  0  0
   -0.0179   -2.2362   -0.5878 H   0  0  0  0  0  0  0  0  0  0  0  0
   -3.7162   -0.5652    0.5315 H   0  0  0  0  0  0  0  0  0  0  0  0
    1.3437    0.5231   -0.0847 C   0  0  0  0  0  0  0  0  0  0  0  0
    1.3510    0.5307    1.4035 C   0  0  0  0  0  0  0  0  0  0  0  0
    1.0345    1.7890    2.3511 S   0  0  0  0  0  1  0  0  0  0  0  0
    2.3255    0.2120   -0.4547 H   0  0  0  0  0  0  0  0  0  0  0  0
    1.0909    1.4999   -0.4917 H   0  0  0  0  0  0  0  0  0  0  0  0
    1.5995   -0.4285    1.8616 H   0  0  0  0  0  0  0  0  0  0  0  0
  1  2  3  0
  1  6  1  0
  2  3  1  0
  3  4  1  0
  3  7  1  0
  3  8  1  0
  4  5  3  0
  5  9  1  0
 10 11  2  3
 10 13  1  0
 10 14  1  0
 11 12  1  0
 11 15  1  0
M  RAD  1  12   2
M  END
>  <reaction>  (9) 
rxn_1370

>  <mol_properties>  (9) 
{"1": {"label": "*4", "atom_type": "Ct"}, "2": {"label": "*3", "atom_type": "Cs"}, "6": {"label": "*2", "atom_type": "H0"}, "9": {"label": "*1", "atom_type": "Cs"}, "10": {"label": "*0", "atom_type": "CS"}}

>  <type>  (9) 
unop_5

>  <geom_source>  (9) 
Heuristics

$$$$

     RDKit          3D

 15 13  0  0  0  0  0  0  0  0999 V2000
   -1.0663   -0.4965   -3.2061 C   0  0  0  0  0  0  0  0  0  0  0  0
   -1.0663   -0.4965   -2.0106 C   0  0  0  0  0  0  0  0  0  0  0  0
   -1.0663   -0.4965   -0.5476 C   0  0  0  0  0  0  0  0  0  0  0  0
   -2.3803   -0.2208    0.0336 C   0  0  0  0  0  0  0  0  0  0  0  0
   -3.4541    0.0044    0.5085 C   0  0  0  0  0  0  0  0  0  0  0  0
   -1.0663   -0.4965   -4.2696 H   0  0  0  0  0  0  0  0  0  0  0  0
   -0.2081    0.3979   -0.1166 H   0  0  0  0  0  0  0  0  0  0  0  0
   -0.7109   -1.4663   -0.1884 H   0  0  0  0  0  0  0  0  0  0  0  0
   -4.4092    0.2047    0.9309 H   0  0  0  0  0  0  0  0  0  0  0  0
    0.6506    1.2930    0.3148 C   0  0  0  0  0  0  0  0  0  0  0  0
    1.9885    0.6622    0.4786 C   0  0  0  0  0  0  0  0  0  0  0  0
    2.4927   -0.1862    1.7464 S   0  0  0  0  0  1  0  0  0  0  0  0
    0.7694    2.3695    0.1575 H   0  0  0  0  0  0  0  0  0  0  0  0
    0.0131    1.1167    1.1786 H   0  0  0  0  0  0  0  0  0  0  0  0
    2.6671    0.8107   -0.3635 H   0  0  0  0  0  0  0  0  0  0  0  0
  1  2  3  0
  1  6  1  0
  2  3  1  0
  3  4  1  0
  3  7  1  0
  3  8  1  0
  4  5  3  0
  5  9  1  0
 10 11  2  3
 10 13  1  0
 10 14  1  0
 11 12  1  0
 11 15  1  0
M  RAD  1  12   2
M  END
>  <reaction>  (10) 
rxn_1370

>  <mol_properties>  (10) 
{"1": {"label": "*4", "atom_type": "Ct"}, "2": {"label": "*3", "atom_type": "Cs"}, "6": {"label": "*2", "atom_type": "H0"}, "9": {"label": "*1", "atom_type": "Cs"}, "10": {"label": "*0", "atom_type": "CS"}}

>  <type>  (10) 
unop_6

>  <geom_source>  (10) 
Heuristics

$$$$

     RDKit          3D

 15 13  0  0  0  0  0  0  0  0999 V2000
   -0.7983   -0.6016   -3.5207 C   0  0  0  0  0  0  0  0  0  0  0  0
   -0.7983   -0.6016   -2.3252 C   0  0  0  0  0  0  0  0  0  0  0  0
   -0.7983   -0.6016   -0.8622 C   0  0  0  0  0  0  0  0  0  0  0  0
   -2.1123   -0.3260   -0.2810 C   0  0  0  0  0  0  0  0  0  0  0  0
   -3.1861   -0.1008    0.1939 C   0  0  0  0  0  0  0  0  0  0  0  0
   -0.7983   -0.6016   -4.5842 H   0  0  0  0  0  0  0  0  0  0  0  0
    0.0599    0.2928   -0.4312 H   0  0  0  0  0  0  0  0  0  0  0  0
   -0.4429   -1.5714   -0.5030 H   0  0  0  0  0  0  0  0  0  0  0  0
   -4.1412    0.0996    0.6163 H   0  0  0  0  0  0  0  0  0  0  0  0
    0.9186    1.1879    0.0002 C   0  0  0  0  0  0  0  0  0  0  0  0
    1.9615    0.5210    0.8262 C   0  0  0  0  0  0  0  0  0  0  0  0
    1.8411    0.1324    2.3805 S   0  0  0  0  0  1  0  0  0  0  0  0
    1.3182    2.1190   -0.4134 H   0  0  0  0  0  0  0  0  0  0  0  0
    0.0207    1.3984    0.5773 H   0  0  0  0  0  0  0  0  0  0  0  0
    2.8844    0.2880    0.2916 H   0  0  0  0  0  0  0  0  0  0  0  0
  1  2  3  0
  1  6  1  0
  2  3  1  0
  3  4  1  0
  3  7  1  0
  3  8  1  0
  4  5  3  0
  5  9  1  0
 10 11  2  3
 10 13  1  0
 10 14  1  0
 11 12  1  0
 11 15  1  0
M  RAD  1  12   2
M  END
>  <reaction>  (11) 
rxn_1370

>  <mol_properties>  (11) 
{"1": {"label": "*4", "atom_type": "Ct"}, "2": {"label": "*3", "atom_type": "Cs"}, "6": {"label": "*2", "atom_type": "H0"}, "9": {"label": "*1", "atom_type": "Cs"}, "10": {"label": "*0", "atom_type": "CS"}}

>  <type>  (11) 
unop_7

>  <geom_source>  (11) 
Heuristics

$$$$

     RDKit          3D

 15 13  0  0  0  0  0  0  0  0999 V2000
   -0.3755   -1.7877   -2.9055 C   0  0  0  0  0  0  0  0  0  0  0  0
   -0.3755   -1.7877   -1.7100 C   0  0  0  0  0  0  0  0  0  0  0  0
   -0.3755   -1.7877   -0.2470 C   0  0  0  0  0  0  0  0  0  0  0  0
   -1.6896   -1.5121    0.3342 C   0  0  0  0  0  0  0  0  0  0  0  0
   -2.7633   -1.2869    0.8091 C   0  0  0  0  0  0  0  0  0  0  0  0
   -0.3755   -1.7877   -3.9690 H   0  0  0  0  0  0  0  0  0  0  0  0
    0.4826   -0.8933    0.1840 H   0  0  0  0  0  0  0  0  0  0  0  0
   -0.0202   -2.7575    0.1122 H   0  0  0  0  0  0  0  0  0  0  0  0
   -3.7185   -1.0865    1.2315 H   0  0  0  0  0  0  0  0  0  0  0  0
    1.3414    0.0018    0.6154 C   0  0  0  0  0  0  0  0  0  0  0  0
    0.6558    1.3124    0.7792 C   0  0  0  0  0  0  0  0  0  0  0  0
    1.3620    2.7533    0.8594 S   0  0  0  0  0  1  0  0  0  0  0  0
    1.0888   -0.6519    1.4560 H   0  0  0  0  0  0  0  0  0  0  0  0
    2.4213    0.1168    0.5518 H   0  0  0  0  0  0  0  0  0  0  0  0
   -0.4320    1.2508    0.8481 H   0  0  0  0  0  0  0  0  0  0  0  0
  1  2  3  0
  1  6  1  0
  2  3  1  0
  3  4  1  0
  3  7  1  0
  3  8  1  0
  4  5  3  0
  5  9  1  0
 10 11  2  3
 10 13  1  0
 10 14  1  0
 11 12  1  0
 11 15  1  0
M  RAD  1  12   2
M  END
>  <reaction>  (12) 
rxn_1370

>  <mol_properties>  (12) 
{"1": {"label": "*4", "atom_type": "Ct"}, "2": {"label": "*3", "atom_type": "Cs"}, "6": {"label": "*2", "atom_type": "H0"}, "9": {"label": "*1", "atom_type": "Cs"}, "10": {"label": "*0", "atom_type": "CS"}}

>  <type>  (12) 
unop_8

>  <geom_source>  (12) 
Heuristics

$$$$

     RDKit          3D

 15 13  0  0  0  0  0  0  0  0999 V2000
   -1.2330   -0.8430   -2.4980 C   0  0  0  0  0  0  0  0  0  0  0  0
   -1.2330   -0.8430   -1.3025 C   0  0  0  0  0  0  0  0  0  0  0  0
   -1.2330   -0.8430    0.1605 C   0  0  0  0  0  0  0  0  0  0  0  0
   -2.5471   -0.5674    0.7416 C   0  0  0  0  0  0  0  0  0  0  0  0
   -3.6208   -0.3422    1.2165 C   0  0  0  0  0  0  0  0  0  0  0  0
   -1.2330   -0.8430   -3.5615 H   0  0  0  0  0  0  0  0  0  0  0  0
   -0.3749    0.0514    0.5915 H   0  0  0  0  0  0  0  0  0  0  0  0
   -0.8777   -1.8129    0.5197 H   0  0  0  0  0  0  0  0  0  0  0  0
   -4.5760   -0.1419    1.6390 H   0  0  0  0  0  0  0  0  0  0  0  0
    0.4838    0.9464    1.0228 C   0  0  0  0  0  0  0  0  0  0  0  0
    1.5920    1.0888    0.0398 C   0  0  0  0  0  0  0  0  0  0  0  0
    3.0753    0.4883    0.1830 S   0  0  0  0  0  1  0  0  0  0  0  0
    0.1448    1.9376    1.3394 H   0  0  0  0  0  0  0  0  0  0  0  0
    0.7881    0.3678    1.8925 H   0  0  0  0  0  0  0  0  0  0  0  0
    1.3365    1.6627   -0.8530 H   0  0  0  0  0  0  0  0  0  0  0  0
  1  2  3  0
  1  6  1  0
  2  3  1  0
  3  4  1  0
  3  7  1  0
  3  8  1  0
  4  5  3  0
  5  9  1  0
 10 11  2  3
 10 13  1  0
 10 14  1  0
 11 12  1  0
 11 15  1  0
M  RAD  1  12   2
M  END
>  <reaction>  (13) 
rxn_1370

>  <mol_properties>  (13) 
{"1": {"label": "*4", "atom_type": "Ct"}, "2": {"label": "*3", "atom_type": "Cs"}, "6": {"label": "*2", "atom_type": "H0"}, "9": {"label": "*1", "atom_type": "Cs"}, "10": {"label": "*0", "atom_type": "CS"}}

>  <type>  (13) 
unop_9

>  <geom_source>  (13) 
Heuristics

$$$$

     RDKit          3D

 15 13  0  0  0  0  0  0  0  0999 V2000
   -0.5532   -1.7535   -2.5780 C   0  0  0  0  0  0  0  0  0  0  0  0
   -0.5532   -1.7535   -1.3825 C   0  0  0  0  0  0  0  0  0  0  0  0
   -0.5532   -1.7535    0.0805 C   0  0  0  0  0  0  0  0  0  0  0  0
   -1.8672   -1.4779    0.6617 C   0  0  0  0  0  0  0  0  0  0  0  0
   -2.9410   -1.2527    1.1366 C   0  0  0  0  0  0  0  0  0  0  0  0
   -0.5532   -1.7535   -3.6415 H   0  0  0  0  0  0  0  0  0  0  0  0
    0.3049   -0.8591    0.5116 H   0  0  0  0  0  0  0  0  0  0  0  0
   -0.1978   -2.7234    0.4397 H   0  0  0  0  0  0  0  0  0  0  0  0
   -3.8962   -1.0524    1.5590 H   0  0  0  0  0  0  0  0  0  0  0  0
    1.1637    0.0359    0.9429 C   0  0  0  0  0  0  0  0  0  0  0  0
    0.7731    1.3826    0.4446 C   0  0  0  0  0  0  0  0  0  0  0  0
    1.7570    2.6279    0.1943 S   0  0  0  0  0  1  0  0  0  0  0  0
    0.6125   -0.1895    1.8611 H   0  0  0  0  0  0  0  0  0  0  0  0
    2.2332   -0.0297    1.1316 H   0  0  0  0  0  0  0  0  0  0  0  0
   -0.2928    1.4999    0.2397 H   0  0  0  0  0  0  0  0  0  0  0  0
  1  2  3  0
  1  6  1  0
  2  3  1  0
  3  4  1  0
  3  7  1  0
  3  8  1  0
  4  5  3  0
  5  9  1  0
 10 11  2  3
 10 13  1  0
 10 14  1  0
 11 12  1  0
 11 15  1  0
M  RAD  1  12   2
M  END
>  <reaction>  (14) 
rxn_1370

>  <mol_properties>  (14) 
{"1": {"label": "*4", "atom_type": "Ct"}, "2": {"label": "*3", "atom_type": "Cs"}, "6": {"label": "*2", "atom_type": "H0"}, "9": {"label": "*1", "atom_type": "Cs"}, "10": {"label": "*0", "atom_type": "CS"}}

>  <type>  (14) 
unop_10

>  <geom_source>  (14) 
Heuristics

$$$$

     RDKit          3D

 15 13  0  0  0  0  0  0  0  0999 V2000
   -0.5123   -0.8933   -3.6700 C   0  0  0  0  0  0  0  0  0  0  0  0
   -0.5123   -0.8933   -2.4745 C   0  0  0  0  0  0  0  0  0  0  0  0
   -0.5123   -0.8933   -1.0115 C   0  0  0  0  0  0  0  0  0  0  0  0
   -1.8263   -0.6177   -0.4303 C   0  0  0  0  0  0  0  0  0  0  0  0
   -2.9000   -0.3925    0.0446 C   0  0  0  0  0  0  0  0  0  0  0  0
   -0.5123   -0.8933   -4.7335 H   0  0  0  0  0  0  0  0  0  0  0  0
    0.3459    0.0011   -0.5804 H   0  0  0  0  0  0  0  0  0  0  0  0
   -0.1569   -1.8632   -0.6523 H   0  0  0  0  0  0  0  0  0  0  0  0
   -3.8552   -0.1922    0.4670 H   0  0  0  0  0  0  0  0  0  0  0  0
    1.2046    0.8961   -0.1491 C   0  0  0  0  0  0  0  0  0  0  0  0
    1.7605    0.4629    1.1616 C   0  0  0  0  0  0  0  0  0  0  0  0
    1.2134    0.8809    2.6132 S   0  0  0  0  0  1  0  0  0  0  0  0
    1.9824    1.4042   -0.7275 H   0  0  0  0  0  0  0  0  0  0  0  0
    0.3489    1.5565   -0.0258 H   0  0  0  0  0  0  0  0  0  0  0  0
    2.6229   -0.2028    1.0918 H   0  0  0  0  0  0  0  0  0  0  0  0
  1  2  3  0
  1  6  1  0
  2  3  1  0
  3  4  1  0
  3  7  1  0
  3  8  1  0
  4  5  3  0
  5  9  1  0
 10 11  2  3
 10 13  1  0
 10 14  1  0
 11 12  1  0
 11 15  1  0
M  RAD  1  12   2
M  END
>  <reaction>  (15) 
rxn_1370

>  <mol_properties>  (15) 
{"1": {"label": "*4", "atom_type": "Ct"}, "2": {"label": "*3", "atom_type": "Cs"}, "6": {"label": "*2", "atom_type": "H0"}, "9": {"label": "*1", "atom_type": "Cs"}, "10": {"label": "*0", "atom_type": "CS"}}

>  <type>  (15) 
unop_11

>  <geom_source>  (15) 
Heuristics

$$$$

     RDKit          3D

 15 13  0  0  0  0  0  0  0  0999 V2000
   -1.0853   -1.2046   -2.3159 C   0  0  0  0  0  0  0  0  0  0  0  0
   -1.0853   -1.2046   -1.1204 C   0  0  0  0  0  0  0  0  0  0  0  0
   -1.0853   -1.2046    0.3426 C   0  0  0  0  0  0  0  0  0  0  0  0
   -2.3994   -0.9290    0.9238 C   0  0  0  0  0  0  0  0  0  0  0  0
   -3.4731   -0.7038    1.3987 C   0  0  0  0  0  0  0  0  0  0  0  0
   -1.0853   -1.2046   -3.3794 H   0  0  0  0  0  0  0  0  0  0  0  0
   -0.2272   -0.3102    0.7736 H   0  0  0  0  0  0  0  0  0  0  0  0
   -0.7300   -2.1745    0.7018 H   0  0  0  0  0  0  0  0  0  0  0  0
   -4.4283   -0.5035    1.8211 H   0  0  0  0  0  0  0  0  0  0  0  0
    0.6315    0.5848    1.2050 C   0  0  0  0  0  0  0  0  0  0  0  0
    1.2765    1.2571    0.0445 C   0  0  0  0  0  0  0  0  0  0  0  0
    2.8510    1.3100   -0.2712 S   0  0  0  0  0  1  0  0  0  0  0  0
    0.0531    1.3164    1.7776 H   0  0  0  0  0  0  0  0  0  0  0  0
    1.3639    0.1080    1.8530 H   0  0  0  0  0  0  0  0  0  0  0  0
    0.5824    1.7518   -0.6375 H   0  0  0  0  0  0  0  0  0  0  0  0
  1  2  3  0
  1  6  1  0
  2  3  1  0
  3  4  1  0
  3  7  1  0
  3  8  1  0
  4  5  3  0
  5  9  1  0
 10 11  2  3
 10 13  1  0
 10 14  1  0
 11 12  1  0
 11 15  1  0
M  RAD  1  12   2
M  END
>  <reaction>  (16) 
rxn_1370

>  <mol_properties>  (16) 
{"1": {"label": "*4", "atom_type": "Ct"}, "2": {"label": "*3", "atom_type": "Cs"}, "6": {"label": "*2", "atom_type": "H0"}, "9": {"label": "*1", "atom_type": "Cs"}, "10": {"label": "*0", "atom_type": "CS"}}

>  <type>  (16) 
unop_12

>  <geom_source>  (16) 
Heuristics

$$$$

     RDKit          3D

 15 13  0  0  0  0  0  0  0  0999 V2000
    4.0202    0.1672    0.1278 S   0  0  0  0  0  0  0  0  0  0  0  0
    1.5591    0.3709   -0.5032 C   0  0  0  0  0  0  0  0  0  0  0  0
    2.6681   -0.3028    0.2415 C   0  0  0  0  0  0  0  0  0  0  0  0
   -0.8003   -0.2925    0.4390 C   0  0  0  0  0  3  0  0  0  0  0  0
   -1.7130   -1.2356   -0.2103 C   0  0  0  0  0  0  0  0  0  0  0  0
   -1.4110    1.0375    0.4817 C   0  0  0  0  0  0  0  0  0  0  0  0
   -2.4631   -2.0136   -0.7449 C   0  0  0  0  0  0  0  0  0  0  0  0
   -1.9122    2.1335    0.5176 C   0  0  0  0  0  0  0  0  0  0  0  0
    1.7433    0.3199   -1.5978 H   0  0  0  0  0  0  0  0  0  0  0  0
    1.4745    1.4336   -0.1899 H   0  0  0  0  0  0  0  0  0  0  0  0
    0.4454   -0.2257   -0.2439 H   0  0  0  0  0  0  0  0  0  0  0  0
    2.4502   -1.1561    0.8749 H   0  0  0  0  0  0  0  0  0  0  0  0
   -0.5871   -0.6355    1.4724 H   0  0  0  0  0  0  0  0  0  0  0  0
   -3.1216   -2.6964   -1.2141 H   0  0  0  0  0  0  0  0  0  0  0  0
   -2.3523    3.0955    0.5491 H   0  0  0  0  0  0  0  0  0  0  0  0
  1  3  2  0
  2  3  1  0
  2  9  1  0
  2 10  1  0
  2 11  1  0
  3 12  1  0
  4  5  1  0
  4  6  1  0
  4 13  1  0
  5  7  3  0
  6  8  3  0
  7 14  1  0
  8 15  1  0
M  RAD  1   4   2
M  END
>  <reaction>  (17) 
rxn_1370

>  <mol_properties>  (17) 
{"1": {"label": "*4", "atom_type": "Ct"}, "2": {"label": "*3", "atom_type": "Cs"}, "6": {"label": "*2", "atom_type": "H0"}, "9": {"label": "*1", "atom_type": "Cs"}, "10": {"label": "*0", "atom_type": "CS"}}

>  <type>  (17) 
unop_13

>  <geom_source>  (17) 
AutoTST

$$$$
