
     RDKit          3D

  9  8  0  0  0  0  0  0  0  0999 V2000
   -0.8818   -0.3578    0.1297 C   0  0  0  0  0  0  0  0  0  0  0  0
    0.6153   -0.3021   -0.1188 C   0  0  0  0  0  0  0  0  0  0  0  0
    1.5354   -1.7170    0.5545 S   0  0  0  0  0  0  0  0  0  0  0  0
   -1.1018   -0.3317    1.1984 H   0  0  0  0  0  0  0  0  0  0  0  0
   -1.3114   -1.2723   -0.2799 H   0  0  0  0  0  0  0  0  0  0  0  0
   -1.3767    0.4976   -0.3363 H   0  0  0  0  0  0  0  0  0  0  0  0
    1.0467    0.6194    0.2718 H   0  0  0  0  0  0  0  0  0  0  0  0
    0.8295   -0.3275   -1.1882 H   0  0  0  0  0  0  0  0  0  0  0  0
    1.2306   -1.5077    1.8423 H   0  0  0  0  0  0  0  0  0  0  0  0
  1  2  1  0
  1  4  1  0
  1  5  1  0
  1  6  1  0
  2  3  1  0
  2  7  1  0
  2  8  1  0
  3  9  1  0
M  END
>  <reaction>  (1) 
rxn_1896

>  <mol_properties>  (1) 
{"1": {"label": "donator", "atom_type": "Cs"}, "6": {"label": "d_hydrogen", "atom_type": "H0"}}

>  <type>  (1) 
r1h

$$$$

     RDKit          3D

 10  9  0  0  0  0  0  0  0  0999 V2000
   -1.3354   -0.2069    0.0525 C   0  0  0  0  0  0  0  0  0  0  0  0
    0.0851    0.2624    0.0266 C   0  0  0  0  0  0  0  0  0  0  0  0
    0.4841    1.3876    0.7359 C   0  0  0  0  0  0  0  0  0  0  0  0
    2.0191    2.0303    0.8057 S   0  0  0  0  0  1  0  0  0  0  0  0
    1.1566   -0.6823   -0.9297 S   0  0  0  0  0  0  0  0  0  0  0  0
   -1.7589   -0.2174   -0.9545 H   0  0  0  0  0  0  0  0  0  0  0  0
   -1.4004   -1.2253    0.4427 H   0  0  0  0  0  0  0  0  0  0  0  0
   -1.9442    0.4442    0.6783 H   0  0  0  0  0  0  0  0  0  0  0  0
   -0.3073    1.8814    1.2951 H   0  0  0  0  0  0  0  0  0  0  0  0
    2.2383    0.0827   -0.6554 H   0  0  0  0  0  0  0  0  0  0  0  0
  1  2  1  0
  1  6  1  0
  1  7  1  0
  1  8  1  0
  2  3  2  3
  2  5  1  0
  3  4  1  0
  3  9  1  0
  5 10  1  0
M  RAD  1   4   2
M  END
>  <reaction>  (2) 
rxn_1896

>  <mol_properties>  (2) 
{"1": {"label": "acceptor", "atom_type": "Cs"}}

>  <type>  (2) 
r2

$$$$

     RDKit          3D

 11 10  0  0  0  0  0  0  0  0999 V2000
   -1.0997   -0.5860   -0.1182 C   0  0  0  0  0  0  0  0  0  0  0  0
    0.0827    0.2961    0.2270 C   0  0  0  0  0  0  0  0  0  0  0  0
    0.1622    1.6171   -0.4774 C   0  0  0  0  0  0  0  0  0  0  0  0
   -0.9879    2.3087   -1.3633 S   0  0  0  0  0  0  0  0  0  0  0  0
    0.2176    0.6619    2.0187 S   0  0  0  0  0  0  0  0  0  0  0  0
   -1.1052   -0.8107   -1.1861 H   0  0  0  0  0  0  0  0  0  0  0  0
   -2.0402   -0.0893    0.1198 H   0  0  0  0  0  0  0  0  0  0  0  0
   -1.0438   -1.5182    0.4423 H   0  0  0  0  0  0  0  0  0  0  0  0
    1.0207   -0.2324    0.0280 H   0  0  0  0  0  0  0  0  0  0  0  0
    1.1091    2.1333   -0.3182 H   0  0  0  0  0  0  0  0  0  0  0  0
   -0.9205    1.3661    2.0994 H   0  0  0  0  0  0  0  0  0  0  0  0
  1  2  1  0
  1  6  1  0
  1  7  1  0
  1  8  1  0
  2  3  1  0
  2  5  1  0
  2  9  1  0
  3  4  2  0
  3 10  1  0
  5 11  1  0
M  END
>  <reaction>  (3) 
rxn_1896

>  <mol_properties>  (3) 
{"1": {"label": "acceptor", "atom_type": "Cs"}, "10": {"label": "a_hydrogen", "atom_type": "H0"}}

>  <type>  (3) 
r2h

$$$$

     RDKit          3D

 19 17  0  0  0  0  0  0  0  0999 V2000
    1.3540    0.7778    1.0365 C   0  0  0  0  0  0  0  0  0  0  0  0
    0.4477   -0.2307    0.3710 C   0  0  0  0  0  0  0  0  0  0  0  0
    0.9898   -1.0839   -0.6718 C   0  0  0  0  0  0  0  0  0  0  0  0
    2.3380   -0.8087   -1.5448 S   0  0  0  0  0  0  0  0  0  0  0  0
   -0.7271   -1.0573    1.4709 S   0  0  0  0  0  0  0  0  0  0  0  0
    2.0802    0.2712    1.6770 H   0  0  0  0  0  0  0  0  0  0  0  0
    1.9067    1.3451    0.2882 H   0  0  0  0  0  0  0  0  0  0  0  0
    0.7706    1.4634    1.6499 H   0  0  0  0  0  0  0  0  0  0  0  0
    0.3748   -1.9530   -0.9039 H   0  0  0  0  0  0  0  0  0  0  0  0
    0.1721   -1.7518    2.1841 H   0  0  0  0  0  0  0  0  0  0  0  0
   -1.8076    0.3096   -2.0161 C   0  0  0  0  0  0  0  0  0  0  0  0
   -1.2396    1.3351   -1.0798 C   0  0  0  0  0  3  0  0  0  0  0  0
   -0.2507    2.6307   -1.7150 S   0  0  0  0  0  0  0  0  0  0  0  0
   -1.0163   -0.1607   -2.6049 H   0  0  0  0  0  0  0  0  0  0  0  0
   -2.5202    0.7615   -2.7111 H   0  0  0  0  0  0  0  0  0  0  0  0
   -2.3228   -0.4714   -1.4540 H   0  0  0  0  0  0  0  0  0  0  0  0
   -0.3632    0.5057   -0.2883 H   0  0  0  0  0  0  0  0  0  0  0  0
   -1.9182    1.7235   -0.3240 H   0  0  0  0  0  0  0  0  0  0  0  0
    0.4198    1.8976   -2.6164 H   0  0  0  0  0  0  0  0  0  0  0  0
  1  2  1  0
  1  6  1  0
  1  7  1  0
  1  8  1  0
  2  3  1  0
  2  5  1  0
  2 17  1  0
  3  4  2  0
  3  9  1  0
  5 10  1  0
 11 12  1  0
 11 14  1  0
 11 15  1  0
 11 16  1  0
 12 13  1  0
 12 18  1  0
 13 19  1  0
M  RAD  1  12   2
M  END
>  <reaction>  (4) 
rxn_1896

>  <mol_properties>  (4) 
{"1": {"label": "*1", "atom_type": "Cs"}, "2": {"label": "*0", "atom_type": "CS"}, "11": {"label": "*3", "atom_type": "Cs"}, "12": {"label": "*4", "atom_type": "S2s"}, "16": {"label": "*2", "atom_type": "H0"}}

>  <type>  (4) 
ts

$$$$

     RDKit          3D

 19 17  0  0  0  0  0  0  0  0999 V2000
    1.4181    0.5480    0.9961 C   0  0  0  0  0  0  0  0  0  0  0  0
    0.5401   -0.3452    0.1436 C   0  0  0  0  0  0  0  0  0  0  0  0
    1.1566   -1.6207   -0.3469 C   0  0  0  0  0  0  0  0  0  0  0  0
    2.5497   -2.2653    0.1320 S   0  0  0  0  0  1  0  0  0  0  0  0
   -1.0299   -0.8176    0.9647 S   0  0  0  0  0  0  0  0  0  0  0  0
    1.7399    0.0314    1.9002 H   0  0  0  0  0  0  0  0  0  0  0  0
    2.3138    0.8368    0.4436 H   0  0  0  0  0  0  0  0  0  0  0  0
    0.8699    1.4450    1.2810 H   0  0  0  0  0  0  0  0  0  0  0  0
    0.5437   -2.1390   -1.0845 H   0  0  0  0  0  0  0  0  0  0  0  0
   -0.4602   -1.5333    1.9451 H   0  0  0  0  0  0  0  0  0  0  0  0
   -1.4885    1.0166   -2.3255 C   0  0  0  0  0  0  0  0  0  0  0  0
   -1.4885    1.0166   -0.8068 C   0  0  0  0  0  0  0  0  0  0  0  0
   -1.4885    2.6740   -0.0618 S   0  0  0  0  0  0  0  0  0  0  0  0
   -0.5818    1.4821   -2.7162 H   0  0  0  0  0  0  0  0  0  0  0  0
   -2.3444    1.5679   -2.7156 H   0  0  0  0  0  0  0  0  0  0  0  0
   -1.5315   -0.0067   -2.7058 H   0  0  0  0  0  0  0  0  0  0  0  0
   -0.4766    0.3373   -0.3327 H   0  0  0  0  0  0  0  0  0  0  0  0
   -2.3961    0.5496   -0.4217 H   0  0  0  0  0  0  0  0  0  0  0  0
   -0.3137    3.0757   -0.5654 H   0  0  0  0  0  0  0  0  0  0  0  0
  1  2  1  0
  1  6  1  0
  1  7  1  0
  1  8  1  0
  2  3  2  3
  2  5  1  0
  3  4  1  0
  3  9  1  0
  5 10  1  0
 11 12  1  0
 11 14  1  0
 11 15  1  0
 11 16  1  0
 12 13  1  0
 12 17  1  0
 12 18  1  0
 13 19  1  0
M  RAD  1   4   2
M  END
>  <reaction>  (5) 
rxn_1896

>  <mol_properties>  (5) 
{"1": {"label": "*1", "atom_type": "Cs"}, "2": {"label": "*0", "atom_type": "CS"}, "11": {"label": "*3", "atom_type": "Cs"}, "12": {"label": "*4", "atom_type": "S2s"}, "16": {"label": "*2", "atom_type": "H0"}}

>  <type>  (5) 
unop_1

>  <geom_source>  (5) 
Heuristics

$$$$

     RDKit          3D

 19 17  0  0  0  0  0  0  0  0999 V2000
    1.6675   -0.4091   -0.9726 C   0  0  0  0  0  0  0  0  0  0  0  0
    0.4950   -0.4780   -0.0155 C   0  0  0  0  0  0  0  0  0  0  0  0
    0.2499   -1.7984    0.6509 C   0  0  0  0  0  0  0  0  0  0  0  0
    1.2318   -3.0718    0.6592 S   0  0  0  0  0  1  0  0  0  0  0  0
    0.5804    0.7663    1.3286 S   0  0  0  0  0  0  0  0  0  0  0  0
    2.6026   -0.6383   -0.4619 H   0  0  0  0  0  0  0  0  0  0  0  0
    1.5428   -1.1364   -1.7767 H   0  0  0  0  0  0  0  0  0  0  0  0
    1.7380    0.5892   -1.4022 H   0  0  0  0  0  0  0  0  0  0  0  0
   -0.6942   -1.8373    1.1946 H   0  0  0  0  0  0  0  0  0  0  0  0
    1.6788    0.2628    1.9099 H   0  0  0  0  0  0  0  0  0  0  0  0
   -1.5335    0.8839   -2.4846 C   0  0  0  0  0  0  0  0  0  0  0  0
   -1.5335    0.8839   -0.9660 C   0  0  0  0  0  0  0  0  0  0  0  0
   -1.5335    2.5412   -0.2210 S   0  0  0  0  0  0  0  0  0  0  0  0
   -0.6269    1.3493   -2.8754 H   0  0  0  0  0  0  0  0  0  0  0  0
   -2.3895    1.4351   -2.8747 H   0  0  0  0  0  0  0  0  0  0  0  0
   -1.5766   -0.1395   -2.8649 H   0  0  0  0  0  0  0  0  0  0  0  0
   -0.5216    0.2045   -0.4918 H   0  0  0  0  0  0  0  0  0  0  0  0
   -2.4411    0.4168   -0.5808 H   0  0  0  0  0  0  0  0  0  0  0  0
   -0.3587    2.9429   -0.7245 H   0  0  0  0  0  0  0  0  0  0  0  0
  1  2  1  0
  1  6  1  0
  1  7  1  0
  1  8  1  0
  2  3  2  3
  2  5  1  0
  3  4  1  0
  3  9  1  0
  5 10  1  0
 11 12  1  0
 11 14  1  0
 11 15  1  0
 11 16  1  0
 12 13  1  0
 12 17  1  0
 12 18  1  0
 13 19  1  0
M  RAD  1   4   2
M  END
>  <reaction>  (6) 
rxn_1896

>  <mol_properties>  (6) 
{"1": {"label": "*1", "atom_type": "Cs"}, "2": {"label": "*0", "atom_type": "CS"}, "11": {"label": "*3", "atom_type": "Cs"}, "12": {"label": "*4", "atom_type": "S2s"}, "16": {"label": "*2", "atom_type": "H0"}}

>  <type>  (6) 
unop_2

>  <geom_source>  (6) 
Heuristics

$$$$

     RDKit          3D

 19 17  0  0  0  0  0  0  0  0999 V2000
    0.8309    0.1819    1.6664 C   0  0  0  0  0  0  0  0  0  0  0  0
    0.3995   -0.3845    0.3290 C   0  0  0  0  0  0  0  0  0  0  0  0
    1.4661   -1.0358   -0.4990 C   0  0  0  0  0  0  0  0  0  0  0  0
    2.9531   -1.4232   -0.0254 S   0  0  0  0  0  1  0  0  0  0  0  0
   -0.9625   -1.6049    0.4623 S   0  0  0  0  0  0  0  0  0  0  0  0
    1.2398   -0.5987    2.3076 H   0  0  0  0  0  0  0  0  0  0  0  0
    1.6079    0.9351    1.5254 H   0  0  0  0  0  0  0  0  0  0  0  0
   -0.0211    0.6379    2.1688 H   0  0  0  0  0  0  0  0  0  0  0  0
    1.1392   -1.2746   -1.5112 H   0  0  0  0  0  0  0  0  0  0  0  0
   -0.2583   -2.5201    1.1437 H   0  0  0  0  0  0  0  0  0  0  0  0
   -1.6291    0.9774   -2.1402 C   0  0  0  0  0  0  0  0  0  0  0  0
   -1.6291    0.9774   -0.6215 C   0  0  0  0  0  0  0  0  0  0  0  0
   -1.6291    2.6347    0.1235 S   0  0  0  0  0  0  0  0  0  0  0  0
   -0.7224    1.4428   -2.5309 H   0  0  0  0  0  0  0  0  0  0  0  0
   -2.4850    1.5286   -2.5303 H   0  0  0  0  0  0  0  0  0  0  0  0
   -1.6722   -0.0460   -2.5205 H   0  0  0  0  0  0  0  0  0  0  0  0
   -0.6172    0.2980   -0.1474 H   0  0  0  0  0  0  0  0  0  0  0  0
   -2.5367    0.5103   -0.2364 H   0  0  0  0  0  0  0  0  0  0  0  0
   -0.4543    3.0364   -0.3800 H   0  0  0  0  0  0  0  0  0  0  0  0
  1  2  1  0
  1  6  1  0
  1  7  1  0
  1  8  1  0
  2  3  2  3
  2  5  1  0
  3  4  1  0
  3  9  1  0
  5 10  1  0
 11 12  1  0
 11 14  1  0
 11 15  1  0
 11 16  1  0
 12 13  1  0
 12 17  1  0
 12 18  1  0
 13 19  1  0
M  RAD  1   4   2
M  END
>  <reaction>  (7) 
rxn_1896

>  <mol_properties>  (7) 
{"1": {"label": "*1", "atom_type": "Cs"}, "2": {"label": "*0", "atom_type": "CS"}, "11": {"label": "*3", "atom_type": "Cs"}, "12": {"label": "*4", "atom_type": "S2s"}, "16": {"label": "*2", "atom_type": "H0"}}

>  <type>  (7) 
unop_3

>  <geom_source>  (7) 
Heuristics

$$$$

     RDKit          3D

 19 17  0  0  0  0  0  0  0  0999 V2000
    0.6376   -2.1390   -0.6719 C   0  0  0  0  0  0  0  0  0  0  0  0
    0.7040   -0.7009   -0.1997 C   0  0  0  0  0  0  0  0  0  0  0  0
    0.0249   -0.3898    1.1002 C   0  0  0  0  0  0  0  0  0  0  0  0
   -0.5458   -1.4481    2.1679 S   0  0  0  0  0  1  0  0  0  0  0  0
    2.4169   -0.0645   -0.0482 S   0  0  0  0  0  0  0  0  0  0  0  0
    1.1036   -2.8092    0.0502 H   0  0  0  0  0  0  0  0  0  0  0  0
   -0.4015   -2.4509   -0.7901 H   0  0  0  0  0  0  0  0  0  0  0  0
    1.1513   -2.2404   -1.6270 H   0  0  0  0  0  0  0  0  0  0  0  0
   -0.0391    0.6785    1.3072 H   0  0  0  0  0  0  0  0  0  0  0  0
    2.7816   -0.8911    0.9425 H   0  0  0  0  0  0  0  0  0  0  0  0
   -1.3246    0.6609   -2.6689 C   0  0  0  0  0  0  0  0  0  0  0  0
   -1.3246    0.6609   -1.1502 C   0  0  0  0  0  0  0  0  0  0  0  0
   -1.3246    2.3183   -0.4052 S   0  0  0  0  0  0  0  0  0  0  0  0
   -0.4179    1.1263   -3.0596 H   0  0  0  0  0  0  0  0  0  0  0  0
   -2.1805    1.2121   -3.0590 H   0  0  0  0  0  0  0  0  0  0  0  0
   -1.3676   -0.3624   -3.0492 H   0  0  0  0  0  0  0  0  0  0  0  0
   -0.3127   -0.0184   -0.6761 H   0  0  0  0  0  0  0  0  0  0  0  0
   -2.2322    0.1939   -0.7651 H   0  0  0  0  0  0  0  0  0  0  0  0
   -0.1498    2.7200   -0.9088 H   0  0  0  0  0  0  0  0  0  0  0  0
  1  2  1  0
  1  6  1  0
  1  7  1  0
  1  8  1  0
  2  3  2  3
  2  5  1  0
  3  4  1  0
  3  9  1  0
  5 10  1  0
 11 12  1  0
 11 14  1  0
 11 15  1  0
 11 16  1  0
 12 13  1  0
 12 17  1  0
 12 18  1  0
 13 19  1  0
M  RAD  1   4   2
M  END
>  <reaction>  (8) 
rxn_1896

>  <mol_properties>  (8) 
{"1": {"label": "*1", "atom_type": "Cs"}, "2": {"label": "*0", "atom_type": "CS"}, "11": {"label": "*3", "atom_type": "Cs"}, "12": {"label": "*4", "atom_type": "S2s"}, "16": {"label": "*2", "atom_type": "H0"}}

>  <type>  (8) 
unop_4

>  <geom_source>  (8) 
Heuristics

$$$$

     RDKit          3D

 19 17  0  0  0  0  0  0  0  0999 V2000
    0.1746   -0.6946    1.9043 C   0  0  0  0  0  0  0  0  0  0  0  0
    0.1966   -0.7094    0.3894 C   0  0  0  0  0  0  0  0  0  0  0  0
    1.4337   -0.1760   -0.2686 C   0  0  0  0  0  0  0  0  0  0  0  0
    2.8313    0.1745    0.4452 S   0  0  0  0  0  1  0  0  0  0  0  0
   -0.0866   -2.3742   -0.3249 S   0  0  0  0  0  0  0  0  0  0  0  0
    0.9859   -1.2968    2.3126 H   0  0  0  0  0  0  0  0  0  0  0  0
    0.3001    0.3243    2.2746 H   0  0  0  0  0  0  0  0  0  0  0  0
   -0.7731   -1.0914    2.2658 H   0  0  0  0  0  0  0  0  0  0  0  0
    1.3300   -0.0570   -1.3472 H   0  0  0  0  0  0  0  0  0  0  0  0
    1.0387   -2.9216    0.1567 H   0  0  0  0  0  0  0  0  0  0  0  0
   -1.8319    0.6525   -2.0797 C   0  0  0  0  0  0  0  0  0  0  0  0
   -1.8319    0.6525   -0.5611 C   0  0  0  0  0  0  0  0  0  0  0  0
   -1.8319    2.3098    0.1839 S   0  0  0  0  0  0  0  0  0  0  0  0
   -0.9253    1.1179   -2.4705 H   0  0  0  0  0  0  0  0  0  0  0  0
   -2.6879    1.2037   -2.4698 H   0  0  0  0  0  0  0  0  0  0  0  0
   -1.8750   -0.3709   -2.4600 H   0  0  0  0  0  0  0  0  0  0  0  0
   -0.8200   -0.0269   -0.0869 H   0  0  0  0  0  0  0  0  0  0  0  0
   -2.7395    0.1854   -0.1759 H   0  0  0  0  0  0  0  0  0  0  0  0
   -0.6571    2.7115   -0.3196 H   0  0  0  0  0  0  0  0  0  0  0  0
  1  2  1  0
  1  6  1  0
  1  7  1  0
  1  8  1  0
  2  3  2  3
  2  5  1  0
  3  4  1  0
  3  9  1  0
  5 10  1  0
 11 12  1  0
 11 14  1  0
 11 15  1  0
 11 16  1  0
 12 13  1  0
 12 17  1  0
 12 18  1  0
 13 19  1  0
M  RAD  1   4   2
M  END
>  <reaction>  (9) 
rxn_1896

>  <mol_properties>  (9) 
{"1": {"label": "*1", "atom_type": "Cs"}, "2": {"label": "*0", "atom_type": "CS"}, "11": {"label": "*3", "atom_type": "Cs"}, "12": {"label": "*4", "atom_type": "S2s"}, "16": {"label": "*2", "atom_type": "H0"}}

>  <type>  (9) 
unop_5

>  <geom_source>  (9) 
Heuristics

$$$$

     RDKit          3D

 19 17  0  0  0  0  0  0  0  0999 V2000
    0.2412   -2.3742   -0.0054 C   0  0  0  0  0  0  0  0  0  0  0  0
    0.6276   -0.9216   -0.1955 C   0  0  0  0  0  0  0  0  0  0  0  0
    0.2548    0.0216    0.9085 C   0  0  0  0  0  0  0  0  0  0  0  0
   -0.2805   -0.3710    2.3731 S   0  0  0  0  0  1  0  0  0  0  0  0
    2.4208   -0.6799   -0.4923 S   0  0  0  0  0  0  0  0  0  0  0  0
    0.7129   -2.7906    0.8845 H   0  0  0  0  0  0  0  0  0  0  0  0
   -0.8392   -2.4651    0.1195 H   0  0  0  0  0  0  0  0  0  0  0  0
    0.5505   -2.9573   -0.8718 H   0  0  0  0  0  0  0  0  0  0  0  0
    0.4061    1.0695    0.6486 H   0  0  0  0  0  0  0  0  0  0  0  0
    2.8169   -1.1068    0.7155 H   0  0  0  0  0  0  0  0  0  0  0  0
   -1.4009    0.4402   -2.6647 C   0  0  0  0  0  0  0  0  0  0  0  0
   -1.4009    0.4402   -1.1460 C   0  0  0  0  0  0  0  0  0  0  0  0
   -1.4009    2.0976   -0.4010 S   0  0  0  0  0  0  0  0  0  0  0  0
   -0.4943    0.9056   -3.0554 H   0  0  0  0  0  0  0  0  0  0  0  0
   -2.2569    0.9914   -3.0548 H   0  0  0  0  0  0  0  0  0  0  0  0
   -1.4440   -0.5831   -3.0450 H   0  0  0  0  0  0  0  0  0  0  0  0
   -0.3890   -0.2391   -0.6719 H   0  0  0  0  0  0  0  0  0  0  0  0
   -2.3085   -0.0268   -0.7609 H   0  0  0  0  0  0  0  0  0  0  0  0
   -0.2261    2.4993   -0.9046 H   0  0  0  0  0  0  0  0  0  0  0  0
  1  2  1  0
  1  6  1  0
  1  7  1  0
  1  8  1  0
  2  3  2  3
  2  5  1  0
  3  4  1  0
  3  9  1  0
  5 10  1  0
 11 12  1  0
 11 14  1  0
 11 15  1  0
 11 16  1  0
 12 13  1  0
 12 17  1  0
 12 18  1  0
 13 19  1  0
M  RAD  1   4   2
M  END
>  <reaction>  (10) 
rxn_1896

>  <mol_properties>  (10) 
{"1": {"label": "*1", "atom_type": "Cs"}, "2": {"label": "*0", "atom_type": "CS"}, "11": {"label": "*3", "atom_type": "Cs"}, "12": {"label": "*4", "atom_type": "S2s"}, "16": {"label": "*2", "atom_type": "H0"}}

>  <type>  (10) 
unop_6

>  <geom_source>  (10) 
Heuristics

$$$$

     RDKit          3D

 19 17  0  0  0  0  0  0  0  0999 V2000
   -0.0319   -2.2330    0.7842 C   0  0  0  0  0  0  0  0  0  0  0  0
    0.4624   -1.0822   -0.0683 C   0  0  0  0  0  0  0  0  0  0  0  0
    0.5534    0.2567    0.6001 C   0  0  0  0  0  0  0  0  0  0  0  0
    0.4273    0.5597    2.1742 S   0  0  0  0  0  1  0  0  0  0  0  0
    2.1045   -1.3906   -0.8235 S   0  0  0  0  0  0  0  0  0  0  0  0
    0.6239   -2.3955    1.6394 H   0  0  0  0  0  0  0  0  0  0  0  0
   -1.0301   -2.0174    1.1690 H   0  0  0  0  0  0  0  0  0  0  0  0
   -0.0676   -3.1459    0.1912 H   0  0  0  0  0  0  0  0  0  0  0  0
    0.7530    1.0721   -0.0955 H   0  0  0  0  0  0  0  0  0  0  0  0
    2.7808   -1.4293    0.3336 H   0  0  0  0  0  0  0  0  0  0  0  0
   -1.5662    0.2797   -2.5374 C   0  0  0  0  0  0  0  0  0  0  0  0
   -1.5662    0.2797   -1.0188 C   0  0  0  0  0  0  0  0  0  0  0  0
   -1.5662    1.9370   -0.2738 S   0  0  0  0  0  0  0  0  0  0  0  0
   -0.6595    0.7451   -2.9282 H   0  0  0  0  0  0  0  0  0  0  0  0
   -2.4222    0.8309   -2.9275 H   0  0  0  0  0  0  0  0  0  0  0  0
   -1.6093   -0.7437   -2.9177 H   0  0  0  0  0  0  0  0  0  0  0  0
   -0.5543   -0.3997   -0.5446 H   0  0  0  0  0  0  0  0  0  0  0  0
   -2.4738   -0.1874   -0.6336 H   0  0  0  0  0  0  0  0  0  0  0  0
   -0.3914    2.3387   -0.7773 H   0  0  0  0  0  0  0  0  0  0  0  0
  1  2  1  0
  1  6  1  0
  1  7  1  0
  1  8  1  0
  2  3  2  3
  2  5  1  0
  3  4  1  0
  3  9  1  0
  5 10  1  0
 11 12  1  0
 11 14  1  0
 11 15  1  0
 11 16  1  0
 12 13  1  0
 12 17  1  0
 12 18  1  0
 13 19  1  0
M  RAD  1   4   2
M  END
>  <reaction>  (11) 
rxn_1896

>  <mol_properties>  (11) 
{"1": {"label": "*1", "atom_type": "Cs"}, "2": {"label": "*0", "atom_type": "CS"}, "11": {"label": "*3", "atom_type": "Cs"}, "12": {"label": "*4", "atom_type": "S2s"}, "16": {"label": "*2", "atom_type": "H0"}}

>  <type>  (11) 
unop_7

>  <geom_source>  (11) 
Heuristics

$$$$

     RDKit          3D

 19 17  0  0  0  0  0  0  0  0999 V2000
    1.7493    0.4907    0.2056 C   0  0  0  0  0  0  0  0  0  0  0  0
    0.5512   -0.4170    0.0154 C   0  0  0  0  0  0  0  0  0  0  0  0
    0.8268   -1.8898   -0.0343 C   0  0  0  0  0  0  0  0  0  0  0  0
    2.2064   -2.6262    0.3400 S   0  0  0  0  0  1  0  0  0  0  0  0
   -0.7478   -0.1814    1.2879 S   0  0  0  0  0  0  0  0  0  0  0  0
    2.2589    0.2735    1.1441 H   0  0  0  0  0  0  0  0  0  0  0  0
    2.4676    0.3435   -0.6027 H   0  0  0  0  0  0  0  0  0  0  0  0
    1.4291    1.5317    0.2131 H   0  0  0  0  0  0  0  0  0  0  0  0
   -0.0389   -2.4795   -0.3360 H   0  0  0  0  0  0  0  0  0  0  0  0
   -0.0060   -0.6091    2.3197 H   0  0  0  0  0  0  0  0  0  0  0  0
   -1.4773    0.9449   -2.4537 C   0  0  0  0  0  0  0  0  0  0  0  0
   -1.4773    0.9449   -0.9350 C   0  0  0  0  0  0  0  0  0  0  0  0
   -1.4773    2.6022   -0.1901 S   0  0  0  0  0  0  0  0  0  0  0  0
   -0.5707    1.4103   -2.8445 H   0  0  0  0  0  0  0  0  0  0  0  0
   -2.3333    1.4961   -2.8438 H   0  0  0  0  0  0  0  0  0  0  0  0
   -1.5204   -0.0785   -2.8340 H   0  0  0  0  0  0  0  0  0  0  0  0
   -0.4654    0.2656   -0.4609 H   0  0  0  0  0  0  0  0  0  0  0  0
   -2.3849    0.4778   -0.5499 H   0  0  0  0  0  0  0  0  0  0  0  0
   -0.3025    3.0039   -0.6936 H   0  0  0  0  0  0  0  0  0  0  0  0
  1  2  1  0
  1  6  1  0
  1  7  1  0
  1  8  1  0
  2  3  2  3
  2  5  1  0
  3  4  1  0
  3  9  1  0
  5 10  1  0
 11 12  1  0
 11 14  1  0
 11 15  1  0
 11 16  1  0
 12 13  1  0
 12 17  1  0
 12 18  1  0
 13 19  1  0
M  RAD  1   4   2
M  END
>  <reaction>  (12) 
rxn_1896

>  <mol_properties>  (12) 
{"1": {"label": "*1", "atom_type": "Cs"}, "2": {"label": "*0", "atom_type": "CS"}, "11": {"label": "*3", "atom_type": "Cs"}, "12": {"label": "*4", "atom_type": "S2s"}, "16": {"label": "*2", "atom_type": "H0"}}

>  <type>  (12) 
unop_8

>  <geom_source>  (12) 
Heuristics

$$$$

     RDKit          3D

 19 17  0  0  0  0  0  0  0  0999 V2000
    1.0498   -1.6337   -1.0765 C   0  0  0  0  0  0  0  0  0  0  0  0
    0.6696   -0.5224   -0.1194 C   0  0  0  0  0  0  0  0  0  0  0  0
   -0.0787   -0.9272    1.1151 C   0  0  0  0  0  0  0  0  0  0  0  0
   -0.3027   -2.4233    1.6602 S   0  0  0  0  0  1  0  0  0  0  0  0
    2.1040    0.4665    0.4521 S   0  0  0  0  0  0  0  0  0  0  0  0
    1.6953   -2.3646   -0.5897 H   0  0  0  0  0  0  0  0  0  0  0  0
    0.1570   -2.1582   -1.4211 H   0  0  0  0  0  0  0  0  0  0  0  0
    1.5747   -1.2198   -1.9364 H   0  0  0  0  0  0  0  0  0  0  0  0
   -0.4683   -0.0797    1.6793 H   0  0  0  0  0  0  0  0  0  0  0  0
    2.6996   -0.5319    1.1201 H   0  0  0  0  0  0  0  0  0  0  0  0
   -1.3589    0.8395   -2.5885 C   0  0  0  0  0  0  0  0  0  0  0  0
   -1.3589    0.8395   -1.0699 C   0  0  0  0  0  0  0  0  0  0  0  0
   -1.3589    2.4968   -0.3249 S   0  0  0  0  0  0  0  0  0  0  0  0
   -0.4523    1.3049   -2.9793 H   0  0  0  0  0  0  0  0  0  0  0  0
   -2.2149    1.3907   -2.9786 H   0  0  0  0  0  0  0  0  0  0  0  0
   -1.4020   -0.1839   -2.9688 H   0  0  0  0  0  0  0  0  0  0  0  0
   -0.3470    0.1601   -0.5957 H   0  0  0  0  0  0  0  0  0  0  0  0
   -2.2665    0.3724   -0.6847 H   0  0  0  0  0  0  0  0  0  0  0  0
   -0.1841    2.8985   -0.8284 H   0  0  0  0  0  0  0  0  0  0  0  0
  1  2  1  0
  1  6  1  0
  1  7  1  0
  1  8  1  0
  2  3  2  3
  2  5  1  0
  3  4  1  0
  3  9  1  0
  5 10  1  0
 11 12  1  0
 11 14  1  0
 11 15  1  0
 11 16  1  0
 12 13  1  0
 12 17  1  0
 12 18  1  0
 13 19  1  0
M  RAD  1   4   2
M  END
>  <reaction>  (13) 
rxn_1896

>  <mol_properties>  (13) 
{"1": {"label": "*1", "atom_type": "Cs"}, "2": {"label": "*0", "atom_type": "CS"}, "11": {"label": "*3", "atom_type": "Cs"}, "12": {"label": "*4", "atom_type": "S2s"}, "16": {"label": "*2", "atom_type": "H0"}}

>  <type>  (13) 
unop_9

>  <geom_source>  (13) 
Heuristics

$$$$

     RDKit          3D

 19 17  0  0  0  0  0  0  0  0999 V2000
    1.8139    0.1280   -0.4963 C   0  0  0  0  0  0  0  0  0  0  0  0
    0.5080   -0.4779   -0.0241 C   0  0  0  0  0  0  0  0  0  0  0  0
    0.5302   -1.9380    0.3153 C   0  0  0  0  0  0  0  0  0  0  0  0
    1.8296   -2.8717    0.4752 S   0  0  0  0  0  1  0  0  0  0  0  0
   -0.2039    0.3762    1.4339 S   0  0  0  0  0  0  0  0  0  0  0  0
    2.5867    0.0336    0.2664 H   0  0  0  0  0  0  0  0  0  0  0  0
    2.1679   -0.3862   -1.3914 H   0  0  0  0  0  0  0  0  0  0  0  0
    1.6726    1.1838   -0.7237 H   0  0  0  0  0  0  0  0  0  0  0  0
   -0.4623   -2.3548    0.4875 H   0  0  0  0  0  0  0  0  0  0  0  0
    0.7858    0.0512    2.2781 H   0  0  0  0  0  0  0  0  0  0  0  0
   -1.5205    0.8839   -2.4932 C   0  0  0  0  0  0  0  0  0  0  0  0
   -1.5205    0.8839   -0.9746 C   0  0  0  0  0  0  0  0  0  0  0  0
   -1.5205    2.5413   -0.2296 S   0  0  0  0  0  0  0  0  0  0  0  0
   -0.6139    1.3493   -2.8840 H   0  0  0  0  0  0  0  0  0  0  0  0
   -2.3765    1.4351   -2.8833 H   0  0  0  0  0  0  0  0  0  0  0  0
   -1.5636   -0.1394   -2.8735 H   0  0  0  0  0  0  0  0  0  0  0  0
   -0.5086    0.2046   -0.5004 H   0  0  0  0  0  0  0  0  0  0  0  0
   -2.4281    0.4169   -0.5894 H   0  0  0  0  0  0  0  0  0  0  0  0
   -0.3457    2.9430   -0.7331 H   0  0  0  0  0  0  0  0  0  0  0  0
  1  2  1  0
  1  6  1  0
  1  7  1  0
  1  8  1  0
  2  3  2  3
  2  5  1  0
  3  4  1  0
  3  9  1  0
  5 10  1  0
 11 12  1  0
 11 14  1  0
 11 15  1  0
 11 16  1  0
 12 13  1  0
 12 17  1  0
 12 18  1  0
 13 19  1  0
M  RAD  1   4   2
M  END
>  <reaction>  (14) 
rxn_1896

>  <mol_properties>  (14) 
{"1": {"label": "*1", "atom_type": "Cs"}, "2": {"label": "*0", "atom_type": "CS"}, "11": {"label": "*3", "atom_type": "Cs"}, "12": {"label": "*4", "atom_type": "S2s"}, "16": {"label": "*2", "atom_type": "H0"}}

>  <type>  (14) 
unop_10

>  <geom_source>  (14) 
Heuristics

$$$$

     RDKit          3D

 19 17  0  0  0  0  0  0  0  0999 V2000
   -0.1000   -1.6684    1.5082 C   0  0  0  0  0  0  0  0  0  0  0  0
    0.2608   -1.0547    0.1708 C   0  0  0  0  0  0  0  0  0  0  0  0
    0.9543    0.2740    0.2079 C   0  0  0  0  0  0  0  0  0  0  0  0
    1.5798    0.9999    1.4991 S   0  0  0  0  0  1  0  0  0  0  0  0
    1.3008   -2.1465   -0.8726 S   0  0  0  0  0  0  0  0  0  0  0  0
    0.7906   -1.8387    2.1128 H   0  0  0  0  0  0  0  0  0  0  0  0
   -0.7563   -0.9991    2.0669 H   0  0  0  0  0  0  0  0  0  0  0  0
   -0.6074   -2.6200    1.3553 H   0  0  0  0  0  0  0  0  0  0  0  0
    1.0402    0.7420   -0.7730 H   0  0  0  0  0  0  0  0  0  0  0  0
    2.3667   -2.1362   -0.0593 H   0  0  0  0  0  0  0  0  0  0  0  0
   -1.7677    0.3072   -2.2984 C   0  0  0  0  0  0  0  0  0  0  0  0
   -1.7677    0.3072   -0.7797 C   0  0  0  0  0  0  0  0  0  0  0  0
   -1.7677    1.9645   -0.0347 S   0  0  0  0  0  0  0  0  0  0  0  0
   -0.8611    0.7726   -2.6891 H   0  0  0  0  0  0  0  0  0  0  0  0
   -2.6237    0.8584   -2.6885 H   0  0  0  0  0  0  0  0  0  0  0  0
   -1.8108   -0.7162   -2.6786 H   0  0  0  0  0  0  0  0  0  0  0  0
   -0.7558   -0.3722   -0.3056 H   0  0  0  0  0  0  0  0  0  0  0  0
   -2.6753   -0.1599   -0.3946 H   0  0  0  0  0  0  0  0  0  0  0  0
   -0.5929    2.3662   -0.5382 H   0  0  0  0  0  0  0  0  0  0  0  0
  1  2  1  0
  1  6  1  0
  1  7  1  0
  1  8  1  0
  2  3  2  3
  2  5  1  0
  3  4  1  0
  3  9  1  0
  5 10  1  0
 11 12  1  0
 11 14  1  0
 11 15  1  0
 11 16  1  0
 12 13  1  0
 12 17  1  0
 12 18  1  0
 13 19  1  0
M  RAD  1   4   2
M  END
>  <reaction>  (15) 
rxn_1896

>  <mol_properties>  (15) 
{"1": {"label": "*1", "atom_type": "Cs"}, "2": {"label": "*0", "atom_type": "CS"}, "11": {"label": "*3", "atom_type": "Cs"}, "12": {"label": "*4", "atom_type": "S2s"}, "16": {"label": "*2", "atom_type": "H0"}}

>  <type>  (15) 
unop_11

>  <geom_source>  (15) 
Heuristics

$$$$

     RDKit          3D

 19 17  0  0  0  0  0  0  0  0999 V2000
    1.3987   -1.0176   -1.1711 C   0  0  0  0  0  0  0  0  0  0  0  0
    0.5650   -0.4579   -0.0366 C   0  0  0  0  0  0  0  0  0  0  0  0
    0.0114   -1.4500    0.9416 C   0  0  0  0  0  0  0  0  0  0  0  0
    0.4059   -3.0038    1.0676 S   0  0  0  0  0  1  0  0  0  0  0  0
    1.4466    0.8051    0.9582 S   0  0  0  0  0  0  0  0  0  0  0  0
    2.2722   -1.5464   -0.7901 H   0  0  0  0  0  0  0  0  0  0  0  0
    0.8122   -1.7270   -1.7574 H   0  0  0  0  0  0  0  0  0  0  0  0
    1.7335   -0.2093   -1.8198 H   0  0  0  0  0  0  0  0  0  0  0  0
   -0.7100   -1.0152    1.6337 H   0  0  0  0  0  0  0  0  0  0  0  0
    2.3791   -0.0288    1.4407 H   0  0  0  0  0  0  0  0  0  0  0  0
   -1.4635    0.9039   -2.5057 C   0  0  0  0  0  0  0  0  0  0  0  0
   -1.4635    0.9039   -0.9870 C   0  0  0  0  0  0  0  0  0  0  0  0
   -1.4635    2.5613   -0.2420 S   0  0  0  0  0  0  0  0  0  0  0  0
   -0.5569    1.3694   -2.8964 H   0  0  0  0  0  0  0  0  0  0  0  0
   -2.3195    1.4551   -2.8958 H   0  0  0  0  0  0  0  0  0  0  0  0
   -1.5066   -0.1194   -2.8860 H   0  0  0  0  0  0  0  0  0  0  0  0
   -0.4516    0.2246   -0.5129 H   0  0  0  0  0  0  0  0  0  0  0  0
   -2.3711    0.4369   -0.6019 H   0  0  0  0  0  0  0  0  0  0  0  0
   -0.2887    2.9630   -0.7456 H   0  0  0  0  0  0  0  0  0  0  0  0
  1  2  1  0
  1  6  1  0
  1  7  1  0
  1  8  1  0
  2  3  2  3
  2  5  1  0
  3  4  1  0
  3  9  1  0
  5 10  1  0
 11 12  1  0
 11 14  1  0
 11 15  1  0
 11 16  1  0
 12 13  1  0
 12 17  1  0
 12 18  1  0
 13 19  1  0
M  RAD  1   4   2
M  END
>  <reaction>  (16) 
rxn_1896

>  <mol_properties>  (16) 
{"1": {"label": "*1", "atom_type": "Cs"}, "2": {"label": "*0", "atom_type": "CS"}, "11": {"label": "*3", "atom_type": "Cs"}, "12": {"label": "*4", "atom_type": "S2s"}, "16": {"label": "*2", "atom_type": "H0"}}

>  <type>  (16) 
unop_12

>  <geom_source>  (16) 
Heuristics

$$$$

     RDKit          3D

 19 17  0  0  0  0  0  0  0  0999 V2000
   -1.0643   -1.4045   -1.1091 S   0  0  0  0  0  0  0  0  0  0  0  0
    2.5486    1.2852   -0.8263 S   0  0  0  0  0  0  0  0  0  0  0  0
   -1.3329   -1.2168    2.2742 S   0  0  0  0  0  0  0  0  0  0  0  0
   -1.0122    0.0076    0.0491 C   0  0  0  0  0  0  0  0  0  0  0  0
   -1.5287    1.2659   -0.6467 C   0  0  0  0  0  0  0  0  0  0  0  0
    2.2055   -1.3094    0.0026 C   0  0  0  0  0  0  0  0  0  0  0  0
    1.5992    0.0765    0.1442 C   0  0  0  0  0  3  0  0  0  0  0  0
   -1.8191   -0.2941    1.2858 C   0  0  0  0  0  0  0  0  0  0  0  0
    0.2465    0.2226    0.3893 H   0  0  0  0  0  0  0  0  0  0  0  0
   -1.4582    2.1353    0.0411 H   0  0  0  0  0  0  0  0  0  0  0  0
   -2.5869    1.1373   -0.9606 H   0  0  0  0  0  0  0  0  0  0  0  0
   -0.9103    1.4803   -1.5437 H   0  0  0  0  0  0  0  0  0  0  0  0
    3.2509   -1.3116    0.3780 H   0  0  0  0  0  0  0  0  0  0  0  0
    2.1936   -1.6206   -1.0630 H   0  0  0  0  0  0  0  0  0  0  0  0
    1.6080   -2.0347    0.5930 H   0  0  0  0  0  0  0  0  0  0  0  0
    1.5935    0.3802    1.2125 H   0  0  0  0  0  0  0  0  0  0  0  0
   -2.7310    0.2581    1.4930 H   0  0  0  0  0  0  0  0  0  0  0  0
   -2.4686   -1.3876   -1.2199 H   0  0  0  0  0  0  0  0  0  0  0  0
    1.6664    2.3302   -0.4934 H   0  0  0  0  0  0  0  0  0  0  0  0
  1  4  1  0
  1 18  1  0
  2  7  1  0
  2 19  1  0
  3  8  2  0
  4  5  1  0
  4  8  1  0
  4  9  1  0
  5 10  1  0
  5 11  1  0
  5 12  1  0
  6  7  1  0
  6 13  1  0
  6 14  1  0
  6 15  1  0
  7 16  1  0
  8 17  1  0
M  RAD  1   7   2
M  END
>  <reaction>  (17) 
rxn_1896

>  <mol_properties>  (17) 
{"1": {"label": "*1", "atom_type": "Cs"}, "2": {"label": "*0", "atom_type": "CS"}, "11": {"label": "*3", "atom_type": "Cs"}, "12": {"label": "*4", "atom_type": "S2s"}, "16": {"label": "*2", "atom_type": "H0"}}

>  <type>  (17) 
unop_13

>  <geom_source>  (17) 
AutoTST

$$$$
