
     RDKit          3D

  8  7  0  0  0  0  0  0  0  0999 V2000
    0.7610    0.0250    0.0051 C   0  0  0  0  0  0  0  0  0  0  0  0
   -0.7610   -0.0250   -0.0051 C   0  0  0  0  0  0  0  0  0  0  0  0
    1.1904   -0.9237   -0.3217 H   0  0  0  0  0  0  0  0  0  0  0  0
    1.1359    0.8041   -0.6609 H   0  0  0  0  0  0  0  0  0  0  0  0
    1.1435    0.2336    1.0058 H   0  0  0  0  0  0  0  0  0  0  0  0
   -1.1435   -0.2336   -1.0058 H   0  0  0  0  0  0  0  0  0  0  0  0
   -1.1904    0.9237    0.3216 H   0  0  0  0  0  0  0  0  0  0  0  0
   -1.1359   -0.8041    0.6609 H   0  0  0  0  0  0  0  0  0  0  0  0
  1  2  1  0
  1  3  1  0
  1  4  1  0
  1  5  1  0
  2  6  1  0
  2  7  1  0
  2  8  1  0
M  END
>  <reaction>  (1) 
rxn_419

>  <mol_properties>  (1) 
{"1": {"label": "donator", "atom_type": "Cs"}, "5": {"label": "d_hydrogen", "atom_type": "H0"}}

>  <type>  (1) 
r1h

$$$$

     RDKit          3D

 14 13  0  0  0  0  0  0  0  0999 V2000
    0.1523    1.4701    0.0231 C   0  0  0  0  0  0  0  0  0  0  0  0
    0.0724   -0.0001   -0.3729 C   0  0  0  0  0  0  0  0  0  0  0  0
    1.2474   -0.8003    0.1743 C   0  0  0  0  0  0  0  0  0  0  0  0
   -0.0121   -0.1270   -1.8938 C   0  0  0  0  0  0  0  0  0  0  0  0
   -0.1587   -1.3813   -2.3858 O   0  0  0  0  0  1  0  0  0  0  0  0
    1.0591    1.9320   -0.3785 H   0  0  0  0  0  0  0  0  0  0  0  0
    0.1790    1.5804    1.1081 H   0  0  0  0  0  0  0  0  0  0  0  0
   -0.7050    2.0354   -0.3496 H   0  0  0  0  0  0  0  0  0  0  0  0
   -0.8541   -0.4208    0.0314 H   0  0  0  0  0  0  0  0  0  0  0  0
    1.2629   -0.7766    1.2653 H   0  0  0  0  0  0  0  0  0  0  0  0
    1.1914   -1.8416   -0.1445 H   0  0  0  0  0  0  0  0  0  0  0  0
    2.1953   -0.3860   -0.1823 H   0  0  0  0  0  0  0  0  0  0  0  0
    0.9157    0.2677   -2.3596 H   0  0  0  0  0  0  0  0  0  0  0  0
   -0.8026    0.5214   -2.3140 H   0  0  0  0  0  0  0  0  0  0  0  0
  1  2  1  0
  1  6  1  0
  1  7  1  0
  1  8  1  0
  2  3  1  0
  2  4  1  0
  2  9  1  0
  3 10  1  0
  3 11  1  0
  3 12  1  0
  4  5  1  0
  4 13  1  0
  4 14  1  0
M  RAD  1   5   2
M  END
>  <reaction>  (2) 
rxn_419

>  <mol_properties>  (2) 
{"4": {"label": "acceptor", "atom_type": "O2s"}}

>  <type>  (2) 
r2

$$$$

     RDKit          3D

 15 14  0  0  0  0  0  0  0  0999 V2000
   -0.6986    1.3249   -0.1641 C   0  0  0  0  0  0  0  0  0  0  0  0
   -0.2590   -0.0344    0.3671 C   0  0  0  0  0  0  0  0  0  0  0  0
   -0.4734   -0.1429    1.8733 C   0  0  0  0  0  0  0  0  0  0  0  0
   -0.9841   -1.1722   -0.3462 C   0  0  0  0  0  0  0  0  0  0  0  0
   -0.7805   -1.1911   -1.7444 O   0  0  0  0  0  0  0  0  0  0  0  0
   -0.1246    2.1306    0.2976 H   0  0  0  0  0  0  0  0  0  0  0  0
   -1.7557    1.4964    0.0581 H   0  0  0  0  0  0  0  0  0  0  0  0
   -0.5709    1.3852   -1.2449 H   0  0  0  0  0  0  0  0  0  0  0  0
    0.8141   -0.1541    0.1667 H   0  0  0  0  0  0  0  0  0  0  0  0
   -1.5346   -0.0466    2.1192 H   0  0  0  0  0  0  0  0  0  0  0  0
    0.0611    0.6480    2.4019 H   0  0  0  0  0  0  0  0  0  0  0  0
   -0.1249   -1.1023    2.2618 H   0  0  0  0  0  0  0  0  0  0  0  0
   -0.6918   -2.1316    0.1011 H   0  0  0  0  0  0  0  0  0  0  0  0
   -2.0629   -1.0627   -0.2056 H   0  0  0  0  0  0  0  0  0  0  0  0
    0.1528   -1.3298   -1.9125 H   0  0  0  0  0  0  0  0  0  0  0  0
  1  2  1  0
  1  6  1  0
  1  7  1  0
  1  8  1  0
  2  3  1  0
  2  4  1  0
  2  9  1  0
  3 10  1  0
  3 11  1  0
  3 12  1  0
  4  5  1  0
  4 13  1  0
  4 14  1  0
  5 15  1  0
M  END
>  <reaction>  (3) 
rxn_419

>  <mol_properties>  (3) 
{"4": {"label": "acceptor", "atom_type": "O2s"}, "14": {"label": "a_hydrogen", "atom_type": "H0"}}

>  <type>  (3) 
r2h

$$$$

     RDKit          3D

 22 20  0  0  0  0  0  0  0  0999 V2000
   -1.8422    1.3076    0.5536 C   0  0  0  0  0  0  0  0  0  0  0  0
   -0.7621    0.8479   -0.4169 C   0  0  0  0  0  0  0  0  0  0  0  0
   -0.7112    1.7231   -1.6641 C   0  0  0  0  0  0  0  0  0  0  0  0
    0.6099    0.8147    0.2558 C   0  0  0  0  0  0  0  0  0  0  0  0
    0.6875    0.0040    1.3844 O   0  0  0  0  0  0  0  0  0  0  0  0
   -2.8311    1.2557    0.0940 H   0  0  0  0  0  0  0  0  0  0  0  0
   -1.6681    2.3442    0.8570 H   0  0  0  0  0  0  0  0  0  0  0  0
   -1.8454    0.6911    1.4525 H   0  0  0  0  0  0  0  0  0  0  0  0
   -0.9926   -0.1785   -0.7267 H   0  0  0  0  0  0  0  0  0  0  0  0
   -0.4663    2.7564   -1.4021 H   0  0  0  0  0  0  0  0  0  0  0  0
    0.0426    1.3701   -2.3719 H   0  0  0  0  0  0  0  0  0  0  0  0
   -1.6746    1.7318   -2.1765 H   0  0  0  0  0  0  0  0  0  0  0  0
    0.8628    1.8245    0.6124 H   0  0  0  0  0  0  0  0  0  0  0  0
    1.3829    0.5472   -0.4800 H   0  0  0  0  0  0  0  0  0  0  0  0
    1.2825   -2.3170   -0.8175 C   0  0  0  0  0  0  0  0  0  0  0  0
    0.5387   -2.3341    0.4886 C   0  0  0  0  0  3  0  0  0  0  0  0
    0.8091   -1.6503   -1.5408 H   0  0  0  0  0  0  0  0  0  0  0  0
    2.3159   -1.9944   -0.6815 H   0  0  0  0  0  0  0  0  0  0  0  0
    1.3053   -3.3165   -1.2630 H   0  0  0  0  0  0  0  0  0  0  0  0
    0.5832   -1.1781    0.9989 H   0  0  0  0  0  0  0  0  0  0  0  0
    1.0047   -2.9328    1.2699 H   0  0  0  0  0  0  0  0  0  0  0  0
   -0.5270   -2.5414    0.4069 H   0  0  0  0  0  0  0  0  0  0  0  0
  1  2  1  0
  1  6  1  0
  1  7  1  0
  1  8  1  0
  2  3  1  0
  2  4  1  0
  2  9  1  0
  3 10  1  0
  3 11  1  0
  3 12  1  0
  4  5  1  0
  4 13  1  0
  4 14  1  0
  5 20  1  0
 15 16  1  0
 15 17  1  0
 15 18  1  0
 15 19  1  0
 16 21  1  0
 16 22  1  0
M  RAD  1  16   2
M  END
>  <reaction>  (4) 
rxn_419

>  <mol_properties>  (4) 
{"3": {"label": "*0", "atom_type": "Cs"}, "4": {"label": "*1", "atom_type": "O2s"}, "14": {"label": "*4", "atom_type": "Cs"}, "15": {"label": "*3", "atom_type": "Cs"}, "19": {"label": "*2", "atom_type": "H0"}}

>  <type>  (4) 
ts

$$$$

     RDKit          3D

 22 20  0  0  0  0  0  0  0  0999 V2000
    0.1455   -0.7694    1.6896 C   0  0  0  0  0  0  0  0  0  0  0  0
   -0.8323    0.0570    0.8626 C   0  0  0  0  0  0  0  0  0  0  0  0
   -2.1169    0.3417    1.6340 C   0  0  0  0  0  0  0  0  0  0  0  0
   -0.2011    1.3670    0.3991 C   0  0  0  0  0  0  0  0  0  0  0  0
    0.9600    1.1944   -0.3875 O   0  0  0  0  0  0  0  0  0  0  0  0
   -0.2861   -1.7361    1.9564 H   0  0  0  0  0  0  0  0  0  0  0  0
    0.3959   -0.2466    2.6172 H   0  0  0  0  0  0  0  0  0  0  0  0
    1.0730   -0.9438    1.1443 H   0  0  0  0  0  0  0  0  0  0  0  0
   -1.0953   -0.5154   -0.0369 H   0  0  0  0  0  0  0  0  0  0  0  0
   -1.9047    0.9274    2.5329 H   0  0  0  0  0  0  0  0  0  0  0  0
   -2.8337    0.9022    1.0301 H   0  0  0  0  0  0  0  0  0  0  0  0
   -2.5964   -0.5861    1.9501 H   0  0  0  0  0  0  0  0  0  0  0  0
    0.1147    1.9484    1.2696 H   0  0  0  0  0  0  0  0  0  0  0  0
   -0.9487    1.9646   -0.1394 H   0  0  0  0  0  0  0  0  0  0  0  0
    0.9600   -1.0981   -2.8024 C   0  0  0  0  0  0  0  0  0  0  0  0
    0.9600   -1.0981   -1.2797 C   0  0  0  0  0  3  0  0  0  0  0  0
    0.0792   -0.5895   -3.1983 H   0  0  0  0  0  0  0  0  0  0  0  0
    1.8409   -0.5895   -3.1983 H   0  0  0  0  0  0  0  0  0  0  0  0
    0.9600   -2.1152   -3.1983 H   0  0  0  0  0  0  0  0  0  0  0  0
    0.9600    0.1225   -0.8046 H   0  0  0  0  0  0  0  0  0  0  0  0
    1.8409   -1.6066   -0.8838 H   0  0  0  0  0  0  0  0  0  0  0  0
    0.0792   -1.6066   -0.8838 H   0  0  0  0  0  0  0  0  0  0  0  0
  1  2  1  0
  1  6  1  0
  1  7  1  0
  1  8  1  0
  2  3  1  0
  2  4  1  0
  2  9  1  0
  3 10  1  0
  3 11  1  0
  3 12  1  0
  4  5  1  0
  4 13  1  0
  4 14  1  0
  5 20  1  0
 15 16  1  0
 15 17  1  0
 15 18  1  0
 15 19  1  0
 16 21  1  0
 16 22  1  0
M  RAD  1  16   2
M  END
>  <reaction>  (5) 
rxn_419

>  <mol_properties>  (5) 
{"3": {"label": "*0", "atom_type": "Cs"}, "4": {"label": "*1", "atom_type": "O2s"}, "14": {"label": "*4", "atom_type": "Cs"}, "15": {"label": "*3", "atom_type": "Cs"}, "19": {"label": "*2", "atom_type": "H0"}}

>  <type>  (5) 
unop_1

>  <geom_source>  (5) 
Heuristics

$$$$

     RDKit          3D

 22 20  0  0  0  0  0  0  0  0999 V2000
   -1.8007    0.2412    0.8264 C   0  0  0  0  0  0  0  0  0  0  0  0
   -0.7998    0.5877   -0.2695 C   0  0  0  0  0  0  0  0  0  0  0  0
   -1.4072    1.5276   -1.3058 C   0  0  0  0  0  0  0  0  0  0  0  0
    0.4709    1.2026    0.3108 C   0  0  0  0  0  0  0  0  0  0  0  0
    1.1413    0.3656    1.2311 O   0  0  0  0  0  0  0  0  0  0  0  0
   -2.6756   -0.2642    0.4129 H   0  0  0  0  0  0  0  0  0  0  0  0
   -2.1448    1.1500    1.3286 H   0  0  0  0  0  0  0  0  0  0  0  0
   -1.3515   -0.4062    1.5795 H   0  0  0  0  0  0  0  0  0  0  0  0
   -0.5101   -0.3403   -0.7802 H   0  0  0  0  0  0  0  0  0  0  0  0
   -1.6958    2.4758   -0.8437 H   0  0  0  0  0  0  0  0  0  0  0  0
   -0.7037    1.7477   -2.1116 H   0  0  0  0  0  0  0  0  0  0  0  0
   -2.3028    1.0914   -1.7513 H   0  0  0  0  0  0  0  0  0  0  0  0
    0.2170    2.1096    0.8661 H   0  0  0  0  0  0  0  0  0  0  0  0
    1.1429    1.4967   -0.5064 H   0  0  0  0  0  0  0  0  0  0  0  0
    1.1413   -1.9268   -1.1839 C   0  0  0  0  0  0  0  0  0  0  0  0
    1.1413   -1.9268    0.3389 C   0  0  0  0  0  3  0  0  0  0  0  0
    0.2604   -1.4182   -1.5797 H   0  0  0  0  0  0  0  0  0  0  0  0
    2.0221   -1.4182   -1.5797 H   0  0  0  0  0  0  0  0  0  0  0  0
    1.1413   -2.9439   -1.5797 H   0  0  0  0  0  0  0  0  0  0  0  0
    1.1413   -0.7063    0.8139 H   0  0  0  0  0  0  0  0  0  0  0  0
    2.0221   -2.4353    0.7348 H   0  0  0  0  0  0  0  0  0  0  0  0
    0.2604   -2.4353    0.7348 H   0  0  0  0  0  0  0  0  0  0  0  0
  1  2  1  0
  1  6  1  0
  1  7  1  0
  1  8  1  0
  2  3  1  0
  2  4  1  0
  2  9  1  0
  3 10  1  0
  3 11  1  0
  3 12  1  0
  4  5  1  0
  4 13  1  0
  4 14  1  0
  5 20  1  0
 15 16  1  0
 15 17  1  0
 15 18  1  0
 15 19  1  0
 16 21  1  0
 16 22  1  0
M  RAD  1  16   2
M  END
>  <reaction>  (6) 
rxn_419

>  <mol_properties>  (6) 
{"3": {"label": "*0", "atom_type": "Cs"}, "4": {"label": "*1", "atom_type": "O2s"}, "14": {"label": "*4", "atom_type": "Cs"}, "15": {"label": "*3", "atom_type": "Cs"}, "19": {"label": "*2", "atom_type": "H0"}}

>  <type>  (6) 
unop_2

>  <geom_source>  (6) 
Heuristics

$$$$

     RDKit          3D

 22 20  0  0  0  0  0  0  0  0999 V2000
    1.1579   -0.3835    1.5298 C   0  0  0  0  0  0  0  0  0  0  0  0
   -0.3047   -0.0614    1.2474 C   0  0  0  0  0  0  0  0  0  0  0  0
   -1.1229   -0.0002    2.5331 C   0  0  0  0  0  0  0  0  0  0  0  0
   -0.4477    1.2475    0.4755 C   0  0  0  0  0  0  0  0  0  0  0  0
    0.2227    1.2528   -0.7685 O   0  0  0  0  0  0  0  0  0  0  0  0
    1.2584   -1.3553    2.0171 H   0  0  0  0  0  0  0  0  0  0  0  0
    1.5925    0.3703    2.1926 H   0  0  0  0  0  0  0  0  0  0  0  0
    1.7430   -0.3961    0.6102 H   0  0  0  0  0  0  0  0  0  0  0  0
   -0.7199   -0.8594    0.6175 H   0  0  0  0  0  0  0  0  0  0  0  0
   -0.7547    0.7956    3.1866 H   0  0  0  0  0  0  0  0  0  0  0  0
   -2.1783    0.1940    2.3302 H   0  0  0  0  0  0  0  0  0  0  0  0
   -1.0539   -0.9390    3.0850 H   0  0  0  0  0  0  0  0  0  0  0  0
   -0.0050    2.0629    1.0539 H   0  0  0  0  0  0  0  0  0  0  0  0
   -1.5125    1.4813    0.3429 H   0  0  0  0  0  0  0  0  0  0  0  0
    0.2227   -1.0396   -3.1834 C   0  0  0  0  0  0  0  0  0  0  0  0
    0.2227   -1.0396   -1.6606 C   0  0  0  0  0  3  0  0  0  0  0  0
   -0.6582   -0.5310   -3.5793 H   0  0  0  0  0  0  0  0  0  0  0  0
    1.1035   -0.5311   -3.5793 H   0  0  0  0  0  0  0  0  0  0  0  0
    0.2227   -2.0567   -3.5793 H   0  0  0  0  0  0  0  0  0  0  0  0
    0.2227    0.1809   -1.1856 H   0  0  0  0  0  0  0  0  0  0  0  0
    1.1035   -1.5482   -1.2648 H   0  0  0  0  0  0  0  0  0  0  0  0
   -0.6582   -1.5482   -1.2648 H   0  0  0  0  0  0  0  0  0  0  0  0
  1  2  1  0
  1  6  1  0
  1  7  1  0
  1  8  1  0
  2  3  1  0
  2  4  1  0
  2  9  1  0
  3 10  1  0
  3 11  1  0
  3 12  1  0
  4  5  1  0
  4 13  1  0
  4 14  1  0
  5 20  1  0
 15 16  1  0
 15 17  1  0
 15 18  1  0
 15 19  1  0
 16 21  1  0
 16 22  1  0
M  RAD  1  16   2
M  END
>  <reaction>  (7) 
rxn_419

>  <mol_properties>  (7) 
{"3": {"label": "*0", "atom_type": "Cs"}, "4": {"label": "*1", "atom_type": "O2s"}, "14": {"label": "*4", "atom_type": "Cs"}, "15": {"label": "*3", "atom_type": "Cs"}, "19": {"label": "*2", "atom_type": "H0"}}

>  <type>  (7) 
unop_3

>  <geom_source>  (7) 
Heuristics

$$$$

     RDKit          3D

 22 20  0  0  0  0  0  0  0  0999 V2000
   -0.7121    2.2925   -0.1432 C   0  0  0  0  0  0  0  0  0  0  0  0
    0.3325    1.2156   -0.4114 C   0  0  0  0  0  0  0  0  0  0  0  0
    1.6517    1.8199   -0.8813 C   0  0  0  0  0  0  0  0  0  0  0  0
    0.5665    0.3472    0.8216 C   0  0  0  0  0  0  0  0  0  0  0  0
   -0.5946   -0.3118    1.2846 O   0  0  0  0  0  0  0  0  0  0  0  0
   -0.9284    2.8632   -1.0484 H   0  0  0  0  0  0  0  0  0  0  0  0
   -0.3509    2.9922    0.6159 H   0  0  0  0  0  0  0  0  0  0  0  0
   -1.6425    1.8565    0.2209 H   0  0  0  0  0  0  0  0  0  0  0  0
   -0.0434    0.5588   -1.2072 H   0  0  0  0  0  0  0  0  0  0  0  0
    2.0737    2.4705   -0.1102 H   0  0  0  0  0  0  0  0  0  0  0  0
    2.3899    1.0480   -1.1095 H   0  0  0  0  0  0  0  0  0  0  0  0
    1.5072    2.4228   -1.7792 H   0  0  0  0  0  0  0  0  0  0  0  0
    0.9018    0.9747    1.6519 H   0  0  0  0  0  0  0  0  0  0  0  0
    1.3664   -0.3763    0.6149 H   0  0  0  0  0  0  0  0  0  0  0  0
   -0.5946   -2.6042   -1.1304 C   0  0  0  0  0  0  0  0  0  0  0  0
   -0.5946   -2.6042    0.3924 C   0  0  0  0  0  3  0  0  0  0  0  0
   -1.4755   -2.0956   -1.5263 H   0  0  0  0  0  0  0  0  0  0  0  0
    0.2862   -2.0956   -1.5263 H   0  0  0  0  0  0  0  0  0  0  0  0
   -0.5946   -3.6213   -1.5263 H   0  0  0  0  0  0  0  0  0  0  0  0
   -0.5946   -1.3836    0.8674 H   0  0  0  0  0  0  0  0  0  0  0  0
    0.2862   -3.1127    0.7882 H   0  0  0  0  0  0  0  0  0  0  0  0
   -1.4755   -3.1127    0.7882 H   0  0  0  0  0  0  0  0  0  0  0  0
  1  2  1  0
  1  6  1  0
  1  7  1  0
  1  8  1  0
  2  3  1  0
  2  4  1  0
  2  9  1  0
  3 10  1  0
  3 11  1  0
  3 12  1  0
  4  5  1  0
  4 13  1  0
  4 14  1  0
  5 20  1  0
 15 16  1  0
 15 17  1  0
 15 18  1  0
 15 19  1  0
 16 21  1  0
 16 22  1  0
M  RAD  1  16   2
M  END
>  <reaction>  (8) 
rxn_419

>  <mol_properties>  (8) 
{"3": {"label": "*0", "atom_type": "Cs"}, "4": {"label": "*1", "atom_type": "O2s"}, "14": {"label": "*4", "atom_type": "Cs"}, "15": {"label": "*3", "atom_type": "Cs"}, "19": {"label": "*2", "atom_type": "H0"}}

>  <type>  (8) 
unop_4

>  <geom_source>  (8) 
Heuristics

$$$$

     RDKit          3D

 22 20  0  0  0  0  0  0  0  0999 V2000
    1.8291    0.8794    0.8700 C   0  0  0  0  0  0  0  0  0  0  0  0
    0.5545    0.1500    1.2782 C   0  0  0  0  0  0  0  0  0  0  0  0
    0.4278    0.0505    2.7949 C   0  0  0  0  0  0  0  0  0  0  0  0
   -0.6841    0.8241    0.6945 C   0  0  0  0  0  0  0  0  0  0  0  0
   -0.6841    0.8946   -0.7168 O   0  0  0  0  0  0  0  0  0  0  0  0
    2.7148    0.3518    1.2291 H   0  0  0  0  0  0  0  0  0  0  0  0
    1.8437    1.8870    1.2952 H   0  0  0  0  0  0  0  0  0  0  0  0
    1.8988    0.9737   -0.2137 H   0  0  0  0  0  0  0  0  0  0  0  0
    0.5937   -0.8696    0.8724 H   0  0  0  0  0  0  0  0  0  0  0  0
    0.3675    1.0463    3.2427 H   0  0  0  0  0  0  0  0  0  0  0  0
   -0.4660   -0.5040    3.0890 H   0  0  0  0  0  0  0  0  0  0  0  0
    1.2936   -0.4539    3.2269 H   0  0  0  0  0  0  0  0  0  0  0  0
   -0.7348    1.8593    1.0426 H   0  0  0  0  0  0  0  0  0  0  0  0
   -1.5858    0.3127    1.0571 H   0  0  0  0  0  0  0  0  0  0  0  0
   -0.6841   -1.3978   -3.1318 C   0  0  0  0  0  0  0  0  0  0  0  0
   -0.6841   -1.3978   -1.6090 C   0  0  0  0  0  3  0  0  0  0  0  0
   -1.5650   -0.8893   -3.5276 H   0  0  0  0  0  0  0  0  0  0  0  0
    0.1967   -0.8893   -3.5276 H   0  0  0  0  0  0  0  0  0  0  0  0
   -0.6841   -2.4149   -3.5276 H   0  0  0  0  0  0  0  0  0  0  0  0
   -0.6841   -0.1773   -1.1340 H   0  0  0  0  0  0  0  0  0  0  0  0
    0.1967   -1.9064   -1.2131 H   0  0  0  0  0  0  0  0  0  0  0  0
   -1.5650   -1.9064   -1.2131 H   0  0  0  0  0  0  0  0  0  0  0  0
  1  2  1  0
  1  6  1  0
  1  7  1  0
  1  8  1  0
  2  3  1  0
  2  4  1  0
  2  9  1  0
  3 10  1  0
  3 11  1  0
  3 12  1  0
  4  5  1  0
  4 13  1  0
  4 14  1  0
  5 20  1  0
 15 16  1  0
 15 17  1  0
 15 18  1  0
 15 19  1  0
 16 21  1  0
 16 22  1  0
M  RAD  1  16   2
M  END
>  <reaction>  (9) 
rxn_419

>  <mol_properties>  (9) 
{"3": {"label": "*0", "atom_type": "Cs"}, "4": {"label": "*1", "atom_type": "O2s"}, "14": {"label": "*4", "atom_type": "Cs"}, "15": {"label": "*3", "atom_type": "Cs"}, "19": {"label": "*2", "atom_type": "H0"}}

>  <type>  (9) 
unop_5

>  <geom_source>  (9) 
Heuristics

$$$$

     RDKit          3D

 22 20  0  0  0  0  0  0  0  0999 V2000
   -0.0858    2.4535   -0.1018 C   0  0  0  0  0  0  0  0  0  0  0  0
    0.7722    1.1939   -0.0970 C   0  0  0  0  0  0  0  0  0  0  0  0
    2.2468    1.5218    0.1136 C   0  0  0  0  0  0  0  0  0  0  0  0
    0.3015    0.2034    0.9645 C   0  0  0  0  0  0  0  0  0  0  0  0
   -1.0393   -0.2124    0.8026 O   0  0  0  0  0  0  0  0  0  0  0  0
    0.2090    3.1257   -0.9100 H   0  0  0  0  0  0  0  0  0  0  0  0
    0.0271    2.9945    0.8421 H   0  0  0  0  0  0  0  0  0  0  0  0
   -1.1415    2.2103   -0.2225 H   0  0  0  0  0  0  0  0  0  0  0  0
    0.6693    0.7008   -1.0728 H   0  0  0  0  0  0  0  0  0  0  0  0
    2.4002    2.0005    1.0849 H   0  0  0  0  0  0  0  0  0  0  0  0
    2.8679    0.6241    0.0806 H   0  0  0  0  0  0  0  0  0  0  0  0
    2.6077    2.2087   -0.6536 H   0  0  0  0  0  0  0  0  0  0  0  0
    0.3485    0.6744    1.9500 H   0  0  0  0  0  0  0  0  0  0  0  0
    0.9763   -0.6628    0.9836 H   0  0  0  0  0  0  0  0  0  0  0  0
   -1.0393   -2.5048   -1.6123 C   0  0  0  0  0  0  0  0  0  0  0  0
   -1.0393   -2.5048   -0.0895 C   0  0  0  0  0  3  0  0  0  0  0  0
   -1.9201   -1.9963   -2.0082 H   0  0  0  0  0  0  0  0  0  0  0  0
   -0.1585   -1.9963   -2.0082 H   0  0  0  0  0  0  0  0  0  0  0  0
   -1.0393   -3.5220   -2.0082 H   0  0  0  0  0  0  0  0  0  0  0  0
   -1.0393   -1.2843    0.3855 H   0  0  0  0  0  0  0  0  0  0  0  0
   -0.1585   -3.0134    0.3063 H   0  0  0  0  0  0  0  0  0  0  0  0
   -1.9201   -3.0134    0.3063 H   0  0  0  0  0  0  0  0  0  0  0  0
  1  2  1  0
  1  6  1  0
  1  7  1  0
  1  8  1  0
  2  3  1  0
  2  4  1  0
  2  9  1  0
  3 10  1  0
  3 11  1  0
  3 12  1  0
  4  5  1  0
  4 13  1  0
  4 14  1  0
  5 20  1  0
 15 16  1  0
 15 17  1  0
 15 18  1  0
 15 19  1  0
 16 21  1  0
 16 22  1  0
M  RAD  1  16   2
M  END
>  <reaction>  (10) 
rxn_419

>  <mol_properties>  (10) 
{"3": {"label": "*0", "atom_type": "Cs"}, "4": {"label": "*1", "atom_type": "O2s"}, "14": {"label": "*4", "atom_type": "Cs"}, "15": {"label": "*3", "atom_type": "Cs"}, "19": {"label": "*2", "atom_type": "H0"}}

>  <type>  (10) 
unop_6

>  <geom_source>  (10) 
Heuristics

$$$$

     RDKit          3D

 22 20  0  0  0  0  0  0  0  0999 V2000
    0.5150    2.4154    0.0155 C   0  0  0  0  0  0  0  0  0  0  0  0
    1.0325    1.0226    0.3550 C   0  0  0  0  0  0  0  0  0  0  0  0
    2.2713    1.0866    1.2425 C   0  0  0  0  0  0  0  0  0  0  0  0
   -0.0459    0.1758    1.0253 C   0  0  0  0  0  0  0  0  0  0  0  0
   -1.2071    0.0031    0.2387 O   0  0  0  0  0  0  0  0  0  0  0  0
    1.2664    2.9910   -0.5285 H   0  0  0  0  0  0  0  0  0  0  0  0
    0.2699    2.9635    0.9297 H   0  0  0  0  0  0  0  0  0  0  0  0
   -0.3873    2.3624   -0.5937 H   0  0  0  0  0  0  0  0  0  0  0  0
    1.3097    0.5184   -0.5803 H   0  0  0  0  0  0  0  0  0  0  0  0
    2.0374    1.5674    2.1965 H   0  0  0  0  0  0  0  0  0  0  0  0
    2.6655    0.0908    1.4567 H   0  0  0  0  0  0  0  0  0  0  0  0
    3.0635    1.6663    0.7661 H   0  0  0  0  0  0  0  0  0  0  0  0
   -0.3801    0.6689    1.9422 H   0  0  0  0  0  0  0  0  0  0  0  0
    0.3761   -0.7966    1.3121 H   0  0  0  0  0  0  0  0  0  0  0  0
   -1.2071   -2.2893   -2.1762 C   0  0  0  0  0  0  0  0  0  0  0  0
   -1.2071   -2.2893   -0.6535 C   0  0  0  0  0  3  0  0  0  0  0  0
   -2.0879   -1.7807   -2.5721 H   0  0  0  0  0  0  0  0  0  0  0  0
   -0.3262   -1.7807   -2.5721 H   0  0  0  0  0  0  0  0  0  0  0  0
   -1.2071   -3.3064   -2.5721 H   0  0  0  0  0  0  0  0  0  0  0  0
   -1.2071   -1.0687   -0.1784 H   0  0  0  0  0  0  0  0  0  0  0  0
   -0.3262   -2.7978   -0.2576 H   0  0  0  0  0  0  0  0  0  0  0  0
   -2.0879   -2.7978   -0.2576 H   0  0  0  0  0  0  0  0  0  0  0  0
  1  2  1  0
  1  6  1  0
  1  7  1  0
  1  8  1  0
  2  3  1  0
  2  4  1  0
  2  9  1  0
  3 10  1  0
  3 11  1  0
  3 12  1  0
  4  5  1  0
  4 13  1  0
  4 14  1  0
  5 20  1  0
 15 16  1  0
 15 17  1  0
 15 18  1  0
 15 19  1  0
 16 21  1  0
 16 22  1  0
M  RAD  1  16   2
M  END
>  <reaction>  (11) 
rxn_419

>  <mol_properties>  (11) 
{"3": {"label": "*0", "atom_type": "Cs"}, "4": {"label": "*1", "atom_type": "O2s"}, "14": {"label": "*4", "atom_type": "Cs"}, "15": {"label": "*3", "atom_type": "Cs"}, "19": {"label": "*2", "atom_type": "H0"}}

>  <type>  (11) 
unop_7

>  <geom_source>  (11) 
Heuristics

$$$$

     RDKit          3D

 22 20  0  0  0  0  0  0  0  0999 V2000
   -0.6945   -0.7099    1.5612 C   0  0  0  0  0  0  0  0  0  0  0  0
   -1.0088    0.2348    0.4072 C   0  0  0  0  0  0  0  0  0  0  0  0
   -2.4293    0.7819    0.5026 C   0  0  0  0  0  0  0  0  0  0  0  0
   -0.0096    1.3866    0.3425 C   0  0  0  0  0  0  0  0  0  0  0  0
    1.3312    0.9708    0.1806 O   0  0  0  0  0  0  0  0  0  0  0  0
   -1.3673   -1.5697    1.5583 H   0  0  0  0  0  0  0  0  0  0  0  0
   -0.8137   -0.1942    2.5184 H   0  0  0  0  0  0  0  0  0  0  0  0
    0.3313   -1.0738    1.5038 H   0  0  0  0  0  0  0  0  0  0  0  0
   -0.9226   -0.3260   -0.5330 H   0  0  0  0  0  0  0  0  0  0  0  0
   -2.5570    1.3648    1.4190 H   0  0  0  0  0  0  0  0  0  0  0  0
   -2.6691    1.4301   -0.3431 H   0  0  0  0  0  0  0  0  0  0  0  0
   -3.1596   -0.0287    0.5225 H   0  0  0  0  0  0  0  0  0  0  0  0
   -0.0350    1.9454    1.2819 H   0  0  0  0  0  0  0  0  0  0  0  0
   -0.2997    2.0799   -0.4582 H   0  0  0  0  0  0  0  0  0  0  0  0
    1.3312   -1.3216   -2.2343 C   0  0  0  0  0  0  0  0  0  0  0  0
    1.3312   -1.3216   -0.7116 C   0  0  0  0  0  3  0  0  0  0  0  0
    0.4503   -0.8130   -2.6302 H   0  0  0  0  0  0  0  0  0  0  0  0
    2.2120   -0.8130   -2.6302 H   0  0  0  0  0  0  0  0  0  0  0  0
    1.3312   -2.3387   -2.6302 H   0  0  0  0  0  0  0  0  0  0  0  0
    1.3312   -0.1011   -0.2365 H   0  0  0  0  0  0  0  0  0  0  0  0
    2.2120   -1.8302   -0.3157 H   0  0  0  0  0  0  0  0  0  0  0  0
    0.4503   -1.8302   -0.3157 H   0  0  0  0  0  0  0  0  0  0  0  0
  1  2  1  0
  1  6  1  0
  1  7  1  0
  1  8  1  0
  2  3  1  0
  2  4  1  0
  2  9  1  0
  3 10  1  0
  3 11  1  0
  3 12  1  0
  4  5  1  0
  4 13  1  0
  4 14  1  0
  5 20  1  0
 15 16  1  0
 15 17  1  0
 15 18  1  0
 15 19  1  0
 16 21  1  0
 16 22  1  0
M  RAD  1  16   2
M  END
>  <reaction>  (12) 
rxn_419

>  <mol_properties>  (12) 
{"3": {"label": "*0", "atom_type": "Cs"}, "4": {"label": "*1", "atom_type": "O2s"}, "14": {"label": "*4", "atom_type": "Cs"}, "15": {"label": "*3", "atom_type": "Cs"}, "19": {"label": "*2", "atom_type": "H0"}}

>  <type>  (12) 
unop_8

>  <geom_source>  (12) 
Heuristics

$$$$

     RDKit          3D

 22 20  0  0  0  0  0  0  0  0999 V2000
   -1.3727    1.8520   -0.0203 C   0  0  0  0  0  0  0  0  0  0  0  0
   -0.1623    1.0761   -0.5262 C   0  0  0  0  0  0  0  0  0  0  0  0
    0.6651    1.9043   -1.5038 C   0  0  0  0  0  0  0  0  0  0  0  0
    0.7161    0.6001    0.6275 C   0  0  0  0  0  0  0  0  0  0  0  0
    0.0457   -0.2369    1.5478 O   0  0  0  0  0  0  0  0  0  0  0  0
   -2.0346    2.1266   -0.8439 H   0  0  0  0  0  0  0  0  0  0  0  0
   -1.0539    2.7736    0.4751 H   0  0  0  0  0  0  0  0  0  0  0  0
   -1.9428    1.2660    0.7004 H   0  0  0  0  0  0  0  0  0  0  0  0
   -0.5199    0.1826   -1.0550 H   0  0  0  0  0  0  0  0  0  0  0  0
    1.0582    2.7995   -1.0138 H   0  0  0  0  0  0  0  0  0  0  0  0
    1.5122    1.3373   -1.8959 H   0  0  0  0  0  0  0  0  0  0  0  0
    0.0585    2.2306   -2.3501 H   0  0  0  0  0  0  0  0  0  0  0  0
    1.0579    1.4625    1.2062 H   0  0  0  0  0  0  0  0  0  0  0  0
    1.6084    0.1002    0.2278 H   0  0  0  0  0  0  0  0  0  0  0  0
    0.0457   -2.5293   -0.8672 C   0  0  0  0  0  0  0  0  0  0  0  0
    0.0457   -2.5293    0.6556 C   0  0  0  0  0  3  0  0  0  0  0  0
   -0.8351   -2.0207   -1.2630 H   0  0  0  0  0  0  0  0  0  0  0  0
    0.9265   -2.0207   -1.2630 H   0  0  0  0  0  0  0  0  0  0  0  0
    0.0457   -3.5464   -1.2630 H   0  0  0  0  0  0  0  0  0  0  0  0
    0.0457   -1.3087    1.1307 H   0  0  0  0  0  0  0  0  0  0  0  0
    0.9265   -3.0378    1.0515 H   0  0  0  0  0  0  0  0  0  0  0  0
   -0.8351   -3.0378    1.0515 H   0  0  0  0  0  0  0  0  0  0  0  0
  1  2  1  0
  1  6  1  0
  1  7  1  0
  1  8  1  0
  2  3  1  0
  2  4  1  0
  2  9  1  0
  3 10  1  0
  3 11  1  0
  3 12  1  0
  4  5  1  0
  4 13  1  0
  4 14  1  0
  5 20  1  0
 15 16  1  0
 15 17  1  0
 15 18  1  0
 15 19  1  0
 16 21  1  0
 16 22  1  0
M  RAD  1  16   2
M  END
>  <reaction>  (13) 
rxn_419

>  <mol_properties>  (13) 
{"3": {"label": "*0", "atom_type": "Cs"}, "4": {"label": "*1", "atom_type": "O2s"}, "14": {"label": "*4", "atom_type": "Cs"}, "15": {"label": "*3", "atom_type": "Cs"}, "19": {"label": "*2", "atom_type": "H0"}}

>  <type>  (13) 
unop_9

>  <geom_source>  (13) 
Heuristics

$$$$

     RDKit          3D

 22 20  0  0  0  0  0  0  0  0999 V2000
   -1.3610   -0.3753    1.2593 C   0  0  0  0  0  0  0  0  0  0  0  0
   -0.9610    0.4067    0.0138 C   0  0  0  0  0  0  0  0  0  0  0  0
   -2.1365    1.1960   -0.5533 C   0  0  0  0  0  0  0  0  0  0  0  0
    0.2089    1.3451    0.2971 C   0  0  0  0  0  0  0  0  0  0  0  0
    1.3700    0.6861    0.7600 O   0  0  0  0  0  0  0  0  0  0  0  0
   -2.1487   -1.0966    1.0332 H   0  0  0  0  0  0  0  0  0  0  0  0
   -1.7387    0.3031    2.0296 H   0  0  0  0  0  0  0  0  0  0  0  0
   -0.5097   -0.9130    1.6768 H   0  0  0  0  0  0  0  0  0  0  0  0
   -0.6295   -0.3071   -0.7520 H   0  0  0  0  0  0  0  0  0  0  0  0
   -2.4902    1.9345    0.1716 H   0  0  0  0  0  0  0  0  0  0  0  0
   -1.8617    1.7278   -1.4668 H   0  0  0  0  0  0  0  0  0  0  0  0
   -2.9734    0.5360   -0.7874 H   0  0  0  0  0  0  0  0  0  0  0  0
   -0.0689    2.0465    1.0885 H   0  0  0  0  0  0  0  0  0  0  0  0
    0.4310    1.9367   -0.6010 H   0  0  0  0  0  0  0  0  0  0  0  0
    1.3700   -1.6063   -1.6550 C   0  0  0  0  0  0  0  0  0  0  0  0
    1.3700   -1.6063   -0.1322 C   0  0  0  0  0  3  0  0  0  0  0  0
    0.4892   -1.0978   -2.0508 H   0  0  0  0  0  0  0  0  0  0  0  0
    2.2509   -1.0978   -2.0508 H   0  0  0  0  0  0  0  0  0  0  0  0
    1.3700   -2.6234   -2.0508 H   0  0  0  0  0  0  0  0  0  0  0  0
    1.3700   -0.3858    0.3428 H   0  0  0  0  0  0  0  0  0  0  0  0
    2.2509   -2.1149    0.2637 H   0  0  0  0  0  0  0  0  0  0  0  0
    0.4892   -2.1149    0.2637 H   0  0  0  0  0  0  0  0  0  0  0  0
  1  2  1  0
  1  6  1  0
  1  7  1  0
  1  8  1  0
  2  3  1  0
  2  4  1  0
  2  9  1  0
  3 10  1  0
  3 11  1  0
  3 12  1  0
  4  5  1  0
  4 13  1  0
  4 14  1  0
  5 20  1  0
 15 16  1  0
 15 17  1  0
 15 18  1  0
 15 19  1  0
 16 21  1  0
 16 22  1  0
M  RAD  1  16   2
M  END
>  <reaction>  (14) 
rxn_419

>  <mol_properties>  (14) 
{"3": {"label": "*0", "atom_type": "Cs"}, "4": {"label": "*1", "atom_type": "O2s"}, "14": {"label": "*4", "atom_type": "Cs"}, "15": {"label": "*3", "atom_type": "Cs"}, "19": {"label": "*2", "atom_type": "H0"}}

>  <type>  (14) 
unop_10

>  <geom_source>  (14) 
Heuristics

$$$$

     RDKit          3D

 22 20  0  0  0  0  0  0  0  0999 V2000
    1.2438    2.0589    0.2459 C   0  0  0  0  0  0  0  0  0  0  0  0
    1.0329    0.6791    0.8581 C   0  0  0  0  0  0  0  0  0  0  0  0
    1.6846    0.5710    2.2328 C   0  0  0  0  0  0  0  0  0  0  0  0
   -0.4506    0.3339    0.9557 C   0  0  0  0  0  0  0  0  0  0  0  0
   -1.1210    0.3393   -0.2882 O   0  0  0  0  0  0  0  0  0  0  0  0
    2.3064    2.2699    0.1114 H   0  0  0  0  0  0  0  0  0  0  0  0
    0.8284    2.8322    0.8984 H   0  0  0  0  0  0  0  0  0  0  0  0
    0.7503    2.1394   -0.7227 H   0  0  0  0  0  0  0  0  0  0  0  0
    1.4995   -0.0666    0.2008 H   0  0  0  0  0  0  0  0  0  0  0  0
    1.2373    1.2864    2.9286 H   0  0  0  0  0  0  0  0  0  0  0  0
    1.5664   -0.4283    2.6573 H   0  0  0  0  0  0  0  0  0  0  0  0
    2.7525    0.7884    2.1770 H   0  0  0  0  0  0  0  0  0  0  0  0
   -0.9599    1.0816    1.5697 H   0  0  0  0  0  0  0  0  0  0  0  0
   -0.5698   -0.6363    1.4561 H   0  0  0  0  0  0  0  0  0  0  0  0
   -1.1210   -1.9531   -2.7032 C   0  0  0  0  0  0  0  0  0  0  0  0
   -1.1210   -1.9531   -1.1804 C   0  0  0  0  0  3  0  0  0  0  0  0
   -2.0018   -1.4446   -3.0990 H   0  0  0  0  0  0  0  0  0  0  0  0
   -0.2401   -1.4446   -3.0990 H   0  0  0  0  0  0  0  0  0  0  0  0
   -1.1210   -2.9703   -3.0990 H   0  0  0  0  0  0  0  0  0  0  0  0
   -1.1210   -0.7326   -0.7054 H   0  0  0  0  0  0  0  0  0  0  0  0
   -0.2402   -2.4617   -0.7846 H   0  0  0  0  0  0  0  0  0  0  0  0
   -2.0018   -2.4617   -0.7846 H   0  0  0  0  0  0  0  0  0  0  0  0
  1  2  1  0
  1  6  1  0
  1  7  1  0
  1  8  1  0
  2  3  1  0
  2  4  1  0
  2  9  1  0
  3 10  1  0
  3 11  1  0
  3 12  1  0
  4  5  1  0
  4 13  1  0
  4 14  1  0
  5 20  1  0
 15 16  1  0
 15 17  1  0
 15 18  1  0
 15 19  1  0
 16 21  1  0
 16 22  1  0
M  RAD  1  16   2
M  END
>  <reaction>  (15) 
rxn_419

>  <mol_properties>  (15) 
{"3": {"label": "*0", "atom_type": "Cs"}, "4": {"label": "*1", "atom_type": "O2s"}, "14": {"label": "*4", "atom_type": "Cs"}, "15": {"label": "*3", "atom_type": "Cs"}, "19": {"label": "*2", "atom_type": "H0"}}

>  <type>  (15) 
unop_11

>  <geom_source>  (15) 
Heuristics

$$$$

     RDKit          3D

 22 20  0  0  0  0  0  0  0  0999 V2000
   -1.8291    1.0861    0.3387 C   0  0  0  0  0  0  0  0  0  0  0  0
   -0.5545    0.8246   -0.4551 C   0  0  0  0  0  0  0  0  0  0  0  0
   -0.4278    1.7765   -1.6401 C   0  0  0  0  0  0  0  0  0  0  0  0
    0.6841    0.9268    0.4306 C   0  0  0  0  0  0  0  0  0  0  0  0
    0.6841    0.0247    1.5183 O   0  0  0  0  0  0  0  0  0  0  0  0
   -2.7148    0.9401   -0.2826 H   0  0  0  0  0  0  0  0  0  0  0  0
   -1.8437    2.1161    0.7065 H   0  0  0  0  0  0  0  0  0  0  0  0
   -1.8988    0.4231    1.2010 H   0  0  0  0  0  0  0  0  0  0  0  0
   -0.5937   -0.2011   -0.8453 H   0  0  0  0  0  0  0  0  0  0  0  0
   -0.3675    2.8131   -1.2969 H   0  0  0  0  0  0  0  0  0  0  0  0
    0.4660    1.5667   -2.2316 H   0  0  0  0  0  0  0  0  0  0  0  0
   -1.2936    1.6968   -2.2994 H   0  0  0  0  0  0  0  0  0  0  0  0
    0.7348    1.9250    0.8739 H   0  0  0  0  0  0  0  0  0  0  0  0
    1.5858    0.7950   -0.1822 H   0  0  0  0  0  0  0  0  0  0  0  0
    0.6841   -2.2677   -0.8966 C   0  0  0  0  0  0  0  0  0  0  0  0
    0.6841   -2.2677    0.6261 C   0  0  0  0  0  3  0  0  0  0  0  0
   -0.1967   -1.7592   -1.2925 H   0  0  0  0  0  0  0  0  0  0  0  0
    1.5650   -1.7592   -1.2925 H   0  0  0  0  0  0  0  0  0  0  0  0
    0.6841   -3.2848   -1.2925 H   0  0  0  0  0  0  0  0  0  0  0  0
    0.6841   -1.0472    1.1012 H   0  0  0  0  0  0  0  0  0  0  0  0
    1.5650   -2.7763    1.0220 H   0  0  0  0  0  0  0  0  0  0  0  0
   -0.1967   -2.7763    1.0220 H   0  0  0  0  0  0  0  0  0  0  0  0
  1  2  1  0
  1  6  1  0
  1  7  1  0
  1  8  1  0
  2  3  1  0
  2  4  1  0
  2  9  1  0
  3 10  1  0
  3 11  1  0
  3 12  1  0
  4  5  1  0
  4 13  1  0
  4 14  1  0
  5 20  1  0
 15 16  1  0
 15 17  1  0
 15 18  1  0
 15 19  1  0
 16 21  1  0
 16 22  1  0
M  RAD  1  16   2
M  END
>  <reaction>  (16) 
rxn_419

>  <mol_properties>  (16) 
{"3": {"label": "*0", "atom_type": "Cs"}, "4": {"label": "*1", "atom_type": "O2s"}, "14": {"label": "*4", "atom_type": "Cs"}, "15": {"label": "*3", "atom_type": "Cs"}, "19": {"label": "*2", "atom_type": "H0"}}

>  <type>  (16) 
unop_12

>  <geom_source>  (16) 
Heuristics

$$$$

     RDKit          3D

 22 20  0  0  0  0  0  0  0  0999 V2000
   -0.0536   -1.1409   -0.7406 O   0  0  0  0  0  0  0  0  0  0  0  0
   -1.8241    0.3752   -0.0594 C   0  0  0  0  0  0  0  0  0  0  0  0
   -0.9716   -0.1910   -1.2089 C   0  0  0  0  0  0  0  0  0  0  0  0
   -2.6354   -0.7294    0.6292 C   0  0  0  0  0  0  0  0  0  0  0  0
   -0.9628    1.1320    0.9593 C   0  0  0  0  0  0  0  0  0  0  0  0
    3.3062    0.3864   -0.0951 C   0  0  0  0  0  0  0  0  0  0  0  0
    2.2247   -0.6703   -0.2235 C   0  0  0  0  0  3  0  0  0  0  0  0
   -2.5436    1.1007   -0.4996 H   0  0  0  0  0  0  0  0  0  0  0  0
   -1.6356   -0.6775   -1.9548 H   0  0  0  0  0  0  0  0  0  0  0  0
   -0.4410    0.6348   -1.7337 H   0  0  0  0  0  0  0  0  0  0  0  0
   -3.2760   -1.2529   -0.1122 H   0  0  0  0  0  0  0  0  0  0  0  0
   -1.9637   -1.4715    1.1116 H   0  0  0  0  0  0  0  0  0  0  0  0
   -3.2960   -0.2891    1.4064 H   0  0  0  0  0  0  0  0  0  0  0  0
   -0.2594    0.4430    1.4738 H   0  0  0  0  0  0  0  0  0  0  0  0
   -0.3799    1.9297    0.4515 H   0  0  0  0  0  0  0  0  0  0  0  0
   -1.6112    1.6112    1.7236 H   0  0  0  0  0  0  0  0  0  0  0  0
    3.1177    1.0038    0.8077 H   0  0  0  0  0  0  0  0  0  0  0  0
    4.3010   -0.0989   -0.0072 H   0  0  0  0  0  0  0  0  0  0  0  0
    3.2949    1.0411   -0.9913 H   0  0  0  0  0  0  0  0  0  0  0  0
    2.4014   -1.2869   -1.1298 H   0  0  0  0  0  0  0  0  0  0  0  0
    2.2238   -1.3243    0.6738 H   0  0  0  0  0  0  0  0  0  0  0  0
    0.9842   -0.5252   -0.4808 H   0  0  0  0  0  0  0  0  0  0  0  0
  1  3  1  0
  1 22  1  0
  2  4  1  0
  2  5  1  0
  2  3  1  0
  2  8  1  0
  3  9  1  0
  3 10  1  0
  4 11  1  0
  4 12  1  0
  4 13  1  0
  5 14  1  0
  5 15  1  0
  5 16  1  0
  6  7  1  0
  6 17  1  0
  6 18  1  0
  6 19  1  0
  7 20  1  0
  7 21  1  0
M  RAD  1   7   2
M  END
>  <reaction>  (17) 
rxn_419

>  <mol_properties>  (17) 
{"3": {"label": "*0", "atom_type": "Cs"}, "4": {"label": "*1", "atom_type": "O2s"}, "14": {"label": "*4", "atom_type": "Cs"}, "15": {"label": "*3", "atom_type": "Cs"}, "19": {"label": "*2", "atom_type": "H0"}}

>  <type>  (17) 
unop_13

>  <geom_source>  (17) 
AutoTST

$$$$

     RDKit          3D

 22 20  0  0  0  0  0  0  0  0999 V2000
   -1.8007    0.2412    0.8264 C   0  0  0  0  0  0  0  0  0  0  0  0
   -0.7998    0.5877   -0.2695 C   0  0  0  0  0  0  0  0  0  0  0  0
   -1.4072    1.5276   -1.3058 C   0  0  0  0  0  0  0  0  0  0  0  0
    0.4708    1.2026    0.3108 C   0  0  0  0  0  0  0  0  0  0  0  0
    1.1413    0.3656    1.2311 O   0  0  0  0  0  0  0  0  0  0  0  0
   -2.6755   -0.2642    0.4129 H   0  0  0  0  0  0  0  0  0  0  0  0
   -2.1448    1.1500    1.3286 H   0  0  0  0  0  0  0  0  0  0  0  0
   -1.3515   -0.4062    1.5795 H   0  0  0  0  0  0  0  0  0  0  0  0
   -0.5101   -0.3403   -0.7802 H   0  0  0  0  0  0  0  0  0  0  0  0
   -1.6958    2.4758   -0.8437 H   0  0  0  0  0  0  0  0  0  0  0  0
   -0.7037    1.7477   -2.1116 H   0  0  0  0  0  0  0  0  0  0  0  0
   -2.3028    1.0914   -1.7513 H   0  0  0  0  0  0  0  0  0  0  0  0
    0.2170    2.1096    0.8660 H   0  0  0  0  0  0  0  0  0  0  0  0
    1.1429    1.4967   -0.5064 H   0  0  0  0  0  0  0  0  0  0  0  0
    1.1413   -1.9268   -1.1839 C   0  0  0  0  0  0  0  0  0  0  0  0
    1.1413   -1.9268    0.3389 C   0  0  0  0  0  3  0  0  0  0  0  0
    0.2604   -1.4182   -1.5797 H   0  0  0  0  0  0  0  0  0  0  0  0
    2.0221   -1.4182   -1.5797 H   0  0  0  0  0  0  0  0  0  0  0  0
    1.1413   -2.9439   -1.5797 H   0  0  0  0  0  0  0  0  0  0  0  0
    1.1413   -0.7063    0.8139 H   0  0  0  0  0  0  0  0  0  0  0  0
    2.0221   -2.4354    0.7348 H   0  0  0  0  0  0  0  0  0  0  0  0
    0.2604   -2.4354    0.7348 H   0  0  0  0  0  0  0  0  0  0  0  0
  1  2  1  0
  1  6  1  0
  1  7  1  0
  1  8  1  0
  2  3  1  0
  2  4  1  0
  2  9  1  0
  3 10  1  0
  3 11  1  0
  3 12  1  0
  4  5  1  0
  4 13  1  0
  4 14  1  0
  5 20  1  0
 15 16  1  0
 15 17  1  0
 15 18  1  0
 15 19  1  0
 16 21  1  0
 16 22  1  0
M  RAD  1  16   2
M  END
>  <reaction>  (18) 
rxn_419

>  <mol_properties>  (18) 
{"3": {"label": "*0", "atom_type": "Cs"}, "4": {"label": "*1", "atom_type": "O2s"}, "14": {"label": "*4", "atom_type": "Cs"}, "15": {"label": "*3", "atom_type": "Cs"}, "19": {"label": "*2", "atom_type": "H0"}}

>  <type>  (18) 
unop_14

>  <geom_source>  (18) 
gaussian_log

$$$$
