
     RDKit          3D

 10  9  0  0  0  0  0  0  0  0999 V2000
   -1.1508    0.0666    0.2839 C   0  0  0  0  0  0  0  0  0  0  0  0
    0.1022   -0.3749   -0.4771 C   0  0  0  0  0  0  0  0  0  0  0  0
    1.3428    0.1620    0.1542 C   0  0  0  0  0  0  0  0  0  0  0  0
    2.5613   -0.6971    0.7526 S   0  0  0  0  0  0  0  0  0  0  0  0
   -1.2137    1.1546    0.3481 H   0  0  0  0  0  0  0  0  0  0  0  0
   -2.0472   -0.2935   -0.2212 H   0  0  0  0  0  0  0  0  0  0  0  0
   -1.1467   -0.3334    1.2987 H   0  0  0  0  0  0  0  0  0  0  0  0
    0.1602   -1.4616   -0.5369 H   0  0  0  0  0  0  0  0  0  0  0  0
    0.0536    0.0174   -1.4997 H   0  0  0  0  0  0  0  0  0  0  0  0
    1.3824    1.2528    0.2110 H   0  0  0  0  0  0  0  0  0  0  0  0
  1  2  1  0
  1  5  1  0
  1  6  1  0
  1  7  1  0
  2  3  1  0
  2  8  1  0
  2  9  1  0
  3  4  2  0
  3 10  1  0
M  END
>  <reaction>  (1) 
rxn_2002

>  <mol_properties>  (1) 
{"1": {"label": "donator", "atom_type": "Cs"}, "7": {"label": "d_hydrogen", "atom_type": "H0"}}

>  <type>  (1) 
r1h

$$$$

     RDKit          3D

 14 13  0  0  0  0  0  0  0  0999 V2000
    0.7079   -1.6438    1.4652 C   0  0  0  0  0  0  0  0  0  0  0  0
    0.6983   -0.3170    1.1153 C   0  0  0  0  0  0  0  0  0  0  0  0
    1.4436    0.6920    1.7151 C   0  0  0  0  0  3  0  0  0  0  0  0
    2.3699    0.4004    2.8550 C   0  0  0  0  0  0  0  0  0  0  0  0
    1.3495    2.1059    1.2457 C   0  0  0  0  0  0  0  0  0  0  0  0
    0.0923   -2.3608    0.9401 H   0  0  0  0  0  0  0  0  0  0  0  0
    1.3252   -2.0194    2.2712 H   0  0  0  0  0  0  0  0  0  0  0  0
    0.0502   -0.0216    0.2943 H   0  0  0  0  0  0  0  0  0  0  0  0
    3.1408   -0.3217    2.5687 H   0  0  0  0  0  0  0  0  0  0  0  0
    2.8709    1.3048    3.2004 H   0  0  0  0  0  0  0  0  0  0  0  0
    1.8331   -0.0314    3.7054 H   0  0  0  0  0  0  0  0  0  0  0  0
    1.0230    2.7670    2.0562 H   0  0  0  0  0  0  0  0  0  0  0  0
    0.6519    2.2158    0.4152 H   0  0  0  0  0  0  0  0  0  0  0  0
    2.3281    2.4773    0.9217 H   0  0  0  0  0  0  0  0  0  0  0  0
  1  2  2  3
  1  6  1  0
  1  7  1  0
  2  3  1  0
  2  8  1  0
  3  4  1  0
  3  5  1  0
  4  9  1  0
  4 10  1  0
  4 11  1  0
  5 12  1  0
  5 13  1  0
  5 14  1  0
M  RAD  1   3   2
M  END
>  <reaction>  (2) 
rxn_2002

>  <mol_properties>  (2) 
{"2": {"label": "acceptor", "atom_type": "Cs"}}

>  <type>  (2) 
r2

$$$$

     RDKit          3D

 15 14  0  0  0  0  0  0  0  0999 V2000
    2.1256    0.4849   -0.6284 C   0  0  0  0  0  0  0  0  0  0  0  0
    1.1128    0.2141    0.1794 C   0  0  0  0  0  0  0  0  0  0  0  0
   -0.3017   -0.0425   -0.2513 C   0  0  0  0  0  0  0  0  0  0  0  0
   -1.2427    1.0075    0.3423 C   0  0  0  0  0  0  0  0  0  0  0  0
   -0.7381   -1.4526    0.1504 C   0  0  0  0  0  0  0  0  0  0  0  0
    3.1243    0.6602   -0.2486 H   0  0  0  0  0  0  0  0  0  0  0  0
    1.9908    0.5411   -1.7036 H   0  0  0  0  0  0  0  0  0  0  0  0
    1.2888    0.1665    1.2533 H   0  0  0  0  0  0  0  0  0  0  0  0
   -0.3426    0.0343   -1.3424 H   0  0  0  0  0  0  0  0  0  0  0  0
   -0.9570    2.0133    0.0315 H   0  0  0  0  0  0  0  0  0  0  0  0
   -1.2189    0.9728    1.4350 H   0  0  0  0  0  0  0  0  0  0  0  0
   -2.2723    0.8287    0.0254 H   0  0  0  0  0  0  0  0  0  0  0  0
   -0.6964   -1.5744    1.2363 H   0  0  0  0  0  0  0  0  0  0  0  0
   -0.0911   -2.2079   -0.2978 H   0  0  0  0  0  0  0  0  0  0  0  0
   -1.7646   -1.6461   -0.1677 H   0  0  0  0  0  0  0  0  0  0  0  0
  1  2  2  3
  1  6  1  0
  1  7  1  0
  2  3  1  0
  2  8  1  0
  3  4  1  0
  3  5  1  0
  3  9  1  0
  4 10  1  0
  4 11  1  0
  4 12  1  0
  5 13  1  0
  5 14  1  0
  5 15  1  0
M  END
>  <reaction>  (3) 
rxn_2002

>  <mol_properties>  (3) 
{"2": {"label": "acceptor", "atom_type": "Cs"}, "14": {"label": "a_hydrogen", "atom_type": "H0"}}

>  <type>  (3) 
r2h

$$$$

     RDKit          3D

 24 22  0  0  0  0  0  0  0  0999 V2000
   -0.5337   -0.2542    2.2996 C   0  0  0  0  0  0  0  0  0  0  0  0
   -0.2952   -1.2825    1.4800 C   0  0  0  0  0  0  0  0  0  0  0  0
   -0.6744   -1.3588    0.0758 C   0  0  0  0  0  3  0  0  0  0  0  0
   -1.7742   -0.4506   -0.4118 C   0  0  0  0  0  0  0  0  0  0  0  0
   -0.6365   -2.7289   -0.5523 C   0  0  0  0  0  0  0  0  0  0  0  0
   -0.1672   -0.2598    3.3177 H   0  0  0  0  0  0  0  0  0  0  0  0
   -1.0997    0.6146    1.9890 H   0  0  0  0  0  0  0  0  0  0  0  0
    0.2945   -2.1151    1.8552 H   0  0  0  0  0  0  0  0  0  0  0  0
   -1.5448    0.6000   -0.2262 H   0  0  0  0  0  0  0  0  0  0  0  0
   -1.9287   -0.5731   -1.4840 H   0  0  0  0  0  0  0  0  0  0  0  0
   -2.7146   -0.6847    0.0967 H   0  0  0  0  0  0  0  0  0  0  0  0
   -1.5228   -3.3050   -0.2660 H   0  0  0  0  0  0  0  0  0  0  0  0
    0.2427   -3.2916   -0.2344 H   0  0  0  0  0  0  0  0  0  0  0  0
   -0.6289   -2.6629   -1.6416 H   0  0  0  0  0  0  0  0  0  0  0  0
    0.8671    0.1406   -2.4878 C   0  0  0  0  0  0  0  0  0  0  0  0
    1.3739   -0.0425   -1.0812 C   0  0  0  0  0  0  0  0  0  0  0  0
    1.5357    1.0814   -0.2053 C   0  0  0  0  0  0  0  0  0  0  0  0
    0.8684    2.5693   -0.3865 S   0  0  0  0  0  0  0  0  0  0  0  0
    1.6375    0.5981   -3.1129 H   0  0  0  0  0  0  0  0  0  0  0  0
    0.5987   -0.8196   -2.9307 H   0  0  0  0  0  0  0  0  0  0  0  0
   -0.0002    0.7989   -2.5077 H   0  0  0  0  0  0  0  0  0  0  0  0
    0.4250   -0.7204   -0.4712 H   0  0  0  0  0  0  0  0  0  0  0  0
    2.1651   -0.7862   -0.9769 H   0  0  0  0  0  0  0  0  0  0  0  0
    2.1284    0.8860    0.6870 H   0  0  0  0  0  0  0  0  0  0  0  0
  1  2  2  3
  1  6  1  0
  1  7  1  0
  2  3  1  0
  2  8  1  0
  3  4  1  0
  3  5  1  0
  4  9  1  0
  4 10  1  0
  4 11  1  0
  5 12  1  0
  5 13  1  0
  5 14  1  0
 15 16  1  0
 15 19  1  0
 15 20  1  0
 15 21  1  0
 16 17  1  0
 16 22  1  0
 16 23  1  0
 17 18  2  0
 17 24  1  0
M  RAD  1   3   2
M  END
>  <reaction>  (4) 
rxn_2002

>  <mol_properties>  (4) 
{"1": {"label": "*4", "atom_type": "Cd"}, "2": {"label": "*3", "atom_type": "Cs"}, "15": {"label": "*1", "atom_type": "Cs"}, "16": {"label": "*0", "atom_type": "CS"}, "21": {"label": "*2", "atom_type": "H0"}}

>  <type>  (4) 
ts

$$$$

     RDKit          3D

 24 22  0  0  0  0  0  0  0  0999 V2000
    0.7097   -2.9532    0.6528 C   0  0  0  0  0  0  0  0  0  0  0  0
   -0.3543   -2.2174    0.9325 C   0  0  0  0  0  0  0  0  0  0  0  0
   -0.8721   -1.0813    0.1000 C   0  0  0  0  0  3  0  0  0  0  0  0
   -0.8389    0.2256    0.8946 C   0  0  0  0  0  0  0  0  0  0  0  0
   -2.2884   -1.3802   -0.3952 C   0  0  0  0  0  0  0  0  0  0  0  0
    1.0283   -3.7607    1.3001 H   0  0  0  0  0  0  0  0  0  0  0  0
    1.3026   -2.7729   -0.2378 H   0  0  0  0  0  0  0  0  0  0  0  0
   -0.9235   -2.4299    1.8366 H   0  0  0  0  0  0  0  0  0  0  0  0
    0.1746    0.4621    1.2217 H   0  0  0  0  0  0  0  0  0  0  0  0
   -1.2082    1.0565    0.2899 H   0  0  0  0  0  0  0  0  0  0  0  0
   -1.4715    0.1525    1.7835 H   0  0  0  0  0  0  0  0  0  0  0  0
   -2.9723   -1.5101    0.4480 H   0  0  0  0  0  0  0  0  0  0  0  0
   -2.3126   -2.2933   -0.9917 H   0  0  0  0  0  0  0  0  0  0  0  0
   -2.6663   -0.5590   -1.0077 H   0  0  0  0  0  0  0  0  0  0  0  0
    1.1875    0.2403   -2.3704 C   0  0  0  0  0  0  0  0  0  0  0  0
    1.1875    0.2403   -0.8393 C   0  0  0  0  0  0  0  0  0  0  0  0
    1.1875    1.6285   -0.2926 C   0  0  0  0  0  0  0  0  0  0  0  0
    0.0680    2.2841    0.6549 S   0  0  0  0  0  0  0  0  0  0  0  0
    2.0427    0.7904   -2.7675 H   0  0  0  0  0  0  0  0  0  0  0  0
    1.2384   -0.7806   -2.7490 H   0  0  0  0  0  0  0  0  0  0  0  0
    0.2780    0.7026   -2.7560 H   0  0  0  0  0  0  0  0  0  0  0  0
    0.1599   -0.4191   -0.3707 H   0  0  0  0  0  0  0  0  0  0  0  0
    2.0979   -0.2564   -0.4839 H   0  0  0  0  0  0  0  0  0  0  0  0
    2.0430    2.2337   -0.6030 H   0  0  0  0  0  0  0  0  0  0  0  0
  1  2  2  3
  1  6  1  0
  1  7  1  0
  2  3  1  0
  2  8  1  0
  3  4  1  0
  3  5  1  0
  4  9  1  0
  4 10  1  0
  4 11  1  0
  5 12  1  0
  5 13  1  0
  5 14  1  0
 15 16  1  0
 15 19  1  0
 15 20  1  0
 15 21  1  0
 16 17  1  0
 16 22  1  0
 16 23  1  0
 17 18  2  0
 17 24  1  0
M  RAD  1   3   2
M  END
>  <reaction>  (5) 
rxn_2002

>  <mol_properties>  (5) 
{"1": {"label": "*4", "atom_type": "Cd"}, "2": {"label": "*3", "atom_type": "Cs"}, "15": {"label": "*1", "atom_type": "Cs"}, "16": {"label": "*0", "atom_type": "CS"}, "21": {"label": "*2", "atom_type": "H0"}}

>  <type>  (5) 
unop_1

>  <geom_source>  (5) 
Heuristics

$$$$

     RDKit          3D

 24 22  0  0  0  0  0  0  0  0999 V2000
   -0.7125   -2.1697   -1.8569 C   0  0  0  0  0  0  0  0  0  0  0  0
   -1.0907   -2.1368   -0.5890 C   0  0  0  0  0  0  0  0  0  0  0  0
   -0.7385   -1.0631    0.3985 C   0  0  0  0  0  3  0  0  0  0  0  0
    0.0688   -1.6455    1.5601 C   0  0  0  0  0  0  0  0  0  0  0  0
   -2.0019   -0.3679    0.9094 C   0  0  0  0  0  0  0  0  0  0  0  0
   -1.0040   -2.9778   -2.5161 H   0  0  0  0  0  0  0  0  0  0  0  0
   -0.0950   -1.3855   -2.2824 H   0  0  0  0  0  0  0  0  0  0  0  0
   -1.7107   -2.9432   -0.1992 H   0  0  0  0  0  0  0  0  0  0  0  0
    0.9884   -2.1130    1.2054 H   0  0  0  0  0  0  0  0  0  0  0  0
    0.3335   -0.8659    2.2775 H   0  0  0  0  0  0  0  0  0  0  0  0
   -0.5122   -2.4046    2.0910 H   0  0  0  0  0  0  0  0  0  0  0  0
   -2.6562   -1.0818    1.4173 H   0  0  0  0  0  0  0  0  0  0  0  0
   -2.5647    0.0793    0.0888 H   0  0  0  0  0  0  0  0  0  0  0  0
   -1.7496    0.4193    1.6229 H   0  0  0  0  0  0  0  0  0  0  0  0
    1.3212    0.2585   -2.0719 C   0  0  0  0  0  0  0  0  0  0  0  0
    1.3212    0.2585   -0.5408 C   0  0  0  0  0  0  0  0  0  0  0  0
    1.3212    1.6467    0.0059 C   0  0  0  0  0  0  0  0  0  0  0  0
    0.2016    2.3023    0.9534 S   0  0  0  0  0  0  0  0  0  0  0  0
    2.1764    0.8086   -2.4690 H   0  0  0  0  0  0  0  0  0  0  0  0
    1.3720   -0.7624   -2.4505 H   0  0  0  0  0  0  0  0  0  0  0  0
    0.4117    0.7209   -2.4575 H   0  0  0  0  0  0  0  0  0  0  0  0
    0.2935   -0.4009   -0.0721 H   0  0  0  0  0  0  0  0  0  0  0  0
    2.2315   -0.2382   -0.1854 H   0  0  0  0  0  0  0  0  0  0  0  0
    2.1766    2.2519   -0.3044 H   0  0  0  0  0  0  0  0  0  0  0  0
  1  2  2  3
  1  6  1  0
  1  7  1  0
  2  3  1  0
  2  8  1  0
  3  4  1  0
  3  5  1  0
  4  9  1  0
  4 10  1  0
  4 11  1  0
  5 12  1  0
  5 13  1  0
  5 14  1  0
 15 16  1  0
 15 19  1  0
 15 20  1  0
 15 21  1  0
 16 17  1  0
 16 22  1  0
 16 23  1  0
 17 18  2  0
 17 24  1  0
M  RAD  1   3   2
M  END
>  <reaction>  (6) 
rxn_2002

>  <mol_properties>  (6) 
{"1": {"label": "*4", "atom_type": "Cd"}, "2": {"label": "*3", "atom_type": "Cs"}, "15": {"label": "*1", "atom_type": "Cs"}, "16": {"label": "*0", "atom_type": "CS"}, "21": {"label": "*2", "atom_type": "H0"}}

>  <type>  (6) 
unop_2

>  <geom_source>  (6) 
Heuristics

$$$$

     RDKit          3D

 24 22  0  0  0  0  0  0  0  0999 V2000
    0.7829   -2.0844    1.7174 C   0  0  0  0  0  0  0  0  0  0  0  0
   -0.4484   -1.7604    1.3562 C   0  0  0  0  0  0  0  0  0  0  0  0
   -0.8417   -1.1649    0.0360 C   0  0  0  0  0  3  0  0  0  0  0  0
   -1.4694    0.2159    0.2353 C   0  0  0  0  0  0  0  0  0  0  0  0
   -1.8008   -2.0956   -0.7085 C   0  0  0  0  0  0  0  0  0  0  0  0
    0.9962   -2.5118    2.6892 H   0  0  0  0  0  0  0  0  0  0  0  0
    1.6253   -1.9329    1.0505 H   0  0  0  0  0  0  0  0  0  0  0  0
   -1.2675   -1.9280    2.0543 H   0  0  0  0  0  0  0  0  0  0  0  0
   -0.7774    0.8947    0.7355 H   0  0  0  0  0  0  0  0  0  0  0  0
   -1.7505    0.6560   -0.7238 H   0  0  0  0  0  0  0  0  0  0  0  0
   -2.3727    0.1441    0.8473 H   0  0  0  0  0  0  0  0  0  0  0  0
   -2.7159   -2.2492   -0.1300 H   0  0  0  0  0  0  0  0  0  0  0  0
   -1.3460   -3.0715   -0.8840 H   0  0  0  0  0  0  0  0  0  0  0  0
   -2.0839   -1.6693   -1.6732 H   0  0  0  0  0  0  0  0  0  0  0  0
    1.2180    0.1566   -2.4344 C   0  0  0  0  0  0  0  0  0  0  0  0
    1.2180    0.1566   -0.9033 C   0  0  0  0  0  0  0  0  0  0  0  0
    1.2180    1.5448   -0.3566 C   0  0  0  0  0  0  0  0  0  0  0  0
    0.0984    2.2005    0.5909 S   0  0  0  0  0  0  0  0  0  0  0  0
    2.0732    0.7068   -2.8315 H   0  0  0  0  0  0  0  0  0  0  0  0
    1.2688   -0.8643   -2.8130 H   0  0  0  0  0  0  0  0  0  0  0  0
    0.3085    0.6190   -2.8200 H   0  0  0  0  0  0  0  0  0  0  0  0
    0.1903   -0.5028   -0.4347 H   0  0  0  0  0  0  0  0  0  0  0  0
    2.1283   -0.3401   -0.5479 H   0  0  0  0  0  0  0  0  0  0  0  0
    2.0734    2.1500   -0.6670 H   0  0  0  0  0  0  0  0  0  0  0  0
  1  2  2  3
  1  6  1  0
  1  7  1  0
  2  3  1  0
  2  8  1  0
  3  4  1  0
  3  5  1  0
  4  9  1  0
  4 10  1  0
  4 11  1  0
  5 12  1  0
  5 13  1  0
  5 14  1  0
 15 16  1  0
 15 19  1  0
 15 20  1  0
 15 21  1  0
 16 17  1  0
 16 22  1  0
 16 23  1  0
 17 18  2  0
 17 24  1  0
M  RAD  1   3   2
M  END
>  <reaction>  (7) 
rxn_2002

>  <mol_properties>  (7) 
{"1": {"label": "*4", "atom_type": "Cd"}, "2": {"label": "*3", "atom_type": "Cs"}, "15": {"label": "*1", "atom_type": "Cs"}, "16": {"label": "*0", "atom_type": "CS"}, "21": {"label": "*2", "atom_type": "H0"}}

>  <type>  (7) 
unop_3

>  <geom_source>  (7) 
Heuristics

$$$$

     RDKit          3D

 24 22  0  0  0  0  0  0  0  0999 V2000
   -1.9644   -0.0644   -1.3461 C   0  0  0  0  0  0  0  0  0  0  0  0
   -1.8398   -0.6927   -0.1879 C   0  0  0  0  0  0  0  0  0  0  0  0
   -0.5924   -1.3608    0.3119 C   0  0  0  0  0  3  0  0  0  0  0  0
   -0.8303   -2.8581    0.5168 C   0  0  0  0  0  0  0  0  0  0  0  0
   -0.1140   -0.7042    1.6082 C   0  0  0  0  0  0  0  0  0  0  0  0
   -2.8973    0.3971   -1.6447 H   0  0  0  0  0  0  0  0  0  0  0  0
   -1.1336    0.0108   -2.0398 H   0  0  0  0  0  0  0  0  0  0  0  0
   -2.6975   -0.7467    0.4814 H   0  0  0  0  0  0  0  0  0  0  0  0
   -1.1389   -3.3388   -0.4126 H   0  0  0  0  0  0  0  0  0  0  0  0
    0.0773   -3.3495    0.8736 H   0  0  0  0  0  0  0  0  0  0  0  0
   -1.6149   -3.0258    1.2597 H   0  0  0  0  0  0  0  0  0  0  0  0
   -0.8732   -0.7956    2.3897 H   0  0  0  0  0  0  0  0  0  0  0  0
    0.0902    0.3571    1.4602 H   0  0  0  0  0  0  0  0  0  0  0  0
    0.7978   -1.1828    1.9715 H   0  0  0  0  0  0  0  0  0  0  0  0
    1.4673   -0.0393   -2.1585 C   0  0  0  0  0  0  0  0  0  0  0  0
    1.4673   -0.0393   -0.6274 C   0  0  0  0  0  0  0  0  0  0  0  0
    1.4673    1.3489   -0.0807 C   0  0  0  0  0  0  0  0  0  0  0  0
    0.3477    2.0046    0.8668 S   0  0  0  0  0  0  0  0  0  0  0  0
    2.3225    0.5108   -2.5556 H   0  0  0  0  0  0  0  0  0  0  0  0
    1.5181   -1.0602   -2.5371 H   0  0  0  0  0  0  0  0  0  0  0  0
    0.5578    0.4231   -2.5441 H   0  0  0  0  0  0  0  0  0  0  0  0
    0.4396   -0.6987   -0.1587 H   0  0  0  0  0  0  0  0  0  0  0  0
    2.3776   -0.5360   -0.2720 H   0  0  0  0  0  0  0  0  0  0  0  0
    2.3227    1.9541   -0.3910 H   0  0  0  0  0  0  0  0  0  0  0  0
  1  2  2  3
  1  6  1  0
  1  7  1  0
  2  3  1  0
  2  8  1  0
  3  4  1  0
  3  5  1  0
  4  9  1  0
  4 10  1  0
  4 11  1  0
  5 12  1  0
  5 13  1  0
  5 14  1  0
 15 16  1  0
 15 19  1  0
 15 20  1  0
 15 21  1  0
 16 17  1  0
 16 22  1  0
 16 23  1  0
 17 18  2  0
 17 24  1  0
M  RAD  1   3   2
M  END
>  <reaction>  (8) 
rxn_2002

>  <mol_properties>  (8) 
{"1": {"label": "*4", "atom_type": "Cd"}, "2": {"label": "*3", "atom_type": "Cs"}, "15": {"label": "*1", "atom_type": "Cs"}, "16": {"label": "*0", "atom_type": "CS"}, "21": {"label": "*2", "atom_type": "H0"}}

>  <type>  (8) 
unop_4

>  <geom_source>  (8) 
Heuristics

$$$$

     RDKit          3D

 24 22  0  0  0  0  0  0  0  0999 V2000
    0.2118   -0.6002    2.2282 C   0  0  0  0  0  0  0  0  0  0  0  0
   -0.7272   -1.2027    1.5162 C   0  0  0  0  0  0  0  0  0  0  0  0
   -0.7928   -1.2448    0.0175 C   0  0  0  0  0  3  0  0  0  0  0  0
   -2.0702   -0.5682   -0.4834 C   0  0  0  0  0  0  0  0  0  0  0  0
   -0.7101   -2.6880   -0.4834 C   0  0  0  0  0  0  0  0  0  0  0  0
    0.1976   -0.6093    3.3109 H   0  0  0  0  0  0  0  0  0  0  0  0
    1.0319   -0.0740    1.7509 H   0  0  0  0  0  0  0  0  0  0  0  0
   -1.5343   -1.7206    2.0327 H   0  0  0  0  0  0  0  0  0  0  0  0
   -2.1186    0.4719   -0.1579 H   0  0  0  0  0  0  0  0  0  0  0  0
   -2.1184   -0.5901   -1.5741 H   0  0  0  0  0  0  0  0  0  0  0  0
   -2.9552   -1.0830   -0.0996 H   0  0  0  0  0  0  0  0  0  0  0  0
   -1.5470   -3.2779   -0.0996 H   0  0  0  0  0  0  0  0  0  0  0  0
    0.2152   -3.1655   -0.1579 H   0  0  0  0  0  0  0  0  0  0  0  0
   -0.7502   -2.7226   -1.5741 H   0  0  0  0  0  0  0  0  0  0  0  0
    1.2668    0.0767   -2.4529 C   0  0  0  0  0  0  0  0  0  0  0  0
    1.2668    0.0767   -0.9218 C   0  0  0  0  0  0  0  0  0  0  0  0
    1.2668    1.4649   -0.3751 C   0  0  0  0  0  0  0  0  0  0  0  0
    0.1473    2.1206    0.5724 S   0  0  0  0  0  0  0  0  0  0  0  0
    2.1220    0.6269   -2.8500 H   0  0  0  0  0  0  0  0  0  0  0  0
    1.3177   -0.9442   -2.8315 H   0  0  0  0  0  0  0  0  0  0  0  0
    0.3573    0.5391   -2.8385 H   0  0  0  0  0  0  0  0  0  0  0  0
    0.2392   -0.5827   -0.4531 H   0  0  0  0  0  0  0  0  0  0  0  0
    2.1772   -0.4200   -0.5664 H   0  0  0  0  0  0  0  0  0  0  0  0
    2.1223    2.0701   -0.6854 H   0  0  0  0  0  0  0  0  0  0  0  0
  1  2  2  3
  1  6  1  0
  1  7  1  0
  2  3  1  0
  2  8  1  0
  3  4  1  0
  3  5  1  0
  4  9  1  0
  4 10  1  0
  4 11  1  0
  5 12  1  0
  5 13  1  0
  5 14  1  0
 15 16  1  0
 15 19  1  0
 15 20  1  0
 15 21  1  0
 16 17  1  0
 16 22  1  0
 16 23  1  0
 17 18  2  0
 17 24  1  0
M  RAD  1   3   2
M  END
>  <reaction>  (9) 
rxn_2002

>  <mol_properties>  (9) 
{"1": {"label": "*4", "atom_type": "Cd"}, "2": {"label": "*3", "atom_type": "Cs"}, "15": {"label": "*1", "atom_type": "Cs"}, "16": {"label": "*0", "atom_type": "CS"}, "21": {"label": "*2", "atom_type": "H0"}}

>  <type>  (9) 
unop_5

>  <geom_source>  (9) 
Heuristics

$$$$

     RDKit          3D

 24 22  0  0  0  0  0  0  0  0999 V2000
   -2.0532    0.5529   -0.4622 C   0  0  0  0  0  0  0  0  0  0  0  0
   -1.7561   -0.4344    0.3676 C   0  0  0  0  0  0  0  0  0  0  0  0
   -0.6207   -1.4015    0.2012 C   0  0  0  0  0  3  0  0  0  0  0  0
   -1.1479   -2.8318    0.0721 C   0  0  0  0  0  0  0  0  0  0  0  0
    0.3583   -1.2868    1.3712 C   0  0  0  0  0  0  0  0  0  0  0  0
   -2.8899    1.2158   -0.2804 H   0  0  0  0  0  0  0  0  0  0  0  0
   -1.4670    0.7340   -1.3571 H   0  0  0  0  0  0  0  0  0  0  0  0
   -2.3690   -0.5836    1.2556 H   0  0  0  0  0  0  0  0  0  0  0  0
   -1.8204   -2.9282   -0.7814 H   0  0  0  0  0  0  0  0  0  0  0  0
   -0.3251   -3.5381   -0.0565 H   0  0  0  0  0  0  0  0  0  0  0  0
   -1.6997   -3.1219    0.9704 H   0  0  0  0  0  0  0  0  0  0  0  0
   -0.1402   -1.5222    2.3155 H   0  0  0  0  0  0  0  0  0  0  0  0
    0.7642   -0.2771    1.4477 H   0  0  0  0  0  0  0  0  0  0  0  0
    1.1901   -1.9839    1.2504 H   0  0  0  0  0  0  0  0  0  0  0  0
    1.4390   -0.0800   -2.2691 C   0  0  0  0  0  0  0  0  0  0  0  0
    1.4390   -0.0800   -0.7381 C   0  0  0  0  0  0  0  0  0  0  0  0
    1.4390    1.3082   -0.1914 C   0  0  0  0  0  0  0  0  0  0  0  0
    0.3195    1.9639    0.7562 S   0  0  0  0  0  0  0  0  0  0  0  0
    2.2942    0.4702   -2.6662 H   0  0  0  0  0  0  0  0  0  0  0  0
    1.4898   -1.1009   -2.6478 H   0  0  0  0  0  0  0  0  0  0  0  0
    0.5295    0.3824   -2.6548 H   0  0  0  0  0  0  0  0  0  0  0  0
    0.4114   -0.7394   -0.2694 H   0  0  0  0  0  0  0  0  0  0  0  0
    2.3494   -0.5767   -0.3826 H   0  0  0  0  0  0  0  0  0  0  0  0
    2.2945    1.9134   -0.5017 H   0  0  0  0  0  0  0  0  0  0  0  0
  1  2  2  3
  1  6  1  0
  1  7  1  0
  2  3  1  0
  2  8  1  0
  3  4  1  0
  3  5  1  0
  4  9  1  0
  4 10  1  0
  4 11  1  0
  5 12  1  0
  5 13  1  0
  5 14  1  0
 15 16  1  0
 15 19  1  0
 15 20  1  0
 15 21  1  0
 16 17  1  0
 16 22  1  0
 16 23  1  0
 17 18  2  0
 17 24  1  0
M  RAD  1   3   2
M  END
>  <reaction>  (10) 
rxn_2002

>  <mol_properties>  (10) 
{"1": {"label": "*4", "atom_type": "Cd"}, "2": {"label": "*3", "atom_type": "Cs"}, "15": {"label": "*1", "atom_type": "Cs"}, "16": {"label": "*0", "atom_type": "CS"}, "21": {"label": "*2", "atom_type": "H0"}}

>  <type>  (10) 
unop_6

>  <geom_source>  (10) 
Heuristics

$$$$

     RDKit          3D

 24 22  0  0  0  0  0  0  0  0999 V2000
   -1.7196    0.8330    0.6528 C   0  0  0  0  0  0  0  0  0  0  0  0
   -1.4942   -0.4408    0.9325 C   0  0  0  0  0  0  0  0  0  0  0  0
   -0.6772   -1.3851    0.1000 C   0  0  0  0  0  3  0  0  0  0  0  0
   -1.5392   -2.5478   -0.3953 C   0  0  0  0  0  0  0  0  0  0  0  0
    0.5246   -1.8995    0.8946 C   0  0  0  0  0  0  0  0  0  0  0  0
   -2.3208    1.4592    1.3001 H   0  0  0  0  0  0  0  0  0  0  0  0
   -1.3086    1.2968   -0.2378 H   0  0  0  0  0  0  0  0  0  0  0  0
   -1.9245   -0.8697    1.8366 H   0  0  0  0  0  0  0  0  0  0  0  0
   -2.3793   -2.1893   -0.9917 H   0  0  0  0  0  0  0  0  0  0  0  0
   -0.9502   -3.2337   -1.0077 H   0  0  0  0  0  0  0  0  0  0  0  0
   -1.9423   -3.1154    0.4480 H   0  0  0  0  0  0  0  0  0  0  0  0
    0.1945   -2.4441    1.7835 H   0  0  0  0  0  0  0  0  0  0  0  0
    1.1620   -1.0768    1.2217 H   0  0  0  0  0  0  0  0  0  0  0  0
    1.1260   -2.5814    0.2899 H   0  0  0  0  0  0  0  0  0  0  0  0
    1.3825   -0.0636   -2.3704 C   0  0  0  0  0  0  0  0  0  0  0  0
    1.3825   -0.0636   -0.8393 C   0  0  0  0  0  0  0  0  0  0  0  0
    1.3825    1.3246   -0.2926 C   0  0  0  0  0  0  0  0  0  0  0  0
    0.2629    1.9803    0.6549 S   0  0  0  0  0  0  0  0  0  0  0  0
    2.2377    0.4866   -2.7675 H   0  0  0  0  0  0  0  0  0  0  0  0
    1.4333   -1.0845   -2.7490 H   0  0  0  0  0  0  0  0  0  0  0  0
    0.4730    0.3988   -2.7560 H   0  0  0  0  0  0  0  0  0  0  0  0
    0.3548   -0.7229   -0.3707 H   0  0  0  0  0  0  0  0  0  0  0  0
    2.2928   -0.5603   -0.4839 H   0  0  0  0  0  0  0  0  0  0  0  0
    2.2379    1.9299   -0.6030 H   0  0  0  0  0  0  0  0  0  0  0  0
  1  2  2  3
  1  6  1  0
  1  7  1  0
  2  3  1  0
  2  8  1  0
  3  4  1  0
  3  5  1  0
  4  9  1  0
  4 10  1  0
  4 11  1  0
  5 12  1  0
  5 13  1  0
  5 14  1  0
 15 16  1  0
 15 19  1  0
 15 20  1  0
 15 21  1  0
 16 17  1  0
 16 22  1  0
 16 23  1  0
 17 18  2  0
 17 24  1  0
M  RAD  1   3   2
M  END
>  <reaction>  (11) 
rxn_2002

>  <mol_properties>  (11) 
{"1": {"label": "*4", "atom_type": "Cd"}, "2": {"label": "*3", "atom_type": "Cs"}, "15": {"label": "*1", "atom_type": "Cs"}, "16": {"label": "*0", "atom_type": "CS"}, "21": {"label": "*2", "atom_type": "H0"}}

>  <type>  (11) 
unop_7

>  <geom_source>  (11) 
Heuristics

$$$$

     RDKit          3D

 24 22  0  0  0  0  0  0  0  0999 V2000
    0.3161   -3.1397   -0.4622 C   0  0  0  0  0  0  0  0  0  0  0  0
   -0.4576   -2.4582    0.3676 C   0  0  0  0  0  0  0  0  0  0  0  0
   -0.8635   -1.0230    0.2012 C   0  0  0  0  0  3  0  0  0  0  0  0
   -0.3513   -0.1809    1.3712 C   0  0  0  0  0  0  0  0  0  0  0  0
   -2.3834   -0.9062    0.0721 C   0  0  0  0  0  0  0  0  0  0  0  0
    0.5699   -4.1765   -0.2804 H   0  0  0  0  0  0  0  0  0  0  0  0
    0.7249   -2.6823   -1.3571 H   0  0  0  0  0  0  0  0  0  0  0  0
   -0.8487   -2.9531    1.2556 H   0  0  0  0  0  0  0  0  0  0  0  0
    0.7357   -0.2328    1.4477 H   0  0  0  0  0  0  0  0  0  0  0  0
   -0.6383    0.8657    1.2504 H   0  0  0  0  0  0  0  0  0  0  0  0
   -0.7730   -0.5359    2.3155 H   0  0  0  0  0  0  0  0  0  0  0  0
   -2.8771   -1.2869    0.9704 H   0  0  0  0  0  0  0  0  0  0  0  0
   -2.7513   -1.4774   -0.7814 H   0  0  0  0  0  0  0  0  0  0  0  0
   -2.6826    0.1361   -0.0565 H   0  0  0  0  0  0  0  0  0  0  0  0
    1.1961    0.2985   -2.2691 C   0  0  0  0  0  0  0  0  0  0  0  0
    1.1961    0.2985   -0.7381 C   0  0  0  0  0  0  0  0  0  0  0  0
    1.1961    1.6867   -0.1914 C   0  0  0  0  0  0  0  0  0  0  0  0
    0.0766    2.3424    0.7562 S   0  0  0  0  0  0  0  0  0  0  0  0
    2.0514    0.8487   -2.6662 H   0  0  0  0  0  0  0  0  0  0  0  0
    1.2470   -0.7224   -2.6478 H   0  0  0  0  0  0  0  0  0  0  0  0
    0.2867    0.7609   -2.6548 H   0  0  0  0  0  0  0  0  0  0  0  0
    0.1685   -0.3608   -0.2694 H   0  0  0  0  0  0  0  0  0  0  0  0
    2.1065   -0.1982   -0.3826 H   0  0  0  0  0  0  0  0  0  0  0  0
    2.0516    2.2920   -0.5017 H   0  0  0  0  0  0  0  0  0  0  0  0
  1  2  2  3
  1  6  1  0
  1  7  1  0
  2  3  1  0
  2  8  1  0
  3  4  1  0
  3  5  1  0
  4  9  1  0
  4 10  1  0
  4 11  1  0
  5 12  1  0
  5 13  1  0
  5 14  1  0
 15 16  1  0
 15 19  1  0
 15 20  1  0
 15 21  1  0
 16 17  1  0
 16 22  1  0
 16 23  1  0
 17 18  2  0
 17 24  1  0
M  RAD  1   3   2
M  END
>  <reaction>  (12) 
rxn_2002

>  <mol_properties>  (12) 
{"1": {"label": "*4", "atom_type": "Cd"}, "2": {"label": "*3", "atom_type": "Cs"}, "15": {"label": "*1", "atom_type": "Cs"}, "16": {"label": "*0", "atom_type": "CS"}, "21": {"label": "*2", "atom_type": "H0"}}

>  <type>  (12) 
unop_8

>  <geom_source>  (12) 
Heuristics

$$$$

     RDKit          3D

 24 22  0  0  0  0  0  0  0  0999 V2000
   -1.6001   -0.7864   -1.8569 C   0  0  0  0  0  0  0  0  0  0  0  0
   -1.7278   -1.1438   -0.5890 C   0  0  0  0  0  0  0  0  0  0  0  0
   -0.6050   -1.2712    0.3985 C   0  0  0  0  0  3  0  0  0  0  0  0
   -0.4996   -2.7093    0.9094 C   0  0  0  0  0  0  0  0  0  0  0  0
   -0.7980   -0.2946    1.5601 C   0  0  0  0  0  0  0  0  0  0  0  0
   -2.4561   -0.7145   -2.5161 H   0  0  0  0  0  0  0  0  0  0  0  0
   -0.6299   -0.5519   -2.2824 H   0  0  0  0  0  0  0  0  0  0  0  0
   -2.7192   -1.3713   -0.1992 H   0  0  0  0  0  0  0  0  0  0  0  0
   -0.3277   -3.4073    0.0888 H   0  0  0  0  0  0  0  0  0  0  0  0
    0.3211   -2.8080    1.6229 H   0  0  0  0  0  0  0  0  0  0  0  0
   -1.4212   -3.0066    1.4173 H   0  0  0  0  0  0  0  0  0  0  0  0
   -1.7301   -0.5063    2.0910 H   0  0  0  0  0  0  0  0  0  0  0  0
   -0.8396    0.7362    1.2054 H   0  0  0  0  0  0  0  0  0  0  0  0
    0.0210   -0.3789    2.2775 H   0  0  0  0  0  0  0  0  0  0  0  0
    1.4547    0.0503   -2.0719 C   0  0  0  0  0  0  0  0  0  0  0  0
    1.4547    0.0503   -0.5408 C   0  0  0  0  0  0  0  0  0  0  0  0
    1.4547    1.4385    0.0059 C   0  0  0  0  0  0  0  0  0  0  0  0
    0.3352    2.0942    0.9534 S   0  0  0  0  0  0  0  0  0  0  0  0
    2.3099    0.6005   -2.4690 H   0  0  0  0  0  0  0  0  0  0  0  0
    1.5055   -0.9706   -2.4505 H   0  0  0  0  0  0  0  0  0  0  0  0
    0.5452    0.5127   -2.4575 H   0  0  0  0  0  0  0  0  0  0  0  0
    0.4271   -0.6090   -0.0721 H   0  0  0  0  0  0  0  0  0  0  0  0
    2.3651   -0.4464   -0.1854 H   0  0  0  0  0  0  0  0  0  0  0  0
    2.3102    2.0438   -0.3044 H   0  0  0  0  0  0  0  0  0  0  0  0
  1  2  2  3
  1  6  1  0
  1  7  1  0
  2  3  1  0
  2  8  1  0
  3  4  1  0
  3  5  1  0
  4  9  1  0
  4 10  1  0
  4 11  1  0
  5 12  1  0
  5 13  1  0
  5 14  1  0
 15 16  1  0
 15 19  1  0
 15 20  1  0
 15 21  1  0
 16 17  1  0
 16 22  1  0
 16 23  1  0
 17 18  2  0
 17 24  1  0
M  RAD  1   3   2
M  END
>  <reaction>  (13) 
rxn_2002

>  <mol_properties>  (13) 
{"1": {"label": "*4", "atom_type": "Cd"}, "2": {"label": "*3", "atom_type": "Cs"}, "15": {"label": "*1", "atom_type": "Cs"}, "16": {"label": "*0", "atom_type": "CS"}, "21": {"label": "*2", "atom_type": "H0"}}

>  <type>  (13) 
unop_9

>  <geom_source>  (13) 
Heuristics

$$$$

     RDKit          3D

 24 22  0  0  0  0  0  0  0  0999 V2000
   -0.2081   -2.8018   -1.3461 C   0  0  0  0  0  0  0  0  0  0  0  0
   -0.7273   -2.4266   -0.1879 C   0  0  0  0  0  0  0  0  0  0  0  0
   -0.8148   -1.0143    0.3119 C   0  0  0  0  0  3  0  0  0  0  0  0
   -0.0185   -0.8530    1.6082 C   0  0  0  0  0  0  0  0  0  0  0  0
   -2.2749   -0.6065    0.5168 C   0  0  0  0  0  0  0  0  0  0  0  0
   -0.1774   -3.8421   -1.6447 H   0  0  0  0  0  0  0  0  0  0  0  0
    0.2065   -2.0779   -2.0398 H   0  0  0  0  0  0  0  0  0  0  0  0
   -1.1338   -3.1838    0.4814 H   0  0  0  0  0  0  0  0  0  0  0  0
    1.0314   -1.1097    1.4601 H   0  0  0  0  0  0  0  0  0  0  0  0
   -0.0735    0.1753    1.9715 H   0  0  0  0  0  0  0  0  0  0  0  0
   -0.4180   -1.5051    2.3897 H   0  0  0  0  0  0  0  0  0  0  0  0
   -2.7543   -1.2498    1.2597 H   0  0  0  0  0  0  0  0  0  0  0  0
   -2.8405   -0.6867   -0.4126 H   0  0  0  0  0  0  0  0  0  0  0  0
   -2.3434    0.4233    0.8736 H   0  0  0  0  0  0  0  0  0  0  0  0
    1.2449    0.3073   -2.1585 C   0  0  0  0  0  0  0  0  0  0  0  0
    1.2449    0.3073   -0.6274 C   0  0  0  0  0  0  0  0  0  0  0  0
    1.2449    1.6954   -0.0807 C   0  0  0  0  0  0  0  0  0  0  0  0
    0.1254    2.3511    0.8668 S   0  0  0  0  0  0  0  0  0  0  0  0
    2.1001    0.8574   -2.5556 H   0  0  0  0  0  0  0  0  0  0  0  0
    1.2957   -0.7136   -2.5371 H   0  0  0  0  0  0  0  0  0  0  0  0
    0.3354    0.7696   -2.5441 H   0  0  0  0  0  0  0  0  0  0  0  0
    0.2173   -0.3521   -0.1587 H   0  0  0  0  0  0  0  0  0  0  0  0
    2.1553   -0.1894   -0.2720 H   0  0  0  0  0  0  0  0  0  0  0  0
    2.1004    2.3007   -0.3910 H   0  0  0  0  0  0  0  0  0  0  0  0
  1  2  2  3
  1  6  1  0
  1  7  1  0
  2  3  1  0
  2  8  1  0
  3  4  1  0
  3  5  1  0
  4  9  1  0
  4 10  1  0
  4 11  1  0
  5 12  1  0
  5 13  1  0
  5 14  1  0
 15 16  1  0
 15 19  1  0
 15 20  1  0
 15 21  1  0
 16 17  1  0
 16 22  1  0
 16 23  1  0
 17 18  2  0
 17 24  1  0
M  RAD  1   3   2
M  END
>  <reaction>  (14) 
rxn_2002

>  <mol_properties>  (14) 
{"1": {"label": "*4", "atom_type": "Cd"}, "2": {"label": "*3", "atom_type": "Cs"}, "15": {"label": "*1", "atom_type": "Cs"}, "16": {"label": "*0", "atom_type": "CS"}, "21": {"label": "*2", "atom_type": "H0"}}

>  <type>  (14) 
unop_10

>  <geom_source>  (14) 
Heuristics

$$$$

     RDKit          3D

 24 22  0  0  0  0  0  0  0  0999 V2000
   -0.8993    0.5375    1.7174 C   0  0  0  0  0  0  0  0  0  0  0  0
   -1.1179   -0.7169    1.3562 C   0  0  0  0  0  0  0  0  0  0  0  0
   -0.7406   -1.3226    0.0360 C   0  0  0  0  0  3  0  0  0  0  0  0
   -1.9863   -1.8066   -0.7085 C   0  0  0  0  0  0  0  0  0  0  0  0
    0.2530   -2.4686    0.2353 C   0  0  0  0  0  0  0  0  0  0  0  0
   -1.1989    0.9095    2.6892 H   0  0  0  0  0  0  0  0  0  0  0  0
   -0.4105    1.2400    1.0505 H   0  0  0  0  0  0  0  0  0  0  0  0
   -1.6117   -1.3916    2.0543 H   0  0  0  0  0  0  0  0  0  0  0  0
   -2.6839   -0.9864   -0.8840 H   0  0  0  0  0  0  0  0  0  0  0  0
   -1.7168   -2.2415   -1.6732 H   0  0  0  0  0  0  0  0  0  0  0  0
   -2.5073   -2.5743   -0.1300 H   0  0  0  0  0  0  0  0  0  0  0  0
   -0.1888   -3.2598    0.8473 H   0  0  0  0  0  0  0  0  0  0  0  0
    1.1585   -2.1225    0.7355 H   0  0  0  0  0  0  0  0  0  0  0  0
    0.5359   -2.9075   -0.7238 H   0  0  0  0  0  0  0  0  0  0  0  0
    1.3191   -0.0010   -2.4344 C   0  0  0  0  0  0  0  0  0  0  0  0
    1.3191   -0.0010   -0.9033 C   0  0  0  0  0  0  0  0  0  0  0  0
    1.3191    1.3871   -0.3566 C   0  0  0  0  0  0  0  0  0  0  0  0
    0.1996    2.0428    0.5909 S   0  0  0  0  0  0  0  0  0  0  0  0
    2.1743    0.5491   -2.8315 H   0  0  0  0  0  0  0  0  0  0  0  0
    1.3699   -1.0220   -2.8130 H   0  0  0  0  0  0  0  0  0  0  0  0
    0.4096    0.4613   -2.8200 H   0  0  0  0  0  0  0  0  0  0  0  0
    0.2914   -0.6604   -0.4347 H   0  0  0  0  0  0  0  0  0  0  0  0
    2.2294   -0.4977   -0.5479 H   0  0  0  0  0  0  0  0  0  0  0  0
    2.1746    1.9924   -0.6670 H   0  0  0  0  0  0  0  0  0  0  0  0
  1  2  2  3
  1  6  1  0
  1  7  1  0
  2  3  1  0
  2  8  1  0
  3  4  1  0
  3  5  1  0
  4  9  1  0
  4 10  1  0
  4 11  1  0
  5 12  1  0
  5 13  1  0
  5 14  1  0
 15 16  1  0
 15 19  1  0
 15 20  1  0
 15 21  1  0
 16 17  1  0
 16 22  1  0
 16 23  1  0
 17 18  2  0
 17 24  1  0
M  RAD  1   3   2
M  END
>  <reaction>  (15) 
rxn_2002

>  <mol_properties>  (15) 
{"1": {"label": "*4", "atom_type": "Cd"}, "2": {"label": "*3", "atom_type": "Cs"}, "15": {"label": "*1", "atom_type": "Cs"}, "16": {"label": "*0", "atom_type": "CS"}, "21": {"label": "*2", "atom_type": "H0"}}

>  <type>  (15) 
unop_11

>  <geom_source>  (15) 
Heuristics

$$$$

     RDKit          3D

 24 22  0  0  0  0  0  0  0  0999 V2000
   -1.1574   -1.4787   -2.0101 C   0  0  0  0  0  0  0  0  0  0  0  0
   -1.4543   -1.6692   -0.7344 C   0  0  0  0  0  0  0  0  0  0  0  0
   -0.6591   -1.1590    0.4316 C   0  0  0  0  0  3  0  0  0  0  0  0
   -0.1409   -2.3227    1.2786 C   0  0  0  0  0  0  0  0  0  0  0  0
   -1.5010   -0.2029    1.2786 C   0  0  0  0  0  0  0  0  0  0  0  0
   -1.7776   -1.8767   -2.8034 H   0  0  0  0  0  0  0  0  0  0  0  0
   -0.2791   -0.9152   -2.3073 H   0  0  0  0  0  0  0  0  0  0  0  0
   -2.3450   -2.2407   -0.4766 H   0  0  0  0  0  0  0  0  0  0  0  0
    0.4885   -2.9901    0.6882 H   0  0  0  0  0  0  0  0  0  0  0  0
    0.4446   -1.9560    2.1243 H   0  0  0  0  0  0  0  0  0  0  0  0
   -0.9728   -2.9095    1.6778 H   0  0  0  0  0  0  0  0  0  0  0  0
   -2.3810   -0.7146    1.6778 H   0  0  0  0  0  0  0  0  0  0  0  0
   -1.8453    0.6473    0.6882 H   0  0  0  0  0  0  0  0  0  0  0  0
   -0.9236    0.1764    2.1243 H   0  0  0  0  0  0  0  0  0  0  0  0
    1.4006    0.1625   -2.0388 C   0  0  0  0  0  0  0  0  0  0  0  0
    1.4006    0.1625   -0.5077 C   0  0  0  0  0  0  0  0  0  0  0  0
    1.4006    1.5507    0.0390 C   0  0  0  0  0  0  0  0  0  0  0  0
    0.2811    2.2064    0.9865 S   0  0  0  0  0  0  0  0  0  0  0  0
    2.2558    0.7127   -2.4359 H   0  0  0  0  0  0  0  0  0  0  0  0
    1.4514   -0.8584   -2.4175 H   0  0  0  0  0  0  0  0  0  0  0  0
    0.4911    0.6249   -2.4245 H   0  0  0  0  0  0  0  0  0  0  0  0
    0.3729   -0.4968   -0.0391 H   0  0  0  0  0  0  0  0  0  0  0  0
    2.3110   -0.3342   -0.1523 H   0  0  0  0  0  0  0  0  0  0  0  0
    2.2561    2.1560   -0.2714 H   0  0  0  0  0  0  0  0  0  0  0  0
  1  2  2  3
  1  6  1  0
  1  7  1  0
  2  3  1  0
  2  8  1  0
  3  4  1  0
  3  5  1  0
  4  9  1  0
  4 10  1  0
  4 11  1  0
  5 12  1  0
  5 13  1  0
  5 14  1  0
 15 16  1  0
 15 19  1  0
 15 20  1  0
 15 21  1  0
 16 17  1  0
 16 22  1  0
 16 23  1  0
 17 18  2  0
 17 24  1  0
M  RAD  1   3   2
M  END
>  <reaction>  (16) 
rxn_2002

>  <mol_properties>  (16) 
{"1": {"label": "*4", "atom_type": "Cd"}, "2": {"label": "*3", "atom_type": "Cs"}, "15": {"label": "*1", "atom_type": "Cs"}, "16": {"label": "*0", "atom_type": "CS"}, "21": {"label": "*2", "atom_type": "H0"}}

>  <type>  (16) 
unop_12

>  <geom_source>  (16) 
Heuristics

$$$$

     RDKit          3D

 24 22  0  0  0  0  0  0  0  0999 V2000
    2.0875    0.4688    2.4924 S   0  0  0  0  0  1  0  0  0  0  0  0
   -0.7357    0.0906   -0.0221 C   0  0  0  0  0  0  0  0  0  0  0  0
   -1.2876   -0.0574   -1.4436 C   0  0  0  0  0  0  0  0  0  0  0  0
   -0.4327   -1.2753    0.6020 C   0  0  0  0  0  0  0  0  0  0  0  0
    2.0999   -0.0036   -1.3192 C   0  0  0  0  0  0  0  0  0  0  0  0
   -1.6654    0.9027    0.8499 C   0  0  0  0  0  0  0  0  0  0  0  0
    1.7839    0.7208   -0.0170 C   0  0  0  0  0  0  0  0  0  0  0  0
   -2.9133    0.5164    1.1414 C   0  0  0  0  0  0  0  0  0  0  0  0
    2.4083    0.0373    1.1627 C   0  0  0  0  0  0  0  0  0  0  0  0
    0.4015    0.7465   -0.1068 H   0  0  0  0  0  0  0  0  0  0  0  0
   -2.2254   -0.6527   -1.4486 H   0  0  0  0  0  0  0  0  0  0  0  0
   -0.5396   -0.5666   -2.0875 H   0  0  0  0  0  0  0  0  0  0  0  0
   -1.4930    0.9445   -1.8772 H   0  0  0  0  0  0  0  0  0  0  0  0
    0.3306   -1.8064   -0.0051 H   0  0  0  0  0  0  0  0  0  0  0  0
   -1.3474   -1.9037    0.6525 H   0  0  0  0  0  0  0  0  0  0  0  0
   -0.0283   -1.1425    1.6280 H   0  0  0  0  0  0  0  0  0  0  0  0
    1.7213   -1.0468   -1.2771 H   0  0  0  0  0  0  0  0  0  0  0  0
    1.6017    0.5208   -2.1609 H   0  0  0  0  0  0  0  0  0  0  0  0
    3.1962   -0.0133   -1.4998 H   0  0  0  0  0  0  0  0  0  0  0  0
   -1.3011    1.8411    1.2564 H   0  0  0  0  0  0  0  0  0  0  0  0
    2.1359    1.7737   -0.0793 H   0  0  0  0  0  0  0  0  0  0  0  0
   -3.5388    1.1385    1.7732 H   0  0  0  0  0  0  0  0  0  0  0  0
   -3.3201   -0.4135    0.7577 H   0  0  0  0  0  0  0  0  0  0  0  0
    3.0615   -0.8199    1.0282 H   0  0  0  0  0  0  0  0  0  0  0  0
  1  9  1  0
  2  3  1  0
  2  4  1  0
  2  6  1  0
  2 10  1  0
  3 11  1  0
  3 12  1  0
  3 13  1  0
  4 14  1  0
  4 15  1  0
  4 16  1  0
  5  7  1  0
  5 17  1  0
  5 18  1  0
  5 19  1  0
  6  8  2  3
  6 20  1  0
  7  9  2  3
  7 21  1  0
  8 22  1  0
  8 23  1  0
  9 24  1  0
M  RAD  1   1   2
M  END
>  <reaction>  (17) 
rxn_2002

>  <mol_properties>  (17) 
{"1": {"label": "*4", "atom_type": "Cd"}, "2": {"label": "*3", "atom_type": "Cs"}, "15": {"label": "*1", "atom_type": "Cs"}, "16": {"label": "*0", "atom_type": "CS"}, "21": {"label": "*2", "atom_type": "H0"}}

>  <type>  (17) 
unop_13

>  <geom_source>  (17) 
AutoTST

$$$$
