
     RDKit          3D

 15 15  0  0  0  0  0  0  0  0999 V2000
    2.2031   -0.2111   -0.1693 C   0  0  0  0  0  0  0  0  0  0  0  0
    0.7140   -0.0314   -0.0623 C   0  0  0  0  0  0  0  0  0  0  0  0
   -0.0114    0.5491   -1.0982 C   0  0  0  0  0  0  0  0  0  0  0  0
   -1.3882    0.6886   -1.0150 C   0  0  0  0  0  0  0  0  0  0  0  0
   -2.0661    0.2493    0.1118 C   0  0  0  0  0  0  0  0  0  0  0  0
   -1.3551   -0.3278    1.1528 C   0  0  0  0  0  0  0  0  0  0  0  0
    0.0216   -0.4648    1.0642 C   0  0  0  0  0  0  0  0  0  0  0  0
    2.6776   -0.1836    0.8122 H   0  0  0  0  0  0  0  0  0  0  0  0
    2.4446   -1.1749   -0.6249 H   0  0  0  0  0  0  0  0  0  0  0  0
    2.6532    0.5664   -0.7875 H   0  0  0  0  0  0  0  0  0  0  0  0
    0.5104    0.8989   -1.9819 H   0  0  0  0  0  0  0  0  0  0  0  0
   -1.9328    1.1452   -1.8322 H   0  0  0  0  0  0  0  0  0  0  0  0
   -3.1409    0.3597    0.1800 H   0  0  0  0  0  0  0  0  0  0  0  0
   -1.8736   -0.6702    2.0398 H   0  0  0  0  0  0  0  0  0  0  0  0
    0.5695   -0.9141    1.8849 H   0  0  0  0  0  0  0  0  0  0  0  0
  1  2  1  0
  1  8  1  0
  1  9  1  0
  1 10  1  0
  2  3  2  0
  2  7  1  0
  3  4  1  0
  3 11  1  0
  4  5  2  0
  4 12  1  0
  5  6  1  0
  5 13  1  0
  6  7  2  0
  6 14  1  0
  7 15  1  0
M  END
>  <reaction>  (1) 
rxn_183

>  <mol_properties>  (1) 
{"2": {"label": "donator", "atom_type": "Cd"}, "10": {"label": "d_hydrogen", "atom_type": "H0"}}

>  <type>  (1) 
r1h

$$$$

     RDKit          3D

  1  0  0  0  0  0  0  0  0  0999 V2000
    0.0000    0.0000    0.0000 H   0  0  0  0  0 15  0  0  0  0  0  0
M  END
>  <reaction>  (2) 
rxn_183

>  <mol_properties>  (2) 
{"0": {"label": "acceptor", "atom_type": "H0"}}

>  <type>  (2) 
r2

$$$$

     RDKit          3D

  2  1  0  0  0  0  0  0  0  0999 V2000
    0.0000    0.0000    0.3721 H   0  0  0  0  0  0  0  0  0  0  0  0
    0.0000    0.0000   -0.3721 H   0  0  0  0  0  0  0  0  0  0  0  0
  1  2  1  0
M  END
>  <reaction>  (3) 
rxn_183

>  <mol_properties>  (3) 
{"0": {"label": "a_hydrogen", "atom_type": "H0"}, "1": {"label": "acceptor", "atom_type": "H0"}}

>  <type>  (3) 
r2h

$$$$

     RDKit          3D

 16 15  0  0  0  0  0  0  0  0999 V2000
    0.0448   -0.0399   -2.4395 C   0  0  0  0  0  0  0  0  0  0  0  0
    0.0217   -0.0581   -0.9368 C   0  0  0  0  0  0  0  0  0  0  0  0
   -0.0259    1.1020   -0.1904 C   0  0  0  0  0  0  0  0  0  0  0  0
   -0.0492    1.1586    1.1797 C   0  0  0  0  0  0  0  0  0  0  0  0
   -0.0232   -0.0442    1.8802 C   0  0  0  0  0  0  0  0  0  0  0  0
    0.0246   -1.2395    1.1804 C   0  0  0  0  0  0  0  0  0  0  0  0
    0.0467   -1.2465   -0.2083 C   0  0  0  0  0  0  0  0  0  0  0  0
    0.0823   -1.0517   -2.8424 H   0  0  0  0  0  0  0  0  0  0  0  0
   -0.8439    0.4532   -2.8369 H   0  0  0  0  0  0  0  0  0  0  0  0
    0.9137    0.5073   -2.8091 H   0  0  0  0  0  0  0  0  0  0  0  0
   -0.0533    2.3604   -0.9031 H   0  0  0  0  0  0  0  0  0  0  0  0
   -0.0867    2.1076    1.7006 H   0  0  0  0  0  0  0  0  0  0  0  0
   -0.0404   -0.0431    2.9629 H   0  0  0  0  0  0  0  0  0  0  0  0
    0.0450   -2.1787    1.7187 H   0  0  0  0  0  0  0  0  0  0  0  0
    0.0842   -2.1910   -0.7400 H   0  0  0  0  0  0  0  0  0  0  0  0
   -0.0702    3.1210   -1.3206 H   0  0  0  0  0 15  0  0  0  0  0  0
  1  2  1  0
  1  8  1  0
  1  9  1  0
  1 10  1  0
  2  3  2  0
  2  7  1  0
  3  4  1  0
  3 11  1  0
  4  5  2  0
  4 12  1  0
  5  6  1  0
  5 13  1  0
  6  7  2  0
  6 14  1  0
  7 15  1  0
M  END
>  <reaction>  (4) 
rxn_183

>  <mol_properties>  (4) 
{"1": {"label": "*4", "atom_type": "Cd"}, "2": {"label": "*3", "atom_type": "Cd"}, "10": {"label": "*2", "atom_type": "H0"}, "15": {"label": "*1", "atom_type": "H0"}}

>  <type>  (4) 
ts

$$$$

     RDKit          3D

 16 15  0  0  0  0  0  0  0  0999 V2000
    0.0239   -0.0359   -2.4325 C   0  0  0  0  0  0  0  0  0  0  0  0
    0.0239   -0.0359   -0.9288 C   0  0  0  0  0  0  0  0  0  0  0  0
    0.0239    1.1585   -0.2147 C   0  0  0  0  0  0  0  0  0  0  0  0
   -0.0066    1.1618    1.1713 C   0  0  0  0  0  0  0  0  0  0  0  0
   -0.0361   -0.0352    1.8703 C   0  0  0  0  0  0  0  0  0  0  0  0
   -0.0330   -1.2326    1.1713 C   0  0  0  0  0  0  0  0  0  0  0  0
   -0.0025   -1.2299   -0.2147 C   0  0  0  0  0  0  0  0  0  0  0  0
    0.5154   -0.9248   -2.8292 H   0  0  0  0  0  0  0  0  0  0  0  0
   -0.9983   -0.0246   -2.8193 H   0  0  0  0  0  0  0  0  0  0  0  0
    0.5349    0.8420   -2.8292 H   0  0  0  0  0  0  0  0  0  0  0  0
    0.0558    2.2878   -0.8601 H   0  0  0  0  0  0  0  0  0  0  0  0
   -0.0039    2.1030    1.7070 H   0  0  0  0  0  0  0  0  0  0  0  0
   -0.0573   -0.0350    2.9527 H   0  0  0  0  0  0  0  0  0  0  0  0
   -0.0511   -2.1736    1.7070 H   0  0  0  0  0  0  0  0  0  0  0  0
    0.0034   -2.1714   -0.7525 H   0  0  0  0  0  0  0  0  0  0  0  0
    0.0777    3.0629   -1.3030 H   0  0  0  0  0 15  0  0  0  0  0  0
  1  2  1  0
  1  8  1  0
  1  9  1  0
  1 10  1  0
  2  3  2  0
  2  7  1  0
  3  4  1  0
  3 11  1  0
  4  5  2  0
  4 12  1  0
  5  6  1  0
  5 13  1  0
  6  7  2  0
  6 14  1  0
  7 15  1  0
M  END
>  <reaction>  (5) 
rxn_183

>  <mol_properties>  (5) 
{"1": {"label": "*4", "atom_type": "Cd"}, "2": {"label": "*3", "atom_type": "Cd"}, "10": {"label": "*2", "atom_type": "H0"}, "15": {"label": "*1", "atom_type": "H0"}}

>  <type>  (5) 
unop_1

>  <geom_source>  (5) 
Heuristics

$$$$

     RDKit          3D

 16 15  0  0  0  0  0  0  0  0999 V2000
    2.0385    0.6560    0.1361 C   0  0  0  0  0  0  0  0  0  0  0  0
    0.6519    0.1288   -0.0667 C   0  0  0  0  0  0  0  0  0  0  0  0
    0.4284   -1.2508   -0.1991 C   0  0  0  0  0  0  0  0  0  0  0  0
   -0.8731   -1.7390   -0.3578 C   0  0  0  0  0  0  0  0  0  0  0  0
   -1.9560   -0.8543   -0.3751 C   0  0  0  0  0  0  0  0  0  0  0  0
   -1.7386    0.5192   -0.2301 C   0  0  0  0  0  0  0  0  0  0  0  0
   -0.4390    1.0083   -0.0720 C   0  0  0  0  0  0  0  0  0  0  0  0
    2.7469    0.1427   -0.5483 H   0  0  0  0  0  0  0  0  0  0  0  0
    2.0821    1.7467   -0.0717 H   0  0  0  0  0  0  0  0  0  0  0  0
    2.3526    0.4769    1.1856 H   0  0  0  0  0  0  0  0  0  0  0  0
   -2.9626   -1.2331   -0.4967 H   0  0  0  0  0  0  0  0  0  0  0  0
   -1.0424   -2.8027   -0.4643 H   0  0  0  0  0  0  0  0  0  0  0  0
    1.2596   -1.9449   -0.1796 H   0  0  0  0  0  0  0  0  0  0  0  0
   -2.5745    1.2059   -0.2372 H   0  0  0  0  0  0  0  0  0  0  0  0
   -0.0186    2.4364    1.4975 H   0  0  0  0  0 15  0  0  0  0  0  0
    0.0449    1.5039    0.4793 H   0  0  0  0  0  0  0  0  0  0  0  0
  1  2  1  0
  1  8  1  0
  1  9  1  0
  1 10  1  0
  2  3  2  0
  2  7  1  0
  3  4  1  0
  3 13  1  0
  4  5  2  0
  4 12  1  0
  5  6  1  0
  5 11  1  0
  6  7  2  0
  6 14  1  0
  7 16  1  0
M  END
>  <reaction>  (6) 
rxn_183

>  <mol_properties>  (6) 
{"1": {"label": "*4", "atom_type": "Cd"}, "2": {"label": "*3", "atom_type": "Cd"}, "10": {"label": "*2", "atom_type": "H0"}, "15": {"label": "*1", "atom_type": "H0"}}

>  <type>  (6) 
unop_2

>  <geom_source>  (6) 
AutoTST

$$$$
