
     RDKit          3D

  7  6  0  0  0  0  0  0  0  0999 V2000
    1.6964   -0.0938    0.0583 C   0  0  0  0  0  0  0  0  0  0  0  0
    0.5019   -0.0278    0.0173 C   0  0  0  0  0  0  0  0  0  0  0  0
   -0.9505    0.0525   -0.0327 C   0  0  0  0  0  0  0  0  0  0  0  0
    2.7574   -0.1524    0.0947 H   0  0  0  0  0  0  0  0  0  0  0  0
   -1.2692    0.9972   -0.4754 H   0  0  0  0  0  0  0  0  0  0  0  0
   -1.3749   -0.0147    0.9700 H   0  0  0  0  0  0  0  0  0  0  0  0
   -1.3610   -0.7611   -0.6323 H   0  0  0  0  0  0  0  0  0  0  0  0
  1  2  3  0
  1  4  1  0
  2  3  1  0
  3  5  1  0
  3  6  1  0
  3  7  1  0
M  END
>  <reaction>  (1) 
rxn_1228

>  <mol_properties>  (1) 
{"0": {"label": "donator", "atom_type": "Cs"}, "3": {"label": "d_hydrogen", "atom_type": "H0"}}

>  <type>  (1) 
r1h

$$$$

     RDKit          3D

 17 17  0  0  0  0  0  0  0  0999 V2000
    2.7069    0.2860   -0.1817 C   0  0  0  0  0  0  0  0  0  0  0  0
    1.6304   -0.7245    0.0085 C   0  0  0  0  0  0  0  0  0  0  0  0
    1.4786   -1.8800   -0.7837 C   0  0  0  0  0  0  0  0  0  0  0  0
    0.4231   -2.7891   -0.5312 C   0  0  0  0  0  3  0  0  0  0  0  0
    0.2582   -3.9235   -1.2940 C   0  0  0  0  0  0  0  0  0  0  0  0
    1.1348   -4.2030   -2.3401 C   0  0  0  0  0  0  0  0  0  0  0  0
    2.1804   -3.3260   -2.6093 C   0  0  0  0  0  0  0  0  0  0  0  0
    2.3549   -2.1866   -1.8513 C   0  0  0  0  0  0  0  0  0  0  0  0
    2.6698    0.7343   -1.1808 H   0  0  0  0  0  0  0  0  0  0  0  0
    3.7029   -0.1584   -0.0766 H   0  0  0  0  0  0  0  0  0  0  0  0
    2.6250    1.0917    0.5463 H   0  0  0  0  0  0  0  0  0  0  0  0
    0.9136   -0.5677    0.8059 H   0  0  0  0  0  0  0  0  0  0  0  0
   -0.2629   -2.5783    0.2811 H   0  0  0  0  0  0  0  0  0  0  0  0
   -0.5582   -4.6017   -1.0785 H   0  0  0  0  0  0  0  0  0  0  0  0
    1.0033   -5.0952   -2.9384 H   0  0  0  0  0  0  0  0  0  0  0  0
    2.8650   -3.5382   -3.4214 H   0  0  0  0  0  0  0  0  0  0  0  0
    3.1750   -1.5169   -2.0772 H   0  0  0  0  0  0  0  0  0  0  0  0
  1  2  1  0
  1  9  1  0
  1 10  1  0
  1 11  1  0
  2  3  2  3
  2 12  1  0
  3  4  1  0
  3  8  1  0
  4  5  1  0
  4 13  1  0
  5  6  2  0
  5 14  1  0
  6  7  1  0
  6 15  1  0
  7  8  2  0
  7 16  1  0
  8 17  1  0
M  RAD  1   4   2
M  END
>  <reaction>  (2) 
rxn_1228

>  <mol_properties>  (2) 
{"0": {"label": "acceptor", "atom_type": "Cs"}}

>  <type>  (2) 
r2

$$$$

     RDKit          3D

 18 18  0  0  0  0  0  0  0  0999 V2000
   -2.4852    0.3210   -0.3966 C   0  0  0  0  0  0  0  0  0  0  0  0
   -1.5917   -0.2708    0.6941 C   0  0  0  0  0  0  0  0  0  0  0  0
   -0.1292   -0.1692    0.3493 C   0  0  0  0  0  0  0  0  0  0  0  0
    0.6099    0.9558    0.7015 C   0  0  0  0  0  0  0  0  0  0  0  0
    1.9447    1.0728    0.3458 C   0  0  0  0  0  0  0  0  0  0  0  0
    2.5646    0.0613   -0.3720 C   0  0  0  0  0  0  0  0  0  0  0  0
    1.8399   -1.0657   -0.7287 C   0  0  0  0  0  0  0  0  0  0  0  0
    0.5055   -1.1769   -0.3700 C   0  0  0  0  0  0  0  0  0  0  0  0
   -2.3325   -0.1971   -1.3452 H   0  0  0  0  0  0  0  0  0  0  0  0
   -2.2554    1.3763   -0.5546 H   0  0  0  0  0  0  0  0  0  0  0  0
   -3.5397    0.2376   -0.1280 H   0  0  0  0  0  0  0  0  0  0  0  0
   -1.7801    0.2462    1.6380 H   0  0  0  0  0  0  0  0  0  0  0  0
   -1.8568   -1.3190    0.8516 H   0  0  0  0  0  0  0  0  0  0  0  0
    0.1327    1.7497    1.2656 H   0  0  0  0  0  0  0  0  0  0  0  0
    2.5033    1.9550    0.6330 H   0  0  0  0  0  0  0  0  0  0  0  0
    3.6077    0.1491   -0.6484 H   0  0  0  0  0  0  0  0  0  0  0  0
    2.3163   -1.8632   -1.2854 H   0  0  0  0  0  0  0  0  0  0  0  0
   -0.0540   -2.0629   -0.6500 H   0  0  0  0  0  0  0  0  0  0  0  0
  1  2  1  0
  1  9  1  0
  1 10  1  0
  1 11  1  0
  2  3  1  0
  2 12  1  0
  2 13  1  0
  3  4  2  0
  3  8  1  0
  4  5  1  0
  4 14  1  0
  5  6  2  0
  5 15  1  0
  6  7  1  0
  6 16  1  0
  7  8  2  0
  7 17  1  0
  8 18  1  0
M  END
>  <reaction>  (3) 
rxn_1228

>  <mol_properties>  (3) 
{"0": {"label": "acceptor", "atom_type": "Cs"}, "8": {"label": "a_hydrogen", "atom_type": "H0"}}

>  <type>  (3) 
r2h

$$$$

     RDKit          3D

 24 23  0  0  0  0  0  0  0  0999 V2000
    0.6010   -1.1391    0.6132 C   0  0  0  0  0  0  0  0  0  0  0  0
    1.2943   -0.6573    1.8626 C   0  0  0  0  0  0  0  0  0  0  0  0
   -0.6951   -0.5544    0.2322 C   0  0  0  0  0  0  0  0  0  0  0  0
   -1.0523    0.7492    0.5857 C   0  0  0  0  0  0  0  0  0  0  0  0
   -1.5832   -1.2851   -0.5633 C   0  0  0  0  0  0  0  0  0  0  0  0
   -2.2547    1.2945    0.1670 C   0  0  0  0  0  0  0  0  0  0  0  0
   -3.1264    0.5542   -0.6173 C   0  0  0  0  0  0  0  0  0  0  0  0
   -2.7841   -0.7410   -0.9813 C   0  0  0  0  0  0  0  0  0  0  0  0
    2.2724   -0.1999   -1.2785 C   0  0  0  0  0  3  0  0  0  0  0  0
    2.4629    1.1485   -0.8913 C   0  0  0  0  0  0  0  0  0  0  0  0
    2.5820    2.2839   -0.5072 C   0  0  0  0  0  0  0  0  0  0  0  0
    1.4183   -0.7501   -0.3411 H   0  0  0  0  0  0  0  0  0  0  0  0
    0.6202   -2.2223    0.4947 H   0  0  0  0  0  0  0  0  0  0  0  0
    0.6595   -0.7889    2.7434 H   0  0  0  0  0  0  0  0  0  0  0  0
    1.5567    0.4001    1.7926 H   0  0  0  0  0  0  0  0  0  0  0  0
    2.2188   -1.2123    2.0246 H   0  0  0  0  0  0  0  0  0  0  0  0
   -0.3815    1.3453    1.1903 H   0  0  0  0  0  0  0  0  0  0  0  0
   -2.5117    2.3066    0.4538 H   0  0  0  0  0  0  0  0  0  0  0  0
   -4.0661    0.9822   -0.9423 H   0  0  0  0  0  0  0  0  0  0  0  0
   -3.4581   -1.3292   -1.5916 H   0  0  0  0  0  0  0  0  0  0  0  0
   -1.3239   -2.2984   -0.8496 H   0  0  0  0  0  0  0  0  0  0  0  0
    3.1527   -0.8338   -1.2146 H   0  0  0  0  0  0  0  0  0  0  0  0
    1.6955   -0.3452   -2.1880 H   0  0  0  0  0  0  0  0  0  0  0  0
    2.7029    3.2927   -0.1943 H   0  0  0  0  0  0  0  0  0  0  0  0
  1  2  1  0
  1  3  1  0
  1 12  1  0
  1 13  1  0
  2 14  1  0
  2 15  1  0
  2 16  1  0
  3  4  2  0
  3  5  1  0
  4  6  1  0
  4 17  1  0
  5  8  2  0
  5 21  1  0
  6  7  2  0
  6 18  1  0
  7  8  1  0
  7 19  1  0
  8 20  1  0
  9 10  1  0
  9 22  1  0
  9 23  1  0
 10 11  3  0
 11 24  1  0
M  RAD  1   9   2
M  END
>  <reaction>  (4) 
rxn_1228

>  <mol_properties>  (4) 
{"0": {"label": "*1", "atom_type": "Cs"}, "2": {"label": "*0", "atom_type": "Cd"}, "8": {"label": "*3", "atom_type": "Cs"}, "9": {"label": "*4", "atom_type": "Ct"}, "11": {"label": "*2", "atom_type": "H0"}}

>  <type>  (4) 
ts

$$$$

     RDKit          3D

 24 23  0  0  0  0  0  0  0  0999 V2000
   -0.7722   -3.0972   -2.6000 C   0  0  0  0  0  0  0  0  0  0  0  0
   -0.7722   -3.0972   -1.4029 C   0  0  0  0  0  0  0  0  0  0  0  0
   -0.7722   -3.0972    0.0525 C   0  0  0  0  0  0  0  0  0  0  0  0
   -0.7722   -3.0972   -3.6633 H   0  0  0  0  0  0  0  0  0  0  0  0
   -0.6607   -1.8776    0.5149 H   0  0  0  0  0  0  0  0  0  0  0  0
    0.0616   -3.6857    0.4378 H   0  0  0  0  0  0  0  0  0  0  0  0
   -1.6987   -3.5249    0.4378 H   0  0  0  0  0  0  0  0  0  0  0  0
   -1.7728   -0.3226    1.8322 C   0  0  0  0  0  0  0  0  0  0  0  0
   -0.5491   -0.6561    0.9781 C   0  0  0  0  0  0  0  0  0  0  0  0
    0.1797    0.5798    0.5202 C   0  0  0  0  0  0  0  0  0  0  0  0
    1.1860    1.1435    1.2983 C   0  0  0  0  0  3  0  0  0  0  0  0
    1.8274    2.3069    0.9021 C   0  0  0  0  0  0  0  0  0  0  0  0
    1.4704    2.9284   -0.2849 C   0  0  0  0  0  0  0  0  0  0  0  0
    0.4697    2.3768   -1.0704 C   0  0  0  0  0  0  0  0  0  0  0  0
   -0.1680    1.2132   -0.6687 C   0  0  0  0  0  0  0  0  0  0  0  0
   -2.4809    0.2899    1.2710 H   0  0  0  0  0  0  0  0  0  0  0  0
   -1.4820    0.2384    2.7223 H   0  0  0  0  0  0  0  0  0  0  0  0
   -2.2862   -1.2305    2.1534 H   0  0  0  0  0  0  0  0  0  0  0  0
    0.1323   -1.2893    1.5513 H   0  0  0  0  0  0  0  0  0  0  0  0
    1.4729    0.6614    2.2265 H   0  0  0  0  0  0  0  0  0  0  0  0
    2.6108    2.7274    1.5203 H   0  0  0  0  0  0  0  0  0  0  0  0
    1.9719    3.8354   -0.5980 H   0  0  0  0  0  0  0  0  0  0  0  0
    0.1867    2.8522   -2.0014 H   0  0  0  0  0  0  0  0  0  0  0  0
   -0.9476    0.7860   -1.2900 H   0  0  0  0  0  0  0  0  0  0  0  0
  1  2  3  0
  1  4  1  0
  2  3  1  0
  3  5  1  0
  3  6  1  0
  3  7  1  0
  8  9  1  0
  8 16  1  0
  8 17  1  0
  8 18  1  0
  9 10  2  3
  9 19  1  0
 10 11  1  0
 10 15  1  0
 11 12  1  0
 11 20  1  0
 12 13  2  0
 12 21  1  0
 13 14  1  0
 13 22  1  0
 14 15  2  0
 14 23  1  0
 15 24  1  0
M  RAD  1  11   2
M  END
>  <reaction>  (5) 
rxn_1228

>  <mol_properties>  (5) 
{"0": {"label": "*1", "atom_type": "Cs"}, "2": {"label": "*0", "atom_type": "Cd"}, "8": {"label": "*3", "atom_type": "Cs"}, "9": {"label": "*4", "atom_type": "Ct"}, "11": {"label": "*2", "atom_type": "H0"}}

>  <type>  (5) 
unop_1

>  <geom_source>  (5) 
Heuristics

$$$$

     RDKit          3D

 24 23  0  0  0  0  0  0  0  0999 V2000
   -1.4105   -2.4506   -3.4621 C   0  0  0  0  0  0  0  0  0  0  0  0
   -1.4105   -2.4506   -2.2650 C   0  0  0  0  0  0  0  0  0  0  0  0
   -1.4105   -2.4506   -0.8096 C   0  0  0  0  0  0  0  0  0  0  0  0
   -1.4105   -2.4506   -4.5254 H   0  0  0  0  0  0  0  0  0  0  0  0
   -1.2990   -1.2310   -0.3472 H   0  0  0  0  0  0  0  0  0  0  0  0
   -0.5768   -3.0392   -0.4243 H   0  0  0  0  0  0  0  0  0  0  0  0
   -2.3371   -2.8783   -0.4243 H   0  0  0  0  0  0  0  0  0  0  0  0
   -1.8220    0.9689   -0.8730 C   0  0  0  0  0  0  0  0  0  0  0  0
   -1.1874   -0.0095    0.1160 C   0  0  0  0  0  0  0  0  0  0  0  0
    0.0906    0.5260    0.7061 C   0  0  0  0  0  0  0  0  0  0  0  0
    0.0729    1.2974    1.8638 C   0  0  0  0  0  3  0  0  0  0  0  0
    1.2421    1.8302    2.3842 C   0  0  0  0  0  0  0  0  0  0  0  0
    2.4541    1.5989    1.7514 C   0  0  0  0  0  0  0  0  0  0  0  0
    2.4861    0.8311    0.5973 C   0  0  0  0  0  0  0  0  0  0  0  0
    1.3134    0.3010    0.0818 C   0  0  0  0  0  0  0  0  0  0  0  0
   -1.1402    1.1813   -1.6985 H   0  0  0  0  0  0  0  0  0  0  0  0
   -2.0554    1.9165   -0.3838 H   0  0  0  0  0  0  0  0  0  0  0  0
   -2.7457    0.5627   -1.2888 H   0  0  0  0  0  0  0  0  0  0  0  0
   -1.8965   -0.2259    0.9185 H   0  0  0  0  0  0  0  0  0  0  0  0
   -0.8708    1.4801    2.3661 H   0  0  0  0  0  0  0  0  0  0  0  0
    1.2073    2.4249    3.2887 H   0  0  0  0  0  0  0  0  0  0  0  0
    3.3689    2.0115    2.1576 H   0  0  0  0  0  0  0  0  0  0  0  0
    3.4282    0.6410    0.0982 H   0  0  0  0  0  0  0  0  0  0  0  0
    1.3468   -0.3012   -0.8196 H   0  0  0  0  0  0  0  0  0  0  0  0
  1  2  3  0
  1  4  1  0
  2  3  1  0
  3  5  1  0
  3  6  1  0
  3  7  1  0
  8  9  1  0
  8 16  1  0
  8 17  1  0
  8 18  1  0
  9 10  2  3
  9 19  1  0
 10 11  1  0
 10 15  1  0
 11 12  1  0
 11 20  1  0
 12 13  2  0
 12 21  1  0
 13 14  1  0
 13 22  1  0
 14 15  2  0
 14 23  1  0
 15 24  1  0
M  RAD  1  11   2
M  END
>  <reaction>  (6) 
rxn_1228

>  <mol_properties>  (6) 
{"0": {"label": "*1", "atom_type": "Cs"}, "2": {"label": "*0", "atom_type": "Cd"}, "8": {"label": "*3", "atom_type": "Cs"}, "9": {"label": "*4", "atom_type": "Ct"}, "11": {"label": "*2", "atom_type": "H0"}}

>  <type>  (6) 
unop_2

>  <geom_source>  (6) 
Heuristics

$$$$

     RDKit          3D

 24 23  0  0  0  0  0  0  0  0999 V2000
   -0.0509   -3.1390   -2.3482 C   0  0  0  0  0  0  0  0  0  0  0  0
   -0.0509   -3.1390   -1.1512 C   0  0  0  0  0  0  0  0  0  0  0  0
   -0.0509   -3.1390    0.3042 C   0  0  0  0  0  0  0  0  0  0  0  0
   -0.0509   -3.1390   -3.4115 H   0  0  0  0  0  0  0  0  0  0  0  0
    0.0606   -1.9194    0.7667 H   0  0  0  0  0  0  0  0  0  0  0  0
    0.7828   -3.7276    0.6896 H   0  0  0  0  0  0  0  0  0  0  0  0
   -0.9775   -3.5667    0.6896 H   0  0  0  0  0  0  0  0  0  0  0  0
   -0.5428   -0.5982    2.5778 C   0  0  0  0  0  0  0  0  0  0  0  0
    0.1722   -0.6979    1.2298 C   0  0  0  0  0  0  0  0  0  0  0  0
    0.1460    0.6043    0.4736 C   0  0  0  0  0  0  0  0  0  0  0  0
    1.1472    1.5534    0.6535 C   0  0  0  0  0  3  0  0  0  0  0  0
    1.1022    2.7719   -0.0062 C   0  0  0  0  0  0  0  0  0  0  0  0
    0.0492    3.0621   -0.8604 C   0  0  0  0  0  0  0  0  0  0  0  0
   -0.9549    2.1247   -1.0494 C   0  0  0  0  0  0  0  0  0  0  0  0
   -0.9042    0.9080   -0.3869 C   0  0  0  0  0  0  0  0  0  0  0  0
   -1.5884   -0.3163    2.4411 H   0  0  0  0  0  0  0  0  0  0  0  0
   -0.0749    0.1599    3.2087 H   0  0  0  0  0  0  0  0  0  0  0  0
   -0.5126   -1.5509    3.1093 H   0  0  0  0  0  0  0  0  0  0  0  0
    1.2084   -1.0051    1.3902 H   0  0  0  0  0  0  0  0  0  0  0  0
    1.9756    1.3325    1.3177 H   0  0  0  0  0  0  0  0  0  0  0  0
    1.8936    3.4957    0.1447 H   0  0  0  0  0  0  0  0  0  0  0  0
    0.0133    4.0118   -1.3789 H   0  0  0  0  0  0  0  0  0  0  0  0
   -1.7792    2.3401   -1.7180 H   0  0  0  0  0  0  0  0  0  0  0  0
   -1.6917    0.1785   -0.5422 H   0  0  0  0  0  0  0  0  0  0  0  0
  1  2  3  0
  1  4  1  0
  2  3  1  0
  3  5  1  0
  3  6  1  0
  3  7  1  0
  8  9  1  0
  8 16  1  0
  8 17  1  0
  8 18  1  0
  9 10  2  3
  9 19  1  0
 10 11  1  0
 10 15  1  0
 11 12  1  0
 11 20  1  0
 12 13  2  0
 12 21  1  0
 13 14  1  0
 13 22  1  0
 14 15  2  0
 14 23  1  0
 15 24  1  0
M  RAD  1  11   2
M  END
>  <reaction>  (7) 
rxn_1228

>  <mol_properties>  (7) 
{"0": {"label": "*1", "atom_type": "Cs"}, "2": {"label": "*0", "atom_type": "Cd"}, "8": {"label": "*3", "atom_type": "Cs"}, "9": {"label": "*4", "atom_type": "Ct"}, "11": {"label": "*2", "atom_type": "H0"}}

>  <type>  (7) 
unop_3

>  <geom_source>  (7) 
Heuristics

$$$$

     RDKit          3D

 24 23  0  0  0  0  0  0  0  0999 V2000
   -0.4973   -1.1045   -4.2758 C   0  0  0  0  0  0  0  0  0  0  0  0
   -0.4973   -1.1045   -3.0787 C   0  0  0  0  0  0  0  0  0  0  0  0
   -0.4973   -1.1045   -1.6233 C   0  0  0  0  0  0  0  0  0  0  0  0
   -0.4973   -1.1045   -5.3390 H   0  0  0  0  0  0  0  0  0  0  0  0
   -0.3858    0.1151   -1.1609 H   0  0  0  0  0  0  0  0  0  0  0  0
    0.3365   -1.6931   -1.2379 H   0  0  0  0  0  0  0  0  0  0  0  0
   -1.4238   -1.5322   -1.2379 H   0  0  0  0  0  0  0  0  0  0  0  0
    1.0361    1.9500   -1.1928 C   0  0  0  0  0  0  0  0  0  0  0  0
   -0.2742    1.3365   -0.6977 C   0  0  0  0  0  0  0  0  0  0  0  0
   -0.1068    0.6203    0.6165 C   0  0  0  0  0  0  0  0  0  0  0  0
   -0.2577    1.2982    1.8221 C   0  0  0  0  0  3  0  0  0  0  0  0
   -0.0594    0.6531    3.0331 C   0  0  0  0  0  0  0  0  0  0  0  0
    0.2952   -0.6872    3.0576 C   0  0  0  0  0  0  0  0  0  0  0  0
    0.4481   -1.3749    1.8633 C   0  0  0  0  0  0  0  0  0  0  0  0
    0.2484   -0.7243    0.6555 C   0  0  0  0  0  0  0  0  0  0  0  0
    1.7963    1.1790   -1.3310 H   0  0  0  0  0  0  0  0  0  0  0  0
    1.4229    2.6711   -0.4703 H   0  0  0  0  0  0  0  0  0  0  0  0
    0.8936    2.4637   -2.1451 H   0  0  0  0  0  0  0  0  0  0  0  0
   -1.0256    2.1225   -0.5910 H   0  0  0  0  0  0  0  0  0  0  0  0
   -0.5380    2.3458    1.8111 H   0  0  0  0  0  0  0  0  0  0  0  0
   -0.1856    1.1978    3.9606 H   0  0  0  0  0  0  0  0  0  0  0  0
    0.4477   -1.1938    4.0021 H   0  0  0  0  0  0  0  0  0  0  0  0
    0.7205   -2.4230    1.8719 H   0  0  0  0  0  0  0  0  0  0  0  0
    0.3668   -1.2697   -0.2744 H   0  0  0  0  0  0  0  0  0  0  0  0
  1  2  3  0
  1  4  1  0
  2  3  1  0
  3  5  1  0
  3  6  1  0
  3  7  1  0
  8  9  1  0
  8 16  1  0
  8 17  1  0
  8 18  1  0
  9 10  2  3
  9 19  1  0
 10 11  1  0
 10 15  1  0
 11 12  1  0
 11 20  1  0
 12 13  2  0
 12 21  1  0
 13 14  1  0
 13 22  1  0
 14 15  2  0
 14 23  1  0
 15 24  1  0
M  RAD  1  11   2
M  END
>  <reaction>  (8) 
rxn_1228

>  <mol_properties>  (8) 
{"0": {"label": "*1", "atom_type": "Cs"}, "2": {"label": "*0", "atom_type": "Cd"}, "8": {"label": "*3", "atom_type": "Cs"}, "9": {"label": "*4", "atom_type": "Ct"}, "11": {"label": "*2", "atom_type": "H0"}}

>  <type>  (8) 
unop_4

>  <geom_source>  (8) 
Heuristics

$$$$

     RDKit          3D

 24 23  0  0  0  0  0  0  0  0999 V2000
    0.9944   -2.6550   -2.5797 C   0  0  0  0  0  0  0  0  0  0  0  0
    0.9944   -2.6550   -1.3827 C   0  0  0  0  0  0  0  0  0  0  0  0
    0.9944   -2.6550    0.0727 C   0  0  0  0  0  0  0  0  0  0  0  0
    0.9944   -2.6550   -3.6430 H   0  0  0  0  0  0  0  0  0  0  0  0
    1.1058   -1.4355    0.5352 H   0  0  0  0  0  0  0  0  0  0  0  0
    1.8281   -3.2436    0.4581 H   0  0  0  0  0  0  0  0  0  0  0  0
    0.0678   -3.0827    0.4581 H   0  0  0  0  0  0  0  0  0  0  0  0
    1.2143   -0.2478    2.5271 C   0  0  0  0  0  0  0  0  0  0  0  0
    1.2174   -0.2140    0.9983 C   0  0  0  0  0  0  0  0  0  0  0  0
    0.1041    0.6363    0.4454 C   0  0  0  0  0  0  0  0  0  0  0  0
    0.2876    1.9982    0.2281 C   0  0  0  0  0  3  0  0  0  0  0  0
   -0.7487    2.7926   -0.2374 C   0  0  0  0  0  0  0  0  0  0  0  0
   -1.9918    2.2345   -0.4942 C   0  0  0  0  0  0  0  0  0  0  0  0
   -2.1882    0.8782   -0.2828 C   0  0  0  0  0  0  0  0  0  0  0  0
   -1.1479    0.0891    0.1829 C   0  0  0  0  0  0  0  0  0  0  0  0
    0.2723   -0.6512    2.9031 H   0  0  0  0  0  0  0  0  0  0  0  0
    1.3314    0.7573    2.9365 H   0  0  0  0  0  0  0  0  0  0  0  0
    2.0276   -0.8684    2.9074 H   0  0  0  0  0  0  0  0  0  0  0  0
    2.1779    0.1692    0.6455 H   0  0  0  0  0  0  0  0  0  0  0  0
    1.2580    2.4413    0.4237 H   0  0  0  0  0  0  0  0  0  0  0  0
   -0.5841    3.8500   -0.4036 H   0  0  0  0  0  0  0  0  0  0  0  0
   -2.8019    2.8523   -0.8606 H   0  0  0  0  0  0  0  0  0  0  0  0
   -3.1541    0.4321   -0.4846 H   0  0  0  0  0  0  0  0  0  0  0  0
   -1.3082   -0.9716    0.3429 H   0  0  0  0  0  0  0  0  0  0  0  0
  1  2  3  0
  1  4  1  0
  2  3  1  0
  3  5  1  0
  3  6  1  0
  3  7  1  0
  8  9  1  0
  8 16  1  0
  8 17  1  0
  8 18  1  0
  9 10  2  3
  9 19  1  0
 10 11  1  0
 10 15  1  0
 11 12  1  0
 11 20  1  0
 12 13  2  0
 12 21  1  0
 13 14  1  0
 13 22  1  0
 14 15  2  0
 14 23  1  0
 15 24  1  0
M  RAD  1  11   2
M  END
>  <reaction>  (9) 
rxn_1228

>  <mol_properties>  (9) 
{"0": {"label": "*1", "atom_type": "Cs"}, "2": {"label": "*0", "atom_type": "Cd"}, "8": {"label": "*3", "atom_type": "Cs"}, "9": {"label": "*4", "atom_type": "Ct"}, "11": {"label": "*2", "atom_type": "H0"}}

>  <type>  (9) 
unop_5

>  <geom_source>  (9) 
Heuristics

$$$$

     RDKit          3D

 24 22  0  0  0  0  0  0  0  0999 V2000
    0.2304   -1.0108   -4.2074 C   0  0  0  0  0  0  0  0  0  0  0  0
    0.2304   -1.0108   -3.0104 C   0  0  0  0  0  3  0  0  0  0  0  0
    0.2304   -1.0108   -1.5550 C   0  0  0  0  0  3  0  0  0  0  0  0
    0.2304   -1.0108   -5.2707 H   0  0  0  0  0  0  0  0  0  0  0  0
    0.3418    0.2087   -1.0926 H   0  0  0  0  0  0  0  0  0  0  0  0
    1.0641   -1.5994   -1.1696 H   0  0  0  0  0  0  0  0  0  0  0  0
   -0.6962   -1.4385   -1.1696 H   0  0  0  0  0  0  0  0  0  0  0  0
    1.9329    1.7724   -0.4499 C   0  0  0  0  0  0  0  0  0  0  0  0
    0.4534    1.4302   -0.6294 C   0  0  0  0  0  0  0  0  0  0  0  0
   -0.0978    0.6563    0.5391 C   0  0  0  0  0  0  0  0  0  0  0  0
   -0.6396    1.3147    1.6385 C   0  0  0  0  0  3  0  0  0  0  0  0
   -1.1061    0.6070    2.7355 C   0  0  0  0  0  0  0  0  0  0  0  0
   -1.0375   -0.7778    2.7505 C   0  0  0  0  0  0  0  0  0  0  0  0
   -0.5007   -1.4467    1.6609 C   0  0  0  0  0  0  0  0  0  0  0  0
   -0.0358   -0.7333    0.5669 C   0  0  0  0  0  0  0  0  0  0  0  0
    2.5298    0.8647   -0.3434 H   0  0  0  0  0  0  0  0  0  0  0  0
    2.0843    2.3757    0.4472 H   0  0  0  0  0  0  0  0  0  0  0  0
    2.3128    2.3325   -1.3061 H   0  0  0  0  0  0  0  0  0  0  0  0
   -0.1193    2.3516   -0.7587 H   0  0  0  0  0  0  0  0  0  0  0  0
   -0.6995    2.3976    1.6328 H   0  0  0  0  0  0  0  0  0  0  0  0
   -1.5277    1.1384    3.5797 H   0  0  0  0  0  0  0  0  0  0  0  0
   -1.4038   -1.3328    3.6048 H   0  0  0  0  0  0  0  0  0  0  0  0
   -0.4468   -2.5283    1.6611 H   0  0  0  0  0  0  0  0  0  0  0  0
    0.3799   -1.2637   -0.2830 H   0  0  0  0  0  0  0  0  0  0  0  0
  1  2  3  0
  1  4  1  0
  3  5  1  0
  3  6  1  0
  3  7  1  0
  8  9  1  0
  8 16  1  0
  8 17  1  0
  8 18  1  0
  9 10  2  3
  9 19  1  0
 10 11  1  0
 10 15  1  0
 11 12  1  0
 11 20  1  0
 12 13  2  0
 12 21  1  0
 13 14  1  0
 13 22  1  0
 14 15  2  0
 14 23  1  0
 15 24  1  0
M  RAD  3   2   2   3   2  11   2
M  END
>  <reaction>  (10) 
rxn_1228

>  <mol_properties>  (10) 
{"0": {"label": "*1", "atom_type": "Cs"}, "2": {"label": "*0", "atom_type": "Cd"}, "8": {"label": "*3", "atom_type": "Cs"}, "9": {"label": "*4", "atom_type": "Ct"}, "11": {"label": "*2", "atom_type": "H0"}}

>  <type>  (10) 
unop_6

>  <geom_source>  (10) 
Heuristics

$$$$

     RDKit          3D

 24 22  0  0  0  0  0  0  0  0999 V2000
    0.8935   -1.1966   -3.8764 C   0  0  0  0  0  0  0  0  0  0  0  0
    0.8935   -1.1966   -2.6794 C   0  0  0  0  0  3  0  0  0  0  0  0
    0.8935   -1.1966   -1.2239 C   0  0  0  0  0  3  0  0  0  0  0  0
    0.8935   -1.1966   -4.9397 H   0  0  0  0  0  0  0  0  0  0  0  0
    1.0050    0.0229   -0.7615 H   0  0  0  0  0  0  0  0  0  0  0  0
    1.7272   -1.7852   -0.8386 H   0  0  0  0  0  0  0  0  0  0  0  0
   -0.0331   -1.6243   -0.8386 H   0  0  0  0  0  0  0  0  0  0  0  0
    2.3805    1.3506    0.5558 C   0  0  0  0  0  0  0  0  0  0  0  0
    1.1166    1.2444   -0.2984 C   0  0  0  0  0  0  0  0  0  0  0  0
   -0.0458    0.6767    0.4728 C   0  0  0  0  0  0  0  0  0  0  0  0
   -0.9000    1.5084    1.1900 C   0  0  0  0  0  3  0  0  0  0  0  0
   -1.9435    0.9855    1.9380 C   0  0  0  0  0  0  0  0  0  0  0  0
   -2.1501   -0.3850    1.9811 C   0  0  0  0  0  0  0  0  0  0  0  0
   -1.3066   -1.2253    1.2703 C   0  0  0  0  0  0  0  0  0  0  0  0
   -0.2649   -0.6963    0.5241 C   0  0  0  0  0  0  0  0  0  0  0  0
    2.6790    0.3690    0.9286 H   0  0  0  0  0  0  0  0  0  0  0  0
    2.2104    1.9956    1.4198 H   0  0  0  0  0  0  0  0  0  0  0  0
    3.2100    1.7636   -0.0207 H   0  0  0  0  0  0  0  0  0  0  0  0
    0.8522    2.2335   -0.6800 H   0  0  0  0  0  0  0  0  0  0  0  0
   -0.7466    2.5816    1.1586 H   0  0  0  0  0  0  0  0  0  0  0  0
   -2.5995    1.6504    2.4861 H   0  0  0  0  0  0  0  0  0  0  0  0
   -2.9660   -0.7955    2.5622 H   0  0  0  0  0  0  0  0  0  0  0  0
   -1.4624   -2.2968    1.2940 H   0  0  0  0  0  0  0  0  0  0  0  0
    0.3887   -1.3597   -0.0317 H   0  0  0  0  0  0  0  0  0  0  0  0
  1  2  3  0
  1  4  1  0
  3  5  1  0
  3  6  1  0
  3  7  1  0
  8  9  1  0
  8 16  1  0
  8 17  1  0
  8 18  1  0
  9 10  2  3
  9 19  1  0
 10 11  1  0
 10 15  1  0
 11 12  1  0
 11 20  1  0
 12 13  2  0
 12 21  1  0
 13 14  1  0
 13 22  1  0
 14 15  2  0
 14 23  1  0
 15 24  1  0
M  RAD  3   2   2   3   2  11   2
M  END
>  <reaction>  (11) 
rxn_1228

>  <mol_properties>  (11) 
{"0": {"label": "*1", "atom_type": "Cs"}, "2": {"label": "*0", "atom_type": "Cd"}, "8": {"label": "*3", "atom_type": "Cs"}, "9": {"label": "*4", "atom_type": "Ct"}, "11": {"label": "*2", "atom_type": "H0"}}

>  <type>  (11) 
unop_7

>  <geom_source>  (11) 
Heuristics

$$$$

     RDKit          3D

 24 23  0  0  0  0  0  0  0  0999 V2000
   -1.1085   -2.9406   -2.9314 C   0  0  0  0  0  0  0  0  0  0  0  0
   -1.1085   -2.9406   -1.7343 C   0  0  0  0  0  0  0  0  0  0  0  0
   -1.1085   -2.9406   -0.2789 C   0  0  0  0  0  0  0  0  0  0  0  0
   -1.1085   -2.9406   -3.9947 H   0  0  0  0  0  0  0  0  0  0  0  0
   -0.9971   -1.7211    0.1835 H   0  0  0  0  0  0  0  0  0  0  0  0
   -0.2748   -3.5292    0.1064 H   0  0  0  0  0  0  0  0  0  0  0  0
   -2.0351   -3.3684    0.1064 H   0  0  0  0  0  0  0  0  0  0  0  0
   -2.2784    0.1051    0.8262 C   0  0  0  0  0  0  0  0  0  0  0  0
   -0.8854   -0.4996    0.6467 C   0  0  0  0  0  0  0  0  0  0  0  0
    0.1892    0.5538    0.5865 C   0  0  0  0  0  0  0  0  0  0  0  0
    0.8080    1.0082    1.7469 C   0  0  0  0  0  3  0  0  0  0  0  0
    1.7649    2.0102    1.6999 C   0  0  0  0  0  0  0  0  0  0  0  0
    2.1198    2.5769    0.4851 C   0  0  0  0  0  0  0  0  0  0  0  0
    1.5115    2.1328   -0.6791 C   0  0  0  0  0  0  0  0  0  0  0  0
    0.5553    1.1305   -0.6256 C   0  0  0  0  0  0  0  0  0  0  0  0
   -2.5186    0.7756   -0.0011 H   0  0  0  0  0  0  0  0  0  0  0  0
   -2.3321    0.6854    1.7492 H   0  0  0  0  0  0  0  0  0  0  0  0
   -3.0418   -0.6736    0.8674 H   0  0  0  0  0  0  0  0  0  0  0  0
   -0.6779   -1.1848    1.4720 H   0  0  0  0  0  0  0  0  0  0  0  0
    0.5379    0.5676    2.7004 H   0  0  0  0  0  0  0  0  0  0  0  0
    2.2375    2.3470    2.6143 H   0  0  0  0  0  0  0  0  0  0  0  0
    2.8689    3.3574    0.4456 H   0  0  0  0  0  0  0  0  0  0  0  0
    1.7851    2.5659   -1.6333 H   0  0  0  0  0  0  0  0  0  0  0  0
    0.0862    0.7862   -1.5409 H   0  0  0  0  0  0  0  0  0  0  0  0
  1  2  3  0
  1  4  1  0
  2  3  1  0
  3  5  1  0
  3  6  1  0
  3  7  1  0
  8  9  1  0
  8 16  1  0
  8 17  1  0
  8 18  1  0
  9 10  2  3
  9 19  1  0
 10 11  1  0
 10 15  1  0
 11 12  1  0
 11 20  1  0
 12 13  2  0
 12 21  1  0
 13 14  1  0
 13 22  1  0
 14 15  2  0
 14 23  1  0
 15 24  1  0
M  RAD  1  11   2
M  END
>  <reaction>  (12) 
rxn_1228

>  <mol_properties>  (12) 
{"0": {"label": "*1", "atom_type": "Cs"}, "2": {"label": "*0", "atom_type": "Cd"}, "8": {"label": "*3", "atom_type": "Cs"}, "9": {"label": "*4", "atom_type": "Ct"}, "11": {"label": "*2", "atom_type": "H0"}}

>  <type>  (12) 
unop_8

>  <geom_source>  (12) 
Heuristics

$$$$

     RDKit          3D

 24 23  0  0  0  0  0  0  0  0999 V2000
   -1.1110   -1.4608   -4.0945 C   0  0  0  0  0  0  0  0  0  0  0  0
   -1.1110   -1.4608   -2.8975 C   0  0  0  0  0  0  0  0  0  0  0  0
   -1.1110   -1.4608   -1.4421 C   0  0  0  0  0  0  0  0  0  0  0  0
   -1.1110   -1.4608   -5.1578 H   0  0  0  0  0  0  0  0  0  0  0  0
   -0.9995   -0.2413   -0.9797 H   0  0  0  0  0  0  0  0  0  0  0  0
   -0.2773   -2.0494   -1.0567 H   0  0  0  0  0  0  0  0  0  0  0  0
   -2.0376   -1.8885   -1.0567 H   0  0  0  0  0  0  0  0  0  0  0  0
   -0.0864    1.8275   -1.5054 C   0  0  0  0  0  0  0  0  0  0  0  0
   -0.8879    0.9802   -0.5165 C   0  0  0  0  0  0  0  0  0  0  0  0
   -0.0700    0.5785    0.6826 C   0  0  0  0  0  0  0  0  0  0  0  0
   -0.0109    1.3915    1.8101 C   0  0  0  0  0  3  0  0  0  0  0  0
    0.7771    1.0472    2.8976 C   0  0  0  0  0  0  0  0  0  0  0  0
    1.5226   -0.1217    2.8743 C   0  0  0  0  0  0  0  0  0  0  0  0
    1.4722   -0.9415    1.7571 C   0  0  0  0  0  0  0  0  0  0  0  0
    0.6823   -0.5919    0.6728 C   0  0  0  0  0  0  0  0  0  0  0  0
    0.7845    1.2783   -1.8682 H   0  0  0  0  0  0  0  0  0  0  0  0
    0.2731    2.7415   -1.0291 H   0  0  0  0  0  0  0  0  0  0  0  0
   -0.6961    2.1078   -2.3660 H   0  0  0  0  0  0  0  0  0  0  0  0
   -1.7663    1.5403   -0.1871 H   0  0  0  0  0  0  0  0  0  0  0  0
   -0.5936    2.3058    1.8370 H   0  0  0  0  0  0  0  0  0  0  0  0
    0.8063    1.6920    3.7672 H   0  0  0  0  0  0  0  0  0  0  0  0
    2.1364   -0.3941    3.7234 H   0  0  0  0  0  0  0  0  0  0  0  0
    2.0473   -1.8588    1.7310 H   0  0  0  0  0  0  0  0  0  0  0  0
    0.6456   -1.2398   -0.1962 H   0  0  0  0  0  0  0  0  0  0  0  0
  1  2  3  0
  1  4  1  0
  2  3  1  0
  3  5  1  0
  3  6  1  0
  3  7  1  0
  8  9  1  0
  8 16  1  0
  8 17  1  0
  8 18  1  0
  9 10  2  3
  9 19  1  0
 10 11  1  0
 10 15  1  0
 11 12  1  0
 11 20  1  0
 12 13  2  0
 12 21  1  0
 13 14  1  0
 13 22  1  0
 14 15  2  0
 14 23  1  0
 15 24  1  0
M  RAD  1  11   2
M  END
>  <reaction>  (13) 
rxn_1228

>  <mol_properties>  (13) 
{"0": {"label": "*1", "atom_type": "Cs"}, "2": {"label": "*0", "atom_type": "Cd"}, "8": {"label": "*3", "atom_type": "Cs"}, "9": {"label": "*4", "atom_type": "Ct"}, "11": {"label": "*2", "atom_type": "H0"}}

>  <type>  (13) 
unop_9

>  <geom_source>  (13) 
Heuristics

$$$$

     RDKit          3D

 24 23  0  0  0  0  0  0  0  0999 V2000
   -1.2814   -2.7473   -3.2097 C   0  0  0  0  0  0  0  0  0  0  0  0
   -1.2814   -2.7473   -2.0127 C   0  0  0  0  0  0  0  0  0  0  0  0
   -1.2814   -2.7473   -0.5573 C   0  0  0  0  0  0  0  0  0  0  0  0
   -1.2814   -2.7473   -4.2730 H   0  0  0  0  0  0  0  0  0  0  0  0
   -1.1700   -1.5277   -0.0948 H   0  0  0  0  0  0  0  0  0  0  0  0
   -0.4477   -3.3359   -0.1719 H   0  0  0  0  0  0  0  0  0  0  0  0
   -2.2080   -3.1750   -0.1719 H   0  0  0  0  0  0  0  0  0  0  0  0
   -2.2357    0.5346   -0.1267 C   0  0  0  0  0  0  0  0  0  0  0  0
   -1.0583   -0.3062    0.3683 C   0  0  0  0  0  0  0  0  0  0  0  0
    0.1591    0.5324    0.6561 C   0  0  0  0  0  0  0  0  0  0  0  0
    0.3554    1.0965    1.9127 C   0  0  0  0  0  3  0  0  0  0  0  0
    1.4512    1.9065    2.1679 C   0  0  0  0  0  0  0  0  0  0  0  0
    2.3727    2.1666    1.1650 C   0  0  0  0  0  0  0  0  0  0  0  0
    2.1896    1.6100   -0.0917 C   0  0  0  0  0  0  0  0  0  0  0  0
    1.0918    0.8008   -0.3407 C   0  0  0  0  0  0  0  0  0  0  0  0
   -1.9741    1.0636   -1.0450 H   0  0  0  0  0  0  0  0  0  0  0  0
   -2.5174    1.2818    0.6175 H   0  0  0  0  0  0  0  0  0  0  0  0
   -3.1067   -0.0909   -0.3293 H   0  0  0  0  0  0  0  0  0  0  0  0
   -1.3516   -0.8449    1.2726 H   0  0  0  0  0  0  0  0  0  0  0  0
   -0.3594    0.8951    2.7030 H   0  0  0  0  0  0  0  0  0  0  0  0
    1.5877    2.3330    3.1540 H   0  0  0  0  0  0  0  0  0  0  0  0
    3.2308    2.7965    1.3628 H   0  0  0  0  0  0  0  0  0  0  0  0
    2.9061    1.8035   -0.8804 H   0  0  0  0  0  0  0  0  0  0  0  0
    0.9570    0.3665   -1.3253 H   0  0  0  0  0  0  0  0  0  0  0  0
  1  2  3  0
  1  4  1  0
  2  3  1  0
  3  5  1  0
  3  6  1  0
  3  7  1  0
  8  9  1  0
  8 16  1  0
  8 17  1  0
  8 18  1  0
  9 10  2  3
  9 19  1  0
 10 11  1  0
 10 15  1  0
 11 12  1  0
 11 20  1  0
 12 13  2  0
 12 21  1  0
 13 14  1  0
 13 22  1  0
 14 15  2  0
 14 23  1  0
 15 24  1  0
M  RAD  1  11   2
M  END
>  <reaction>  (14) 
rxn_1228

>  <mol_properties>  (14) 
{"0": {"label": "*1", "atom_type": "Cs"}, "2": {"label": "*0", "atom_type": "Cd"}, "8": {"label": "*3", "atom_type": "Cs"}, "9": {"label": "*4", "atom_type": "Ct"}, "11": {"label": "*2", "atom_type": "H0"}}

>  <type>  (14) 
unop_10

>  <geom_source>  (14) 
Heuristics

$$$$

     RDKit          3D

 24 23  0  0  0  0  0  0  0  0999 V2000
    1.3086   -1.7416   -3.2943 C   0  0  0  0  0  0  0  0  0  0  0  0
    1.3086   -1.7416   -2.0973 C   0  0  0  0  0  0  0  0  0  0  0  0
    1.3086   -1.7416   -0.6419 C   0  0  0  0  0  0  0  0  0  0  0  0
    1.3086   -1.7416   -4.3576 H   0  0  0  0  0  0  0  0  0  0  0  0
    1.4200   -0.5221   -0.1795 H   0  0  0  0  0  0  0  0  0  0  0  0
    2.1423   -2.3302   -0.2565 H   0  0  0  0  0  0  0  0  0  0  0  0
    0.3820   -2.1693   -0.2565 H   0  0  0  0  0  0  0  0  0  0  0  0
    2.2529    0.6679    1.6317 C   0  0  0  0  0  0  0  0  0  0  0  0
    1.5317    0.6994    0.2837 C   0  0  0  0  0  0  0  0  0  0  0  0
    0.0339    0.6710    0.4385 C   0  0  0  0  0  0  0  0  0  0  0  0
   -0.6915    1.8507    0.5731 C   0  0  0  0  0  3  0  0  0  0  0  0
   -2.0647    1.8265    0.7617 C   0  0  0  0  0  0  0  0  0  0  0  0
   -2.7378    0.6155    0.8192 C   0  0  0  0  0  0  0  0  0  0  0  0
   -2.0272   -0.5677    0.6857 C   0  0  0  0  0  0  0  0  0  0  0  0
   -0.6541   -0.5369    0.4973 C   0  0  0  0  0  0  0  0  0  0  0  0
    1.9950   -0.2356    2.1873 H   0  0  0  0  0  0  0  0  0  0  0  0
    1.9675    1.5258    2.2433 H   0  0  0  0  0  0  0  0  0  0  0  0
    3.3358    0.6891    1.4978 H   0  0  0  0  0  0  0  0  0  0  0  0
    1.8242    1.5986   -0.2637 H   0  0  0  0  0  0  0  0  0  0  0  0
   -0.1724    2.8018    0.5261 H   0  0  0  0  0  0  0  0  0  0  0  0
   -2.6113    2.7561    0.8605 H   0  0  0  0  0  0  0  0  0  0  0  0
   -3.8105    0.5941    0.9635 H   0  0  0  0  0  0  0  0  0  0  0  0
   -2.5443   -1.5184    0.7247 H   0  0  0  0  0  0  0  0  0  0  0  0
   -0.1055   -1.4664    0.3905 H   0  0  0  0  0  0  0  0  0  0  0  0
  1  2  3  0
  1  4  1  0
  2  3  1  0
  3  5  1  0
  3  6  1  0
  3  7  1  0
  8  9  1  0
  8 16  1  0
  8 17  1  0
  8 18  1  0
  9 10  2  3
  9 19  1  0
 10 11  1  0
 10 15  1  0
 11 12  1  0
 11 20  1  0
 12 13  2  0
 12 21  1  0
 13 14  1  0
 13 22  1  0
 14 15  2  0
 14 23  1  0
 15 24  1  0
M  RAD  1  11   2
M  END
>  <reaction>  (15) 
rxn_1228

>  <mol_properties>  (15) 
{"0": {"label": "*1", "atom_type": "Cs"}, "2": {"label": "*0", "atom_type": "Cd"}, "8": {"label": "*3", "atom_type": "Cs"}, "9": {"label": "*4", "atom_type": "Ct"}, "11": {"label": "*2", "atom_type": "H0"}}

>  <type>  (15) 
unop_11

>  <geom_source>  (15) 
Heuristics

$$$$

     RDKit          3D

 24 23  0  0  0  0  0  0  0  0999 V2000
   -1.4183   -1.9836   -3.7690 C   0  0  0  0  0  0  0  0  0  0  0  0
   -1.4183   -1.9836   -2.5720 C   0  0  0  0  0  0  0  0  0  0  0  0
   -1.4183   -1.9836   -1.1166 C   0  0  0  0  0  0  0  0  0  0  0  0
   -1.4183   -1.9836   -4.8323 H   0  0  0  0  0  0  0  0  0  0  0  0
   -1.3068   -0.7640   -0.6541 H   0  0  0  0  0  0  0  0  0  0  0  0
   -0.5846   -2.5722   -0.7312 H   0  0  0  0  0  0  0  0  0  0  0  0
   -2.3449   -2.4113   -0.7312 H   0  0  0  0  0  0  0  0  0  0  0  0
   -1.1055    1.4383   -1.3607 C   0  0  0  0  0  0  0  0  0  0  0  0
   -1.1952    0.4575   -0.1910 C   0  0  0  0  0  0  0  0  0  0  0  0
    0.0036    0.5426    0.7166 C   0  0  0  0  0  0  0  0  0  0  0  0
    0.0258    1.4310    1.7872 C   0  0  0  0  0  3  0  0  0  0  0  0
    1.1451    1.5448    2.5971 C   0  0  0  0  0  0  0  0  0  0  0  0
    2.2662    0.7678    2.3476 C   0  0  0  0  0  0  0  0  0  0  0  0
    2.2573   -0.1223    1.2844 C   0  0  0  0  0  0  0  0  0  0  0  0
    1.1349   -0.2315    0.4781 C   0  0  0  0  0  0  0  0  0  0  0  0
   -0.2186    1.2395   -1.9651 H   0  0  0  0  0  0  0  0  0  0  0  0
   -1.0368    2.4661   -0.9993 H   0  0  0  0  0  0  0  0  0  0  0  0
   -1.9826    1.3610   -2.0056 H   0  0  0  0  0  0  0  0  0  0  0  0
   -2.1022    0.6596    0.3837 H   0  0  0  0  0  0  0  0  0  0  0  0
   -0.8485    2.0398    1.9904 H   0  0  0  0  0  0  0  0  0  0  0  0
    1.1406    2.2397    3.4277 H   0  0  0  0  0  0  0  0  0  0  0  0
    3.1405    0.8528    2.9804 H   0  0  0  0  0  0  0  0  0  0  0  0
    3.1263   -0.7367    1.0841 H   0  0  0  0  0  0  0  0  0  0  0  0
    1.1342   -0.9322   -0.3497 H   0  0  0  0  0  0  0  0  0  0  0  0
  1  2  3  0
  1  4  1  0
  2  3  1  0
  3  5  1  0
  3  6  1  0
  3  7  1  0
  8  9  1  0
  8 16  1  0
  8 17  1  0
  8 18  1  0
  9 10  2  3
  9 19  1  0
 10 11  1  0
 10 15  1  0
 11 12  1  0
 11 20  1  0
 12 13  2  0
 12 21  1  0
 13 14  1  0
 13 22  1  0
 14 15  2  0
 14 23  1  0
 15 24  1  0
M  RAD  1  11   2
M  END
>  <reaction>  (16) 
rxn_1228

>  <mol_properties>  (16) 
{"0": {"label": "*1", "atom_type": "Cs"}, "2": {"label": "*0", "atom_type": "Cd"}, "8": {"label": "*3", "atom_type": "Cs"}, "9": {"label": "*4", "atom_type": "Ct"}, "11": {"label": "*2", "atom_type": "H0"}}

>  <type>  (16) 
unop_12

>  <geom_source>  (16) 
Heuristics

$$$$

     RDKit          3D

 24 23  0  0  0  0  0  0  0  0999 V2000
    0.6082    0.4774    0.2618 C   0  0  0  0  0  0  0  0  0  0  0  0
    0.6870    1.9797    0.0187 C   0  0  0  0  0  0  0  0  0  0  0  0
   -0.8150   -0.0016    0.1883 C   0  0  0  0  0  0  0  0  0  0  0  0
   -1.3552   -0.4219   -1.0377 C   0  0  0  0  0  3  0  0  0  0  0  0
   -1.6306    0.0151    1.3321 C   0  0  0  0  0  0  0  0  0  0  0  0
   -2.6876   -0.8404   -1.1130 C   0  0  0  0  0  0  0  0  0  0  0  0
   -3.4900   -0.8334    0.0315 C   0  0  0  0  0  0  0  0  0  0  0  0
   -2.9624   -0.4042    1.2526 C   0  0  0  0  0  0  0  0  0  0  0  0
    2.4490   -0.8864   -1.0324 C   0  0  0  0  0  0  0  0  0  0  0  0
    3.5030   -0.4867   -0.0997 C   0  0  0  0  0  0  0  0  0  0  0  0
    4.3713   -0.1571    0.6688 C   0  0  0  0  0  0  0  0  0  0  0  0
    1.0408    0.2418    1.2585 H   0  0  0  0  0  0  0  0  0  0  0  0
    1.3794   -0.1773   -0.6946 H   0  0  0  0  0  0  0  0  0  0  0  0
    0.2893    2.2262   -0.9887 H   0  0  0  0  0  0  0  0  0  0  0  0
    0.1040    2.5275    0.7897 H   0  0  0  0  0  0  0  0  0  0  0  0
    1.7464    2.3067    0.0720 H   0  0  0  0  0  0  0  0  0  0  0  0
   -0.7471   -0.4236   -1.9338 H   0  0  0  0  0  0  0  0  0  0  0  0
   -3.0990   -1.1670   -2.0593 H   0  0  0  0  0  0  0  0  0  0  0  0
   -1.2357    0.3531    2.2822 H   0  0  0  0  0  0  0  0  0  0  0  0
   -4.5212   -1.1564   -0.0287 H   0  0  0  0  0  0  0  0  0  0  0  0
   -3.5863   -0.3934    2.1370 H   0  0  0  0  0  0  0  0  0  0  0  0
    2.8992   -1.1349   -2.0155 H   0  0  0  0  0  0  0  0  0  0  0  0
    1.9188   -1.7754   -0.6331 H   0  0  0  0  0  0  0  0  0  0  0  0
    5.1336    0.1322    1.3434 H   0  0  0  0  0  0  0  0  0  0  0  0
  1  2  1  0
  1  3  2  3
  1 12  1  0
  2 14  1  0
  2 15  1  0
  2 16  1  0
  3  4  1  0
  3  5  1  0
  4  6  1  0
  4 17  1  0
  5  8  2  0
  5 19  1  0
  6  7  2  0
  6 18  1  0
  7  8  1  0
  7 20  1  0
  8 21  1  0
  9 10  1  0
  9 13  1  0
  9 22  1  0
  9 23  1  0
 10 11  3  0
 11 24  1  0
M  RAD  1   4   2
M  END
>  <reaction>  (17) 
rxn_1228

>  <mol_properties>  (17) 
{"0": {"label": "*1", "atom_type": "Cs"}, "2": {"label": "*0", "atom_type": "Cd"}, "8": {"label": "*3", "atom_type": "Cs"}, "9": {"label": "*4", "atom_type": "Ct"}, "11": {"label": "*2", "atom_type": "H0"}}

>  <type>  (17) 
unop_13

>  <geom_source>  (17) 
AutoTST

$$$$
