
     RDKit          3D

  8  7  0  0  0  0  0  0  0  0999 V2000
    0.7610    0.0250    0.0051 C   0  0  0  0  0  0  0  0  0  0  0  0
   -0.7610   -0.0250   -0.0051 C   0  0  0  0  0  0  0  0  0  0  0  0
    1.1904   -0.9237   -0.3217 H   0  0  0  0  0  0  0  0  0  0  0  0
    1.1359    0.8041   -0.6609 H   0  0  0  0  0  0  0  0  0  0  0  0
    1.1435    0.2336    1.0058 H   0  0  0  0  0  0  0  0  0  0  0  0
   -1.1435   -0.2336   -1.0058 H   0  0  0  0  0  0  0  0  0  0  0  0
   -1.1904    0.9237    0.3216 H   0  0  0  0  0  0  0  0  0  0  0  0
   -1.1359   -0.8041    0.6609 H   0  0  0  0  0  0  0  0  0  0  0  0
  1  2  1  0
  1  3  1  0
  1  4  1  0
  1  5  1  0
  2  6  1  0
  2  7  1  0
  2  8  1  0
M  END
>  <reaction>  (1) 
rxn_886

>  <mol_properties>  (1) 
{"1": {"label": "donator", "atom_type": "Cs"}, "5": {"label": "d_hydrogen", "atom_type": "H0"}}

>  <type>  (1) 
r1h

$$$$

     RDKit          3D

  7  6  0  0  0  0  0  0  0  0999 V2000
    1.3002    0.7433    2.1279 C   0  0  0  0  0  0  0  0  0  0  0  0
    0.5758    0.3292    1.2319 C   0  0  0  0  0  0  0  0  0  0  0  0
   -0.2057   -0.1176    0.2652 C   0  0  0  0  0  3  0  0  0  0  0  0
   -0.9747   -0.5572   -0.6858 C   0  0  0  0  0  0  0  0  0  0  0  0
    1.9293    1.1030    2.9059 H   0  0  0  0  0  0  0  0  0  0  0  0
   -1.9977   -0.8727   -0.4932 H   0  0  0  0  0  0  0  0  0  0  0  0
   -0.6274   -0.6280   -1.7143 H   0  0  0  0  0  0  0  0  0  0  0  0
  1  2  3  0
  1  5  1  0
  2  3  1  0
  3  4  2  3
  4  6  1  0
  4  7  1  0
M  RAD  1   3   2
M  END
>  <reaction>  (2) 
rxn_886

>  <mol_properties>  (2) 
{"2": {"label": "acceptor", "atom_type": "Cd"}}

>  <type>  (2) 
r2

$$$$

     RDKit          3D

  8  7  0  0  0  0  0  0  0  0999 V2000
    1.9029    0.9046   -0.2050 C   0  0  0  0  0  0  0  0  0  0  0  0
    0.8517    0.4283    0.1217 C   0  0  0  0  0  0  0  0  0  0  0  0
   -0.3908   -0.1311    0.5404 C   0  0  0  0  0  0  0  0  0  0  0  0
   -1.2847   -0.6576   -0.2899 C   0  0  0  0  0  0  0  0  0  0  0  0
    2.8335    1.3255   -0.5014 H   0  0  0  0  0  0  0  0  0  0  0  0
   -0.5867   -0.1096    1.6074 H   0  0  0  0  0  0  0  0  0  0  0  0
   -2.2126   -1.0686    0.0850 H   0  0  0  0  0  0  0  0  0  0  0  0
   -1.1134   -0.6914   -1.3582 H   0  0  0  0  0  0  0  0  0  0  0  0
  1  2  3  0
  1  5  1  0
  2  3  1  0
  3  4  2  3
  3  6  1  0
  4  7  1  0
  4  8  1  0
M  END
>  <reaction>  (3) 
rxn_886

>  <mol_properties>  (3) 
{"2": {"label": "acceptor", "atom_type": "Cd"}, "7": {"label": "a_hydrogen", "atom_type": "H0"}}

>  <type>  (3) 
r2h

$$$$

     RDKit          3D

 15 13  0  0  0  0  0  0  0  0999 V2000
   -0.0104    2.1351   -1.1064 C   0  0  0  0  0  0  0  0  0  0  0  0
   -0.0104    1.3860   -0.1630 C   0  0  0  0  0  0  0  0  0  0  0  0
   -0.0093    0.4213    0.8486 C   0  0  0  0  0  3  0  0  0  0  0  0
   -0.0173    0.5346    2.1646 C   0  0  0  0  0  0  0  0  0  0  0  0
   -0.0106    2.8166   -1.9226 H   0  0  0  0  0  0  0  0  0  0  0  0
   -0.0267    1.5013    2.6583 H   0  0  0  0  0  0  0  0  0  0  0  0
   -0.0148   -0.3467    2.7960 H   0  0  0  0  0  0  0  0  0  0  0  0
    0.0133   -1.9068   -1.5958 C   0  0  0  0  0  0  0  0  0  0  0  0
    0.0126   -2.0732   -0.1018 C   0  0  0  0  0  0  0  0  0  0  0  0
   -0.8724   -1.3663   -1.9336 H   0  0  0  0  0  0  0  0  0  0  0  0
    0.8911   -1.3519   -1.9310 H   0  0  0  0  0  0  0  0  0  0  0  0
    0.0220   -2.8774   -2.1019 H   0  0  0  0  0  0  0  0  0  0  0  0
    0.0018   -0.8386    0.3918 H   0  0  0  0  0  0  0  0  0  0  0  0
    0.9181   -2.5052    0.3198 H   0  0  0  0  0  0  0  0  0  0  0  0
   -0.8871   -2.5198    0.3173 H   0  0  0  0  0  0  0  0  0  0  0  0
  1  2  3  0
  1  5  1  0
  2  3  1  0
  3  4  2  3
  4  6  1  0
  4  7  1  0
  8  9  1  0
  8 10  1  0
  8 11  1  0
  8 12  1  0
  9 13  1  0
  9 14  1  0
  9 15  1  0
M  RAD  1   3   2
M  END
>  <reaction>  (4) 
rxn_886

>  <mol_properties>  (4) 
{"1": {"label": "*4", "atom_type": "Ct"}, "2": {"label": "*3", "atom_type": "Cd"}, "7": {"label": "*0", "atom_type": "Cs"}, "8": {"label": "*1", "atom_type": "Cs"}, "12": {"label": "*2", "atom_type": "H0"}}

>  <type>  (4) 
ts

$$$$

     RDKit          3D

 15 13  0  0  0  0  0  0  0  0999 V2000
   -1.7849    1.3144    1.7125 C   0  0  0  0  0  0  0  0  0  0  0  0
   -0.8351    1.0324    1.0366 C   0  0  0  0  0  0  0  0  0  0  0  0
    0.2745    0.6823    0.2130 C   0  0  0  0  0  0  0  0  0  0  0  0
    1.5325    1.0145    0.4825 C   0  0  0  0  0  0  0  0  0  0  0  0
   -2.6271    1.5645    2.3118 H   0  0  0  0  0  0  0  0  0  0  0  0
    1.7903    1.5844    1.3660 H   0  0  0  0  0  0  0  0  0  0  0  0
    2.3359    0.7209   -0.1800 H   0  0  0  0  0  0  0  0  0  0  0  0
    0.2745   -1.7516   -2.2571 C   0  0  0  0  0  0  0  0  0  0  0  0
    0.2745   -1.7516   -0.7343 C   0  0  0  0  0  3  0  0  0  0  0  0
   -0.6064   -1.2430   -2.6529 H   0  0  0  0  0  0  0  0  0  0  0  0
    1.1553   -1.2430   -2.6529 H   0  0  0  0  0  0  0  0  0  0  0  0
    0.2744   -2.7687   -2.6529 H   0  0  0  0  0  0  0  0  0  0  0  0
    0.2745   -0.5310   -0.2593 H   0  0  0  0  0  0  0  0  0  0  0  0
    1.1553   -2.2601   -0.3384 H   0  0  0  0  0  0  0  0  0  0  0  0
   -0.6064   -2.2601   -0.3384 H   0  0  0  0  0  0  0  0  0  0  0  0
  1  2  3  0
  1  5  1  0
  2  3  1  0
  3  4  2  3
  3 13  1  0
  4  6  1  0
  4  7  1  0
  8  9  1  0
  8 10  1  0
  8 11  1  0
  8 12  1  0
  9 14  1  0
  9 15  1  0
M  RAD  1   9   2
M  END
>  <reaction>  (5) 
rxn_886

>  <mol_properties>  (5) 
{"1": {"label": "*4", "atom_type": "Ct"}, "2": {"label": "*3", "atom_type": "Cd"}, "7": {"label": "*0", "atom_type": "Cs"}, "8": {"label": "*1", "atom_type": "Cs"}, "12": {"label": "*2", "atom_type": "H0"}}

>  <type>  (5) 
unop_1

>  <geom_source>  (5) 
Heuristics

$$$$

     RDKit          3D

 15 13  0  0  0  0  0  0  0  0999 V2000
   -0.9378    2.2241   -0.7429 C   0  0  0  0  0  0  0  0  0  0  0  0
   -0.4004    1.4120   -0.0427 C   0  0  0  0  0  0  0  0  0  0  0  0
    0.2402    0.4272    0.7647 C   0  0  0  0  0  0  0  0  0  0  0  0
    0.5104    0.5875    2.0558 C   0  0  0  0  0  0  0  0  0  0  0  0
   -1.4142    2.9442   -1.3638 H   0  0  0  0  0  0  0  0  0  0  0  0
    0.2519    1.4992    2.5789 H   0  0  0  0  0  0  0  0  0  0  0  0
    0.9993   -0.1958    2.6197 H   0  0  0  0  0  0  0  0  0  0  0  0
    0.2402   -2.0067   -1.7054 C   0  0  0  0  0  0  0  0  0  0  0  0
    0.2402   -2.0067   -0.1826 C   0  0  0  0  0  3  0  0  0  0  0  0
   -0.6407   -1.4982   -2.1012 H   0  0  0  0  0  0  0  0  0  0  0  0
    1.1210   -1.4982   -2.1012 H   0  0  0  0  0  0  0  0  0  0  0  0
    0.2402   -3.0238   -2.1012 H   0  0  0  0  0  0  0  0  0  0  0  0
    0.2402   -0.7862    0.2924 H   0  0  0  0  0  0  0  0  0  0  0  0
    1.1210   -2.5153    0.2133 H   0  0  0  0  0  0  0  0  0  0  0  0
   -0.6407   -2.5153    0.2133 H   0  0  0  0  0  0  0  0  0  0  0  0
  1  2  3  0
  1  5  1  0
  2  3  1  0
  3  4  2  3
  3 13  1  0
  4  6  1  0
  4  7  1  0
  8  9  1  0
  8 10  1  0
  8 11  1  0
  8 12  1  0
  9 14  1  0
  9 15  1  0
M  RAD  1   9   2
M  END
>  <reaction>  (6) 
rxn_886

>  <mol_properties>  (6) 
{"1": {"label": "*4", "atom_type": "Ct"}, "2": {"label": "*3", "atom_type": "Cd"}, "7": {"label": "*0", "atom_type": "Cs"}, "8": {"label": "*1", "atom_type": "Cs"}, "12": {"label": "*2", "atom_type": "H0"}}

>  <type>  (6) 
unop_2

>  <geom_source>  (6) 
Heuristics

$$$$

     RDKit          3D

 15 13  0  0  0  0  0  0  0  0999 V2000
   -1.0960    1.0036    2.4525 C   0  0  0  0  0  0  0  0  0  0  0  0
   -0.5398    0.8716    1.3981 C   0  0  0  0  0  0  0  0  0  0  0  0
    0.1008    0.6916    0.1374 C   0  0  0  0  0  0  0  0  0  0  0  0
    1.1488    1.3997   -0.2701 C   0  0  0  0  0  0  0  0  0  0  0  0
   -1.5891    1.1206    3.3874 H   0  0  0  0  0  0  0  0  0  0  0  0
    1.5849    2.1726    0.3497 H   0  0  0  0  0  0  0  0  0  0  0  0
    1.5949    1.2192   -1.2391 H   0  0  0  0  0  0  0  0  0  0  0  0
    0.1008   -1.7423   -2.3327 C   0  0  0  0  0  0  0  0  0  0  0  0
    0.1008   -1.7423   -0.8099 C   0  0  0  0  0  3  0  0  0  0  0  0
   -0.7800   -1.2338   -2.7285 H   0  0  0  0  0  0  0  0  0  0  0  0
    0.9817   -1.2338   -2.7285 H   0  0  0  0  0  0  0  0  0  0  0  0
    0.1008   -2.7594   -2.7285 H   0  0  0  0  0  0  0  0  0  0  0  0
    0.1008   -0.5218   -0.3348 H   0  0  0  0  0  0  0  0  0  0  0  0
    0.9817   -2.2509   -0.4140 H   0  0  0  0  0  0  0  0  0  0  0  0
   -0.7800   -2.2509   -0.4140 H   0  0  0  0  0  0  0  0  0  0  0  0
  1  2  3  0
  1  5  1  0
  2  3  1  0
  3  4  2  3
  3 13  1  0
  4  6  1  0
  4  7  1  0
  8  9  1  0
  8 10  1  0
  8 11  1  0
  8 12  1  0
  9 14  1  0
  9 15  1  0
M  RAD  1   9   2
M  END
>  <reaction>  (7) 
rxn_886

>  <mol_properties>  (7) 
{"1": {"label": "*4", "atom_type": "Ct"}, "2": {"label": "*3", "atom_type": "Cd"}, "7": {"label": "*0", "atom_type": "Cs"}, "8": {"label": "*1", "atom_type": "Cs"}, "12": {"label": "*2", "atom_type": "H0"}}

>  <type>  (7) 
unop_3

>  <geom_source>  (7) 
Heuristics

$$$$

     RDKit          3D

 15 13  0  0  0  0  0  0  0  0999 V2000
    1.6595    2.0016   -0.1139 C   0  0  0  0  0  0  0  0  0  0  0  0
    0.7246    1.3290    0.2211 C   0  0  0  0  0  0  0  0  0  0  0  0
   -0.3850    0.5142    0.5914 C   0  0  0  0  0  0  0  0  0  0  0  0
   -1.0261    0.6163    1.7508 C   0  0  0  0  0  0  0  0  0  0  0  0
    2.4884    2.5980   -0.4108 H   0  0  0  0  0  0  0  0  0  0  0  0
   -0.7329    1.3432    2.4974 H   0  0  0  0  0  0  0  0  0  0  0  0
   -1.8634   -0.0301    1.9783 H   0  0  0  0  0  0  0  0  0  0  0  0
   -0.3850   -1.9197   -1.8786 C   0  0  0  0  0  0  0  0  0  0  0  0
   -0.3850   -1.9197   -0.3559 C   0  0  0  0  0  3  0  0  0  0  0  0
   -1.2658   -1.4111   -2.2745 H   0  0  0  0  0  0  0  0  0  0  0  0
    0.4959   -1.4111   -2.2745 H   0  0  0  0  0  0  0  0  0  0  0  0
   -0.3850   -2.9368   -2.2745 H   0  0  0  0  0  0  0  0  0  0  0  0
   -0.3850   -0.6991    0.1192 H   0  0  0  0  0  0  0  0  0  0  0  0
    0.4959   -2.4282    0.0400 H   0  0  0  0  0  0  0  0  0  0  0  0
   -1.2658   -2.4282    0.0400 H   0  0  0  0  0  0  0  0  0  0  0  0
  1  2  3  0
  1  5  1  0
  2  3  1  0
  3  4  2  3
  3 13  1  0
  4  6  1  0
  4  7  1  0
  8  9  1  0
  8 10  1  0
  8 11  1  0
  8 12  1  0
  9 14  1  0
  9 15  1  0
M  RAD  1   9   2
M  END
>  <reaction>  (8) 
rxn_886

>  <mol_properties>  (8) 
{"1": {"label": "*4", "atom_type": "Ct"}, "2": {"label": "*3", "atom_type": "Cd"}, "7": {"label": "*0", "atom_type": "Cs"}, "8": {"label": "*1", "atom_type": "Cs"}, "12": {"label": "*2", "atom_type": "H0"}}

>  <type>  (8) 
unop_4

>  <geom_source>  (8) 
Heuristics

$$$$

     RDKit          3D

 15 13  0  0  0  0  0  0  0  0999 V2000
    0.0000    0.8508    2.7589 C   0  0  0  0  0  0  0  0  0  0  0  0
   -0.0000    0.7784    1.5617 C   0  0  0  0  0  0  0  0  0  0  0  0
   -0.0000    0.6607    0.1411 C   0  0  0  0  0  0  0  0  0  0  0  0
    0.0000    1.6980   -0.6893 C   0  0  0  0  0  0  0  0  0  0  0  0
    0.0000    0.9150    3.8205 H   0  0  0  0  0  0  0  0  0  0  0  0
    0.0000    2.7164   -0.3224 H   0  0  0  0  0  0  0  0  0  0  0  0
    0.0000    1.5484   -1.7609 H   0  0  0  0  0  0  0  0  0  0  0  0
   -0.0000   -1.7732   -2.3289 C   0  0  0  0  0  0  0  0  0  0  0  0
   -0.0000   -1.7732   -0.8062 C   0  0  0  0  0  3  0  0  0  0  0  0
   -0.8808   -1.2647   -2.7248 H   0  0  0  0  0  0  0  0  0  0  0  0
    0.8808   -1.2647   -2.7248 H   0  0  0  0  0  0  0  0  0  0  0  0
   -0.0000   -2.7904   -2.7248 H   0  0  0  0  0  0  0  0  0  0  0  0
   -0.0000   -0.5527   -0.3311 H   0  0  0  0  0  0  0  0  0  0  0  0
    0.8808   -2.2818   -0.4103 H   0  0  0  0  0  0  0  0  0  0  0  0
   -0.8808   -2.2818   -0.4103 H   0  0  0  0  0  0  0  0  0  0  0  0
  1  2  3  0
  1  5  1  0
  2  3  1  0
  3  4  2  3
  3 13  1  0
  4  6  1  0
  4  7  1  0
  8  9  1  0
  8 10  1  0
  8 11  1  0
  8 12  1  0
  9 14  1  0
  9 15  1  0
M  RAD  1   9   2
M  END
>  <reaction>  (9) 
rxn_886

>  <mol_properties>  (9) 
{"1": {"label": "*4", "atom_type": "Ct"}, "2": {"label": "*3", "atom_type": "Cd"}, "7": {"label": "*0", "atom_type": "Cs"}, "8": {"label": "*1", "atom_type": "Cs"}, "12": {"label": "*2", "atom_type": "H0"}}

>  <type>  (9) 
unop_5

>  <geom_source>  (9) 
Heuristics

$$$$

     RDKit          3D

 15 13  0  0  0  0  0  0  0  0999 V2000
    1.9760    1.6739    0.7773 C   0  0  0  0  0  0  0  0  0  0  0  0
    0.8893    1.1947    0.6095 C   0  0  0  0  0  0  0  0  0  0  0  0
   -0.3919    0.6123    0.3828 C   0  0  0  0  0  0  0  0  0  0  0  0
   -1.4261    0.7514    1.2054 C   0  0  0  0  0  0  0  0  0  0  0  0
    2.9394    2.0988    0.9262 H   0  0  0  0  0  0  0  0  0  0  0  0
   -1.3500    1.3301    2.1170 H   0  0  0  0  0  0  0  0  0  0  0  0
   -2.3768    0.2857    0.9820 H   0  0  0  0  0  0  0  0  0  0  0  0
   -0.3919   -1.8217   -2.0872 C   0  0  0  0  0  0  0  0  0  0  0  0
   -0.3919   -1.8217   -0.5644 C   0  0  0  0  0  3  0  0  0  0  0  0
   -1.2727   -1.3131   -2.4831 H   0  0  0  0  0  0  0  0  0  0  0  0
    0.4890   -1.3131   -2.4831 H   0  0  0  0  0  0  0  0  0  0  0  0
   -0.3919   -2.8388   -2.4831 H   0  0  0  0  0  0  0  0  0  0  0  0
   -0.3919   -0.6011   -0.0894 H   0  0  0  0  0  0  0  0  0  0  0  0
    0.4890   -2.3302   -0.1686 H   0  0  0  0  0  0  0  0  0  0  0  0
   -1.2727   -2.3302   -0.1686 H   0  0  0  0  0  0  0  0  0  0  0  0
  1  2  3  0
  1  5  1  0
  2  3  1  0
  3  4  2  3
  3 13  1  0
  4  6  1  0
  4  7  1  0
  8  9  1  0
  8 10  1  0
  8 11  1  0
  8 12  1  0
  9 14  1  0
  9 15  1  0
M  RAD  1   9   2
M  END
>  <reaction>  (10) 
rxn_886

>  <mol_properties>  (10) 
{"1": {"label": "*4", "atom_type": "Ct"}, "2": {"label": "*3", "atom_type": "Cd"}, "7": {"label": "*0", "atom_type": "Cs"}, "8": {"label": "*1", "atom_type": "Cs"}, "12": {"label": "*2", "atom_type": "H0"}}

>  <type>  (10) 
unop_6

>  <geom_source>  (10) 
Heuristics

$$$$

     RDKit          3D

 15 13  0  0  0  0  0  0  0  0999 V2000
    1.7849    1.3144    1.7125 C   0  0  0  0  0  0  0  0  0  0  0  0
    0.8351    1.0324    1.0366 C   0  0  0  0  0  0  0  0  0  0  0  0
   -0.2745    0.6823    0.2130 C   0  0  0  0  0  0  0  0  0  0  0  0
   -1.5325    1.0145    0.4825 C   0  0  0  0  0  0  0  0  0  0  0  0
    2.6271    1.5645    2.3118 H   0  0  0  0  0  0  0  0  0  0  0  0
   -1.7903    1.5844    1.3660 H   0  0  0  0  0  0  0  0  0  0  0  0
   -2.3359    0.7209   -0.1800 H   0  0  0  0  0  0  0  0  0  0  0  0
   -0.2745   -1.7516   -2.2571 C   0  0  0  0  0  0  0  0  0  0  0  0
   -0.2745   -1.7516   -0.7343 C   0  0  0  0  0  3  0  0  0  0  0  0
   -1.1553   -1.2430   -2.6529 H   0  0  0  0  0  0  0  0  0  0  0  0
    0.6064   -1.2430   -2.6529 H   0  0  0  0  0  0  0  0  0  0  0  0
   -0.2745   -2.7687   -2.6529 H   0  0  0  0  0  0  0  0  0  0  0  0
   -0.2745   -0.5310   -0.2593 H   0  0  0  0  0  0  0  0  0  0  0  0
    0.6064   -2.2601   -0.3384 H   0  0  0  0  0  0  0  0  0  0  0  0
   -1.1553   -2.2601   -0.3384 H   0  0  0  0  0  0  0  0  0  0  0  0
  1  2  3  0
  1  5  1  0
  2  3  1  0
  3  4  2  3
  3 13  1  0
  4  6  1  0
  4  7  1  0
  8  9  1  0
  8 10  1  0
  8 11  1  0
  8 12  1  0
  9 14  1  0
  9 15  1  0
M  RAD  1   9   2
M  END
>  <reaction>  (11) 
rxn_886

>  <mol_properties>  (11) 
{"1": {"label": "*4", "atom_type": "Ct"}, "2": {"label": "*3", "atom_type": "Cd"}, "7": {"label": "*0", "atom_type": "Cs"}, "8": {"label": "*1", "atom_type": "Cs"}, "12": {"label": "*2", "atom_type": "H0"}}

>  <type>  (11) 
unop_7

>  <geom_source>  (11) 
Heuristics

$$$$

     RDKit          3D

 15 13  0  0  0  0  0  0  0  0999 V2000
   -1.9760    1.6739    0.7773 C   0  0  0  0  0  0  0  0  0  0  0  0
   -0.8893    1.1947    0.6095 C   0  0  0  0  0  0  0  0  0  0  0  0
    0.3919    0.6123    0.3828 C   0  0  0  0  0  0  0  0  0  0  0  0
    1.4261    0.7514    1.2054 C   0  0  0  0  0  0  0  0  0  0  0  0
   -2.9394    2.0988    0.9262 H   0  0  0  0  0  0  0  0  0  0  0  0
    1.3500    1.3301    2.1170 H   0  0  0  0  0  0  0  0  0  0  0  0
    2.3768    0.2857    0.9820 H   0  0  0  0  0  0  0  0  0  0  0  0
    0.3919   -1.8217   -2.0872 C   0  0  0  0  0  0  0  0  0  0  0  0
    0.3919   -1.8217   -0.5644 C   0  0  0  0  0  3  0  0  0  0  0  0
   -0.4890   -1.3131   -2.4831 H   0  0  0  0  0  0  0  0  0  0  0  0
    1.2727   -1.3131   -2.4831 H   0  0  0  0  0  0  0  0  0  0  0  0
    0.3919   -2.8388   -2.4831 H   0  0  0  0  0  0  0  0  0  0  0  0
    0.3919   -0.6011   -0.0894 H   0  0  0  0  0  0  0  0  0  0  0  0
    1.2727   -2.3302   -0.1686 H   0  0  0  0  0  0  0  0  0  0  0  0
   -0.4890   -2.3302   -0.1686 H   0  0  0  0  0  0  0  0  0  0  0  0
  1  2  3  0
  1  5  1  0
  2  3  1  0
  3  4  2  3
  3 13  1  0
  4  6  1  0
  4  7  1  0
  8  9  1  0
  8 10  1  0
  8 11  1  0
  8 12  1  0
  9 14  1  0
  9 15  1  0
M  RAD  1   9   2
M  END
>  <reaction>  (12) 
rxn_886

>  <mol_properties>  (12) 
{"1": {"label": "*4", "atom_type": "Ct"}, "2": {"label": "*3", "atom_type": "Cd"}, "7": {"label": "*0", "atom_type": "Cs"}, "8": {"label": "*1", "atom_type": "Cs"}, "12": {"label": "*2", "atom_type": "H0"}}

>  <type>  (12) 
unop_8

>  <geom_source>  (12) 
Heuristics

$$$$

     RDKit          3D

 15 13  0  0  0  0  0  0  0  0999 V2000
    0.9378    2.2241   -0.7429 C   0  0  0  0  0  0  0  0  0  0  0  0
    0.4004    1.4120   -0.0427 C   0  0  0  0  0  0  0  0  0  0  0  0
   -0.2402    0.4272    0.7647 C   0  0  0  0  0  0  0  0  0  0  0  0
   -0.5104    0.5875    2.0558 C   0  0  0  0  0  0  0  0  0  0  0  0
    1.4142    2.9442   -1.3638 H   0  0  0  0  0  0  0  0  0  0  0  0
   -0.2519    1.4992    2.5789 H   0  0  0  0  0  0  0  0  0  0  0  0
   -0.9993   -0.1958    2.6197 H   0  0  0  0  0  0  0  0  0  0  0  0
   -0.2402   -2.0067   -1.7054 C   0  0  0  0  0  0  0  0  0  0  0  0
   -0.2402   -2.0067   -0.1826 C   0  0  0  0  0  3  0  0  0  0  0  0
   -1.1210   -1.4982   -2.1012 H   0  0  0  0  0  0  0  0  0  0  0  0
    0.6407   -1.4982   -2.1012 H   0  0  0  0  0  0  0  0  0  0  0  0
   -0.2402   -3.0238   -2.1012 H   0  0  0  0  0  0  0  0  0  0  0  0
   -0.2402   -0.7862    0.2924 H   0  0  0  0  0  0  0  0  0  0  0  0
    0.6407   -2.5153    0.2133 H   0  0  0  0  0  0  0  0  0  0  0  0
   -1.1210   -2.5153    0.2133 H   0  0  0  0  0  0  0  0  0  0  0  0
  1  2  3  0
  1  5  1  0
  2  3  1  0
  3  4  2  3
  3 13  1  0
  4  6  1  0
  4  7  1  0
  8  9  1  0
  8 10  1  0
  8 11  1  0
  8 12  1  0
  9 14  1  0
  9 15  1  0
M  RAD  1   9   2
M  END
>  <reaction>  (13) 
rxn_886

>  <mol_properties>  (13) 
{"1": {"label": "*4", "atom_type": "Ct"}, "2": {"label": "*3", "atom_type": "Cd"}, "7": {"label": "*0", "atom_type": "Cs"}, "8": {"label": "*1", "atom_type": "Cs"}, "12": {"label": "*2", "atom_type": "H0"}}

>  <type>  (13) 
unop_9

>  <geom_source>  (13) 
Heuristics

$$$$

     RDKit          3D

 15 13  0  0  0  0  0  0  0  0999 V2000
   -1.6595    2.0016   -0.1139 C   0  0  0  0  0  0  0  0  0  0  0  0
   -0.7246    1.3290    0.2211 C   0  0  0  0  0  0  0  0  0  0  0  0
    0.3850    0.5142    0.5914 C   0  0  0  0  0  0  0  0  0  0  0  0
    1.0261    0.6163    1.7508 C   0  0  0  0  0  0  0  0  0  0  0  0
   -2.4884    2.5980   -0.4108 H   0  0  0  0  0  0  0  0  0  0  0  0
    0.7329    1.3432    2.4974 H   0  0  0  0  0  0  0  0  0  0  0  0
    1.8634   -0.0301    1.9783 H   0  0  0  0  0  0  0  0  0  0  0  0
    0.3850   -1.9197   -1.8786 C   0  0  0  0  0  0  0  0  0  0  0  0
    0.3850   -1.9197   -0.3559 C   0  0  0  0  0  3  0  0  0  0  0  0
   -0.4959   -1.4111   -2.2745 H   0  0  0  0  0  0  0  0  0  0  0  0
    1.2658   -1.4111   -2.2745 H   0  0  0  0  0  0  0  0  0  0  0  0
    0.3850   -2.9368   -2.2745 H   0  0  0  0  0  0  0  0  0  0  0  0
    0.3850   -0.6991    0.1192 H   0  0  0  0  0  0  0  0  0  0  0  0
    1.2658   -2.4282    0.0400 H   0  0  0  0  0  0  0  0  0  0  0  0
   -0.4959   -2.4282    0.0400 H   0  0  0  0  0  0  0  0  0  0  0  0
  1  2  3  0
  1  5  1  0
  2  3  1  0
  3  4  2  3
  3 13  1  0
  4  6  1  0
  4  7  1  0
  8  9  1  0
  8 10  1  0
  8 11  1  0
  8 12  1  0
  9 14  1  0
  9 15  1  0
M  RAD  1   9   2
M  END
>  <reaction>  (14) 
rxn_886

>  <mol_properties>  (14) 
{"1": {"label": "*4", "atom_type": "Ct"}, "2": {"label": "*3", "atom_type": "Cd"}, "7": {"label": "*0", "atom_type": "Cs"}, "8": {"label": "*1", "atom_type": "Cs"}, "12": {"label": "*2", "atom_type": "H0"}}

>  <type>  (14) 
unop_10

>  <geom_source>  (14) 
Heuristics

$$$$

     RDKit          3D

 15 13  0  0  0  0  0  0  0  0999 V2000
    1.0960    1.0036    2.4525 C   0  0  0  0  0  0  0  0  0  0  0  0
    0.5398    0.8716    1.3981 C   0  0  0  0  0  0  0  0  0  0  0  0
   -0.1008    0.6916    0.1374 C   0  0  0  0  0  0  0  0  0  0  0  0
   -1.1488    1.3997   -0.2701 C   0  0  0  0  0  0  0  0  0  0  0  0
    1.5891    1.1206    3.3874 H   0  0  0  0  0  0  0  0  0  0  0  0
   -1.5849    2.1726    0.3497 H   0  0  0  0  0  0  0  0  0  0  0  0
   -1.5949    1.2192   -1.2391 H   0  0  0  0  0  0  0  0  0  0  0  0
   -0.1008   -1.7423   -2.3327 C   0  0  0  0  0  0  0  0  0  0  0  0
   -0.1008   -1.7423   -0.8099 C   0  0  0  0  0  3  0  0  0  0  0  0
   -0.9817   -1.2338   -2.7285 H   0  0  0  0  0  0  0  0  0  0  0  0
    0.7800   -1.2338   -2.7285 H   0  0  0  0  0  0  0  0  0  0  0  0
   -0.1008   -2.7594   -2.7285 H   0  0  0  0  0  0  0  0  0  0  0  0
   -0.1008   -0.5218   -0.3348 H   0  0  0  0  0  0  0  0  0  0  0  0
    0.7800   -2.2509   -0.4140 H   0  0  0  0  0  0  0  0  0  0  0  0
   -0.9817   -2.2509   -0.4140 H   0  0  0  0  0  0  0  0  0  0  0  0
  1  2  3  0
  1  5  1  0
  2  3  1  0
  3  4  2  3
  3 13  1  0
  4  6  1  0
  4  7  1  0
  8  9  1  0
  8 10  1  0
  8 11  1  0
  8 12  1  0
  9 14  1  0
  9 15  1  0
M  RAD  1   9   2
M  END
>  <reaction>  (15) 
rxn_886

>  <mol_properties>  (15) 
{"1": {"label": "*4", "atom_type": "Ct"}, "2": {"label": "*3", "atom_type": "Cd"}, "7": {"label": "*0", "atom_type": "Cs"}, "8": {"label": "*1", "atom_type": "Cs"}, "12": {"label": "*2", "atom_type": "H0"}}

>  <type>  (15) 
unop_11

>  <geom_source>  (15) 
Heuristics

$$$$

     RDKit          3D

 15 13  0  0  0  0  0  0  0  0999 V2000
   -0.0000    2.3012   -0.9678 C   0  0  0  0  0  0  0  0  0  0  0  0
    0.0000    1.4386   -0.1345 C   0  0  0  0  0  0  0  0  0  0  0  0
    0.0000    0.3915    0.8328 C   0  0  0  0  0  0  0  0  0  0  0  0
   -0.0000    0.5946    2.1460 C   0  0  0  0  0  0  0  0  0  0  0  0
   -0.0000    3.0661   -1.7067 H   0  0  0  0  0  0  0  0  0  0  0  0
   -0.0000    1.5931    2.5640 H   0  0  0  0  0  0  0  0  0  0  0  0
   -0.0000   -0.2400    2.8344 H   0  0  0  0  0  0  0  0  0  0  0  0
    0.0000   -2.0424   -1.6373 C   0  0  0  0  0  0  0  0  0  0  0  0
    0.0000   -2.0424   -0.1145 C   0  0  0  0  0  3  0  0  0  0  0  0
   -0.8808   -1.5339   -2.0331 H   0  0  0  0  0  0  0  0  0  0  0  0
    0.8808   -1.5339   -2.0331 H   0  0  0  0  0  0  0  0  0  0  0  0
   -0.0000   -3.0596   -2.0331 H   0  0  0  0  0  0  0  0  0  0  0  0
    0.0000   -0.8219    0.3605 H   0  0  0  0  0  0  0  0  0  0  0  0
    0.8808   -2.5510    0.2814 H   0  0  0  0  0  0  0  0  0  0  0  0
   -0.8808   -2.5510    0.2814 H   0  0  0  0  0  0  0  0  0  0  0  0
  1  2  3  0
  1  5  1  0
  2  3  1  0
  3  4  2  3
  3 13  1  0
  4  6  1  0
  4  7  1  0
  8  9  1  0
  8 10  1  0
  8 11  1  0
  8 12  1  0
  9 14  1  0
  9 15  1  0
M  RAD  1   9   2
M  END
>  <reaction>  (16) 
rxn_886

>  <mol_properties>  (16) 
{"1": {"label": "*4", "atom_type": "Ct"}, "2": {"label": "*3", "atom_type": "Cd"}, "7": {"label": "*0", "atom_type": "Cs"}, "8": {"label": "*1", "atom_type": "Cs"}, "12": {"label": "*2", "atom_type": "H0"}}

>  <type>  (16) 
unop_12

>  <geom_source>  (16) 
Heuristics

$$$$

     RDKit          3D

 15 13  0  0  0  0  0  0  0  0999 V2000
   -2.6465    0.0264   -0.3742 C   0  0  0  0  0  0  0  0  0  0  0  0
    1.1947   -0.2362    0.0832 C   0  0  0  0  0  0  0  0  0  0  0  0
   -1.2377    0.5873   -0.3148 C   0  0  0  0  0  3  0  0  0  0  0  0
    1.2915   -1.4376   -0.4736 C   0  0  0  0  0  0  0  0  0  0  0  0
    2.3381    0.3900    0.6902 C   0  0  0  0  0  0  0  0  0  0  0  0
    3.2960    0.9159    1.1992 C   0  0  0  0  0  0  0  0  0  0  0  0
   -3.3235    0.6356    0.2610 H   0  0  0  0  0  0  0  0  0  0  0  0
   -2.6452   -1.0218   -0.0095 H   0  0  0  0  0  0  0  0  0  0  0  0
   -3.0106    0.0455   -1.4225 H   0  0  0  0  0  0  0  0  0  0  0  0
    0.0468    0.3890    0.0819 H   0  0  0  0  0  0  0  0  0  0  0  0
   -0.8627    0.5634    0.7301 H   0  0  0  0  0  0  0  0  0  0  0  0
   -1.2291    1.6335   -0.6866 H   0  0  0  0  0  0  0  0  0  0  0  0
    0.4199   -1.8921   -0.9251 H   0  0  0  0  0  0  0  0  0  0  0  0
    2.2315   -1.9764   -0.4855 H   0  0  0  0  0  0  0  0  0  0  0  0
    4.1370    1.3775    1.6461 H   0  0  0  0  0  0  0  0  0  0  0  0
  1  3  1  0
  1  7  1  0
  1  8  1  0
  1  9  1  0
  2  4  2  3
  2  5  1  0
  2 10  1  0
  3 11  1  0
  3 12  1  0
  4 13  1  0
  4 14  1  0
  5  6  3  0
  6 15  1  0
M  RAD  1   3   2
M  END
>  <reaction>  (17) 
rxn_886

>  <mol_properties>  (17) 
{"1": {"label": "*4", "atom_type": "Ct"}, "2": {"label": "*3", "atom_type": "Cd"}, "7": {"label": "*0", "atom_type": "Cs"}, "8": {"label": "*1", "atom_type": "Cs"}, "12": {"label": "*2", "atom_type": "H0"}}

>  <type>  (17) 
unop_13

>  <geom_source>  (17) 
AutoTST

$$$$
