
     RDKit          3D

  7  6  0  0  0  0  0  0  0  0999 V2000
   -2.1655    1.0146    0.0087 N   0  0  0  0  0  0  0  0  0  0  0  0
   -1.2095    0.3846    0.0054 C   0  0  0  0  0  0  0  0  0  0  0  0
   -0.0101   -0.4520    0.0013 C   0  0  0  0  0  0  0  0  0  0  0  0
    1.2256    0.3300   -0.0075 C   0  0  0  0  0  0  0  0  0  0  0  0
    2.2088    0.9164   -0.0144 N   0  0  0  0  0  0  0  0  0  0  0  0
   -0.0199   -1.0943    0.8846 H   0  0  0  0  0  0  0  0  0  0  0  0
   -0.0293   -1.0993   -0.8781 H   0  0  0  0  0  0  0  0  0  0  0  0
  1  2  3  0
  2  3  1  0
  3  4  1  0
  3  6  1  0
  3  7  1  0
  4  5  3  0
M  END
>  <reaction>  (1) 
rxn_3164

>  <mol_properties>  (1) 
{"2": {"label": "donator", "atom_type": "Cs"}, "5": {"label": "d_hydrogen", "atom_type": "H0"}}

>  <type>  (1) 
r1h

$$$$

     RDKit          3D

  6  6  0  0  0  0  0  0  0  0999 V2000
    1.9594    0.0134   -0.3734 N   0  0  0  0  0  2  0  0  0  0  0  0
    0.7437    0.0051   -0.0788 C   0  0  0  0  0  0  0  0  0  0  0  0
   -0.0745    1.0868    0.0233 O   0  0  0  0  0  0  0  0  0  0  0  0
   -1.3223    0.5972    0.3682 N   0  0  0  0  0  0  0  0  0  0  0  0
   -1.2899   -0.6150    0.4676 N   0  0  0  0  0  0  0  0  0  0  0  0
   -0.0165   -1.0874    0.2015 O   0  0  0  0  0  0  0  0  0  0  0  0
  1  2  2  0
  2  3  1  0
  2  6  1  0
  3  4  1  0
  4  5  2  0
  5  6  1  0
M  RAD  1   1   2
M  END
>  <reaction>  (2) 
rxn_3164

>  <mol_properties>  (2) 
{"0": {"label": "acceptor", "atom_type": "N3d"}}

>  <type>  (2) 
r2

$$$$

     RDKit          3D

  7  7  0  0  0  0  0  0  0  0999 V2000
    1.6064   -0.4313    0.1905 N   0  0  0  0  0  0  0  0  0  0  0  0
    0.3982   -0.1725    0.0701 C   0  0  0  0  0  0  0  0  0  0  0  0
   -0.6051   -1.0481    0.3497 O   0  0  0  0  0  0  0  0  0  0  0  0
   -1.7906   -0.4044    0.0958 N   0  0  0  0  0  0  0  0  0  0  0  0
   -1.5819    0.7348   -0.2956 N   0  0  0  0  0  0  0  0  0  0  0  0
   -0.2229    0.9708   -0.3436 O   0  0  0  0  0  0  0  0  0  0  0  0
    2.1958    0.3506   -0.0669 H   0  0  0  0  0  0  0  0  0  0  0  0
  1  2  2  3
  1  7  1  0
  2  3  1  0
  2  6  1  0
  3  4  1  0
  4  5  2  0
  5  6  1  0
M  END
>  <reaction>  (3) 
rxn_3164

>  <mol_properties>  (3) 
{"0": {"label": "acceptor", "atom_type": "N3d"}, "6": {"label": "a_hydrogen", "atom_type": "H0"}}

>  <type>  (3) 
r2h

$$$$

     RDKit          3D

 13 12  0  0  0  0  0  0  0  0999 V2000
   -0.2922    1.1730    1.1685 N   0  0  0  0  0  2  0  0  0  0  0  0
    0.7204    1.0353    0.4389 C   0  0  0  0  0  0  0  0  0  0  0  0
    1.7955    1.8558    0.4586 O   0  0  0  0  0  0  0  0  0  0  0  0
    2.6816    1.3646   -0.4846 N   0  0  0  0  0  0  0  0  0  0  0  0
    2.2221    0.3728   -1.0200 N   0  0  0  0  0  0  0  0  0  0  0  0
    0.9722    0.0874   -0.4936 O   0  0  0  0  0  0  0  0  0  0  0  0
   -2.4850   -0.3663   -1.9251 N   0  0  0  0  0  0  0  0  0  0  0  0
   -2.2410   -0.5711   -0.8225 C   0  0  0  0  0  0  0  0  0  0  0  0
   -1.9147   -0.7606    0.5671 C   0  0  0  0  0  0  0  0  0  0  0  0
   -1.2032   -1.9722    0.8820 C   0  0  0  0  0  0  0  0  0  0  0  0
   -0.6025   -2.9077    1.1668 N   0  0  0  0  0  0  0  0  0  0  0  0
   -1.1606    0.2132    0.9084 H   0  0  0  0  0  0  0  0  0  0  0  0
   -2.7669   -0.5914    1.2250 H   0  0  0  0  0  0  0  0  0  0  0  0
  1  2  2  0
  2  3  1  0
  2  6  1  0
  3  4  1  0
  4  5  2  0
  5  6  1  0
  7  8  3  0
  8  9  1  0
  9 10  1  0
  9 12  1  0
  9 13  1  0
 10 11  3  0
M  RAD  1   1   2
M  END
>  <reaction>  (4) 
rxn_3164

>  <mol_properties>  (4) 
{"0": {"label": "*3", "atom_type": "N3d"}, "1": {"label": "*4", "atom_type": "Cd"}, "7": {"label": "*0", "atom_type": "Ct"}, "8": {"label": "*1", "atom_type": "Cs"}, "11": {"label": "*2", "atom_type": "H0"}}

>  <type>  (4) 
ts

$$$$

     RDKit          3D

 13 12  0  0  0  0  0  0  0  0999 V2000
    1.1372   -0.0522   -0.0953 N   0  0  0  0  0  0  0  0  0  0  0  0
    0.8412    0.9497    0.5755 C   0  0  0  0  0  0  0  0  0  0  0  0
    1.4725    1.3178    1.7233 O   0  0  0  0  0  0  0  0  0  0  0  0
    0.8686    2.4667    2.1702 N   0  0  0  0  0  0  0  0  0  0  0  0
   -0.0323    2.7971    1.4130 N   0  0  0  0  0  0  0  0  0  0  0  0
   -0.1234    1.8944    0.3729 O   0  0  0  0  0  0  0  0  0  0  0  0
   -0.9010   -1.3544   -3.4945 N   0  0  0  0  0  2  0  0  0  0  0  0
   -0.9010   -1.3544   -2.3497 C   0  0  0  0  0  0  0  0  0  0  0  0
   -0.9010   -1.3157   -0.8878 C   0  0  0  0  0  0  0  0  0  0  0  0
   -0.9010   -2.6486   -0.2862 C   0  0  0  0  0  0  0  0  0  0  0  0
   -0.9010   -3.6793    0.2122 N   0  0  0  0  0  0  0  0  0  0  0  0
    0.1567   -0.6600   -0.4765 H   0  0  0  0  0  0  0  0  0  0  0  0
   -1.7824   -0.7693   -0.5451 H   0  0  0  0  0  0  0  0  0  0  0  0
  1  2  2  3
  1 12  1  0
  2  3  1  0
  2  6  1  0
  3  4  1  0
  4  5  2  0
  5  6  1  0
  7  8  2  0
  8  9  2  0
  9 10  1  0
  9 13  1  0
 10 11  3  0
M  RAD  1   7   2
M  END
>  <reaction>  (5) 
rxn_3164

>  <mol_properties>  (5) 
{"0": {"label": "*3", "atom_type": "N3d"}, "1": {"label": "*4", "atom_type": "Cd"}, "7": {"label": "*0", "atom_type": "Ct"}, "8": {"label": "*1", "atom_type": "Cs"}, "11": {"label": "*2", "atom_type": "H0"}}

>  <type>  (5) 
unop_1

>  <geom_source>  (5) 
Heuristics

$$$$

     RDKit          3D

 13 12  0  0  0  0  0  0  0  0999 V2000
    0.5345    0.0495    1.2741 N   0  0  0  0  0  0  0  0  0  0  0  0
    0.8949    0.9202    0.4659 C   0  0  0  0  0  0  0  0  0  0  0  0
    1.7023    1.9698    0.7790 O   0  0  0  0  0  0  0  0  0  0  0  0
    1.8744    2.7075   -0.3658 N   0  0  0  0  0  0  0  0  0  0  0  0
    1.2606    2.2025   -1.2946 N   0  0  0  0  0  0  0  0  0  0  0  0
    0.6096    1.0653   -0.8613 O   0  0  0  0  0  0  0  0  0  0  0  0
   -1.5037   -1.2526   -2.1251 N   0  0  0  0  0  2  0  0  0  0  0  0
   -1.5037   -1.2526   -0.9802 C   0  0  0  0  0  0  0  0  0  0  0  0
   -1.5037   -1.2140    0.4816 C   0  0  0  0  0  0  0  0  0  0  0  0
   -1.5037   -2.5469    1.0832 C   0  0  0  0  0  0  0  0  0  0  0  0
   -1.5037   -3.5776    1.5816 N   0  0  0  0  0  0  0  0  0  0  0  0
   -0.4460   -0.5583    0.8929 H   0  0  0  0  0  0  0  0  0  0  0  0
   -2.3851   -0.6676    0.8244 H   0  0  0  0  0  0  0  0  0  0  0  0
  1  2  2  3
  1 12  1  0
  2  3  1  0
  2  6  1  0
  3  4  1  0
  4  5  2  0
  5  6  1  0
  7  8  2  0
  8  9  2  0
  9 10  1  0
  9 13  1  0
 10 11  3  0
M  RAD  1   7   2
M  END
>  <reaction>  (6) 
rxn_3164

>  <mol_properties>  (6) 
{"0": {"label": "*3", "atom_type": "N3d"}, "1": {"label": "*4", "atom_type": "Cd"}, "7": {"label": "*0", "atom_type": "Ct"}, "8": {"label": "*1", "atom_type": "Cs"}, "11": {"label": "*2", "atom_type": "H0"}}

>  <type>  (6) 
unop_2

>  <geom_source>  (6) 
Heuristics

$$$$

     RDKit          3D

 13 12  0  0  0  0  0  0  0  0999 V2000
    1.0363    0.3344   -0.4620 N   0  0  0  0  0  0  0  0  0  0  0  0
    0.8417    0.9167    0.6170 C   0  0  0  0  0  0  0  0  0  0  0  0
    1.7994    1.1206    1.5619 O   0  0  0  0  0  0  0  0  0  0  0  0
    1.2084    1.7919    2.6032 N   0  0  0  0  0  0  0  0  0  0  0  0
    0.0269    1.9948    2.3639 N   0  0  0  0  0  0  0  0  0  0  0  0
   -0.2952    1.4750    1.1265 O   0  0  0  0  0  0  0  0  0  0  0  0
   -1.0019   -0.9677   -3.8613 N   0  0  0  0  0  2  0  0  0  0  0  0
   -1.0019   -0.9677   -2.7164 C   0  0  0  0  0  0  0  0  0  0  0  0
   -1.0019   -0.9291   -1.2545 C   0  0  0  0  0  0  0  0  0  0  0  0
   -1.0019   -2.2620   -0.6530 C   0  0  0  0  0  0  0  0  0  0  0  0
   -1.0019   -3.2927   -0.1546 N   0  0  0  0  0  0  0  0  0  0  0  0
    0.0558   -0.2734   -0.8433 H   0  0  0  0  0  0  0  0  0  0  0  0
   -1.8833   -0.3827   -0.9118 H   0  0  0  0  0  0  0  0  0  0  0  0
  1  2  2  3
  1 12  1  0
  2  3  1  0
  2  6  1  0
  3  4  1  0
  4  5  2  0
  5  6  1  0
  7  8  2  0
  8  9  2  0
  9 10  1  0
  9 13  1  0
 10 11  3  0
M  RAD  1   7   2
M  END
>  <reaction>  (7) 
rxn_3164

>  <mol_properties>  (7) 
{"0": {"label": "*3", "atom_type": "N3d"}, "1": {"label": "*4", "atom_type": "Cd"}, "7": {"label": "*0", "atom_type": "Ct"}, "8": {"label": "*1", "atom_type": "Cs"}, "11": {"label": "*2", "atom_type": "H0"}}

>  <type>  (7) 
unop_3

>  <geom_source>  (7) 
Heuristics

$$$$

     RDKit          3D

 13 12  0  0  0  0  0  0  0  0999 V2000
   -0.1113    1.3520    0.8678 N   0  0  0  0  0  0  0  0  0  0  0  0
    0.9479    0.8232    0.4939 C   0  0  0  0  0  0  0  0  0  0  0  0
    2.1027    0.8273    1.2134 O   0  0  0  0  0  0  0  0  0  0  0  0
    3.0436    0.1501    0.4783 N   0  0  0  0  0  0  0  0  0  0  0  0
    2.5617   -0.2397   -0.5754 N   0  0  0  0  0  0  0  0  0  0  0  0
    1.2373    0.1408   -0.6526 O   0  0  0  0  0  0  0  0  0  0  0  0
   -2.1494    0.0499   -2.5314 N   0  0  0  0  0  2  0  0  0  0  0  0
   -2.1494    0.0499   -1.3865 C   0  0  0  0  0  0  0  0  0  0  0  0
   -2.1494    0.0886    0.0753 C   0  0  0  0  0  0  0  0  0  0  0  0
   -2.1494   -1.2444    0.6769 C   0  0  0  0  0  0  0  0  0  0  0  0
   -2.1494   -2.2751    1.1753 N   0  0  0  0  0  0  0  0  0  0  0  0
   -1.0917    0.7442    0.4866 H   0  0  0  0  0  0  0  0  0  0  0  0
   -3.0308    0.6350    0.4181 H   0  0  0  0  0  0  0  0  0  0  0  0
  1  2  2  3
  1 12  1  0
  2  3  1  0
  2  6  1  0
  3  4  1  0
  4  5  2  0
  5  6  1  0
  7  8  2  0
  8  9  2  0
  9 10  1  0
  9 13  1  0
 10 11  3  0
M  RAD  1   7   2
M  END
>  <reaction>  (8) 
rxn_3164

>  <mol_properties>  (8) 
{"0": {"label": "*3", "atom_type": "N3d"}, "1": {"label": "*4", "atom_type": "Cd"}, "7": {"label": "*0", "atom_type": "Ct"}, "8": {"label": "*1", "atom_type": "Cs"}, "11": {"label": "*2", "atom_type": "H0"}}

>  <type>  (8) 
unop_4

>  <geom_source>  (8) 
Heuristics

$$$$

     RDKit          3D

 13 12  0  0  0  0  0  0  0  0999 V2000
    0.8022    0.7901   -0.6000 N   0  0  0  0  0  0  0  0  0  0  0  0
    0.8634    0.8602    0.6380 C   0  0  0  0  0  0  0  0  0  0  0  0
    1.8595    1.4855    1.3223 O   0  0  0  0  0  0  0  0  0  0  0  0
    1.5816    1.3515    2.6599 N   0  0  0  0  0  0  0  0  0  0  0  0
    0.5449    0.7237    2.8191 N   0  0  0  0  0  0  0  0  0  0  0  0
    0.0191    0.3708    1.5927 O   0  0  0  0  0  0  0  0  0  0  0  0
   -1.2359   -0.5120   -3.9993 N   0  0  0  0  0  2  0  0  0  0  0  0
   -1.2359   -0.5120   -2.8544 C   0  0  0  0  0  0  0  0  0  0  0  0
   -1.2359   -0.4733   -1.3925 C   0  0  0  0  0  0  0  0  0  0  0  0
   -1.2359   -1.8063   -0.7910 C   0  0  0  0  0  0  0  0  0  0  0  0
   -1.2359   -2.8370   -0.2926 N   0  0  0  0  0  0  0  0  0  0  0  0
   -0.1782    0.1823   -0.9813 H   0  0  0  0  0  0  0  0  0  0  0  0
   -2.1173    0.0731   -1.0498 H   0  0  0  0  0  0  0  0  0  0  0  0
  1  2  2  3
  1 12  1  0
  2  3  1  0
  2  6  1  0
  3  4  1  0
  4  5  2  0
  5  6  1  0
  7  8  2  0
  8  9  2  0
  9 10  1  0
  9 13  1  0
 10 11  3  0
M  RAD  1   7   2
M  END
>  <reaction>  (9) 
rxn_3164

>  <mol_properties>  (9) 
{"0": {"label": "*3", "atom_type": "N3d"}, "1": {"label": "*4", "atom_type": "Cd"}, "7": {"label": "*0", "atom_type": "Ct"}, "8": {"label": "*1", "atom_type": "Cs"}, "11": {"label": "*2", "atom_type": "H0"}}

>  <type>  (9) 
unop_5

>  <geom_source>  (9) 
Heuristics

$$$$

     RDKit          3D

 13 12  0  0  0  0  0  0  0  0999 V2000
   -0.0304    1.5452    0.3595 N   0  0  0  0  0  0  0  0  0  0  0  0
    0.9486    0.8018    0.5338 C   0  0  0  0  0  0  0  0  0  0  0  0
    1.8046    0.8957    1.5873 O   0  0  0  0  0  0  0  0  0  0  0  0
    2.7498   -0.0878    1.4336 N   0  0  0  0  0  0  0  0  0  0  0  0
    2.5339   -0.7314    0.4169 N   0  0  0  0  0  0  0  0  0  0  0  0
    1.4119   -0.2390   -0.2184 O   0  0  0  0  0  0  0  0  0  0  0  0
   -2.0685    0.2430   -3.0397 N   0  0  0  0  0  2  0  0  0  0  0  0
   -2.0685    0.2430   -1.8949 C   0  0  0  0  0  0  0  0  0  0  0  0
   -2.0685    0.2817   -0.4330 C   0  0  0  0  0  0  0  0  0  0  0  0
   -2.0686   -1.0512    0.1686 C   0  0  0  0  0  0  0  0  0  0  0  0
   -2.0686   -2.0819    0.6670 N   0  0  0  0  0  0  0  0  0  0  0  0
   -1.0109    0.9374   -0.0217 H   0  0  0  0  0  0  0  0  0  0  0  0
   -2.9499    0.8281   -0.0902 H   0  0  0  0  0  0  0  0  0  0  0  0
  1  2  2  3
  1 12  1  0
  2  3  1  0
  2  6  1  0
  3  4  1  0
  4  5  2  0
  5  6  1  0
  7  8  2  0
  8  9  2  0
  9 10  1  0
  9 13  1  0
 10 11  3  0
M  RAD  1   7   2
M  END
>  <reaction>  (10) 
rxn_3164

>  <mol_properties>  (10) 
{"0": {"label": "*3", "atom_type": "N3d"}, "1": {"label": "*4", "atom_type": "Cd"}, "7": {"label": "*0", "atom_type": "Ct"}, "8": {"label": "*1", "atom_type": "Cs"}, "11": {"label": "*2", "atom_type": "H0"}}

>  <type>  (10) 
unop_6

>  <geom_source>  (10) 
Heuristics

$$$$

     RDKit          3D

 13 12  0  0  0  0  0  0  0  0999 V2000
    0.1955    1.4924   -0.1361 N   0  0  0  0  0  0  0  0  0  0  0  0
    0.9342    0.7971    0.5795 C   0  0  0  0  0  0  0  0  0  0  0  0
    1.5237    1.2339    1.7255 O   0  0  0  0  0  0  0  0  0  0  0  0
    2.2570    0.1892    2.2305 N   0  0  0  0  0  0  0  0  0  0  0  0
    2.1555   -0.7916    1.5079 N   0  0  0  0  0  0  0  0  0  0  0  0
    1.3361   -0.4997    0.4363 O   0  0  0  0  0  0  0  0  0  0  0  0
   -1.8427    0.1903   -3.5354 N   0  0  0  0  0  2  0  0  0  0  0  0
   -1.8427    0.1903   -2.3905 C   0  0  0  0  0  0  0  0  0  0  0  0
   -1.8427    0.2290   -0.9286 C   0  0  0  0  0  0  0  0  0  0  0  0
   -1.8427   -1.1040   -0.3271 C   0  0  0  0  0  0  0  0  0  0  0  0
   -1.8427   -2.1347    0.1713 N   0  0  0  0  0  0  0  0  0  0  0  0
   -0.7850    0.8846   -0.5174 H   0  0  0  0  0  0  0  0  0  0  0  0
   -2.7240    0.7754   -0.5859 H   0  0  0  0  0  0  0  0  0  0  0  0
  1  2  2  3
  1 12  1  0
  2  3  1  0
  2  6  1  0
  3  4  1  0
  4  5  2  0
  5  6  1  0
  7  8  2  0
  8  9  2  0
  9 10  1  0
  9 13  1  0
 10 11  3  0
M  RAD  1   7   2
M  END
>  <reaction>  (11) 
rxn_3164

>  <mol_properties>  (11) 
{"0": {"label": "*3", "atom_type": "N3d"}, "1": {"label": "*4", "atom_type": "Cd"}, "7": {"label": "*0", "atom_type": "Ct"}, "8": {"label": "*1", "atom_type": "Cs"}, "11": {"label": "*2", "atom_type": "H0"}}

>  <type>  (11) 
unop_7

>  <geom_source>  (11) 
Heuristics

$$$$

     RDKit          3D

 13 12  0  0  0  0  0  0  0  0999 V2000
    1.0688   -0.2579    0.4072 N   0  0  0  0  0  0  0  0  0  0  0  0
    0.8530    0.9585    0.5297 C   0  0  0  0  0  0  0  0  0  0  0  0
    1.3041    1.7168    1.5656 O   0  0  0  0  0  0  0  0  0  0  0  0
    0.8671    3.0004    1.3519 N   0  0  0  0  0  0  0  0  0  0  0  0
    0.2203    3.0637    0.3165 N   0  0  0  0  0  0  0  0  0  0  0  0
    0.1583    1.8172   -0.2728 O   0  0  0  0  0  0  0  0  0  0  0  0
   -0.9694   -1.5601   -2.9920 N   0  0  0  0  0  2  0  0  0  0  0  0
   -0.9694   -1.5601   -1.8471 C   0  0  0  0  0  0  0  0  0  0  0  0
   -0.9694   -1.5214   -0.3853 C   0  0  0  0  0  0  0  0  0  0  0  0
   -0.9694   -2.8543    0.2163 C   0  0  0  0  0  0  0  0  0  0  0  0
   -0.9694   -3.8850    0.7147 N   0  0  0  0  0  0  0  0  0  0  0  0
    0.0883   -0.8657    0.0260 H   0  0  0  0  0  0  0  0  0  0  0  0
   -1.8507   -0.9750   -0.0425 H   0  0  0  0  0  0  0  0  0  0  0  0
  1  2  2  3
  1 12  1  0
  2  3  1  0
  2  6  1  0
  3  4  1  0
  4  5  2  0
  5  6  1  0
  7  8  2  0
  8  9  2  0
  9 10  1  0
  9 13  1  0
 10 11  3  0
M  RAD  1   7   2
M  END
>  <reaction>  (12) 
rxn_3164

>  <mol_properties>  (12) 
{"0": {"label": "*3", "atom_type": "N3d"}, "1": {"label": "*4", "atom_type": "Cd"}, "7": {"label": "*0", "atom_type": "Ct"}, "8": {"label": "*1", "atom_type": "Cs"}, "11": {"label": "*2", "atom_type": "H0"}}

>  <type>  (12) 
unop_8

>  <geom_source>  (12) 
Heuristics

$$$$

     RDKit          3D

 13 12  0  0  0  0  0  0  0  0999 V2000
   -0.0226    0.9633    1.2500 N   0  0  0  0  0  0  0  0  0  0  0  0
    0.9352    0.8541    0.4677 C   0  0  0  0  0  0  0  0  0  0  0  0
    2.2304    1.1034    0.8019 O   0  0  0  0  0  0  0  0  0  0  0  0
    2.9916    0.8748   -0.3173 N   0  0  0  0  0  0  0  0  0  0  0  0
    2.2835    0.5246   -1.2502 N   0  0  0  0  0  0  0  0  0  0  0  0
    0.9645    0.4830   -0.8459 O   0  0  0  0  0  0  0  0  0  0  0  0
   -2.0607   -0.3389   -2.1493 N   0  0  0  0  0  2  0  0  0  0  0  0
   -2.0607   -0.3389   -1.0044 C   0  0  0  0  0  0  0  0  0  0  0  0
   -2.0607   -0.3002    0.4575 C   0  0  0  0  0  0  0  0  0  0  0  0
   -2.0608   -1.6331    1.0590 C   0  0  0  0  0  0  0  0  0  0  0  0
   -2.0608   -2.6638    1.5574 N   0  0  0  0  0  0  0  0  0  0  0  0
   -1.0031    0.3555    0.8687 H   0  0  0  0  0  0  0  0  0  0  0  0
   -2.9421    0.2462    0.8002 H   0  0  0  0  0  0  0  0  0  0  0  0
  1  2  2  3
  1 12  1  0
  2  3  1  0
  2  6  1  0
  3  4  1  0
  4  5  2  0
  5  6  1  0
  7  8  2  0
  8  9  2  0
  9 10  1  0
  9 13  1  0
 10 11  3  0
M  RAD  1   7   2
M  END
>  <reaction>  (13) 
rxn_3164

>  <mol_properties>  (13) 
{"0": {"label": "*3", "atom_type": "N3d"}, "1": {"label": "*4", "atom_type": "Cd"}, "7": {"label": "*0", "atom_type": "Ct"}, "8": {"label": "*1", "atom_type": "Cs"}, "11": {"label": "*2", "atom_type": "H0"}}

>  <type>  (13) 
unop_9

>  <geom_source>  (13) 
Heuristics

$$$$

     RDKit          3D

 13 12  0  0  0  0  0  0  0  0999 V2000
    0.8482   -0.2218    0.9095 N   0  0  0  0  0  0  0  0  0  0  0  0
    0.8727    0.9466    0.4906 C   0  0  0  0  0  0  0  0  0  0  0  0
    1.3888    1.9985    1.1825 O   0  0  0  0  0  0  0  0  0  0  0  0
    1.2356    3.1158    0.3999 N   0  0  0  0  0  0  0  0  0  0  0  0
    0.6932    2.8253   -0.6565 N   0  0  0  0  0  0  0  0  0  0  0  0
    0.4260    1.4716   -0.6879 O   0  0  0  0  0  0  0  0  0  0  0  0
   -1.1900   -1.5240   -2.4898 N   0  0  0  0  0  2  0  0  0  0  0  0
   -1.1900   -1.5240   -1.3449 C   0  0  0  0  0  0  0  0  0  0  0  0
   -1.1900   -1.4853    0.1170 C   0  0  0  0  0  0  0  0  0  0  0  0
   -1.1900   -2.8182    0.7185 C   0  0  0  0  0  0  0  0  0  0  0  0
   -1.1900   -3.8489    1.2169 N   0  0  0  0  0  0  0  0  0  0  0  0
   -0.1323   -0.8296    0.5282 H   0  0  0  0  0  0  0  0  0  0  0  0
   -2.0714   -0.9389    0.4597 H   0  0  0  0  0  0  0  0  0  0  0  0
  1  2  2  3
  1 12  1  0
  2  3  1  0
  2  6  1  0
  3  4  1  0
  4  5  2  0
  5  6  1  0
  7  8  2  0
  8  9  2  0
  9 10  1  0
  9 13  1  0
 10 11  3  0
M  RAD  1   7   2
M  END
>  <reaction>  (14) 
rxn_3164

>  <mol_properties>  (14) 
{"0": {"label": "*3", "atom_type": "N3d"}, "1": {"label": "*4", "atom_type": "Cd"}, "7": {"label": "*0", "atom_type": "Ct"}, "8": {"label": "*1", "atom_type": "Cs"}, "11": {"label": "*2", "atom_type": "H0"}}

>  <type>  (14) 
unop_10

>  <geom_source>  (14) 
Heuristics

$$$$

     RDKit          3D

 13 12  0  0  0  0  0  0  0  0999 V2000
    0.5014    1.2118   -0.4852 N   0  0  0  0  0  0  0  0  0  0  0  0
    0.9041    0.8142    0.6197 C   0  0  0  0  0  0  0  0  0  0  0  0
    1.5021    1.6083    1.5490 O   0  0  0  0  0  0  0  0  0  0  0  0
    1.8031    0.8163    2.6290 N   0  0  0  0  0  0  0  0  0  0  0  0
    1.4475   -0.3354    2.4255 N   0  0  0  0  0  0  0  0  0  0  0  0
    0.8670   -0.4316    1.1770 O   0  0  0  0  0  0  0  0  0  0  0  0
   -1.5368   -0.0903   -3.8845 N   0  0  0  0  0  2  0  0  0  0  0  0
   -1.5368   -0.0903   -2.7396 C   0  0  0  0  0  0  0  0  0  0  0  0
   -1.5368   -0.0516   -1.2777 C   0  0  0  0  0  0  0  0  0  0  0  0
   -1.5368   -1.3846   -0.6762 C   0  0  0  0  0  0  0  0  0  0  0  0
   -1.5368   -2.4153   -0.1778 N   0  0  0  0  0  0  0  0  0  0  0  0
   -0.4791    0.6040   -0.8665 H   0  0  0  0  0  0  0  0  0  0  0  0
   -2.4182    0.4948   -0.9350 H   0  0  0  0  0  0  0  0  0  0  0  0
  1  2  2  3
  1 12  1  0
  2  3  1  0
  2  6  1  0
  3  4  1  0
  4  5  2  0
  5  6  1  0
  7  8  2  0
  8  9  2  0
  9 10  1  0
  9 13  1  0
 10 11  3  0
M  RAD  1   7   2
M  END
>  <reaction>  (15) 
rxn_3164

>  <mol_properties>  (15) 
{"0": {"label": "*3", "atom_type": "N3d"}, "1": {"label": "*4", "atom_type": "Cd"}, "7": {"label": "*0", "atom_type": "Ct"}, "8": {"label": "*1", "atom_type": "Cs"}, "11": {"label": "*2", "atom_type": "H0"}}

>  <type>  (15) 
unop_11

>  <geom_source>  (15) 
Heuristics

$$$$

     RDKit          3D

 13 12  0  0  0  0  0  0  0  0999 V2000
    0.2142    0.4845    1.3996 N   0  0  0  0  0  0  0  0  0  0  0  0
    0.9162    0.8876    0.4583 C   0  0  0  0  0  0  0  0  0  0  0  0
    2.0691    1.5944    0.6096 O   0  0  0  0  0  0  0  0  0  0  0  0
    2.5543    1.8570   -0.6474 N   0  0  0  0  0  0  0  0  0  0  0  0
    1.8144    1.3834   -1.4975 N   0  0  0  0  0  0  0  0  0  0  0  0
    0.7492    0.7502   -0.8897 O   0  0  0  0  0  0  0  0  0  0  0  0
   -1.8240   -0.8176   -1.9997 N   0  0  0  0  0  2  0  0  0  0  0  0
   -1.8240   -0.8176   -0.8548 C   0  0  0  0  0  0  0  0  0  0  0  0
   -1.8240   -0.7789    0.6071 C   0  0  0  0  0  0  0  0  0  0  0  0
   -1.8240   -2.1119    1.2086 C   0  0  0  0  0  0  0  0  0  0  0  0
   -1.8240   -3.1426    1.7070 N   0  0  0  0  0  0  0  0  0  0  0  0
   -0.7663   -0.1232    1.0183 H   0  0  0  0  0  0  0  0  0  0  0  0
   -2.7054   -0.2325    0.9498 H   0  0  0  0  0  0  0  0  0  0  0  0
  1  2  2  3
  1 12  1  0
  2  3  1  0
  2  6  1  0
  3  4  1  0
  4  5  2  0
  5  6  1  0
  7  8  2  0
  8  9  2  0
  9 10  1  0
  9 13  1  0
 10 11  3  0
M  RAD  1   7   2
M  END
>  <reaction>  (16) 
rxn_3164

>  <mol_properties>  (16) 
{"0": {"label": "*3", "atom_type": "N3d"}, "1": {"label": "*4", "atom_type": "Cd"}, "7": {"label": "*0", "atom_type": "Ct"}, "8": {"label": "*1", "atom_type": "Cs"}, "11": {"label": "*2", "atom_type": "H0"}}

>  <type>  (16) 
unop_12

>  <geom_source>  (16) 
Heuristics

$$$$

     RDKit          3D

 13 12  0  0  0  0  0  0  0  0999 V2000
    0.5345    0.0495    1.2741 N   0  0  0  0  0  0  0  0  0  0  0  0
    0.8949    0.9202    0.4659 C   0  0  0  0  0  0  0  0  0  0  0  0
    1.7023    1.9698    0.7790 O   0  0  0  0  0  0  0  0  0  0  0  0
    1.8743    2.7075   -0.3658 N   0  0  0  0  0  0  0  0  0  0  0  0
    1.2606    2.2025   -1.2946 N   0  0  0  0  0  0  0  0  0  0  0  0
    0.6096    1.0653   -0.8613 O   0  0  0  0  0  0  0  0  0  0  0  0
   -1.5037   -1.2527   -2.1251 N   0  0  0  0  0  2  0  0  0  0  0  0
   -1.5037   -1.2527   -0.9802 C   0  0  0  0  0  0  0  0  0  0  0  0
   -1.5037   -1.2140    0.4816 C   0  0  0  0  0  0  0  0  0  0  0  0
   -1.5037   -2.5469    1.0832 C   0  0  0  0  0  0  0  0  0  0  0  0
   -1.5037   -3.5776    1.5816 N   0  0  0  0  0  0  0  0  0  0  0  0
   -0.4460   -0.5583    0.8929 H   0  0  0  0  0  0  0  0  0  0  0  0
   -2.3851   -0.6676    0.8244 H   0  0  0  0  0  0  0  0  0  0  0  0
  1  2  2  3
  1 12  1  0
  2  3  1  0
  2  6  1  0
  3  4  1  0
  4  5  2  0
  5  6  1  0
  7  8  2  0
  8  9  2  0
  9 10  1  0
  9 13  1  0
 10 11  3  0
M  RAD  1   7   2
M  END
>  <reaction>  (17) 
rxn_3164

>  <mol_properties>  (17) 
{"0": {"label": "*3", "atom_type": "N3d"}, "1": {"label": "*4", "atom_type": "Cd"}, "7": {"label": "*0", "atom_type": "Ct"}, "8": {"label": "*1", "atom_type": "Cs"}, "11": {"label": "*2", "atom_type": "H0"}}

>  <type>  (17) 
unop_13

>  <geom_source>  (17) 
gaussian_log

$$$$
