
     RDKit          3D

 11 10  0  0  0  0  0  0  0  0999 V2000
   -1.2710    0.1907   -0.2084 C   0  0  0  0  0  0  0  0  0  0  0  0
    0.0202   -0.6130   -0.2928 C   0  0  0  0  0  0  0  0  0  0  0  0
    0.1086   -1.6953    0.7756 C   0  0  0  0  0  0  0  0  0  0  0  0
   -1.3607    0.6851    0.7620 H   0  0  0  0  0  0  0  0  0  0  0  0
   -2.1429   -0.4567   -0.3299 H   0  0  0  0  0  0  0  0  0  0  0  0
   -1.3158    0.9602   -0.9809 H   0  0  0  0  0  0  0  0  0  0  0  0
    0.8757    0.0616   -0.1992 H   0  0  0  0  0  0  0  0  0  0  0  0
    0.0997   -1.0712   -1.2825 H   0  0  0  0  0  0  0  0  0  0  0  0
   -0.7198   -2.4022    0.6850 H   0  0  0  0  0  0  0  0  0  0  0  0
    1.0395   -2.2596    0.6989 H   0  0  0  0  0  0  0  0  0  0  0  0
    0.0624   -1.2603    1.7770 H   0  0  0  0  0  0  0  0  0  0  0  0
  1  2  1  0
  1  4  1  0
  1  5  1  0
  1  6  1  0
  2  3  1  0
  2  7  1  0
  2  8  1  0
  3  9  1  0
  3 10  1  0
  3 11  1  0
M  END
>  <reaction>  (1) 
rxn_914

>  <mol_properties>  (1) 
{"1": {"label": "donator", "atom_type": "Cs"}, "6": {"label": "d_hydrogen", "atom_type": "H0"}}

>  <type>  (1) 
r1h

$$$$

     RDKit          3D

 11 10  0  0  0  0  0  0  0  0999 V2000
    2.0591    0.2533   -0.1061 C   0  0  0  0  0  0  0  0  0  0  0  0
    0.8045   -0.3111   -0.1535 C   0  0  0  0  0  0  0  0  0  0  0  0
   -0.3816    0.3942   -0.1885 C   0  0  0  0  0  3  0  0  0  0  0  0
   -1.7316   -0.2294   -0.2396 C   0  0  0  0  0  0  0  0  0  0  0  0
    2.9505   -0.3576   -0.0805 H   0  0  0  0  0  0  0  0  0  0  0  0
    2.1872    1.3290   -0.0933 H   0  0  0  0  0  0  0  0  0  0  0  0
    0.7385   -1.3970   -0.1643 H   0  0  0  0  0  0  0  0  0  0  0  0
   -0.3340    1.4795   -0.1783 H   0  0  0  0  0  0  0  0  0  0  0  0
   -1.6704   -1.3186   -0.2461 H   0  0  0  0  0  0  0  0  0  0  0  0
   -2.3404    0.0713    0.6191 H   0  0  0  0  0  0  0  0  0  0  0  0
   -2.2805    0.0851   -1.1331 H   0  0  0  0  0  0  0  0  0  0  0  0
  1  2  2  3
  1  5  1  0
  1  6  1  0
  2  3  1  0
  2  7  1  0
  3  4  1  0
  3  8  1  0
  4  9  1  0
  4 10  1  0
  4 11  1  0
M  RAD  1   3   2
M  END
>  <reaction>  (2) 
rxn_914

>  <mol_properties>  (2) 
{"2": {"label": "acceptor", "atom_type": "Cs"}}

>  <type>  (2) 
r2

$$$$

     RDKit          3D

 12 11  0  0  0  0  0  0  0  0999 V2000
    1.9877    0.1011    0.4814 C   0  0  0  0  0  0  0  0  0  0  0  0
    0.8179    0.5502    0.0525 C   0  0  0  0  0  0  0  0  0  0  0  0
   -0.2939   -0.2692   -0.5320 C   0  0  0  0  0  0  0  0  0  0  0  0
   -0.0292   -1.7631   -0.6328 C   0  0  0  0  0  0  0  0  0  0  0  0
    2.2522   -0.9490    0.4436 H   0  0  0  0  0  0  0  0  0  0  0  0
    2.7295    0.7757    0.8896 H   0  0  0  0  0  0  0  0  0  0  0  0
    0.6162    1.6164    0.1190 H   0  0  0  0  0  0  0  0  0  0  0  0
   -0.5268    0.1319   -1.5245 H   0  0  0  0  0  0  0  0  0  0  0  0
   -1.1959   -0.0938    0.0644 H   0  0  0  0  0  0  0  0  0  0  0  0
    0.1590   -2.1992    0.3502 H   0  0  0  0  0  0  0  0  0  0  0  0
    0.8382   -1.9701   -1.2626 H   0  0  0  0  0  0  0  0  0  0  0  0
   -0.8879   -2.2759   -1.0672 H   0  0  0  0  0  0  0  0  0  0  0  0
  1  2  2  3
  1  5  1  0
  1  6  1  0
  2  3  1  0
  2  7  1  0
  3  4  1  0
  3  8  1  0
  3  9  1  0
  4 10  1  0
  4 11  1  0
  4 12  1  0
M  END
>  <reaction>  (3) 
rxn_914

>  <mol_properties>  (3) 
{"2": {"label": "acceptor", "atom_type": "Cs"}, "11": {"label": "a_hydrogen", "atom_type": "H0"}}

>  <type>  (3) 
r2h

$$$$

     RDKit          3D

 22 20  0  0  0  0  0  0  0  0999 V2000
    2.4112    0.1794    0.1593 C   0  0  0  0  0  0  0  0  0  0  0  0
    1.3604    0.2323    0.9805 C   0  0  0  0  0  0  0  0  0  0  0  0
    0.2617   -0.7340    1.0518 C   0  0  0  0  0  0  0  0  0  0  0  0
    0.4392   -2.0739    0.3790 C   0  0  0  0  0  0  0  0  0  0  0  0
    3.1571    0.9635    0.1557 H   0  0  0  0  0  0  0  0  0  0  0  0
    2.5683   -0.6480   -0.5224 H   0  0  0  0  0  0  0  0  0  0  0  0
    1.2722    1.0894    1.6431 H   0  0  0  0  0  0  0  0  0  0  0  0
   -0.1566   -0.8112    2.0559 H   0  0  0  0  0  0  0  0  0  0  0  0
    1.2611   -2.6401    0.8263 H   0  0  0  0  0  0  0  0  0  0  0  0
   -0.4693   -2.6717    0.4650 H   0  0  0  0  0  0  0  0  0  0  0  0
    0.6591   -1.9590   -0.6843 H   0  0  0  0  0  0  0  0  0  0  0  0
   -1.1863    0.2100   -1.7903 C   0  0  0  0  0  0  0  0  0  0  0  0
   -1.6856    0.4536   -0.3950 C   0  0  0  0  0  3  0  0  0  0  0  0
   -1.6423    1.8740    0.0908 C   0  0  0  0  0  0  0  0  0  0  0  0
   -0.1498    0.5447   -1.8913 H   0  0  0  0  0  0  0  0  0  0  0  0
   -1.7799    0.7627   -2.5286 H   0  0  0  0  0  0  0  0  0  0  0  0
   -1.2298   -0.8471   -2.0564 H   0  0  0  0  0  0  0  0  0  0  0  0
   -0.7212   -0.1803    0.4201 H   0  0  0  0  0  0  0  0  0  0  0  0
   -2.6005   -0.0810   -0.1422 H   0  0  0  0  0  0  0  0  0  0  0  0
   -2.3100    2.5169   -0.4947 H   0  0  0  0  0  0  0  0  0  0  0  0
   -1.9422    1.9521    1.1373 H   0  0  0  0  0  0  0  0  0  0  0  0
   -0.6326    2.2832   -0.0055 H   0  0  0  0  0  0  0  0  0  0  0  0
  1  2  2  3
  1  5  1  0
  1  6  1  0
  2  3  1  0
  2  7  1  0
  3  4  1  0
  3  8  1  0
  3 18  1  0
  4  9  1  0
  4 10  1  0
  4 11  1  0
 12 13  1  0
 12 15  1  0
 12 16  1  0
 12 17  1  0
 13 14  1  0
 13 19  1  0
 14 20  1  0
 14 21  1  0
 14 22  1  0
M  RAD  1  13   2
M  END
>  <reaction>  (4) 
rxn_914

>  <mol_properties>  (4) 
{"1": {"label": "*0", "atom_type": "Cd"}, "2": {"label": "*1", "atom_type": "Cs"}, "11": {"label": "*4", "atom_type": "Cs"}, "12": {"label": "*3", "atom_type": "Cs"}, "17": {"label": "*2", "atom_type": "H0"}}

>  <type>  (4) 
ts

$$$$

     RDKit          3D

 22 20  0  0  0  0  0  0  0  0999 V2000
    2.5139   -0.0495    1.4854 C   0  0  0  0  0  0  0  0  0  0  0  0
    1.2418    0.1037    1.1506 C   0  0  0  0  0  0  0  0  0  0  0  0
    0.4162   -0.8361    0.3234 C   0  0  0  0  0  3  0  0  0  0  0  0
    1.1325   -2.0835   -0.1696 C   0  0  0  0  0  0  0  0  0  0  0  0
    3.0255    0.6889    2.0896 H   0  0  0  0  0  0  0  0  0  0  0  0
    3.0934   -0.9104    1.1736 H   0  0  0  0  0  0  0  0  0  0  0  0
    0.7182    0.9913    1.4967 H   0  0  0  0  0  0  0  0  0  0  0  0
   -0.4632   -1.1234    0.9102 H   0  0  0  0  0  0  0  0  0  0  0  0
    1.4989   -2.6855    0.6642 H   0  0  0  0  0  0  0  0  0  0  0  0
    0.4578   -2.7048   -0.7595 H   0  0  0  0  0  0  0  0  0  0  0  0
    1.9873   -1.8270   -0.7984 H   0  0  0  0  0  0  0  0  0  0  0  0
   -1.6846    0.4763   -2.0744 C   0  0  0  0  0  0  0  0  0  0  0  0
   -1.6846    0.4763   -0.5511 C   0  0  0  0  0  0  0  0  0  0  0  0
   -1.6846    1.8821    0.0357 C   0  0  0  0  0  0  0  0  0  0  0  0
   -0.8031    0.9906   -2.4650 H   0  0  0  0  0  0  0  0  0  0  0  0
   -2.5661    0.9906   -2.4650 H   0  0  0  0  0  0  0  0  0  0  0  0
   -1.6846   -0.5386   -2.4756 H   0  0  0  0  0  0  0  0  0  0  0  0
   -0.6352   -0.1793   -0.1143 H   0  0  0  0  0  0  0  0  0  0  0  0
   -2.5591   -0.0700   -0.1871 H   0  0  0  0  0  0  0  0  0  0  0  0
   -2.5661    2.4407   -0.2885 H   0  0  0  0  0  0  0  0  0  0  0  0
   -1.6846    1.8615    1.1268 H   0  0  0  0  0  0  0  0  0  0  0  0
   -0.8031    2.4407   -0.2885 H   0  0  0  0  0  0  0  0  0  0  0  0
  1  2  2  3
  1  5  1  0
  1  6  1  0
  2  3  1  0
  2  7  1  0
  3  4  1  0
  3  8  1  0
  4  9  1  0
  4 10  1  0
  4 11  1  0
 12 13  1  0
 12 15  1  0
 12 16  1  0
 12 17  1  0
 13 14  1  0
 13 18  1  0
 13 19  1  0
 14 20  1  0
 14 21  1  0
 14 22  1  0
M  RAD  1   3   2
M  END
>  <reaction>  (5) 
rxn_914

>  <mol_properties>  (5) 
{"1": {"label": "*0", "atom_type": "Cd"}, "2": {"label": "*1", "atom_type": "Cs"}, "11": {"label": "*4", "atom_type": "Cs"}, "12": {"label": "*3", "atom_type": "Cs"}, "17": {"label": "*2", "atom_type": "H0"}}

>  <type>  (5) 
unop_1

>  <geom_source>  (5) 
Heuristics

$$$$

     RDKit          3D

 22 20  0  0  0  0  0  0  0  0999 V2000
    2.4859   -1.2727   -0.6230 C   0  0  0  0  0  0  0  0  0  0  0  0
    1.6158   -0.3440   -0.2562 C   0  0  0  0  0  0  0  0  0  0  0  0
    0.5170   -0.4979    0.7527 C   0  0  0  0  0  3  0  0  0  0  0  0
    0.4100   -1.8660    1.4074 C   0  0  0  0  0  0  0  0  0  0  0  0
    3.2470   -1.0636   -1.3640 H   0  0  0  0  0  0  0  0  0  0  0  0
    2.4756   -2.2716   -0.2033 H   0  0  0  0  0  0  0  0  0  0  0  0
    1.6815    0.6385   -0.7169 H   0  0  0  0  0  0  0  0  0  0  0  0
    0.6516    0.2699    1.5225 H   0  0  0  0  0  0  0  0  0  0  0  0
    1.3261   -2.1214    1.9436 H   0  0  0  0  0  0  0  0  0  0  0  0
   -0.4126   -1.8850    2.1232 H   0  0  0  0  0  0  0  0  0  0  0  0
    0.2271   -2.6466    0.6664 H   0  0  0  0  0  0  0  0  0  0  0  0
   -1.5838    0.8145   -1.6451 C   0  0  0  0  0  0  0  0  0  0  0  0
   -1.5838    0.8145   -0.1217 C   0  0  0  0  0  0  0  0  0  0  0  0
   -1.5838    2.2204    0.4650 C   0  0  0  0  0  0  0  0  0  0  0  0
   -0.7024    1.3288   -2.0357 H   0  0  0  0  0  0  0  0  0  0  0  0
   -2.4653    1.3288   -2.0357 H   0  0  0  0  0  0  0  0  0  0  0  0
   -1.5838   -0.2004   -2.0462 H   0  0  0  0  0  0  0  0  0  0  0  0
   -0.5344    0.1589    0.3151 H   0  0  0  0  0  0  0  0  0  0  0  0
   -2.4584    0.2682    0.2423 H   0  0  0  0  0  0  0  0  0  0  0  0
   -2.4653    2.7789    0.1409 H   0  0  0  0  0  0  0  0  0  0  0  0
   -1.5838    2.1997    1.5561 H   0  0  0  0  0  0  0  0  0  0  0  0
   -0.7024    2.7789    0.1409 H   0  0  0  0  0  0  0  0  0  0  0  0
  1  2  2  3
  1  5  1  0
  1  6  1  0
  2  3  1  0
  2  7  1  0
  3  4  1  0
  3  8  1  0
  4  9  1  0
  4 10  1  0
  4 11  1  0
 12 13  1  0
 12 15  1  0
 12 16  1  0
 12 17  1  0
 13 14  1  0
 13 18  1  0
 13 19  1  0
 14 20  1  0
 14 21  1  0
 14 22  1  0
M  RAD  1   3   2
M  END
>  <reaction>  (6) 
rxn_914

>  <mol_properties>  (6) 
{"1": {"label": "*0", "atom_type": "Cd"}, "2": {"label": "*1", "atom_type": "Cs"}, "11": {"label": "*4", "atom_type": "Cs"}, "12": {"label": "*3", "atom_type": "Cs"}, "17": {"label": "*2", "atom_type": "H0"}}

>  <type>  (6) 
unop_2

>  <geom_source>  (6) 
Heuristics

$$$$

     RDKit          3D

 22 20  0  0  0  0  0  0  0  0999 V2000
    2.1009   -0.2300    2.0418 C   0  0  0  0  0  0  0  0  0  0  0  0
    0.8772   -0.2744    1.5375 C   0  0  0  0  0  0  0  0  0  0  0  0
    0.4753   -0.8637    0.2183 C   0  0  0  0  0  3  0  0  0  0  0  0
    1.6027   -1.4649   -0.6060 C   0  0  0  0  0  0  0  0  0  0  0  0
    2.2909    0.2194    3.0083 H   0  0  0  0  0  0  0  0  0  0  0  0
    2.9570   -0.6365    1.5165 H   0  0  0  0  0  0  0  0  0  0  0  0
    0.0621    0.1521    2.1169 H   0  0  0  0  0  0  0  0  0  0  0  0
   -0.2915   -1.6238    0.4043 H   0  0  0  0  0  0  0  0  0  0  0  0
    2.0955   -2.2781   -0.0696 H   0  0  0  0  0  0  0  0  0  0  0  0
    1.2189   -1.8674   -1.5441 H   0  0  0  0  0  0  0  0  0  0  0  0
    2.3595   -0.7162   -0.8477 H   0  0  0  0  0  0  0  0  0  0  0  0
   -1.6255    0.4487   -2.1795 C   0  0  0  0  0  0  0  0  0  0  0  0
   -1.6255    0.4487   -0.6561 C   0  0  0  0  0  0  0  0  0  0  0  0
   -1.6255    1.8545   -0.0694 C   0  0  0  0  0  0  0  0  0  0  0  0
   -0.7441    0.9630   -2.5701 H   0  0  0  0  0  0  0  0  0  0  0  0
   -2.5070    0.9630   -2.5701 H   0  0  0  0  0  0  0  0  0  0  0  0
   -1.6255   -0.5662   -2.5806 H   0  0  0  0  0  0  0  0  0  0  0  0
   -0.5761   -0.2069   -0.2193 H   0  0  0  0  0  0  0  0  0  0  0  0
   -2.5001   -0.0976   -0.2921 H   0  0  0  0  0  0  0  0  0  0  0  0
   -2.5070    2.4131   -0.3935 H   0  0  0  0  0  0  0  0  0  0  0  0
   -1.6255    1.8339    1.0217 H   0  0  0  0  0  0  0  0  0  0  0  0
   -0.7441    2.4131   -0.3935 H   0  0  0  0  0  0  0  0  0  0  0  0
  1  2  2  3
  1  5  1  0
  1  6  1  0
  2  3  1  0
  2  7  1  0
  3  4  1  0
  3  8  1  0
  4  9  1  0
  4 10  1  0
  4 11  1  0
 12 13  1  0
 12 15  1  0
 12 16  1  0
 12 17  1  0
 13 14  1  0
 13 18  1  0
 13 19  1  0
 14 20  1  0
 14 21  1  0
 14 22  1  0
M  RAD  1   3   2
M  END
>  <reaction>  (7) 
rxn_914

>  <mol_properties>  (7) 
{"1": {"label": "*0", "atom_type": "Cd"}, "2": {"label": "*1", "atom_type": "Cs"}, "11": {"label": "*4", "atom_type": "Cs"}, "12": {"label": "*3", "atom_type": "Cs"}, "17": {"label": "*2", "atom_type": "H0"}}

>  <type>  (7) 
unop_3

>  <geom_source>  (7) 
Heuristics

$$$$

     RDKit          3D

 22 20  0  0  0  0  0  0  0  0999 V2000
    0.4859   -2.7367    0.4657 C   0  0  0  0  0  0  0  0  0  0  0  0
    1.0419   -1.7018   -0.1455 C   0  0  0  0  0  0  0  0  0  0  0  0
    1.1220   -0.2963    0.3714 C   0  0  0  0  0  3  0  0  0  0  0  0
    0.4953   -0.0591    1.7363 C   0  0  0  0  0  0  0  0  0  0  0  0
    0.4785   -3.7179    0.0081 H   0  0  0  0  0  0  0  0  0  0  0  0
    0.0190   -2.6496    1.4396 H   0  0  0  0  0  0  0  0  0  0  0  0
    1.4934   -1.8580   -1.1220 H   0  0  0  0  0  0  0  0  0  0  0  0
    2.1768   -0.0013    0.3936 H   0  0  0  0  0  0  0  0  0  0  0  0
    0.9729   -0.6719    2.5034 H   0  0  0  0  0  0  0  0  0  0  0  0
    0.6004    0.9859    2.0299 H   0  0  0  0  0  0  0  0  0  0  0  0
   -0.5695   -0.2997    1.7306 H   0  0  0  0  0  0  0  0  0  0  0  0
   -0.9788    1.0162   -2.0263 C   0  0  0  0  0  0  0  0  0  0  0  0
   -0.9788    1.0162   -0.5030 C   0  0  0  0  0  0  0  0  0  0  0  0
   -0.9788    2.4220    0.0837 C   0  0  0  0  0  0  0  0  0  0  0  0
   -0.0974    1.5305   -2.4170 H   0  0  0  0  0  0  0  0  0  0  0  0
   -1.8603    1.5304   -2.4170 H   0  0  0  0  0  0  0  0  0  0  0  0
   -0.9788    0.0013   -2.4275 H   0  0  0  0  0  0  0  0  0  0  0  0
    0.0706    0.3606   -0.0662 H   0  0  0  0  0  0  0  0  0  0  0  0
   -1.8534    0.4698   -0.1390 H   0  0  0  0  0  0  0  0  0  0  0  0
   -1.8603    2.9806   -0.2404 H   0  0  0  0  0  0  0  0  0  0  0  0
   -0.9788    2.4013    1.1748 H   0  0  0  0  0  0  0  0  0  0  0  0
   -0.0974    2.9806   -0.2404 H   0  0  0  0  0  0  0  0  0  0  0  0
  1  2  2  3
  1  5  1  0
  1  6  1  0
  2  3  1  0
  2  7  1  0
  3  4  1  0
  3  8  1  0
  4  9  1  0
  4 10  1  0
  4 11  1  0
 12 13  1  0
 12 15  1  0
 12 16  1  0
 12 17  1  0
 13 14  1  0
 13 18  1  0
 13 19  1  0
 14 20  1  0
 14 21  1  0
 14 22  1  0
M  RAD  1   3   2
M  END
>  <reaction>  (8) 
rxn_914

>  <mol_properties>  (8) 
{"1": {"label": "*0", "atom_type": "Cd"}, "2": {"label": "*1", "atom_type": "Cs"}, "11": {"label": "*4", "atom_type": "Cs"}, "12": {"label": "*3", "atom_type": "Cs"}, "17": {"label": "*2", "atom_type": "H0"}}

>  <type>  (8) 
unop_4

>  <geom_source>  (8) 
Heuristics

$$$$

     RDKit          3D

 22 20  0  0  0  0  0  0  0  0999 V2000
    1.5292   -0.4723    2.4036 C   0  0  0  0  0  0  0  0  0  0  0  0
    0.5779   -0.9251    1.6012 C   0  0  0  0  0  0  0  0  0  0  0  0
    0.6076   -0.9437    0.1019 C   0  0  0  0  0  3  0  0  0  0  0  0
    1.8661   -0.3811   -0.5395 C   0  0  0  0  0  0  0  0  0  0  0  0
    1.4136   -0.5022    3.4797 H   0  0  0  0  0  0  0  0  0  0  0  0
    2.4551   -0.0564    2.0243 H   0  0  0  0  0  0  0  0  0  0  0  0
   -0.3270   -1.3300    2.0473 H   0  0  0  0  0  0  0  0  0  0  0  0
    0.4553   -1.9769   -0.2289 H   0  0  0  0  0  0  0  0  0  0  0  0
    2.7519   -0.9396   -0.2306 H   0  0  0  0  0  0  0  0  0  0  0  0
    1.7991   -0.4350   -1.6267 H   0  0  0  0  0  0  0  0  0  0  0  0
    2.0172    0.6648   -0.2650 H   0  0  0  0  0  0  0  0  0  0  0  0
   -1.4932    0.3688   -2.2958 C   0  0  0  0  0  0  0  0  0  0  0  0
   -1.4932    0.3688   -0.7725 C   0  0  0  0  0  0  0  0  0  0  0  0
   -1.4932    1.7746   -0.1858 C   0  0  0  0  0  0  0  0  0  0  0  0
   -0.6118    0.8830   -2.6865 H   0  0  0  0  0  0  0  0  0  0  0  0
   -2.3747    0.8830   -2.6865 H   0  0  0  0  0  0  0  0  0  0  0  0
   -1.4932   -0.6461   -2.6970 H   0  0  0  0  0  0  0  0  0  0  0  0
   -0.4438   -0.2868   -0.3357 H   0  0  0  0  0  0  0  0  0  0  0  0
   -2.3677   -0.1776   -0.4085 H   0  0  0  0  0  0  0  0  0  0  0  0
   -2.3747    2.3332   -0.5099 H   0  0  0  0  0  0  0  0  0  0  0  0
   -1.4932    1.7539    0.9053 H   0  0  0  0  0  0  0  0  0  0  0  0
   -0.6117    2.3332   -0.5099 H   0  0  0  0  0  0  0  0  0  0  0  0
  1  2  2  3
  1  5  1  0
  1  6  1  0
  2  3  1  0
  2  7  1  0
  3  4  1  0
  3  8  1  0
  4  9  1  0
  4 10  1  0
  4 11  1  0
 12 13  1  0
 12 15  1  0
 12 16  1  0
 12 17  1  0
 13 14  1  0
 13 18  1  0
 13 19  1  0
 14 20  1  0
 14 21  1  0
 14 22  1  0
M  RAD  1   3   2
M  END
>  <reaction>  (9) 
rxn_914

>  <mol_properties>  (9) 
{"1": {"label": "*0", "atom_type": "Cd"}, "2": {"label": "*1", "atom_type": "Cs"}, "11": {"label": "*4", "atom_type": "Cs"}, "12": {"label": "*3", "atom_type": "Cs"}, "17": {"label": "*2", "atom_type": "H0"}}

>  <type>  (9) 
unop_5

>  <geom_source>  (9) 
Heuristics

$$$$

     RDKit          3D

 22 20  0  0  0  0  0  0  0  0999 V2000
    0.1916   -2.4503    1.3577 C   0  0  0  0  0  0  0  0  0  0  0  0
    0.7823   -1.8992    0.3083 C   0  0  0  0  0  0  0  0  0  0  0  0
    1.1648   -0.4574    0.1532 C   0  0  0  0  0  3  0  0  0  0  0  0
    0.8313    0.4436    1.3316 C   0  0  0  0  0  0  0  0  0  0  0  0
   -0.0453   -3.5065    1.3748 H   0  0  0  0  0  0  0  0  0  0  0  0
   -0.0781   -1.8760    2.2361 H   0  0  0  0  0  0  0  0  0  0  0  0
    1.0262   -2.5326   -0.5410 H   0  0  0  0  0  0  0  0  0  0  0  0
    2.2396   -0.4107   -0.0542 H   0  0  0  0  0  0  0  0  0  0  0  0
    1.3374    0.1113    2.2401 H   0  0  0  0  0  0  0  0  0  0  0  0
    1.1440    1.4688    1.1307 H   0  0  0  0  0  0  0  0  0  0  0  0
   -0.2420    0.4540    1.5310 H   0  0  0  0  0  0  0  0  0  0  0  0
   -0.9360    0.8550   -2.2446 C   0  0  0  0  0  0  0  0  0  0  0  0
   -0.9360    0.8550   -0.7212 C   0  0  0  0  0  0  0  0  0  0  0  0
   -0.9360    2.2608   -0.1345 C   0  0  0  0  0  0  0  0  0  0  0  0
   -0.0545    1.3693   -2.6352 H   0  0  0  0  0  0  0  0  0  0  0  0
   -1.8174    1.3693   -2.6352 H   0  0  0  0  0  0  0  0  0  0  0  0
   -0.9360   -0.1599   -2.6457 H   0  0  0  0  0  0  0  0  0  0  0  0
    0.1135    0.1994   -0.2844 H   0  0  0  0  0  0  0  0  0  0  0  0
   -1.8105    0.3086   -0.3572 H   0  0  0  0  0  0  0  0  0  0  0  0
   -1.8174    2.8194   -0.4587 H   0  0  0  0  0  0  0  0  0  0  0  0
   -0.9360    2.2401    0.9566 H   0  0  0  0  0  0  0  0  0  0  0  0
   -0.0545    2.8194   -0.4587 H   0  0  0  0  0  0  0  0  0  0  0  0
  1  2  2  3
  1  5  1  0
  1  6  1  0
  2  3  1  0
  2  7  1  0
  3  4  1  0
  3  8  1  0
  4  9  1  0
  4 10  1  0
  4 11  1  0
 12 13  1  0
 12 15  1  0
 12 16  1  0
 12 17  1  0
 13 14  1  0
 13 18  1  0
 13 19  1  0
 14 20  1  0
 14 21  1  0
 14 22  1  0
M  RAD  1   3   2
M  END
>  <reaction>  (10) 
rxn_914

>  <mol_properties>  (10) 
{"1": {"label": "*0", "atom_type": "Cd"}, "2": {"label": "*1", "atom_type": "Cs"}, "11": {"label": "*4", "atom_type": "Cs"}, "12": {"label": "*3", "atom_type": "Cs"}, "17": {"label": "*2", "atom_type": "H0"}}

>  <type>  (10) 
unop_6

>  <geom_source>  (10) 
Heuristics

$$$$

     RDKit          3D

 22 20  0  0  0  0  0  0  0  0999 V2000
    0.2804   -1.8093    2.1172 C   0  0  0  0  0  0  0  0  0  0  0  0
    0.5998   -1.8386    0.8323 C   0  0  0  0  0  0  0  0  0  0  0  0
    1.0823   -0.6845    0.0050 C   0  0  0  0  0  3  0  0  0  0  0  0
    1.2100    0.6427    0.7360 C   0  0  0  0  0  0  0  0  0  0  0  0
   -0.0599   -2.7007    2.6287 H   0  0  0  0  0  0  0  0  0  0  0  0
    0.3444   -0.9030    2.7076 H   0  0  0  0  0  0  0  0  0  0  0  0
    0.5129   -2.7814    0.2981 H   0  0  0  0  0  0  0  0  0  0  0  0
    2.0486   -0.9593   -0.4320 H   0  0  0  0  0  0  0  0  0  0  0  0
    1.9167    0.5719    1.5651 H   0  0  0  0  0  0  0  0  0  0  0  0
    1.5655    1.4203    0.0591 H   0  0  0  0  0  0  0  0  0  0  0  0
    0.2492    0.9656    1.1416 H   0  0  0  0  0  0  0  0  0  0  0  0
   -1.0185    0.6280   -2.3927 C   0  0  0  0  0  0  0  0  0  0  0  0
   -1.0185    0.6280   -0.8694 C   0  0  0  0  0  0  0  0  0  0  0  0
   -1.0185    2.0338   -0.2826 C   0  0  0  0  0  0  0  0  0  0  0  0
   -0.1370    1.1422   -2.7833 H   0  0  0  0  0  0  0  0  0  0  0  0
   -1.8999    1.1422   -2.7833 H   0  0  0  0  0  0  0  0  0  0  0  0
   -1.0185   -0.3869   -2.7939 H   0  0  0  0  0  0  0  0  0  0  0  0
    0.0310   -0.0277   -0.4326 H   0  0  0  0  0  0  0  0  0  0  0  0
   -1.8930    0.0816   -0.5054 H   0  0  0  0  0  0  0  0  0  0  0  0
   -1.8999    2.5923   -0.6068 H   0  0  0  0  0  0  0  0  0  0  0  0
   -1.0185    2.0131    0.8085 H   0  0  0  0  0  0  0  0  0  0  0  0
   -0.1370    2.5923   -0.6068 H   0  0  0  0  0  0  0  0  0  0  0  0
  1  2  2  3
  1  5  1  0
  1  6  1  0
  2  3  1  0
  2  7  1  0
  3  4  1  0
  3  8  1  0
  4  9  1  0
  4 10  1  0
  4 11  1  0
 12 13  1  0
 12 15  1  0
 12 16  1  0
 12 17  1  0
 13 14  1  0
 13 18  1  0
 13 19  1  0
 14 20  1  0
 14 21  1  0
 14 22  1  0
M  RAD  1   3   2
M  END
>  <reaction>  (11) 
rxn_914

>  <mol_properties>  (11) 
{"1": {"label": "*0", "atom_type": "Cd"}, "2": {"label": "*1", "atom_type": "Cs"}, "11": {"label": "*4", "atom_type": "Cs"}, "12": {"label": "*3", "atom_type": "Cs"}, "17": {"label": "*2", "atom_type": "H0"}}

>  <type>  (11) 
unop_7

>  <geom_source>  (11) 
Heuristics

$$$$

     RDKit          3D

 22 20  0  0  0  0  0  0  0  0999 V2000
    2.7942   -0.1120    0.7217 C   0  0  0  0  0  0  0  0  0  0  0  0
    1.5057    0.1795    0.6288 C   0  0  0  0  0  0  0  0  0  0  0  0
    0.3777   -0.7965    0.4736 C   0  0  0  0  0  3  0  0  0  0  0  0
    0.7772   -2.2626    0.4199 C   0  0  0  0  0  0  0  0  0  0  0  0
    3.5370    0.6679    0.8320 H   0  0  0  0  0  0  0  0  0  0  0  0
    3.1591   -1.1319    0.6918 H   0  0  0  0  0  0  0  0  0  0  0  0
    1.2068    1.2241    0.6658 H   0  0  0  0  0  0  0  0  0  0  0  0
   -0.3269   -0.6362    1.2970 H   0  0  0  0  0  0  0  0  0  0  0  0
    1.2927   -2.5665    1.3331 H   0  0  0  0  0  0  0  0  0  0  0  0
   -0.1033   -2.8958    0.3066 H   0  0  0  0  0  0  0  0  0  0  0  0
    1.4430   -2.4612   -0.4222 H   0  0  0  0  0  0  0  0  0  0  0  0
   -1.7231    0.5159   -1.9241 C   0  0  0  0  0  0  0  0  0  0  0  0
   -1.7231    0.5159   -0.4008 C   0  0  0  0  0  0  0  0  0  0  0  0
   -1.7231    1.9217    0.1859 C   0  0  0  0  0  0  0  0  0  0  0  0
   -0.8416    1.0302   -2.3147 H   0  0  0  0  0  0  0  0  0  0  0  0
   -2.6045    1.0302   -2.3147 H   0  0  0  0  0  0  0  0  0  0  0  0
   -1.7231   -0.4990   -2.3253 H   0  0  0  0  0  0  0  0  0  0  0  0
   -0.6736   -0.1397    0.0360 H   0  0  0  0  0  0  0  0  0  0  0  0
   -2.5976   -0.0304   -0.0368 H   0  0  0  0  0  0  0  0  0  0  0  0
   -2.6045    2.4803   -0.1382 H   0  0  0  0  0  0  0  0  0  0  0  0
   -1.7231    1.9011    1.2770 H   0  0  0  0  0  0  0  0  0  0  0  0
   -0.8416    2.4803   -0.1382 H   0  0  0  0  0  0  0  0  0  0  0  0
  1  2  2  3
  1  5  1  0
  1  6  1  0
  2  3  1  0
  2  7  1  0
  3  4  1  0
  3  8  1  0
  4  9  1  0
  4 10  1  0
  4 11  1  0
 12 13  1  0
 12 15  1  0
 12 16  1  0
 12 17  1  0
 13 14  1  0
 13 18  1  0
 13 19  1  0
 14 20  1  0
 14 21  1  0
 14 22  1  0
M  RAD  1   3   2
M  END
>  <reaction>  (12) 
rxn_914

>  <mol_properties>  (12) 
{"1": {"label": "*0", "atom_type": "Cd"}, "2": {"label": "*1", "atom_type": "Cs"}, "11": {"label": "*4", "atom_type": "Cs"}, "12": {"label": "*3", "atom_type": "Cs"}, "17": {"label": "*2", "atom_type": "H0"}}

>  <type>  (12) 
unop_8

>  <geom_source>  (12) 
Heuristics

$$$$

     RDKit          3D

 22 20  0  0  0  0  0  0  0  0999 V2000
    1.0860   -2.5986   -0.3047 C   0  0  0  0  0  0  0  0  0  0  0  0
    1.3079   -1.2978   -0.4166 C   0  0  0  0  0  0  0  0  0  0  0  0
    0.9643   -0.2427    0.5923 C   0  0  0  0  0  3  0  0  0  0  0  0
    0.2946   -0.7396    1.8637 C   0  0  0  0  0  0  0  0  0  0  0  0
    1.3722   -3.2840   -1.0924 H   0  0  0  0  0  0  0  0  0  0  0  0
    0.6138   -3.0307    0.5696 H   0  0  0  0  0  0  0  0  0  0  0  0
    1.7861   -0.9296   -1.3209 H   0  0  0  0  0  0  0  0  0  0  0  0
    1.8829    0.2976    0.8462 H   0  0  0  0  0  0  0  0  0  0  0  0
    0.9329   -1.4464    2.3975 H   0  0  0  0  0  0  0  0  0  0  0  0
    0.0826    0.0928    2.5356 H   0  0  0  0  0  0  0  0  0  0  0  0
   -0.6498   -1.2413    1.6440 H   0  0  0  0  0  0  0  0  0  0  0  0
   -1.1365    1.0697   -1.8054 C   0  0  0  0  0  0  0  0  0  0  0  0
   -1.1365    1.0697   -0.2821 C   0  0  0  0  0  0  0  0  0  0  0  0
   -1.1365    2.4755    0.3046 C   0  0  0  0  0  0  0  0  0  0  0  0
   -0.2551    1.5840   -2.1961 H   0  0  0  0  0  0  0  0  0  0  0  0
   -2.0180    1.5840   -2.1961 H   0  0  0  0  0  0  0  0  0  0  0  0
   -1.1365    0.0548   -2.2066 H   0  0  0  0  0  0  0  0  0  0  0  0
   -0.0871    0.4141    0.1547 H   0  0  0  0  0  0  0  0  0  0  0  0
   -2.0111    0.5233    0.0819 H   0  0  0  0  0  0  0  0  0  0  0  0
   -2.0180    3.0341   -0.0195 H   0  0  0  0  0  0  0  0  0  0  0  0
   -1.1365    2.4548    1.3957 H   0  0  0  0  0  0  0  0  0  0  0  0
   -0.2551    3.0341   -0.0195 H   0  0  0  0  0  0  0  0  0  0  0  0
  1  2  2  3
  1  5  1  0
  1  6  1  0
  2  3  1  0
  2  7  1  0
  3  4  1  0
  3  8  1  0
  4  9  1  0
  4 10  1  0
  4 11  1  0
 12 13  1  0
 12 15  1  0
 12 16  1  0
 12 17  1  0
 13 14  1  0
 13 18  1  0
 13 19  1  0
 14 20  1  0
 14 21  1  0
 14 22  1  0
M  RAD  1   3   2
M  END
>  <reaction>  (13) 
rxn_914

>  <mol_properties>  (13) 
{"1": {"label": "*0", "atom_type": "Cd"}, "2": {"label": "*1", "atom_type": "Cs"}, "11": {"label": "*4", "atom_type": "Cs"}, "12": {"label": "*3", "atom_type": "Cs"}, "17": {"label": "*2", "atom_type": "H0"}}

>  <type>  (13) 
unop_9

>  <geom_source>  (13) 
Heuristics

$$$$

     RDKit          3D

 22 20  0  0  0  0  0  0  0  0999 V2000
    2.8160   -0.5420   -0.0684 C   0  0  0  0  0  0  0  0  0  0  0  0
    1.6259    0.0064    0.1236 C   0  0  0  0  0  0  0  0  0  0  0  0
    0.3979   -0.6820    0.6405 C   0  0  0  0  0  3  0  0  0  0  0  0
    0.5589   -2.1575    0.9707 C   0  0  0  0  0  0  0  0  0  0  0  0
    3.6453    0.0415   -0.4477 H   0  0  0  0  0  0  0  0  0  0  0  0
    3.0112   -1.5867    0.1427 H   0  0  0  0  0  0  0  0  0  0  0  0
    1.4975    1.0606   -0.1086 H   0  0  0  0  0  0  0  0  0  0  0  0
    0.0525   -0.1410    1.5283 H   0  0  0  0  0  0  0  0  0  0  0  0
    1.3165   -2.3105    1.7417 H   0  0  0  0  0  0  0  0  0  0  0  0
   -0.3803   -2.5727    1.3378 H   0  0  0  0  0  0  0  0  0  0  0  0
    0.8566   -2.7303    0.0903 H   0  0  0  0  0  0  0  0  0  0  0  0
   -1.7029    0.6304   -1.7572 C   0  0  0  0  0  0  0  0  0  0  0  0
   -1.7029    0.6304   -0.2339 C   0  0  0  0  0  0  0  0  0  0  0  0
   -1.7029    2.0362    0.3528 C   0  0  0  0  0  0  0  0  0  0  0  0
   -0.8215    1.1447   -2.1478 H   0  0  0  0  0  0  0  0  0  0  0  0
   -2.5844    1.1447   -2.1478 H   0  0  0  0  0  0  0  0  0  0  0  0
   -1.7029   -0.3845   -2.1584 H   0  0  0  0  0  0  0  0  0  0  0  0
   -0.6535   -0.0252    0.2029 H   0  0  0  0  0  0  0  0  0  0  0  0
   -2.5775    0.0841    0.1301 H   0  0  0  0  0  0  0  0  0  0  0  0
   -2.5844    2.5948    0.0287 H   0  0  0  0  0  0  0  0  0  0  0  0
   -1.7029    2.0155    1.4439 H   0  0  0  0  0  0  0  0  0  0  0  0
   -0.8215    2.5948    0.0287 H   0  0  0  0  0  0  0  0  0  0  0  0
  1  2  2  3
  1  5  1  0
  1  6  1  0
  2  3  1  0
  2  7  1  0
  3  4  1  0
  3  8  1  0
  4  9  1  0
  4 10  1  0
  4 11  1  0
 12 13  1  0
 12 15  1  0
 12 16  1  0
 12 17  1  0
 13 14  1  0
 13 18  1  0
 13 19  1  0
 14 20  1  0
 14 21  1  0
 14 22  1  0
M  RAD  1   3   2
M  END
>  <reaction>  (14) 
rxn_914

>  <mol_properties>  (14) 
{"1": {"label": "*0", "atom_type": "Cd"}, "2": {"label": "*1", "atom_type": "Cs"}, "11": {"label": "*4", "atom_type": "Cs"}, "12": {"label": "*3", "atom_type": "Cs"}, "17": {"label": "*2", "atom_type": "H0"}}

>  <type>  (14) 
unop_10

>  <geom_source>  (14) 
Heuristics

$$$$

     RDKit          3D

 22 20  0  0  0  0  0  0  0  0999 V2000
    0.7778   -1.0189    2.5043 C   0  0  0  0  0  0  0  0  0  0  0  0
    0.5195   -1.5164    1.3045 C   0  0  0  0  0  0  0  0  0  0  0  0
    0.8729   -0.8968   -0.0147 C   0  0  0  0  0  3  0  0  0  0  0  0
    1.6005    0.4363    0.0569 C   0  0  0  0  0  0  0  0  0  0  0  0
    0.4806   -1.5444    3.4029 H   0  0  0  0  0  0  0  0  0  0  0  0
    1.2921   -0.0747    2.6394 H   0  0  0  0  0  0  0  0  0  0  0  0
   -0.0003   -2.4691    1.2395 H   0  0  0  0  0  0  0  0  0  0  0  0
    1.4767   -1.6167   -0.5781 H   0  0  0  0  0  0  0  0  0  0  0  0
    2.5486    0.3421    0.5899 H   0  0  0  0  0  0  0  0  0  0  0  0
    1.8158    0.8097   -0.9448 H   0  0  0  0  0  0  0  0  0  0  0  0
    0.9999    1.1883    0.5725 H   0  0  0  0  0  0  0  0  0  0  0  0
   -1.2279    0.4156   -2.4125 C   0  0  0  0  0  0  0  0  0  0  0  0
   -1.2279    0.4156   -0.8891 C   0  0  0  0  0  0  0  0  0  0  0  0
   -1.2279    1.8214   -0.3024 C   0  0  0  0  0  0  0  0  0  0  0  0
   -0.3465    0.9299   -2.8031 H   0  0  0  0  0  0  0  0  0  0  0  0
   -2.1094    0.9299   -2.8031 H   0  0  0  0  0  0  0  0  0  0  0  0
   -1.2279   -0.5993   -2.8136 H   0  0  0  0  0  0  0  0  0  0  0  0
   -0.1785   -0.2400   -0.4523 H   0  0  0  0  0  0  0  0  0  0  0  0
   -2.1025   -0.1307   -0.5251 H   0  0  0  0  0  0  0  0  0  0  0  0
   -2.1094    2.3800   -0.6266 H   0  0  0  0  0  0  0  0  0  0  0  0
   -1.2279    1.8007    0.7887 H   0  0  0  0  0  0  0  0  0  0  0  0
   -0.3465    2.3800   -0.6266 H   0  0  0  0  0  0  0  0  0  0  0  0
  1  2  2  3
  1  5  1  0
  1  6  1  0
  2  3  1  0
  2  7  1  0
  3  4  1  0
  3  8  1  0
  4  9  1  0
  4 10  1  0
  4 11  1  0
 12 13  1  0
 12 15  1  0
 12 16  1  0
 12 17  1  0
 13 14  1  0
 13 18  1  0
 13 19  1  0
 14 20  1  0
 14 21  1  0
 14 22  1  0
M  RAD  1   3   2
M  END
>  <reaction>  (15) 
rxn_914

>  <mol_properties>  (15) 
{"1": {"label": "*0", "atom_type": "Cd"}, "2": {"label": "*1", "atom_type": "Cs"}, "11": {"label": "*4", "atom_type": "Cs"}, "12": {"label": "*3", "atom_type": "Cs"}, "17": {"label": "*2", "atom_type": "H0"}}

>  <type>  (15) 
unop_11

>  <geom_source>  (15) 
Heuristics

$$$$

     RDKit          3D

 22 20  0  0  0  0  0  0  0  0999 V2000
    1.8380   -2.0578   -0.7180 C   0  0  0  0  0  0  0  0  0  0  0  0
    1.5071   -0.8040   -0.4492 C   0  0  0  0  0  0  0  0  0  0  0  0
    0.7319   -0.3197    0.7398 C   0  0  0  0  0  3  0  0  0  0  0  0
    0.2921   -1.3938    1.7220 C   0  0  0  0  0  0  0  0  0  0  0  0
    2.4025   -2.3083   -1.6072 H   0  0  0  0  0  0  0  0  0  0  0  0
    1.5621   -2.8798   -0.0681 H   0  0  0  0  0  0  0  0  0  0  0  0
    1.8155   -0.0264   -1.1436 H   0  0  0  0  0  0  0  0  0  0  0  0
    1.3390    0.4294    1.2599 H   0  0  0  0  0  0  0  0  0  0  0  0
    1.1502   -1.9247    2.1389 H   0  0  0  0  0  0  0  0  0  0  0  0
   -0.2622   -0.9516    2.5505 H   0  0  0  0  0  0  0  0  0  0  0  0
   -0.3553   -2.1295    1.2409 H   0  0  0  0  0  0  0  0  0  0  0  0
   -1.3689    0.9927   -1.6580 C   0  0  0  0  0  0  0  0  0  0  0  0
   -1.3689    0.9927   -0.1346 C   0  0  0  0  0  0  0  0  0  0  0  0
   -1.3689    2.3986    0.4521 C   0  0  0  0  0  0  0  0  0  0  0  0
   -0.4874    1.5070   -2.0486 H   0  0  0  0  0  0  0  0  0  0  0  0
   -2.2503    1.5070   -2.0486 H   0  0  0  0  0  0  0  0  0  0  0  0
   -1.3689   -0.0222   -2.0591 H   0  0  0  0  0  0  0  0  0  0  0  0
   -0.3194    0.3371    0.3022 H   0  0  0  0  0  0  0  0  0  0  0  0
   -2.2434    0.4464    0.2294 H   0  0  0  0  0  0  0  0  0  0  0  0
   -2.2503    2.9571    0.1280 H   0  0  0  0  0  0  0  0  0  0  0  0
   -1.3689    2.3779    1.5432 H   0  0  0  0  0  0  0  0  0  0  0  0
   -0.4874    2.9571    0.1280 H   0  0  0  0  0  0  0  0  0  0  0  0
  1  2  2  3
  1  5  1  0
  1  6  1  0
  2  3  1  0
  2  7  1  0
  3  4  1  0
  3  8  1  0
  4  9  1  0
  4 10  1  0
  4 11  1  0
 12 13  1  0
 12 15  1  0
 12 16  1  0
 12 17  1  0
 13 14  1  0
 13 18  1  0
 13 19  1  0
 14 20  1  0
 14 21  1  0
 14 22  1  0
M  RAD  1   3   2
M  END
>  <reaction>  (16) 
rxn_914

>  <mol_properties>  (16) 
{"1": {"label": "*0", "atom_type": "Cd"}, "2": {"label": "*1", "atom_type": "Cs"}, "11": {"label": "*4", "atom_type": "Cs"}, "12": {"label": "*3", "atom_type": "Cs"}, "17": {"label": "*2", "atom_type": "H0"}}

>  <type>  (16) 
unop_12

>  <geom_source>  (16) 
Heuristics

$$$$

     RDKit          3D

 22 20  0  0  0  0  0  0  0  0999 V2000
   -0.9198   -0.0191   -0.5833 C   0  0  0  0  0  3  0  0  0  0  0  0
   -1.7552   -1.0732   -1.3019 C   0  0  0  0  0  0  0  0  0  0  0  0
    2.2140    0.7304   -0.6659 C   0  0  0  0  0  0  0  0  0  0  0  0
    1.8990   -0.4843    1.5208 C   0  0  0  0  0  0  0  0  0  0  0  0
    1.5879   -0.4722    0.0293 C   0  0  0  0  0  0  0  0  0  0  0  0
   -1.5898    0.4470    0.6784 C   0  0  0  0  0  0  0  0  0  0  0  0
   -2.6886    1.2071    0.6536 C   0  0  0  0  0  0  0  0  0  0  0  0
   -0.7374    0.8451   -1.2582 H   0  0  0  0  0  0  0  0  0  0  0  0
    0.3290   -0.5893   -0.2494 H   0  0  0  0  0  0  0  0  0  0  0  0
   -2.7286   -0.6473   -1.6254 H   0  0  0  0  0  0  0  0  0  0  0  0
   -1.2067   -1.4270   -2.1996 H   0  0  0  0  0  0  0  0  0  0  0  0
   -1.9359   -1.9403   -0.6316 H   0  0  0  0  0  0  0  0  0  0  0  0
    3.3201    0.7021   -0.5663 H   0  0  0  0  0  0  0  0  0  0  0  0
    1.8261    1.6724   -0.2240 H   0  0  0  0  0  0  0  0  0  0  0  0
    1.9499    0.7096   -1.7437 H   0  0  0  0  0  0  0  0  0  0  0  0
    1.4120   -1.3644    1.9898 H   0  0  0  0  0  0  0  0  0  0  0  0
    2.9955   -0.5494    1.6867 H   0  0  0  0  0  0  0  0  0  0  0  0
    1.5056    0.4364    2.0010 H   0  0  0  0  0  0  0  0  0  0  0  0
    1.9519   -1.4114   -0.4400 H   0  0  0  0  0  0  0  0  0  0  0  0
   -1.1476    0.1835    1.6340 H   0  0  0  0  0  0  0  0  0  0  0  0
   -3.1415    1.5048   -0.2872 H   0  0  0  0  0  0  0  0  0  0  0  0
   -3.1396    1.5396    1.5828 H   0  0  0  0  0  0  0  0  0  0  0  0
  1  2  1  0
  1  6  1  0
  1  8  1  0
  2 10  1  0
  2 11  1  0
  2 12  1  0
  3  5  1  0
  3 13  1  0
  3 14  1  0
  3 15  1  0
  4  5  1  0
  4 16  1  0
  4 17  1  0
  4 18  1  0
  5  9  1  0
  5 19  1  0
  6  7  2  3
  6 20  1  0
  7 21  1  0
  7 22  1  0
M  RAD  1   1   2
M  END
>  <reaction>  (17) 
rxn_914

>  <mol_properties>  (17) 
{"1": {"label": "*0", "atom_type": "Cd"}, "2": {"label": "*1", "atom_type": "Cs"}, "11": {"label": "*4", "atom_type": "Cs"}, "12": {"label": "*3", "atom_type": "Cs"}, "17": {"label": "*2", "atom_type": "H0"}}

>  <type>  (17) 
unop_13

>  <geom_source>  (17) 
AutoTST

$$$$

     RDKit          3D

 22 20  0  0  0  0  0  0  0  0999 V2000
    2.4859   -1.2727   -0.6230 C   0  0  0  0  0  0  0  0  0  0  0  0
    1.6158   -0.3440   -0.2562 C   0  0  0  0  0  0  0  0  0  0  0  0
    0.5170   -0.4979    0.7527 C   0  0  0  0  0  3  0  0  0  0  0  0
    0.4100   -1.8660    1.4074 C   0  0  0  0  0  0  0  0  0  0  0  0
    3.2470   -1.0636   -1.3640 H   0  0  0  0  0  0  0  0  0  0  0  0
    2.4756   -2.2716   -0.2033 H   0  0  0  0  0  0  0  0  0  0  0  0
    1.6815    0.6385   -0.7169 H   0  0  0  0  0  0  0  0  0  0  0  0
    0.6516    0.2699    1.5225 H   0  0  0  0  0  0  0  0  0  0  0  0
    1.3261   -2.1214    1.9436 H   0  0  0  0  0  0  0  0  0  0  0  0
   -0.4126   -1.8850    2.1231 H   0  0  0  0  0  0  0  0  0  0  0  0
    0.2271   -2.6466    0.6664 H   0  0  0  0  0  0  0  0  0  0  0  0
   -1.5838    0.8145   -1.6451 C   0  0  0  0  0  0  0  0  0  0  0  0
   -1.5838    0.8145   -0.1217 C   0  0  0  0  0  0  0  0  0  0  0  0
   -1.5838    2.2203    0.4650 C   0  0  0  0  0  0  0  0  0  0  0  0
   -0.7024    1.3288   -2.0357 H   0  0  0  0  0  0  0  0  0  0  0  0
   -2.4653    1.3288   -2.0357 H   0  0  0  0  0  0  0  0  0  0  0  0
   -1.5838   -0.2004   -2.0462 H   0  0  0  0  0  0  0  0  0  0  0  0
   -0.5344    0.1589    0.3151 H   0  0  0  0  0  0  0  0  0  0  0  0
   -2.4584    0.2682    0.2423 H   0  0  0  0  0  0  0  0  0  0  0  0
   -2.4653    2.7789    0.1409 H   0  0  0  0  0  0  0  0  0  0  0  0
   -1.5838    2.1997    1.5561 H   0  0  0  0  0  0  0  0  0  0  0  0
   -0.7024    2.7789    0.1409 H   0  0  0  0  0  0  0  0  0  0  0  0
  1  2  2  3
  1  5  1  0
  1  6  1  0
  2  3  1  0
  2  7  1  0
  3  4  1  0
  3  8  1  0
  4  9  1  0
  4 10  1  0
  4 11  1  0
 12 13  1  0
 12 15  1  0
 12 16  1  0
 12 17  1  0
 13 14  1  0
 13 18  1  0
 13 19  1  0
 14 20  1  0
 14 21  1  0
 14 22  1  0
M  RAD  1   3   2
M  END
>  <reaction>  (18) 
rxn_914

>  <mol_properties>  (18) 
{"1": {"label": "*0", "atom_type": "Cd"}, "2": {"label": "*1", "atom_type": "Cs"}, "11": {"label": "*4", "atom_type": "Cs"}, "12": {"label": "*3", "atom_type": "Cs"}, "17": {"label": "*2", "atom_type": "H0"}}

>  <type>  (18) 
unop_14

>  <geom_source>  (18) 
gaussian_log

$$$$
