
     RDKit          3D

  9  8  0  0  0  0  0  0  0  0999 V2000
   -0.8818   -0.3578    0.1297 C   0  0  0  0  0  0  0  0  0  0  0  0
    0.6153   -0.3021   -0.1188 C   0  0  0  0  0  0  0  0  0  0  0  0
    1.5354   -1.7170    0.5545 S   0  0  0  0  0  0  0  0  0  0  0  0
   -1.1018   -0.3317    1.1984 H   0  0  0  0  0  0  0  0  0  0  0  0
   -1.3114   -1.2723   -0.2799 H   0  0  0  0  0  0  0  0  0  0  0  0
   -1.3767    0.4976   -0.3363 H   0  0  0  0  0  0  0  0  0  0  0  0
    1.0467    0.6194    0.2718 H   0  0  0  0  0  0  0  0  0  0  0  0
    0.8295   -0.3275   -1.1882 H   0  0  0  0  0  0  0  0  0  0  0  0
    1.2306   -1.5077    1.8423 H   0  0  0  0  0  0  0  0  0  0  0  0
  1  2  1  0
  1  4  1  0
  1  5  1  0
  1  6  1  0
  2  3  1  0
  2  7  1  0
  2  8  1  0
  3  9  1  0
M  END
>  <reaction>  (1) 
rxn_1886

>  <mol_properties>  (1) 
{"1": {"label": "donator", "atom_type": "Cs"}, "6": {"label": "d_hydrogen", "atom_type": "H0"}}

>  <type>  (1) 
r1h

$$$$

     RDKit          3D

  5  4  0  0  0  0  0  0  0  0999 V2000
   -0.5642    0.0794    0.0348 C   0  0  0  0  0  3  0  0  0  0  0  0
    1.0624    0.5420    0.2853 S   0  0  0  0  0  0  0  0  0  0  0  0
   -1.3257    0.7631    0.3741 H   0  0  0  0  0  0  0  0  0  0  0  0
   -0.8236   -0.8519   -0.4401 H   0  0  0  0  0  0  0  0  0  0  0  0
    1.6511   -0.5325   -0.2540 H   0  0  0  0  0  0  0  0  0  0  0  0
  1  2  1  0
  1  3  1  0
  1  4  1  0
  2  5  1  0
M  RAD  1   1   2
M  END
>  <reaction>  (2) 
rxn_1886

>  <mol_properties>  (2) 
{"0": {"label": "acceptor", "atom_type": "Cs"}}

>  <type>  (2) 
r2

$$$$

     RDKit          3D

  6  5  0  0  0  0  0  0  0  0999 V2000
   -0.5072   -0.0291   -0.0097 C   0  0  0  0  0  0  0  0  0  0  0  0
    1.1321   -0.1527   -0.7687 S   0  0  0  0  0  0  0  0  0  0  0  0
   -0.6174   -0.7330    0.8127 H   0  0  0  0  0  0  0  0  0  0  0  0
   -0.5863    0.9827    0.3845 H   0  0  0  0  0  0  0  0  0  0  0  0
   -1.2962   -0.1800   -0.7434 H   0  0  0  0  0  0  0  0  0  0  0  0
    1.0312   -1.4237   -1.1764 H   0  0  0  0  0  0  0  0  0  0  0  0
  1  2  1  0
  1  3  1  0
  1  4  1  0
  1  5  1  0
  2  6  1  0
M  END
>  <reaction>  (3) 
rxn_1886

>  <mol_properties>  (3) 
{"0": {"label": "acceptor", "atom_type": "Cs"}, "5": {"label": "a_hydrogen", "atom_type": "H0"}}

>  <type>  (3) 
r2h

$$$$

     RDKit          3D

 14 12  0  0  0  0  0  0  0  0999 V2000
    0.6769   -1.2043    0.9349 C   0  0  0  0  0  3  0  0  0  0  0  0
    2.0999   -0.8602   -0.0594 S   0  0  0  0  0  0  0  0  0  0  0  0
    0.8567   -0.8764    1.9555 H   0  0  0  0  0  0  0  0  0  0  0  0
    0.3231   -2.2301    0.8792 H   0  0  0  0  0  0  0  0  0  0  0  0
    1.6953   -1.4931   -1.1682 H   0  0  0  0  0  0  0  0  0  0  0  0
   -1.3888    0.0863   -1.4112 C   0  0  0  0  0  0  0  0  0  0  0  0
   -1.2346    0.4600    0.0404 C   0  0  0  0  0  0  0  0  0  0  0  0
   -0.6126    2.0850    0.4028 S   0  0  0  0  0  0  0  0  0  0  0  0
   -0.4333    0.1713   -1.9341 H   0  0  0  0  0  0  0  0  0  0  0  0
   -2.1051    0.7362   -1.9200 H   0  0  0  0  0  0  0  0  0  0  0  0
   -1.7366   -0.9453   -1.5034 H   0  0  0  0  0  0  0  0  0  0  0  0
   -0.3469   -0.3979    0.5326 H   0  0  0  0  0  0  0  0  0  0  0  0
   -2.1301    0.3009    0.6397 H   0  0  0  0  0  0  0  0  0  0  0  0
    0.5202    1.9753   -0.3084 H   0  0  0  0  0  0  0  0  0  0  0  0
  1  2  1  0
  1  3  1  0
  1  4  1  0
  2  5  1  0
  6  7  1  0
  6  9  1  0
  6 10  1  0
  6 11  1  0
  7  8  1  0
  7 12  1  0
  7 13  1  0
  8 14  1  0
M  RAD  1   1   2
M  END
>  <reaction>  (4) 
rxn_1886

>  <mol_properties>  (4) 
{"0": {"label": "*3", "atom_type": "Cs"}, "1": {"label": "*4", "atom_type": "S2s"}, "6": {"label": "*1", "atom_type": "Cs"}, "7": {"label": "*0", "atom_type": "S2s"}, "11": {"label": "*2", "atom_type": "H0"}}

>  <type>  (4) 
ts

$$$$

     RDKit          3D

 14 12  0  0  0  0  0  0  0  0999 V2000
    0.8090   -1.5724    0.2257 C   0  0  0  0  0  0  0  0  0  0  0  0
    1.8797   -0.5324    1.2507 S   0  0  0  0  0  0  0  0  0  0  0  0
   -0.0511   -1.8274    0.8426 H   0  0  0  0  0  0  0  0  0  0  0  0
    1.3121   -2.4913   -0.0678 H   0  0  0  0  0  0  0  0  0  0  0  0
    2.8415   -0.3359    0.3406 H   0  0  0  0  0  0  0  0  0  0  0  0
   -1.2131   -0.2148   -2.2404 C   0  0  0  0  0  0  0  0  0  0  0  0
   -1.2131   -0.2148   -0.7217 C   0  0  0  0  0  3  0  0  0  0  0  0
   -1.2131    1.4426    0.0232 S   0  0  0  0  0  0  0  0  0  0  0  0
   -0.3065    0.2506   -2.6312 H   0  0  0  0  0  0  0  0  0  0  0  0
   -2.0691    0.3364   -2.6305 H   0  0  0  0  0  0  0  0  0  0  0  0
   -1.2562   -1.2382   -2.6207 H   0  0  0  0  0  0  0  0  0  0  0  0
   -0.2012   -0.8941   -0.2476 H   0  0  0  0  0  0  0  0  0  0  0  0
   -2.1207   -0.6818   -0.3366 H   0  0  0  0  0  0  0  0  0  0  0  0
   -0.0383    1.8442   -0.4803 H   0  0  0  0  0  0  0  0  0  0  0  0
  1  2  1  0
  1  3  1  0
  1  4  1  0
  1 12  1  0
  2  5  1  0
  6  7  1  0
  6  9  1  0
  6 10  1  0
  6 11  1  0
  7  8  1  0
  7 13  1  0
  8 14  1  0
M  RAD  1   7   2
M  END
>  <reaction>  (5) 
rxn_1886

>  <mol_properties>  (5) 
{"0": {"label": "*3", "atom_type": "Cs"}, "1": {"label": "*4", "atom_type": "S2s"}, "6": {"label": "*1", "atom_type": "Cs"}, "7": {"label": "*0", "atom_type": "S2s"}, "11": {"label": "*2", "atom_type": "H0"}}

>  <type>  (5) 
unop_1

>  <geom_source>  (5) 
Heuristics

$$$$

     RDKit          3D

 14 12  0  0  0  0  0  0  0  0999 V2000
    0.7120   -1.2746    0.8662 C   0  0  0  0  0  0  0  0  0  0  0  0
    2.1320   -1.2125   -0.2555 S   0  0  0  0  0  0  0  0  0  0  0  0
    0.9102   -0.5467    1.6513 H   0  0  0  0  0  0  0  0  0  0  0  0
    0.6084   -2.2577    1.3207 H   0  0  0  0  0  0  0  0  0  0  0  0
    1.7056   -2.1453   -1.1155 H   0  0  0  0  0  0  0  0  0  0  0  0
   -1.3102    0.0830   -1.5999 C   0  0  0  0  0  0  0  0  0  0  0  0
   -1.3102    0.0830   -0.0813 C   0  0  0  0  0  3  0  0  0  0  0  0
   -1.3102    1.7403    0.6637 S   0  0  0  0  0  0  0  0  0  0  0  0
   -0.4035    0.5484   -1.9907 H   0  0  0  0  0  0  0  0  0  0  0  0
   -2.1661    0.6342   -1.9900 H   0  0  0  0  0  0  0  0  0  0  0  0
   -1.3532   -0.9404   -1.9802 H   0  0  0  0  0  0  0  0  0  0  0  0
   -0.2982   -0.5964    0.3929 H   0  0  0  0  0  0  0  0  0  0  0  0
   -2.2178   -0.3841    0.3039 H   0  0  0  0  0  0  0  0  0  0  0  0
   -0.1353    2.1420    0.1602 H   0  0  0  0  0  0  0  0  0  0  0  0
  1  2  1  0
  1  3  1  0
  1  4  1  0
  1 12  1  0
  2  5  1  0
  6  7  1  0
  6  9  1  0
  6 10  1  0
  6 11  1  0
  7  8  1  0
  7 13  1  0
  8 14  1  0
M  RAD  1   7   2
M  END
>  <reaction>  (6) 
rxn_1886

>  <mol_properties>  (6) 
{"0": {"label": "*3", "atom_type": "Cs"}, "1": {"label": "*4", "atom_type": "S2s"}, "6": {"label": "*1", "atom_type": "Cs"}, "7": {"label": "*0", "atom_type": "S2s"}, "11": {"label": "*2", "atom_type": "H0"}}

>  <type>  (6) 
unop_2

>  <geom_source>  (6) 
Heuristics

$$$$

     RDKit          3D

 14 12  0  0  0  0  0  0  0  0999 V2000
    0.9660   -1.4608    0.0536 C   0  0  0  0  0  0  0  0  0  0  0  0
    1.5069   -0.8085    1.6537 S   0  0  0  0  0  0  0  0  0  0  0  0
    0.2023   -2.2061    0.2694 H   0  0  0  0  0  0  0  0  0  0  0  0
    1.7851   -1.9441   -0.4750 H   0  0  0  0  0  0  0  0  0  0  0  0
    2.4112    0.0588    1.1827 H   0  0  0  0  0  0  0  0  0  0  0  0
   -1.0561   -0.1032   -2.4126 C   0  0  0  0  0  0  0  0  0  0  0  0
   -1.0561   -0.1032   -0.8939 C   0  0  0  0  0  3  0  0  0  0  0  0
   -1.0561    1.5541   -0.1489 S   0  0  0  0  0  0  0  0  0  0  0  0
   -0.1495    0.3622   -2.8033 H   0  0  0  0  0  0  0  0  0  0  0  0
   -1.9121    0.4480   -2.8027 H   0  0  0  0  0  0  0  0  0  0  0  0
   -1.0992   -1.1266   -2.7929 H   0  0  0  0  0  0  0  0  0  0  0  0
   -0.0442   -0.7825   -0.4198 H   0  0  0  0  0  0  0  0  0  0  0  0
   -1.9637   -0.5703   -0.5088 H   0  0  0  0  0  0  0  0  0  0  0  0
    0.1187    1.9558   -0.6525 H   0  0  0  0  0  0  0  0  0  0  0  0
  1  2  1  0
  1  3  1  0
  1  4  1  0
  1 12  1  0
  2  5  1  0
  6  7  1  0
  6  9  1  0
  6 10  1  0
  6 11  1  0
  7  8  1  0
  7 13  1  0
  8 14  1  0
M  RAD  1   7   2
M  END
>  <reaction>  (7) 
rxn_1886

>  <mol_properties>  (7) 
{"0": {"label": "*3", "atom_type": "Cs"}, "1": {"label": "*4", "atom_type": "S2s"}, "6": {"label": "*1", "atom_type": "Cs"}, "7": {"label": "*0", "atom_type": "S2s"}, "11": {"label": "*2", "atom_type": "H0"}}

>  <type>  (7) 
unop_3

>  <geom_source>  (7) 
Heuristics

$$$$

     RDKit          3D

 14 12  0  0  0  0  0  0  0  0999 V2000
    1.1608   -0.7473    0.6866 C   0  0  0  0  0  0  0  0  0  0  0  0
    1.1112   -2.4728    0.1401 S   0  0  0  0  0  0  0  0  0  0  0  0
    2.2126   -0.4976    0.8165 H   0  0  0  0  0  0  0  0  0  0  0  0
    0.6519   -0.6184    1.6396 H   0  0  0  0  0  0  0  0  0  0  0  0
   -0.2197   -2.5781    0.0422 H   0  0  0  0  0  0  0  0  0  0  0  0
   -0.8613    0.6103   -1.7795 C   0  0  0  0  0  0  0  0  0  0  0  0
   -0.8613    0.6103   -0.2609 C   0  0  0  0  0  3  0  0  0  0  0  0
   -0.8613    2.2676    0.4841 S   0  0  0  0  0  0  0  0  0  0  0  0
    0.0453    1.0757   -2.1703 H   0  0  0  0  0  0  0  0  0  0  0  0
   -1.7173    1.1615   -2.1696 H   0  0  0  0  0  0  0  0  0  0  0  0
   -0.9044   -0.4131   -2.1598 H   0  0  0  0  0  0  0  0  0  0  0  0
    0.1506   -0.0691    0.2133 H   0  0  0  0  0  0  0  0  0  0  0  0
   -1.7689    0.1432    0.1243 H   0  0  0  0  0  0  0  0  0  0  0  0
    0.3135    2.6693   -0.0194 H   0  0  0  0  0  0  0  0  0  0  0  0
  1  2  1  0
  1  3  1  0
  1  4  1  0
  1 12  1  0
  2  5  1  0
  6  7  1  0
  6  9  1  0
  6 10  1  0
  6 11  1  0
  7  8  1  0
  7 13  1  0
  8 14  1  0
M  RAD  1   7   2
M  END
>  <reaction>  (8) 
rxn_1886

>  <mol_properties>  (8) 
{"0": {"label": "*3", "atom_type": "Cs"}, "1": {"label": "*4", "atom_type": "S2s"}, "6": {"label": "*1", "atom_type": "Cs"}, "7": {"label": "*0", "atom_type": "S2s"}, "11": {"label": "*2", "atom_type": "H0"}}

>  <type>  (8) 
unop_4

>  <geom_source>  (8) 
Heuristics

$$$$

     RDKit          3D

 14 12  0  0  0  0  0  0  0  0999 V2000
    1.1287   -1.2724   -0.0124 C   0  0  0  0  0  0  0  0  0  0  0  0
    1.1317   -1.2744    1.7982 S   0  0  0  0  0  0  0  0  0  0  0  0
    1.0253   -2.3119   -0.3194 H   0  0  0  0  0  0  0  0  0  0  0  0
    2.0636   -0.8830   -0.4100 H   0  0  0  0  0  0  0  0  0  0  0  0
    1.2628    0.0472    1.9659 H   0  0  0  0  0  0  0  0  0  0  0  0
   -0.8934    0.0852   -2.4786 C   0  0  0  0  0  0  0  0  0  0  0  0
   -0.8934    0.0852   -0.9599 C   0  0  0  0  0  3  0  0  0  0  0  0
   -0.8934    1.7425   -0.2149 S   0  0  0  0  0  0  0  0  0  0  0  0
    0.0132    0.5506   -2.8693 H   0  0  0  0  0  0  0  0  0  0  0  0
   -1.7494    0.6364   -2.8687 H   0  0  0  0  0  0  0  0  0  0  0  0
   -0.9365   -0.9382   -2.8589 H   0  0  0  0  0  0  0  0  0  0  0  0
    0.1185   -0.5942   -0.4858 H   0  0  0  0  0  0  0  0  0  0  0  0
   -1.8010   -0.3819   -0.5748 H   0  0  0  0  0  0  0  0  0  0  0  0
    0.2814    2.1442   -0.7184 H   0  0  0  0  0  0  0  0  0  0  0  0
  1  2  1  0
  1  3  1  0
  1  4  1  0
  1 12  1  0
  2  5  1  0
  6  7  1  0
  6  9  1  0
  6 10  1  0
  6 11  1  0
  7  8  1  0
  7 13  1  0
  8 14  1  0
M  RAD  1   7   2
M  END
>  <reaction>  (9) 
rxn_1886

>  <mol_properties>  (9) 
{"0": {"label": "*3", "atom_type": "Cs"}, "1": {"label": "*4", "atom_type": "S2s"}, "6": {"label": "*1", "atom_type": "Cs"}, "7": {"label": "*0", "atom_type": "S2s"}, "11": {"label": "*2", "atom_type": "H0"}}

>  <type>  (9) 
unop_5

>  <geom_source>  (9) 
Heuristics

$$$$

     RDKit          3D

 14 12  0  0  0  0  0  0  0  0999 V2000
    1.2734   -0.7470    0.4502 C   0  0  0  0  0  0  0  0  0  0  0  0
    0.8442   -2.4897    0.6894 S   0  0  0  0  0  0  0  0  0  0  0  0
    2.3582   -0.7079    0.3659 H   0  0  0  0  0  0  0  0  0  0  0  0
    0.9681   -0.1429    1.3020 H   0  0  0  0  0  0  0  0  0  0  0  0
   -0.4820   -2.3252    0.7671 H   0  0  0  0  0  0  0  0  0  0  0  0
   -0.7487    0.6105   -2.0159 C   0  0  0  0  0  0  0  0  0  0  0  0
   -0.7487    0.6105   -0.4973 C   0  0  0  0  0  3  0  0  0  0  0  0
   -0.7487    2.2679    0.2477 S   0  0  0  0  0  0  0  0  0  0  0  0
    0.1579    1.0759   -2.4067 H   0  0  0  0  0  0  0  0  0  0  0  0
   -1.6047    1.1617   -2.4060 H   0  0  0  0  0  0  0  0  0  0  0  0
   -0.7918   -0.4128   -2.3962 H   0  0  0  0  0  0  0  0  0  0  0  0
    0.2632   -0.0688   -0.0231 H   0  0  0  0  0  0  0  0  0  0  0  0
   -1.6563    0.1435   -0.1121 H   0  0  0  0  0  0  0  0  0  0  0  0
    0.4261    2.6696   -0.2558 H   0  0  0  0  0  0  0  0  0  0  0  0
  1  2  1  0
  1  3  1  0
  1  4  1  0
  1 12  1  0
  2  5  1  0
  6  7  1  0
  6  9  1  0
  6 10  1  0
  6 11  1  0
  7  8  1  0
  7 13  1  0
  8 14  1  0
M  RAD  1   7   2
M  END
>  <reaction>  (10) 
rxn_1886

>  <mol_properties>  (10) 
{"0": {"label": "*3", "atom_type": "Cs"}, "1": {"label": "*4", "atom_type": "S2s"}, "6": {"label": "*1", "atom_type": "Cs"}, "7": {"label": "*0", "atom_type": "S2s"}, "11": {"label": "*2", "atom_type": "H0"}}

>  <type>  (10) 
unop_6

>  <geom_source>  (10) 
Heuristics

$$$$

     RDKit          3D

 14 12  0  0  0  0  0  0  0  0999 V2000
    1.3087   -0.8586    0.2154 C   0  0  0  0  0  0  0  0  0  0  0  0
    0.7515   -2.2434    1.2403 S   0  0  0  0  0  0  0  0  0  0  0  0
    2.3186   -1.1046   -0.1084 H   0  0  0  0  0  0  0  0  0  0  0  0
    1.3413    0.0680    0.7847 H   0  0  0  0  0  0  0  0  0  0  0  0
   -0.4638   -1.7605    1.5260 H   0  0  0  0  0  0  0  0  0  0  0  0
   -0.7135    0.4990   -2.2507 C   0  0  0  0  0  0  0  0  0  0  0  0
   -0.7135    0.4990   -0.7321 C   0  0  0  0  0  3  0  0  0  0  0  0
   -0.7135    2.1563    0.0129 S   0  0  0  0  0  0  0  0  0  0  0  0
    0.1932    0.9644   -2.6415 H   0  0  0  0  0  0  0  0  0  0  0  0
   -1.5694    1.0502   -2.6408 H   0  0  0  0  0  0  0  0  0  0  0  0
   -0.7566   -0.5244   -2.6310 H   0  0  0  0  0  0  0  0  0  0  0  0
    0.2984   -0.1804   -0.2579 H   0  0  0  0  0  0  0  0  0  0  0  0
   -1.6211    0.0319   -0.3469 H   0  0  0  0  0  0  0  0  0  0  0  0
    0.4613    2.5580   -0.4906 H   0  0  0  0  0  0  0  0  0  0  0  0
  1  2  1  0
  1  3  1  0
  1  4  1  0
  1 12  1  0
  2  5  1  0
  6  7  1  0
  6  9  1  0
  6 10  1  0
  6 11  1  0
  7  8  1  0
  7 13  1  0
  8 14  1  0
M  RAD  1   7   2
M  END
>  <reaction>  (11) 
rxn_1886

>  <mol_properties>  (11) 
{"0": {"label": "*3", "atom_type": "Cs"}, "1": {"label": "*4", "atom_type": "S2s"}, "6": {"label": "*1", "atom_type": "Cs"}, "7": {"label": "*0", "atom_type": "S2s"}, "11": {"label": "*2", "atom_type": "H0"}}

>  <type>  (11) 
unop_7

>  <geom_source>  (11) 
Heuristics

$$$$

     RDKit          3D

 14 12  0  0  0  0  0  0  0  0999 V2000
    0.6972   -1.5752    0.4604 C   0  0  0  0  0  0  0  0  0  0  0  0
    2.1476   -0.5180    0.6996 S   0  0  0  0  0  0  0  0  0  0  0  0
    0.0385   -1.3869    1.3066 H   0  0  0  0  0  0  0  0  0  0  0  0
    0.9702   -2.6284    0.4589 H   0  0  0  0  0  0  0  0  0  0  0  0
    2.8067   -0.8872   -0.4054 H   0  0  0  0  0  0  0  0  0  0  0  0
   -1.3249   -0.2176   -2.0057 C   0  0  0  0  0  0  0  0  0  0  0  0
   -1.3249   -0.2176   -0.4871 C   0  0  0  0  0  3  0  0  0  0  0  0
   -1.3249    1.4397    0.2579 S   0  0  0  0  0  0  0  0  0  0  0  0
   -0.4183    0.2478   -2.3965 H   0  0  0  0  0  0  0  0  0  0  0  0
   -2.1809    0.3336   -2.3958 H   0  0  0  0  0  0  0  0  0  0  0  0
   -1.3680   -1.2410   -2.3860 H   0  0  0  0  0  0  0  0  0  0  0  0
   -0.3130   -0.8970   -0.0129 H   0  0  0  0  0  0  0  0  0  0  0  0
   -2.2325   -0.6847   -0.1019 H   0  0  0  0  0  0  0  0  0  0  0  0
   -0.1501    1.8414   -0.2456 H   0  0  0  0  0  0  0  0  0  0  0  0
  1  2  1  0
  1  3  1  0
  1  4  1  0
  1 12  1  0
  2  5  1  0
  6  7  1  0
  6  9  1  0
  6 10  1  0
  6 11  1  0
  7  8  1  0
  7 13  1  0
  8 14  1  0
M  RAD  1   7   2
M  END
>  <reaction>  (12) 
rxn_1886

>  <mol_properties>  (12) 
{"0": {"label": "*3", "atom_type": "Cs"}, "1": {"label": "*4", "atom_type": "S2s"}, "6": {"label": "*1", "atom_type": "Cs"}, "7": {"label": "*0", "atom_type": "S2s"}, "11": {"label": "*2", "atom_type": "H0"}}

>  <type>  (12) 
unop_8

>  <geom_source>  (12) 
Heuristics

$$$$

     RDKit          3D

 14 12  0  0  0  0  0  0  0  0999 V2000
    1.0010   -0.8589    0.8612 C   0  0  0  0  0  0  0  0  0  0  0  0
    1.4812   -2.1966   -0.2605 S   0  0  0  0  0  0  0  0  0  0  0  0
    1.9263   -0.3897    1.1917 H   0  0  0  0  0  0  0  0  0  0  0  0
    0.4740   -1.2420    1.7326 H   0  0  0  0  0  0  0  0  0  0  0  0
    0.2460   -2.6286   -0.5427 H   0  0  0  0  0  0  0  0  0  0  0  0
   -1.0212    0.4987   -1.6049 C   0  0  0  0  0  0  0  0  0  0  0  0
   -1.0212    0.4987   -0.0863 C   0  0  0  0  0  3  0  0  0  0  0  0
   -1.0212    2.1561    0.6587 S   0  0  0  0  0  0  0  0  0  0  0  0
   -0.1145    0.9641   -1.9957 H   0  0  0  0  0  0  0  0  0  0  0  0
   -1.8771    1.0499   -1.9950 H   0  0  0  0  0  0  0  0  0  0  0  0
   -1.0642   -0.5247   -1.9852 H   0  0  0  0  0  0  0  0  0  0  0  0
   -0.0092   -0.1806    0.3879 H   0  0  0  0  0  0  0  0  0  0  0  0
   -1.9288    0.0317    0.2989 H   0  0  0  0  0  0  0  0  0  0  0  0
    0.1536    2.5577    0.1552 H   0  0  0  0  0  0  0  0  0  0  0  0
  1  2  1  0
  1  3  1  0
  1  4  1  0
  1 12  1  0
  2  5  1  0
  6  7  1  0
  6  9  1  0
  6 10  1  0
  6 11  1  0
  7  8  1  0
  7 13  1  0
  8 14  1  0
M  RAD  1   7   2
M  END
>  <reaction>  (13) 
rxn_1886

>  <mol_properties>  (13) 
{"0": {"label": "*3", "atom_type": "Cs"}, "1": {"label": "*4", "atom_type": "S2s"}, "6": {"label": "*1", "atom_type": "Cs"}, "7": {"label": "*0", "atom_type": "S2s"}, "11": {"label": "*2", "atom_type": "H0"}}

>  <type>  (13) 
unop_9

>  <geom_source>  (13) 
Heuristics

$$$$

     RDKit          3D

 14 12  0  0  0  0  0  0  0  0999 V2000
    0.6612   -1.4664    0.6951 C   0  0  0  0  0  0  0  0  0  0  0  0
    2.2395   -0.7672    0.1486 S   0  0  0  0  0  0  0  0  0  0  0  0
    0.3816   -0.9232    1.5963 H   0  0  0  0  0  0  0  0  0  0  0  0
    0.7590   -2.5218    0.9406 H   0  0  0  0  0  0  0  0  0  0  0  0
    2.4010   -1.5436   -0.9298 H   0  0  0  0  0  0  0  0  0  0  0  0
   -1.3609   -0.1088   -1.7711 C   0  0  0  0  0  0  0  0  0  0  0  0
   -1.3609   -0.1088   -0.2524 C   0  0  0  0  0  3  0  0  0  0  0  0
   -1.3609    1.5485    0.4926 S   0  0  0  0  0  0  0  0  0  0  0  0
   -0.4543    0.3566   -2.1618 H   0  0  0  0  0  0  0  0  0  0  0  0
   -2.2169    0.4424   -2.1612 H   0  0  0  0  0  0  0  0  0  0  0  0
   -1.4040   -1.1322   -2.1514 H   0  0  0  0  0  0  0  0  0  0  0  0
   -0.3490   -0.7882    0.2217 H   0  0  0  0  0  0  0  0  0  0  0  0
   -2.2685   -0.5759    0.1327 H   0  0  0  0  0  0  0  0  0  0  0  0
   -0.1861    1.9502   -0.0109 H   0  0  0  0  0  0  0  0  0  0  0  0
  1  2  1  0
  1  3  1  0
  1  4  1  0
  1 12  1  0
  2  5  1  0
  6  7  1  0
  6  9  1  0
  6 10  1  0
  6 11  1  0
  7  8  1  0
  7 13  1  0
  8 14  1  0
M  RAD  1   7   2
M  END
>  <reaction>  (14) 
rxn_1886

>  <mol_properties>  (14) 
{"0": {"label": "*3", "atom_type": "Cs"}, "1": {"label": "*4", "atom_type": "S2s"}, "6": {"label": "*1", "atom_type": "Cs"}, "7": {"label": "*0", "atom_type": "S2s"}, "11": {"label": "*2", "atom_type": "H0"}}

>  <type>  (14) 
unop_10

>  <geom_source>  (14) 
Heuristics

$$$$

     RDKit          3D

 14 12  0  0  0  0  0  0  0  0999 V2000
    1.2559   -1.0520    0.0457 C   0  0  0  0  0  0  0  0  0  0  0  0
    0.8570   -1.7997    1.6458 S   0  0  0  0  0  0  0  0  0  0  0  0
    1.9418   -1.7373   -0.4497 H   0  0  0  0  0  0  0  0  0  0  0  0
    1.7518   -0.0916    0.1695 H   0  0  0  0  0  0  0  0  0  0  0  0
    0.0341   -0.8367    2.0789 H   0  0  0  0  0  0  0  0  0  0  0  0
   -0.7663    0.3055   -2.4204 C   0  0  0  0  0  0  0  0  0  0  0  0
   -0.7663    0.3055   -0.9017 C   0  0  0  0  0  3  0  0  0  0  0  0
   -0.7663    1.9629   -0.1568 S   0  0  0  0  0  0  0  0  0  0  0  0
    0.1404    0.7709   -2.8112 H   0  0  0  0  0  0  0  0  0  0  0  0
   -1.6222    0.8567   -2.8105 H   0  0  0  0  0  0  0  0  0  0  0  0
   -0.8093   -0.7178   -2.8007 H   0  0  0  0  0  0  0  0  0  0  0  0
    0.2456   -0.3738   -0.4276 H   0  0  0  0  0  0  0  0  0  0  0  0
   -1.6739   -0.1615   -0.5166 H   0  0  0  0  0  0  0  0  0  0  0  0
    0.4085    2.3646   -0.6603 H   0  0  0  0  0  0  0  0  0  0  0  0
  1  2  1  0
  1  3  1  0
  1  4  1  0
  1 12  1  0
  2  5  1  0
  6  7  1  0
  6  9  1  0
  6 10  1  0
  6 11  1  0
  7  8  1  0
  7 13  1  0
  8 14  1  0
M  RAD  1   7   2
M  END
>  <reaction>  (15) 
rxn_1886

>  <mol_properties>  (15) 
{"0": {"label": "*3", "atom_type": "Cs"}, "1": {"label": "*4", "atom_type": "S2s"}, "6": {"label": "*1", "atom_type": "Cs"}, "7": {"label": "*0", "atom_type": "S2s"}, "11": {"label": "*2", "atom_type": "H0"}}

>  <type>  (15) 
unop_11

>  <geom_source>  (15) 
Heuristics

$$$$

     RDKit          3D

 14 12  0  0  0  0  0  0  0  0999 V2000
    0.8365   -1.0519    0.9271 C   0  0  0  0  0  0  0  0  0  0  0  0
    1.8546   -1.7353   -0.4051 S   0  0  0  0  0  0  0  0  0  0  0  0
    1.4795   -0.3746    1.4869 H   0  0  0  0  0  0  0  0  0  0  0  0
    0.4850   -1.8329    1.5981 H   0  0  0  0  0  0  0  0  0  0  0  0
    0.9122   -2.5122   -0.9529 H   0  0  0  0  0  0  0  0  0  0  0  0
   -1.1856    0.3057   -1.5390 C   0  0  0  0  0  0  0  0  0  0  0  0
   -1.1856    0.3057   -0.0204 C   0  0  0  0  0  3  0  0  0  0  0  0
   -1.1856    1.9631    0.7246 S   0  0  0  0  0  0  0  0  0  0  0  0
   -0.2790    0.7711   -1.9298 H   0  0  0  0  0  0  0  0  0  0  0  0
   -2.0416    0.8569   -1.9291 H   0  0  0  0  0  0  0  0  0  0  0  0
   -1.2287   -0.7177   -1.9193 H   0  0  0  0  0  0  0  0  0  0  0  0
   -0.1737   -0.3736    0.4538 H   0  0  0  0  0  0  0  0  0  0  0  0
   -2.0932   -0.1613    0.3648 H   0  0  0  0  0  0  0  0  0  0  0  0
   -0.0108    2.3647    0.2211 H   0  0  0  0  0  0  0  0  0  0  0  0
  1  2  1  0
  1  3  1  0
  1  4  1  0
  1 12  1  0
  2  5  1  0
  6  7  1  0
  6  9  1  0
  6 10  1  0
  6 11  1  0
  7  8  1  0
  7 13  1  0
  8 14  1  0
M  RAD  1   7   2
M  END
>  <reaction>  (16) 
rxn_1886

>  <mol_properties>  (16) 
{"0": {"label": "*3", "atom_type": "Cs"}, "1": {"label": "*4", "atom_type": "S2s"}, "6": {"label": "*1", "atom_type": "Cs"}, "7": {"label": "*0", "atom_type": "S2s"}, "11": {"label": "*2", "atom_type": "H0"}}

>  <type>  (16) 
unop_12

>  <geom_source>  (16) 
Heuristics

$$$$

     RDKit          3D

 14 12  0  0  0  0  0  0  0  0999 V2000
   -3.0039    0.5157   -0.2138 S   0  0  0  0  0  0  0  0  0  0  0  0
    1.6842    1.6239   -0.9025 S   0  0  0  0  0  0  0  0  0  0  0  0
    1.7636   -0.6671    0.6080 C   0  0  0  0  0  0  0  0  0  0  0  0
   -1.6042   -0.5973   -0.5218 C   0  0  0  0  0  0  0  0  0  0  0  0
    0.7874    0.3255   -0.0003 C   0  0  0  0  0  3  0  0  0  0  0  0
    1.1987   -1.4567    1.1456 H   0  0  0  0  0  0  0  0  0  0  0  0
    2.4378   -0.1527    1.3253 H   0  0  0  0  0  0  0  0  0  0  0  0
    2.3678   -1.1428   -0.1928 H   0  0  0  0  0  0  0  0  0  0  0  0
   -1.5715   -1.3806    0.2634 H   0  0  0  0  0  0  0  0  0  0  0  0
   -1.7263   -1.0767   -1.5148 H   0  0  0  0  0  0  0  0  0  0  0  0
   -0.4974    0.0810   -0.5040 H   0  0  0  0  0  0  0  0  0  0  0  0
    0.1697    0.7875    0.7987 H   0  0  0  0  0  0  0  0  0  0  0  0
   -2.4947    0.9083    1.0386 H   0  0  0  0  0  0  0  0  0  0  0  0
    0.4888    2.2318   -1.3296 H   0  0  0  0  0  0  0  0  0  0  0  0
  1  4  1  0
  1 13  1  0
  2  5  1  0
  2 14  1  0
  3  5  1  0
  3  6  1  0
  3  7  1  0
  3  8  1  0
  4  9  1  0
  4 10  1  0
  4 11  1  0
  5 12  1  0
M  RAD  1   5   2
M  END
>  <reaction>  (17) 
rxn_1886

>  <mol_properties>  (17) 
{"0": {"label": "*3", "atom_type": "Cs"}, "1": {"label": "*4", "atom_type": "S2s"}, "6": {"label": "*1", "atom_type": "Cs"}, "7": {"label": "*0", "atom_type": "S2s"}, "11": {"label": "*2", "atom_type": "H0"}}

>  <type>  (17) 
unop_13

>  <geom_source>  (17) 
AutoTST

$$$$
