
     RDKit          3D

  8  7  0  0  0  0  0  0  0  0999 V2000
    0.7610    0.0250    0.0051 C   0  0  0  0  0  0  0  0  0  0  0  0
   -0.7610   -0.0250   -0.0051 C   0  0  0  0  0  0  0  0  0  0  0  0
    1.1904   -0.9237   -0.3217 H   0  0  0  0  0  0  0  0  0  0  0  0
    1.1359    0.8041   -0.6609 H   0  0  0  0  0  0  0  0  0  0  0  0
    1.1435    0.2336    1.0058 H   0  0  0  0  0  0  0  0  0  0  0  0
   -1.1435   -0.2336   -1.0058 H   0  0  0  0  0  0  0  0  0  0  0  0
   -1.1904    0.9237    0.3216 H   0  0  0  0  0  0  0  0  0  0  0  0
   -1.1359   -0.8041    0.6609 H   0  0  0  0  0  0  0  0  0  0  0  0
  1  2  1  0
  1  3  1  0
  1  4  1  0
  1  5  1  0
  2  6  1  0
  2  7  1  0
  2  8  1  0
M  END
>  <reaction>  (1) 
rxn_907

>  <mol_properties>  (1) 
{"1": {"label": "donator", "atom_type": "Cs"}, "5": {"label": "d_hydrogen", "atom_type": "H0"}}

>  <type>  (1) 
r1h

$$$$

     RDKit          3D

  7  6  0  0  0  0  0  0  0  0999 V2000
   -0.6904   -0.9066   -0.0346 C   0  0  0  0  0  0  0  0  0  0  0  0
    0.1413    0.0254   -0.6161 C   0  0  0  0  0  0  0  0  0  0  0  0
    0.4603    0.1105   -1.9267 C   0  0  0  0  0  3  0  0  0  0  0  0
    0.8318    0.2180   -3.4201 S   0  0  0  0  0  0  0  0  0  0  0  0
   -0.8731   -0.8770    1.0287 H   0  0  0  0  0  0  0  0  0  0  0  0
   -1.1718   -1.6767   -0.6199 H   0  0  0  0  0  0  0  0  0  0  0  0
    0.6090    0.7866    0.0044 H   0  0  0  0  0  0  0  0  0  0  0  0
  1  2  2  3
  1  5  1  0
  1  6  1  0
  2  3  1  0
  2  7  1  0
  3  4  2  0
M  RAD  1   3   2
M  END
>  <reaction>  (2) 
rxn_907

>  <mol_properties>  (2) 
{"2": {"label": "acceptor", "atom_type": "CS"}}

>  <type>  (2) 
r2

$$$$

     RDKit          3D

  8  7  0  0  0  0  0  0  0  0999 V2000
   -1.1617    0.0338    0.5053 C   0  0  0  0  0  0  0  0  0  0  0  0
   -0.1023    0.4503   -0.1863 C   0  0  0  0  0  0  0  0  0  0  0  0
    1.0978   -0.3557   -0.3104 C   0  0  0  0  0  0  0  0  0  0  0  0
    2.4251    0.0667   -1.1256 S   0  0  0  0  0  0  0  0  0  0  0  0
   -1.1653   -0.9292    1.0039 H   0  0  0  0  0  0  0  0  0  0  0  0
   -2.0546    0.6389    0.5948 H   0  0  0  0  0  0  0  0  0  0  0  0
   -0.0991    1.4132   -0.6847 H   0  0  0  0  0  0  0  0  0  0  0  0
    1.0601   -1.3180    0.2032 H   0  0  0  0  0  0  0  0  0  0  0  0
  1  2  2  3
  1  5  1  0
  1  6  1  0
  2  3  1  0
  2  7  1  0
  3  4  2  0
  3  8  1  0
M  END
>  <reaction>  (3) 
rxn_907

>  <mol_properties>  (3) 
{"2": {"label": "acceptor", "atom_type": "CS"}, "7": {"label": "a_hydrogen", "atom_type": "H0"}}

>  <type>  (3) 
r2h

$$$$

     RDKit          3D

 15 13  0  0  0  0  0  0  0  0999 V2000
    1.2979    1.6319   -0.9749 C   0  0  0  0  0  0  0  0  0  0  0  0
    0.0440    1.6627   -0.5257 C   0  0  0  0  0  0  0  0  0  0  0  0
   -0.7877    0.4777   -0.4898 C   0  0  0  0  0  0  0  0  0  0  0  0
   -2.2968    0.3385    0.0125 S   0  0  0  0  0  0  0  0  0  0  0  0
    1.9102    2.5243   -0.9970 H   0  0  0  0  0  0  0  0  0  0  0  0
    1.7443    0.7119   -1.3325 H   0  0  0  0  0  0  0  0  0  0  0  0
   -0.3957    2.5900   -0.1690 H   0  0  0  0  0  0  0  0  0  0  0  0
   -0.7007   -2.7993   -1.2329 C   0  0  0  0  0  0  0  0  0  0  0  0
    0.3918   -1.7829   -1.3975 C   0  0  0  0  0  3  0  0  0  0  0  0
   -1.0086   -2.8840   -0.1893 H   0  0  0  0  0  0  0  0  0  0  0  0
   -1.5829   -2.5303   -1.8163 H   0  0  0  0  0  0  0  0  0  0  0  0
   -0.3758   -3.7919   -1.5634 H   0  0  0  0  0  0  0  0  0  0  0  0
   -0.1702   -0.5920   -0.9403 H   0  0  0  0  0  0  0  0  0  0  0  0
    0.6703   -1.5544   -2.4250 H   0  0  0  0  0  0  0  0  0  0  0  0
    1.2600   -1.9176   -0.7544 H   0  0  0  0  0  0  0  0  0  0  0  0
  1  2  2  3
  1  5  1  0
  1  6  1  0
  2  3  1  0
  2  7  1  0
  3  4  2  0
  3 13  1  0
  8  9  1  0
  8 10  1  0
  8 11  1  0
  8 12  1  0
  9 14  1  0
  9 15  1  0
M  RAD  1   9   2
M  END
>  <reaction>  (4) 
rxn_907

>  <mol_properties>  (4) 
{"2": {"label": "*1", "atom_type": "CS"}, "3": {"label": "*0", "atom_type": "S2d"}, "7": {"label": "*4", "atom_type": "Cs"}, "8": {"label": "*3", "atom_type": "Cs"}, "12": {"label": "*2", "atom_type": "H0"}}

>  <type>  (4) 
ts

$$$$

     RDKit          3D

 15 13  0  0  0  0  0  0  0  0999 V2000
   -2.3753    0.4992    0.7497 C   0  0  0  0  0  0  0  0  0  0  0  0
   -1.1388    0.8834    1.0622 C   0  0  0  0  0  0  0  0  0  0  0  0
    0.0010    0.5529    0.2274 C   0  0  0  0  0  3  0  0  0  0  0  0
    1.5299    0.9746    0.5263 S   0  0  0  0  0  0  0  0  0  0  0  0
   -3.2221    0.7484    1.3759 H   0  0  0  0  0  0  0  0  0  0  0  0
   -2.5759   -0.0783   -0.1458 H   0  0  0  0  0  0  0  0  0  0  0  0
   -0.9386    1.4608    1.9578 H   0  0  0  0  0  0  0  0  0  0  0  0
    0.0010   -1.8883   -2.2455 C   0  0  0  0  0  0  0  0  0  0  0  0
    0.0010   -1.8883   -0.7227 C   0  0  0  0  0  0  0  0  0  0  0  0
   -0.8798   -1.3797   -2.6413 H   0  0  0  0  0  0  0  0  0  0  0  0
    0.8819   -1.3798   -2.6413 H   0  0  0  0  0  0  0  0  0  0  0  0
    0.0010   -2.9054   -2.6413 H   0  0  0  0  0  0  0  0  0  0  0  0
    0.0010   -0.6678   -0.2477 H   0  0  0  0  0  0  0  0  0  0  0  0
    0.8819   -2.3969   -0.3268 H   0  0  0  0  0  0  0  0  0  0  0  0
   -0.8798   -2.3969   -0.3268 H   0  0  0  0  0  0  0  0  0  0  0  0
  1  2  2  3
  1  5  1  0
  1  6  1  0
  2  3  1  0
  2  7  1  0
  3  4  2  0
  8  9  1  0
  8 10  1  0
  8 11  1  0
  8 12  1  0
  9 13  1  0
  9 14  1  0
  9 15  1  0
M  RAD  1   3   2
M  END
>  <reaction>  (5) 
rxn_907

>  <mol_properties>  (5) 
{"2": {"label": "*1", "atom_type": "CS"}, "3": {"label": "*0", "atom_type": "S2d"}, "7": {"label": "*4", "atom_type": "Cs"}, "8": {"label": "*3", "atom_type": "Cs"}, "12": {"label": "*2", "atom_type": "H0"}}

>  <type>  (5) 
unop_1

>  <geom_source>  (5) 
Heuristics

$$$$

     RDKit          3D

 15 13  0  0  0  0  0  0  0  0999 V2000
   -0.7955    1.1804   -1.7076 C   0  0  0  0  0  0  0  0  0  0  0  0
   -0.5498    1.4082   -0.4185 C   0  0  0  0  0  0  0  0  0  0  0  0
    0.1082    0.4256    0.4222 C   0  0  0  0  0  3  0  0  0  0  0  0
    0.4456    0.6145    1.9891 S   0  0  0  0  0  0  0  0  0  0  0  0
   -1.2868    1.9167   -2.3304 H   0  0  0  0  0  0  0  0  0  0  0  0
   -0.5106    0.2460   -2.1783 H   0  0  0  0  0  0  0  0  0  0  0  0
   -0.8349    2.3426    0.0519 H   0  0  0  0  0  0  0  0  0  0  0  0
    0.1082   -2.0156   -2.0506 C   0  0  0  0  0  0  0  0  0  0  0  0
    0.1082   -2.0156   -0.5279 C   0  0  0  0  0  0  0  0  0  0  0  0
   -0.7726   -1.5070   -2.4465 H   0  0  0  0  0  0  0  0  0  0  0  0
    0.9891   -1.5070   -2.4465 H   0  0  0  0  0  0  0  0  0  0  0  0
    0.1082   -3.0327   -2.4465 H   0  0  0  0  0  0  0  0  0  0  0  0
    0.1082   -0.7950   -0.0528 H   0  0  0  0  0  0  0  0  0  0  0  0
    0.9891   -2.5241   -0.1320 H   0  0  0  0  0  0  0  0  0  0  0  0
   -0.7726   -2.5241   -0.1320 H   0  0  0  0  0  0  0  0  0  0  0  0
  1  2  2  3
  1  5  1  0
  1  6  1  0
  2  3  1  0
  2  7  1  0
  3  4  2  0
  8  9  1  0
  8 10  1  0
  8 11  1  0
  8 12  1  0
  9 13  1  0
  9 14  1  0
  9 15  1  0
M  RAD  1   3   2
M  END
>  <reaction>  (6) 
rxn_907

>  <mol_properties>  (6) 
{"2": {"label": "*1", "atom_type": "CS"}, "3": {"label": "*0", "atom_type": "S2d"}, "7": {"label": "*4", "atom_type": "Cs"}, "8": {"label": "*3", "atom_type": "Cs"}, "12": {"label": "*2", "atom_type": "H0"}}

>  <type>  (6) 
unop_2

>  <geom_source>  (6) 
Heuristics

$$$$

     RDKit          3D

 15 13  0  0  0  0  0  0  0  0999 V2000
   -1.7613   -0.0974    1.9132 C   0  0  0  0  0  0  0  0  0  0  0  0
   -0.7304    0.6654    1.5533 C   0  0  0  0  0  0  0  0  0  0  0  0
   -0.0723    0.5096    0.2696 C   0  0  0  0  0  3  0  0  0  0  0  0
    1.1797    1.3859   -0.2495 S   0  0  0  0  0  0  0  0  0  0  0  0
   -2.2486    0.0229    2.8720 H   0  0  0  0  0  0  0  0  0  0  0  0
   -2.1484   -0.8675    1.2552 H   0  0  0  0  0  0  0  0  0  0  0  0
   -0.3435    1.4353    2.2115 H   0  0  0  0  0  0  0  0  0  0  0  0
   -0.0723   -1.9316   -2.2033 C   0  0  0  0  0  0  0  0  0  0  0  0
   -0.0723   -1.9316   -0.6805 C   0  0  0  0  0  0  0  0  0  0  0  0
   -0.9531   -1.4230   -2.5991 H   0  0  0  0  0  0  0  0  0  0  0  0
    0.8086   -1.4231   -2.5991 H   0  0  0  0  0  0  0  0  0  0  0  0
   -0.0723   -2.9487   -2.5991 H   0  0  0  0  0  0  0  0  0  0  0  0
   -0.0723   -0.7111   -0.2055 H   0  0  0  0  0  0  0  0  0  0  0  0
    0.8086   -2.4402   -0.2846 H   0  0  0  0  0  0  0  0  0  0  0  0
   -0.9531   -2.4402   -0.2846 H   0  0  0  0  0  0  0  0  0  0  0  0
  1  2  2  3
  1  5  1  0
  1  6  1  0
  2  3  1  0
  2  7  1  0
  3  4  2  0
  8  9  1  0
  8 10  1  0
  8 11  1  0
  8 12  1  0
  9 13  1  0
  9 14  1  0
  9 15  1  0
M  RAD  1   3   2
M  END
>  <reaction>  (7) 
rxn_907

>  <mol_properties>  (7) 
{"2": {"label": "*1", "atom_type": "CS"}, "3": {"label": "*0", "atom_type": "S2d"}, "7": {"label": "*4", "atom_type": "Cs"}, "8": {"label": "*3", "atom_type": "Cs"}, "12": {"label": "*2", "atom_type": "H0"}}

>  <type>  (7) 
unop_3

>  <geom_source>  (7) 
Heuristics

$$$$

     RDKit          3D

 15 13  0  0  0  0  0  0  0  0999 V2000
    1.5997    1.1325   -1.2310 C   0  0  0  0  0  0  0  0  0  0  0  0
    0.9938    1.2927   -0.0557 C   0  0  0  0  0  0  0  0  0  0  0  0
   -0.1460    0.4849    0.3360 C   0  0  0  0  0  3  0  0  0  0  0  0
   -0.9404    0.6086    1.7354 S   0  0  0  0  0  0  0  0  0  0  0  0
    2.4497    1.7378   -1.5184 H   0  0  0  0  0  0  0  0  0  0  0  0
    1.2606    0.3874   -1.9422 H   0  0  0  0  0  0  0  0  0  0  0  0
    1.3332    2.0378    0.6551 H   0  0  0  0  0  0  0  0  0  0  0  0
   -0.1460   -1.9563   -2.1368 C   0  0  0  0  0  0  0  0  0  0  0  0
   -0.1460   -1.9563   -0.6141 C   0  0  0  0  0  0  0  0  0  0  0  0
   -1.0268   -1.4477   -2.5327 H   0  0  0  0  0  0  0  0  0  0  0  0
    0.7349   -1.4477   -2.5327 H   0  0  0  0  0  0  0  0  0  0  0  0
   -0.1460   -2.9734   -2.5327 H   0  0  0  0  0  0  0  0  0  0  0  0
   -0.1460   -0.7358   -0.1390 H   0  0  0  0  0  0  0  0  0  0  0  0
    0.7349   -2.4649   -0.2182 H   0  0  0  0  0  0  0  0  0  0  0  0
   -1.0268   -2.4649   -0.2182 H   0  0  0  0  0  0  0  0  0  0  0  0
  1  2  2  3
  1  5  1  0
  1  6  1  0
  2  3  1  0
  2  7  1  0
  3  4  2  0
  8  9  1  0
  8 10  1  0
  8 11  1  0
  8 12  1  0
  9 13  1  0
  9 14  1  0
  9 15  1  0
M  RAD  1   3   2
M  END
>  <reaction>  (8) 
rxn_907

>  <mol_properties>  (8) 
{"2": {"label": "*1", "atom_type": "CS"}, "3": {"label": "*0", "atom_type": "S2d"}, "7": {"label": "*4", "atom_type": "Cs"}, "8": {"label": "*3", "atom_type": "Cs"}, "12": {"label": "*2", "atom_type": "H0"}}

>  <type>  (8) 
unop_4

>  <geom_source>  (8) 
Heuristics

$$$$

     RDKit          3D

 15 13  0  0  0  0  0  0  0  0999 V2000
    0.0000   -0.5402    2.5460 C   0  0  0  0  0  0  0  0  0  0  0  0
    0.0000    0.5436    1.7718 C   0  0  0  0  0  0  0  0  0  0  0  0
    0.0000    0.4518    0.3237 C   0  0  0  0  0  3  0  0  0  0  0  0
   -0.0000    1.7070   -0.6908 S   0  0  0  0  0  0  0  0  0  0  0  0
    0.0000   -0.4662    3.6257 H   0  0  0  0  0  0  0  0  0  0  0  0
    0.0000   -1.5370    2.1190 H   0  0  0  0  0  0  0  0  0  0  0  0
    0.0000    1.5401    2.1991 H   0  0  0  0  0  0  0  0  0  0  0  0
    0.0000   -1.9894   -2.1492 C   0  0  0  0  0  0  0  0  0  0  0  0
    0.0000   -1.9894   -0.6264 C   0  0  0  0  0  0  0  0  0  0  0  0
   -0.8808   -1.4808   -2.5450 H   0  0  0  0  0  0  0  0  0  0  0  0
    0.8808   -1.4809   -2.5450 H   0  0  0  0  0  0  0  0  0  0  0  0
   -0.0000   -3.0065   -2.5450 H   0  0  0  0  0  0  0  0  0  0  0  0
    0.0000   -0.7689   -0.1513 H   0  0  0  0  0  0  0  0  0  0  0  0
    0.8808   -2.4980   -0.2305 H   0  0  0  0  0  0  0  0  0  0  0  0
   -0.8808   -2.4980   -0.2305 H   0  0  0  0  0  0  0  0  0  0  0  0
  1  2  2  3
  1  5  1  0
  1  6  1  0
  2  3  1  0
  2  7  1  0
  3  4  2  0
  8  9  1  0
  8 10  1  0
  8 11  1  0
  8 12  1  0
  9 13  1  0
  9 14  1  0
  9 15  1  0
M  RAD  1   3   2
M  END
>  <reaction>  (9) 
rxn_907

>  <mol_properties>  (9) 
{"2": {"label": "*1", "atom_type": "CS"}, "3": {"label": "*0", "atom_type": "S2d"}, "7": {"label": "*4", "atom_type": "Cs"}, "8": {"label": "*3", "atom_type": "Cs"}, "12": {"label": "*2", "atom_type": "H0"}}

>  <type>  (9) 
unop_5

>  <geom_source>  (9) 
Heuristics

$$$$

     RDKit          3D

 15 13  0  0  0  0  0  0  0  0999 V2000
    2.2200    0.9158   -0.3781 C   0  0  0  0  0  0  0  0  0  0  0  0
    1.2173    1.1067    0.4775 C   0  0  0  0  0  0  0  0  0  0  0  0
   -0.0989    0.5375    0.2560 C   0  0  0  0  0  3  0  0  0  0  0  0
   -1.3693    0.7157    1.2353 S   0  0  0  0  0  0  0  0  0  0  0  0
    3.2000    1.3426   -0.2081 H   0  0  0  0  0  0  0  0  0  0  0  0
    2.0879    0.3240   -1.2771 H   0  0  0  0  0  0  0  0  0  0  0  0
    1.3497    1.6985    1.3764 H   0  0  0  0  0  0  0  0  0  0  0  0
   -0.0989   -1.9036   -2.2168 C   0  0  0  0  0  0  0  0  0  0  0  0
   -0.0989   -1.9036   -0.6941 C   0  0  0  0  0  0  0  0  0  0  0  0
   -0.9797   -1.3951   -2.6127 H   0  0  0  0  0  0  0  0  0  0  0  0
    0.7820   -1.3951   -2.6127 H   0  0  0  0  0  0  0  0  0  0  0  0
   -0.0989   -2.9207   -2.6127 H   0  0  0  0  0  0  0  0  0  0  0  0
   -0.0989   -0.6831   -0.2190 H   0  0  0  0  0  0  0  0  0  0  0  0
    0.7820   -2.4122   -0.2982 H   0  0  0  0  0  0  0  0  0  0  0  0
   -0.9797   -2.4122   -0.2982 H   0  0  0  0  0  0  0  0  0  0  0  0
  1  2  2  3
  1  5  1  0
  1  6  1  0
  2  3  1  0
  2  7  1  0
  3  4  2  0
  8  9  1  0
  8 10  1  0
  8 11  1  0
  8 12  1  0
  9 13  1  0
  9 14  1  0
  9 15  1  0
M  RAD  1   3   2
M  END
>  <reaction>  (10) 
rxn_907

>  <mol_properties>  (10) 
{"2": {"label": "*1", "atom_type": "CS"}, "3": {"label": "*0", "atom_type": "S2d"}, "7": {"label": "*4", "atom_type": "Cs"}, "8": {"label": "*3", "atom_type": "Cs"}, "12": {"label": "*2", "atom_type": "H0"}}

>  <type>  (10) 
unop_6

>  <geom_source>  (10) 
Heuristics

$$$$

     RDKit          3D

 15 13  0  0  0  0  0  0  0  0999 V2000
    2.3753    0.4992    0.7497 C   0  0  0  0  0  0  0  0  0  0  0  0
    1.1388    0.8834    1.0622 C   0  0  0  0  0  0  0  0  0  0  0  0
   -0.0010    0.5529    0.2274 C   0  0  0  0  0  3  0  0  0  0  0  0
   -1.5299    0.9746    0.5263 S   0  0  0  0  0  0  0  0  0  0  0  0
    3.2221    0.7484    1.3759 H   0  0  0  0  0  0  0  0  0  0  0  0
    2.5759   -0.0783   -0.1458 H   0  0  0  0  0  0  0  0  0  0  0  0
    0.9386    1.4608    1.9578 H   0  0  0  0  0  0  0  0  0  0  0  0
   -0.0010   -1.8883   -2.2455 C   0  0  0  0  0  0  0  0  0  0  0  0
   -0.0010   -1.8883   -0.7227 C   0  0  0  0  0  0  0  0  0  0  0  0
   -0.8819   -1.3797   -2.6413 H   0  0  0  0  0  0  0  0  0  0  0  0
    0.8798   -1.3797   -2.6413 H   0  0  0  0  0  0  0  0  0  0  0  0
   -0.0010   -2.9054   -2.6413 H   0  0  0  0  0  0  0  0  0  0  0  0
   -0.0010   -0.6678   -0.2477 H   0  0  0  0  0  0  0  0  0  0  0  0
    0.8798   -2.3969   -0.3268 H   0  0  0  0  0  0  0  0  0  0  0  0
   -0.8819   -2.3969   -0.3268 H   0  0  0  0  0  0  0  0  0  0  0  0
  1  2  2  3
  1  5  1  0
  1  6  1  0
  2  3  1  0
  2  7  1  0
  3  4  2  0
  8  9  1  0
  8 10  1  0
  8 11  1  0
  8 12  1  0
  9 13  1  0
  9 14  1  0
  9 15  1  0
M  RAD  1   3   2
M  END
>  <reaction>  (11) 
rxn_907

>  <mol_properties>  (11) 
{"2": {"label": "*1", "atom_type": "CS"}, "3": {"label": "*0", "atom_type": "S2d"}, "7": {"label": "*4", "atom_type": "Cs"}, "8": {"label": "*3", "atom_type": "Cs"}, "12": {"label": "*2", "atom_type": "H0"}}

>  <type>  (11) 
unop_7

>  <geom_source>  (11) 
Heuristics

$$$$

     RDKit          3D

 15 13  0  0  0  0  0  0  0  0999 V2000
   -2.2200    0.9158   -0.3781 C   0  0  0  0  0  0  0  0  0  0  0  0
   -1.2173    1.1067    0.4775 C   0  0  0  0  0  0  0  0  0  0  0  0
    0.0989    0.5375    0.2560 C   0  0  0  0  0  3  0  0  0  0  0  0
    1.3693    0.7157    1.2353 S   0  0  0  0  0  0  0  0  0  0  0  0
   -3.2000    1.3426   -0.2081 H   0  0  0  0  0  0  0  0  0  0  0  0
   -2.0879    0.3240   -1.2771 H   0  0  0  0  0  0  0  0  0  0  0  0
   -1.3497    1.6985    1.3764 H   0  0  0  0  0  0  0  0  0  0  0  0
    0.0989   -1.9036   -2.2168 C   0  0  0  0  0  0  0  0  0  0  0  0
    0.0989   -1.9036   -0.6941 C   0  0  0  0  0  0  0  0  0  0  0  0
   -0.7820   -1.3951   -2.6127 H   0  0  0  0  0  0  0  0  0  0  0  0
    0.9797   -1.3951   -2.6127 H   0  0  0  0  0  0  0  0  0  0  0  0
    0.0989   -2.9207   -2.6127 H   0  0  0  0  0  0  0  0  0  0  0  0
    0.0989   -0.6831   -0.2190 H   0  0  0  0  0  0  0  0  0  0  0  0
    0.9797   -2.4122   -0.2982 H   0  0  0  0  0  0  0  0  0  0  0  0
   -0.7820   -2.4122   -0.2982 H   0  0  0  0  0  0  0  0  0  0  0  0
  1  2  2  3
  1  5  1  0
  1  6  1  0
  2  3  1  0
  2  7  1  0
  3  4  2  0
  8  9  1  0
  8 10  1  0
  8 11  1  0
  8 12  1  0
  9 13  1  0
  9 14  1  0
  9 15  1  0
M  RAD  1   3   2
M  END
>  <reaction>  (12) 
rxn_907

>  <mol_properties>  (12) 
{"2": {"label": "*1", "atom_type": "CS"}, "3": {"label": "*0", "atom_type": "S2d"}, "7": {"label": "*4", "atom_type": "Cs"}, "8": {"label": "*3", "atom_type": "Cs"}, "12": {"label": "*2", "atom_type": "H0"}}

>  <type>  (12) 
unop_8

>  <geom_source>  (12) 
Heuristics

$$$$

     RDKit          3D

 15 13  0  0  0  0  0  0  0  0999 V2000
    0.7955    1.1804   -1.7076 C   0  0  0  0  0  0  0  0  0  0  0  0
    0.5498    1.4082   -0.4185 C   0  0  0  0  0  0  0  0  0  0  0  0
   -0.1082    0.4256    0.4222 C   0  0  0  0  0  3  0  0  0  0  0  0
   -0.4456    0.6145    1.9891 S   0  0  0  0  0  0  0  0  0  0  0  0
    1.2868    1.9167   -2.3304 H   0  0  0  0  0  0  0  0  0  0  0  0
    0.5106    0.2460   -2.1783 H   0  0  0  0  0  0  0  0  0  0  0  0
    0.8349    2.3426    0.0519 H   0  0  0  0  0  0  0  0  0  0  0  0
   -0.1082   -2.0156   -2.0506 C   0  0  0  0  0  0  0  0  0  0  0  0
   -0.1082   -2.0156   -0.5279 C   0  0  0  0  0  0  0  0  0  0  0  0
   -0.9891   -1.5070   -2.4465 H   0  0  0  0  0  0  0  0  0  0  0  0
    0.7726   -1.5070   -2.4465 H   0  0  0  0  0  0  0  0  0  0  0  0
   -0.1082   -3.0327   -2.4465 H   0  0  0  0  0  0  0  0  0  0  0  0
   -0.1082   -0.7950   -0.0528 H   0  0  0  0  0  0  0  0  0  0  0  0
    0.7726   -2.5241   -0.1320 H   0  0  0  0  0  0  0  0  0  0  0  0
   -0.9891   -2.5241   -0.1320 H   0  0  0  0  0  0  0  0  0  0  0  0
  1  2  2  3
  1  5  1  0
  1  6  1  0
  2  3  1  0
  2  7  1  0
  3  4  2  0
  8  9  1  0
  8 10  1  0
  8 11  1  0
  8 12  1  0
  9 13  1  0
  9 14  1  0
  9 15  1  0
M  RAD  1   3   2
M  END
>  <reaction>  (13) 
rxn_907

>  <mol_properties>  (13) 
{"2": {"label": "*1", "atom_type": "CS"}, "3": {"label": "*0", "atom_type": "S2d"}, "7": {"label": "*4", "atom_type": "Cs"}, "8": {"label": "*3", "atom_type": "Cs"}, "12": {"label": "*2", "atom_type": "H0"}}

>  <type>  (13) 
unop_9

>  <geom_source>  (13) 
Heuristics

$$$$

     RDKit          3D

 15 13  0  0  0  0  0  0  0  0999 V2000
   -1.5997    1.1325   -1.2310 C   0  0  0  0  0  0  0  0  0  0  0  0
   -0.9938    1.2927   -0.0557 C   0  0  0  0  0  0  0  0  0  0  0  0
    0.1460    0.4849    0.3360 C   0  0  0  0  0  3  0  0  0  0  0  0
    0.9404    0.6086    1.7354 S   0  0  0  0  0  0  0  0  0  0  0  0
   -2.4497    1.7378   -1.5184 H   0  0  0  0  0  0  0  0  0  0  0  0
   -1.2606    0.3874   -1.9422 H   0  0  0  0  0  0  0  0  0  0  0  0
   -1.3332    2.0378    0.6551 H   0  0  0  0  0  0  0  0  0  0  0  0
    0.1460   -1.9563   -2.1368 C   0  0  0  0  0  0  0  0  0  0  0  0
    0.1460   -1.9563   -0.6141 C   0  0  0  0  0  0  0  0  0  0  0  0
   -0.7349   -1.4477   -2.5327 H   0  0  0  0  0  0  0  0  0  0  0  0
    1.0268   -1.4477   -2.5327 H   0  0  0  0  0  0  0  0  0  0  0  0
    0.1460   -2.9734   -2.5327 H   0  0  0  0  0  0  0  0  0  0  0  0
    0.1460   -0.7358   -0.1390 H   0  0  0  0  0  0  0  0  0  0  0  0
    1.0268   -2.4649   -0.2182 H   0  0  0  0  0  0  0  0  0  0  0  0
   -0.7349   -2.4649   -0.2182 H   0  0  0  0  0  0  0  0  0  0  0  0
  1  2  2  3
  1  5  1  0
  1  6  1  0
  2  3  1  0
  2  7  1  0
  3  4  2  0
  8  9  1  0
  8 10  1  0
  8 11  1  0
  8 12  1  0
  9 13  1  0
  9 14  1  0
  9 15  1  0
M  RAD  1   3   2
M  END
>  <reaction>  (14) 
rxn_907

>  <mol_properties>  (14) 
{"2": {"label": "*1", "atom_type": "CS"}, "3": {"label": "*0", "atom_type": "S2d"}, "7": {"label": "*4", "atom_type": "Cs"}, "8": {"label": "*3", "atom_type": "Cs"}, "12": {"label": "*2", "atom_type": "H0"}}

>  <type>  (14) 
unop_10

>  <geom_source>  (14) 
Heuristics

$$$$

     RDKit          3D

 15 13  0  0  0  0  0  0  0  0999 V2000
    1.7613   -0.0974    1.9132 C   0  0  0  0  0  0  0  0  0  0  0  0
    0.7304    0.6654    1.5533 C   0  0  0  0  0  0  0  0  0  0  0  0
    0.0723    0.5096    0.2696 C   0  0  0  0  0  3  0  0  0  0  0  0
   -1.1797    1.3859   -0.2495 S   0  0  0  0  0  0  0  0  0  0  0  0
    2.2486    0.0229    2.8720 H   0  0  0  0  0  0  0  0  0  0  0  0
    2.1484   -0.8675    1.2552 H   0  0  0  0  0  0  0  0  0  0  0  0
    0.3435    1.4353    2.2115 H   0  0  0  0  0  0  0  0  0  0  0  0
    0.0723   -1.9316   -2.2033 C   0  0  0  0  0  0  0  0  0  0  0  0
    0.0723   -1.9316   -0.6805 C   0  0  0  0  0  0  0  0  0  0  0  0
   -0.8086   -1.4230   -2.5991 H   0  0  0  0  0  0  0  0  0  0  0  0
    0.9531   -1.4231   -2.5991 H   0  0  0  0  0  0  0  0  0  0  0  0
    0.0723   -2.9487   -2.5991 H   0  0  0  0  0  0  0  0  0  0  0  0
    0.0723   -0.7111   -0.2055 H   0  0  0  0  0  0  0  0  0  0  0  0
    0.9531   -2.4402   -0.2846 H   0  0  0  0  0  0  0  0  0  0  0  0
   -0.8086   -2.4402   -0.2846 H   0  0  0  0  0  0  0  0  0  0  0  0
  1  2  2  3
  1  5  1  0
  1  6  1  0
  2  3  1  0
  2  7  1  0
  3  4  2  0
  8  9  1  0
  8 10  1  0
  8 11  1  0
  8 12  1  0
  9 13  1  0
  9 14  1  0
  9 15  1  0
M  RAD  1   3   2
M  END
>  <reaction>  (15) 
rxn_907

>  <mol_properties>  (15) 
{"2": {"label": "*1", "atom_type": "CS"}, "3": {"label": "*0", "atom_type": "S2d"}, "7": {"label": "*4", "atom_type": "Cs"}, "8": {"label": "*3", "atom_type": "Cs"}, "12": {"label": "*2", "atom_type": "H0"}}

>  <type>  (15) 
unop_11

>  <geom_source>  (15) 
Heuristics

$$$$

     RDKit          3D

 15 13  0  0  0  0  0  0  0  0999 V2000
   -0.0000    1.1699   -1.8481 C   0  0  0  0  0  0  0  0  0  0  0  0
   -0.0000    1.4452   -0.5449 C   0  0  0  0  0  0  0  0  0  0  0  0
   -0.0000    0.3987    0.4601 C   0  0  0  0  0  3  0  0  0  0  0  0
    0.0000    0.6379    2.0562 S   0  0  0  0  0  0  0  0  0  0  0  0
   -0.0000    1.9543   -2.5937 H   0  0  0  0  0  0  0  0  0  0  0  0
   -0.0000    0.1467   -2.2072 H   0  0  0  0  0  0  0  0  0  0  0  0
   -0.0000    2.4684   -0.1862 H   0  0  0  0  0  0  0  0  0  0  0  0
   -0.0000   -2.0425   -2.0128 C   0  0  0  0  0  0  0  0  0  0  0  0
   -0.0000   -2.0425   -0.4900 C   0  0  0  0  0  0  0  0  0  0  0  0
   -0.8808   -1.5339   -2.4086 H   0  0  0  0  0  0  0  0  0  0  0  0
    0.8808   -1.5339   -2.4086 H   0  0  0  0  0  0  0  0  0  0  0  0
   -0.0000   -3.0596   -2.4086 H   0  0  0  0  0  0  0  0  0  0  0  0
   -0.0000   -0.8220   -0.0149 H   0  0  0  0  0  0  0  0  0  0  0  0
    0.8808   -2.5510   -0.0941 H   0  0  0  0  0  0  0  0  0  0  0  0
   -0.8808   -2.5510   -0.0941 H   0  0  0  0  0  0  0  0  0  0  0  0
  1  2  2  3
  1  5  1  0
  1  6  1  0
  2  3  1  0
  2  7  1  0
  3  4  2  0
  8  9  1  0
  8 10  1  0
  8 11  1  0
  8 12  1  0
  9 13  1  0
  9 14  1  0
  9 15  1  0
M  RAD  1   3   2
M  END
>  <reaction>  (16) 
rxn_907

>  <mol_properties>  (16) 
{"2": {"label": "*1", "atom_type": "CS"}, "3": {"label": "*0", "atom_type": "S2d"}, "7": {"label": "*4", "atom_type": "Cs"}, "8": {"label": "*3", "atom_type": "Cs"}, "12": {"label": "*2", "atom_type": "H0"}}

>  <type>  (16) 
unop_12

>  <geom_source>  (16) 
Heuristics

$$$$

     RDKit          3D

 15 13  0  0  0  0  0  0  0  0999 V2000
    0.7840   -1.3194   -2.5900 S   0  0  0  0  0  0  0  0  0  0  0  0
   -2.0423    0.2636    0.7929 C   0  0  0  0  0  0  0  0  0  0  0  0
    2.0167   -0.7755   -0.2608 C   0  0  0  0  0  0  0  0  0  0  0  0
   -1.2363    0.7489   -0.3977 C   0  0  0  0  0  0  0  0  0  0  0  0
    2.1298   -0.1169    0.8877 C   0  0  0  0  0  0  0  0  0  0  0  0
    0.9094   -0.5010   -1.1813 C   0  0  0  0  0  3  0  0  0  0  0  0
   -3.1223    0.4584    0.6235 H   0  0  0  0  0  0  0  0  0  0  0  0
   -1.7120    0.7973    1.7082 H   0  0  0  0  0  0  0  0  0  0  0  0
   -1.8830   -0.8261    0.9307 H   0  0  0  0  0  0  0  0  0  0  0  0
    2.7556   -1.5254   -0.5166 H   0  0  0  0  0  0  0  0  0  0  0  0
   -1.5550    0.2130   -1.3165 H   0  0  0  0  0  0  0  0  0  0  0  0
   -1.3836    1.8407   -0.5369 H   0  0  0  0  0  0  0  0  0  0  0  0
    2.9538   -0.3324    1.5555 H   0  0  0  0  0  0  0  0  0  0  0  0
    1.4090    0.6389    1.1747 H   0  0  0  0  0  0  0  0  0  0  0  0
   -0.0237    0.4360   -0.8734 H   0  0  0  0  0  0  0  0  0  0  0  0
  1  6  2  0
  2  4  1  0
  2  7  1  0
  2  8  1  0
  2  9  1  0
  3  5  2  3
  3  6  1  0
  3 10  1  0
  4 11  1  0
  4 12  1  0
  4 15  1  0
  5 13  1  0
  5 14  1  0
M  RAD  1   6   2
M  END
>  <reaction>  (17) 
rxn_907

>  <mol_properties>  (17) 
{"2": {"label": "*1", "atom_type": "CS"}, "3": {"label": "*0", "atom_type": "S2d"}, "7": {"label": "*4", "atom_type": "Cs"}, "8": {"label": "*3", "atom_type": "Cs"}, "12": {"label": "*2", "atom_type": "H0"}}

>  <type>  (17) 
unop_13

>  <geom_source>  (17) 
AutoTST

$$$$
