
     RDKit          3D

 12 11  0  0  0  0  0  0  0  0999 V2000
    1.2394   -0.3763   -0.3020 C   0  0  0  0  0  0  0  0  0  0  0  0
    0.1007    0.3023    0.4464 C   0  0  0  0  0  0  0  0  0  0  0  0
   -0.1187    2.0399   -0.0725 S   0  0  0  0  0  0  0  0  0  0  0  0
   -1.1974   -0.4877    0.3552 C   0  0  0  0  0  0  0  0  0  0  0  0
    2.1681    0.1849   -0.2048 H   0  0  0  0  0  0  0  0  0  0  0  0
    1.0031   -0.4606   -1.3656 H   0  0  0  0  0  0  0  0  0  0  0  0
    1.3994   -1.3856    0.0860 H   0  0  0  0  0  0  0  0  0  0  0  0
    0.3796    0.4050    1.4981 H   0  0  0  0  0  0  0  0  0  0  0  0
   -0.4500    1.7779   -1.3452 H   0  0  0  0  0  0  0  0  0  0  0  0
   -1.0545   -1.4978    0.7479 H   0  0  0  0  0  0  0  0  0  0  0  0
   -1.5206   -0.5759   -0.6849 H   0  0  0  0  0  0  0  0  0  0  0  0
   -1.9957   -0.0054    0.9183 H   0  0  0  0  0  0  0  0  0  0  0  0
  1  2  1  0
  1  5  1  0
  1  6  1  0
  1  7  1  0
  2  4  1  0
  2  3  1  0
  2  8  1  0
  3  9  1  0
  4 10  1  0
  4 11  1  0
  4 12  1  0
M  END
>  <reaction>  (1) 
rxn_1949

>  <mol_properties>  (1) 
{"1": {"label": "donator", "atom_type": "Cs"}, "7": {"label": "d_hydrogen", "atom_type": "H0"}}

>  <type>  (1) 
r1h

$$$$

     RDKit          3D

  5  4  0  0  0  0  0  0  0  0999 V2000
    2.6236   -0.7239   -0.0480 S   0  0  0  0  0  0  0  0  0  0  0  0
    1.1387   -0.3127    0.0749 C   0  0  0  0  0  3  0  0  0  0  0  0
   -0.1295    0.0381    0.1799 C   0  0  0  0  0  0  0  0  0  0  0  0
   -1.3055    0.3633    0.2773 C   0  0  0  0  0  0  0  0  0  0  0  0
   -2.3276    0.6458    0.3620 H   0  0  0  0  0  0  0  0  0  0  0  0
  1  2  2  0
  2  3  1  0
  3  4  3  0
  4  5  1  0
M  RAD  1   2   2
M  END
>  <reaction>  (2) 
rxn_1949

>  <mol_properties>  (2) 
{"1": {"label": "acceptor", "atom_type": "CS"}}

>  <type>  (2) 
r2

$$$$

     RDKit          3D

  6  5  0  0  0  0  0  0  0  0999 V2000
   -1.9761    1.0978   -0.6585 S   0  0  0  0  0  0  0  0  0  0  0  0
   -1.0502    0.0275    0.1158 C   0  0  0  0  0  0  0  0  0  0  0  0
    0.3587   -0.0566   -0.0000 C   0  0  0  0  0  0  0  0  0  0  0  0
    1.5530   -0.1477   -0.0815 C   0  0  0  0  0  0  0  0  0  0  0  0
   -1.4972   -0.7045    0.7881 H   0  0  0  0  0  0  0  0  0  0  0  0
    2.6118   -0.2165   -0.1639 H   0  0  0  0  0  0  0  0  0  0  0  0
  1  2  2  0
  2  3  1  0
  2  5  1  0
  3  4  3  0
  4  6  1  0
M  END
>  <reaction>  (3) 
rxn_1949

>  <mol_properties>  (3) 
{"1": {"label": "acceptor", "atom_type": "CS"}, "5": {"label": "a_hydrogen", "atom_type": "H0"}}

>  <type>  (3) 
r2h

$$$$

     RDKit          3D

 17 15  0  0  0  0  0  0  0  0999 V2000
   -0.8311   -0.7028    1.8861 S   0  0  0  0  0  0  0  0  0  0  0  0
   -1.0664   -0.2169    0.3838 C   0  0  0  0  0  0  0  0  0  0  0  0
   -2.2409   -0.0295   -0.3448 C   0  0  0  0  0  0  0  0  0  0  0  0
   -3.1891    0.1612   -1.0633 C   0  0  0  0  0  0  0  0  0  0  0  0
   -4.0465    0.3179   -1.6738 H   0  0  0  0  0  0  0  0  0  0  0  0
    0.7912    0.9921   -2.2585 C   0  0  0  0  0  0  0  0  0  0  0  0
    1.1219    0.7895   -0.8007 C   0  0  0  0  0  3  0  0  0  0  0  0
    2.3798   -0.4480   -0.5792 S   0  0  0  0  0  0  0  0  0  0  0  0
    1.2802    2.0482    0.0127 C   0  0  0  0  0  0  0  0  0  0  0  0
    0.6092    0.0432   -2.7649 H   0  0  0  0  0  0  0  0  0  0  0  0
    1.6040    1.5076   -2.7805 H   0  0  0  0  0  0  0  0  0  0  0  0
   -0.1072    1.6054   -2.3508 H   0  0  0  0  0  0  0  0  0  0  0  0
    0.0114    0.2119   -0.2799 H   0  0  0  0  0  0  0  0  0  0  0  0
    2.4212   -0.3964    0.7595 H   0  0  0  0  0  0  0  0  0  0  0  0
    0.4077    2.6922   -0.1220 H   0  0  0  0  0  0  0  0  0  0  0  0
    2.1685    2.6061   -0.2984 H   0  0  0  0  0  0  0  0  0  0  0  0
    1.3747    1.8248    1.0768 H   0  0  0  0  0  0  0  0  0  0  0  0
  1  2  2  0
  2  3  1  0
  2 13  1  0
  3  4  3  0
  4  5  1  0
  6  7  1  0
  6 10  1  0
  6 11  1  0
  6 12  1  0
  7  9  1  0
  7  8  1  0
  8 14  1  0
  9 15  1  0
  9 16  1  0
  9 17  1  0
M  RAD  1   7   2
M  END
>  <reaction>  (4) 
rxn_1949

>  <mol_properties>  (4) 
{"0": {"label": "*0", "atom_type": "S2d"}, "1": {"label": "*1", "atom_type": "CS"}, "6": {"label": "*3", "atom_type": "Cs"}, "7": {"label": "*4", "atom_type": "S2s"}, "12": {"label": "*2", "atom_type": "H0"}}

>  <type>  (4) 
ts

$$$$

     RDKit          3D

 17 15  0  0  0  0  0  0  0  0999 V2000
   -1.0864   -1.8812    1.0537 S   0  0  0  0  0  0  0  0  0  0  0  0
   -1.2287   -0.5657    0.1310 C   0  0  0  0  0  0  0  0  0  0  0  0
   -2.1335    0.4969    0.3715 C   0  0  0  0  0  0  0  0  0  0  0  0
   -2.8916    1.4097    0.5542 C   0  0  0  0  0  0  0  0  0  0  0  0
   -3.5636    2.2189    0.7161 H   0  0  0  0  0  0  0  0  0  0  0  0
    0.9040    0.6963   -2.2401 C   0  0  0  0  0  0  0  0  0  0  0  0
    0.9040    0.6963   -0.7177 C   0  0  0  0  0  3  0  0  0  0  0  0
    2.2590   -0.3202   -0.0341 S   0  0  0  0  0  0  0  0  0  0  0  0
    0.9040    2.1062   -0.1437 C   0  0  0  0  0  0  0  0  0  0  0  0
    0.8754   -0.3180   -2.6367 H   0  0  0  0  0  0  0  0  0  0  0  0
    1.8024    1.1860   -2.6237 H   0  0  0  0  0  0  0  0  0  0  0  0
    0.0370    1.2437   -2.6189 H   0  0  0  0  0  0  0  0  0  0  0  0
   -0.1639    0.0644   -0.2927 H   0  0  0  0  0  0  0  0  0  0  0  0
    3.2653    0.4153   -0.5288 H   0  0  0  0  0  0  0  0  0  0  0  0
    0.0370    2.6635   -0.5078 H   0  0  0  0  0  0  0  0  0  0  0  0
    1.8024    2.6462   -0.4526 H   0  0  0  0  0  0  0  0  0  0  0  0
    0.8754    2.0911    0.9453 H   0  0  0  0  0  0  0  0  0  0  0  0
  1  2  2  0
  2  3  1  0
  2 13  1  0
  3  4  3  0
  4  5  1  0
  6  7  1  0
  6 10  1  0
  6 11  1  0
  6 12  1  0
  7  9  1  0
  7  8  1  0
  8 14  1  0
  9 15  1  0
  9 16  1  0
  9 17  1  0
M  RAD  1   7   2
M  END
>  <reaction>  (5) 
rxn_1949

>  <mol_properties>  (5) 
{"0": {"label": "*0", "atom_type": "S2d"}, "1": {"label": "*1", "atom_type": "CS"}, "6": {"label": "*3", "atom_type": "Cs"}, "7": {"label": "*4", "atom_type": "S2s"}, "12": {"label": "*2", "atom_type": "H0"}}

>  <type>  (5) 
unop_1

>  <geom_source>  (5) 
Heuristics

$$$$

     RDKit          3D

 17 15  0  0  0  0  0  0  0  0999 V2000
   -1.8670   -1.5722   -0.6374 S   0  0  0  0  0  0  0  0  0  0  0  0
   -1.2201   -0.3812    0.2376 C   0  0  0  0  0  0  0  0  0  0  0  0
   -1.4755   -0.1570    1.6124 C   0  0  0  0  0  0  0  0  0  0  0  0
   -1.6759    0.0534    2.7772 C   0  0  0  0  0  0  0  0  0  0  0  0
   -1.8536    0.2400    3.8098 H   0  0  0  0  0  0  0  0  0  0  0  0
    0.9126    0.8807   -2.1335 C   0  0  0  0  0  0  0  0  0  0  0  0
    0.9126    0.8807   -0.6111 C   0  0  0  0  0  3  0  0  0  0  0  0
    2.2676   -0.1357    0.0725 S   0  0  0  0  0  0  0  0  0  0  0  0
    0.9126    2.2907   -0.0371 C   0  0  0  0  0  0  0  0  0  0  0  0
    0.8840   -0.1336   -2.5301 H   0  0  0  0  0  0  0  0  0  0  0  0
    1.8110    1.3704   -2.5171 H   0  0  0  0  0  0  0  0  0  0  0  0
    0.0456    1.4281   -2.5123 H   0  0  0  0  0  0  0  0  0  0  0  0
   -0.1553    0.2488   -0.1862 H   0  0  0  0  0  0  0  0  0  0  0  0
    3.2738    0.5998   -0.4222 H   0  0  0  0  0  0  0  0  0  0  0  0
    0.0456    2.8479   -0.4013 H   0  0  0  0  0  0  0  0  0  0  0  0
    1.8110    2.8306   -0.3460 H   0  0  0  0  0  0  0  0  0  0  0  0
    0.8840    2.2756    1.0519 H   0  0  0  0  0  0  0  0  0  0  0  0
  1  2  2  0
  2  3  1  0
  2 13  1  0
  3  4  3  0
  4  5  1  0
  6  7  1  0
  6 10  1  0
  6 11  1  0
  6 12  1  0
  7  9  1  0
  7  8  1  0
  8 14  1  0
  9 15  1  0
  9 16  1  0
  9 17  1  0
M  RAD  1   7   2
M  END
>  <reaction>  (6) 
rxn_1949

>  <mol_properties>  (6) 
{"0": {"label": "*0", "atom_type": "S2d"}, "1": {"label": "*1", "atom_type": "CS"}, "6": {"label": "*3", "atom_type": "Cs"}, "7": {"label": "*4", "atom_type": "S2s"}, "12": {"label": "*2", "atom_type": "H0"}}

>  <type>  (6) 
unop_2

>  <geom_source>  (6) 
Heuristics

$$$$

     RDKit          3D

 17 15  0  0  0  0  0  0  0  0999 V2000
   -1.1248   -1.3839    1.6193 S   0  0  0  0  0  0  0  0  0  0  0  0
   -1.1499   -0.5905    0.2149 C   0  0  0  0  0  0  0  0  0  0  0  0
   -2.2653    0.1184   -0.2939 C   0  0  0  0  0  0  0  0  0  0  0  0
   -3.1969    0.7258   -0.7460 C   0  0  0  0  0  0  0  0  0  0  0  0
   -4.0228    1.2642   -1.1469 H   0  0  0  0  0  0  0  0  0  0  0  0
    0.9828    0.6714   -2.1562 C   0  0  0  0  0  0  0  0  0  0  0  0
    0.9828    0.6714   -0.6339 C   0  0  0  0  0  3  0  0  0  0  0  0
    2.3379   -0.3450    0.0498 S   0  0  0  0  0  0  0  0  0  0  0  0
    0.9828    2.0814   -0.0598 C   0  0  0  0  0  0  0  0  0  0  0  0
    0.9542   -0.3429   -2.5529 H   0  0  0  0  0  0  0  0  0  0  0  0
    1.8813    1.1611   -2.5398 H   0  0  0  0  0  0  0  0  0  0  0  0
    0.1159    1.2188   -2.5350 H   0  0  0  0  0  0  0  0  0  0  0  0
   -0.0851    0.0395   -0.2089 H   0  0  0  0  0  0  0  0  0  0  0  0
    3.3441    0.3905   -0.4449 H   0  0  0  0  0  0  0  0  0  0  0  0
    0.1159    2.6386   -0.4240 H   0  0  0  0  0  0  0  0  0  0  0  0
    1.8813    2.6213   -0.3687 H   0  0  0  0  0  0  0  0  0  0  0  0
    0.9542    2.0663    1.0291 H   0  0  0  0  0  0  0  0  0  0  0  0
  1  2  2  0
  2  3  1  0
  2 13  1  0
  3  4  3  0
  4  5  1  0
  6  7  1  0
  6 10  1  0
  6 11  1  0
  6 12  1  0
  7  9  1  0
  7  8  1  0
  8 14  1  0
  9 15  1  0
  9 16  1  0
  9 17  1  0
M  RAD  1   7   2
M  END
>  <reaction>  (7) 
rxn_1949

>  <mol_properties>  (7) 
{"0": {"label": "*0", "atom_type": "S2d"}, "1": {"label": "*1", "atom_type": "CS"}, "6": {"label": "*3", "atom_type": "Cs"}, "7": {"label": "*4", "atom_type": "S2s"}, "12": {"label": "*2", "atom_type": "H0"}}

>  <type>  (7) 
unop_3

>  <geom_source>  (7) 
Heuristics

$$$$

     RDKit          3D

 17 15  0  0  0  0  0  0  0  0999 V2000
   -2.6595   -0.0078   -0.2205 S   0  0  0  0  0  0  0  0  0  0  0  0
   -1.1870   -0.5362    0.1728 C   0  0  0  0  0  0  0  0  0  0  0  0
   -0.8587   -1.1869    1.3871 C   0  0  0  0  0  0  0  0  0  0  0  0
   -0.5558   -1.7403    2.4085 C   0  0  0  0  0  0  0  0  0  0  0  0
   -0.2874   -2.2310    3.3140 H   0  0  0  0  0  0  0  0  0  0  0  0
    0.9457    0.7257   -2.1982 C   0  0  0  0  0  0  0  0  0  0  0  0
    0.9457    0.7257   -0.6759 C   0  0  0  0  0  3  0  0  0  0  0  0
    2.3007   -0.2907    0.0077 S   0  0  0  0  0  0  0  0  0  0  0  0
    0.9457    2.1357   -0.1019 C   0  0  0  0  0  0  0  0  0  0  0  0
    0.9171   -0.2885   -2.5949 H   0  0  0  0  0  0  0  0  0  0  0  0
    1.8441    1.2154   -2.5819 H   0  0  0  0  0  0  0  0  0  0  0  0
    0.0787    1.2731   -2.5770 H   0  0  0  0  0  0  0  0  0  0  0  0
   -0.1222    0.0938   -0.2509 H   0  0  0  0  0  0  0  0  0  0  0  0
    3.3070    0.4448   -0.4870 H   0  0  0  0  0  0  0  0  0  0  0  0
    0.0787    2.6929   -0.4660 H   0  0  0  0  0  0  0  0  0  0  0  0
    1.8441    2.6756   -0.4108 H   0  0  0  0  0  0  0  0  0  0  0  0
    0.9171    2.1206    0.9871 H   0  0  0  0  0  0  0  0  0  0  0  0
  1  2  2  0
  2  3  1  0
  2 13  1  0
  3  4  3  0
  4  5  1  0
  6  7  1  0
  6 10  1  0
  6 11  1  0
  6 12  1  0
  7  9  1  0
  7  8  1  0
  8 14  1  0
  9 15  1  0
  9 16  1  0
  9 17  1  0
M  RAD  1   7   2
M  END
>  <reaction>  (8) 
rxn_1949

>  <mol_properties>  (8) 
{"0": {"label": "*0", "atom_type": "S2d"}, "1": {"label": "*1", "atom_type": "CS"}, "6": {"label": "*3", "atom_type": "Cs"}, "7": {"label": "*4", "atom_type": "S2s"}, "12": {"label": "*2", "atom_type": "H0"}}

>  <type>  (8) 
unop_4

>  <geom_source>  (8) 
Heuristics

$$$$

     RDKit          3D

 17 15  0  0  0  0  0  0  0  0999 V2000
   -1.4302   -0.5875    1.8873 S   0  0  0  0  0  0  0  0  0  0  0  0
   -1.1530   -0.4234    0.3066 C   0  0  0  0  0  0  0  0  0  0  0  0
   -1.9943   -0.9213   -0.7181 C   0  0  0  0  0  0  0  0  0  0  0  0
   -2.6912   -1.3336   -1.6044 C   0  0  0  0  0  0  0  0  0  0  0  0
   -3.3090   -1.6992   -2.3901 H   0  0  0  0  0  0  0  0  0  0  0  0
    0.9797    0.8385   -2.0645 C   0  0  0  0  0  0  0  0  0  0  0  0
    0.9797    0.8385   -0.5421 C   0  0  0  0  0  3  0  0  0  0  0  0
    2.3347   -0.1779    0.1415 S   0  0  0  0  0  0  0  0  0  0  0  0
    0.9797    2.2485    0.0319 C   0  0  0  0  0  0  0  0  0  0  0  0
    0.9511   -0.1758   -2.4611 H   0  0  0  0  0  0  0  0  0  0  0  0
    1.8781    1.3282   -2.4481 H   0  0  0  0  0  0  0  0  0  0  0  0
    0.1127    1.3859   -2.4433 H   0  0  0  0  0  0  0  0  0  0  0  0
   -0.0882    0.2066   -0.1172 H   0  0  0  0  0  0  0  0  0  0  0  0
    3.3410    0.5576   -0.3532 H   0  0  0  0  0  0  0  0  0  0  0  0
    0.1127    2.8057   -0.3323 H   0  0  0  0  0  0  0  0  0  0  0  0
    1.8781    2.7884   -0.2770 H   0  0  0  0  0  0  0  0  0  0  0  0
    0.9511    2.2334    1.1209 H   0  0  0  0  0  0  0  0  0  0  0  0
  1  2  2  0
  2  3  1  0
  2 13  1  0
  3  4  3  0
  4  5  1  0
  6  7  1  0
  6 10  1  0
  6 11  1  0
  6 12  1  0
  7  9  1  0
  7  8  1  0
  8 14  1  0
  9 15  1  0
  9 16  1  0
  9 17  1  0
M  RAD  1   7   2
M  END
>  <reaction>  (9) 
rxn_1949

>  <mol_properties>  (9) 
{"0": {"label": "*0", "atom_type": "S2d"}, "1": {"label": "*1", "atom_type": "CS"}, "6": {"label": "*3", "atom_type": "Cs"}, "7": {"label": "*4", "atom_type": "S2s"}, "12": {"label": "*2", "atom_type": "H0"}}

>  <type>  (9) 
unop_5

>  <geom_source>  (9) 
Heuristics

$$$$

     RDKit          3D

 17 15  0  0  0  0  0  0  0  0999 V2000
   -2.6299    0.2995    0.3882 S   0  0  0  0  0  0  0  0  0  0  0  0
   -1.2564   -0.5041    0.1235 C   0  0  0  0  0  0  0  0  0  0  0  0
   -0.7390   -1.5202    0.9635 C   0  0  0  0  0  0  0  0  0  0  0  0
   -0.2802   -2.3841    1.6595 C   0  0  0  0  0  0  0  0  0  0  0  0
    0.1265   -3.1499    2.2765 H   0  0  0  0  0  0  0  0  0  0  0  0
    0.8763    0.7578   -2.2476 C   0  0  0  0  0  0  0  0  0  0  0  0
    0.8763    0.7578   -0.7252 C   0  0  0  0  0  3  0  0  0  0  0  0
    2.2313   -0.2586   -0.0416 S   0  0  0  0  0  0  0  0  0  0  0  0
    0.8763    2.1678   -0.1512 C   0  0  0  0  0  0  0  0  0  0  0  0
    0.8477   -0.2564   -2.6442 H   0  0  0  0  0  0  0  0  0  0  0  0
    1.7747    1.2475   -2.6312 H   0  0  0  0  0  0  0  0  0  0  0  0
    0.0093    1.3052   -2.6264 H   0  0  0  0  0  0  0  0  0  0  0  0
   -0.1916    0.1259   -0.3003 H   0  0  0  0  0  0  0  0  0  0  0  0
    3.2376    0.4769   -0.5363 H   0  0  0  0  0  0  0  0  0  0  0  0
    0.0093    2.7250   -0.5154 H   0  0  0  0  0  0  0  0  0  0  0  0
    1.7747    2.7077   -0.4601 H   0  0  0  0  0  0  0  0  0  0  0  0
    0.8477    2.1527    0.9378 H   0  0  0  0  0  0  0  0  0  0  0  0
  1  2  2  0
  2  3  1  0
  2 13  1  0
  3  4  3  0
  4  5  1  0
  6  7  1  0
  6 10  1  0
  6 11  1  0
  6 12  1  0
  7  9  1  0
  7  8  1  0
  8 14  1  0
  9 15  1  0
  9 16  1  0
  9 17  1  0
M  RAD  1   7   2
M  END
>  <reaction>  (10) 
rxn_1949

>  <mol_properties>  (10) 
{"0": {"label": "*0", "atom_type": "S2d"}, "1": {"label": "*1", "atom_type": "CS"}, "6": {"label": "*3", "atom_type": "Cs"}, "7": {"label": "*4", "atom_type": "S2s"}, "12": {"label": "*2", "atom_type": "H0"}}

>  <type>  (10) 
unop_6

>  <geom_source>  (10) 
Heuristics

$$$$

     RDKit          3D

 17 15  0  0  0  0  0  0  0  0999 V2000
   -2.3987    0.3367    1.0537 S   0  0  0  0  0  0  0  0  0  0  0  0
   -1.3141   -0.4213    0.1310 C   0  0  0  0  0  0  0  0  0  0  0  0
   -0.8182   -1.7259    0.3715 C   0  0  0  0  0  0  0  0  0  0  0  0
   -0.3830   -2.8297    0.5542 C   0  0  0  0  0  0  0  0  0  0  0  0
    0.0028   -3.8083    0.7161 H   0  0  0  0  0  0  0  0  0  0  0  0
    0.8186    0.8406   -2.2401 C   0  0  0  0  0  0  0  0  0  0  0  0
    0.8186    0.8406   -0.7177 C   0  0  0  0  0  3  0  0  0  0  0  0
    2.1736   -0.1758   -0.0341 S   0  0  0  0  0  0  0  0  0  0  0  0
    0.8186    2.2506   -0.1437 C   0  0  0  0  0  0  0  0  0  0  0  0
    0.7900   -0.1736   -2.6367 H   0  0  0  0  0  0  0  0  0  0  0  0
    1.7170    1.3304   -2.6237 H   0  0  0  0  0  0  0  0  0  0  0  0
   -0.0484    1.3881   -2.6189 H   0  0  0  0  0  0  0  0  0  0  0  0
   -0.2493    0.2088   -0.2927 H   0  0  0  0  0  0  0  0  0  0  0  0
    3.1799    0.5597   -0.5288 H   0  0  0  0  0  0  0  0  0  0  0  0
   -0.0484    2.8079   -0.5078 H   0  0  0  0  0  0  0  0  0  0  0  0
    1.7170    2.7905   -0.4526 H   0  0  0  0  0  0  0  0  0  0  0  0
    0.7900    2.2355    0.9453 H   0  0  0  0  0  0  0  0  0  0  0  0
  1  2  2  0
  2  3  1  0
  2 13  1  0
  3  4  3  0
  4  5  1  0
  6  7  1  0
  6 10  1  0
  6 11  1  0
  6 12  1  0
  7  9  1  0
  7  8  1  0
  8 14  1  0
  9 15  1  0
  9 16  1  0
  9 17  1  0
M  RAD  1   7   2
M  END
>  <reaction>  (11) 
rxn_1949

>  <mol_properties>  (11) 
{"0": {"label": "*0", "atom_type": "S2d"}, "1": {"label": "*1", "atom_type": "CS"}, "6": {"label": "*3", "atom_type": "Cs"}, "7": {"label": "*4", "atom_type": "S2s"}, "12": {"label": "*2", "atom_type": "H0"}}

>  <type>  (11) 
unop_7

>  <geom_source>  (11) 
Heuristics

$$$$

     RDKit          3D

 17 15  0  0  0  0  0  0  0  0999 V2000
   -1.2302   -2.0659    0.3882 S   0  0  0  0  0  0  0  0  0  0  0  0
   -1.2735   -0.4752    0.1235 C   0  0  0  0  0  0  0  0  0  0  0  0
   -1.9150    0.4674    0.9635 C   0  0  0  0  0  0  0  0  0  0  0  0
   -2.4515    1.2854    1.6595 C   0  0  0  0  0  0  0  0  0  0  0  0
   -2.9270    2.0105    2.2765 H   0  0  0  0  0  0  0  0  0  0  0  0
    0.8592    0.7867   -2.2476 C   0  0  0  0  0  0  0  0  0  0  0  0
    0.8592    0.7867   -0.7252 C   0  0  0  0  0  3  0  0  0  0  0  0
    2.2142   -0.2297   -0.0416 S   0  0  0  0  0  0  0  0  0  0  0  0
    0.8592    2.1967   -0.1512 C   0  0  0  0  0  0  0  0  0  0  0  0
    0.8306   -0.2275   -2.6442 H   0  0  0  0  0  0  0  0  0  0  0  0
    1.7576    1.2764   -2.6312 H   0  0  0  0  0  0  0  0  0  0  0  0
   -0.0078    1.3341   -2.6264 H   0  0  0  0  0  0  0  0  0  0  0  0
   -0.2087    0.1548   -0.3003 H   0  0  0  0  0  0  0  0  0  0  0  0
    3.2205    0.5058   -0.5363 H   0  0  0  0  0  0  0  0  0  0  0  0
   -0.0078    2.7539   -0.5154 H   0  0  0  0  0  0  0  0  0  0  0  0
    1.7576    2.7366   -0.4601 H   0  0  0  0  0  0  0  0  0  0  0  0
    0.8306    2.1816    0.9378 H   0  0  0  0  0  0  0  0  0  0  0  0
  1  2  2  0
  2  3  1  0
  2 13  1  0
  3  4  3  0
  4  5  1  0
  6  7  1  0
  6 10  1  0
  6 11  1  0
  6 12  1  0
  7  9  1  0
  7  8  1  0
  8 14  1  0
  9 15  1  0
  9 16  1  0
  9 17  1  0
M  RAD  1   7   2
M  END
>  <reaction>  (12) 
rxn_1949

>  <mol_properties>  (12) 
{"0": {"label": "*0", "atom_type": "S2d"}, "1": {"label": "*1", "atom_type": "CS"}, "6": {"label": "*3", "atom_type": "Cs"}, "7": {"label": "*4", "atom_type": "S2s"}, "12": {"label": "*2", "atom_type": "H0"}}

>  <type>  (12) 
unop_8

>  <geom_source>  (12) 
Heuristics

$$$$

     RDKit          3D

 17 15  0  0  0  0  0  0  0  0999 V2000
   -2.5036   -0.4963   -0.6374 S   0  0  0  0  0  0  0  0  0  0  0  0
   -1.1483   -0.5026    0.2376 C   0  0  0  0  0  0  0  0  0  0  0  0
   -1.0747   -0.8343    1.6124 C   0  0  0  0  0  0  0  0  0  0  0  0
   -0.9867   -1.1113    2.7772 C   0  0  0  0  0  0  0  0  0  0  0  0
   -0.9087   -1.3569    3.8098 H   0  0  0  0  0  0  0  0  0  0  0  0
    0.9844    0.7593   -2.1335 C   0  0  0  0  0  0  0  0  0  0  0  0
    0.9844    0.7593   -0.6111 C   0  0  0  0  0  3  0  0  0  0  0  0
    2.3394   -0.2571    0.0725 S   0  0  0  0  0  0  0  0  0  0  0  0
    0.9844    2.1693   -0.0371 C   0  0  0  0  0  0  0  0  0  0  0  0
    0.9558   -0.2549   -2.5301 H   0  0  0  0  0  0  0  0  0  0  0  0
    1.8828    1.2491   -2.5171 H   0  0  0  0  0  0  0  0  0  0  0  0
    0.1174    1.3068   -2.5123 H   0  0  0  0  0  0  0  0  0  0  0  0
   -0.0835    0.1275   -0.1862 H   0  0  0  0  0  0  0  0  0  0  0  0
    3.3456    0.4784   -0.4222 H   0  0  0  0  0  0  0  0  0  0  0  0
    0.1174    2.7266   -0.4013 H   0  0  0  0  0  0  0  0  0  0  0  0
    1.8828    2.7093   -0.3460 H   0  0  0  0  0  0  0  0  0  0  0  0
    0.9558    2.1542    1.0519 H   0  0  0  0  0  0  0  0  0  0  0  0
  1  2  2  0
  2  3  1  0
  2 13  1  0
  3  4  3  0
  4  5  1  0
  6  7  1  0
  6 10  1  0
  6 11  1  0
  6 12  1  0
  7  9  1  0
  7  8  1  0
  8 14  1  0
  9 15  1  0
  9 16  1  0
  9 17  1  0
M  RAD  1   7   2
M  END
>  <reaction>  (13) 
rxn_1949

>  <mol_properties>  (13) 
{"0": {"label": "*0", "atom_type": "S2d"}, "1": {"label": "*1", "atom_type": "CS"}, "6": {"label": "*3", "atom_type": "Cs"}, "7": {"label": "*4", "atom_type": "S2s"}, "12": {"label": "*2", "atom_type": "H0"}}

>  <type>  (13) 
unop_9

>  <geom_source>  (13) 
Heuristics

$$$$

     RDKit          3D

 17 15  0  0  0  0  0  0  0  0999 V2000
   -1.5138   -1.9440   -0.2205 S   0  0  0  0  0  0  0  0  0  0  0  0
   -1.2682   -0.3989    0.1728 C   0  0  0  0  0  0  0  0  0  0  0  0
   -1.6805    0.2020    1.3871 C   0  0  0  0  0  0  0  0  0  0  0  0
   -2.0199    0.7339    2.4085 C   0  0  0  0  0  0  0  0  0  0  0  0
   -2.3207    1.2054    3.3139 H   0  0  0  0  0  0  0  0  0  0  0  0
    0.8645    0.8630   -2.1982 C   0  0  0  0  0  0  0  0  0  0  0  0
    0.8645    0.8630   -0.6759 C   0  0  0  0  0  3  0  0  0  0  0  0
    2.2195   -0.1534    0.0077 S   0  0  0  0  0  0  0  0  0  0  0  0
    0.8645    2.2730   -0.1019 C   0  0  0  0  0  0  0  0  0  0  0  0
    0.8359   -0.1513   -2.5949 H   0  0  0  0  0  0  0  0  0  0  0  0
    1.7629    1.3527   -2.5819 H   0  0  0  0  0  0  0  0  0  0  0  0
   -0.0025    1.4104   -2.5770 H   0  0  0  0  0  0  0  0  0  0  0  0
   -0.2034    0.2311   -0.2509 H   0  0  0  0  0  0  0  0  0  0  0  0
    3.2258    0.5821   -0.4870 H   0  0  0  0  0  0  0  0  0  0  0  0
   -0.0025    2.8302   -0.4660 H   0  0  0  0  0  0  0  0  0  0  0  0
    1.7629    2.8129   -0.4108 H   0  0  0  0  0  0  0  0  0  0  0  0
    0.8359    2.2579    0.9871 H   0  0  0  0  0  0  0  0  0  0  0  0
  1  2  2  0
  2  3  1  0
  2 13  1  0
  3  4  3  0
  4  5  1  0
  6  7  1  0
  6 10  1  0
  6 11  1  0
  6 12  1  0
  7  9  1  0
  7  8  1  0
  8 14  1  0
  9 15  1  0
  9 16  1  0
  9 17  1  0
M  RAD  1   7   2
M  END
>  <reaction>  (14) 
rxn_1949

>  <mol_properties>  (14) 
{"0": {"label": "*0", "atom_type": "S2d"}, "1": {"label": "*1", "atom_type": "CS"}, "6": {"label": "*3", "atom_type": "Cs"}, "7": {"label": "*4", "atom_type": "S2s"}, "12": {"label": "*2", "atom_type": "H0"}}

>  <type>  (14) 
unop_10

>  <geom_source>  (14) 
Heuristics

$$$$

     RDKit          3D

 17 15  0  0  0  0  0  0  0  0999 V2000
   -1.9813    0.0636    1.6193 S   0  0  0  0  0  0  0  0  0  0  0  0
   -1.2980   -0.3402    0.2149 C   0  0  0  0  0  0  0  0  0  0  0  0
   -1.2134   -1.6592   -0.2939 C   0  0  0  0  0  0  0  0  0  0  0  0
   -1.1295   -2.7682   -0.7460 C   0  0  0  0  0  0  0  0  0  0  0  0
   -1.0551   -3.7512   -1.1469 H   0  0  0  0  0  0  0  0  0  0  0  0
    0.8347    0.9217   -2.1562 C   0  0  0  0  0  0  0  0  0  0  0  0
    0.8347    0.9217   -0.6339 C   0  0  0  0  0  3  0  0  0  0  0  0
    2.1898   -0.0947    0.0498 S   0  0  0  0  0  0  0  0  0  0  0  0
    0.8347    2.3317   -0.0598 C   0  0  0  0  0  0  0  0  0  0  0  0
    0.8061   -0.0926   -2.5529 H   0  0  0  0  0  0  0  0  0  0  0  0
    1.7331    1.4114   -2.5398 H   0  0  0  0  0  0  0  0  0  0  0  0
   -0.0322    1.4691   -2.5350 H   0  0  0  0  0  0  0  0  0  0  0  0
   -0.2332    0.2898   -0.2089 H   0  0  0  0  0  0  0  0  0  0  0  0
    3.1960    0.6408   -0.4449 H   0  0  0  0  0  0  0  0  0  0  0  0
   -0.0322    2.8889   -0.4240 H   0  0  0  0  0  0  0  0  0  0  0  0
    1.7331    2.8716   -0.3687 H   0  0  0  0  0  0  0  0  0  0  0  0
    0.8061    2.3166    1.0291 H   0  0  0  0  0  0  0  0  0  0  0  0
  1  2  2  0
  2  3  1  0
  2 13  1  0
  3  4  3  0
  4  5  1  0
  6  7  1  0
  6 10  1  0
  6 11  1  0
  6 12  1  0
  7  9  1  0
  7  8  1  0
  8 14  1  0
  9 15  1  0
  9 16  1  0
  9 17  1  0
M  RAD  1   7   2
M  END
>  <reaction>  (15) 
rxn_1949

>  <mol_properties>  (15) 
{"0": {"label": "*0", "atom_type": "S2d"}, "1": {"label": "*1", "atom_type": "CS"}, "6": {"label": "*3", "atom_type": "Cs"}, "7": {"label": "*4", "atom_type": "S2s"}, "12": {"label": "*2", "atom_type": "H0"}}

>  <type>  (15) 
unop_11

>  <geom_source>  (15) 
Heuristics

$$$$

     RDKit          3D

 17 15  0  0  0  0  0  0  0  0999 V2000
   -2.2175   -1.0533   -0.7838 S   0  0  0  0  0  0  0  0  0  0  0  0
   -1.1645   -0.4302    0.2676 C   0  0  0  0  0  0  0  0  0  0  0  0
   -1.2885   -0.5036    1.6764 C   0  0  0  0  0  0  0  0  0  0  0  0
   -1.3714   -0.5527    2.8731 C   0  0  0  0  0  0  0  0  0  0  0  0
   -1.4449   -0.5962    3.9339 H   0  0  0  0  0  0  0  0  0  0  0  0
    0.9682    0.8317   -2.1035 C   0  0  0  0  0  0  0  0  0  0  0  0
    0.9682    0.8317   -0.5812 C   0  0  0  0  0  3  0  0  0  0  0  0
    2.3232   -0.1847    0.1024 S   0  0  0  0  0  0  0  0  0  0  0  0
    0.9682    2.2417   -0.0071 C   0  0  0  0  0  0  0  0  0  0  0  0
    0.9396   -0.1826   -2.5002 H   0  0  0  0  0  0  0  0  0  0  0  0
    1.8666    1.3214   -2.4871 H   0  0  0  0  0  0  0  0  0  0  0  0
    0.1012    1.3791   -2.4823 H   0  0  0  0  0  0  0  0  0  0  0  0
   -0.0997    0.1998   -0.1562 H   0  0  0  0  0  0  0  0  0  0  0  0
    3.3295    0.5508   -0.3922 H   0  0  0  0  0  0  0  0  0  0  0  0
    0.1012    2.7989   -0.3713 H   0  0  0  0  0  0  0  0  0  0  0  0
    1.8666    2.7816   -0.3161 H   0  0  0  0  0  0  0  0  0  0  0  0
    0.9396    2.2266    1.0818 H   0  0  0  0  0  0  0  0  0  0  0  0
  1  2  2  0
  2  3  1  0
  2 13  1  0
  3  4  3  0
  4  5  1  0
  6  7  1  0
  6 10  1  0
  6 11  1  0
  6 12  1  0
  7  9  1  0
  7  8  1  0
  8 14  1  0
  9 15  1  0
  9 16  1  0
  9 17  1  0
M  RAD  1   7   2
M  END
>  <reaction>  (16) 
rxn_1949

>  <mol_properties>  (16) 
{"0": {"label": "*0", "atom_type": "S2d"}, "1": {"label": "*1", "atom_type": "CS"}, "6": {"label": "*3", "atom_type": "Cs"}, "7": {"label": "*4", "atom_type": "S2s"}, "12": {"label": "*2", "atom_type": "H0"}}

>  <type>  (16) 
unop_12

>  <geom_source>  (16) 
Heuristics

$$$$

     RDKit          3D

 17 15  0  0  0  0  0  0  0  0999 V2000
   -1.6786   -1.7689    0.9881 S   0  0  0  0  0  0  0  0  0  0  0  0
    1.0533    0.8920    2.7221 S   0  0  0  0  0  0  0  0  0  0  0  0
   -0.3101   -1.0604   -1.2896 C   0  0  0  0  0  0  0  0  0  0  0  0
   -1.8190    0.6820   -0.2649 C   0  0  0  0  0  0  0  0  0  0  0  0
   -0.8568   -0.4716    0.0074 C   0  0  0  0  0  3  0  0  0  0  0  0
    1.2936    0.4015    1.1838 C   0  0  0  0  0  0  0  0  0  0  0  0
    2.4816    0.7949    0.4812 C   0  0  0  0  0  0  0  0  0  0  0  0
    3.4792    1.1246   -0.1098 C   0  0  0  0  0  0  0  0  0  0  0  0
    0.4088   -1.8737   -1.0569 H   0  0  0  0  0  0  0  0  0  0  0  0
   -1.1346   -1.4713   -1.9110 H   0  0  0  0  0  0  0  0  0  0  0  0
    0.2257   -0.2768   -1.8658 H   0  0  0  0  0  0  0  0  0  0  0  0
   -1.3019    1.4799   -0.8384 H   0  0  0  0  0  0  0  0  0  0  0  0
   -2.6991    0.3285   -0.8437 H   0  0  0  0  0  0  0  0  0  0  0  0
   -2.1671    1.1158    0.6957 H   0  0  0  0  0  0  0  0  0  0  0  0
    0.4034   -0.3500    0.5911 H   0  0  0  0  0  0  0  0  0  0  0  0
   -1.7334   -0.9607    2.1393 H   0  0  0  0  0  0  0  0  0  0  0  0
    4.3550    1.4142   -0.6286 H   0  0  0  0  0  0  0  0  0  0  0  0
  1  5  1  0
  1 16  1  0
  2  6  2  0
  3  5  1  0
  3  9  1  0
  3 10  1  0
  3 11  1  0
  4  5  1  0
  4 12  1  0
  4 13  1  0
  4 14  1  0
  6  7  1  0
  6 15  1  0
  7  8  3  0
  8 17  1  0
M  RAD  1   5   2
M  END
>  <reaction>  (17) 
rxn_1949

>  <mol_properties>  (17) 
{"0": {"label": "*0", "atom_type": "S2d"}, "1": {"label": "*1", "atom_type": "CS"}, "6": {"label": "*3", "atom_type": "Cs"}, "7": {"label": "*4", "atom_type": "S2s"}, "12": {"label": "*2", "atom_type": "H0"}}

>  <type>  (17) 
unop_13

>  <geom_source>  (17) 
AutoTST

$$$$
