
     RDKit          3D

 13 12  0  0  0  0  0  0  0  0999 V2000
    2.2975   -0.6134    0.7685 C   0  0  0  0  0  0  0  0  0  0  0  0
    1.1676   -0.5248    0.3802 C   0  0  0  0  0  0  0  0  0  0  0  0
   -0.2109   -0.3926   -0.0948 C   0  0  0  0  0  0  0  0  0  0  0  0
   -0.2501    0.2584   -1.4808 C   0  0  0  0  0  0  0  0  0  0  0  0
   -1.0633    0.3831    0.9141 C   0  0  0  0  0  0  0  0  0  0  0  0
    3.2999   -0.6974    1.1133 H   0  0  0  0  0  0  0  0  0  0  0  0
   -0.6209   -1.4038   -0.1814 H   0  0  0  0  0  0  0  0  0  0  0  0
    0.3402   -0.3102   -2.1992 H   0  0  0  0  0  0  0  0  0  0  0  0
    0.1511    1.2724   -1.4369 H   0  0  0  0  0  0  0  0  0  0  0  0
   -1.2791    0.3109   -1.8407 H   0  0  0  0  0  0  0  0  0  0  0  0
   -0.6861    1.4008    1.0287 H   0  0  0  0  0  0  0  0  0  0  0  0
   -1.0492   -0.0971    1.8924 H   0  0  0  0  0  0  0  0  0  0  0  0
   -2.0971    0.4363    0.5680 H   0  0  0  0  0  0  0  0  0  0  0  0
  1  2  3  0
  1  6  1  0
  2  3  1  0
  3  4  1  0
  3  5  1  0
  3  7  1  0
  4  8  1  0
  4  9  1  0
  4 10  1  0
  5 11  1  0
  5 12  1  0
  5 13  1  0
M  END
>  <reaction>  (1) 
rxn_1341

>  <mol_properties>  (1) 
{"2": {"label": "donator", "atom_type": "Cs"}, "6": {"label": "d_hydrogen", "atom_type": "H0"}}

>  <type>  (1) 
r1h

$$$$

     RDKit          3D

  6  5  0  0  0  0  0  0  0  0999 V2000
   -0.5036    0.1196    0.0353 C   0  0  0  0  0  0  0  0  0  0  0  0
    0.9526    0.1121    0.2227 C   0  0  0  0  0  3  0  0  0  0  0  0
    2.2066   -0.6670   -0.2771 S   0  0  0  0  0  0  0  0  0  0  0  0
   -0.8527   -0.6450   -0.6654 H   0  0  0  0  0  0  0  0  0  0  0  0
   -0.8134    1.1060   -0.3189 H   0  0  0  0  0  0  0  0  0  0  0  0
   -0.9894   -0.0257    1.0035 H   0  0  0  0  0  0  0  0  0  0  0  0
  1  2  1  0
  1  4  1  0
  1  5  1  0
  1  6  1  0
  2  3  2  0
M  RAD  1   2   2
M  END
>  <reaction>  (2) 
rxn_1341

>  <mol_properties>  (2) 
{"1": {"label": "acceptor", "atom_type": "CS"}}

>  <type>  (2) 
r2

$$$$

     RDKit          3D

  7  6  0  0  0  0  0  0  0  0999 V2000
   -0.6782    0.0507    0.0301 C   0  0  0  0  0  0  0  0  0  0  0  0
    0.8092    0.0996    0.0213 C   0  0  0  0  0  0  0  0  0  0  0  0
    1.7473    0.7521    1.1507 S   0  0  0  0  0  0  0  0  0  0  0  0
   -1.0667    0.5456   -0.8653 H   0  0  0  0  0  0  0  0  0  0  0  0
   -1.0112   -0.9904   -0.0239 H   0  0  0  0  0  0  0  0  0  0  0  0
   -1.0920    0.5225    0.9188 H   0  0  0  0  0  0  0  0  0  0  0  0
    1.2740   -0.3620   -0.8520 H   0  0  0  0  0  0  0  0  0  0  0  0
  1  2  1  0
  1  4  1  0
  1  5  1  0
  1  6  1  0
  2  3  2  0
  2  7  1  0
M  END
>  <reaction>  (3) 
rxn_1341

>  <mol_properties>  (3) 
{"0": {"label": "a_hydrogen", "atom_type": "H0"}, "2": {"label": "acceptor", "atom_type": "CS"}}

>  <type>  (3) 
r2h

$$$$

     RDKit          3D

 19 17  0  0  0  0  0  0  0  0999 V2000
   -0.0130    1.0644   -3.0417 C   0  0  0  0  0  0  0  0  0  0  0  0
   -0.0096    1.1976   -1.8461 C   0  0  0  0  0  0  0  0  0  0  0  0
   -0.0052    1.2933   -0.4170 C   0  0  0  0  0  0  0  0  0  0  0  0
   -1.2821    1.8340    0.1952 C   0  0  0  0  0  0  0  0  0  0  0  0
    1.2694    1.8492    0.1863 C   0  0  0  0  0  0  0  0  0  0  0  0
   -0.0161    0.9687   -4.1007 H   0  0  0  0  0  0  0  0  0  0  0  0
    0.0037    0.0387   -0.0010 H   0  0  0  0  0  0  0  0  0  0  0  0
   -2.1612    1.3500   -0.2306 H   0  0  0  0  0  0  0  0  0  0  0  0
   -1.3708    2.9105    0.0221 H   0  0  0  0  0  0  0  0  0  0  0  0
   -1.2788    1.6622    1.2735 H   0  0  0  0  0  0  0  0  0  0  0  0
    1.3441    2.9267    0.0126 H   0  0  0  0  0  0  0  0  0  0  0  0
    2.1513    1.3757   -0.2457 H   0  0  0  0  0  0  0  0  0  0  0  0
    1.2757    1.6774    1.2646 H   0  0  0  0  0  0  0  0  0  0  0  0
    0.0148   -2.1927   -0.6476 C   0  0  0  0  0  0  0  0  0  0  0  0
    0.0131   -1.2515    0.4919 C   0  0  0  0  0  3  0  0  0  0  0  0
    0.0199   -1.4663    2.0604 S   0  0  0  0  0  0  0  0  0  0  0  0
    0.0221   -3.2370   -0.3331 H   0  0  0  0  0  0  0  0  0  0  0  0
    0.8833   -1.9842   -1.2788 H   0  0  0  0  0  0  0  0  0  0  0  0
   -0.8605   -1.9946   -1.2728 H   0  0  0  0  0  0  0  0  0  0  0  0
  1  2  3  0
  1  6  1  0
  2  3  1  0
  3  4  1  0
  3  5  1  0
  3  7  1  0
  4  8  1  0
  4  9  1  0
  4 10  1  0
  5 11  1  0
  5 12  1  0
  5 13  1  0
 14 15  1  0
 14 17  1  0
 14 18  1  0
 14 19  1  0
 15 16  2  0
M  RAD  1  15   2
M  END
>  <reaction>  (4) 
rxn_1341

>  <mol_properties>  (4) 
{"1": {"label": "*0", "atom_type": "Ct"}, "2": {"label": "*1", "atom_type": "Cs"}, "6": {"label": "*2", "atom_type": "H0"}, "14": {"label": "*3", "atom_type": "CS"}, "15": {"label": "*4", "atom_type": "S2d"}}

>  <type>  (4) 
ts

$$$$

     RDKit          3D

 19 17  0  0  0  0  0  0  0  0999 V2000
    0.2384    1.1353   -2.9238 C   0  0  0  0  0  0  0  0  0  0  0  0
    0.2384    1.1353   -1.7257 C   0  0  0  0  0  0  0  0  0  0  0  0
    0.2384    1.1592   -0.2619 C   0  0  0  0  0  3  0  0  0  0  0  0
   -1.0277    1.8357    0.2725 C   0  0  0  0  0  0  0  0  0  0  0  0
    1.5045    1.8357    0.2725 C   0  0  0  0  0  0  0  0  0  0  0  0
    0.2384    1.1353   -3.9871 H   0  0  0  0  0  0  0  0  0  0  0  0
    0.2384   -0.0894    0.1460 H   0  0  0  0  0  0  0  0  0  0  0  0
   -1.9247    1.3364   -0.0935 H   0  0  0  0  0  0  0  0  0  0  0  0
   -1.0650    2.8792   -0.0451 H   0  0  0  0  0  0  0  0  0  0  0  0
   -1.0350    1.8077    1.3635 H   0  0  0  0  0  0  0  0  0  0  0  0
    1.5419    2.8792   -0.0451 H   0  0  0  0  0  0  0  0  0  0  0  0
    2.4016    1.3363   -0.0935 H   0  0  0  0  0  0  0  0  0  0  0  0
    1.5119    1.8077    1.3635 H   0  0  0  0  0  0  0  0  0  0  0  0
    1.4102   -1.7135    1.3882 C   0  0  0  0  0  0  0  0  0  0  0  0
    0.2384   -1.3347    0.5528 C   0  0  0  0  0  0  0  0  0  0  0  0
   -1.2893   -1.7640    0.8042 S   0  0  0  0  0  0  0  0  0  0  0  0
    1.1204   -2.3408    2.2286 H   0  0  0  0  0  0  0  0  0  0  0  0
    1.9058   -0.8099    1.7561 H   0  0  0  0  0  0  0  0  0  0  0  0
    2.1456   -2.2395    0.7716 H   0  0  0  0  0  0  0  0  0  0  0  0
  1  2  3  0
  1  6  1  0
  2  3  1  0
  3  4  1  0
  3  5  1  0
  4  8  1  0
  4  9  1  0
  4 10  1  0
  5 11  1  0
  5 12  1  0
  5 13  1  0
  7 15  1  0
 14 15  1  0
 14 17  1  0
 14 18  1  0
 14 19  1  0
 15 16  2  0
M  RAD  1   3   2
M  END
>  <reaction>  (5) 
rxn_1341

>  <mol_properties>  (5) 
{"1": {"label": "*0", "atom_type": "Ct"}, "2": {"label": "*1", "atom_type": "Cs"}, "6": {"label": "*2", "atom_type": "H0"}, "14": {"label": "*3", "atom_type": "CS"}, "15": {"label": "*4", "atom_type": "S2d"}}

>  <type>  (5) 
unop_1

>  <geom_source>  (5) 
Heuristics

$$$$

     RDKit          3D

 19 17  0  0  0  0  0  0  0  0999 V2000
    0.0029    1.1627   -3.0316 C   0  0  0  0  0  0  0  0  0  0  0  0
    0.0029    1.1627   -1.8335 C   0  0  0  0  0  0  0  0  0  0  0  0
    0.0029    1.1867   -0.3697 C   0  0  0  0  0  3  0  0  0  0  0  0
   -1.2632    1.8631    0.1646 C   0  0  0  0  0  0  0  0  0  0  0  0
    1.2691    1.8631    0.1646 C   0  0  0  0  0  0  0  0  0  0  0  0
    0.0029    1.1627   -4.0949 H   0  0  0  0  0  0  0  0  0  0  0  0
    0.0029   -0.0620    0.0382 H   0  0  0  0  0  0  0  0  0  0  0  0
   -2.1602    1.3638   -0.2013 H   0  0  0  0  0  0  0  0  0  0  0  0
   -1.3005    2.9066   -0.1529 H   0  0  0  0  0  0  0  0  0  0  0  0
   -1.2705    1.8351    1.2557 H   0  0  0  0  0  0  0  0  0  0  0  0
    1.3064    2.9066   -0.1529 H   0  0  0  0  0  0  0  0  0  0  0  0
    2.1661    1.3637   -0.2013 H   0  0  0  0  0  0  0  0  0  0  0  0
    1.2764    1.8351    1.2557 H   0  0  0  0  0  0  0  0  0  0  0  0
    0.6794   -2.2600   -0.4765 C   0  0  0  0  0  0  0  0  0  0  0  0
    0.0029   -1.3073    0.4450 C   0  0  0  0  0  0  0  0  0  0  0  0
   -0.3428   -1.5624    1.9931 S   0  0  0  0  0  0  0  0  0  0  0  0
    0.9309   -3.1937    0.0222 H   0  0  0  0  0  0  0  0  0  0  0  0
    1.5876   -1.7999   -0.8779 H   0  0  0  0  0  0  0  0  0  0  0  0
    0.0313   -2.4631   -1.3347 H   0  0  0  0  0  0  0  0  0  0  0  0
  1  2  3  0
  1  6  1  0
  2  3  1  0
  3  4  1  0
  3  5  1  0
  4  8  1  0
  4  9  1  0
  4 10  1  0
  5 11  1  0
  5 12  1  0
  5 13  1  0
  7 15  1  0
 14 15  1  0
 14 17  1  0
 14 18  1  0
 14 19  1  0
 15 16  2  0
M  RAD  1   3   2
M  END
>  <reaction>  (6) 
rxn_1341

>  <mol_properties>  (6) 
{"1": {"label": "*0", "atom_type": "Ct"}, "2": {"label": "*1", "atom_type": "Cs"}, "6": {"label": "*2", "atom_type": "H0"}, "14": {"label": "*3", "atom_type": "CS"}, "15": {"label": "*4", "atom_type": "S2d"}}

>  <type>  (6) 
unop_2

>  <geom_source>  (6) 
Heuristics

$$$$

     RDKit          3D

 19 17  0  0  0  0  0  0  0  0999 V2000
    0.2280    1.2180   -2.7719 C   0  0  0  0  0  0  0  0  0  0  0  0
    0.2280    1.2180   -1.5738 C   0  0  0  0  0  0  0  0  0  0  0  0
    0.2280    1.2419   -0.1100 C   0  0  0  0  0  3  0  0  0  0  0  0
   -1.0381    1.9184    0.4244 C   0  0  0  0  0  0  0  0  0  0  0  0
    1.4941    1.9184    0.4244 C   0  0  0  0  0  0  0  0  0  0  0  0
    0.2280    1.2180   -3.8352 H   0  0  0  0  0  0  0  0  0  0  0  0
    0.2280   -0.0067    0.2979 H   0  0  0  0  0  0  0  0  0  0  0  0
   -1.9352    1.4191    0.0584 H   0  0  0  0  0  0  0  0  0  0  0  0
   -1.0755    2.9619    0.1069 H   0  0  0  0  0  0  0  0  0  0  0  0
   -1.0454    1.8904    1.5154 H   0  0  0  0  0  0  0  0  0  0  0  0
    1.5315    2.9619    0.1069 H   0  0  0  0  0  0  0  0  0  0  0  0
    2.3912    1.4190    0.0584 H   0  0  0  0  0  0  0  0  0  0  0  0
    1.5015    1.8904    1.5154 H   0  0  0  0  0  0  0  0  0  0  0  0
    0.9045   -1.4771    2.0109 C   0  0  0  0  0  0  0  0  0  0  0  0
    0.2280   -1.2520    0.7047 C   0  0  0  0  0  0  0  0  0  0  0  0
   -1.0137   -2.0865    0.1189 S   0  0  0  0  0  0  0  0  0  0  0  0
    0.4563   -2.3022    2.5603 H   0  0  0  0  0  0  0  0  0  0  0  0
    0.8550   -0.5637    2.6118 H   0  0  0  0  0  0  0  0  0  0  0  0
    1.9670   -1.6791    1.8437 H   0  0  0  0  0  0  0  0  0  0  0  0
  1  2  3  0
  1  6  1  0
  2  3  1  0
  3  4  1  0
  3  5  1  0
  4  8  1  0
  4  9  1  0
  4 10  1  0
  5 11  1  0
  5 12  1  0
  5 13  1  0
  7 15  1  0
 14 15  1  0
 14 17  1  0
 14 18  1  0
 14 19  1  0
 15 16  2  0
M  RAD  1   3   2
M  END
>  <reaction>  (7) 
rxn_1341

>  <mol_properties>  (7) 
{"1": {"label": "*0", "atom_type": "Ct"}, "2": {"label": "*1", "atom_type": "Cs"}, "6": {"label": "*2", "atom_type": "H0"}, "14": {"label": "*3", "atom_type": "CS"}, "15": {"label": "*4", "atom_type": "S2d"}}

>  <type>  (7) 
unop_3

>  <geom_source>  (7) 
Heuristics

$$$$

     RDKit          3D

 19 17  0  0  0  0  0  0  0  0999 V2000
   -0.0572    1.1261   -3.0471 C   0  0  0  0  0  0  0  0  0  0  0  0
   -0.0572    1.1261   -1.8490 C   0  0  0  0  0  0  0  0  0  0  0  0
   -0.0572    1.1500   -0.3852 C   0  0  0  0  0  3  0  0  0  0  0  0
   -1.3233    1.8265    0.1492 C   0  0  0  0  0  0  0  0  0  0  0  0
    1.2090    1.8265    0.1492 C   0  0  0  0  0  0  0  0  0  0  0  0
   -0.0572    1.1261   -4.1104 H   0  0  0  0  0  0  0  0  0  0  0  0
   -0.0572   -0.0986    0.0227 H   0  0  0  0  0  0  0  0  0  0  0  0
   -2.2203    1.3272   -0.2168 H   0  0  0  0  0  0  0  0  0  0  0  0
   -1.3606    2.8700   -0.1684 H   0  0  0  0  0  0  0  0  0  0  0  0
   -1.3306    1.7985    1.2402 H   0  0  0  0  0  0  0  0  0  0  0  0
    1.2463    2.8700   -0.1684 H   0  0  0  0  0  0  0  0  0  0  0  0
    2.1060    1.3271   -0.2168 H   0  0  0  0  0  0  0  0  0  0  0  0
    1.2163    1.7985    1.2402 H   0  0  0  0  0  0  0  0  0  0  0  0
   -1.2290   -2.1428   -0.0212 C   0  0  0  0  0  0  0  0  0  0  0  0
   -0.0572   -1.3439    0.4295 C   0  0  0  0  0  0  0  0  0  0  0  0
    0.7490   -1.5292    1.8068 S   0  0  0  0  0  0  0  0  0  0  0  0
   -1.5027   -2.9034    0.7070 H   0  0  0  0  0  0  0  0  0  0  0  0
   -1.0027   -2.6161   -0.9817 H   0  0  0  0  0  0  0  0  0  0  0  0
   -2.0801   -1.4780   -0.1979 H   0  0  0  0  0  0  0  0  0  0  0  0
  1  2  3  0
  1  6  1  0
  2  3  1  0
  3  4  1  0
  3  5  1  0
  4  8  1  0
  4  9  1  0
  4 10  1  0
  5 11  1  0
  5 12  1  0
  5 13  1  0
  7 15  1  0
 14 15  1  0
 14 17  1  0
 14 18  1  0
 14 19  1  0
 15 16  2  0
M  RAD  1   3   2
M  END
>  <reaction>  (8) 
rxn_1341

>  <mol_properties>  (8) 
{"1": {"label": "*0", "atom_type": "Ct"}, "2": {"label": "*1", "atom_type": "Cs"}, "6": {"label": "*2", "atom_type": "H0"}, "14": {"label": "*3", "atom_type": "CS"}, "15": {"label": "*4", "atom_type": "S2d"}}

>  <type>  (8) 
unop_4

>  <geom_source>  (8) 
Heuristics

$$$$

     RDKit          3D

 19 17  0  0  0  0  0  0  0  0999 V2000
    0.0000    1.2972   -2.6658 C   0  0  0  0  0  0  0  0  0  0  0  0
    0.0000    1.2972   -1.4677 C   0  0  0  0  0  0  0  0  0  0  0  0
    0.0000    1.3211   -0.0039 C   0  0  0  0  0  3  0  0  0  0  0  0
   -1.2661    1.9976    0.5304 C   0  0  0  0  0  0  0  0  0  0  0  0
    1.2662    1.9975    0.5304 C   0  0  0  0  0  0  0  0  0  0  0  0
    0.0000    1.2972   -3.7291 H   0  0  0  0  0  0  0  0  0  0  0  0
    0.0000    0.0725    0.4040 H   0  0  0  0  0  0  0  0  0  0  0  0
   -2.1631    1.4983    0.1645 H   0  0  0  0  0  0  0  0  0  0  0  0
   -1.3034    3.0411    0.2129 H   0  0  0  0  0  0  0  0  0  0  0  0
   -1.2734    1.9696    1.6215 H   0  0  0  0  0  0  0  0  0  0  0  0
    1.3035    3.0411    0.2129 H   0  0  0  0  0  0  0  0  0  0  0  0
    2.1632    1.4982    0.1645 H   0  0  0  0  0  0  0  0  0  0  0  0
    1.2735    1.9695    1.6215 H   0  0  0  0  0  0  0  0  0  0  0  0
   -0.0000   -1.3416    2.2893 C   0  0  0  0  0  0  0  0  0  0  0  0
   -0.0000   -1.1728    0.8107 C   0  0  0  0  0  0  0  0  0  0  0  0
   -0.0000   -2.3503   -0.2823 S   0  0  0  0  0  0  0  0  0  0  0  0
   -0.0000   -2.3912    2.5754 H   0  0  0  0  0  0  0  0  0  0  0  0
   -0.8762   -0.8431    2.7153 H   0  0  0  0  0  0  0  0  0  0  0  0
    0.8761   -0.8431    2.7153 H   0  0  0  0  0  0  0  0  0  0  0  0
  1  2  3  0
  1  6  1  0
  2  3  1  0
  3  4  1  0
  3  5  1  0
  4  8  1  0
  4  9  1  0
  4 10  1  0
  5 11  1  0
  5 12  1  0
  5 13  1  0
  7 15  1  0
 14 15  1  0
 14 17  1  0
 14 18  1  0
 14 19  1  0
 15 16  2  0
M  RAD  1   3   2
M  END
>  <reaction>  (9) 
rxn_1341

>  <mol_properties>  (9) 
{"1": {"label": "*0", "atom_type": "Ct"}, "2": {"label": "*1", "atom_type": "Cs"}, "6": {"label": "*2", "atom_type": "H0"}, "14": {"label": "*3", "atom_type": "CS"}, "15": {"label": "*4", "atom_type": "S2d"}}

>  <type>  (9) 
unop_5

>  <geom_source>  (9) 
Heuristics

$$$$

     RDKit          3D

 19 17  0  0  0  0  0  0  0  0999 V2000
   -0.1533    1.1091   -3.0189 C   0  0  0  0  0  0  0  0  0  0  0  0
   -0.1533    1.1091   -1.8208 C   0  0  0  0  0  0  0  0  0  0  0  0
   -0.1533    1.1330   -0.3570 C   0  0  0  0  0  3  0  0  0  0  0  0
   -1.4194    1.8095    0.1774 C   0  0  0  0  0  0  0  0  0  0  0  0
    1.1128    1.8094    0.1774 C   0  0  0  0  0  0  0  0  0  0  0  0
   -0.1533    1.1091   -4.0822 H   0  0  0  0  0  0  0  0  0  0  0  0
   -0.1533   -0.1156    0.0509 H   0  0  0  0  0  0  0  0  0  0  0  0
   -2.3165    1.3102   -0.1885 H   0  0  0  0  0  0  0  0  0  0  0  0
   -1.4568    2.8530   -0.1401 H   0  0  0  0  0  0  0  0  0  0  0  0
   -1.4268    1.7815    1.2684 H   0  0  0  0  0  0  0  0  0  0  0  0
    1.1502    2.8530   -0.1401 H   0  0  0  0  0  0  0  0  0  0  0  0
    2.0098    1.3101   -0.1885 H   0  0  0  0  0  0  0  0  0  0  0  0
    1.1201    1.7814    1.2684 H   0  0  0  0  0  0  0  0  0  0  0  0
   -1.5064   -1.9498    0.6501 C   0  0  0  0  0  0  0  0  0  0  0  0
   -0.1534   -1.3609    0.4577 C   0  0  0  0  0  0  0  0  0  0  0  0
    1.1252   -1.5821    1.4052 S   0  0  0  0  0  0  0  0  0  0  0  0
   -1.5509   -2.5765    1.5383 H   0  0  0  0  0  0  0  0  0  0  0  0
   -1.7787   -2.5389   -0.2311 H   0  0  0  0  0  0  0  0  0  0  0  0
   -2.2478   -1.1484    0.7265 H   0  0  0  0  0  0  0  0  0  0  0  0
  1  2  3  0
  1  6  1  0
  2  3  1  0
  3  4  1  0
  3  5  1  0
  4  8  1  0
  4  9  1  0
  4 10  1  0
  5 11  1  0
  5 12  1  0
  5 13  1  0
  7 15  1  0
 14 15  1  0
 14 17  1  0
 14 18  1  0
 14 19  1  0
 15 16  2  0
M  RAD  1   3   2
M  END
>  <reaction>  (10) 
rxn_1341

>  <mol_properties>  (10) 
{"1": {"label": "*0", "atom_type": "Ct"}, "2": {"label": "*1", "atom_type": "Cs"}, "6": {"label": "*2", "atom_type": "H0"}, "14": {"label": "*3", "atom_type": "CS"}, "15": {"label": "*4", "atom_type": "S2d"}}

>  <type>  (10) 
unop_6

>  <geom_source>  (10) 
Heuristics

$$$$

     RDKit          3D

 19 17  0  0  0  0  0  0  0  0999 V2000
   -0.2384    1.1353   -2.9238 C   0  0  0  0  0  0  0  0  0  0  0  0
   -0.2384    1.1353   -1.7257 C   0  0  0  0  0  0  0  0  0  0  0  0
   -0.2384    1.1592   -0.2619 C   0  0  0  0  0  3  0  0  0  0  0  0
   -1.5045    1.8357    0.2725 C   0  0  0  0  0  0  0  0  0  0  0  0
    1.0277    1.8357    0.2725 C   0  0  0  0  0  0  0  0  0  0  0  0
   -0.2384    1.1353   -3.9871 H   0  0  0  0  0  0  0  0  0  0  0  0
   -0.2384   -0.0894    0.1460 H   0  0  0  0  0  0  0  0  0  0  0  0
   -2.4015    1.3364   -0.0935 H   0  0  0  0  0  0  0  0  0  0  0  0
   -1.5418    2.8792   -0.0451 H   0  0  0  0  0  0  0  0  0  0  0  0
   -1.5118    1.8077    1.3635 H   0  0  0  0  0  0  0  0  0  0  0  0
    1.0651    2.8792   -0.0451 H   0  0  0  0  0  0  0  0  0  0  0  0
    1.9248    1.3363   -0.0935 H   0  0  0  0  0  0  0  0  0  0  0  0
    1.0351    1.8077    1.3635 H   0  0  0  0  0  0  0  0  0  0  0  0
   -1.4102   -1.7135    1.3882 C   0  0  0  0  0  0  0  0  0  0  0  0
   -0.2384   -1.3347    0.5528 C   0  0  0  0  0  0  0  0  0  0  0  0
    1.2893   -1.7640    0.8042 S   0  0  0  0  0  0  0  0  0  0  0  0
   -1.1204   -2.3408    2.2286 H   0  0  0  0  0  0  0  0  0  0  0  0
   -2.1456   -2.2394    0.7716 H   0  0  0  0  0  0  0  0  0  0  0  0
   -1.9059   -0.8098    1.7561 H   0  0  0  0  0  0  0  0  0  0  0  0
  1  2  3  0
  1  6  1  0
  2  3  1  0
  3  4  1  0
  3  5  1  0
  4  8  1  0
  4  9  1  0
  4 10  1  0
  5 11  1  0
  5 12  1  0
  5 13  1  0
  7 15  1  0
 14 15  1  0
 14 17  1  0
 14 18  1  0
 14 19  1  0
 15 16  2  0
M  RAD  1   3   2
M  END
>  <reaction>  (11) 
rxn_1341

>  <mol_properties>  (11) 
{"1": {"label": "*0", "atom_type": "Ct"}, "2": {"label": "*1", "atom_type": "Cs"}, "6": {"label": "*2", "atom_type": "H0"}, "14": {"label": "*3", "atom_type": "CS"}, "15": {"label": "*4", "atom_type": "S2d"}}

>  <type>  (11) 
unop_7

>  <geom_source>  (11) 
Heuristics

$$$$

     RDKit          3D

 19 17  0  0  0  0  0  0  0  0999 V2000
    0.1534    1.1091   -3.0189 C   0  0  0  0  0  0  0  0  0  0  0  0
    0.1534    1.1091   -1.8208 C   0  0  0  0  0  0  0  0  0  0  0  0
    0.1534    1.1330   -0.3570 C   0  0  0  0  0  3  0  0  0  0  0  0
   -1.1127    1.8095    0.1774 C   0  0  0  0  0  0  0  0  0  0  0  0
    1.4195    1.8094    0.1774 C   0  0  0  0  0  0  0  0  0  0  0  0
    0.1534    1.1091   -4.0822 H   0  0  0  0  0  0  0  0  0  0  0  0
    0.1533   -0.1156    0.0509 H   0  0  0  0  0  0  0  0  0  0  0  0
   -2.0098    1.3102   -0.1885 H   0  0  0  0  0  0  0  0  0  0  0  0
   -1.1501    2.8530   -0.1401 H   0  0  0  0  0  0  0  0  0  0  0  0
   -1.1201    1.7815    1.2684 H   0  0  0  0  0  0  0  0  0  0  0  0
    1.4569    2.8530   -0.1401 H   0  0  0  0  0  0  0  0  0  0  0  0
    2.3165    1.3101   -0.1885 H   0  0  0  0  0  0  0  0  0  0  0  0
    1.4268    1.7814    1.2684 H   0  0  0  0  0  0  0  0  0  0  0  0
    1.5064   -1.9498    0.6501 C   0  0  0  0  0  0  0  0  0  0  0  0
    0.1533   -1.3609    0.4577 C   0  0  0  0  0  0  0  0  0  0  0  0
   -1.1252   -1.5821    1.4052 S   0  0  0  0  0  0  0  0  0  0  0  0
    1.5509   -2.5765    1.5383 H   0  0  0  0  0  0  0  0  0  0  0  0
    2.2477   -1.1484    0.7265 H   0  0  0  0  0  0  0  0  0  0  0  0
    1.7786   -2.5389   -0.2311 H   0  0  0  0  0  0  0  0  0  0  0  0
  1  2  3  0
  1  6  1  0
  2  3  1  0
  3  4  1  0
  3  5  1  0
  4  8  1  0
  4  9  1  0
  4 10  1  0
  5 11  1  0
  5 12  1  0
  5 13  1  0
  7 15  1  0
 14 15  1  0
 14 17  1  0
 14 18  1  0
 14 19  1  0
 15 16  2  0
M  RAD  1   3   2
M  END
>  <reaction>  (12) 
rxn_1341

>  <mol_properties>  (12) 
{"1": {"label": "*0", "atom_type": "Ct"}, "2": {"label": "*1", "atom_type": "Cs"}, "6": {"label": "*2", "atom_type": "H0"}, "14": {"label": "*3", "atom_type": "CS"}, "15": {"label": "*4", "atom_type": "S2d"}}

>  <type>  (12) 
unop_8

>  <geom_source>  (12) 
Heuristics

$$$$

     RDKit          3D

 19 17  0  0  0  0  0  0  0  0999 V2000
   -0.0029    1.1627   -3.0316 C   0  0  0  0  0  0  0  0  0  0  0  0
   -0.0029    1.1627   -1.8335 C   0  0  0  0  0  0  0  0  0  0  0  0
   -0.0029    1.1867   -0.3697 C   0  0  0  0  0  3  0  0  0  0  0  0
   -1.2690    1.8631    0.1646 C   0  0  0  0  0  0  0  0  0  0  0  0
    1.2632    1.8631    0.1646 C   0  0  0  0  0  0  0  0  0  0  0  0
   -0.0029    1.1627   -4.0949 H   0  0  0  0  0  0  0  0  0  0  0  0
   -0.0029   -0.0620    0.0382 H   0  0  0  0  0  0  0  0  0  0  0  0
   -2.1661    1.3638   -0.2013 H   0  0  0  0  0  0  0  0  0  0  0  0
   -1.3064    2.9066   -0.1529 H   0  0  0  0  0  0  0  0  0  0  0  0
   -1.2764    1.8351    1.2557 H   0  0  0  0  0  0  0  0  0  0  0  0
    1.3006    2.9066   -0.1529 H   0  0  0  0  0  0  0  0  0  0  0  0
    2.1603    1.3637   -0.2013 H   0  0  0  0  0  0  0  0  0  0  0  0
    1.2706    1.8351    1.2557 H   0  0  0  0  0  0  0  0  0  0  0  0
   -0.6795   -2.2600   -0.4765 C   0  0  0  0  0  0  0  0  0  0  0  0
   -0.0029   -1.3073    0.4450 C   0  0  0  0  0  0  0  0  0  0  0  0
    0.3427   -1.5624    1.9931 S   0  0  0  0  0  0  0  0  0  0  0  0
   -0.9311   -3.1937    0.0222 H   0  0  0  0  0  0  0  0  0  0  0  0
   -0.0314   -2.4631   -1.3347 H   0  0  0  0  0  0  0  0  0  0  0  0
   -1.5877   -1.7998   -0.8779 H   0  0  0  0  0  0  0  0  0  0  0  0
  1  2  3  0
  1  6  1  0
  2  3  1  0
  3  4  1  0
  3  5  1  0
  4  8  1  0
  4  9  1  0
  4 10  1  0
  5 11  1  0
  5 12  1  0
  5 13  1  0
  7 15  1  0
 14 15  1  0
 14 17  1  0
 14 18  1  0
 14 19  1  0
 15 16  2  0
M  RAD  1   3   2
M  END
>  <reaction>  (13) 
rxn_1341

>  <mol_properties>  (13) 
{"1": {"label": "*0", "atom_type": "Ct"}, "2": {"label": "*1", "atom_type": "Cs"}, "6": {"label": "*2", "atom_type": "H0"}, "14": {"label": "*3", "atom_type": "CS"}, "15": {"label": "*4", "atom_type": "S2d"}}

>  <type>  (13) 
unop_9

>  <geom_source>  (13) 
Heuristics

$$$$

     RDKit          3D

 19 17  0  0  0  0  0  0  0  0999 V2000
    0.0572    1.1261   -3.0471 C   0  0  0  0  0  0  0  0  0  0  0  0
    0.0572    1.1261   -1.8490 C   0  0  0  0  0  0  0  0  0  0  0  0
    0.0572    1.1500   -0.3852 C   0  0  0  0  0  3  0  0  0  0  0  0
   -1.2089    1.8265    0.1492 C   0  0  0  0  0  0  0  0  0  0  0  0
    1.3233    1.8265    0.1492 C   0  0  0  0  0  0  0  0  0  0  0  0
    0.0572    1.1261   -4.1104 H   0  0  0  0  0  0  0  0  0  0  0  0
    0.0572   -0.0986    0.0227 H   0  0  0  0  0  0  0  0  0  0  0  0
   -2.1060    1.3272   -0.2168 H   0  0  0  0  0  0  0  0  0  0  0  0
   -1.2463    2.8700   -0.1684 H   0  0  0  0  0  0  0  0  0  0  0  0
   -1.2162    1.7985    1.2402 H   0  0  0  0  0  0  0  0  0  0  0  0
    1.3607    2.8700   -0.1684 H   0  0  0  0  0  0  0  0  0  0  0  0
    2.2204    1.3271   -0.2168 H   0  0  0  0  0  0  0  0  0  0  0  0
    1.3307    1.7985    1.2402 H   0  0  0  0  0  0  0  0  0  0  0  0
    1.2289   -2.1429   -0.0212 C   0  0  0  0  0  0  0  0  0  0  0  0
    0.0572   -1.3439    0.4295 C   0  0  0  0  0  0  0  0  0  0  0  0
   -0.7490   -1.5292    1.8068 S   0  0  0  0  0  0  0  0  0  0  0  0
    1.5026   -2.9035    0.7070 H   0  0  0  0  0  0  0  0  0  0  0  0
    2.0801   -1.4781   -0.1979 H   0  0  0  0  0  0  0  0  0  0  0  0
    1.0026   -2.6161   -0.9817 H   0  0  0  0  0  0  0  0  0  0  0  0
  1  2  3  0
  1  6  1  0
  2  3  1  0
  3  4  1  0
  3  5  1  0
  4  8  1  0
  4  9  1  0
  4 10  1  0
  5 11  1  0
  5 12  1  0
  5 13  1  0
  7 15  1  0
 14 15  1  0
 14 17  1  0
 14 18  1  0
 14 19  1  0
 15 16  2  0
M  RAD  1   3   2
M  END
>  <reaction>  (14) 
rxn_1341

>  <mol_properties>  (14) 
{"1": {"label": "*0", "atom_type": "Ct"}, "2": {"label": "*1", "atom_type": "Cs"}, "6": {"label": "*2", "atom_type": "H0"}, "14": {"label": "*3", "atom_type": "CS"}, "15": {"label": "*4", "atom_type": "S2d"}}

>  <type>  (14) 
unop_10

>  <geom_source>  (14) 
Heuristics

$$$$

     RDKit          3D

 19 17  0  0  0  0  0  0  0  0999 V2000
   -0.2280    1.2180   -2.7719 C   0  0  0  0  0  0  0  0  0  0  0  0
   -0.2280    1.2180   -1.5738 C   0  0  0  0  0  0  0  0  0  0  0  0
   -0.2280    1.2419   -0.1100 C   0  0  0  0  0  3  0  0  0  0  0  0
   -1.4941    1.9184    0.4244 C   0  0  0  0  0  0  0  0  0  0  0  0
    1.0382    1.9184    0.4244 C   0  0  0  0  0  0  0  0  0  0  0  0
   -0.2280    1.2180   -3.8352 H   0  0  0  0  0  0  0  0  0  0  0  0
   -0.2280   -0.0067    0.2979 H   0  0  0  0  0  0  0  0  0  0  0  0
   -2.3911    1.4191    0.0584 H   0  0  0  0  0  0  0  0  0  0  0  0
   -1.5314    2.9619    0.1069 H   0  0  0  0  0  0  0  0  0  0  0  0
   -1.5014    1.8904    1.5154 H   0  0  0  0  0  0  0  0  0  0  0  0
    1.0755    2.9619    0.1069 H   0  0  0  0  0  0  0  0  0  0  0  0
    1.9352    1.4190    0.0584 H   0  0  0  0  0  0  0  0  0  0  0  0
    1.0455    1.8904    1.5154 H   0  0  0  0  0  0  0  0  0  0  0  0
   -0.9045   -1.4770    2.0109 C   0  0  0  0  0  0  0  0  0  0  0  0
   -0.2280   -1.2520    0.7047 C   0  0  0  0  0  0  0  0  0  0  0  0
    1.0137   -2.0865    0.1189 S   0  0  0  0  0  0  0  0  0  0  0  0
   -0.4563   -2.3022    2.5603 H   0  0  0  0  0  0  0  0  0  0  0  0
   -1.9670   -1.6790    1.8437 H   0  0  0  0  0  0  0  0  0  0  0  0
   -0.8550   -0.5637    2.6118 H   0  0  0  0  0  0  0  0  0  0  0  0
  1  2  3  0
  1  6  1  0
  2  3  1  0
  3  4  1  0
  3  5  1  0
  4  8  1  0
  4  9  1  0
  4 10  1  0
  5 11  1  0
  5 12  1  0
  5 13  1  0
  7 15  1  0
 14 15  1  0
 14 17  1  0
 14 18  1  0
 14 19  1  0
 15 16  2  0
M  RAD  1   3   2
M  END
>  <reaction>  (15) 
rxn_1341

>  <mol_properties>  (15) 
{"1": {"label": "*0", "atom_type": "Ct"}, "2": {"label": "*1", "atom_type": "Cs"}, "6": {"label": "*2", "atom_type": "H0"}, "14": {"label": "*3", "atom_type": "CS"}, "15": {"label": "*4", "atom_type": "S2d"}}

>  <type>  (15) 
unop_11

>  <geom_source>  (15) 
Heuristics

$$$$

     RDKit          3D

 19 17  0  0  0  0  0  0  0  0999 V2000
    0.0000    1.1823   -3.0176 C   0  0  0  0  0  0  0  0  0  0  0  0
    0.0000    1.1823   -1.8195 C   0  0  0  0  0  0  0  0  0  0  0  0
    0.0000    1.2062   -0.3557 C   0  0  0  0  0  3  0  0  0  0  0  0
   -1.2661    1.8827    0.1787 C   0  0  0  0  0  0  0  0  0  0  0  0
    1.2661    1.8826    0.1787 C   0  0  0  0  0  0  0  0  0  0  0  0
    0.0000    1.1823   -4.0809 H   0  0  0  0  0  0  0  0  0  0  0  0
   -0.0000   -0.0424    0.0522 H   0  0  0  0  0  0  0  0  0  0  0  0
   -2.1631    1.3834   -0.1873 H   0  0  0  0  0  0  0  0  0  0  0  0
   -1.3034    2.9262   -0.1389 H   0  0  0  0  0  0  0  0  0  0  0  0
   -1.2734    1.8547    1.2697 H   0  0  0  0  0  0  0  0  0  0  0  0
    1.3035    2.9261   -0.1389 H   0  0  0  0  0  0  0  0  0  0  0  0
    2.1632    1.3833   -0.1873 H   0  0  0  0  0  0  0  0  0  0  0  0
    1.2735    1.8546    1.2697 H   0  0  0  0  0  0  0  0  0  0  0  0
   -0.0000   -2.2968   -0.6348 C   0  0  0  0  0  0  0  0  0  0  0  0
   -0.0000   -1.2877    0.4590 C   0  0  0  0  0  0  0  0  0  0  0  0
   -0.0000   -1.5929    2.0364 S   0  0  0  0  0  0  0  0  0  0  0  0
   -0.0001   -3.3129   -0.2461 H   0  0  0  0  0  0  0  0  0  0  0  0
    0.8761   -2.1459   -1.2730 H   0  0  0  0  0  0  0  0  0  0  0  0
   -0.8762   -2.1459   -1.2730 H   0  0  0  0  0  0  0  0  0  0  0  0
  1  2  3  0
  1  6  1  0
  2  3  1  0
  3  4  1  0
  3  5  1  0
  4  8  1  0
  4  9  1  0
  4 10  1  0
  5 11  1  0
  5 12  1  0
  5 13  1  0
  7 15  1  0
 14 15  1  0
 14 17  1  0
 14 18  1  0
 14 19  1  0
 15 16  2  0
M  RAD  1   3   2
M  END
>  <reaction>  (16) 
rxn_1341

>  <mol_properties>  (16) 
{"1": {"label": "*0", "atom_type": "Ct"}, "2": {"label": "*1", "atom_type": "Cs"}, "6": {"label": "*2", "atom_type": "H0"}, "14": {"label": "*3", "atom_type": "CS"}, "15": {"label": "*4", "atom_type": "S2d"}}

>  <type>  (16) 
unop_12

>  <geom_source>  (16) 
Heuristics

$$$$

     RDKit          3D

 19 17  0  0  0  0  0  0  0  0999 V2000
    1.9398   -2.0882    0.7298 S   0  0  0  0  0  0  0  0  0  0  0  0
   -0.9458    1.4985    0.1639 C   0  0  0  0  0  0  0  0  0  0  0  0
   -1.4365   -0.2044   -1.6370 C   0  0  0  0  0  0  0  0  0  0  0  0
    2.6839    0.3250    0.3841 C   0  0  0  0  0  0  0  0  0  0  0  0
   -0.7387    0.0587   -0.3034 C   0  0  0  0  0  3  0  0  0  0  0  0
    1.6676   -0.7639    0.2459 C   0  0  0  0  0  0  0  0  0  0  0  0
   -1.2054   -0.8889    0.7198 C   0  0  0  0  0  0  0  0  0  0  0  0
   -1.5872   -1.6662    1.5588 C   0  0  0  0  0  0  0  0  0  0  0  0
    3.6147    0.0547   -0.1590 H   0  0  0  0  0  0  0  0  0  0  0  0
    2.2783    1.2621   -0.0503 H   0  0  0  0  0  0  0  0  0  0  0  0
    2.9167    0.5012    1.4562 H   0  0  0  0  0  0  0  0  0  0  0  0
   -0.3965    1.6712    1.1138 H   0  0  0  0  0  0  0  0  0  0  0  0
   -2.0253    1.7095    0.3248 H   0  0  0  0  0  0  0  0  0  0  0  0
   -0.5489    2.2031   -0.5971 H   0  0  0  0  0  0  0  0  0  0  0  0
   -1.0433    0.4872   -2.4116 H   0  0  0  0  0  0  0  0  0  0  0  0
   -2.5344   -0.0571   -1.5434 H   0  0  0  0  0  0  0  0  0  0  0  0
   -1.2369   -1.2451   -1.9702 H   0  0  0  0  0  0  0  0  0  0  0  0
    0.5204   -0.5091   -0.3203 H   0  0  0  0  0  0  0  0  0  0  0  0
   -1.9225   -2.3483    2.2951 H   0  0  0  0  0  0  0  0  0  0  0  0
  1  6  2  0
  2  5  1  0
  2 12  1  0
  2 13  1  0
  2 14  1  0
  3  5  1  0
  3 15  1  0
  3 16  1  0
  3 17  1  0
  4  6  1  0
  4  9  1  0
  4 10  1  0
  4 11  1  0
  5  7  1  0
  6 18  1  0
  7  8  3  0
  8 19  1  0
M  RAD  1   5   2
M  END
>  <reaction>  (17) 
rxn_1341

>  <mol_properties>  (17) 
{"1": {"label": "*0", "atom_type": "Ct"}, "2": {"label": "*1", "atom_type": "Cs"}, "6": {"label": "*2", "atom_type": "H0"}, "14": {"label": "*3", "atom_type": "CS"}, "15": {"label": "*4", "atom_type": "S2d"}}

>  <type>  (17) 
unop_13

>  <geom_source>  (17) 
AutoTST

$$$$

     RDKit          3D

 19 17  0  0  0  0  0  0  0  0999 V2000
    0.0029    1.1627   -3.0316 C   0  0  0  0  0  0  0  0  0  0  0  0
    0.0029    1.1627   -1.8335 C   0  0  0  0  0  0  0  0  0  0  0  0
    0.0029    1.1866   -0.3697 C   0  0  0  0  0  3  0  0  0  0  0  0
   -1.2632    1.8631    0.1646 C   0  0  0  0  0  0  0  0  0  0  0  0
    1.2691    1.8631    0.1646 C   0  0  0  0  0  0  0  0  0  0  0  0
    0.0029    1.1627   -4.0949 H   0  0  0  0  0  0  0  0  0  0  0  0
    0.0029   -0.0620    0.0382 H   0  0  0  0  0  0  0  0  0  0  0  0
   -2.1602    1.3638   -0.2013 H   0  0  0  0  0  0  0  0  0  0  0  0
   -1.3005    2.9066   -0.1529 H   0  0  0  0  0  0  0  0  0  0  0  0
   -1.2705    1.8351    1.2557 H   0  0  0  0  0  0  0  0  0  0  0  0
    1.3064    2.9066   -0.1529 H   0  0  0  0  0  0  0  0  0  0  0  0
    2.1661    1.3638   -0.2013 H   0  0  0  0  0  0  0  0  0  0  0  0
    1.2764    1.8351    1.2557 H   0  0  0  0  0  0  0  0  0  0  0  0
    0.6794   -2.2601   -0.4765 C   0  0  0  0  0  0  0  0  0  0  0  0
    0.0029   -1.3073    0.4450 C   0  0  0  0  0  0  0  0  0  0  0  0
   -0.3428   -1.5624    1.9931 S   0  0  0  0  0  0  0  0  0  0  0  0
    0.9309   -3.1937    0.0222 H   0  0  0  0  0  0  0  0  0  0  0  0
    1.5876   -1.7999   -0.8779 H   0  0  0  0  0  0  0  0  0  0  0  0
    0.0314   -2.4631   -1.3347 H   0  0  0  0  0  0  0  0  0  0  0  0
  1  2  3  0
  1  6  1  0
  2  3  1  0
  3  4  1  0
  3  5  1  0
  4  8  1  0
  4  9  1  0
  4 10  1  0
  5 11  1  0
  5 12  1  0
  5 13  1  0
  7 15  1  0
 14 15  1  0
 14 17  1  0
 14 18  1  0
 14 19  1  0
 15 16  2  0
M  RAD  1   3   2
M  END
>  <reaction>  (18) 
rxn_1341

>  <mol_properties>  (18) 
{"1": {"label": "*0", "atom_type": "Ct"}, "2": {"label": "*1", "atom_type": "Cs"}, "6": {"label": "*2", "atom_type": "H0"}, "14": {"label": "*3", "atom_type": "CS"}, "15": {"label": "*4", "atom_type": "S2d"}}

>  <type>  (18) 
unop_14

>  <geom_source>  (18) 
gaussian_log

$$$$
