
     RDKit          3D

  5  4  0  0  0  0  0  0  0  0999 V2000
   -0.3689   -0.0540    0.1184 C   0  0  0  0  0  0  0  0  0  0  0  0
    0.7862    0.4359    0.2394 N   0  0  0  0  0  0  0  0  0  0  0  0
   -0.6872   -0.7035   -0.7033 H   0  0  0  0  0  0  0  0  0  0  0  0
   -1.1194    0.1733    0.8758 H   0  0  0  0  0  0  0  0  0  0  0  0
    1.3892    0.1482   -0.5303 H   0  0  0  0  0  0  0  0  0  0  0  0
  1  2  2  3
  1  3  1  0
  1  4  1  0
  2  5  1  0
M  END
>  <reaction>  (1) 
rxn_676

>  <mol_properties>  (1) 
{"0": {"label": "donator", "atom_type": "Cd"}, "2": {"label": "d_hydrogen", "atom_type": "H0"}}

>  <type>  (1) 
r1h

$$$$

     RDKit          3D

  3  2  0  0  0  0  0  0  0  0999 V2000
    0.0002    0.4233    0.0000 N   0  0  0  0  0  2  0  0  0  0  0  0
   -0.8051   -0.2112    0.0000 H   0  0  0  0  0  0  0  0  0  0  0  0
    0.8049   -0.2121    0.0000 H   0  0  0  0  0  0  0  0  0  0  0  0
  1  2  1  0
  1  3  1  0
M  RAD  1   1   2
M  END
>  <reaction>  (2) 
rxn_676

>  <mol_properties>  (2) 
{"0": {"label": "acceptor", "atom_type": "N3s"}}

>  <type>  (2) 
r2

$$$$

     RDKit          3D

  4  3  0  0  0  0  0  0  0  0999 V2000
    0.0006   -0.0009    0.2762 N   0  0  0  0  0  0  0  0  0  0  0  0
   -0.4188    0.8439   -0.0883 H   0  0  0  0  0  0  0  0  0  0  0  0
   -0.5215   -0.7840   -0.0936 H   0  0  0  0  0  0  0  0  0  0  0  0
    0.9397   -0.0590   -0.0943 H   0  0  0  0  0  0  0  0  0  0  0  0
  1  2  1  0
  1  3  1  0
  1  4  1  0
M  END
>  <reaction>  (3) 
rxn_676

>  <mol_properties>  (3) 
{"0": {"label": "acceptor", "atom_type": "N3s"}, "3": {"label": "a_hydrogen", "atom_type": "H0"}}

>  <type>  (3) 
r2h

$$$$

     RDKit          3D

  8  6  0  0  0  0  0  0  0  0999 V2000
   -0.0801    1.5392    1.0257 N   0  0  0  0  0  2  0  0  0  0  0  0
   -1.0712    1.6927    1.2253 H   0  0  0  0  0  0  0  0  0  0  0  0
    0.3155    1.2540    1.9245 H   0  0  0  0  0  0  0  0  0  0  0  0
   -0.1812   -0.7605   -0.2166 C   0  0  0  0  0  0  0  0  0  0  0  0
    0.3532   -0.8556   -1.3359 N   0  0  0  0  0  0  0  0  0  0  0  0
   -0.1494    0.3229    0.4000 H   0  0  0  0  0  0  0  0  0  0  0  0
   -0.6874   -1.6050    0.2575 H   0  0  0  0  0  0  0  0  0  0  0  0
    0.7861    0.0144   -1.6484 H   0  0  0  0  0  0  0  0  0  0  0  0
  1  2  1  0
  1  3  1  0
  4  5  2  3
  4  6  1  0
  4  7  1  0
  5  8  1  0
M  RAD  1   1   2
M  END
>  <reaction>  (4) 
rxn_676

>  <mol_properties>  (4) 
{"0": {"label": "*3", "atom_type": "N3s"}, "1": {"label": "*4", "atom_type": "H0"}, "3": {"label": "*1", "atom_type": "Cd"}, "4": {"label": "*0", "atom_type": "N3d"}, "5": {"label": "*2", "atom_type": "H0"}}

>  <type>  (4) 
ts

$$$$

     RDKit          3D

  8  6  0  0  0  0  0  0  0  0999 V2000
    0.0055    1.3300    1.3025 N   0  0  0  0  0  0  0  0  0  0  0  0
   -0.8296    1.3059    1.8722 H   0  0  0  0  0  0  0  0  0  0  0  0
    0.5936    0.6777    1.8038 H   0  0  0  0  0  0  0  0  0  0  0  0
    0.0055   -0.7479   -0.1357 C   0  0  0  0  0  3  0  0  0  0  0  0
    0.0055   -0.7479   -1.3962 N   0  0  0  0  0  0  0  0  0  0  0  0
    0.0055    0.3322    0.6119 H   0  0  0  0  0  0  0  0  0  0  0  0
    0.0055   -1.7025    0.3909 H   0  0  0  0  0  0  0  0  0  0  0  0
    0.0055    0.2031   -1.7630 H   0  0  0  0  0  0  0  0  0  0  0  0
  1  2  1  0
  1  3  1  0
  1  6  1  0
  4  5  2  3
  4  7  1  0
  5  8  1  0
M  RAD  1   4   2
M  END
>  <reaction>  (5) 
rxn_676

>  <mol_properties>  (5) 
{"0": {"label": "*3", "atom_type": "N3s"}, "1": {"label": "*4", "atom_type": "H0"}, "3": {"label": "*1", "atom_type": "Cd"}, "4": {"label": "*0", "atom_type": "N3d"}, "5": {"label": "*2", "atom_type": "H0"}}

>  <type>  (5) 
unop_1

>  <geom_source>  (5) 
Heuristics

$$$$

     RDKit          3D

  8  6  0  0  0  0  0  0  0  0999 V2000
    0.0230    1.3139    1.3266 N   0  0  0  0  0  0  0  0  0  0  0  0
   -0.4591    2.0395    0.8132 H   0  0  0  0  0  0  0  0  0  0  0  0
   -0.5242    0.6329    1.8359 H   0  0  0  0  0  0  0  0  0  0  0  0
    0.0230   -0.7640   -0.1116 C   0  0  0  0  0  3  0  0  0  0  0  0
    0.0230   -0.7640   -1.3721 N   0  0  0  0  0  0  0  0  0  0  0  0
    0.0230    0.3161    0.6360 H   0  0  0  0  0  0  0  0  0  0  0  0
    0.0230   -1.7186    0.4150 H   0  0  0  0  0  0  0  0  0  0  0  0
    0.0230    0.1869   -1.7390 H   0  0  0  0  0  0  0  0  0  0  0  0
  1  2  1  0
  1  3  1  0
  1  6  1  0
  4  5  2  3
  4  7  1  0
  5  8  1  0
M  RAD  1   4   2
M  END
>  <reaction>  (6) 
rxn_676

>  <mol_properties>  (6) 
{"0": {"label": "*3", "atom_type": "N3s"}, "1": {"label": "*4", "atom_type": "H0"}, "3": {"label": "*1", "atom_type": "Cd"}, "4": {"label": "*0", "atom_type": "N3d"}, "5": {"label": "*2", "atom_type": "H0"}}

>  <type>  (6) 
unop_2

>  <geom_source>  (6) 
Heuristics

$$$$

     RDKit          3D

  8  6  0  0  0  0  0  0  0  0999 V2000
   -0.0093    1.3256    1.2986 N   0  0  0  0  0  0  0  0  0  0  0  0
   -0.4915    1.1006    2.1585 H   0  0  0  0  0  0  0  0  0  0  0  0
    0.8885    1.0699    1.6874 H   0  0  0  0  0  0  0  0  0  0  0  0
   -0.0093   -0.7523   -0.1396 C   0  0  0  0  0  3  0  0  0  0  0  0
   -0.0093   -0.7523   -1.4001 N   0  0  0  0  0  0  0  0  0  0  0  0
   -0.0093    0.3279    0.6080 H   0  0  0  0  0  0  0  0  0  0  0  0
   -0.0093   -1.7069    0.3870 H   0  0  0  0  0  0  0  0  0  0  0  0
   -0.0093    0.1987   -1.7670 H   0  0  0  0  0  0  0  0  0  0  0  0
  1  2  1  0
  1  3  1  0
  1  6  1  0
  4  5  2  3
  4  7  1  0
  5  8  1  0
M  RAD  1   4   2
M  END
>  <reaction>  (7) 
rxn_676

>  <mol_properties>  (7) 
{"0": {"label": "*3", "atom_type": "N3s"}, "1": {"label": "*4", "atom_type": "H0"}, "3": {"label": "*1", "atom_type": "Cd"}, "4": {"label": "*0", "atom_type": "N3d"}, "5": {"label": "*2", "atom_type": "H0"}}

>  <type>  (7) 
unop_3

>  <geom_source>  (7) 
Heuristics

$$$$

     RDKit          3D

  8  6  0  0  0  0  0  0  0  0999 V2000
   -0.0001    1.2908    1.3279 N   0  0  0  0  0  0  0  0  0  0  0  0
    0.8351    1.8155    1.1047 H   0  0  0  0  0  0  0  0  0  0  0  0
   -0.8320    1.8429    1.4879 H   0  0  0  0  0  0  0  0  0  0  0  0
   -0.0001   -0.7871   -0.1103 C   0  0  0  0  0  3  0  0  0  0  0  0
   -0.0001   -0.7871   -1.3708 N   0  0  0  0  0  0  0  0  0  0  0  0
   -0.0001    0.2930    0.6373 H   0  0  0  0  0  0  0  0  0  0  0  0
   -0.0001   -1.7417    0.4163 H   0  0  0  0  0  0  0  0  0  0  0  0
   -0.0001    0.1638   -1.7376 H   0  0  0  0  0  0  0  0  0  0  0  0
  1  2  1  0
  1  3  1  0
  1  6  1  0
  4  5  2  3
  4  7  1  0
  5  8  1  0
M  RAD  1   4   2
M  END
>  <reaction>  (8) 
rxn_676

>  <mol_properties>  (8) 
{"0": {"label": "*3", "atom_type": "N3s"}, "1": {"label": "*4", "atom_type": "H0"}, "3": {"label": "*1", "atom_type": "Cd"}, "4": {"label": "*0", "atom_type": "N3d"}, "5": {"label": "*2", "atom_type": "H0"}}

>  <type>  (8) 
unop_4

>  <geom_source>  (8) 
Heuristics

$$$$

     RDKit          3D

  8  6  0  0  0  0  0  0  0  0999 V2000
   -0.0195    1.3108    1.3009 N   0  0  0  0  0  0  0  0  0  0  0  0
   -0.0195    1.0122    2.2670 H   0  0  0  0  0  0  0  0  0  0  0  0
    0.8508    1.7933    1.4805 H   0  0  0  0  0  0  0  0  0  0  0  0
   -0.0195   -0.7671   -0.1373 C   0  0  0  0  0  3  0  0  0  0  0  0
   -0.0195   -0.7671   -1.3978 N   0  0  0  0  0  0  0  0  0  0  0  0
   -0.0195    0.3130    0.6103 H   0  0  0  0  0  0  0  0  0  0  0  0
   -0.0195   -1.7218    0.3893 H   0  0  0  0  0  0  0  0  0  0  0  0
   -0.0195    0.1838   -1.7647 H   0  0  0  0  0  0  0  0  0  0  0  0
  1  2  1  0
  1  3  1  0
  1  6  1  0
  4  5  2  3
  4  7  1  0
  5  8  1  0
M  RAD  1   4   2
M  END
>  <reaction>  (9) 
rxn_676

>  <mol_properties>  (9) 
{"0": {"label": "*3", "atom_type": "N3s"}, "1": {"label": "*4", "atom_type": "H0"}, "3": {"label": "*1", "atom_type": "Cd"}, "4": {"label": "*0", "atom_type": "N3d"}, "5": {"label": "*2", "atom_type": "H0"}}

>  <type>  (9) 
unop_5

>  <geom_source>  (9) 
Heuristics

$$$$

     RDKit          3D

  8  6  0  0  0  0  0  0  0  0999 V2000
   -0.0086    1.2908    1.3208 N   0  0  0  0  0  0  0  0  0  0  0  0
    0.9557    1.5411    1.4940 H   0  0  0  0  0  0  0  0  0  0  0  0
   -0.5871    2.1161    1.4033 H   0  0  0  0  0  0  0  0  0  0  0  0
   -0.0086   -0.7871   -0.1174 C   0  0  0  0  0  3  0  0  0  0  0  0
   -0.0086   -0.7871   -1.3779 N   0  0  0  0  0  0  0  0  0  0  0  0
   -0.0086    0.2930    0.6302 H   0  0  0  0  0  0  0  0  0  0  0  0
   -0.0086   -1.7417    0.4092 H   0  0  0  0  0  0  0  0  0  0  0  0
   -0.0086    0.1639   -1.7448 H   0  0  0  0  0  0  0  0  0  0  0  0
  1  2  1  0
  1  3  1  0
  1  6  1  0
  4  5  2  3
  4  7  1  0
  5  8  1  0
M  RAD  1   4   2
M  END
>  <reaction>  (10) 
rxn_676

>  <mol_properties>  (10) 
{"0": {"label": "*3", "atom_type": "N3s"}, "1": {"label": "*4", "atom_type": "H0"}, "3": {"label": "*1", "atom_type": "Cd"}, "4": {"label": "*0", "atom_type": "N3d"}, "5": {"label": "*2", "atom_type": "H0"}}

>  <type>  (10) 
unop_6

>  <geom_source>  (10) 
Heuristics

$$$$

     RDKit          3D

  8  6  0  0  0  0  0  0  0  0999 V2000
   -0.0137    1.2934    1.3129 N   0  0  0  0  0  0  0  0  0  0  0  0
    0.8215    1.2693    1.8826 H   0  0  0  0  0  0  0  0  0  0  0  0
   -0.2379    2.2787    1.3501 H   0  0  0  0  0  0  0  0  0  0  0  0
   -0.0137   -0.7845   -0.1253 C   0  0  0  0  0  3  0  0  0  0  0  0
   -0.0137   -0.7845   -1.3858 N   0  0  0  0  0  0  0  0  0  0  0  0
   -0.0137    0.2956    0.6223 H   0  0  0  0  0  0  0  0  0  0  0  0
   -0.0137   -1.7391    0.4013 H   0  0  0  0  0  0  0  0  0  0  0  0
   -0.0137    0.1664   -1.7526 H   0  0  0  0  0  0  0  0  0  0  0  0
  1  2  1  0
  1  3  1  0
  1  6  1  0
  4  5  2  3
  4  7  1  0
  5  8  1  0
M  RAD  1   4   2
M  END
>  <reaction>  (11) 
rxn_676

>  <mol_properties>  (11) 
{"0": {"label": "*3", "atom_type": "N3s"}, "1": {"label": "*4", "atom_type": "H0"}, "3": {"label": "*1", "atom_type": "Cd"}, "4": {"label": "*0", "atom_type": "N3d"}, "5": {"label": "*2", "atom_type": "H0"}}

>  <type>  (11) 
unop_7

>  <geom_source>  (11) 
Heuristics

$$$$

     RDKit          3D

  8  6  0  0  0  0  0  0  0  0999 V2000
    0.0163    1.3275    1.3104 N   0  0  0  0  0  0  0  0  0  0  0  0
   -0.9480    1.5778    1.4836 H   0  0  0  0  0  0  0  0  0  0  0  0
    0.2522    0.5109    1.8581 H   0  0  0  0  0  0  0  0  0  0  0  0
    0.0163   -0.7503   -0.1278 C   0  0  0  0  0  3  0  0  0  0  0  0
    0.0163   -0.7503   -1.3883 N   0  0  0  0  0  0  0  0  0  0  0  0
    0.0163    0.3298    0.6198 H   0  0  0  0  0  0  0  0  0  0  0  0
    0.0163   -1.7050    0.3988 H   0  0  0  0  0  0  0  0  0  0  0  0
    0.0163    0.2006   -1.7552 H   0  0  0  0  0  0  0  0  0  0  0  0
  1  2  1  0
  1  3  1  0
  1  6  1  0
  4  5  2  3
  4  7  1  0
  5  8  1  0
M  RAD  1   4   2
M  END
>  <reaction>  (12) 
rxn_676

>  <mol_properties>  (12) 
{"0": {"label": "*3", "atom_type": "N3s"}, "1": {"label": "*4", "atom_type": "H0"}, "3": {"label": "*1", "atom_type": "Cd"}, "4": {"label": "*0", "atom_type": "N3d"}, "5": {"label": "*2", "atom_type": "H0"}}

>  <type>  (12) 
unop_8

>  <geom_source>  (12) 
Heuristics

$$$$

     RDKit          3D

  8  6  0  0  0  0  0  0  0  0999 V2000
    0.0107    1.2952    1.3319 N   0  0  0  0  0  0  0  0  0  0  0  0
    0.4929    2.0208    0.8185 H   0  0  0  0  0  0  0  0  0  0  0  0
   -0.9507    1.4494    1.6046 H   0  0  0  0  0  0  0  0  0  0  0  0
    0.0107   -0.7827   -0.1063 C   0  0  0  0  0  3  0  0  0  0  0  0
    0.0107   -0.7827   -1.3668 N   0  0  0  0  0  0  0  0  0  0  0  0
    0.0107    0.2974    0.6413 H   0  0  0  0  0  0  0  0  0  0  0  0
    0.0107   -1.7373    0.4203 H   0  0  0  0  0  0  0  0  0  0  0  0
    0.0107    0.1682   -1.7337 H   0  0  0  0  0  0  0  0  0  0  0  0
  1  2  1  0
  1  3  1  0
  1  6  1  0
  4  5  2  3
  4  7  1  0
  5  8  1  0
M  RAD  1   4   2
M  END
>  <reaction>  (13) 
rxn_676

>  <mol_properties>  (13) 
{"0": {"label": "*3", "atom_type": "N3s"}, "1": {"label": "*4", "atom_type": "H0"}, "3": {"label": "*1", "atom_type": "Cd"}, "4": {"label": "*0", "atom_type": "N3d"}, "5": {"label": "*2", "atom_type": "H0"}}

>  <type>  (13) 
unop_9

>  <geom_source>  (13) 
Heuristics

$$$$

     RDKit          3D

  8  6  0  0  0  0  0  0  0  0999 V2000
    0.0219    1.3218    1.3191 N   0  0  0  0  0  0  0  0  0  0  0  0
   -0.8132    1.8465    1.0959 H   0  0  0  0  0  0  0  0  0  0  0  0
   -0.1223    0.4874    1.8719 H   0  0  0  0  0  0  0  0  0  0  0  0
    0.0219   -0.7561   -0.1191 C   0  0  0  0  0  3  0  0  0  0  0  0
    0.0219   -0.7561   -1.3796 N   0  0  0  0  0  0  0  0  0  0  0  0
    0.0219    0.3240    0.6285 H   0  0  0  0  0  0  0  0  0  0  0  0
    0.0219   -1.7107    0.4075 H   0  0  0  0  0  0  0  0  0  0  0  0
    0.0219    0.1949   -1.7464 H   0  0  0  0  0  0  0  0  0  0  0  0
  1  2  1  0
  1  3  1  0
  1  6  1  0
  4  5  2  3
  4  7  1  0
  5  8  1  0
M  RAD  1   4   2
M  END
>  <reaction>  (14) 
rxn_676

>  <mol_properties>  (14) 
{"0": {"label": "*3", "atom_type": "N3s"}, "1": {"label": "*4", "atom_type": "H0"}, "3": {"label": "*1", "atom_type": "Cd"}, "4": {"label": "*0", "atom_type": "N3d"}, "5": {"label": "*2", "atom_type": "H0"}}

>  <type>  (14) 
unop_10

>  <geom_source>  (14) 
Heuristics

$$$$

     RDKit          3D

  8  6  0  0  0  0  0  0  0  0999 V2000
   -0.0173    1.2983    1.3063 N   0  0  0  0  0  0  0  0  0  0  0  0
    0.4649    1.0733    2.1662 H   0  0  0  0  0  0  0  0  0  0  0  0
    0.2738    2.2658    1.3486 H   0  0  0  0  0  0  0  0  0  0  0  0
   -0.0173   -0.7796   -0.1319 C   0  0  0  0  0  3  0  0  0  0  0  0
   -0.0173   -0.7796   -1.3924 N   0  0  0  0  0  0  0  0  0  0  0  0
   -0.0173    0.3005    0.6157 H   0  0  0  0  0  0  0  0  0  0  0  0
   -0.0173   -1.7343    0.3947 H   0  0  0  0  0  0  0  0  0  0  0  0
   -0.0173    0.1713   -1.7592 H   0  0  0  0  0  0  0  0  0  0  0  0
  1  2  1  0
  1  3  1  0
  1  6  1  0
  4  5  2  3
  4  7  1  0
  5  8  1  0
M  RAD  1   4   2
M  END
>  <reaction>  (15) 
rxn_676

>  <mol_properties>  (15) 
{"0": {"label": "*3", "atom_type": "N3s"}, "1": {"label": "*4", "atom_type": "H0"}, "3": {"label": "*1", "atom_type": "Cd"}, "4": {"label": "*0", "atom_type": "N3d"}, "5": {"label": "*2", "atom_type": "H0"}}

>  <type>  (15) 
unop_11

>  <geom_source>  (15) 
Heuristics

$$$$

     RDKit          3D

  8  6  0  0  0  0  0  0  0  0999 V2000
    0.0195    1.3041    1.3313 N   0  0  0  0  0  0  0  0  0  0  0  0
    0.0195    2.1032    0.7116 H   0  0  0  0  0  0  0  0  0  0  0  0
   -0.8508    0.9875    1.7374 H   0  0  0  0  0  0  0  0  0  0  0  0
    0.0195   -0.7738   -0.1069 C   0  0  0  0  0  3  0  0  0  0  0  0
    0.0195   -0.7738   -1.3674 N   0  0  0  0  0  0  0  0  0  0  0  0
    0.0195    0.3063    0.6407 H   0  0  0  0  0  0  0  0  0  0  0  0
    0.0195   -1.7284    0.4197 H   0  0  0  0  0  0  0  0  0  0  0  0
    0.0195    0.1771   -1.7343 H   0  0  0  0  0  0  0  0  0  0  0  0
  1  2  1  0
  1  3  1  0
  1  6  1  0
  4  5  2  3
  4  7  1  0
  5  8  1  0
M  RAD  1   4   2
M  END
>  <reaction>  (16) 
rxn_676

>  <mol_properties>  (16) 
{"0": {"label": "*3", "atom_type": "N3s"}, "1": {"label": "*4", "atom_type": "H0"}, "3": {"label": "*1", "atom_type": "Cd"}, "4": {"label": "*0", "atom_type": "N3d"}, "5": {"label": "*2", "atom_type": "H0"}}

>  <type>  (16) 
unop_12

>  <geom_source>  (16) 
Heuristics

$$$$
