
     RDKit          3D

  5  4  0  0  0  0  0  0  0  0999 V2000
    0.0000    0.0000    0.0000 C   0  0  0  0  0  0  0  0  0  0  0  0
   -0.6486   -0.7720   -0.4113 H   0  0  0  0  0  0  0  0  0  0  0  0
   -0.3482    0.9787   -0.3267 H   0  0  0  0  0  0  0  0  0  0  0  0
   -0.0223   -0.0487    1.0876 H   0  0  0  0  0  0  0  0  0  0  0  0
    1.0191   -0.1580   -0.3496 H   0  0  0  0  0  0  0  0  0  0  0  0
  1  2  1  0
  1  3  1  0
  1  4  1  0
  1  5  1  0
M  END
>  <reaction>  (1) 
rxn_831

>  <mol_properties>  (1) 
{"0": {"label": "donator", "atom_type": "Cs"}, "1": {"label": "d_hydrogen", "atom_type": "H0"}}

>  <type>  (1) 
r1h

$$$$

     RDKit          3D

 14 13  0  0  0  0  0  0  0  0999 V2000
    1.0767   -1.6838    1.2931 C   0  0  0  0  0  0  0  0  0  0  0  0
    1.0020   -0.3665    0.9163 C   0  0  0  0  0  0  0  0  0  0  0  0
    1.3965    0.7260    1.6806 C   0  0  0  0  0  3  0  0  0  0  0  0
    1.2666    2.1197    1.1619 C   0  0  0  0  0  0  0  0  0  0  0  0
    1.9670    0.5479    3.0536 C   0  0  0  0  0  0  0  0  0  0  0  0
    0.7448   -2.4705    0.6300 H   0  0  0  0  0  0  0  0  0  0  0  0
    1.4663   -1.9826    2.2578 H   0  0  0  0  0  0  0  0  0  0  0  0
    0.5980   -0.1511   -0.0695 H   0  0  0  0  0  0  0  0  0  0  0  0
    0.6296    2.7241    1.8172 H   0  0  0  0  0  0  0  0  0  0  0  0
    2.2410    2.6200    1.1341 H   0  0  0  0  0  0  0  0  0  0  0  0
    0.8426    2.1448    0.1579 H   0  0  0  0  0  0  0  0  0  0  0  0
    2.8745   -0.0634    3.0328 H   0  0  0  0  0  0  0  0  0  0  0  0
    1.2599    0.0408    3.7173 H   0  0  0  0  0  0  0  0  0  0  0  0
    2.2205    1.5071    3.5054 H   0  0  0  0  0  0  0  0  0  0  0  0
  1  2  2  3
  1  6  1  0
  1  7  1  0
  2  3  1  0
  2  8  1  0
  3  4  1  0
  3  5  1  0
  4  9  1  0
  4 10  1  0
  4 11  1  0
  5 12  1  0
  5 13  1  0
  5 14  1  0
M  RAD  1   3   2
M  END
>  <reaction>  (2) 
rxn_831

>  <mol_properties>  (2) 
{"2": {"label": "acceptor", "atom_type": "Cs"}}

>  <type>  (2) 
r2

$$$$

     RDKit          3D

 15 14  0  0  0  0  0  0  0  0999 V2000
    2.1256    0.4849   -0.6284 C   0  0  0  0  0  0  0  0  0  0  0  0
    1.1128    0.2141    0.1794 C   0  0  0  0  0  0  0  0  0  0  0  0
   -0.3017   -0.0425   -0.2513 C   0  0  0  0  0  0  0  0  0  0  0  0
   -1.2427    1.0075    0.3423 C   0  0  0  0  0  0  0  0  0  0  0  0
   -0.7381   -1.4526    0.1504 C   0  0  0  0  0  0  0  0  0  0  0  0
    3.1243    0.6602   -0.2486 H   0  0  0  0  0  0  0  0  0  0  0  0
    1.9908    0.5411   -1.7036 H   0  0  0  0  0  0  0  0  0  0  0  0
    1.2888    0.1665    1.2533 H   0  0  0  0  0  0  0  0  0  0  0  0
   -0.3426    0.0343   -1.3424 H   0  0  0  0  0  0  0  0  0  0  0  0
   -0.9570    2.0133    0.0315 H   0  0  0  0  0  0  0  0  0  0  0  0
   -1.2189    0.9728    1.4350 H   0  0  0  0  0  0  0  0  0  0  0  0
   -2.2723    0.8287    0.0254 H   0  0  0  0  0  0  0  0  0  0  0  0
   -0.6964   -1.5744    1.2363 H   0  0  0  0  0  0  0  0  0  0  0  0
   -0.0911   -2.2079   -0.2978 H   0  0  0  0  0  0  0  0  0  0  0  0
   -1.7646   -1.6461   -0.1677 H   0  0  0  0  0  0  0  0  0  0  0  0
  1  2  2  3
  1  6  1  0
  1  7  1  0
  2  3  1  0
  2  8  1  0
  3  4  1  0
  3  5  1  0
  3  9  1  0
  4 10  1  0
  4 11  1  0
  4 12  1  0
  5 13  1  0
  5 14  1  0
  5 15  1  0
M  END
>  <reaction>  (3) 
rxn_831

>  <mol_properties>  (3) 
{"2": {"label": "acceptor", "atom_type": "Cs"}, "14": {"label": "a_hydrogen", "atom_type": "H0"}}

>  <type>  (3) 
r2h

$$$$

     RDKit          3D

 19 17  0  0  0  0  0  0  0  0999 V2000
   -1.3688    1.2199   -1.3907 C   0  0  0  0  0  0  0  0  0  0  0  0
   -0.1748    0.8807   -0.9148 C   0  0  0  0  0  0  0  0  0  0  0  0
    0.1050    0.1058    0.3141 C   0  0  0  0  0  0  0  0  0  0  0  0
   -1.0899   -0.2151    1.1851 C   0  0  0  0  0  0  0  0  0  0  0  0
    1.2967    0.6309    1.0948 C   0  0  0  0  0  0  0  0  0  0  0  0
   -1.4633    1.7723   -2.3168 H   0  0  0  0  0  0  0  0  0  0  0  0
   -2.2886    0.9691   -0.8763 H   0  0  0  0  0  0  0  0  0  0  0  0
    0.7067    1.1738   -1.4811 H   0  0  0  0  0  0  0  0  0  0  0  0
   -0.7908   -0.8496    2.0212 H   0  0  0  0  0  0  0  0  0  0  0  0
   -1.5327    0.6969    1.5970 H   0  0  0  0  0  0  0  0  0  0  0  0
   -1.8646   -0.7425    0.6260 H   0  0  0  0  0  0  0  0  0  0  0  0
    1.0590    1.5857    1.5735 H   0  0  0  0  0  0  0  0  0  0  0  0
    2.1584    0.7894    0.4433 H   0  0  0  0  0  0  0  0  0  0  0  0
    1.5887   -0.0731    1.8768 H   0  0  0  0  0  0  0  0  0  0  0  0
    0.9313   -2.3668   -0.4788 C   0  0  0  0  0  3  0  0  0  0  0  0
    0.4899   -1.0031   -0.0985 H   0  0  0  0  0  0  0  0  0  0  0  0
    1.8960   -2.1893   -0.9417 H   0  0  0  0  0  0  0  0  0  0  0  0
    0.9649   -2.8994    0.4653 H   0  0  0  0  0  0  0  0  0  0  0  0
    0.1448   -2.6775   -1.1575 H   0  0  0  0  0  0  0  0  0  0  0  0
  1  2  2  3
  1  6  1  0
  1  7  1  0
  2  3  1  0
  2  8  1  0
  3  4  1  0
  3  5  1  0
  3 16  1  0
  4  9  1  0
  4 10  1  0
  4 11  1  0
  5 12  1  0
  5 13  1  0
  5 14  1  0
 15 17  1  0
 15 18  1  0
 15 19  1  0
M  RAD  1  15   2
M  END
>  <reaction>  (4) 
rxn_831

>  <mol_properties>  (4) 
{"1": {"label": "*0", "atom_type": "Cd"}, "2": {"label": "*1", "atom_type": "Cs"}, "14": {"label": "*3", "atom_type": "Cs"}, "15": {"label": "*2", "atom_type": "H0"}, "16": {"label": "*4", "atom_type": "H0"}}

>  <type>  (4) 
ts

$$$$

     RDKit          3D

 19 17  0  0  0  0  0  0  0  0999 V2000
   -2.1263    0.0583    0.4455 C   0  0  0  0  0  0  0  0  0  0  0  0
   -0.9325    0.5638    0.7118 C   0  0  0  0  0  0  0  0  0  0  0  0
    0.3035    0.3639   -0.1157 C   0  0  0  0  0  3  0  0  0  0  0  0
    1.3854   -0.3483    0.6982 C   0  0  0  0  0  0  0  0  0  0  0  0
    0.8166    1.7037   -0.6468 C   0  0  0  0  0  0  0  0  0  0  0  0
   -2.9780    0.2434    1.0880 H   0  0  0  0  0  0  0  0  0  0  0  0
   -2.2947   -0.5616   -0.4290 H   0  0  0  0  0  0  0  0  0  0  0  0
   -0.8039    1.1814    1.5997 H   0  0  0  0  0  0  0  0  0  0  0  0
    2.2841   -0.5023    0.0974 H   0  0  0  0  0  0  0  0  0  0  0  0
    1.6655    0.2470    1.5716 H   0  0  0  0  0  0  0  0  0  0  0  0
    1.0372   -1.3200    1.0513 H   0  0  0  0  0  0  0  0  0  0  0  0
    1.0766    2.3717    0.1789 H   0  0  0  0  0  0  0  0  0  0  0  0
    0.0612    2.2011   -1.2567 H   0  0  0  0  0  0  0  0  0  0  0  0
    1.7120    1.5620   -1.2557 H   0  0  0  0  0  0  0  0  0  0  0  0
    0.3035   -2.1063   -0.9891 C   0  0  0  0  0  0  0  0  0  0  0  0
    0.3035   -0.8744   -0.5535 H   0  0  0  0  0  0  0  0  0  0  0  0
    1.1926   -2.6197   -0.6261 H   0  0  0  0  0  0  0  0  0  0  0  0
   -0.5856   -2.6197   -0.6261 H   0  0  0  0  0  0  0  0  0  0  0  0
    0.3035   -2.1063   -2.0780 H   0  0  0  0  0  0  0  0  0  0  0  0
  1  2  2  3
  1  6  1  0
  1  7  1  0
  2  3  1  0
  2  8  1  0
  3  4  1  0
  3  5  1  0
  4  9  1  0
  4 10  1  0
  4 11  1  0
  5 12  1  0
  5 13  1  0
  5 14  1  0
 15 16  1  0
 15 17  1  0
 15 18  1  0
 15 19  1  0
M  RAD  1   3   2
M  END
>  <reaction>  (5) 
rxn_831

>  <mol_properties>  (5) 
{"1": {"label": "*0", "atom_type": "Cd"}, "2": {"label": "*1", "atom_type": "Cs"}, "14": {"label": "*3", "atom_type": "Cs"}, "15": {"label": "*2", "atom_type": "H0"}, "16": {"label": "*4", "atom_type": "H0"}}

>  <type>  (5) 
unop_1

>  <geom_source>  (5) 
Heuristics

$$$$

     RDKit          3D

 19 17  0  0  0  0  0  0  0  0999 V2000
   -0.7375    0.6872   -1.8784 C   0  0  0  0  0  0  0  0  0  0  0  0
   -0.5057    1.0214   -0.6190 C   0  0  0  0  0  0  0  0  0  0  0  0
    0.2079    0.1717    0.3915 C   0  0  0  0  0  3  0  0  0  0  0  0
   -0.7183   -0.1621    1.5625 C   0  0  0  0  0  0  0  0  0  0  0  0
    1.4752    0.8730    0.8839 C   0  0  0  0  0  0  0  0  0  0  0  0
   -1.2603    1.3510   -2.5555 H   0  0  0  0  0  0  0  0  0  0  0  0
   -0.4110   -0.2670   -2.2786 H   0  0  0  0  0  0  0  0  0  0  0  0
   -0.8495    1.9887   -0.2549 H   0  0  0  0  0  0  0  0  0  0  0  0
   -0.2051   -0.7865    2.2968 H   0  0  0  0  0  0  0  0  0  0  0  0
   -1.0434    0.7506    2.0692 H   0  0  0  0  0  0  0  0  0  0  0  0
   -1.6083   -0.6930    1.2218 H   0  0  0  0  0  0  0  0  0  0  0  0
    1.2277    1.8224    1.3667 H   0  0  0  0  0  0  0  0  0  0  0  0
    2.1555    1.0833    0.0575 H   0  0  0  0  0  0  0  0  0  0  0  0
    2.0015    0.2548    1.6142 H   0  0  0  0  0  0  0  0  0  0  0  0
    0.2079   -2.2985   -0.4818 C   0  0  0  0  0  0  0  0  0  0  0  0
    0.2079   -1.0666   -0.0463 H   0  0  0  0  0  0  0  0  0  0  0  0
    1.0970   -2.8119   -0.1189 H   0  0  0  0  0  0  0  0  0  0  0  0
   -0.6812   -2.8119   -0.1189 H   0  0  0  0  0  0  0  0  0  0  0  0
    0.2079   -2.2985   -1.5708 H   0  0  0  0  0  0  0  0  0  0  0  0
  1  2  2  3
  1  6  1  0
  1  7  1  0
  2  3  1  0
  2  8  1  0
  3  4  1  0
  3  5  1  0
  4  9  1  0
  4 10  1  0
  4 11  1  0
  5 12  1  0
  5 13  1  0
  5 14  1  0
 15 16  1  0
 15 17  1  0
 15 18  1  0
 15 19  1  0
M  RAD  1   3   2
M  END
>  <reaction>  (6) 
rxn_831

>  <mol_properties>  (6) 
{"1": {"label": "*0", "atom_type": "Cd"}, "2": {"label": "*1", "atom_type": "Cs"}, "14": {"label": "*3", "atom_type": "Cs"}, "15": {"label": "*2", "atom_type": "H0"}, "16": {"label": "*4", "atom_type": "H0"}}

>  <type>  (6) 
unop_2

>  <geom_source>  (6) 
Heuristics

$$$$

     RDKit          3D

 19 17  0  0  0  0  0  0  0  0999 V2000
   -1.4938   -0.4318    1.4799 C   0  0  0  0  0  0  0  0  0  0  0  0
   -0.5561    0.4197    1.0959 C   0  0  0  0  0  0  0  0  0  0  0  0
    0.1575    0.3940   -0.2241 C   0  0  0  0  0  3  0  0  0  0  0  0
    1.6586    0.1820   -0.0191 C   0  0  0  0  0  0  0  0  0  0  0  0
   -0.1079    1.6835   -1.0033 C   0  0  0  0  0  0  0  0  0  0  0  0
   -1.9687   -0.3546    2.4500 H   0  0  0  0  0  0  0  0  0  0  0  0
   -1.8211   -1.2401    0.8343 H   0  0  0  0  0  0  0  0  0  0  0  0
   -0.2548    1.2179    1.7729 H   0  0  0  0  0  0  0  0  0  0  0  0
    2.1808    0.1554   -0.9778 H   0  0  0  0  0  0  0  0  0  0  0  0
    2.0860    0.9971    0.5713 H   0  0  0  0  0  0  0  0  0  0  0  0
    1.8562   -0.7534    0.5062 H   0  0  0  0  0  0  0  0  0  0  0  0
    0.2569    2.5517   -0.4477 H   0  0  0  0  0  0  0  0  0  0  0  0
   -1.1749    1.8230   -1.1825 H   0  0  0  0  0  0  0  0  0  0  0  0
    0.4037    1.6658   -1.9679 H   0  0  0  0  0  0  0  0  0  0  0  0
    0.1575   -2.0763   -1.0975 C   0  0  0  0  0  0  0  0  0  0  0  0
    0.1575   -0.8443   -0.6619 H   0  0  0  0  0  0  0  0  0  0  0  0
    1.0466   -2.5896   -0.7345 H   0  0  0  0  0  0  0  0  0  0  0  0
   -0.7317   -2.5896   -0.7345 H   0  0  0  0  0  0  0  0  0  0  0  0
    0.1575   -2.0763   -2.1864 H   0  0  0  0  0  0  0  0  0  0  0  0
  1  2  2  3
  1  6  1  0
  1  7  1  0
  2  3  1  0
  2  8  1  0
  3  4  1  0
  3  5  1  0
  4  9  1  0
  4 10  1  0
  4 11  1  0
  5 12  1  0
  5 13  1  0
  5 14  1  0
 15 16  1  0
 15 17  1  0
 15 18  1  0
 15 19  1  0
M  RAD  1   3   2
M  END
>  <reaction>  (7) 
rxn_831

>  <mol_properties>  (7) 
{"1": {"label": "*0", "atom_type": "Cd"}, "2": {"label": "*1", "atom_type": "Cs"}, "14": {"label": "*3", "atom_type": "Cs"}, "15": {"label": "*2", "atom_type": "H0"}, "16": {"label": "*4", "atom_type": "H0"}}

>  <type>  (7) 
unop_3

>  <geom_source>  (7) 
Heuristics

$$$$

     RDKit          3D

 19 17  0  0  0  0  0  0  0  0999 V2000
    1.4859    0.6418   -1.4252 C   0  0  0  0  0  0  0  0  0  0  0  0
    0.8897    0.9070   -0.2737 C   0  0  0  0  0  0  0  0  0  0  0  0
   -0.3462    0.2314    0.2443 C   0  0  0  0  0  3  0  0  0  0  0  0
   -1.4779    1.2453    0.4222 C   0  0  0  0  0  0  0  0  0  0  0  0
   -0.0519   -0.4910    1.5603 C   0  0  0  0  0  0  0  0  0  0  0  0
    2.3781    1.1696   -1.7380 H   0  0  0  0  0  0  0  0  0  0  0  0
    1.1005   -0.1163   -2.0990 H   0  0  0  0  0  0  0  0  0  0  0  0
    1.3075    1.6755    0.3754 H   0  0  0  0  0  0  0  0  0  0  0  0
   -2.3816    0.7565    0.7922 H   0  0  0  0  0  0  0  0  0  0  0  0
   -1.1953    2.0157    1.1448 H   0  0  0  0  0  0  0  0  0  0  0  0
   -1.7158    1.7396   -0.5207 H   0  0  0  0  0  0  0  0  0  0  0  0
    0.2812    0.2180    2.3232 H   0  0  0  0  0  0  0  0  0  0  0  0
    0.7311   -1.2397    1.4322 H   0  0  0  0  0  0  0  0  0  0  0  0
   -0.9471   -0.9901    1.9371 H   0  0  0  0  0  0  0  0  0  0  0  0
   -0.3462   -2.2388   -0.6291 C   0  0  0  0  0  0  0  0  0  0  0  0
   -0.3462   -1.0068   -0.1935 H   0  0  0  0  0  0  0  0  0  0  0  0
    0.5429   -2.7522   -0.2661 H   0  0  0  0  0  0  0  0  0  0  0  0
   -1.2353   -2.7522   -0.2661 H   0  0  0  0  0  0  0  0  0  0  0  0
   -0.3462   -2.2388   -1.7180 H   0  0  0  0  0  0  0  0  0  0  0  0
  1  2  2  3
  1  6  1  0
  1  7  1  0
  2  3  1  0
  2  8  1  0
  3  4  1  0
  3  5  1  0
  4  9  1  0
  4 10  1  0
  4 11  1  0
  5 12  1  0
  5 13  1  0
  5 14  1  0
 15 16  1  0
 15 17  1  0
 15 18  1  0
 15 19  1  0
M  RAD  1   3   2
M  END
>  <reaction>  (8) 
rxn_831

>  <mol_properties>  (8) 
{"1": {"label": "*0", "atom_type": "Cd"}, "2": {"label": "*1", "atom_type": "Cs"}, "14": {"label": "*3", "atom_type": "Cs"}, "15": {"label": "*2", "atom_type": "H0"}, "16": {"label": "*4", "atom_type": "H0"}}

>  <type>  (8) 
unop_4

>  <geom_source>  (8) 
Heuristics

$$$$

     RDKit          3D

 19 17  0  0  0  0  0  0  0  0999 V2000
   -0.0000   -0.7378    1.9865 C   0  0  0  0  0  0  0  0  0  0  0  0
   -0.0000    0.3585    1.2450 C   0  0  0  0  0  0  0  0  0  0  0  0
   -0.0000    0.3965   -0.2553 C   0  0  0  0  0  3  0  0  0  0  0  0
    1.2593    1.0926   -0.7749 C   0  0  0  0  0  0  0  0  0  0  0  0
   -1.2593    1.0926   -0.7749 C   0  0  0  0  0  0  0  0  0  0  0  0
   -0.0000   -0.6921    3.0683 H   0  0  0  0  0  0  0  0  0  0  0  0
   -0.0000   -1.7246    1.5353 H   0  0  0  0  0  0  0  0  0  0  0  0
    0.0000    1.3309    1.7357 H   0  0  0  0  0  0  0  0  0  0  0  0
    1.2668    1.1159   -1.8666 H   0  0  0  0  0  0  0  0  0  0  0  0
    1.3039    2.1254   -0.4185 H   0  0  0  0  0  0  0  0  0  0  0  0
    2.1609    0.5805   -0.4357 H   0  0  0  0  0  0  0  0  0  0  0  0
   -1.3039    2.1254   -0.4185 H   0  0  0  0  0  0  0  0  0  0  0  0
   -2.1609    0.5805   -0.4357 H   0  0  0  0  0  0  0  0  0  0  0  0
   -1.2668    1.1160   -1.8666 H   0  0  0  0  0  0  0  0  0  0  0  0
   -0.0000   -2.0738   -1.1287 C   0  0  0  0  0  0  0  0  0  0  0  0
   -0.0000   -0.8418   -0.6931 H   0  0  0  0  0  0  0  0  0  0  0  0
    0.8891   -2.5871   -0.7657 H   0  0  0  0  0  0  0  0  0  0  0  0
   -0.8891   -2.5871   -0.7657 H   0  0  0  0  0  0  0  0  0  0  0  0
   -0.0000   -2.0738   -2.2176 H   0  0  0  0  0  0  0  0  0  0  0  0
  1  2  2  3
  1  6  1  0
  1  7  1  0
  2  3  1  0
  2  8  1  0
  3  4  1  0
  3  5  1  0
  4  9  1  0
  4 10  1  0
  4 11  1  0
  5 12  1  0
  5 13  1  0
  5 14  1  0
 15 16  1  0
 15 17  1  0
 15 18  1  0
 15 19  1  0
M  RAD  1   3   2
M  END
>  <reaction>  (9) 
rxn_831

>  <mol_properties>  (9) 
{"1": {"label": "*0", "atom_type": "Cd"}, "2": {"label": "*1", "atom_type": "Cs"}, "14": {"label": "*3", "atom_type": "Cs"}, "15": {"label": "*2", "atom_type": "H0"}, "16": {"label": "*4", "atom_type": "H0"}}

>  <type>  (9) 
unop_5

>  <geom_source>  (9) 
Heuristics

$$$$

     RDKit          3D

 19 17  0  0  0  0  0  0  0  0999 V2000
    2.0405    0.4359   -0.6110 C   0  0  0  0  0  0  0  0  0  0  0  0
    1.0490    0.7411    0.2110 C   0  0  0  0  0  0  0  0  0  0  0  0
   -0.3781    0.3034    0.0562 C   0  0  0  0  0  3  0  0  0  0  0  0
   -1.2971    1.5157   -0.1053 C   0  0  0  0  0  0  0  0  0  0  0  0
   -0.8102   -0.5510    1.2494 C   0  0  0  0  0  0  0  0  0  0  0  0
    3.0502    0.7869   -0.4384 H   0  0  0  0  0  0  0  0  0  0  0  0
    1.8763   -0.1788   -1.4898 H   0  0  0  0  0  0  0  0  0  0  0  0
    1.2544    1.3609    1.0828 H   0  0  0  0  0  0  0  0  0  0  0  0
   -2.3359    1.2013   -0.2255 H   0  0  0  0  0  0  0  0  0  0  0  0
   -1.2433    2.1605    0.7762 H   0  0  0  0  0  0  0  0  0  0  0  0
   -1.0151    2.1108   -0.9750 H   0  0  0  0  0  0  0  0  0  0  0  0
   -0.7391    0.0206    2.1788 H   0  0  0  0  0  0  0  0  0  0  0  0
   -0.1796   -1.4355    1.3495 H   0  0  0  0  0  0  0  0  0  0  0  0
   -1.8461   -0.8778    1.1372 H   0  0  0  0  0  0  0  0  0  0  0  0
   -0.3781   -2.1669   -0.8171 C   0  0  0  0  0  0  0  0  0  0  0  0
   -0.3781   -0.9349   -0.3816 H   0  0  0  0  0  0  0  0  0  0  0  0
    0.5110   -2.6802   -0.4542 H   0  0  0  0  0  0  0  0  0  0  0  0
   -1.2672   -2.6802   -0.4542 H   0  0  0  0  0  0  0  0  0  0  0  0
   -0.3781   -2.1669   -1.9061 H   0  0  0  0  0  0  0  0  0  0  0  0
  1  2  2  3
  1  6  1  0
  1  7  1  0
  2  3  1  0
  2  8  1  0
  3  4  1  0
  3  5  1  0
  4  9  1  0
  4 10  1  0
  4 11  1  0
  5 12  1  0
  5 13  1  0
  5 14  1  0
 15 16  1  0
 15 17  1  0
 15 18  1  0
 15 19  1  0
M  RAD  1   3   2
M  END
>  <reaction>  (10) 
rxn_831

>  <mol_properties>  (10) 
{"1": {"label": "*0", "atom_type": "Cd"}, "2": {"label": "*1", "atom_type": "Cs"}, "14": {"label": "*3", "atom_type": "Cs"}, "15": {"label": "*2", "atom_type": "H0"}, "16": {"label": "*4", "atom_type": "H0"}}

>  <type>  (10) 
unop_6

>  <geom_source>  (10) 
Heuristics

$$$$

     RDKit          3D

 19 17  0  0  0  0  0  0  0  0999 V2000
    2.1263    0.0583    0.4455 C   0  0  0  0  0  0  0  0  0  0  0  0
    0.9325    0.5638    0.7118 C   0  0  0  0  0  0  0  0  0  0  0  0
   -0.3035    0.3639   -0.1157 C   0  0  0  0  0  3  0  0  0  0  0  0
   -0.8166    1.7037   -0.6468 C   0  0  0  0  0  0  0  0  0  0  0  0
   -1.3854   -0.3483    0.6982 C   0  0  0  0  0  0  0  0  0  0  0  0
    2.9780    0.2434    1.0880 H   0  0  0  0  0  0  0  0  0  0  0  0
    2.2947   -0.5616   -0.4290 H   0  0  0  0  0  0  0  0  0  0  0  0
    0.8039    1.1814    1.5997 H   0  0  0  0  0  0  0  0  0  0  0  0
   -1.7120    1.5620   -1.2557 H   0  0  0  0  0  0  0  0  0  0  0  0
   -1.0766    2.3717    0.1789 H   0  0  0  0  0  0  0  0  0  0  0  0
   -0.0612    2.2011   -1.2567 H   0  0  0  0  0  0  0  0  0  0  0  0
   -1.6655    0.2470    1.5716 H   0  0  0  0  0  0  0  0  0  0  0  0
   -1.0372   -1.3200    1.0513 H   0  0  0  0  0  0  0  0  0  0  0  0
   -2.2841   -0.5023    0.0974 H   0  0  0  0  0  0  0  0  0  0  0  0
   -0.3035   -2.1063   -0.9891 C   0  0  0  0  0  0  0  0  0  0  0  0
   -0.3035   -0.8744   -0.5535 H   0  0  0  0  0  0  0  0  0  0  0  0
    0.5856   -2.6197   -0.6261 H   0  0  0  0  0  0  0  0  0  0  0  0
   -1.1926   -2.6197   -0.6261 H   0  0  0  0  0  0  0  0  0  0  0  0
   -0.3035   -2.1063   -2.0780 H   0  0  0  0  0  0  0  0  0  0  0  0
  1  2  2  3
  1  6  1  0
  1  7  1  0
  2  3  1  0
  2  8  1  0
  3  4  1  0
  3  5  1  0
  4  9  1  0
  4 10  1  0
  4 11  1  0
  5 12  1  0
  5 13  1  0
  5 14  1  0
 15 16  1  0
 15 17  1  0
 15 18  1  0
 15 19  1  0
M  RAD  1   3   2
M  END
>  <reaction>  (11) 
rxn_831

>  <mol_properties>  (11) 
{"1": {"label": "*0", "atom_type": "Cd"}, "2": {"label": "*1", "atom_type": "Cs"}, "14": {"label": "*3", "atom_type": "Cs"}, "15": {"label": "*2", "atom_type": "H0"}, "16": {"label": "*4", "atom_type": "H0"}}

>  <type>  (11) 
unop_7

>  <geom_source>  (11) 
Heuristics

$$$$

     RDKit          3D

 19 17  0  0  0  0  0  0  0  0999 V2000
   -2.0405    0.4359   -0.6110 C   0  0  0  0  0  0  0  0  0  0  0  0
   -1.0490    0.7411    0.2110 C   0  0  0  0  0  0  0  0  0  0  0  0
    0.3781    0.3034    0.0562 C   0  0  0  0  0  3  0  0  0  0  0  0
    0.8102   -0.5510    1.2494 C   0  0  0  0  0  0  0  0  0  0  0  0
    1.2971    1.5157   -0.1053 C   0  0  0  0  0  0  0  0  0  0  0  0
   -3.0502    0.7869   -0.4384 H   0  0  0  0  0  0  0  0  0  0  0  0
   -1.8763   -0.1788   -1.4898 H   0  0  0  0  0  0  0  0  0  0  0  0
   -1.2544    1.3609    1.0828 H   0  0  0  0  0  0  0  0  0  0  0  0
    1.8461   -0.8778    1.1372 H   0  0  0  0  0  0  0  0  0  0  0  0
    0.7391    0.0206    2.1788 H   0  0  0  0  0  0  0  0  0  0  0  0
    0.1796   -1.4355    1.3495 H   0  0  0  0  0  0  0  0  0  0  0  0
    1.2433    2.1605    0.7762 H   0  0  0  0  0  0  0  0  0  0  0  0
    1.0151    2.1108   -0.9750 H   0  0  0  0  0  0  0  0  0  0  0  0
    2.3360    1.2013   -0.2255 H   0  0  0  0  0  0  0  0  0  0  0  0
    0.3781   -2.1669   -0.8171 C   0  0  0  0  0  0  0  0  0  0  0  0
    0.3781   -0.9349   -0.3816 H   0  0  0  0  0  0  0  0  0  0  0  0
    1.2672   -2.6802   -0.4542 H   0  0  0  0  0  0  0  0  0  0  0  0
   -0.5110   -2.6802   -0.4542 H   0  0  0  0  0  0  0  0  0  0  0  0
    0.3781   -2.1669   -1.9061 H   0  0  0  0  0  0  0  0  0  0  0  0
  1  2  2  3
  1  6  1  0
  1  7  1  0
  2  3  1  0
  2  8  1  0
  3  4  1  0
  3  5  1  0
  4  9  1  0
  4 10  1  0
  4 11  1  0
  5 12  1  0
  5 13  1  0
  5 14  1  0
 15 16  1  0
 15 17  1  0
 15 18  1  0
 15 19  1  0
M  RAD  1   3   2
M  END
>  <reaction>  (12) 
rxn_831

>  <mol_properties>  (12) 
{"1": {"label": "*0", "atom_type": "Cd"}, "2": {"label": "*1", "atom_type": "Cs"}, "14": {"label": "*3", "atom_type": "Cs"}, "15": {"label": "*2", "atom_type": "H0"}, "16": {"label": "*4", "atom_type": "H0"}}

>  <type>  (12) 
unop_8

>  <geom_source>  (12) 
Heuristics

$$$$

     RDKit          3D

 19 17  0  0  0  0  0  0  0  0999 V2000
    0.7375    0.6872   -1.8784 C   0  0  0  0  0  0  0  0  0  0  0  0
    0.5057    1.0214   -0.6190 C   0  0  0  0  0  0  0  0  0  0  0  0
   -0.2079    0.1717    0.3915 C   0  0  0  0  0  3  0  0  0  0  0  0
   -1.4752    0.8730    0.8839 C   0  0  0  0  0  0  0  0  0  0  0  0
    0.7183   -0.1621    1.5625 C   0  0  0  0  0  0  0  0  0  0  0  0
    1.2603    1.3510   -2.5555 H   0  0  0  0  0  0  0  0  0  0  0  0
    0.4110   -0.2670   -2.2786 H   0  0  0  0  0  0  0  0  0  0  0  0
    0.8495    1.9887   -0.2549 H   0  0  0  0  0  0  0  0  0  0  0  0
   -2.0015    0.2548    1.6142 H   0  0  0  0  0  0  0  0  0  0  0  0
   -1.2277    1.8224    1.3667 H   0  0  0  0  0  0  0  0  0  0  0  0
   -2.1555    1.0833    0.0575 H   0  0  0  0  0  0  0  0  0  0  0  0
    1.0434    0.7506    2.0692 H   0  0  0  0  0  0  0  0  0  0  0  0
    1.6083   -0.6930    1.2218 H   0  0  0  0  0  0  0  0  0  0  0  0
    0.2051   -0.7865    2.2968 H   0  0  0  0  0  0  0  0  0  0  0  0
   -0.2079   -2.2985   -0.4818 C   0  0  0  0  0  0  0  0  0  0  0  0
   -0.2079   -1.0666   -0.0463 H   0  0  0  0  0  0  0  0  0  0  0  0
    0.6812   -2.8119   -0.1189 H   0  0  0  0  0  0  0  0  0  0  0  0
   -1.0970   -2.8119   -0.1189 H   0  0  0  0  0  0  0  0  0  0  0  0
   -0.2079   -2.2985   -1.5708 H   0  0  0  0  0  0  0  0  0  0  0  0
  1  2  2  3
  1  6  1  0
  1  7  1  0
  2  3  1  0
  2  8  1  0
  3  4  1  0
  3  5  1  0
  4  9  1  0
  4 10  1  0
  4 11  1  0
  5 12  1  0
  5 13  1  0
  5 14  1  0
 15 16  1  0
 15 17  1  0
 15 18  1  0
 15 19  1  0
M  RAD  1   3   2
M  END
>  <reaction>  (13) 
rxn_831

>  <mol_properties>  (13) 
{"1": {"label": "*0", "atom_type": "Cd"}, "2": {"label": "*1", "atom_type": "Cs"}, "14": {"label": "*3", "atom_type": "Cs"}, "15": {"label": "*2", "atom_type": "H0"}, "16": {"label": "*4", "atom_type": "H0"}}

>  <type>  (13) 
unop_9

>  <geom_source>  (13) 
Heuristics

$$$$

     RDKit          3D

 19 17  0  0  0  0  0  0  0  0999 V2000
   -1.4859    0.6418   -1.4252 C   0  0  0  0  0  0  0  0  0  0  0  0
   -0.8897    0.9070   -0.2737 C   0  0  0  0  0  0  0  0  0  0  0  0
    0.3462    0.2314    0.2443 C   0  0  0  0  0  3  0  0  0  0  0  0
    0.0519   -0.4910    1.5603 C   0  0  0  0  0  0  0  0  0  0  0  0
    1.4779    1.2453    0.4222 C   0  0  0  0  0  0  0  0  0  0  0  0
   -2.3781    1.1696   -1.7380 H   0  0  0  0  0  0  0  0  0  0  0  0
   -1.1005   -0.1163   -2.0990 H   0  0  0  0  0  0  0  0  0  0  0  0
   -1.3075    1.6755    0.3754 H   0  0  0  0  0  0  0  0  0  0  0  0
    0.9471   -0.9901    1.9371 H   0  0  0  0  0  0  0  0  0  0  0  0
   -0.2812    0.2180    2.3232 H   0  0  0  0  0  0  0  0  0  0  0  0
   -0.7311   -1.2397    1.4322 H   0  0  0  0  0  0  0  0  0  0  0  0
    1.1953    2.0157    1.1448 H   0  0  0  0  0  0  0  0  0  0  0  0
    1.7158    1.7396   -0.5207 H   0  0  0  0  0  0  0  0  0  0  0  0
    2.3816    0.7565    0.7922 H   0  0  0  0  0  0  0  0  0  0  0  0
    0.3462   -2.2388   -0.6291 C   0  0  0  0  0  0  0  0  0  0  0  0
    0.3462   -1.0068   -0.1935 H   0  0  0  0  0  0  0  0  0  0  0  0
    1.2353   -2.7522   -0.2661 H   0  0  0  0  0  0  0  0  0  0  0  0
   -0.5429   -2.7522   -0.2661 H   0  0  0  0  0  0  0  0  0  0  0  0
    0.3462   -2.2388   -1.7180 H   0  0  0  0  0  0  0  0  0  0  0  0
  1  2  2  3
  1  6  1  0
  1  7  1  0
  2  3  1  0
  2  8  1  0
  3  4  1  0
  3  5  1  0
  4  9  1  0
  4 10  1  0
  4 11  1  0
  5 12  1  0
  5 13  1  0
  5 14  1  0
 15 16  1  0
 15 17  1  0
 15 18  1  0
 15 19  1  0
M  RAD  1   3   2
M  END
>  <reaction>  (14) 
rxn_831

>  <mol_properties>  (14) 
{"1": {"label": "*0", "atom_type": "Cd"}, "2": {"label": "*1", "atom_type": "Cs"}, "14": {"label": "*3", "atom_type": "Cs"}, "15": {"label": "*2", "atom_type": "H0"}, "16": {"label": "*4", "atom_type": "H0"}}

>  <type>  (14) 
unop_10

>  <geom_source>  (14) 
Heuristics

$$$$

     RDKit          3D

 19 17  0  0  0  0  0  0  0  0999 V2000
    1.4938   -0.4318    1.4799 C   0  0  0  0  0  0  0  0  0  0  0  0
    0.5561    0.4197    1.0959 C   0  0  0  0  0  0  0  0  0  0  0  0
   -0.1575    0.3940   -0.2241 C   0  0  0  0  0  3  0  0  0  0  0  0
    0.1079    1.6835   -1.0033 C   0  0  0  0  0  0  0  0  0  0  0  0
   -1.6586    0.1820   -0.0191 C   0  0  0  0  0  0  0  0  0  0  0  0
    1.9686   -0.3546    2.4500 H   0  0  0  0  0  0  0  0  0  0  0  0
    1.8211   -1.2401    0.8343 H   0  0  0  0  0  0  0  0  0  0  0  0
    0.2548    1.2179    1.7729 H   0  0  0  0  0  0  0  0  0  0  0  0
   -0.4037    1.6658   -1.9679 H   0  0  0  0  0  0  0  0  0  0  0  0
   -0.2569    2.5517   -0.4477 H   0  0  0  0  0  0  0  0  0  0  0  0
    1.1749    1.8230   -1.1825 H   0  0  0  0  0  0  0  0  0  0  0  0
   -2.0860    0.9971    0.5713 H   0  0  0  0  0  0  0  0  0  0  0  0
   -1.8562   -0.7534    0.5062 H   0  0  0  0  0  0  0  0  0  0  0  0
   -2.1808    0.1554   -0.9778 H   0  0  0  0  0  0  0  0  0  0  0  0
   -0.1575   -2.0763   -1.0975 C   0  0  0  0  0  0  0  0  0  0  0  0
   -0.1575   -0.8443   -0.6619 H   0  0  0  0  0  0  0  0  0  0  0  0
    0.7317   -2.5896   -0.7345 H   0  0  0  0  0  0  0  0  0  0  0  0
   -1.0466   -2.5896   -0.7345 H   0  0  0  0  0  0  0  0  0  0  0  0
   -0.1575   -2.0763   -2.1864 H   0  0  0  0  0  0  0  0  0  0  0  0
  1  2  2  3
  1  6  1  0
  1  7  1  0
  2  3  1  0
  2  8  1  0
  3  4  1  0
  3  5  1  0
  4  9  1  0
  4 10  1  0
  4 11  1  0
  5 12  1  0
  5 13  1  0
  5 14  1  0
 15 16  1  0
 15 17  1  0
 15 18  1  0
 15 19  1  0
M  RAD  1   3   2
M  END
>  <reaction>  (15) 
rxn_831

>  <mol_properties>  (15) 
{"1": {"label": "*0", "atom_type": "Cd"}, "2": {"label": "*1", "atom_type": "Cs"}, "14": {"label": "*3", "atom_type": "Cs"}, "15": {"label": "*2", "atom_type": "H0"}, "16": {"label": "*4", "atom_type": "H0"}}

>  <type>  (15) 
unop_11

>  <geom_source>  (15) 
Heuristics

$$$$

     RDKit          3D

 19 17  0  0  0  0  0  0  0  0999 V2000
    0.0000    0.6747   -2.0087 C   0  0  0  0  0  0  0  0  0  0  0  0
    0.0000    1.0613   -0.7430 C   0  0  0  0  0  0  0  0  0  0  0  0
    0.0000    0.1479    0.4478 C   0  0  0  0  0  3  0  0  0  0  0  0
   -1.2593    0.3627    1.2894 C   0  0  0  0  0  0  0  0  0  0  0  0
    1.2593    0.3627    1.2894 C   0  0  0  0  0  0  0  0  0  0  0  0
    0.0000    1.3902   -2.8215 H   0  0  0  0  0  0  0  0  0  0  0  0
    0.0000   -0.3763   -2.2780 H   0  0  0  0  0  0  0  0  0  0  0  0
   -0.0000    2.1261   -0.5135 H   0  0  0  0  0  0  0  0  0  0  0  0
   -1.2668   -0.3053    2.1532 H   0  0  0  0  0  0  0  0  0  0  0  0
   -1.3039    1.3900    1.6614 H   0  0  0  0  0  0  0  0  0  0  0  0
   -2.1609    0.1777    0.7038 H   0  0  0  0  0  0  0  0  0  0  0  0
    1.3039    1.3900    1.6614 H   0  0  0  0  0  0  0  0  0  0  0  0
    2.1609    0.1777    0.7038 H   0  0  0  0  0  0  0  0  0  0  0  0
    1.2668   -0.3053    2.1532 H   0  0  0  0  0  0  0  0  0  0  0  0
    0.0000   -2.3223   -0.4256 C   0  0  0  0  0  0  0  0  0  0  0  0
    0.0000   -1.0903    0.0100 H   0  0  0  0  0  0  0  0  0  0  0  0
    0.8891   -2.8357   -0.0626 H   0  0  0  0  0  0  0  0  0  0  0  0
   -0.8891   -2.8357   -0.0626 H   0  0  0  0  0  0  0  0  0  0  0  0
    0.0000   -2.3223   -1.5145 H   0  0  0  0  0  0  0  0  0  0  0  0
  1  2  2  3
  1  6  1  0
  1  7  1  0
  2  3  1  0
  2  8  1  0
  3  4  1  0
  3  5  1  0
  4  9  1  0
  4 10  1  0
  4 11  1  0
  5 12  1  0
  5 13  1  0
  5 14  1  0
 15 16  1  0
 15 17  1  0
 15 18  1  0
 15 19  1  0
M  RAD  1   3   2
M  END
>  <reaction>  (16) 
rxn_831

>  <mol_properties>  (16) 
{"1": {"label": "*0", "atom_type": "Cd"}, "2": {"label": "*1", "atom_type": "Cs"}, "14": {"label": "*3", "atom_type": "Cs"}, "15": {"label": "*2", "atom_type": "H0"}, "16": {"label": "*4", "atom_type": "H0"}}

>  <type>  (16) 
unop_12

>  <geom_source>  (16) 
Heuristics

$$$$

     RDKit          3D

 19 17  0  0  0  0  0  0  0  0999 V2000
   -0.0202    0.0683   -0.2211 C   0  0  0  0  0  3  0  0  0  0  0  0
   -0.6999   -0.9241   -1.1695 C   0  0  0  0  0  0  0  0  0  0  0  0
    0.0544    1.4677   -0.8394 C   0  0  0  0  0  0  0  0  0  0  0  0
   -0.6977    0.0956    1.1291 C   0  0  0  0  0  0  0  0  0  0  0  0
   -1.9703    0.4736    1.2983 C   0  0  0  0  0  0  0  0  0  0  0  0
    2.2713   -0.7329    0.7228 C   0  0  0  0  0  0  0  0  0  0  0  0
    1.3097   -0.3786   -0.0215 H   0  0  0  0  0  0  0  0  0  0  0  0
   -1.7347   -0.6012   -1.4122 H   0  0  0  0  0  0  0  0  0  0  0  0
   -0.7348   -1.9312   -0.7023 H   0  0  0  0  0  0  0  0  0  0  0  0
   -0.1196   -1.0003   -2.1132 H   0  0  0  0  0  0  0  0  0  0  0  0
   -0.9596    1.8566   -1.0730 H   0  0  0  0  0  0  0  0  0  0  0  0
    0.5572    2.1659   -0.1370 H   0  0  0  0  0  0  0  0  0  0  0  0
    0.6478    1.4334   -1.7774 H   0  0  0  0  0  0  0  0  0  0  0  0
   -0.1219   -0.2059    1.9985 H   0  0  0  0  0  0  0  0  0  0  0  0
   -2.4073    0.4744    2.2915 H   0  0  0  0  0  0  0  0  0  0  0  0
   -2.5832    0.7829    0.4579 H   0  0  0  0  0  0  0  0  0  0  0  0
    3.3139   -0.9513    1.0329 H   0  0  0  0  0  0  0  0  0  0  0  0
    1.6405   -1.6303    0.8888 H   0  0  0  0  0  0  0  0  0  0  0  0
    2.2543   -0.4628   -0.3531 H   0  0  0  0  0  0  0  0  0  0  0  0
  1  2  1  0
  1  3  1  0
  1  4  1  0
  2  8  1  0
  2  9  1  0
  2 10  1  0
  3 11  1  0
  3 12  1  0
  3 13  1  0
  4  5  2  3
  4 14  1  0
  5 15  1  0
  5 16  1  0
  6  7  1  0
  6 17  1  0
  6 18  1  0
  6 19  1  0
M  RAD  1   1   2
M  END
>  <reaction>  (17) 
rxn_831

>  <mol_properties>  (17) 
{"1": {"label": "*0", "atom_type": "Cd"}, "2": {"label": "*1", "atom_type": "Cs"}, "14": {"label": "*3", "atom_type": "Cs"}, "15": {"label": "*2", "atom_type": "H0"}, "16": {"label": "*4", "atom_type": "H0"}}

>  <type>  (17) 
unop_13

>  <geom_source>  (17) 
AutoTST

$$$$
