
     RDKit          3D

 15 15  0  0  0  0  0  0  0  0999 V2000
    2.2031   -0.2111   -0.1693 C   0  0  0  0  0  0  0  0  0  0  0  0
    0.7140   -0.0314   -0.0623 C   0  0  0  0  0  0  0  0  0  0  0  0
   -0.0114    0.5491   -1.0982 C   0  0  0  0  0  0  0  0  0  0  0  0
   -1.3882    0.6886   -1.0150 C   0  0  0  0  0  0  0  0  0  0  0  0
   -2.0661    0.2493    0.1118 C   0  0  0  0  0  0  0  0  0  0  0  0
   -1.3551   -0.3278    1.1528 C   0  0  0  0  0  0  0  0  0  0  0  0
    0.0216   -0.4648    1.0642 C   0  0  0  0  0  0  0  0  0  0  0  0
    2.6776   -0.1836    0.8122 H   0  0  0  0  0  0  0  0  0  0  0  0
    2.4446   -1.1749   -0.6249 H   0  0  0  0  0  0  0  0  0  0  0  0
    2.6532    0.5664   -0.7875 H   0  0  0  0  0  0  0  0  0  0  0  0
    0.5104    0.8989   -1.9819 H   0  0  0  0  0  0  0  0  0  0  0  0
   -1.9328    1.1452   -1.8322 H   0  0  0  0  0  0  0  0  0  0  0  0
   -3.1409    0.3597    0.1800 H   0  0  0  0  0  0  0  0  0  0  0  0
   -1.8736   -0.6702    2.0398 H   0  0  0  0  0  0  0  0  0  0  0  0
    0.5695   -0.9141    1.8849 H   0  0  0  0  0  0  0  0  0  0  0  0
  1  2  1  0
  1  8  1  0
  1  9  1  0
  1 10  1  0
  2  3  2  0
  2  7  1  0
  3  4  1  0
  3 11  1  0
  4  5  2  0
  4 12  1  0
  5  6  1  0
  5 13  1  0
  6  7  2  0
  6 14  1  0
  7 15  1  0
M  END
>  <reaction>  (1) 
rxn_1436

>  <mol_properties>  (1) 
{"0": {"label": "donator", "atom_type": "Cs"}, "7": {"label": "d_hydrogen", "atom_type": "H0"}}

>  <type>  (1) 
r1h

$$$$

     RDKit          3D

 10  9  0  0  0  0  0  0  0  0999 V2000
    1.2930    0.1441    0.3288 C   0  0  0  0  0  0  0  0  0  0  0  0
   -0.0374   -0.1647    0.9100 C   0  0  0  0  0  3  0  0  0  0  0  0
   -1.2664    0.4569    0.3567 C   0  0  0  0  0  0  0  0  0  0  0  0
    1.4384    1.2242    0.2174 H   0  0  0  0  0  0  0  0  0  0  0  0
    2.1077   -0.2477    0.9385 H   0  0  0  0  0  0  0  0  0  0  0  0
    1.4057   -0.2836   -0.6789 H   0  0  0  0  0  0  0  0  0  0  0  0
   -0.1309   -0.9912    1.6030 H   0  0  0  0  0  0  0  0  0  0  0  0
   -1.5005    0.0716   -0.6471 H   0  0  0  0  0  0  0  0  0  0  0  0
   -2.1382    0.2713    0.9849 H   0  0  0  0  0  0  0  0  0  0  0  0
   -1.1497    1.5406    0.2456 H   0  0  0  0  0  0  0  0  0  0  0  0
  1  2  1  0
  1  4  1  0
  1  5  1  0
  1  6  1  0
  2  3  1  0
  2  7  1  0
  3  8  1  0
  3  9  1  0
  3 10  1  0
M  RAD  1   2   2
M  END
>  <reaction>  (2) 
rxn_1436

>  <mol_properties>  (2) 
{"1": {"label": "acceptor", "atom_type": "Cs"}}

>  <type>  (2) 
r2

$$$$

     RDKit          3D

 11 10  0  0  0  0  0  0  0  0999 V2000
   -1.2710    0.1907   -0.2084 C   0  0  0  0  0  0  0  0  0  0  0  0
    0.0202   -0.6130   -0.2928 C   0  0  0  0  0  0  0  0  0  0  0  0
    0.1086   -1.6953    0.7756 C   0  0  0  0  0  0  0  0  0  0  0  0
   -1.3607    0.6851    0.7620 H   0  0  0  0  0  0  0  0  0  0  0  0
   -2.1429   -0.4567   -0.3299 H   0  0  0  0  0  0  0  0  0  0  0  0
   -1.3158    0.9602   -0.9809 H   0  0  0  0  0  0  0  0  0  0  0  0
    0.8757    0.0616   -0.1992 H   0  0  0  0  0  0  0  0  0  0  0  0
    0.0997   -1.0712   -1.2825 H   0  0  0  0  0  0  0  0  0  0  0  0
   -0.7198   -2.4022    0.6850 H   0  0  0  0  0  0  0  0  0  0  0  0
    1.0395   -2.2596    0.6989 H   0  0  0  0  0  0  0  0  0  0  0  0
    0.0624   -1.2603    1.7770 H   0  0  0  0  0  0  0  0  0  0  0  0
  1  2  1  0
  1  4  1  0
  1  5  1  0
  1  6  1  0
  2  3  1  0
  2  7  1  0
  2  8  1  0
  3  9  1  0
  3 10  1  0
  3 11  1  0
M  END
>  <reaction>  (3) 
rxn_1436

>  <mol_properties>  (3) 
{"0": {"label": "a_hydrogen", "atom_type": "H0"}, "2": {"label": "acceptor", "atom_type": "Cs"}}

>  <type>  (3) 
r2h

$$$$

     RDKit          3D

 25 24  0  0  0  0  0  0  0  0999 V2000
   -0.2437    1.5543    1.0350 C   0  0  0  0  0  0  0  0  0  0  0  0
    0.3049    0.8696   -0.1393 C   0  0  0  0  0  0  0  0  0  0  0  0
   -0.5026    0.5674   -1.2402 C   0  0  0  0  0  0  0  0  0  0  0  0
   -0.0041   -0.1414   -2.3194 C   0  0  0  0  0  0  0  0  0  0  0  0
    1.3159   -0.5703   -2.3261 C   0  0  0  0  0  0  0  0  0  0  0  0
    2.1318   -0.2783   -1.2418 C   0  0  0  0  0  0  0  0  0  0  0  0
    1.6324    0.4306   -0.1631 C   0  0  0  0  0  0  0  0  0  0  0  0
   -0.7076    0.6164    1.8353 H   0  0  0  0  0  0  0  0  0  0  0  0
    0.4884    2.0638    1.6576 H   0  0  0  0  0  0  0  0  0  0  0  0
   -1.1220    2.1670    0.8451 H   0  0  0  0  0  0  0  0  0  0  0  0
   -1.5356    0.8967   -1.2431 H   0  0  0  0  0  0  0  0  0  0  0  0
   -0.6487   -0.3601   -3.1620 H   0  0  0  0  0  0  0  0  0  0  0  0
    1.7065   -1.1235   -3.1705 H   0  0  0  0  0  0  0  0  0  0  0  0
    3.1646   -0.6045   -1.2381 H   0  0  0  0  0  0  0  0  0  0  0  0
    2.2766    0.6524    0.6802 H   0  0  0  0  0  0  0  0  0  0  0  0
    0.1162   -1.2644    2.8020 C   0  0  0  0  0  0  0  0  0  0  0  0
   -1.1398   -0.4771    2.5530 C   0  0  0  0  0  3  0  0  0  0  0  0
   -2.1599   -1.1181    1.6540 C   0  0  0  0  0  0  0  0  0  0  0  0
    0.5929   -1.5397    1.8575 H   0  0  0  0  0  0  0  0  0  0  0  0
    0.8370   -0.6962    3.3928 H   0  0  0  0  0  0  0  0  0  0  0  0
   -0.0977   -2.1931    3.3438 H   0  0  0  0  0  0  0  0  0  0  0  0
   -1.5616   -0.0189    3.4477 H   0  0  0  0  0  0  0  0  0  0  0  0
   -2.5631   -2.0346    2.1004 H   0  0  0  0  0  0  0  0  0  0  0  0
   -3.0001   -0.4495    1.4576 H   0  0  0  0  0  0  0  0  0  0  0  0
   -1.7119   -1.3915    0.6951 H   0  0  0  0  0  0  0  0  0  0  0  0
  1  2  1  0
  1  8  1  0
  1  9  1  0
  1 10  1  0
  2  3  2  0
  2  7  1  0
  3  4  1  0
  3 11  1  0
  4  5  2  0
  4 12  1  0
  5  6  1  0
  5 13  1  0
  6  7  2  0
  6 14  1  0
  7 15  1  0
 16 17  1  0
 16 19  1  0
 16 20  1  0
 16 21  1  0
 17 18  1  0
 17 22  1  0
 18 23  1  0
 18 24  1  0
 18 25  1  0
M  RAD  1  17   2
M  END
>  <reaction>  (4) 
rxn_1436

>  <mol_properties>  (4) 
{"0": {"label": "*1", "atom_type": "Cs"}, "1": {"label": "*0", "atom_type": "Cd"}, "7": {"label": "*2", "atom_type": "H0"}, "15": {"label": "*4", "atom_type": "Cs"}, "16": {"label": "*3", "atom_type": "Cs"}}

>  <type>  (4) 
ts

$$$$

     RDKit          3D

 25 24  0  0  0  0  0  0  0  0999 V2000
    0.3866    0.8660    1.3119 C   0  0  0  0  0  0  0  0  0  0  0  0
    0.3866    0.8660   -0.1918 C   0  0  0  0  0  0  0  0  0  0  0  0
    0.3866    2.0603   -0.9058 C   0  0  0  0  0  0  0  0  0  0  0  0
    0.4170    2.0637   -2.2918 C   0  0  0  0  0  0  0  0  0  0  0  0
    0.4466    0.8667   -2.9909 C   0  0  0  0  0  0  0  0  0  0  0  0
    0.4434   -0.3307   -2.2918 C   0  0  0  0  0  0  0  0  0  0  0  0
    0.4129   -0.3280   -0.9058 C   0  0  0  0  0  0  0  0  0  0  0  0
   -0.2033   -0.2007    1.7880 H   0  0  0  0  0  0  0  0  0  0  0  0
    1.4088    0.8773    1.6987 H   0  0  0  0  0  0  0  0  0  0  0  0
   -0.1244    1.7439    1.7087 H   0  0  0  0  0  0  0  0  0  0  0  0
    0.3600    3.0014   -0.3680 H   0  0  0  0  0  0  0  0  0  0  0  0
    0.4144    3.0049   -2.8276 H   0  0  0  0  0  0  0  0  0  0  0  0
    0.4677    0.8669   -4.0732 H   0  0  0  0  0  0  0  0  0  0  0  0
    0.4615   -1.2718   -2.8276 H   0  0  0  0  0  0  0  0  0  0  0  0
    0.4071   -1.2695   -0.3680 H   0  0  0  0  0  0  0  0  0  0  0  0
    0.1917   -2.0571    3.1189 C   0  0  0  0  0  0  0  0  0  0  0  0
   -0.7948   -1.2704    2.2654 C   0  0  0  0  0  3  0  0  0  0  0  0
   -1.9830   -2.1113    1.8165 C   0  0  0  0  0  0  0  0  0  0  0  0
    0.5898   -2.9124    2.5676 H   0  0  0  0  0  0  0  0  0  0  0  0
    1.0350   -1.4384    3.4304 H   0  0  0  0  0  0  0  0  0  0  0  0
   -0.2918   -2.4422    4.0200 H   0  0  0  0  0  0  0  0  0  0  0  0
   -1.1538   -0.4046    2.8287 H   0  0  0  0  0  0  0  0  0  0  0  0
   -2.5350   -2.4982    2.6765 H   0  0  0  0  0  0  0  0  0  0  0  0
   -2.6777   -1.5310    1.2069 H   0  0  0  0  0  0  0  0  0  0  0  0
   -1.6534   -2.9684    1.2241 H   0  0  0  0  0  0  0  0  0  0  0  0
  1  2  1  0
  1  8  1  0
  1  9  1  0
  1 10  1  0
  2  3  2  0
  2  7  1  0
  3  4  1  0
  3 11  1  0
  4  5  2  0
  4 12  1  0
  5  6  1  0
  5 13  1  0
  6  7  2  0
  6 14  1  0
  7 15  1  0
 16 17  1  0
 16 19  1  0
 16 20  1  0
 16 21  1  0
 17 18  1  0
 17 22  1  0
 18 23  1  0
 18 24  1  0
 18 25  1  0
M  RAD  1  17   2
M  END
>  <reaction>  (5) 
rxn_1436

>  <mol_properties>  (5) 
{"0": {"label": "*1", "atom_type": "Cs"}, "1": {"label": "*0", "atom_type": "Cd"}, "7": {"label": "*2", "atom_type": "H0"}, "15": {"label": "*4", "atom_type": "Cs"}, "16": {"label": "*3", "atom_type": "Cs"}}

>  <type>  (5) 
unop_1

>  <geom_source>  (5) 
Heuristics

$$$$

     RDKit          3D

 25 24  0  0  0  0  0  0  0  0999 V2000
    0.4966    0.8136    1.3996 C   0  0  0  0  0  0  0  0  0  0  0  0
    0.4966    0.8136   -0.1042 C   0  0  0  0  0  0  0  0  0  0  0  0
    0.4966    2.0080   -0.8182 C   0  0  0  0  0  0  0  0  0  0  0  0
    0.5271    2.0113   -2.2042 C   0  0  0  0  0  0  0  0  0  0  0  0
    0.5566    0.8143   -2.9032 C   0  0  0  0  0  0  0  0  0  0  0  0
    0.5535   -0.3831   -2.2042 C   0  0  0  0  0  0  0  0  0  0  0  0
    0.5229   -0.3804   -0.8182 C   0  0  0  0  0  0  0  0  0  0  0  0
   -0.0933   -0.2531    1.8756 H   0  0  0  0  0  0  0  0  0  0  0  0
    1.5188    0.8249    1.7863 H   0  0  0  0  0  0  0  0  0  0  0  0
   -0.0144    1.6915    1.7963 H   0  0  0  0  0  0  0  0  0  0  0  0
    0.4700    2.9491   -0.2804 H   0  0  0  0  0  0  0  0  0  0  0  0
    0.5244    2.9525   -2.7399 H   0  0  0  0  0  0  0  0  0  0  0  0
    0.5778    0.8145   -3.9856 H   0  0  0  0  0  0  0  0  0  0  0  0
    0.5716   -1.3241   -2.7399 H   0  0  0  0  0  0  0  0  0  0  0  0
    0.5171   -1.3218   -0.2804 H   0  0  0  0  0  0  0  0  0  0  0  0
   -0.5038   -2.4797    1.3787 C   0  0  0  0  0  0  0  0  0  0  0  0
   -0.6848   -1.3227    2.3530 C   0  0  0  0  0  3  0  0  0  0  0  0
   -2.0777   -1.2865    2.9686 C   0  0  0  0  0  0  0  0  0  0  0  0
   -1.2201   -2.4134    0.5562 H   0  0  0  0  0  0  0  0  0  0  0  0
    0.4991   -2.4888    0.9487 H   0  0  0  0  0  0  0  0  0  0  0  0
   -0.6629   -3.4389    1.8774 H   0  0  0  0  0  0  0  0  0  0  0  0
    0.0627   -1.3959    3.1479 H   0  0  0  0  0  0  0  0  0  0  0  0
   -2.2864   -2.2081    3.5174 H   0  0  0  0  0  0  0  0  0  0  0  0
   -2.1879   -0.4518    3.6629 H   0  0  0  0  0  0  0  0  0  0  0  0
   -2.8436   -1.1825    2.1961 H   0  0  0  0  0  0  0  0  0  0  0  0
  1  2  1  0
  1  8  1  0
  1  9  1  0
  1 10  1  0
  2  3  2  0
  2  7  1  0
  3  4  1  0
  3 11  1  0
  4  5  2  0
  4 12  1  0
  5  6  1  0
  5 13  1  0
  6  7  2  0
  6 14  1  0
  7 15  1  0
 16 17  1  0
 16 19  1  0
 16 20  1  0
 16 21  1  0
 17 18  1  0
 17 22  1  0
 18 23  1  0
 18 24  1  0
 18 25  1  0
M  RAD  1  17   2
M  END
>  <reaction>  (6) 
rxn_1436

>  <mol_properties>  (6) 
{"0": {"label": "*1", "atom_type": "Cs"}, "1": {"label": "*0", "atom_type": "Cd"}, "7": {"label": "*2", "atom_type": "H0"}, "15": {"label": "*4", "atom_type": "Cs"}, "16": {"label": "*3", "atom_type": "Cs"}}

>  <type>  (6) 
unop_2

>  <geom_source>  (6) 
Heuristics

$$$$

     RDKit          3D

 25 24  0  0  0  0  0  0  0  0999 V2000
    0.3547    0.8617    1.2936 C   0  0  0  0  0  0  0  0  0  0  0  0
    0.3547    0.8617   -0.2101 C   0  0  0  0  0  0  0  0  0  0  0  0
    0.3547    2.0560   -0.9242 C   0  0  0  0  0  0  0  0  0  0  0  0
    0.3852    2.0594   -2.3101 C   0  0  0  0  0  0  0  0  0  0  0  0
    0.4147    0.8624   -3.0092 C   0  0  0  0  0  0  0  0  0  0  0  0
    0.4116   -0.3350   -2.3101 C   0  0  0  0  0  0  0  0  0  0  0  0
    0.3811   -0.3323   -0.9242 C   0  0  0  0  0  0  0  0  0  0  0  0
   -0.2352   -0.2050    1.7697 H   0  0  0  0  0  0  0  0  0  0  0  0
    1.3769    0.8730    1.6804 H   0  0  0  0  0  0  0  0  0  0  0  0
   -0.1563    1.7396    1.6904 H   0  0  0  0  0  0  0  0  0  0  0  0
    0.3281    2.9971   -0.3863 H   0  0  0  0  0  0  0  0  0  0  0  0
    0.3825    3.0006   -2.8459 H   0  0  0  0  0  0  0  0  0  0  0  0
    0.4359    0.8626   -4.0915 H   0  0  0  0  0  0  0  0  0  0  0  0
    0.4297   -1.2760   -2.8459 H   0  0  0  0  0  0  0  0  0  0  0  0
    0.3752   -1.2738   -0.3863 H   0  0  0  0  0  0  0  0  0  0  0  0
   -0.2077   -1.6395    3.5903 C   0  0  0  0  0  0  0  0  0  0  0  0
   -0.8267   -1.2747    2.2471 C   0  0  0  0  0  3  0  0  0  0  0  0
   -1.3459   -2.4907    1.4907 C   0  0  0  0  0  0  0  0  0  0  0  0
    0.6342   -2.3237    3.4595 H   0  0  0  0  0  0  0  0  0  0  0  0
    0.1580   -0.7563    4.1167 H   0  0  0  0  0  0  0  0  0  0  0  0
   -0.9376   -2.1350    4.2351 H   0  0  0  0  0  0  0  0  0  0  0  0
   -1.6452   -0.5667    2.4038 H   0  0  0  0  0  0  0  0  0  0  0  0
   -2.1117   -3.0130    2.0693 H   0  0  0  0  0  0  0  0  0  0  0  0
   -1.7851   -2.2094    0.5321 H   0  0  0  0  0  0  0  0  0  0  0  0
   -0.5399   -3.2017    1.2937 H   0  0  0  0  0  0  0  0  0  0  0  0
  1  2  1  0
  1  8  1  0
  1  9  1  0
  1 10  1  0
  2  3  2  0
  2  7  1  0
  3  4  1  0
  3 11  1  0
  4  5  2  0
  4 12  1  0
  5  6  1  0
  5 13  1  0
  6  7  2  0
  6 14  1  0
  7 15  1  0
 16 17  1  0
 16 19  1  0
 16 20  1  0
 16 21  1  0
 17 18  1  0
 17 22  1  0
 18 23  1  0
 18 24  1  0
 18 25  1  0
M  RAD  1  17   2
M  END
>  <reaction>  (7) 
rxn_1436

>  <mol_properties>  (7) 
{"0": {"label": "*1", "atom_type": "Cs"}, "1": {"label": "*0", "atom_type": "Cd"}, "7": {"label": "*2", "atom_type": "H0"}, "15": {"label": "*4", "atom_type": "Cs"}, "16": {"label": "*3", "atom_type": "Cs"}}

>  <type>  (7) 
unop_3

>  <geom_source>  (7) 
Heuristics

$$$$

     RDKit          3D

 25 24  0  0  0  0  0  0  0  0999 V2000
    0.5084    0.6080    1.2644 C   0  0  0  0  0  0  0  0  0  0  0  0
    0.5084    0.6080   -0.2394 C   0  0  0  0  0  0  0  0  0  0  0  0
    0.5084    1.8023   -0.9534 C   0  0  0  0  0  0  0  0  0  0  0  0
    0.5389    1.8057   -2.3394 C   0  0  0  0  0  0  0  0  0  0  0  0
    0.5684    0.6086   -3.0384 C   0  0  0  0  0  0  0  0  0  0  0  0
    0.5653   -0.5887   -2.3394 C   0  0  0  0  0  0  0  0  0  0  0  0
    0.5348   -0.5860   -0.9534 C   0  0  0  0  0  0  0  0  0  0  0  0
   -0.0814   -0.4587    1.7404 H   0  0  0  0  0  0  0  0  0  0  0  0
    1.5307    0.6192    1.6511 H   0  0  0  0  0  0  0  0  0  0  0  0
   -0.0026    1.4859    1.6611 H   0  0  0  0  0  0  0  0  0  0  0  0
    0.4818    2.7434   -0.4156 H   0  0  0  0  0  0  0  0  0  0  0  0
    0.5363    2.7469   -2.8751 H   0  0  0  0  0  0  0  0  0  0  0  0
    0.5896    0.6089   -4.1208 H   0  0  0  0  0  0  0  0  0  0  0  0
    0.5834   -1.5298   -2.8751 H   0  0  0  0  0  0  0  0  0  0  0  0
    0.5289   -1.5275   -0.4156 H   0  0  0  0  0  0  0  0  0  0  0  0
   -2.1166   -1.5684    1.7333 C   0  0  0  0  0  0  0  0  0  0  0  0
   -0.6729   -1.5284    2.2178 C   0  0  0  0  0  3  0  0  0  0  0  0
   -0.5188   -0.7921    3.5424 C   0  0  0  0  0  0  0  0  0  0  0  0
   -2.5088   -0.5586    1.5903 H   0  0  0  0  0  0  0  0  0  0  0  0
   -2.2066   -2.0994    0.7841 H   0  0  0  0  0  0  0  0  0  0  0  0
   -2.7589   -2.0713    2.4603 H   0  0  0  0  0  0  0  0  0  0  0  0
   -0.2958   -2.5495    2.3229 H   0  0  0  0  0  0  0  0  0  0  0  0
   -1.1108   -1.2705    4.3265 H   0  0  0  0  0  0  0  0  0  0  0  0
    0.5211   -0.7740    3.8728 H   0  0  0  0  0  0  0  0  0  0  0  0
   -0.8607    0.2422    3.4565 H   0  0  0  0  0  0  0  0  0  0  0  0
  1  2  1  0
  1  8  1  0
  1  9  1  0
  1 10  1  0
  2  3  2  0
  2  7  1  0
  3  4  1  0
  3 11  1  0
  4  5  2  0
  4 12  1  0
  5  6  1  0
  5 13  1  0
  6  7  2  0
  6 14  1  0
  7 15  1  0
 16 17  1  0
 16 19  1  0
 16 20  1  0
 16 21  1  0
 17 18  1  0
 17 22  1  0
 18 23  1  0
 18 24  1  0
 18 25  1  0
M  RAD  1  17   2
M  END
>  <reaction>  (8) 
rxn_1436

>  <mol_properties>  (8) 
{"0": {"label": "*1", "atom_type": "Cs"}, "1": {"label": "*0", "atom_type": "Cd"}, "7": {"label": "*2", "atom_type": "H0"}, "15": {"label": "*4", "atom_type": "Cs"}, "16": {"label": "*3", "atom_type": "Cs"}}

>  <type>  (8) 
unop_4

>  <geom_source>  (8) 
Heuristics

$$$$

     RDKit          3D

 25 24  0  0  0  0  0  0  0  0999 V2000
    0.2863    0.8222    1.2536 C   0  0  0  0  0  0  0  0  0  0  0  0
    0.2863    0.8222   -0.2501 C   0  0  0  0  0  0  0  0  0  0  0  0
    0.2863    2.0166   -0.9642 C   0  0  0  0  0  0  0  0  0  0  0  0
    0.3167    2.0199   -2.3501 C   0  0  0  0  0  0  0  0  0  0  0  0
    0.3463    0.8229   -3.0492 C   0  0  0  0  0  0  0  0  0  0  0  0
    0.3431   -0.3745   -2.3501 C   0  0  0  0  0  0  0  0  0  0  0  0
    0.3126   -0.3718   -0.9642 C   0  0  0  0  0  0  0  0  0  0  0  0
   -0.3036   -0.2445    1.7297 H   0  0  0  0  0  0  0  0  0  0  0  0
    1.3085    0.8335    1.6404 H   0  0  0  0  0  0  0  0  0  0  0  0
   -0.2247    1.7001    1.6504 H   0  0  0  0  0  0  0  0  0  0  0  0
    0.2597    2.9577   -0.4263 H   0  0  0  0  0  0  0  0  0  0  0  0
    0.3141    2.9611   -2.8859 H   0  0  0  0  0  0  0  0  0  0  0  0
    0.3674    0.8231   -4.1315 H   0  0  0  0  0  0  0  0  0  0  0  0
    0.3612   -1.3155   -2.8859 H   0  0  0  0  0  0  0  0  0  0  0  0
    0.3068   -1.3133   -0.4263 H   0  0  0  0  0  0  0  0  0  0  0  0
   -0.8708   -1.2702    3.7296 C   0  0  0  0  0  0  0  0  0  0  0  0
   -0.8951   -1.3142    2.2071 C   0  0  0  0  0  3  0  0  0  0  0  0
   -0.2214   -2.5595    1.6453 C   0  0  0  0  0  0  0  0  0  0  0  0
    0.1556   -1.2804    4.1043 H   0  0  0  0  0  0  0  0  0  0  0  0
   -1.3575   -0.3718    4.1128 H   0  0  0  0  0  0  0  0  0  0  0  0
   -1.3849   -2.1361    4.1537 H   0  0  0  0  0  0  0  0  0  0  0  0
   -1.9306   -1.2717    1.8582 H   0  0  0  0  0  0  0  0  0  0  0  0
   -0.7150   -3.4661    2.0036 H   0  0  0  0  0  0  0  0  0  0  0  0
   -0.2488   -2.5730    0.5544 H   0  0  0  0  0  0  0  0  0  0  0  0
    0.8255   -2.6104    1.9543 H   0  0  0  0  0  0  0  0  0  0  0  0
  1  2  1  0
  1  8  1  0
  1  9  1  0
  1 10  1  0
  2  3  2  0
  2  7  1  0
  3  4  1  0
  3 11  1  0
  4  5  2  0
  4 12  1  0
  5  6  1  0
  5 13  1  0
  6  7  2  0
  6 14  1  0
  7 15  1  0
 16 17  1  0
 16 19  1  0
 16 20  1  0
 16 21  1  0
 17 18  1  0
 17 22  1  0
 18 23  1  0
 18 24  1  0
 18 25  1  0
M  RAD  1  17   2
M  END
>  <reaction>  (9) 
rxn_1436

>  <mol_properties>  (9) 
{"0": {"label": "*1", "atom_type": "Cs"}, "1": {"label": "*0", "atom_type": "Cd"}, "7": {"label": "*2", "atom_type": "H0"}, "15": {"label": "*4", "atom_type": "Cs"}, "16": {"label": "*3", "atom_type": "Cs"}}

>  <type>  (9) 
unop_5

>  <geom_source>  (9) 
Heuristics

$$$$

     RDKit          3D

 25 24  0  0  0  0  0  0  0  0999 V2000
    0.4347    0.5991    1.2058 C   0  0  0  0  0  0  0  0  0  0  0  0
    0.4347    0.5991   -0.2979 C   0  0  0  0  0  0  0  0  0  0  0  0
    0.4347    1.7934   -1.0119 C   0  0  0  0  0  0  0  0  0  0  0  0
    0.4651    1.7968   -2.3979 C   0  0  0  0  0  0  0  0  0  0  0  0
    0.4946    0.5998   -3.0970 C   0  0  0  0  0  0  0  0  0  0  0  0
    0.4915   -0.5976   -2.3979 C   0  0  0  0  0  0  0  0  0  0  0  0
    0.4610   -0.5949   -1.0119 C   0  0  0  0  0  0  0  0  0  0  0  0
   -0.1552   -0.4676    1.6819 H   0  0  0  0  0  0  0  0  0  0  0  0
    1.4569    0.6104    1.5926 H   0  0  0  0  0  0  0  0  0  0  0  0
   -0.0764    1.4770    1.6026 H   0  0  0  0  0  0  0  0  0  0  0  0
    0.4080    2.7345   -0.4741 H   0  0  0  0  0  0  0  0  0  0  0  0
    0.4625    2.7380   -2.9337 H   0  0  0  0  0  0  0  0  0  0  0  0
    0.5158    0.6000   -4.1793 H   0  0  0  0  0  0  0  0  0  0  0  0
    0.5096   -1.5387   -2.9337 H   0  0  0  0  0  0  0  0  0  0  0  0
    0.4551   -1.5364   -0.4741 H   0  0  0  0  0  0  0  0  0  0  0  0
   -2.2324   -1.2555    2.3438 C   0  0  0  0  0  0  0  0  0  0  0  0
   -0.7467   -1.5373    2.1593 C   0  0  0  0  0  3  0  0  0  0  0  0
    0.0939   -1.0434    3.3298 C   0  0  0  0  0  0  0  0  0  0  0  0
   -2.4169   -0.1833    2.4457 H   0  0  0  0  0  0  0  0  0  0  0  0
   -2.8174   -1.6162    1.4961 H   0  0  0  0  0  0  0  0  0  0  0  0
   -2.6134   -1.7424    3.2447 H   0  0  0  0  0  0  0  0  0  0  0  0
   -0.5935   -2.6122    2.0291 H   0  0  0  0  0  0  0  0  0  0  0  0
   -0.2138   -1.5237    4.2618 H   0  0  0  0  0  0  0  0  0  0  0  0
    1.1540   -1.2541    3.1794 H   0  0  0  0  0  0  0  0  0  0  0  0
   -0.0173    0.0354    3.4628 H   0  0  0  0  0  0  0  0  0  0  0  0
  1  2  1  0
  1  8  1  0
  1  9  1  0
  1 10  1  0
  2  3  2  0
  2  7  1  0
  3  4  1  0
  3 11  1  0
  4  5  2  0
  4 12  1  0
  5  6  1  0
  5 13  1  0
  6  7  2  0
  6 14  1  0
  7 15  1  0
 16 17  1  0
 16 19  1  0
 16 20  1  0
 16 21  1  0
 17 18  1  0
 17 22  1  0
 18 23  1  0
 18 24  1  0
 18 25  1  0
M  RAD  1  17   2
M  END
>  <reaction>  (10) 
rxn_1436

>  <mol_properties>  (10) 
{"0": {"label": "*1", "atom_type": "Cs"}, "1": {"label": "*0", "atom_type": "Cd"}, "7": {"label": "*2", "atom_type": "H0"}, "15": {"label": "*4", "atom_type": "Cs"}, "16": {"label": "*3", "atom_type": "Cs"}}

>  <type>  (10) 
unop_6

>  <geom_source>  (10) 
Heuristics

$$$$

     RDKit          3D

 25 24  0  0  0  0  0  0  0  0999 V2000
    0.3468    0.6347    1.1769 C   0  0  0  0  0  0  0  0  0  0  0  0
    0.3468    0.6347   -0.3269 C   0  0  0  0  0  0  0  0  0  0  0  0
    0.3468    1.8290   -1.0409 C   0  0  0  0  0  0  0  0  0  0  0  0
    0.3772    1.8324   -2.4269 C   0  0  0  0  0  0  0  0  0  0  0  0
    0.4068    0.6354   -3.1259 C   0  0  0  0  0  0  0  0  0  0  0  0
    0.4036   -0.5620   -2.4269 C   0  0  0  0  0  0  0  0  0  0  0  0
    0.3731   -0.5593   -1.0409 C   0  0  0  0  0  0  0  0  0  0  0  0
   -0.2431   -0.4320    1.6529 H   0  0  0  0  0  0  0  0  0  0  0  0
    1.3690    0.6460    1.5636 H   0  0  0  0  0  0  0  0  0  0  0  0
   -0.1642    1.5126    1.5736 H   0  0  0  0  0  0  0  0  0  0  0  0
    0.3202    2.7701   -0.5031 H   0  0  0  0  0  0  0  0  0  0  0  0
    0.3746    2.7736   -2.9626 H   0  0  0  0  0  0  0  0  0  0  0  0
    0.4279    0.6356   -4.2083 H   0  0  0  0  0  0  0  0  0  0  0  0
    0.4217   -1.5030   -2.9626 H   0  0  0  0  0  0  0  0  0  0  0  0
    0.3673   -1.5008   -0.5031 H   0  0  0  0  0  0  0  0  0  0  0  0
   -2.0254   -1.0844    2.9838 C   0  0  0  0  0  0  0  0  0  0  0  0
   -0.8346   -1.5017    2.1303 C   0  0  0  0  0  3  0  0  0  0  0  0
    0.4818   -1.4514    2.8952 C   0  0  0  0  0  0  0  0  0  0  0  0
   -1.9032   -0.0628    3.3520 H   0  0  0  0  0  0  0  0  0  0  0  0
   -2.9582   -1.1268    2.4190 H   0  0  0  0  0  0  0  0  0  0  0  0
   -2.1307   -1.7375    3.8535 H   0  0  0  0  0  0  0  0  0  0  0  0
   -0.9963   -2.5142    1.7501 H   0  0  0  0  0  0  0  0  0  0  0  0
    0.4555   -2.1162    3.7621 H   0  0  0  0  0  0  0  0  0  0  0  0
    1.3221   -1.7535    2.2678 H   0  0  0  0  0  0  0  0  0  0  0  0
    0.6830   -0.4415    3.2606 H   0  0  0  0  0  0  0  0  0  0  0  0
  1  2  1  0
  1  8  1  0
  1  9  1  0
  1 10  1  0
  2  3  2  0
  2  7  1  0
  3  4  1  0
  3 11  1  0
  4  5  2  0
  4 12  1  0
  5  6  1  0
  5 13  1  0
  6  7  2  0
  6 14  1  0
  7 15  1  0
 16 17  1  0
 16 19  1  0
 16 20  1  0
 16 21  1  0
 17 18  1  0
 17 22  1  0
 18 23  1  0
 18 24  1  0
 18 25  1  0
M  RAD  1  17   2
M  END
>  <reaction>  (11) 
rxn_1436

>  <mol_properties>  (11) 
{"0": {"label": "*1", "atom_type": "Cs"}, "1": {"label": "*0", "atom_type": "Cd"}, "7": {"label": "*2", "atom_type": "H0"}, "15": {"label": "*4", "atom_type": "Cs"}, "16": {"label": "*3", "atom_type": "Cs"}}

>  <type>  (11) 
unop_7

>  <geom_source>  (11) 
Heuristics

$$$$

     RDKit          3D

 25 24  0  0  0  0  0  0  0  0999 V2000
    0.4064    0.8679    1.3409 C   0  0  0  0  0  0  0  0  0  0  0  0
    0.4064    0.8679   -0.1629 C   0  0  0  0  0  0  0  0  0  0  0  0
    0.4064    2.0622   -0.8769 C   0  0  0  0  0  0  0  0  0  0  0  0
    0.4369    2.0656   -2.2629 C   0  0  0  0  0  0  0  0  0  0  0  0
    0.4664    0.8686   -2.9619 C   0  0  0  0  0  0  0  0  0  0  0  0
    0.4633   -0.3288   -2.2629 C   0  0  0  0  0  0  0  0  0  0  0  0
    0.4328   -0.3261   -0.8769 C   0  0  0  0  0  0  0  0  0  0  0  0
   -0.1834   -0.1988    1.8169 H   0  0  0  0  0  0  0  0  0  0  0  0
    1.4287    0.8792    1.7276 H   0  0  0  0  0  0  0  0  0  0  0  0
   -0.1046    1.7458    1.7376 H   0  0  0  0  0  0  0  0  0  0  0  0
    0.3798    3.0033   -0.3391 H   0  0  0  0  0  0  0  0  0  0  0  0
    0.4342    3.0068   -2.7986 H   0  0  0  0  0  0  0  0  0  0  0  0
    0.4876    0.8688   -4.0443 H   0  0  0  0  0  0  0  0  0  0  0  0
    0.4814   -1.2698   -2.7986 H   0  0  0  0  0  0  0  0  0  0  0  0
    0.4269   -1.2676   -0.3391 H   0  0  0  0  0  0  0  0  0  0  0  0
    0.2535   -2.3769    2.4788 C   0  0  0  0  0  0  0  0  0  0  0  0
   -0.7750   -1.2685    2.2943 C   0  0  0  0  0  3  0  0  0  0  0  0
   -2.2037   -1.7950    2.2514 C   0  0  0  0  0  0  0  0  0  0  0  0
    0.1991   -3.1003    1.6616 H   0  0  0  0  0  0  0  0  0  0  0  0
    1.2699   -1.9805    2.5071 H   0  0  0  0  0  0  0  0  0  0  0  0
    0.0800   -2.9197    3.4112 H   0  0  0  0  0  0  0  0  0  0  0  0
   -0.6785   -0.5434    3.1072 H   0  0  0  0  0  0  0  0  0  0  0  0
   -2.4548   -2.3194    3.1766 H   0  0  0  0  0  0  0  0  0  0  0  0
   -2.9252   -0.9870    2.1189 H   0  0  0  0  0  0  0  0  0  0  0  0
   -2.3357   -2.5000    1.4271 H   0  0  0  0  0  0  0  0  0  0  0  0
  1  2  1  0
  1  8  1  0
  1  9  1  0
  1 10  1  0
  2  3  2  0
  2  7  1  0
  3  4  1  0
  3 11  1  0
  4  5  2  0
  4 12  1  0
  5  6  1  0
  5 13  1  0
  6  7  2  0
  6 14  1  0
  7 15  1  0
 16 17  1  0
 16 19  1  0
 16 20  1  0
 16 21  1  0
 17 18  1  0
 17 22  1  0
 18 23  1  0
 18 24  1  0
 18 25  1  0
M  RAD  1  17   2
M  END
>  <reaction>  (12) 
rxn_1436

>  <mol_properties>  (12) 
{"0": {"label": "*1", "atom_type": "Cs"}, "1": {"label": "*0", "atom_type": "Cd"}, "7": {"label": "*2", "atom_type": "H0"}, "15": {"label": "*4", "atom_type": "Cs"}, "16": {"label": "*3", "atom_type": "Cs"}}

>  <type>  (12) 
unop_8

>  <geom_source>  (12) 
Heuristics

$$$$

     RDKit          3D

 25 24  0  0  0  0  0  0  0  0999 V2000
    0.5494    0.6590    1.3327 C   0  0  0  0  0  0  0  0  0  0  0  0
    0.5494    0.6590   -0.1711 C   0  0  0  0  0  0  0  0  0  0  0  0
    0.5494    1.8533   -0.8851 C   0  0  0  0  0  0  0  0  0  0  0  0
    0.5799    1.8567   -2.2711 C   0  0  0  0  0  0  0  0  0  0  0  0
    0.6094    0.6597   -2.9701 C   0  0  0  0  0  0  0  0  0  0  0  0
    0.6063   -0.5377   -2.2711 C   0  0  0  0  0  0  0  0  0  0  0  0
    0.5758   -0.5350   -0.8851 C   0  0  0  0  0  0  0  0  0  0  0  0
   -0.0405   -0.4077    1.8087 H   0  0  0  0  0  0  0  0  0  0  0  0
    1.5716    0.6702    1.7194 H   0  0  0  0  0  0  0  0  0  0  0  0
    0.0384    1.5369    1.7294 H   0  0  0  0  0  0  0  0  0  0  0  0
    0.5228    2.7944   -0.3473 H   0  0  0  0  0  0  0  0  0  0  0  0
    0.5772    2.7979   -2.8068 H   0  0  0  0  0  0  0  0  0  0  0  0
    0.6306    0.6599   -4.0525 H   0  0  0  0  0  0  0  0  0  0  0  0
    0.6244   -1.4788   -2.8068 H   0  0  0  0  0  0  0  0  0  0  0  0
    0.5699   -1.4765   -0.3473 H   0  0  0  0  0  0  0  0  0  0  0  0
   -1.7081   -1.9392    1.3118 C   0  0  0  0  0  0  0  0  0  0  0  0
   -0.6320   -1.4774    2.2861 C   0  0  0  0  0  3  0  0  0  0  0  0
   -1.2088   -0.7651    3.5029 C   0  0  0  0  0  0  0  0  0  0  0  0
   -2.2923   -1.0919    0.9447 H   0  0  0  0  0  0  0  0  0  0  0  0
   -1.2759   -2.4466    0.4477 H   0  0  0  0  0  0  0  0  0  0  0  0
   -2.4010   -2.6324    1.7950 H   0  0  0  0  0  0  0  0  0  0  0  0
   -0.0435   -2.3389    2.6137 H   0  0  0  0  0  0  0  0  0  0  0  0
   -1.8859   -1.4213    4.0551 H   0  0  0  0  0  0  0  0  0  0  0  0
   -0.4234   -0.4422    4.1884 H   0  0  0  0  0  0  0  0  0  0  0  0
   -1.7772    0.1192    3.2048 H   0  0  0  0  0  0  0  0  0  0  0  0
  1  2  1  0
  1  8  1  0
  1  9  1  0
  1 10  1  0
  2  3  2  0
  2  7  1  0
  3  4  1  0
  3 11  1  0
  4  5  2  0
  4 12  1  0
  5  6  1  0
  5 13  1  0
  6  7  2  0
  6 14  1  0
  7 15  1  0
 16 17  1  0
 16 19  1  0
 16 20  1  0
 16 21  1  0
 17 18  1  0
 17 22  1  0
 18 23  1  0
 18 24  1  0
 18 25  1  0
M  RAD  1  17   2
M  END
>  <reaction>  (13) 
rxn_1436

>  <mol_properties>  (13) 
{"0": {"label": "*1", "atom_type": "Cs"}, "1": {"label": "*0", "atom_type": "Cd"}, "7": {"label": "*2", "atom_type": "H0"}, "15": {"label": "*4", "atom_type": "Cs"}, "16": {"label": "*3", "atom_type": "Cs"}}

>  <type>  (13) 
unop_9

>  <geom_source>  (13) 
Heuristics

$$$$

     RDKit          3D

 25 24  0  0  0  0  0  0  0  0999 V2000
    0.4424    0.8560    1.3772 C   0  0  0  0  0  0  0  0  0  0  0  0
    0.4424    0.8560   -0.1266 C   0  0  0  0  0  0  0  0  0  0  0  0
    0.4424    2.0503   -0.8406 C   0  0  0  0  0  0  0  0  0  0  0  0
    0.4729    2.0537   -2.2266 C   0  0  0  0  0  0  0  0  0  0  0  0
    0.5024    0.8566   -2.9256 C   0  0  0  0  0  0  0  0  0  0  0  0
    0.4993   -0.3407   -2.2266 C   0  0  0  0  0  0  0  0  0  0  0  0
    0.4688   -0.3380   -0.8406 C   0  0  0  0  0  0  0  0  0  0  0  0
   -0.1474   -0.2107    1.8532 H   0  0  0  0  0  0  0  0  0  0  0  0
    1.4647    0.8672    1.7639 H   0  0  0  0  0  0  0  0  0  0  0  0
   -0.0686    1.7339    1.7739 H   0  0  0  0  0  0  0  0  0  0  0  0
    0.4158    2.9914   -0.3028 H   0  0  0  0  0  0  0  0  0  0  0  0
    0.4702    2.9949   -2.7623 H   0  0  0  0  0  0  0  0  0  0  0  0
    0.5236    0.8569   -4.0080 H   0  0  0  0  0  0  0  0  0  0  0  0
    0.5174   -1.2818   -2.7623 H   0  0  0  0  0  0  0  0  0  0  0  0
    0.4629   -1.2795   -0.3028 H   0  0  0  0  0  0  0  0  0  0  0  0
   -0.0053   -2.5244    1.8461 C   0  0  0  0  0  0  0  0  0  0  0  0
   -0.7389   -1.2804    2.3306 C   0  0  0  0  0  3  0  0  0  0  0  0
   -2.2059   -1.5482    2.6417 C   0  0  0  0  0  0  0  0  0  0  0  0
   -0.4631   -2.9180    0.9353 H   0  0  0  0  0  0  0  0  0  0  0  0
    1.0430   -2.3127    1.6286 H   0  0  0  0  0  0  0  0  0  0  0  0
   -0.0378   -3.3153    2.5994 H   0  0  0  0  0  0  0  0  0  0  0  0
   -0.2429   -0.8899    3.2235 H   0  0  0  0  0  0  0  0  0  0  0  0
   -2.3077   -2.3084    3.4200 H   0  0  0  0  0  0  0  0  0  0  0  0
   -2.7140   -0.6462    2.9869 H   0  0  0  0  0  0  0  0  0  0  0  0
   -2.7331   -1.9111    1.7560 H   0  0  0  0  0  0  0  0  0  0  0  0
  1  2  1  0
  1  8  1  0
  1  9  1  0
  1 10  1  0
  2  3  2  0
  2  7  1  0
  3  4  1  0
  3 11  1  0
  4  5  2  0
  4 12  1  0
  5  6  1  0
  5 13  1  0
  6  7  2  0
  6 14  1  0
  7 15  1  0
 16 17  1  0
 16 19  1  0
 16 20  1  0
 16 21  1  0
 17 18  1  0
 17 22  1  0
 18 23  1  0
 18 24  1  0
 18 25  1  0
M  RAD  1  17   2
M  END
>  <reaction>  (14) 
rxn_1436

>  <mol_properties>  (14) 
{"0": {"label": "*1", "atom_type": "Cs"}, "1": {"label": "*0", "atom_type": "Cd"}, "7": {"label": "*2", "atom_type": "H0"}, "15": {"label": "*4", "atom_type": "Cs"}, "16": {"label": "*3", "atom_type": "Cs"}}

>  <type>  (14) 
unop_10

>  <geom_source>  (14) 
Heuristics

$$$$

     RDKit          3D

 25 24  0  0  0  0  0  0  0  0999 V2000
    0.2761    0.7174    1.1935 C   0  0  0  0  0  0  0  0  0  0  0  0
    0.2761    0.7174   -0.3102 C   0  0  0  0  0  0  0  0  0  0  0  0
    0.2761    1.9117   -1.0243 C   0  0  0  0  0  0  0  0  0  0  0  0
    0.3066    1.9151   -2.4103 C   0  0  0  0  0  0  0  0  0  0  0  0
    0.3361    0.7181   -3.1093 C   0  0  0  0  0  0  0  0  0  0  0  0
    0.3330   -0.4793   -2.4103 C   0  0  0  0  0  0  0  0  0  0  0  0
    0.3025   -0.4766   -1.0243 C   0  0  0  0  0  0  0  0  0  0  0  0
   -0.3138   -0.3493    1.6696 H   0  0  0  0  0  0  0  0  0  0  0  0
    1.2983    0.7287    1.5803 H   0  0  0  0  0  0  0  0  0  0  0  0
   -0.2349    1.5953    1.5902 H   0  0  0  0  0  0  0  0  0  0  0  0
    0.2495    2.8528   -0.4865 H   0  0  0  0  0  0  0  0  0  0  0  0
    0.3039    2.8563   -2.9460 H   0  0  0  0  0  0  0  0  0  0  0  0
    0.3573    0.7183   -4.1917 H   0  0  0  0  0  0  0  0  0  0  0  0
    0.3511   -1.4203   -2.9460 H   0  0  0  0  0  0  0  0  0  0  0  0
    0.2966   -1.4181   -0.4865 H   0  0  0  0  0  0  0  0  0  0  0  0
   -1.5434   -1.0887    3.4902 C   0  0  0  0  0  0  0  0  0  0  0  0
   -0.9053   -1.4190    2.1470 C   0  0  0  0  0  3  0  0  0  0  0  0
    0.4923   -2.0078    2.2903 C   0  0  0  0  0  0  0  0  0  0  0  0
   -0.9406   -0.3625    4.0410 H   0  0  0  0  0  0  0  0  0  0  0  0
   -2.5429   -0.6685    3.3670 H   0  0  0  0  0  0  0  0  0  0  0  0
   -1.6307   -1.9832    4.1117 H   0  0  0  0  0  0  0  0  0  0  0  0
   -1.5428   -2.1225    1.6043 H   0  0  0  0  0  0  0  0  0  0  0  0
    0.4692   -2.9313    2.8740 H   0  0  0  0  0  0  0  0  0  0  0  0
    0.9324   -2.2376    1.3184 H   0  0  0  0  0  0  0  0  0  0  0  0
    1.1593   -1.3106    2.8033 H   0  0  0  0  0  0  0  0  0  0  0  0
  1  2  1  0
  1  8  1  0
  1  9  1  0
  1 10  1  0
  2  3  2  0
  2  7  1  0
  3  4  1  0
  3 11  1  0
  4  5  2  0
  4 12  1  0
  5  6  1  0
  5 13  1  0
  6  7  2  0
  6 14  1  0
  7 15  1  0
 16 17  1  0
 16 19  1  0
 16 20  1  0
 16 21  1  0
 17 18  1  0
 17 22  1  0
 18 23  1  0
 18 24  1  0
 18 25  1  0
M  RAD  1  17   2
M  END
>  <reaction>  (15) 
rxn_1436

>  <mol_properties>  (15) 
{"0": {"label": "*1", "atom_type": "Cs"}, "1": {"label": "*0", "atom_type": "Cd"}, "7": {"label": "*2", "atom_type": "H0"}, "15": {"label": "*4", "atom_type": "Cs"}, "16": {"label": "*3", "atom_type": "Cs"}}

>  <type>  (15) 
unop_11

>  <geom_source>  (15) 
Heuristics

$$$$

     RDKit          3D

 25 24  0  0  0  0  0  0  0  0999 V2000
    0.5434    0.7388    1.3853 C   0  0  0  0  0  0  0  0  0  0  0  0
    0.5434    0.7388   -0.1184 C   0  0  0  0  0  0  0  0  0  0  0  0
    0.5434    1.9332   -0.8325 C   0  0  0  0  0  0  0  0  0  0  0  0
    0.5738    1.9365   -2.2184 C   0  0  0  0  0  0  0  0  0  0  0  0
    0.6034    0.7395   -2.9175 C   0  0  0  0  0  0  0  0  0  0  0  0
    0.6002   -0.4579   -2.2184 C   0  0  0  0  0  0  0  0  0  0  0  0
    0.5697   -0.4552   -0.8325 C   0  0  0  0  0  0  0  0  0  0  0  0
   -0.0465   -0.3279    1.8614 H   0  0  0  0  0  0  0  0  0  0  0  0
    1.5656    0.7501    1.7721 H   0  0  0  0  0  0  0  0  0  0  0  0
    0.0324    1.6167    1.7821 H   0  0  0  0  0  0  0  0  0  0  0  0
    0.5168    2.8743   -0.2946 H   0  0  0  0  0  0  0  0  0  0  0  0
    0.5712    2.8777   -2.7542 H   0  0  0  0  0  0  0  0  0  0  0  0
    0.6245    0.7397   -3.9998 H   0  0  0  0  0  0  0  0  0  0  0  0
    0.6184   -1.3989   -2.7542 H   0  0  0  0  0  0  0  0  0  0  0  0
    0.5639   -1.3967   -0.2946 H   0  0  0  0  0  0  0  0  0  0  0  0
   -1.1195   -2.2682    1.1852 C   0  0  0  0  0  0  0  0  0  0  0  0
   -0.6380   -1.3976    2.3388 C   0  0  0  0  0  3  0  0  0  0  0  0
   -1.7689   -0.9789    3.2696 C   0  0  0  0  0  0  0  0  0  0  0  0
   -1.8592   -1.7396    0.5791 H   0  0  0  0  0  0  0  0  0  0  0  0
   -0.2960   -2.5577    0.5302 H   0  0  0  0  0  0  0  0  0  0  0  0
   -1.5897   -3.1824    1.5556 H   0  0  0  0  0  0  0  0  0  0  0  0
    0.1223   -1.9376    2.9098 H   0  0  0  0  0  0  0  0  0  0  0  0
   -2.2596   -1.8524    3.7056 H   0  0  0  0  0  0  0  0  0  0  0  0
   -1.4047   -0.3565    4.0887 H   0  0  0  0  0  0  0  0  0  0  0  0
   -2.5291   -0.4096    2.7291 H   0  0  0  0  0  0  0  0  0  0  0  0
  1  2  1  0
  1  8  1  0
  1  9  1  0
  1 10  1  0
  2  3  2  0
  2  7  1  0
  3  4  1  0
  3 11  1  0
  4  5  2  0
  4 12  1  0
  5  6  1  0
  5 13  1  0
  6  7  2  0
  6 14  1  0
  7 15  1  0
 16 17  1  0
 16 19  1  0
 16 20  1  0
 16 21  1  0
 17 18  1  0
 17 22  1  0
 18 23  1  0
 18 24  1  0
 18 25  1  0
M  RAD  1  17   2
M  END
>  <reaction>  (16) 
rxn_1436

>  <mol_properties>  (16) 
{"0": {"label": "*1", "atom_type": "Cs"}, "1": {"label": "*0", "atom_type": "Cd"}, "7": {"label": "*2", "atom_type": "H0"}, "15": {"label": "*4", "atom_type": "Cs"}, "16": {"label": "*3", "atom_type": "Cs"}}

>  <type>  (16) 
unop_12

>  <geom_source>  (16) 
Heuristics

$$$$

     RDKit          3D

 25 24  0  0  0  0  0  0  0  0999 V2000
   -2.4860   -0.0661   -0.2371 C   0  0  0  0  0  0  0  0  0  0  0  0
   -2.9129   -1.5279   -0.3108 C   0  0  0  0  0  0  0  0  0  0  0  0
   -2.8715    0.5585    1.0993 C   0  0  0  0  0  0  0  0  0  0  0  0
    1.3028    0.3894   -0.4310 C   0  0  0  0  0  0  0  0  0  0  0  0
    1.5939   -0.7932    0.2622 C   0  0  0  0  0  3  0  0  0  0  0  0
    2.3228    1.3208   -0.6772 C   0  0  0  0  0  0  0  0  0  0  0  0
    2.8967   -1.0429    0.7064 C   0  0  0  0  0  0  0  0  0  0  0  0
    3.9113   -0.1128    0.4597 C   0  0  0  0  0  0  0  0  0  0  0  0
    3.6245    1.0684   -0.2317 C   0  0  0  0  0  0  0  0  0  0  0  0
   -0.0897    0.6498   -0.9025 C   0  0  0  0  0  0  0  0  0  0  0  0
   -2.9697    0.5008   -1.0616 H   0  0  0  0  0  0  0  0  0  0  0  0
   -1.1626    0.0103   -0.3889 H   0  0  0  0  0  0  0  0  0  0  0  0
   -2.6139   -1.9503   -1.2928 H   0  0  0  0  0  0  0  0  0  0  0  0
   -4.0154   -1.6148   -0.2051 H   0  0  0  0  0  0  0  0  0  0  0  0
   -2.4180   -2.1133    0.4929 H   0  0  0  0  0  0  0  0  0  0  0  0
   -3.9730    0.5228    1.2396 H   0  0  0  0  0  0  0  0  0  0  0  0
   -2.3757    0.0175    1.9330 H   0  0  0  0  0  0  0  0  0  0  0  0
   -2.5432    1.6186    1.1193 H   0  0  0  0  0  0  0  0  0  0  0  0
    0.8144   -1.5194    0.4579 H   0  0  0  0  0  0  0  0  0  0  0  0
    3.1197   -1.9568    1.2417 H   0  0  0  0  0  0  0  0  0  0  0  0
    4.9189   -0.3071    0.8039 H   0  0  0  0  0  0  0  0  0  0  0  0
    4.4104    1.7877   -0.4223 H   0  0  0  0  0  0  0  0  0  0  0  0
    2.1094    2.2382   -1.2119 H   0  0  0  0  0  0  0  0  0  0  0  0
   -0.1077    0.7461   -2.0084 H   0  0  0  0  0  0  0  0  0  0  0  0
   -0.4854    1.5757   -0.4346 H   0  0  0  0  0  0  0  0  0  0  0  0
  1  2  1  0
  1  3  1  0
  1 11  1  0
  1 12  1  0
  2 13  1  0
  2 14  1  0
  2 15  1  0
  3 16  1  0
  3 17  1  0
  3 18  1  0
  4 10  2  3
  4  5  1  0
  4  6  1  0
  5  7  1  0
  5 19  1  0
  6  9  2  0
  6 23  1  0
  7  8  2  0
  7 20  1  0
  8  9  1  0
  8 21  1  0
  9 22  1  0
 10 24  1  0
 10 25  1  0
M  RAD  1   5   2
M  END
>  <reaction>  (17) 
rxn_1436

>  <mol_properties>  (17) 
{"0": {"label": "*1", "atom_type": "Cs"}, "1": {"label": "*0", "atom_type": "Cd"}, "7": {"label": "*2", "atom_type": "H0"}, "15": {"label": "*4", "atom_type": "Cs"}, "16": {"label": "*3", "atom_type": "Cs"}}

>  <type>  (17) 
unop_13

>  <geom_source>  (17) 
AutoTST

$$$$
