
     RDKit          3D

  9  8  0  0  0  0  0  0  0  0999 V2000
   -2.1022   -0.6873    0.3932 C   0  0  0  0  0  0  0  0  0  0  0  0
   -1.2072   -0.1086   -0.1482 C   0  0  0  0  0  0  0  0  0  0  0  0
   -0.1242    0.6105   -0.8193 C   0  0  0  0  0  0  0  0  0  0  0  0
    1.2067    0.1106   -0.4741 C   0  0  0  0  0  0  0  0  0  0  0  0
    2.3005   -0.2875   -0.2012 C   0  0  0  0  0  0  0  0  0  0  0  0
   -2.8942   -1.2059    0.8778 H   0  0  0  0  0  0  0  0  0  0  0  0
   -0.1862    1.6723   -0.5649 H   0  0  0  0  0  0  0  0  0  0  0  0
   -0.2641    0.5418   -1.9017 H   0  0  0  0  0  0  0  0  0  0  0  0
    3.2709   -0.6459    0.0455 H   0  0  0  0  0  0  0  0  0  0  0  0
  1  2  3  0
  1  6  1  0
  2  3  1  0
  3  4  1  0
  3  7  1  0
  3  8  1  0
  4  5  3  0
  5  9  1  0
M  END
>  <reaction>  (1) 
rxn_1364

>  <mol_properties>  (1) 
{"2": {"label": "donator", "atom_type": "Cs"}, "6": {"label": "d_hydrogen", "atom_type": "H0"}}

>  <type>  (1) 
r1h

$$$$

     RDKit          3D

  9  8  0  0  0  0  0  0  0  0999 V2000
    1.8963   -0.1405   -0.2150 C   0  0  0  0  0  0  0  0  0  0  0  0
    0.6340    0.1486   -0.2254 C   0  0  0  0  0  3  0  0  0  0  0  0
   -0.6770    0.4501   -0.2373 C   0  0  0  0  0  0  0  0  0  0  0  0
   -1.6600   -0.2303    0.4662 C   0  0  0  0  0  0  0  0  0  0  0  0
    2.3274   -0.8354   -0.9313 H   0  0  0  0  0  0  0  0  0  0  0  0
    2.5751    0.2988    0.5117 H   0  0  0  0  0  0  0  0  0  0  0  0
   -0.9723    1.2966   -0.8520 H   0  0  0  0  0  0  0  0  0  0  0  0
   -2.6934    0.0777    0.4015 H   0  0  0  0  0  0  0  0  0  0  0  0
   -1.4140   -1.0782    1.0904 H   0  0  0  0  0  0  0  0  0  0  0  0
  1  2  2  3
  1  5  1  0
  1  6  1  0
  2  3  1  0
  3  4  2  3
  3  7  1  0
  4  8  1  0
  4  9  1  0
M  RAD  1   2   2
M  END
>  <reaction>  (2) 
rxn_1364

>  <mol_properties>  (2) 
{"1": {"label": "acceptor", "atom_type": "Cd"}}

>  <type>  (2) 
r2

$$$$

     RDKit          3D

 10  9  0  0  0  0  0  0  0  0999 V2000
    1.8334    0.0847   -0.1062 C   0  0  0  0  0  0  0  0  0  0  0  0
    0.5993   -0.4071   -0.0750 C   0  0  0  0  0  0  0  0  0  0  0  0
   -0.5993    0.4071    0.0750 C   0  0  0  0  0  0  0  0  0  0  0  0
   -1.8334   -0.0847    0.1062 C   0  0  0  0  0  0  0  0  0  0  0  0
    2.0179    1.1498   -0.0189 H   0  0  0  0  0  0  0  0  0  0  0  0
    2.6972   -0.5572   -0.2194 H   0  0  0  0  0  0  0  0  0  0  0  0
    0.4465   -1.4793   -0.1649 H   0  0  0  0  0  0  0  0  0  0  0  0
   -0.4465    1.4793    0.1649 H   0  0  0  0  0  0  0  0  0  0  0  0
   -2.0179   -1.1498    0.0189 H   0  0  0  0  0  0  0  0  0  0  0  0
   -2.6972    0.5572    0.2194 H   0  0  0  0  0  0  0  0  0  0  0  0
  1  2  2  3
  1  5  1  0
  1  6  1  0
  2  3  1  0
  2  7  1  0
  3  4  2  3
  3  8  1  0
  4  9  1  0
  4 10  1  0
M  END
>  <reaction>  (3) 
rxn_1364

>  <mol_properties>  (3) 
{"0": {"label": "a_hydrogen", "atom_type": "H0"}, "2": {"label": "acceptor", "atom_type": "Cd"}}

>  <type>  (3) 
r2h

$$$$

     RDKit          3D

 18 16  0  0  0  0  0  0  0  0999 V2000
   -1.1702   -0.5937   -2.5991 C   0  0  0  0  0  0  0  0  0  0  0  0
   -0.9034   -0.8278   -1.4548 C   0  0  0  0  0  0  0  0  0  0  0  0
   -0.5296   -1.0692   -0.0813 C   0  0  0  0  0  0  0  0  0  0  0  0
   -1.6147   -1.1099    0.8693 C   0  0  0  0  0  0  0  0  0  0  0  0
   -2.4908   -1.1169    1.6871 C   0  0  0  0  0  0  0  0  0  0  0  0
   -1.4232   -0.3946   -3.6127 H   0  0  0  0  0  0  0  0  0  0  0  0
    0.2060   -0.1339    0.2670 H   0  0  0  0  0  0  0  0  0  0  0  0
    0.1266   -1.9356    0.0150 H   0  0  0  0  0  0  0  0  0  0  0  0
   -3.2784   -1.1341    2.4014 H   0  0  0  0  0  0  0  0  0  0  0  0
    0.6256    1.3607    1.9951 C   0  0  0  0  0  0  0  0  0  0  0  0
    1.0648    0.9494    0.8267 C   0  0  0  0  0  3  0  0  0  0  0  0
    2.2044    1.2949    0.0134 C   0  0  0  0  0  0  0  0  0  0  0  0
    2.3959    0.8868   -1.2372 C   0  0  0  0  0  0  0  0  0  0  0  0
   -0.2697    0.9435    2.4430 H   0  0  0  0  0  0  0  0  0  0  0  0
    1.1422    2.1429    2.5497 H   0  0  0  0  0  0  0  0  0  0  0  0
    2.9455    1.9360    0.4908 H   0  0  0  0  0  0  0  0  0  0  0  0
    3.2756    1.1861   -1.7916 H   0  0  0  0  0  0  0  0  0  0  0  0
    1.6767    0.2547   -1.7447 H   0  0  0  0  0  0  0  0  0  0  0  0
  1  2  3  0
  1  6  1  0
  2  3  1  0
  3  4  1  0
  3  7  1  0
  3  8  1  0
  4  5  3  0
  5  9  1  0
 10 11  2  3
 10 14  1  0
 10 15  1  0
 11 12  1  0
 12 13  2  3
 12 16  1  0
 13 17  1  0
 13 18  1  0
M  RAD  1  11   2
M  END
>  <reaction>  (4) 
rxn_1364

>  <mol_properties>  (4) 
{"1": {"label": "*0", "atom_type": "Ct"}, "2": {"label": "*1", "atom_type": "Cs"}, "6": {"label": "*2", "atom_type": "H0"}, "10": {"label": "*3", "atom_type": "Cd"}, "11": {"label": "*4", "atom_type": "Cd"}}

>  <type>  (4) 
ts

$$$$

     RDKit          3D

 18 16  0  0  0  0  0  0  0  0999 V2000
   -0.2575   -1.1420   -2.9795 C   0  0  0  0  0  0  0  0  0  0  0  0
   -0.2575   -1.1420   -1.7840 C   0  0  0  0  0  0  0  0  0  0  0  0
   -0.2575   -1.1420   -0.3210 C   0  0  0  0  0  3  0  0  0  0  0  0
   -1.5716   -0.8664    0.2601 C   0  0  0  0  0  0  0  0  0  0  0  0
   -2.6453   -0.6412    0.7350 C   0  0  0  0  0  0  0  0  0  0  0  0
   -0.2575   -1.1420   -4.0430 H   0  0  0  0  0  0  0  0  0  0  0  0
    0.6006   -0.2476    0.1100 H   0  0  0  0  0  0  0  0  0  0  0  0
    0.0978   -2.1118    0.0382 H   0  0  0  0  0  0  0  0  0  0  0  0
   -3.6005   -0.4408    1.1575 H   0  0  0  0  0  0  0  0  0  0  0  0
    2.5937    0.0078    0.7920 C   0  0  0  0  0  0  0  0  0  0  0  0
    1.4533    0.6412    0.5383 C   0  0  0  0  0  0  0  0  0  0  0  0
    0.9125    1.7102    1.3673 C   0  0  0  0  0  0  0  0  0  0  0  0
   -0.2278    2.3435    1.1136 C   0  0  0  0  0  0  0  0  0  0  0  0
    2.9591   -0.7819    0.1487 H   0  0  0  0  0  0  0  0  0  0  0  0
    3.1991    0.2615    1.6552 H   0  0  0  0  0  0  0  0  0  0  0  0
    1.4974    1.9870    2.2403 H   0  0  0  0  0  0  0  0  0  0  0  0
   -0.5933    3.1332    1.7568 H   0  0  0  0  0  0  0  0  0  0  0  0
   -0.8333    2.0899    0.2504 H   0  0  0  0  0  0  0  0  0  0  0  0
  1  2  3  0
  1  6  1  0
  2  3  1  0
  3  4  1  0
  3  8  1  0
  4  5  3  0
  5  9  1  0
  7 11  1  0
 10 11  2  3
 10 14  1  0
 10 15  1  0
 11 12  1  0
 12 13  2  3
 12 16  1  0
 13 17  1  0
 13 18  1  0
M  RAD  1   3   2
M  END
>  <reaction>  (5) 
rxn_1364

>  <mol_properties>  (5) 
{"1": {"label": "*0", "atom_type": "Ct"}, "2": {"label": "*1", "atom_type": "Cs"}, "6": {"label": "*2", "atom_type": "H0"}, "10": {"label": "*3", "atom_type": "Cd"}, "11": {"label": "*4", "atom_type": "Cd"}}

>  <type>  (5) 
unop_1

>  <geom_source>  (5) 
Heuristics

$$$$

     RDKit          3D

 18 16  0  0  0  0  0  0  0  0999 V2000
   -0.4296   -1.1682   -2.5873 C   0  0  0  0  0  0  0  0  0  0  0  0
   -0.4296   -1.1682   -1.3918 C   0  0  0  0  0  0  0  0  0  0  0  0
   -0.4296   -1.1682    0.0712 C   0  0  0  0  0  3  0  0  0  0  0  0
   -1.7436   -0.8926    0.6523 C   0  0  0  0  0  0  0  0  0  0  0  0
   -2.8174   -0.6674    1.1272 C   0  0  0  0  0  0  0  0  0  0  0  0
   -0.4296   -1.1682   -3.6508 H   0  0  0  0  0  0  0  0  0  0  0  0
    0.4285   -0.2739    0.5022 H   0  0  0  0  0  0  0  0  0  0  0  0
   -0.0743   -2.1381    0.4304 H   0  0  0  0  0  0  0  0  0  0  0  0
   -3.7726   -0.4671    1.5497 H   0  0  0  0  0  0  0  0  0  0  0  0
    1.6155    0.5679    2.2158 C   0  0  0  0  0  0  0  0  0  0  0  0
    1.2812    0.6149    0.9305 C   0  0  0  0  0  0  0  0  0  0  0  0
    1.4906    1.7757    0.0755 C   0  0  0  0  0  0  0  0  0  0  0  0
    1.1563    1.8227   -1.2098 C   0  0  0  0  0  0  0  0  0  0  0  0
    1.4418   -0.3161    2.8151 H   0  0  0  0  0  0  0  0  0  0  0  0
    2.0753    1.4168    2.7098 H   0  0  0  0  0  0  0  0  0  0  0  0
    1.9500    2.6427    0.5425 H   0  0  0  0  0  0  0  0  0  0  0  0
    1.3300    2.7068   -1.8091 H   0  0  0  0  0  0  0  0  0  0  0  0
    0.6965    0.9738   -1.7038 H   0  0  0  0  0  0  0  0  0  0  0  0
  1  2  3  0
  1  6  1  0
  2  3  1  0
  3  4  1  0
  3  8  1  0
  4  5  3  0
  5  9  1  0
  7 11  1  0
 10 11  2  3
 10 14  1  0
 10 15  1  0
 11 12  1  0
 12 13  2  3
 12 16  1  0
 13 17  1  0
 13 18  1  0
M  RAD  1   3   2
M  END
>  <reaction>  (6) 
rxn_1364

>  <mol_properties>  (6) 
{"1": {"label": "*0", "atom_type": "Ct"}, "2": {"label": "*1", "atom_type": "Cs"}, "6": {"label": "*2", "atom_type": "H0"}, "10": {"label": "*3", "atom_type": "Cd"}, "11": {"label": "*4", "atom_type": "Cd"}}

>  <type>  (6) 
unop_2

>  <geom_source>  (6) 
Heuristics

$$$$

     RDKit          3D

 18 16  0  0  0  0  0  0  0  0999 V2000
   -0.3143   -1.0395   -3.0815 C   0  0  0  0  0  0  0  0  0  0  0  0
   -0.3143   -1.0395   -1.8860 C   0  0  0  0  0  0  0  0  0  0  0  0
   -0.3143   -1.0395   -0.4230 C   0  0  0  0  0  3  0  0  0  0  0  0
   -1.6283   -0.7639    0.1582 C   0  0  0  0  0  0  0  0  0  0  0  0
   -2.7021   -0.5387    0.6331 C   0  0  0  0  0  0  0  0  0  0  0  0
   -0.3143   -1.0395   -4.1450 H   0  0  0  0  0  0  0  0  0  0  0  0
    0.5438   -0.1451    0.0081 H   0  0  0  0  0  0  0  0  0  0  0  0
    0.0410   -2.0094   -0.0638 H   0  0  0  0  0  0  0  0  0  0  0  0
   -3.6573   -0.3384    1.0555 H   0  0  0  0  0  0  0  0  0  0  0  0
    2.6288    0.5078   -0.0015 C   0  0  0  0  0  0  0  0  0  0  0  0
    1.3965    0.7436    0.4364 C   0  0  0  0  0  0  0  0  0  0  0  0
    1.0918    1.3687    1.7166 C   0  0  0  0  0  0  0  0  0  0  0  0
   -0.1405    1.6044    2.1545 C   0  0  0  0  0  0  0  0  0  0  0  0
    2.8103    0.0405   -0.9605 H   0  0  0  0  0  0  0  0  0  0  0  0
    3.4977    0.7765    0.5891 H   0  0  0  0  0  0  0  0  0  0  0  0
    1.9427    1.6494    2.3314 H   0  0  0  0  0  0  0  0  0  0  0  0
   -0.3219    2.0718    3.1134 H   0  0  0  0  0  0  0  0  0  0  0  0
   -1.0094    1.3357    1.5638 H   0  0  0  0  0  0  0  0  0  0  0  0
  1  2  3  0
  1  6  1  0
  2  3  1  0
  3  4  1  0
  3  8  1  0
  4  5  3  0
  5  9  1  0
  7 11  1  0
 10 11  2  3
 10 14  1  0
 10 15  1  0
 11 12  1  0
 12 13  2  3
 12 16  1  0
 13 17  1  0
 13 18  1  0
M  RAD  1   3   2
M  END
>  <reaction>  (7) 
rxn_1364

>  <mol_properties>  (7) 
{"1": {"label": "*0", "atom_type": "Ct"}, "2": {"label": "*1", "atom_type": "Cs"}, "6": {"label": "*2", "atom_type": "H0"}, "10": {"label": "*3", "atom_type": "Cd"}, "11": {"label": "*4", "atom_type": "Cd"}}

>  <type>  (7) 
unop_3

>  <geom_source>  (7) 
Heuristics

$$$$

     RDKit          3D

 18 16  0  0  0  0  0  0  0  0999 V2000
   -0.7041   -0.8526   -2.6935 C   0  0  0  0  0  0  0  0  0  0  0  0
   -0.7041   -0.8526   -1.4980 C   0  0  0  0  0  0  0  0  0  0  0  0
   -0.7041   -0.8526   -0.0350 C   0  0  0  0  0  3  0  0  0  0  0  0
   -2.0181   -0.5770    0.5461 C   0  0  0  0  0  0  0  0  0  0  0  0
   -3.0918   -0.3518    1.0210 C   0  0  0  0  0  0  0  0  0  0  0  0
   -0.7041   -0.8526   -3.7570 H   0  0  0  0  0  0  0  0  0  0  0  0
    0.1541    0.0418    0.3960 H   0  0  0  0  0  0  0  0  0  0  0  0
   -0.3487   -1.8225    0.3242 H   0  0  0  0  0  0  0  0  0  0  0  0
   -4.0470   -0.1515    1.4435 H   0  0  0  0  0  0  0  0  0  0  0  0
    0.6349    1.4753    1.9779 C   0  0  0  0  0  0  0  0  0  0  0  0
    1.0068    0.9305    0.8243 C   0  0  0  0  0  0  0  0  0  0  0  0
    2.3940    0.7438    0.4205 C   0  0  0  0  0  0  0  0  0  0  0  0
    2.7659    0.1990   -0.7331 C   0  0  0  0  0  0  0  0  0  0  0  0
   -0.4086    1.5953    2.2383 H   0  0  0  0  0  0  0  0  0  0  0  0
    1.3668    1.8196    2.7003 H   0  0  0  0  0  0  0  0  0  0  0  0
    3.1510    1.0793    1.1243 H   0  0  0  0  0  0  0  0  0  0  0  0
    3.8093    0.0790   -0.9934 H   0  0  0  0  0  0  0  0  0  0  0  0
    2.0340   -0.1453   -1.4555 H   0  0  0  0  0  0  0  0  0  0  0  0
  1  2  3  0
  1  6  1  0
  2  3  1  0
  3  4  1  0
  3  8  1  0
  4  5  3  0
  5  9  1  0
  7 11  1  0
 10 11  2  3
 10 14  1  0
 10 15  1  0
 11 12  1  0
 12 13  2  3
 12 16  1  0
 13 17  1  0
 13 18  1  0
M  RAD  1   3   2
M  END
>  <reaction>  (8) 
rxn_1364

>  <mol_properties>  (8) 
{"1": {"label": "*0", "atom_type": "Ct"}, "2": {"label": "*1", "atom_type": "Cs"}, "6": {"label": "*2", "atom_type": "H0"}, "10": {"label": "*3", "atom_type": "Cd"}, "11": {"label": "*4", "atom_type": "Cd"}}

>  <type>  (8) 
unop_4

>  <geom_source>  (8) 
Heuristics

$$$$

     RDKit          3D

 18 16  0  0  0  0  0  0  0  0999 V2000
   -0.4126   -0.9296   -3.1174 C   0  0  0  0  0  0  0  0  0  0  0  0
   -0.4126   -0.9296   -1.9219 C   0  0  0  0  0  0  0  0  0  0  0  0
   -0.4126   -0.9296   -0.4589 C   0  0  0  0  0  3  0  0  0  0  0  0
   -1.7267   -0.6540    0.1223 C   0  0  0  0  0  0  0  0  0  0  0  0
   -2.8004   -0.4288    0.5972 C   0  0  0  0  0  0  0  0  0  0  0  0
   -0.4126   -0.9296   -4.1809 H   0  0  0  0  0  0  0  0  0  0  0  0
    0.4455   -0.0352   -0.0278 H   0  0  0  0  0  0  0  0  0  0  0  0
   -0.0573   -1.8995   -0.0997 H   0  0  0  0  0  0  0  0  0  0  0  0
   -3.7556   -0.2285    1.0196 H   0  0  0  0  0  0  0  0  0  0  0  0
    1.9901    1.5746   -0.4754 C   0  0  0  0  0  0  0  0  0  0  0  0
    1.2982    0.8535    0.4005 C   0  0  0  0  0  0  0  0  0  0  0  0
    1.4247    0.9853    1.8458 C   0  0  0  0  0  0  0  0  0  0  0  0
    0.7328    0.2642    2.7217 C   0  0  0  0  0  0  0  0  0  0  0  0
    1.8649    1.4441   -1.5423 H   0  0  0  0  0  0  0  0  0  0  0  0
    2.7063    2.3211   -0.1500 H   0  0  0  0  0  0  0  0  0  0  0  0
    2.1353    1.7259    2.2027 H   0  0  0  0  0  0  0  0  0  0  0  0
    0.8580    0.3947    3.7886 H   0  0  0  0  0  0  0  0  0  0  0  0
    0.0166   -0.4823    2.3963 H   0  0  0  0  0  0  0  0  0  0  0  0
  1  2  3  0
  1  6  1  0
  2  3  1  0
  3  4  1  0
  3  8  1  0
  4  5  3  0
  5  9  1  0
  7 11  1  0
 10 11  2  3
 10 14  1  0
 10 15  1  0
 11 12  1  0
 12 13  2  3
 12 16  1  0
 13 17  1  0
 13 18  1  0
M  RAD  1   3   2
M  END
>  <reaction>  (9) 
rxn_1364

>  <mol_properties>  (9) 
{"1": {"label": "*0", "atom_type": "Ct"}, "2": {"label": "*1", "atom_type": "Cs"}, "6": {"label": "*2", "atom_type": "H0"}, "10": {"label": "*3", "atom_type": "Cd"}, "11": {"label": "*4", "atom_type": "Cd"}}

>  <type>  (9) 
unop_5

>  <geom_source>  (9) 
Heuristics

$$$$

     RDKit          3D

 18 16  0  0  0  0  0  0  0  0999 V2000
   -0.6968   -0.7893   -2.8374 C   0  0  0  0  0  0  0  0  0  0  0  0
   -0.6968   -0.7893   -1.6419 C   0  0  0  0  0  0  0  0  0  0  0  0
   -0.6968   -0.7893   -0.1789 C   0  0  0  0  0  3  0  0  0  0  0  0
   -2.0108   -0.5137    0.4023 C   0  0  0  0  0  0  0  0  0  0  0  0
   -3.0845   -0.2885    0.8772 C   0  0  0  0  0  0  0  0  0  0  0  0
   -0.6968   -0.7893   -3.9009 H   0  0  0  0  0  0  0  0  0  0  0  0
    0.1614    0.1051    0.2522 H   0  0  0  0  0  0  0  0  0  0  0  0
   -0.3414   -1.7592    0.1803 H   0  0  0  0  0  0  0  0  0  0  0  0
   -4.0397   -0.0882    1.2996 H   0  0  0  0  0  0  0  0  0  0  0  0
    0.3763    1.8283    1.4946 C   0  0  0  0  0  0  0  0  0  0  0  0
    1.0141    0.9938    0.6805 C   0  0  0  0  0  0  0  0  0  0  0  0
    2.3791    0.5314    0.8931 C   0  0  0  0  0  0  0  0  0  0  0  0
    3.0169   -0.3031    0.0790 C   0  0  0  0  0  0  0  0  0  0  0  0
   -0.6391    2.1467    1.2985 H   0  0  0  0  0  0  0  0  0  0  0  0
    0.8532    2.2202    2.3862 H   0  0  0  0  0  0  0  0  0  0  0  0
    2.8837    0.9071    1.7791 H   0  0  0  0  0  0  0  0  0  0  0  0
    4.0323   -0.6215    0.2750 H   0  0  0  0  0  0  0  0  0  0  0  0
    2.5400   -0.6950   -0.8127 H   0  0  0  0  0  0  0  0  0  0  0  0
  1  2  3  0
  1  6  1  0
  2  3  1  0
  3  4  1  0
  3  8  1  0
  4  5  3  0
  5  9  1  0
  7 11  1  0
 10 11  2  3
 10 14  1  0
 10 15  1  0
 11 12  1  0
 12 13  2  3
 12 16  1  0
 13 17  1  0
 13 18  1  0
M  RAD  1   3   2
M  END
>  <reaction>  (10) 
rxn_1364

>  <mol_properties>  (10) 
{"1": {"label": "*0", "atom_type": "Ct"}, "2": {"label": "*1", "atom_type": "Cs"}, "6": {"label": "*2", "atom_type": "H0"}, "10": {"label": "*3", "atom_type": "Cd"}, "11": {"label": "*4", "atom_type": "Cd"}}

>  <type>  (10) 
unop_6

>  <geom_source>  (10) 
Heuristics

$$$$

     RDKit          3D

 18 16  0  0  0  0  0  0  0  0999 V2000
   -0.6312   -0.7835   -2.9795 C   0  0  0  0  0  0  0  0  0  0  0  0
   -0.6312   -0.7835   -1.7840 C   0  0  0  0  0  0  0  0  0  0  0  0
   -0.6312   -0.7835   -0.3210 C   0  0  0  0  0  3  0  0  0  0  0  0
   -1.9452   -0.5078    0.2601 C   0  0  0  0  0  0  0  0  0  0  0  0
   -3.0190   -0.2826    0.7350 C   0  0  0  0  0  0  0  0  0  0  0  0
   -0.6312   -0.7835   -4.0430 H   0  0  0  0  0  0  0  0  0  0  0  0
    0.2269    0.1109    0.1100 H   0  0  0  0  0  0  0  0  0  0  0  0
   -0.2758   -1.7533    0.0382 H   0  0  0  0  0  0  0  0  0  0  0  0
   -3.9742   -0.0823    1.1575 H   0  0  0  0  0  0  0  0  0  0  0  0
    0.3996    2.1129    0.7920 C   0  0  0  0  0  0  0  0  0  0  0  0
    1.0796    0.9997    0.5383 C   0  0  0  0  0  0  0  0  0  0  0  0
    2.1701    0.5036    1.3673 C   0  0  0  0  0  0  0  0  0  0  0  0
    2.8501   -0.6096    1.1136 C   0  0  0  0  0  0  0  0  0  0  0  0
   -0.4045    2.4453    0.1487 H   0  0  0  0  0  0  0  0  0  0  0  0
    0.6280    2.7283    1.6552 H   0  0  0  0  0  0  0  0  0  0  0  0
    2.4224    1.0994    2.2403 H   0  0  0  0  0  0  0  0  0  0  0  0
    3.6542   -0.9420    1.7568 H   0  0  0  0  0  0  0  0  0  0  0  0
    2.6217   -1.2250    0.2504 H   0  0  0  0  0  0  0  0  0  0  0  0
  1  2  3  0
  1  6  1  0
  2  3  1  0
  3  4  1  0
  3  8  1  0
  4  5  3  0
  5  9  1  0
  7 11  1  0
 10 11  2  3
 10 14  1  0
 10 15  1  0
 11 12  1  0
 12 13  2  3
 12 16  1  0
 13 17  1  0
 13 18  1  0
M  RAD  1   3   2
M  END
>  <reaction>  (11) 
rxn_1364

>  <mol_properties>  (11) 
{"1": {"label": "*0", "atom_type": "Ct"}, "2": {"label": "*1", "atom_type": "Cs"}, "6": {"label": "*2", "atom_type": "H0"}, "10": {"label": "*3", "atom_type": "Cd"}, "11": {"label": "*4", "atom_type": "Cd"}}

>  <type>  (11) 
unop_7

>  <geom_source>  (11) 
Heuristics

$$$$

     RDKit          3D

 18 16  0  0  0  0  0  0  0  0999 V2000
   -0.2607   -1.2077   -2.8374 C   0  0  0  0  0  0  0  0  0  0  0  0
   -0.2607   -1.2077   -1.6419 C   0  0  0  0  0  0  0  0  0  0  0  0
   -0.2607   -1.2077   -0.1789 C   0  0  0  0  0  3  0  0  0  0  0  0
   -1.5747   -0.9321    0.4023 C   0  0  0  0  0  0  0  0  0  0  0  0
   -2.6485   -0.7069    0.8772 C   0  0  0  0  0  0  0  0  0  0  0  0
   -0.2607   -1.2077   -3.9009 H   0  0  0  0  0  0  0  0  0  0  0  0
    0.5974   -0.3133    0.2522 H   0  0  0  0  0  0  0  0  0  0  0  0
    0.0947   -2.1776    0.1803 H   0  0  0  0  0  0  0  0  0  0  0  0
   -3.6037   -0.5065    1.2996 H   0  0  0  0  0  0  0  0  0  0  0  0
    2.3103   -0.0273    1.4946 C   0  0  0  0  0  0  0  0  0  0  0  0
    1.4501    0.5754    0.6805 C   0  0  0  0  0  0  0  0  0  0  0  0
    0.9316    1.9202    0.8931 C   0  0  0  0  0  0  0  0  0  0  0  0
    0.0714    2.5229    0.0790 C   0  0  0  0  0  0  0  0  0  0  0  0
    2.6705   -1.0287    1.2985 H   0  0  0  0  0  0  0  0  0  0  0  0
    2.6821    0.4655    2.3862 H   0  0  0  0  0  0  0  0  0  0  0  0
    1.2862    2.4399    1.7791 H   0  0  0  0  0  0  0  0  0  0  0  0
   -0.2887    3.5243    0.2750 H   0  0  0  0  0  0  0  0  0  0  0  0
   -0.3004    2.0301   -0.8127 H   0  0  0  0  0  0  0  0  0  0  0  0
  1  2  3  0
  1  6  1  0
  2  3  1  0
  3  4  1  0
  3  8  1  0
  4  5  3  0
  5  9  1  0
  7 11  1  0
 10 11  2  3
 10 14  1  0
 10 15  1  0
 11 12  1  0
 12 13  2  3
 12 16  1  0
 13 17  1  0
 13 18  1  0
M  RAD  1   3   2
M  END
>  <reaction>  (12) 
rxn_1364

>  <mol_properties>  (12) 
{"1": {"label": "*0", "atom_type": "Ct"}, "2": {"label": "*1", "atom_type": "Cs"}, "6": {"label": "*2", "atom_type": "H0"}, "10": {"label": "*3", "atom_type": "Cd"}, "11": {"label": "*4", "atom_type": "Cd"}}

>  <type>  (12) 
unop_8

>  <geom_source>  (12) 
Heuristics

$$$$

     RDKit          3D

 18 16  0  0  0  0  0  0  0  0999 V2000
   -0.6503   -0.9565   -2.5873 C   0  0  0  0  0  0  0  0  0  0  0  0
   -0.6503   -0.9565   -1.3918 C   0  0  0  0  0  0  0  0  0  0  0  0
   -0.6503   -0.9565    0.0712 C   0  0  0  0  0  3  0  0  0  0  0  0
   -1.9644   -0.6809    0.6523 C   0  0  0  0  0  0  0  0  0  0  0  0
   -3.0381   -0.4556    1.1272 C   0  0  0  0  0  0  0  0  0  0  0  0
   -0.6503   -0.9565   -3.6508 H   0  0  0  0  0  0  0  0  0  0  0  0
    0.2078   -0.0621    0.5022 H   0  0  0  0  0  0  0  0  0  0  0  0
   -0.2950   -1.9263    0.4304 H   0  0  0  0  0  0  0  0  0  0  0  0
   -3.9933   -0.2553    1.5497 H   0  0  0  0  0  0  0  0  0  0  0  0
    0.9997    1.1587    2.2158 C   0  0  0  0  0  0  0  0  0  0  0  0
    1.0605    0.8267    0.9305 C   0  0  0  0  0  0  0  0  0  0  0  0
    2.2117    1.0839    0.0755 C   0  0  0  0  0  0  0  0  0  0  0  0
    2.2724    0.7519   -1.2098 C   0  0  0  0  0  0  0  0  0  0  0  0
    0.1236    0.9486    2.8151 H   0  0  0  0  0  0  0  0  0  0  0  0
    1.8289    1.6533    2.7098 H   0  0  0  0  0  0  0  0  0  0  0  0
    3.0589    1.5788    0.5425 H   0  0  0  0  0  0  0  0  0  0  0  0
    3.1485    0.9620   -1.8091 H   0  0  0  0  0  0  0  0  0  0  0  0
    1.4433    0.2573   -1.7038 H   0  0  0  0  0  0  0  0  0  0  0  0
  1  2  3  0
  1  6  1  0
  2  3  1  0
  3  4  1  0
  3  8  1  0
  4  5  3  0
  5  9  1  0
  7 11  1  0
 10 11  2  3
 10 14  1  0
 10 15  1  0
 11 12  1  0
 12 13  2  3
 12 16  1  0
 13 17  1  0
 13 18  1  0
M  RAD  1   3   2
M  END
>  <reaction>  (13) 
rxn_1364

>  <mol_properties>  (13) 
{"1": {"label": "*0", "atom_type": "Ct"}, "2": {"label": "*1", "atom_type": "Cs"}, "6": {"label": "*2", "atom_type": "H0"}, "10": {"label": "*3", "atom_type": "Cd"}, "11": {"label": "*4", "atom_type": "Cd"}}

>  <type>  (13) 
unop_9

>  <geom_source>  (13) 
Heuristics

$$$$

     RDKit          3D

 18 16  0  0  0  0  0  0  0  0999 V2000
   -0.3236   -1.2176   -2.6935 C   0  0  0  0  0  0  0  0  0  0  0  0
   -0.3236   -1.2176   -1.4980 C   0  0  0  0  0  0  0  0  0  0  0  0
   -0.3236   -1.2176   -0.0350 C   0  0  0  0  0  3  0  0  0  0  0  0
   -1.6376   -0.9420    0.5461 C   0  0  0  0  0  0  0  0  0  0  0  0
   -2.7114   -0.7168    1.0210 C   0  0  0  0  0  0  0  0  0  0  0  0
   -0.3236   -1.2176   -3.7570 H   0  0  0  0  0  0  0  0  0  0  0  0
    0.5345   -0.3232    0.3960 H   0  0  0  0  0  0  0  0  0  0  0  0
    0.0317   -2.1875    0.3242 H   0  0  0  0  0  0  0  0  0  0  0  0
   -3.6666   -0.5165    1.4435 H   0  0  0  0  0  0  0  0  0  0  0  0
    1.9469    0.2165    1.9779 C   0  0  0  0  0  0  0  0  0  0  0  0
    1.3872    0.5655    0.8243 C   0  0  0  0  0  0  0  0  0  0  0  0
    1.1433    1.9439    0.4205 C   0  0  0  0  0  0  0  0  0  0  0  0
    0.5835    2.2929   -0.7331 C   0  0  0  0  0  0  0  0  0  0  0  0
    2.1099   -0.8211    2.2383 H   0  0  0  0  0  0  0  0  0  0  0  0
    2.2606    0.9620    2.7003 H   0  0  0  0  0  0  0  0  0  0  0  0
    1.4471    2.7141    1.1243 H   0  0  0  0  0  0  0  0  0  0  0  0
    0.4205    3.3305   -0.9934 H   0  0  0  0  0  0  0  0  0  0  0  0
    0.2698    1.5474   -1.4555 H   0  0  0  0  0  0  0  0  0  0  0  0
  1  2  3  0
  1  6  1  0
  2  3  1  0
  3  4  1  0
  3  8  1  0
  4  5  3  0
  5  9  1  0
  7 11  1  0
 10 11  2  3
 10 14  1  0
 10 15  1  0
 11 12  1  0
 12 13  2  3
 12 16  1  0
 13 17  1  0
 13 18  1  0
M  RAD  1   3   2
M  END
>  <reaction>  (14) 
rxn_1364

>  <mol_properties>  (14) 
{"1": {"label": "*0", "atom_type": "Ct"}, "2": {"label": "*1", "atom_type": "Cs"}, "6": {"label": "*2", "atom_type": "H0"}, "10": {"label": "*3", "atom_type": "Cd"}, "11": {"label": "*4", "atom_type": "Cd"}}

>  <type>  (14) 
unop_10

>  <geom_source>  (14) 
Heuristics

$$$$

     RDKit          3D

 18 16  0  0  0  0  0  0  0  0999 V2000
   -0.5265   -0.8360   -3.0815 C   0  0  0  0  0  0  0  0  0  0  0  0
   -0.5265   -0.8360   -1.8860 C   0  0  0  0  0  0  0  0  0  0  0  0
   -0.5265   -0.8360   -0.4230 C   0  0  0  0  0  3  0  0  0  0  0  0
   -1.8405   -0.5603    0.1582 C   0  0  0  0  0  0  0  0  0  0  0  0
   -2.9143   -0.3351    0.6331 C   0  0  0  0  0  0  0  0  0  0  0  0
   -0.5265   -0.8360   -4.1450 H   0  0  0  0  0  0  0  0  0  0  0  0
    0.3316    0.0584    0.0081 H   0  0  0  0  0  0  0  0  0  0  0  0
   -0.1711   -1.8058   -0.0638 H   0  0  0  0  0  0  0  0  0  0  0  0
   -3.8695   -0.1348    1.0555 H   0  0  0  0  0  0  0  0  0  0  0  0
    0.8978    2.1687   -0.0015 C   0  0  0  0  0  0  0  0  0  0  0  0
    1.1843    0.9472    0.4364 C   0  0  0  0  0  0  0  0  0  0  0  0
    1.8214    0.6686    1.7166 C   0  0  0  0  0  0  0  0  0  0  0  0
    2.1080   -0.5528    2.1545 C   0  0  0  0  0  0  0  0  0  0  0  0
    0.4233    2.3306   -0.9605 H   0  0  0  0  0  0  0  0  0  0  0  0
    1.1303    3.0480    0.5891 H   0  0  0  0  0  0  0  0  0  0  0  0
    2.0668    1.5304    2.3314 H   0  0  0  0  0  0  0  0  0  0  0  0
    2.5824   -0.7148    3.1134 H   0  0  0  0  0  0  0  0  0  0  0  0
    1.8755   -1.4321    1.5638 H   0  0  0  0  0  0  0  0  0  0  0  0
  1  2  3  0
  1  6  1  0
  2  3  1  0
  3  4  1  0
  3  8  1  0
  4  5  3  0
  5  9  1  0
  7 11  1  0
 10 11  2  3
 10 14  1  0
 10 15  1  0
 11 12  1  0
 12 13  2  3
 12 16  1  0
 13 17  1  0
 13 18  1  0
M  RAD  1   3   2
M  END
>  <reaction>  (15) 
rxn_1364

>  <mol_properties>  (15) 
{"1": {"label": "*0", "atom_type": "Ct"}, "2": {"label": "*1", "atom_type": "Cs"}, "6": {"label": "*2", "atom_type": "H0"}, "10": {"label": "*3", "atom_type": "Cd"}, "11": {"label": "*4", "atom_type": "Cd"}}

>  <type>  (15) 
unop_11

>  <geom_source>  (15) 
Heuristics

$$$$

     RDKit          3D

 18 16  0  0  0  0  0  0  0  0999 V2000
   -0.5496   -1.0724   -2.5483 C   0  0  0  0  0  0  0  0  0  0  0  0
   -0.5496   -1.0724   -1.3528 C   0  0  0  0  0  0  0  0  0  0  0  0
   -0.5496   -1.0724    0.1102 C   0  0  0  0  0  3  0  0  0  0  0  0
   -1.8637   -0.7968    0.6914 C   0  0  0  0  0  0  0  0  0  0  0  0
   -2.9374   -0.5716    1.1663 C   0  0  0  0  0  0  0  0  0  0  0  0
   -0.5496   -1.0724   -3.6117 H   0  0  0  0  0  0  0  0  0  0  0  0
    0.3085   -0.1780    0.5413 H   0  0  0  0  0  0  0  0  0  0  0  0
   -0.1943   -2.0423    0.4694 H   0  0  0  0  0  0  0  0  0  0  0  0
   -3.8926   -0.3713    1.5888 H   0  0  0  0  0  0  0  0  0  0  0  0
    1.3275    0.8841    2.2766 C   0  0  0  0  0  0  0  0  0  0  0  0
    1.1612    0.7107    0.9696 C   0  0  0  0  0  0  0  0  0  0  0  0
    1.8812    1.4612   -0.0506 C   0  0  0  0  0  0  0  0  0  0  0  0
    1.7149    1.2878   -1.3575 C   0  0  0  0  0  0  0  0  0  0  0  0
    0.7710    0.3041    3.0010 H   0  0  0  0  0  0  0  0  0  0  0  0
    2.0290    1.6152    2.6632 H   0  0  0  0  0  0  0  0  0  0  0  0
    2.5918    2.2018    0.3064 H   0  0  0  0  0  0  0  0  0  0  0  0
    2.2714    1.8678   -2.0820 H   0  0  0  0  0  0  0  0  0  0  0  0
    1.0134    0.5567   -1.7442 H   0  0  0  0  0  0  0  0  0  0  0  0
  1  2  3  0
  1  6  1  0
  2  3  1  0
  3  4  1  0
  3  8  1  0
  4  5  3  0
  5  9  1  0
  7 11  1  0
 10 11  2  3
 10 14  1  0
 10 15  1  0
 11 12  1  0
 12 13  2  3
 12 16  1  0
 13 17  1  0
 13 18  1  0
M  RAD  1   3   2
M  END
>  <reaction>  (16) 
rxn_1364

>  <mol_properties>  (16) 
{"1": {"label": "*0", "atom_type": "Ct"}, "2": {"label": "*1", "atom_type": "Cs"}, "6": {"label": "*2", "atom_type": "H0"}, "10": {"label": "*3", "atom_type": "Cd"}, "11": {"label": "*4", "atom_type": "Cd"}}

>  <type>  (16) 
unop_12

>  <geom_source>  (16) 
Heuristics

$$$$

     RDKit          3D

 18 16  0  0  0  0  0  0  0  0999 V2000
   -1.0799   -0.1990    0.1167 C   0  0  0  0  0  0  0  0  0  0  0  0
   -1.9132    0.9190   -0.3781 C   0  0  0  0  0  0  0  0  0  0  0  0
    1.3558    0.1054    0.9208 C   0  0  0  0  0  3  0  0  0  0  0  0
   -1.2996   -1.4893   -0.1401 C   0  0  0  0  0  0  0  0  0  0  0  0
   -2.9952    0.7846   -1.1471 C   0  0  0  0  0  0  0  0  0  0  0  0
    2.0281    1.2146    0.2414 C   0  0  0  0  0  0  0  0  0  0  0  0
    2.3024   -0.9911    1.1341 C   0  0  0  0  0  0  0  0  0  0  0  0
    2.5802    2.1291   -0.3178 C   0  0  0  0  0  0  0  0  0  0  0  0
    3.0805   -1.8950    1.3109 C   0  0  0  0  0  0  0  0  0  0  0  0
   -0.1262    0.0863    0.8078 H   0  0  0  0  0  0  0  0  0  0  0  0
   -1.6160    1.9194   -0.0900 H   0  0  0  0  0  0  0  0  0  0  0  0
   -2.1245   -1.8334   -0.7457 H   0  0  0  0  0  0  0  0  0  0  0  0
   -0.6295   -2.2331    0.2701 H   0  0  0  0  0  0  0  0  0  0  0  0
   -3.3606   -0.1753   -1.4797 H   0  0  0  0  0  0  0  0  0  0  0  0
   -3.5404    1.6661   -1.4588 H   0  0  0  0  0  0  0  0  0  0  0  0
    0.5096   -0.2517    0.2982 H   0  0  0  0  0  0  0  0  0  0  0  0
    3.0648    2.9317   -0.8087 H   0  0  0  0  0  0  0  0  0  0  0  0
    3.7636   -2.6883    1.4659 H   0  0  0  0  0  0  0  0  0  0  0  0
  1  4  2  3
  1  2  1  0
  1 10  1  0
  2  5  2  3
  2 11  1  0
  3  6  1  0
  3  7  1  0
  3 16  1  0
  4 12  1  0
  4 13  1  0
  5 14  1  0
  5 15  1  0
  6  8  3  0
  7  9  3  0
  8 17  1  0
  9 18  1  0
M  RAD  1   3   2
M  END
>  <reaction>  (17) 
rxn_1364

>  <mol_properties>  (17) 
{"1": {"label": "*0", "atom_type": "Ct"}, "2": {"label": "*1", "atom_type": "Cs"}, "6": {"label": "*2", "atom_type": "H0"}, "10": {"label": "*3", "atom_type": "Cd"}, "11": {"label": "*4", "atom_type": "Cd"}}

>  <type>  (17) 
unop_13

>  <geom_source>  (17) 
AutoTST

$$$$
