
     RDKit          3D

  7  6  0  0  0  0  0  0  0  0999 V2000
    1.6964   -0.0938    0.0583 C   0  0  0  0  0  0  0  0  0  0  0  0
    0.5019   -0.0278    0.0173 C   0  0  0  0  0  0  0  0  0  0  0  0
   -0.9505    0.0525   -0.0327 C   0  0  0  0  0  0  0  0  0  0  0  0
    2.7574   -0.1524    0.0947 H   0  0  0  0  0  0  0  0  0  0  0  0
   -1.2692    0.9972   -0.4754 H   0  0  0  0  0  0  0  0  0  0  0  0
   -1.3749   -0.0147    0.9700 H   0  0  0  0  0  0  0  0  0  0  0  0
   -1.3610   -0.7611   -0.6323 H   0  0  0  0  0  0  0  0  0  0  0  0
  1  2  3  0
  1  4  1  0
  2  3  1  0
  3  5  1  0
  3  6  1  0
  3  7  1  0
M  END
>  <reaction>  (1) 
rxn_1235

>  <mol_properties>  (1) 
{"2": {"label": "donator", "atom_type": "Cs"}, "4": {"label": "d_hydrogen", "atom_type": "H0"}}

>  <type>  (1) 
r1h

$$$$

     RDKit          3D

  5  4  0  0  0  0  0  0  0  0999 V2000
   -0.5642    0.0794    0.0348 C   0  0  0  0  0  3  0  0  0  0  0  0
    1.0624    0.5420    0.2853 S   0  0  0  0  0  0  0  0  0  0  0  0
   -1.3257    0.7631    0.3741 H   0  0  0  0  0  0  0  0  0  0  0  0
   -0.8236   -0.8519   -0.4401 H   0  0  0  0  0  0  0  0  0  0  0  0
    1.6511   -0.5325   -0.2540 H   0  0  0  0  0  0  0  0  0  0  0  0
  1  2  1  0
  1  3  1  0
  1  4  1  0
  2  5  1  0
M  RAD  1   1   2
M  END
>  <reaction>  (2) 
rxn_1235

>  <mol_properties>  (2) 
{"0": {"label": "acceptor", "atom_type": "Cs"}}

>  <type>  (2) 
r2

$$$$

     RDKit          3D

  6  5  0  0  0  0  0  0  0  0999 V2000
   -0.5072   -0.0291   -0.0097 C   0  0  0  0  0  0  0  0  0  0  0  0
    1.1321   -0.1527   -0.7687 S   0  0  0  0  0  0  0  0  0  0  0  0
   -0.6174   -0.7330    0.8127 H   0  0  0  0  0  0  0  0  0  0  0  0
   -0.5863    0.9827    0.3845 H   0  0  0  0  0  0  0  0  0  0  0  0
   -1.2962   -0.1800   -0.7434 H   0  0  0  0  0  0  0  0  0  0  0  0
    1.0312   -1.4237   -1.1764 H   0  0  0  0  0  0  0  0  0  0  0  0
  1  2  1  0
  1  3  1  0
  1  4  1  0
  1  5  1  0
  2  6  1  0
M  END
>  <reaction>  (3) 
rxn_1235

>  <mol_properties>  (3) 
{"0": {"label": "a_hydrogen", "atom_type": "H0"}, "1": {"label": "acceptor", "atom_type": "Cs"}}

>  <type>  (3) 
r2h

$$$$

     RDKit          3D

 12 10  0  0  0  0  0  0  0  0999 V2000
    0.2846   -1.6662   -1.9026 C   0  0  0  0  0  0  0  0  0  0  0  0
   -0.0659   -1.7648   -0.7555 C   0  0  0  0  0  0  0  0  0  0  0  0
   -0.4475   -1.7972    0.6134 C   0  0  0  0  0  0  0  0  0  0  0  0
    0.5796   -1.6140   -2.9228 H   0  0  0  0  0  0  0  0  0  0  0  0
   -0.0928   -0.6077    1.1129 H   0  0  0  0  0  0  0  0  0  0  0  0
    0.0955   -2.5163    1.2221 H   0  0  0  0  0  0  0  0  0  0  0  0
   -1.5211   -1.8220    0.7851 H   0  0  0  0  0  0  0  0  0  0  0  0
    0.3043    0.6361    1.4829 C   0  0  0  0  0  3  0  0  0  0  0  0
   -0.3770    1.7932    0.3442 S   0  0  0  0  0  0  0  0  0  0  0  0
   -0.1059    0.7926    2.4770 H   0  0  0  0  0  0  0  0  0  0  0  0
    1.3886    0.5619    1.4764 H   0  0  0  0  0  0  0  0  0  0  0  0
    0.2975    1.3744   -0.7353 H   0  0  0  0  0  0  0  0  0  0  0  0
  1  2  3  0
  1  4  1  0
  2  3  1  0
  3  5  1  0
  3  6  1  0
  3  7  1  0
  8  9  1  0
  8 10  1  0
  8 11  1  0
  9 12  1  0
M  RAD  1   8   2
M  END
>  <reaction>  (4) 
rxn_1235

>  <mol_properties>  (4) 
{"1": {"label": "*0", "atom_type": "Ct"}, "2": {"label": "*1", "atom_type": "Cs"}, "4": {"label": "*2", "atom_type": "H0"}, "7": {"label": "*3", "atom_type": "Cs"}, "8": {"label": "*4", "atom_type": "S2s"}}

>  <type>  (4) 
ts

$$$$

     RDKit          3D

 12 10  0  0  0  0  0  0  0  0999 V2000
    0.4131   -1.5002   -2.9364 C   0  0  0  0  0  0  0  0  0  0  0  0
    0.4131   -1.5002   -1.7393 C   0  0  0  0  0  0  0  0  0  0  0  0
    0.4131   -1.5002   -0.2839 C   0  0  0  0  0  3  0  0  0  0  0  0
    0.4131   -1.5002   -3.9996 H   0  0  0  0  0  0  0  0  0  0  0  0
    0.5245   -0.2806    0.1785 H   0  0  0  0  0  0  0  0  0  0  0  0
    1.2468   -2.0888    0.1015 H   0  0  0  0  0  0  0  0  0  0  0  0
   -0.5135   -1.9279    0.1015 H   0  0  0  0  0  0  0  0  0  0  0  0
    0.6357    0.9357    0.6397 C   0  0  0  0  0  0  0  0  0  0  0  0
   -0.7894    1.3867    1.6615 S   0  0  0  0  0  0  0  0  0  0  0  0
    1.2725    0.3094    1.2623 H   0  0  0  0  0  0  0  0  0  0  0  0
    1.2006    1.8149    0.3370 H   0  0  0  0  0  0  0  0  0  0  0  0
   -1.4238    2.1275    0.7446 H   0  0  0  0  0  0  0  0  0  0  0  0
  1  2  3  0
  1  4  1  0
  2  3  1  0
  3  6  1  0
  3  7  1  0
  5  8  1  0
  8  9  1  0
  8 10  1  0
  8 11  1  0
  9 12  1  0
M  RAD  1   3   2
M  END
>  <reaction>  (5) 
rxn_1235

>  <mol_properties>  (5) 
{"1": {"label": "*0", "atom_type": "Ct"}, "2": {"label": "*1", "atom_type": "Cs"}, "4": {"label": "*2", "atom_type": "H0"}, "7": {"label": "*3", "atom_type": "Cs"}, "8": {"label": "*4", "atom_type": "S2s"}}

>  <type>  (5) 
unop_1

>  <geom_source>  (5) 
Heuristics

$$$$

     RDKit          3D

 12 10  0  0  0  0  0  0  0  0999 V2000
    0.1447   -1.7778   -2.1310 C   0  0  0  0  0  0  0  0  0  0  0  0
    0.1447   -1.7778   -0.9340 C   0  0  0  0  0  0  0  0  0  0  0  0
    0.1447   -1.7778    0.5214 C   0  0  0  0  0  3  0  0  0  0  0  0
    0.1447   -1.7778   -3.1943 H   0  0  0  0  0  0  0  0  0  0  0  0
    0.2562   -0.5582    0.9838 H   0  0  0  0  0  0  0  0  0  0  0  0
    0.9784   -2.3663    0.9068 H   0  0  0  0  0  0  0  0  0  0  0  0
   -0.7819   -2.2055    0.9068 H   0  0  0  0  0  0  0  0  0  0  0  0
    0.3674    0.6582    1.4451 C   0  0  0  0  0  0  0  0  0  0  0  0
   -0.3691    1.8633    0.3121 S   0  0  0  0  0  0  0  0  0  0  0  0
   -0.3657    0.4908    2.2325 H   0  0  0  0  0  0  0  0  0  0  0  0
    1.2801    1.0432    1.8949 H   0  0  0  0  0  0  0  0  0  0  0  0
    0.6532    1.9279   -0.5496 H   0  0  0  0  0  0  0  0  0  0  0  0
  1  2  3  0
  1  4  1  0
  2  3  1  0
  3  6  1  0
  3  7  1  0
  5  8  1  0
  8  9  1  0
  8 10  1  0
  8 11  1  0
  9 12  1  0
M  RAD  1   3   2
M  END
>  <reaction>  (6) 
rxn_1235

>  <mol_properties>  (6) 
{"1": {"label": "*0", "atom_type": "Ct"}, "2": {"label": "*1", "atom_type": "Cs"}, "4": {"label": "*2", "atom_type": "H0"}, "7": {"label": "*3", "atom_type": "Cs"}, "8": {"label": "*4", "atom_type": "S2s"}}

>  <type>  (6) 
unop_2

>  <geom_source>  (6) 
Heuristics

$$$$

     RDKit          3D

 12 10  0  0  0  0  0  0  0  0999 V2000
    0.1959   -1.3968   -3.1529 C   0  0  0  0  0  0  0  0  0  0  0  0
    0.1959   -1.3968   -1.9559 C   0  0  0  0  0  0  0  0  0  0  0  0
    0.1959   -1.3968   -0.5004 C   0  0  0  0  0  3  0  0  0  0  0  0
    0.1959   -1.3968   -4.2162 H   0  0  0  0  0  0  0  0  0  0  0  0
    0.3074   -0.1772   -0.0380 H   0  0  0  0  0  0  0  0  0  0  0  0
    1.0296   -1.9854   -0.1151 H   0  0  0  0  0  0  0  0  0  0  0  0
   -0.7307   -1.8245   -0.1151 H   0  0  0  0  0  0  0  0  0  0  0  0
    0.4185    1.0391    0.4232 C   0  0  0  0  0  0  0  0  0  0  0  0
   -0.4118    1.2169    2.0224 S   0  0  0  0  0  0  0  0  0  0  0  0
    1.4390    0.7285    0.6412 H   0  0  0  0  0  0  0  0  0  0  0  0
    0.4494    1.9843   -0.1147 H   0  0  0  0  0  0  0  0  0  0  0  0
   -1.6070    1.5899    1.5488 H   0  0  0  0  0  0  0  0  0  0  0  0
  1  2  3  0
  1  4  1  0
  2  3  1  0
  3  6  1  0
  3  7  1  0
  5  8  1  0
  8  9  1  0
  8 10  1  0
  8 11  1  0
  9 12  1  0
M  RAD  1   3   2
M  END
>  <reaction>  (7) 
rxn_1235

>  <mol_properties>  (7) 
{"1": {"label": "*0", "atom_type": "Ct"}, "2": {"label": "*1", "atom_type": "Cs"}, "4": {"label": "*2", "atom_type": "H0"}, "7": {"label": "*3", "atom_type": "Cs"}, "8": {"label": "*4", "atom_type": "S2s"}}

>  <type>  (7) 
unop_3

>  <geom_source>  (7) 
Heuristics

$$$$

     RDKit          3D

 12 10  0  0  0  0  0  0  0  0999 V2000
   -0.7047   -1.6034   -2.3570 C   0  0  0  0  0  0  0  0  0  0  0  0
   -0.7047   -1.6034   -1.1600 C   0  0  0  0  0  0  0  0  0  0  0  0
   -0.7047   -1.6034    0.2955 C   0  0  0  0  0  3  0  0  0  0  0  0
   -0.7047   -1.6034   -3.4203 H   0  0  0  0  0  0  0  0  0  0  0  0
   -0.5932   -0.3838    0.7579 H   0  0  0  0  0  0  0  0  0  0  0  0
    0.1290   -2.1919    0.6808 H   0  0  0  0  0  0  0  0  0  0  0  0
   -1.6313   -2.0311    0.6808 H   0  0  0  0  0  0  0  0  0  0  0  0
   -0.4821    0.8326    1.2191 C   0  0  0  0  0  0  0  0  0  0  0  0
    1.0554    1.6110    0.6635 S   0  0  0  0  0  0  0  0  0  0  0  0
   -1.2054    1.6371    1.3416 H   0  0  0  0  0  0  0  0  0  0  0  0
   -0.3502    0.3336    2.1769 H   0  0  0  0  0  0  0  0  0  0  0  0
    1.7859    0.4927    0.5760 H   0  0  0  0  0  0  0  0  0  0  0  0
  1  2  3  0
  1  4  1  0
  2  3  1  0
  3  6  1  0
  3  7  1  0
  5  8  1  0
  8  9  1  0
  8 10  1  0
  8 11  1  0
  9 12  1  0
M  RAD  1   3   2
M  END
>  <reaction>  (8) 
rxn_1235

>  <mol_properties>  (8) 
{"1": {"label": "*0", "atom_type": "Ct"}, "2": {"label": "*1", "atom_type": "Cs"}, "4": {"label": "*2", "atom_type": "H0"}, "7": {"label": "*3", "atom_type": "Cs"}, "8": {"label": "*4", "atom_type": "S2s"}}

>  <type>  (8) 
unop_4

>  <geom_source>  (8) 
Heuristics

$$$$

     RDKit          3D

 12 10  0  0  0  0  0  0  0  0999 V2000
   -0.1090   -1.3319   -3.2359 C   0  0  0  0  0  0  0  0  0  0  0  0
   -0.1090   -1.3319   -2.0389 C   0  0  0  0  0  0  0  0  0  0  0  0
   -0.1090   -1.3319   -0.5834 C   0  0  0  0  0  3  0  0  0  0  0  0
   -0.1090   -1.3319   -4.2992 H   0  0  0  0  0  0  0  0  0  0  0  0
    0.0025   -0.1124   -0.1210 H   0  0  0  0  0  0  0  0  0  0  0  0
    0.7247   -1.9205   -0.1981 H   0  0  0  0  0  0  0  0  0  0  0  0
   -1.0356   -1.7596   -0.1981 H   0  0  0  0  0  0  0  0  0  0  0  0
    0.1136    1.1040    0.3402 C   0  0  0  0  0  0  0  0  0  0  0  0
    0.1156    1.1255    2.1507 S   0  0  0  0  0  0  0  0  0  0  0  0
    1.0751    1.5086    0.0284 H   0  0  0  0  0  0  0  0  0  0  0  0
   -0.6767    1.7337   -0.0630 H   0  0  0  0  0  0  0  0  0  0  0  0
   -1.1068    0.6086    2.3246 H   0  0  0  0  0  0  0  0  0  0  0  0
  1  2  3  0
  1  4  1  0
  2  3  1  0
  3  6  1  0
  3  7  1  0
  5  8  1  0
  8  9  1  0
  8 10  1  0
  8 11  1  0
  9 12  1  0
M  RAD  1   3   2
M  END
>  <reaction>  (9) 
rxn_1235

>  <mol_properties>  (9) 
{"1": {"label": "*0", "atom_type": "Ct"}, "2": {"label": "*1", "atom_type": "Cs"}, "4": {"label": "*2", "atom_type": "H0"}, "7": {"label": "*3", "atom_type": "Cs"}, "8": {"label": "*4", "atom_type": "S2s"}}

>  <type>  (9) 
unop_5

>  <geom_source>  (9) 
Heuristics

$$$$

     RDKit          3D

 12 10  0  0  0  0  0  0  0  0999 V2000
   -0.7729   -1.4826   -2.6543 C   0  0  0  0  0  0  0  0  0  0  0  0
   -0.7729   -1.4826   -1.4572 C   0  0  0  0  0  0  0  0  0  0  0  0
   -0.7729   -1.4826   -0.0018 C   0  0  0  0  0  3  0  0  0  0  0  0
   -0.7729   -1.4826   -3.7176 H   0  0  0  0  0  0  0  0  0  0  0  0
   -0.6614   -0.2631    0.4606 H   0  0  0  0  0  0  0  0  0  0  0  0
    0.0608   -2.0712    0.3836 H   0  0  0  0  0  0  0  0  0  0  0  0
   -1.6995   -1.9103    0.3836 H   0  0  0  0  0  0  0  0  0  0  0  0
   -0.5503    0.9533    0.9218 C   0  0  0  0  0  0  0  0  0  0  0  0
    1.1851    1.4145    1.1549 S   0  0  0  0  0  0  0  0  0  0  0  0
   -1.1048    1.8856    0.8288 H   0  0  0  0  0  0  0  0  0  0  0  0
   -0.9332    0.4042    1.7795 H   0  0  0  0  0  0  0  0  0  0  0  0
    1.6767    0.1727    1.2445 H   0  0  0  0  0  0  0  0  0  0  0  0
  1  2  3  0
  1  4  1  0
  2  3  1  0
  3  6  1  0
  3  7  1  0
  5  8  1  0
  8  9  1  0
  8 10  1  0
  8 11  1  0
  9 12  1  0
M  RAD  1   3   2
M  END
>  <reaction>  (10) 
rxn_1235

>  <mol_properties>  (10) 
{"1": {"label": "*0", "atom_type": "Ct"}, "2": {"label": "*1", "atom_type": "Cs"}, "4": {"label": "*2", "atom_type": "H0"}, "7": {"label": "*3", "atom_type": "Cs"}, "8": {"label": "*4", "atom_type": "S2s"}}

>  <type>  (10) 
unop_6

>  <geom_source>  (10) 
Heuristics

$$$$

     RDKit          3D

 12 10  0  0  0  0  0  0  0  0999 V2000
   -0.6717   -1.3798   -2.9495 C   0  0  0  0  0  0  0  0  0  0  0  0
   -0.6717   -1.3798   -1.7525 C   0  0  0  0  0  0  0  0  0  0  0  0
   -0.6717   -1.3798   -0.2971 C   0  0  0  0  0  3  0  0  0  0  0  0
   -0.6717   -1.3798   -4.0128 H   0  0  0  0  0  0  0  0  0  0  0  0
   -0.5602   -0.1603    0.1654 H   0  0  0  0  0  0  0  0  0  0  0  0
    0.1620   -1.9684    0.0883 H   0  0  0  0  0  0  0  0  0  0  0  0
   -1.5983   -1.8075    0.0883 H   0  0  0  0  0  0  0  0  0  0  0  0
   -0.4490    1.0561    0.6266 C   0  0  0  0  0  0  0  0  0  0  0  0
    1.0342    1.2413    1.6484 S   0  0  0  0  0  0  0  0  0  0  0  0
   -0.7178    2.0571    0.2930 H   0  0  0  0  0  0  0  0  0  0  0  0
   -1.2773    0.6461    1.2007 H   0  0  0  0  0  0  0  0  0  0  0  0
    1.1935   -0.0538    1.9468 H   0  0  0  0  0  0  0  0  0  0  0  0
  1  2  3  0
  1  4  1  0
  2  3  1  0
  3  6  1  0
  3  7  1  0
  5  8  1  0
  8  9  1  0
  8 10  1  0
  8 11  1  0
  9 12  1  0
M  RAD  1   3   2
M  END
>  <reaction>  (11) 
rxn_1235

>  <mol_properties>  (11) 
{"1": {"label": "*0", "atom_type": "Ct"}, "2": {"label": "*1", "atom_type": "Cs"}, "4": {"label": "*2", "atom_type": "H0"}, "7": {"label": "*3", "atom_type": "Cs"}, "8": {"label": "*4", "atom_type": "S2s"}}

>  <type>  (11) 
unop_7

>  <geom_source>  (11) 
Heuristics

$$$$

     RDKit          3D

 12 10  0  0  0  0  0  0  0  0999 V2000
    0.4836   -1.6185   -2.6413 C   0  0  0  0  0  0  0  0  0  0  0  0
    0.4836   -1.6185   -1.4442 C   0  0  0  0  0  0  0  0  0  0  0  0
    0.4836   -1.6185    0.0112 C   0  0  0  0  0  3  0  0  0  0  0  0
    0.4836   -1.6185   -3.7045 H   0  0  0  0  0  0  0  0  0  0  0  0
    0.5950   -0.3989    0.4736 H   0  0  0  0  0  0  0  0  0  0  0  0
    1.3173   -2.2071    0.3966 H   0  0  0  0  0  0  0  0  0  0  0  0
   -0.4430   -2.0462    0.3966 H   0  0  0  0  0  0  0  0  0  0  0  0
    0.7062    0.8174    0.9348 C   0  0  0  0  0  0  0  0  0  0  0  0
   -0.9167    1.5856    1.1679 S   0  0  0  0  0  0  0  0  0  0  0  0
    0.8576    0.1575    1.7875 H   0  0  0  0  0  0  0  0  0  0  0  0
    1.4995    1.5619    0.9252 H   0  0  0  0  0  0  0  0  0  0  0  0
   -0.9098    2.3301    0.0554 H   0  0  0  0  0  0  0  0  0  0  0  0
  1  2  3  0
  1  4  1  0
  2  3  1  0
  3  6  1  0
  3  7  1  0
  5  8  1  0
  8  9  1  0
  8 10  1  0
  8 11  1  0
  9 12  1  0
M  RAD  1   3   2
M  END
>  <reaction>  (12) 
rxn_1235

>  <mol_properties>  (12) 
{"1": {"label": "*0", "atom_type": "Ct"}, "2": {"label": "*1", "atom_type": "Cs"}, "4": {"label": "*2", "atom_type": "H0"}, "7": {"label": "*3", "atom_type": "Cs"}, "8": {"label": "*4", "atom_type": "S2s"}}

>  <type>  (12) 
unop_8

>  <geom_source>  (12) 
Heuristics

$$$$

     RDKit          3D

 12 10  0  0  0  0  0  0  0  0999 V2000
   -0.4859   -1.7099   -2.1374 C   0  0  0  0  0  0  0  0  0  0  0  0
   -0.4859   -1.7099   -0.9404 C   0  0  0  0  0  0  0  0  0  0  0  0
   -0.4859   -1.7099    0.5151 C   0  0  0  0  0  3  0  0  0  0  0  0
   -0.4859   -1.7099   -3.2007 H   0  0  0  0  0  0  0  0  0  0  0  0
   -0.3744   -0.4903    0.9775 H   0  0  0  0  0  0  0  0  0  0  0  0
    0.3479   -2.2984    0.9004 H   0  0  0  0  0  0  0  0  0  0  0  0
   -1.4124   -2.1376    0.9004 H   0  0  0  0  0  0  0  0  0  0  0  0
   -0.2632    0.7261    1.4387 C   0  0  0  0  0  0  0  0  0  0  0  0
    0.6795    1.7778    0.3057 S   0  0  0  0  0  0  0  0  0  0  0  0
   -1.1183    1.3163    1.7641 H   0  0  0  0  0  0  0  0  0  0  0  0
    0.3264    0.4560    2.3123 H   0  0  0  0  0  0  0  0  0  0  0  0
    1.6505    0.8982    0.0313 H   0  0  0  0  0  0  0  0  0  0  0  0
  1  2  3  0
  1  4  1  0
  2  3  1  0
  3  6  1  0
  3  7  1  0
  5  8  1  0
  8  9  1  0
  8 10  1  0
  8 11  1  0
  9 12  1  0
M  RAD  1   3   2
M  END
>  <reaction>  (13) 
rxn_1235

>  <mol_properties>  (13) 
{"1": {"label": "*0", "atom_type": "Ct"}, "2": {"label": "*1", "atom_type": "Cs"}, "4": {"label": "*2", "atom_type": "H0"}, "7": {"label": "*3", "atom_type": "Cs"}, "8": {"label": "*4", "atom_type": "S2s"}}

>  <type>  (13) 
unop_9

>  <geom_source>  (13) 
Heuristics

$$$$

     RDKit          3D

 12 10  0  0  0  0  0  0  0  0999 V2000
    0.3859   -1.7205   -2.3462 C   0  0  0  0  0  0  0  0  0  0  0  0
    0.3859   -1.7205   -1.1492 C   0  0  0  0  0  0  0  0  0  0  0  0
    0.3859   -1.7205    0.3063 C   0  0  0  0  0  3  0  0  0  0  0  0
    0.3859   -1.7205   -3.4095 H   0  0  0  0  0  0  0  0  0  0  0  0
    0.4973   -0.5009    0.7687 H   0  0  0  0  0  0  0  0  0  0  0  0
    1.2196   -2.3090    0.6916 H   0  0  0  0  0  0  0  0  0  0  0  0
   -0.5407   -2.1482    0.6916 H   0  0  0  0  0  0  0  0  0  0  0  0
    0.6085    0.7155    1.2299 C   0  0  0  0  0  0  0  0  0  0  0  0
   -0.7624    1.7597    0.6743 S   0  0  0  0  0  0  0  0  0  0  0  0
    0.2667    0.2186    2.1364 H   0  0  0  0  0  0  0  0  0  0  0  0
    1.4880    1.3097    1.4688 H   0  0  0  0  0  0  0  0  0  0  0  0
   -0.1595    2.2630   -0.4097 H   0  0  0  0  0  0  0  0  0  0  0  0
  1  2  3  0
  1  4  1  0
  2  3  1  0
  3  6  1  0
  3  7  1  0
  5  8  1  0
  8  9  1  0
  8 10  1  0
  8 11  1  0
  9 12  1  0
M  RAD  1   3   2
M  END
>  <reaction>  (14) 
rxn_1235

>  <mol_properties>  (14) 
{"1": {"label": "*0", "atom_type": "Ct"}, "2": {"label": "*1", "atom_type": "Cs"}, "4": {"label": "*2", "atom_type": "H0"}, "7": {"label": "*3", "atom_type": "Cs"}, "8": {"label": "*4", "atom_type": "S2s"}}

>  <type>  (14) 
unop_10

>  <geom_source>  (14) 
Heuristics

$$$$

     RDKit          3D

 12 10  0  0  0  0  0  0  0  0999 V2000
   -0.4275   -1.3238   -3.1628 C   0  0  0  0  0  0  0  0  0  0  0  0
   -0.4275   -1.3238   -1.9658 C   0  0  0  0  0  0  0  0  0  0  0  0
   -0.4275   -1.3238   -0.5104 C   0  0  0  0  0  3  0  0  0  0  0  0
   -0.4275   -1.3238   -4.2261 H   0  0  0  0  0  0  0  0  0  0  0  0
   -0.3161   -0.1042   -0.0480 H   0  0  0  0  0  0  0  0  0  0  0  0
    0.4062   -1.9124   -0.1250 H   0  0  0  0  0  0  0  0  0  0  0  0
   -1.3541   -1.7515   -0.1250 H   0  0  0  0  0  0  0  0  0  0  0  0
   -0.2049    1.1122    0.4133 C   0  0  0  0  0  0  0  0  0  0  0  0
    0.6439    1.1365    2.0124 S   0  0  0  0  0  0  0  0  0  0  0  0
    0.0671    2.0377   -0.0916 H   0  0  0  0  0  0  0  0  0  0  0  0
   -1.2854    1.0880    0.5382 H   0  0  0  0  0  0  0  0  0  0  0  0
    0.1939   -0.0430    2.4576 H   0  0  0  0  0  0  0  0  0  0  0  0
  1  2  3  0
  1  4  1  0
  2  3  1  0
  3  6  1  0
  3  7  1  0
  5  8  1  0
  8  9  1  0
  8 10  1  0
  8 11  1  0
  9 12  1  0
M  RAD  1   3   2
M  END
>  <reaction>  (15) 
rxn_1235

>  <mol_properties>  (15) 
{"1": {"label": "*0", "atom_type": "Ct"}, "2": {"label": "*1", "atom_type": "Cs"}, "4": {"label": "*2", "atom_type": "H0"}, "7": {"label": "*3", "atom_type": "Cs"}, "8": {"label": "*4", "atom_type": "S2s"}}

>  <type>  (15) 
unop_11

>  <geom_source>  (15) 
Heuristics

$$$$

     RDKit          3D

 12 10  0  0  0  0  0  0  0  0999 V2000
   -0.1748   -1.7739   -2.0545 C   0  0  0  0  0  0  0  0  0  0  0  0
   -0.1748   -1.7739   -0.8575 C   0  0  0  0  0  0  0  0  0  0  0  0
   -0.1748   -1.7739    0.5979 C   0  0  0  0  0  3  0  0  0  0  0  0
   -0.1748   -1.7739   -3.1178 H   0  0  0  0  0  0  0  0  0  0  0  0
   -0.0634   -0.5543    1.0604 H   0  0  0  0  0  0  0  0  0  0  0  0
    0.6589   -2.3625    0.9833 H   0  0  0  0  0  0  0  0  0  0  0  0
   -1.1014   -2.2016    0.9833 H   0  0  0  0  0  0  0  0  0  0  0  0
    0.0478    0.6620    1.5216 C   0  0  0  0  0  0  0  0  0  0  0  0
    0.1582    1.8699    0.1772 S   0  0  0  0  0  0  0  0  0  0  0  0
   -0.8543    0.9071    2.0798 H   0  0  0  0  0  0  0  0  0  0  0  0
    0.9023    0.7348    2.1911 H   0  0  0  0  0  0  0  0  0  0  0  0
    1.2913    1.4100   -0.3671 H   0  0  0  0  0  0  0  0  0  0  0  0
  1  2  3  0
  1  4  1  0
  2  3  1  0
  3  6  1  0
  3  7  1  0
  5  8  1  0
  8  9  1  0
  8 10  1  0
  8 11  1  0
  9 12  1  0
M  RAD  1   3   2
M  END
>  <reaction>  (16) 
rxn_1235

>  <mol_properties>  (16) 
{"1": {"label": "*0", "atom_type": "Ct"}, "2": {"label": "*1", "atom_type": "Cs"}, "4": {"label": "*2", "atom_type": "H0"}, "7": {"label": "*3", "atom_type": "Cs"}, "8": {"label": "*4", "atom_type": "S2s"}}

>  <type>  (16) 
unop_12

>  <geom_source>  (16) 
Heuristics

$$$$

     RDKit          3D

 12 10  0  0  0  0  0  0  0  0999 V2000
   -2.7619    0.4938    0.8845 S   0  0  0  0  0  0  0  0  0  0  0  0
   -1.3954    0.6481   -0.2993 C   0  0  0  0  0  0  0  0  0  0  0  0
    0.7145   -0.8852   -0.3073 C   0  0  0  0  0  3  0  0  0  0  0  0
    1.8193   -0.0990    0.2424 C   0  0  0  0  0  0  0  0  0  0  0  0
    2.7293    0.5489    0.6953 C   0  0  0  0  0  0  0  0  0  0  0  0
   -1.7723    0.4721   -1.3281 H   0  0  0  0  0  0  0  0  0  0  0  0
   -0.9653    1.6686   -0.2347 H   0  0  0  0  0  0  0  0  0  0  0  0
   -0.4514   -0.2495   -0.0110 H   0  0  0  0  0  0  0  0  0  0  0  0
    0.8307   -0.9683   -1.4076 H   0  0  0  0  0  0  0  0  0  0  0  0
    0.7217   -1.8992    0.1429 H   0  0  0  0  0  0  0  0  0  0  0  0
   -2.9975   -0.8480    0.5300 H   0  0  0  0  0  0  0  0  0  0  0  0
    3.5283    1.1176    1.0930 H   0  0  0  0  0  0  0  0  0  0  0  0
  1  2  1  0
  1 11  1  0
  2  6  1  0
  2  7  1  0
  2  8  1  0
  3  4  1  0
  3  9  1  0
  3 10  1  0
  4  5  3  0
  5 12  1  0
M  RAD  1   3   2
M  END
>  <reaction>  (17) 
rxn_1235

>  <mol_properties>  (17) 
{"1": {"label": "*0", "atom_type": "Ct"}, "2": {"label": "*1", "atom_type": "Cs"}, "4": {"label": "*2", "atom_type": "H0"}, "7": {"label": "*3", "atom_type": "Cs"}, "8": {"label": "*4", "atom_type": "S2s"}}

>  <type>  (17) 
unop_13

>  <geom_source>  (17) 
AutoTST

$$$$
