
     RDKit          3D

 12 11  0  0  0  0  0  0  0  0999 V2000
    2.1696    0.6854    1.1310 C   0  0  0  0  0  0  0  0  0  0  0  0
    1.2518    0.4145    0.4134 C   0  0  0  0  0  0  0  0  0  0  0  0
    0.1391    0.0443   -0.4683 C   0  0  0  0  0  0  0  0  0  0  0  0
   -0.2054   -1.4492   -0.3339 C   0  0  0  0  0  0  0  0  0  0  0  0
   -1.0375    0.8853   -0.2222 C   0  0  0  0  0  0  0  0  0  0  0  0
   -2.0160    1.5463   -0.0311 C   0  0  0  0  0  0  0  0  0  0  0  0
    2.9819    0.9356    1.7702 H   0  0  0  0  0  0  0  0  0  0  0  0
    0.4629    0.2285   -1.4981 H   0  0  0  0  0  0  0  0  0  0  0  0
   -0.5327   -1.6703    0.6812 H   0  0  0  0  0  0  0  0  0  0  0  0
    0.6727   -2.0535   -0.5593 H   0  0  0  0  0  0  0  0  0  0  0  0
   -1.0064   -1.7081   -1.0256 H   0  0  0  0  0  0  0  0  0  0  0  0
   -2.8802    2.1413    0.1426 H   0  0  0  0  0  0  0  0  0  0  0  0
  1  2  3  0
  1  7  1  0
  2  3  1  0
  3  4  1  0
  3  5  1  0
  3  8  1  0
  4  9  1  0
  4 10  1  0
  4 11  1  0
  5  6  3  0
  6 12  1  0
M  END
>  <reaction>  (1) 
rxn_1414

>  <mol_properties>  (1) 
{"2": {"label": "donator", "atom_type": "Cs"}, "7": {"label": "d_hydrogen", "atom_type": "H0"}}

>  <type>  (1) 
r1h

$$$$

     RDKit          3D

  6  5  0  0  0  0  0  0  0  0999 V2000
   -0.7309   -0.0987    0.0327 C   0  0  0  0  0  0  0  0  0  0  0  0
    0.6208    0.0065   -0.0096 C   0  0  0  0  0  0  0  0  0  0  0  0
    1.6572   -1.2972    0.2837 S   0  0  0  0  0  1  0  0  0  0  0  0
   -1.3651    0.7588   -0.1608 H   0  0  0  0  0  0  0  0  0  0  0  0
   -1.2044   -1.0453    0.2616 H   0  0  0  0  0  0  0  0  0  0  0  0
    1.0609    0.9725   -0.2426 H   0  0  0  0  0  0  0  0  0  0  0  0
  1  2  2  3
  1  4  1  0
  1  5  1  0
  2  3  1  0
  2  6  1  0
M  RAD  1   3   2
M  END
>  <reaction>  (2) 
rxn_1414

>  <mol_properties>  (2) 
{"0": {"label": "acceptor", "atom_type": "Cs"}}

>  <type>  (2) 
r2

$$$$

     RDKit          3D

  7  6  0  0  0  0  0  0  0  0999 V2000
   -0.6782    0.0507    0.0301 C   0  0  0  0  0  0  0  0  0  0  0  0
    0.8092    0.0996    0.0213 C   0  0  0  0  0  0  0  0  0  0  0  0
    1.7473    0.7521    1.1507 S   0  0  0  0  0  0  0  0  0  0  0  0
   -1.0667    0.5456   -0.8653 H   0  0  0  0  0  0  0  0  0  0  0  0
   -1.0112   -0.9904   -0.0239 H   0  0  0  0  0  0  0  0  0  0  0  0
   -1.0920    0.5225    0.9188 H   0  0  0  0  0  0  0  0  0  0  0  0
    1.2740   -0.3620   -0.8520 H   0  0  0  0  0  0  0  0  0  0  0  0
  1  2  1  0
  1  4  1  0
  1  5  1  0
  1  6  1  0
  2  3  2  0
  2  7  1  0
M  END
>  <reaction>  (3) 
rxn_1414

>  <mol_properties>  (3) 
{"0": {"label": "a_hydrogen", "atom_type": "H0"}, "1": {"label": "acceptor", "atom_type": "Cs"}}

>  <type>  (3) 
r2h

$$$$

     RDKit          3D

 18 16  0  0  0  0  0  0  0  0999 V2000
   -1.3487   -1.3838   -2.8071 C   0  0  0  0  0  0  0  0  0  0  0  0
   -1.4087   -0.8659   -1.7265 C   0  0  0  0  0  0  0  0  0  0  0  0
   -1.4185   -0.2134   -0.4495 C   0  0  0  0  0  3  0  0  0  0  0  0
   -1.8297    1.2499   -0.4434 C   0  0  0  0  0  0  0  0  0  0  0  0
   -1.8872   -0.9947    0.6540 C   0  0  0  0  0  0  0  0  0  0  0  0
   -2.1929   -1.6091    1.6387 C   0  0  0  0  0  0  0  0  0  0  0  0
   -1.3139   -1.8504   -3.7624 H   0  0  0  0  0  0  0  0  0  0  0  0
   -0.1113   -0.1277   -0.1295 H   0  0  0  0  0  0  0  0  0  0  0  0
   -2.9049    1.3413   -0.6062 H   0  0  0  0  0  0  0  0  0  0  0  0
   -1.3108    1.7868   -1.2367 H   0  0  0  0  0  0  0  0  0  0  0  0
   -1.5798    1.6987    0.5180 H   0  0  0  0  0  0  0  0  0  0  0  0
   -2.4905   -2.1555    2.5014 H   0  0  0  0  0  0  0  0  0  0  0  0
    1.1673    0.0907    0.2262 C   0  0  0  0  0  0  0  0  0  0  0  0
    1.1672   -0.1055    1.6363 C   0  0  0  0  0  0  0  0  0  0  0  0
    0.8704    1.0665    2.7441 S   0  0  0  0  0  0  0  0  0  0  0  0
    1.6449   -0.6688   -0.3880 H   0  0  0  0  0  0  0  0  0  0  0  0
    1.2729    1.1134   -0.1251 H   0  0  0  0  0  0  0  0  0  0  0  0
    1.3262   -1.1263    1.9801 H   0  0  0  0  0  0  0  0  0  0  0  0
  1  2  3  0
  1  7  1  0
  2  3  1  0
  3  4  1  0
  3  5  1  0
  4  9  1  0
  4 10  1  0
  4 11  1  0
  5  6  3  0
  6 12  1  0
  8 13  1  0
 13 14  1  0
 13 16  1  0
 13 17  1  0
 14 15  2  0
 14 18  1  0
M  RAD  1   3   2
M  END
>  <reaction>  (4) 
rxn_1414

>  <mol_properties>  (4) 
{"1": {"label": "*4", "atom_type": "Ct"}, "2": {"label": "*3", "atom_type": "Cs"}, "7": {"label": "*2", "atom_type": "H0"}, "12": {"label": "*1", "atom_type": "Cs"}, "13": {"label": "*0", "atom_type": "CS"}}

>  <type>  (4) 
ts

$$$$

     RDKit          3D

 18 16  0  0  0  0  0  0  0  0999 V2000
   -1.2745   -0.3849   -3.1607 C   0  0  0  0  0  0  0  0  0  0  0  0
   -1.2745   -0.3849   -1.9645 C   0  0  0  0  0  0  0  0  0  0  0  0
   -1.2745   -0.3449   -0.4979 C   0  0  0  0  0  3  0  0  0  0  0  0
   -1.9126    0.9544    0.0241 C   0  0  0  0  0  0  0  0  0  0  0  0
   -1.9364   -1.5261    0.0668 C   0  0  0  0  0  0  0  0  0  0  0  0
   -2.4846   -2.4714    0.5533 C   0  0  0  0  0  0  0  0  0  0  0  0
   -1.2745   -0.3849   -4.2241 H   0  0  0  0  0  0  0  0  0  0  0  0
   -0.0209   -0.3721   -0.1048 H   0  0  0  0  0  0  0  0  0  0  0  0
   -2.9558    1.0116   -0.2837 H   0  0  0  0  0  0  0  0  0  0  0  0
   -1.3800    1.8158   -0.3776 H   0  0  0  0  0  0  0  0  0  0  0  0
   -1.8654    0.9788    1.1123 H   0  0  0  0  0  0  0  0  0  0  0  0
   -2.9720   -3.3118    0.9858 H   0  0  0  0  0  0  0  0  0  0  0  0
    1.2319   -0.3993    0.2881 C   0  0  0  0  0  0  0  0  0  0  0  0
    1.5353    0.8282    1.0728 C   0  0  0  0  0  0  0  0  0  0  0  0
    2.9945    1.4279    1.3767 S   0  0  0  0  0  0  0  0  0  0  0  0
    0.6700   -1.1028    0.9102 H   0  0  0  0  0  0  0  0  0  0  0  0
    2.1376   -0.8772   -0.0794 H   0  0  0  0  0  0  0  0  0  0  0  0
    0.6575    1.3456    1.4646 H   0  0  0  0  0  0  0  0  0  0  0  0
  1  2  3  0
  1  7  1  0
  2  3  1  0
  3  4  1  0
  3  5  1  0
  4  9  1  0
  4 10  1  0
  4 11  1  0
  5  6  3  0
  6 12  1  0
  8 13  1  0
 13 14  1  0
 13 16  1  0
 13 17  1  0
 14 15  2  0
 14 18  1  0
M  RAD  1   3   2
M  END
>  <reaction>  (5) 
rxn_1414

>  <mol_properties>  (5) 
{"1": {"label": "*4", "atom_type": "Ct"}, "2": {"label": "*3", "atom_type": "Cs"}, "7": {"label": "*2", "atom_type": "H0"}, "12": {"label": "*1", "atom_type": "Cs"}, "13": {"label": "*0", "atom_type": "CS"}}

>  <type>  (5) 
unop_1

>  <geom_source>  (5) 
Heuristics

$$$$

     RDKit          3D

 18 16  0  0  0  0  0  0  0  0999 V2000
   -1.4579    0.0508   -2.3842 C   0  0  0  0  0  0  0  0  0  0  0  0
   -1.4579    0.0508   -1.1880 C   0  0  0  0  0  0  0  0  0  0  0  0
   -1.4579    0.0909    0.2785 C   0  0  0  0  0  3  0  0  0  0  0  0
   -2.0959    1.3901    0.8005 C   0  0  0  0  0  0  0  0  0  0  0  0
   -2.1197   -1.0904    0.8433 C   0  0  0  0  0  0  0  0  0  0  0  0
   -2.6680   -2.0356    1.3298 C   0  0  0  0  0  0  0  0  0  0  0  0
   -1.4579    0.0508   -3.4477 H   0  0  0  0  0  0  0  0  0  0  0  0
   -0.2043    0.0636    0.6716 H   0  0  0  0  0  0  0  0  0  0  0  0
   -3.1392    1.4474    0.4927 H   0  0  0  0  0  0  0  0  0  0  0  0
   -1.5633    2.2515    0.3988 H   0  0  0  0  0  0  0  0  0  0  0  0
   -2.0487    1.4145    1.8887 H   0  0  0  0  0  0  0  0  0  0  0  0
   -3.1554   -2.8761    1.7623 H   0  0  0  0  0  0  0  0  0  0  0  0
    1.0485    0.0364    1.0645 C   0  0  0  0  0  0  0  0  0  0  0  0
    1.9078    0.6839    0.0364 C   0  0  0  0  0  0  0  0  0  0  0  0
    3.3595    0.1881   -0.4411 S   0  0  0  0  0  0  0  0  0  0  0  0
    0.8305    0.7516    1.8637 H   0  0  0  0  0  0  0  0  0  0  0  0
    1.5199   -0.8499    1.4840 H   0  0  0  0  0  0  0  0  0  0  0  0
    1.4785    1.5799   -0.4159 H   0  0  0  0  0  0  0  0  0  0  0  0
  1  2  3  0
  1  7  1  0
  2  3  1  0
  3  4  1  0
  3  5  1  0
  4  9  1  0
  4 10  1  0
  4 11  1  0
  5  6  3  0
  6 12  1  0
  8 13  1  0
 13 14  1  0
 13 16  1  0
 13 17  1  0
 14 15  2  0
 14 18  1  0
M  RAD  1   3   2
M  END
>  <reaction>  (6) 
rxn_1414

>  <mol_properties>  (6) 
{"1": {"label": "*4", "atom_type": "Ct"}, "2": {"label": "*3", "atom_type": "Cs"}, "7": {"label": "*2", "atom_type": "H0"}, "12": {"label": "*1", "atom_type": "Cs"}, "13": {"label": "*0", "atom_type": "CS"}}

>  <type>  (6) 
unop_2

>  <geom_source>  (6) 
Heuristics

$$$$

     RDKit          3D

 18 16  0  0  0  0  0  0  0  0999 V2000
   -1.1833   -0.2674   -3.3705 C   0  0  0  0  0  0  0  0  0  0  0  0
   -1.1833   -0.2674   -2.1744 C   0  0  0  0  0  0  0  0  0  0  0  0
   -1.1833   -0.2273   -0.7078 C   0  0  0  0  0  3  0  0  0  0  0  0
   -1.8213    1.0719   -0.1858 C   0  0  0  0  0  0  0  0  0  0  0  0
   -1.8452   -1.4086   -0.1430 C   0  0  0  0  0  0  0  0  0  0  0  0
   -2.3934   -2.3538    0.3435 C   0  0  0  0  0  0  0  0  0  0  0  0
   -1.1833   -0.2674   -4.4340 H   0  0  0  0  0  0  0  0  0  0  0  0
    0.0703   -0.2546   -0.3147 H   0  0  0  0  0  0  0  0  0  0  0  0
   -2.8646    1.1292   -0.4936 H   0  0  0  0  0  0  0  0  0  0  0  0
   -1.2887    1.9333   -0.5875 H   0  0  0  0  0  0  0  0  0  0  0  0
   -1.7742    1.0963    0.9024 H   0  0  0  0  0  0  0  0  0  0  0  0
   -2.8808   -3.1943    0.7760 H   0  0  0  0  0  0  0  0  0  0  0  0
    1.3231   -0.2818    0.0782 C   0  0  0  0  0  0  0  0  0  0  0  0
    1.4578    0.4510    1.3665 C   0  0  0  0  0  0  0  0  0  0  0  0
    2.7533    1.2541    1.8744 S   0  0  0  0  0  0  0  0  0  0  0  0
    1.0832   -1.3310    0.2764 H   0  0  0  0  0  0  0  0  0  0  0  0
    2.2310   -0.2194   -0.5181 H   0  0  0  0  0  0  0  0  0  0  0  0
    0.5713    0.4184    2.0027 H   0  0  0  0  0  0  0  0  0  0  0  0
  1  2  3  0
  1  7  1  0
  2  3  1  0
  3  4  1  0
  3  5  1  0
  4  9  1  0
  4 10  1  0
  4 11  1  0
  5  6  3  0
  6 12  1  0
  8 13  1  0
 13 14  1  0
 13 16  1  0
 13 17  1  0
 14 15  2  0
 14 18  1  0
M  RAD  1   3   2
M  END
>  <reaction>  (7) 
rxn_1414

>  <mol_properties>  (7) 
{"1": {"label": "*4", "atom_type": "Ct"}, "2": {"label": "*3", "atom_type": "Cs"}, "7": {"label": "*2", "atom_type": "H0"}, "12": {"label": "*1", "atom_type": "Cs"}, "13": {"label": "*0", "atom_type": "CS"}}

>  <type>  (7) 
unop_3

>  <geom_source>  (7) 
Heuristics

$$$$

     RDKit          3D

 18 16  0  0  0  0  0  0  0  0999 V2000
   -1.0717    0.8849   -2.8493 C   0  0  0  0  0  0  0  0  0  0  0  0
   -1.0717    0.8849   -1.6532 C   0  0  0  0  0  0  0  0  0  0  0  0
   -1.0717    0.9250   -0.1866 C   0  0  0  0  0  3  0  0  0  0  0  0
   -1.7098    2.2242    0.3354 C   0  0  0  0  0  0  0  0  0  0  0  0
   -1.7336   -0.2563    0.3781 C   0  0  0  0  0  0  0  0  0  0  0  0
   -2.2818   -1.2016    0.8646 C   0  0  0  0  0  0  0  0  0  0  0  0
   -1.0717    0.8849   -3.9128 H   0  0  0  0  0  0  0  0  0  0  0  0
    0.1819    0.8977    0.2065 H   0  0  0  0  0  0  0  0  0  0  0  0
   -2.7530    2.2814    0.0276 H   0  0  0  0  0  0  0  0  0  0  0  0
   -1.1771    3.0856   -0.0663 H   0  0  0  0  0  0  0  0  0  0  0  0
   -1.6626    2.2486    1.4236 H   0  0  0  0  0  0  0  0  0  0  0  0
   -2.7692   -2.0420    1.2971 H   0  0  0  0  0  0  0  0  0  0  0  0
    1.4347    0.8705    0.5994 C   0  0  0  0  0  0  0  0  0  0  0  0
    2.0829   -0.3777    0.1131 C   0  0  0  0  0  0  0  0  0  0  0  0
    2.1470   -1.7826    0.8899 S   0  0  0  0  0  0  0  0  0  0  0  0
    2.1743    1.6761    0.6400 H   0  0  0  0  0  0  0  0  0  0  0  0
    0.9852    0.7355    1.5809 H   0  0  0  0  0  0  0  0  0  0  0  0
    2.5498   -0.2940   -0.8701 H   0  0  0  0  0  0  0  0  0  0  0  0
  1  2  3  0
  1  7  1  0
  2  3  1  0
  3  4  1  0
  3  5  1  0
  4  9  1  0
  4 10  1  0
  4 11  1  0
  5  6  3  0
  6 12  1  0
  8 13  1  0
 13 14  1  0
 13 16  1  0
 13 17  1  0
 14 15  2  0
 14 18  1  0
M  RAD  1   3   2
M  END
>  <reaction>  (8) 
rxn_1414

>  <mol_properties>  (8) 
{"1": {"label": "*4", "atom_type": "Ct"}, "2": {"label": "*3", "atom_type": "Cs"}, "7": {"label": "*2", "atom_type": "H0"}, "12": {"label": "*1", "atom_type": "Cs"}, "13": {"label": "*0", "atom_type": "CS"}}

>  <type>  (8) 
unop_4

>  <geom_source>  (8) 
Heuristics

$$$$

     RDKit          3D

 18 16  0  0  0  0  0  0  0  0999 V2000
   -1.0358   -0.1100   -3.5220 C   0  0  0  0  0  0  0  0  0  0  0  0
   -1.0358   -0.1100   -2.3259 C   0  0  0  0  0  0  0  0  0  0  0  0
   -1.0358   -0.0700   -0.8593 C   0  0  0  0  0  3  0  0  0  0  0  0
   -1.6738    1.2292   -0.3373 C   0  0  0  0  0  0  0  0  0  0  0  0
   -1.6976   -1.2512   -0.2945 C   0  0  0  0  0  0  0  0  0  0  0  0
   -2.2458   -2.1965    0.1920 C   0  0  0  0  0  0  0  0  0  0  0  0
   -1.0358   -0.1100   -4.5855 H   0  0  0  0  0  0  0  0  0  0  0  0
    0.2178   -0.0972   -0.4662 H   0  0  0  0  0  0  0  0  0  0  0  0
   -2.7170    1.2865   -0.6451 H   0  0  0  0  0  0  0  0  0  0  0  0
   -1.1412    2.0907   -0.7390 H   0  0  0  0  0  0  0  0  0  0  0  0
   -1.6266    1.2537    0.7509 H   0  0  0  0  0  0  0  0  0  0  0  0
   -2.7333   -3.0369    0.6245 H   0  0  0  0  0  0  0  0  0  0  0  0
    1.4707   -0.1244   -0.0733 C   0  0  0  0  0  0  0  0  0  0  0  0
    1.5281   -0.0856    1.4133 C   0  0  0  0  0  0  0  0  0  0  0  0
    2.2795    1.0165    2.3089 S   0  0  0  0  0  0  0  0  0  0  0  0
    1.8858   -1.0714   -0.4317 H   0  0  0  0  0  0  0  0  0  0  0  0
    2.0132    0.7062   -0.5197 H   0  0  0  0  0  0  0  0  0  0  0  0
    0.9974   -0.9000    1.9100 H   0  0  0  0  0  0  0  0  0  0  0  0
  1  2  3  0
  1  7  1  0
  2  3  1  0
  3  4  1  0
  3  5  1  0
  4  9  1  0
  4 10  1  0
  4 11  1  0
  5  6  3  0
  6 12  1  0
  8 13  1  0
 13 14  1  0
 13 16  1  0
 13 17  1  0
 14 15  2  0
 14 18  1  0
M  RAD  1   3   2
M  END
>  <reaction>  (9) 
rxn_1414

>  <mol_properties>  (9) 
{"1": {"label": "*4", "atom_type": "Ct"}, "2": {"label": "*3", "atom_type": "Cs"}, "7": {"label": "*2", "atom_type": "H0"}, "12": {"label": "*1", "atom_type": "Cs"}, "13": {"label": "*0", "atom_type": "CS"}}

>  <type>  (9) 
unop_5

>  <geom_source>  (9) 
Heuristics

$$$$

     RDKit          3D

 18 16  0  0  0  0  0  0  0  0999 V2000
   -0.9284    0.8240   -3.1911 C   0  0  0  0  0  0  0  0  0  0  0  0
   -0.9284    0.8240   -1.9950 C   0  0  0  0  0  0  0  0  0  0  0  0
   -0.9284    0.8640   -0.5284 C   0  0  0  0  0  3  0  0  0  0  0  0
   -1.5665    2.1632   -0.0064 C   0  0  0  0  0  0  0  0  0  0  0  0
   -1.5903   -0.3172    0.0364 C   0  0  0  0  0  0  0  0  0  0  0  0
   -2.1385   -1.2625    0.5228 C   0  0  0  0  0  0  0  0  0  0  0  0
   -0.9284    0.8240   -4.2546 H   0  0  0  0  0  0  0  0  0  0  0  0
    0.3251    0.8368   -0.1353 H   0  0  0  0  0  0  0  0  0  0  0  0
   -2.6097    2.2205   -0.3142 H   0  0  0  0  0  0  0  0  0  0  0  0
   -1.0339    3.0247   -0.4081 H   0  0  0  0  0  0  0  0  0  0  0  0
   -1.5193    2.1877    1.0818 H   0  0  0  0  0  0  0  0  0  0  0  0
   -2.6259   -2.1029    0.9554 H   0  0  0  0  0  0  0  0  0  0  0  0
    1.5780    0.8096    0.2576 C   0  0  0  0  0  0  0  0  0  0  0  0
    2.0113   -0.6017    0.4451 C   0  0  0  0  0  0  0  0  0  0  0  0
    1.7596   -1.5105    1.7459 S   0  0  0  0  0  0  0  0  0  0  0  0
    2.4512    1.4377    0.0561 H   0  0  0  0  0  0  0  0  0  0  0  0
    1.0474    1.1877    1.1289 H   0  0  0  0  0  0  0  0  0  0  0  0
    2.5494   -1.0285   -0.4035 H   0  0  0  0  0  0  0  0  0  0  0  0
  1  2  3  0
  1  7  1  0
  2  3  1  0
  3  4  1  0
  3  5  1  0
  4  9  1  0
  4 10  1  0
  4 11  1  0
  5  6  3  0
  6 12  1  0
  8 13  1  0
 13 14  1  0
 13 16  1  0
 13 17  1  0
 14 15  2  0
 14 18  1  0
M  RAD  1   3   2
M  END
>  <reaction>  (10) 
rxn_1414

>  <mol_properties>  (10) 
{"1": {"label": "*4", "atom_type": "Ct"}, "2": {"label": "*3", "atom_type": "Cs"}, "7": {"label": "*2", "atom_type": "H0"}, "12": {"label": "*1", "atom_type": "Cs"}, "13": {"label": "*0", "atom_type": "CS"}}

>  <type>  (10) 
unop_6

>  <geom_source>  (10) 
Heuristics

$$$$

     RDKit          3D

 18 16  0  0  0  0  0  0  0  0999 V2000
   -0.8462    0.5747   -3.4698 C   0  0  0  0  0  0  0  0  0  0  0  0
   -0.8462    0.5747   -2.2737 C   0  0  0  0  0  0  0  0  0  0  0  0
   -0.8462    0.6148   -0.8071 C   0  0  0  0  0  3  0  0  0  0  0  0
   -1.4843    1.9140   -0.2851 C   0  0  0  0  0  0  0  0  0  0  0  0
   -1.5081   -0.5665   -0.2423 C   0  0  0  0  0  0  0  0  0  0  0  0
   -2.0563   -1.5118    0.2441 C   0  0  0  0  0  0  0  0  0  0  0  0
   -0.8462    0.5747   -4.5333 H   0  0  0  0  0  0  0  0  0  0  0  0
    0.4074    0.5875   -0.4140 H   0  0  0  0  0  0  0  0  0  0  0  0
   -2.5275    1.9712   -0.5929 H   0  0  0  0  0  0  0  0  0  0  0  0
   -0.9516    2.7754   -0.6868 H   0  0  0  0  0  0  0  0  0  0  0  0
   -1.4371    1.9384    0.8031 H   0  0  0  0  0  0  0  0  0  0  0  0
   -2.5437   -2.3522    0.6767 H   0  0  0  0  0  0  0  0  0  0  0  0
    1.6602    0.5603   -0.0211 C   0  0  0  0  0  0  0  0  0  0  0  0
    1.8900   -0.6387    0.8299 C   0  0  0  0  0  0  0  0  0  0  0  0
    1.5701   -0.7684    2.3991 S   0  0  0  0  0  0  0  0  0  0  0  0
    2.6055    0.8759   -0.4732 H   0  0  0  0  0  0  0  0  0  0  0  0
    1.2332    1.3832    0.5483 H   0  0  0  0  0  0  0  0  0  0  0  0
    2.3185   -1.4940    0.3040 H   0  0  0  0  0  0  0  0  0  0  0  0
  1  2  3  0
  1  7  1  0
  2  3  1  0
  3  4  1  0
  3  5  1  0
  4  9  1  0
  4 10  1  0
  4 11  1  0
  5  6  3  0
  6 12  1  0
  8 13  1  0
 13 14  1  0
 13 16  1  0
 13 17  1  0
 14 15  2  0
 14 18  1  0
M  RAD  1   3   2
M  END
>  <reaction>  (11) 
rxn_1414

>  <mol_properties>  (11) 
{"1": {"label": "*4", "atom_type": "Ct"}, "2": {"label": "*3", "atom_type": "Cs"}, "7": {"label": "*2", "atom_type": "H0"}, "12": {"label": "*1", "atom_type": "Cs"}, "13": {"label": "*0", "atom_type": "CS"}}

>  <type>  (11) 
unop_7

>  <geom_source>  (11) 
Heuristics

$$$$

     RDKit          3D

 18 16  0  0  0  0  0  0  0  0999 V2000
   -1.3645   -0.4052   -2.8749 C   0  0  0  0  0  0  0  0  0  0  0  0
   -1.3645   -0.4052   -1.6787 C   0  0  0  0  0  0  0  0  0  0  0  0
   -1.3645   -0.3651   -0.2122 C   0  0  0  0  0  3  0  0  0  0  0  0
   -2.0026    0.9341    0.3098 C   0  0  0  0  0  0  0  0  0  0  0  0
   -2.0264   -1.5464    0.3526 C   0  0  0  0  0  0  0  0  0  0  0  0
   -2.5746   -2.4917    0.8391 C   0  0  0  0  0  0  0  0  0  0  0  0
   -1.3645   -0.4052   -3.9383 H   0  0  0  0  0  0  0  0  0  0  0  0
   -0.1109   -0.3924    0.1810 H   0  0  0  0  0  0  0  0  0  0  0  0
   -3.0458    0.9913    0.0021 H   0  0  0  0  0  0  0  0  0  0  0  0
   -1.4699    1.7955   -0.0918 H   0  0  0  0  0  0  0  0  0  0  0  0
   -1.9554    0.9585    1.3980 H   0  0  0  0  0  0  0  0  0  0  0  0
   -3.0620   -3.3321    1.2716 H   0  0  0  0  0  0  0  0  0  0  0  0
    1.1419   -0.4196    0.5739 C   0  0  0  0  0  0  0  0  0  0  0  0
    1.6601    0.9710    0.6848 C   0  0  0  0  0  0  0  0  0  0  0  0
    3.2046    1.4131    0.7047 S   0  0  0  0  0  0  0  0  0  0  0  0
    0.5143   -0.6474    1.4410 H   0  0  0  0  0  0  0  0  0  0  0  0
    1.9486   -1.1462    0.5039 H   0  0  0  0  0  0  0  0  0  0  0  0
    0.8880    1.7393    0.7579 H   0  0  0  0  0  0  0  0  0  0  0  0
  1  2  3  0
  1  7  1  0
  2  3  1  0
  3  4  1  0
  3  5  1  0
  4  9  1  0
  4 10  1  0
  4 11  1  0
  5  6  3  0
  6 12  1  0
  8 13  1  0
 13 14  1  0
 13 16  1  0
 13 17  1  0
 14 15  2  0
 14 18  1  0
M  RAD  1   3   2
M  END
>  <reaction>  (12) 
rxn_1414

>  <mol_properties>  (12) 
{"1": {"label": "*4", "atom_type": "Ct"}, "2": {"label": "*3", "atom_type": "Cs"}, "7": {"label": "*2", "atom_type": "H0"}, "12": {"label": "*1", "atom_type": "Cs"}, "13": {"label": "*0", "atom_type": "CS"}}

>  <type>  (12) 
unop_8

>  <geom_source>  (12) 
Heuristics

$$$$

     RDKit          3D

 18 16  0  0  0  0  0  0  0  0999 V2000
   -1.2395    0.7436   -2.5430 C   0  0  0  0  0  0  0  0  0  0  0  0
   -1.2395    0.7436   -1.3469 C   0  0  0  0  0  0  0  0  0  0  0  0
   -1.2395    0.7837    0.1197 C   0  0  0  0  0  3  0  0  0  0  0  0
   -1.8775    2.0829    0.6417 C   0  0  0  0  0  0  0  0  0  0  0  0
   -1.9014   -0.3976    0.6845 C   0  0  0  0  0  0  0  0  0  0  0  0
   -2.4496   -1.3428    1.1709 C   0  0  0  0  0  0  0  0  0  0  0  0
   -1.2395    0.7436   -3.6065 H   0  0  0  0  0  0  0  0  0  0  0  0
    0.0141    0.7564    0.5128 H   0  0  0  0  0  0  0  0  0  0  0  0
   -2.9208    2.1402    0.3339 H   0  0  0  0  0  0  0  0  0  0  0  0
   -1.3449    2.9443    0.2400 H   0  0  0  0  0  0  0  0  0  0  0  0
   -1.8303    2.1073    1.7299 H   0  0  0  0  0  0  0  0  0  0  0  0
   -2.9370   -2.1833    1.6035 H   0  0  0  0  0  0  0  0  0  0  0  0
    1.2669    0.7292    0.9057 C   0  0  0  0  0  0  0  0  0  0  0  0
    2.0837   -0.0242   -0.0841 C   0  0  0  0  0  0  0  0  0  0  0  0
    2.6364   -1.5237    0.0814 S   0  0  0  0  0  0  0  0  0  0  0  0
    1.7851    1.6527    1.1819 H   0  0  0  0  0  0  0  0  0  0  0  0
    1.0688    0.1390    1.7979 H   0  0  0  0  0  0  0  0  0  0  0  0
    2.3103    0.5261   -0.9993 H   0  0  0  0  0  0  0  0  0  0  0  0
  1  2  3  0
  1  7  1  0
  2  3  1  0
  3  4  1  0
  3  5  1  0
  4  9  1  0
  4 10  1  0
  4 11  1  0
  5  6  3  0
  6 12  1  0
  8 13  1  0
 13 14  1  0
 13 16  1  0
 13 17  1  0
 14 15  2  0
 14 18  1  0
M  RAD  1   3   2
M  END
>  <reaction>  (13) 
rxn_1414

>  <mol_properties>  (13) 
{"1": {"label": "*4", "atom_type": "Ct"}, "2": {"label": "*3", "atom_type": "Cs"}, "7": {"label": "*2", "atom_type": "H0"}, "12": {"label": "*1", "atom_type": "Cs"}, "13": {"label": "*0", "atom_type": "CS"}}

>  <type>  (13) 
unop_9

>  <geom_source>  (13) 
Heuristics

$$$$

     RDKit          3D

 18 16  0  0  0  0  0  0  0  0999 V2000
   -1.4393   -0.2585   -2.5821 C   0  0  0  0  0  0  0  0  0  0  0  0
   -1.4393   -0.2585   -1.3860 C   0  0  0  0  0  0  0  0  0  0  0  0
   -1.4393   -0.2184    0.0806 C   0  0  0  0  0  3  0  0  0  0  0  0
   -2.0774    1.0808    0.6026 C   0  0  0  0  0  0  0  0  0  0  0  0
   -2.1012   -1.3997    0.6454 C   0  0  0  0  0  0  0  0  0  0  0  0
   -2.6494   -2.3450    1.1319 C   0  0  0  0  0  0  0  0  0  0  0  0
   -1.4393   -0.2585   -3.6456 H   0  0  0  0  0  0  0  0  0  0  0  0
   -0.1857   -0.2457    0.4737 H   0  0  0  0  0  0  0  0  0  0  0  0
   -3.1206    1.1380    0.2948 H   0  0  0  0  0  0  0  0  0  0  0  0
   -1.5447    1.9422    0.2009 H   0  0  0  0  0  0  0  0  0  0  0  0
   -2.0302    1.1052    1.6908 H   0  0  0  0  0  0  0  0  0  0  0  0
   -3.1368   -3.1854    1.5644 H   0  0  0  0  0  0  0  0  0  0  0  0
    1.0671   -0.2729    0.8666 C   0  0  0  0  0  0  0  0  0  0  0  0
    1.7888    0.9054    0.3140 C   0  0  0  0  0  0  0  0  0  0  0  0
    3.3637    1.0017    0.0113 S   0  0  0  0  0  0  0  0  0  0  0  0
    0.5596    0.0097    1.7941 H   0  0  0  0  0  0  0  0  0  0  0  0
    1.7407   -1.1060    1.0562 H   0  0  0  0  0  0  0  0  0  0  0  0
    1.1554    1.7698    0.1061 H   0  0  0  0  0  0  0  0  0  0  0  0
  1  2  3  0
  1  7  1  0
  2  3  1  0
  3  4  1  0
  3  5  1  0
  4  9  1  0
  4 10  1  0
  4 11  1  0
  5  6  3  0
  6 12  1  0
  8 13  1  0
 13 14  1  0
 13 16  1  0
 13 17  1  0
 14 15  2  0
 14 18  1  0
M  RAD  1   3   2
M  END
>  <reaction>  (14) 
rxn_1414

>  <mol_properties>  (14) 
{"1": {"label": "*4", "atom_type": "Ct"}, "2": {"label": "*3", "atom_type": "Cs"}, "7": {"label": "*2", "atom_type": "H0"}, "12": {"label": "*1", "atom_type": "Cs"}, "13": {"label": "*0", "atom_type": "CS"}}

>  <type>  (14) 
unop_10

>  <geom_source>  (14) 
Heuristics

$$$$

     RDKit          3D

 18 16  0  0  0  0  0  0  0  0999 V2000
   -0.8728    0.2052   -3.5934 C   0  0  0  0  0  0  0  0  0  0  0  0
   -0.8728    0.2052   -2.3972 C   0  0  0  0  0  0  0  0  0  0  0  0
   -0.8728    0.2453   -0.9307 C   0  0  0  0  0  3  0  0  0  0  0  0
   -1.5108    1.5445   -0.4087 C   0  0  0  0  0  0  0  0  0  0  0  0
   -1.5346   -0.9359   -0.3659 C   0  0  0  0  0  0  0  0  0  0  0  0
   -2.0828   -1.8812    0.1206 C   0  0  0  0  0  0  0  0  0  0  0  0
   -0.8728    0.2052   -4.6568 H   0  0  0  0  0  0  0  0  0  0  0  0
    0.3808    0.2181   -0.5375 H   0  0  0  0  0  0  0  0  0  0  0  0
   -2.5541    1.6018   -0.7164 H   0  0  0  0  0  0  0  0  0  0  0  0
   -0.9782    2.4059   -0.8103 H   0  0  0  0  0  0  0  0  0  0  0  0
   -1.4636    1.5689    0.6796 H   0  0  0  0  0  0  0  0  0  0  0  0
   -2.5703   -2.7216    0.5531 H   0  0  0  0  0  0  0  0  0  0  0  0
    1.6337    0.1908   -0.1446 C   0  0  0  0  0  0  0  0  0  0  0  0
    1.7259   -0.4774    1.1819 C   0  0  0  0  0  0  0  0  0  0  0  0
    1.7154    0.2470    2.6160 S   0  0  0  0  0  0  0  0  0  0  0  0
    2.5133   -0.0619   -0.7446 H   0  0  0  0  0  0  0  0  0  0  0  0
    1.5543    1.2715   -0.0472 H   0  0  0  0  0  0  0  0  0  0  0  0
    1.8075   -1.5651    1.1382 H   0  0  0  0  0  0  0  0  0  0  0  0
  1  2  3  0
  1  7  1  0
  2  3  1  0
  3  4  1  0
  3  5  1  0
  4  9  1  0
  4 10  1  0
  4 11  1  0
  5  6  3  0
  6 12  1  0
  8 13  1  0
 13 14  1  0
 13 16  1  0
 13 17  1  0
 14 15  2  0
 14 18  1  0
M  RAD  1   3   2
M  END
>  <reaction>  (15) 
rxn_1414

>  <mol_properties>  (15) 
{"1": {"label": "*4", "atom_type": "Ct"}, "2": {"label": "*3", "atom_type": "Cs"}, "7": {"label": "*2", "atom_type": "H0"}, "12": {"label": "*1", "atom_type": "Cs"}, "13": {"label": "*0", "atom_type": "CS"}}

>  <type>  (15) 
unop_11

>  <geom_source>  (15) 
Heuristics

$$$$

     RDKit          3D

 18 16  0  0  0  0  0  0  0  0999 V2000
   -1.3863    0.4322   -2.3665 C   0  0  0  0  0  0  0  0  0  0  0  0
   -1.3863    0.4322   -1.1704 C   0  0  0  0  0  0  0  0  0  0  0  0
   -1.3863    0.4723    0.2962 C   0  0  0  0  0  3  0  0  0  0  0  0
   -2.0244    1.7715    0.8182 C   0  0  0  0  0  0  0  0  0  0  0  0
   -2.0482   -0.7090    0.8610 C   0  0  0  0  0  0  0  0  0  0  0  0
   -2.5964   -1.6542    1.3474 C   0  0  0  0  0  0  0  0  0  0  0  0
   -1.3863    0.4322   -3.4300 H   0  0  0  0  0  0  0  0  0  0  0  0
   -0.1327    0.4450    0.6893 H   0  0  0  0  0  0  0  0  0  0  0  0
   -3.0676    1.8288    0.5104 H   0  0  0  0  0  0  0  0  0  0  0  0
   -1.4918    2.6329    0.4165 H   0  0  0  0  0  0  0  0  0  0  0  0
   -1.9772    1.7959    1.9064 H   0  0  0  0  0  0  0  0  0  0  0  0
   -3.0838   -2.4947    1.7800 H   0  0  0  0  0  0  0  0  0  0  0  0
    1.1201    0.4178    1.0822 C   0  0  0  0  0  0  0  0  0  0  0  0
    2.0142    0.3583   -0.1059 C   0  0  0  0  0  0  0  0  0  0  0  0
    3.0981   -0.7837   -0.4260 S   0  0  0  0  0  0  0  0  0  0  0  0
    1.2934    1.3520    1.6252 H   0  0  0  0  0  0  0  0  0  0  0  0
    1.2773   -0.4281    1.7481 H   0  0  0  0  0  0  0  0  0  0  0  0
    1.8948    1.1869   -0.8066 H   0  0  0  0  0  0  0  0  0  0  0  0
  1  2  3  0
  1  7  1  0
  2  3  1  0
  3  4  1  0
  3  5  1  0
  4  9  1  0
  4 10  1  0
  4 11  1  0
  5  6  3  0
  6 12  1  0
  8 13  1  0
 13 14  1  0
 13 16  1  0
 13 17  1  0
 14 15  2  0
 14 18  1  0
M  RAD  1   3   2
M  END
>  <reaction>  (16) 
rxn_1414

>  <mol_properties>  (16) 
{"1": {"label": "*4", "atom_type": "Ct"}, "2": {"label": "*3", "atom_type": "Cs"}, "7": {"label": "*2", "atom_type": "H0"}, "12": {"label": "*1", "atom_type": "Cs"}, "13": {"label": "*0", "atom_type": "CS"}}

>  <type>  (16) 
unop_12

>  <geom_source>  (16) 
Heuristics

$$$$

     RDKit          3D

 18 16  0  0  0  0  0  0  0  0999 V2000
    2.5650    0.7118   -1.8638 S   0  0  0  0  0  0  0  0  0  0  0  0
   -0.9638   -1.7066    0.0250 C   0  0  0  0  0  0  0  0  0  0  0  0
    1.8227    0.0298    0.4736 C   0  0  0  0  0  0  0  0  0  0  0  0
   -0.7084   -0.2070   -0.0953 C   0  0  0  0  0  3  0  0  0  0  0  0
    2.6680    0.8593   -0.4398 C   0  0  0  0  0  0  0  0  0  0  0  0
   -1.4043    0.3463   -1.2633 C   0  0  0  0  0  0  0  0  0  0  0  0
   -1.1459    0.4934    1.1183 C   0  0  0  0  0  0  0  0  0  0  0  0
   -1.9746    0.8005   -2.2239 C   0  0  0  0  0  0  0  0  0  0  0  0
   -1.5037    1.0685    2.1160 C   0  0  0  0  0  0  0  0  0  0  0  0
    2.0267    0.3115    1.5278 H   0  0  0  0  0  0  0  0  0  0  0  0
    2.0574   -1.0481    0.3414 H   0  0  0  0  0  0  0  0  0  0  0  0
    0.5602    0.2339    0.2221 H   0  0  0  0  0  0  0  0  0  0  0  0
   -2.0484   -1.9153    0.1556 H   0  0  0  0  0  0  0  0  0  0  0  0
   -0.4091   -2.1156    0.8962 H   0  0  0  0  0  0  0  0  0  0  0  0
   -0.6027   -2.2258   -0.8882 H   0  0  0  0  0  0  0  0  0  0  0  0
    3.3542    1.5913   -0.0265 H   0  0  0  0  0  0  0  0  0  0  0  0
   -2.4753    1.1990   -3.0668 H   0  0  0  0  0  0  0  0  0  0  0  0
   -1.8179    1.5731    2.9915 H   0  0  0  0  0  0  0  0  0  0  0  0
  1  5  2  0
  2  4  1  0
  2 13  1  0
  2 14  1  0
  2 15  1  0
  3  5  1  0
  3 10  1  0
  3 11  1  0
  3 12  1  0
  4  6  1  0
  4  7  1  0
  5 16  1  0
  6  8  3  0
  7  9  3  0
  8 17  1  0
  9 18  1  0
M  RAD  1   4   2
M  END
>  <reaction>  (17) 
rxn_1414

>  <mol_properties>  (17) 
{"1": {"label": "*4", "atom_type": "Ct"}, "2": {"label": "*3", "atom_type": "Cs"}, "7": {"label": "*2", "atom_type": "H0"}, "12": {"label": "*1", "atom_type": "Cs"}, "13": {"label": "*0", "atom_type": "CS"}}

>  <type>  (17) 
unop_13

>  <geom_source>  (17) 
AutoTST

$$$$
