
     RDKit          3D

  6  5  0  0  0  0  0  0  0  0999 V2000
    0.6594    0.0438   -0.0050 C   0  0  0  0  0  0  0  0  0  0  0  0
   -0.6594   -0.0438    0.0050 C   0  0  0  0  0  0  0  0  0  0  0  0
    1.1706    0.8681   -0.4881 H   0  0  0  0  0  0  0  0  0  0  0  0
    1.2824   -0.7051    0.4696 H   0  0  0  0  0  0  0  0  0  0  0  0
   -1.2824    0.7051   -0.4696 H   0  0  0  0  0  0  0  0  0  0  0  0
   -1.1706   -0.8681    0.4881 H   0  0  0  0  0  0  0  0  0  0  0  0
  1  2  2  3
  1  3  1  0
  1  4  1  0
  2  5  1  0
  2  6  1  0
M  END
>  <reaction>  (1) 
rxn_1606

>  <mol_properties>  (1) 
{"1": {"label": "donator", "atom_type": "Cd"}, "4": {"label": "d_hydrogen", "atom_type": "H0"}}

>  <type>  (1) 
r1h

$$$$

     RDKit          3D

  7  6  0  0  0  0  0  0  0  0999 V2000
   -0.6904   -0.9066   -0.0346 C   0  0  0  0  0  0  0  0  0  0  0  0
    0.1413    0.0254   -0.6161 C   0  0  0  0  0  0  0  0  0  0  0  0
    0.4603    0.1105   -1.9267 C   0  0  0  0  0  3  0  0  0  0  0  0
    0.8318    0.2180   -3.4201 S   0  0  0  0  0  0  0  0  0  0  0  0
   -0.8731   -0.8770    1.0287 H   0  0  0  0  0  0  0  0  0  0  0  0
   -1.1718   -1.6767   -0.6199 H   0  0  0  0  0  0  0  0  0  0  0  0
    0.6090    0.7866    0.0044 H   0  0  0  0  0  0  0  0  0  0  0  0
  1  2  2  3
  1  5  1  0
  1  6  1  0
  2  3  1  0
  2  7  1  0
  3  4  2  0
M  RAD  1   3   2
M  END
>  <reaction>  (2) 
rxn_1606

>  <mol_properties>  (2) 
{"2": {"label": "acceptor", "atom_type": "CS"}}

>  <type>  (2) 
r2

$$$$

     RDKit          3D

  8  7  0  0  0  0  0  0  0  0999 V2000
   -1.1617    0.0338    0.5053 C   0  0  0  0  0  0  0  0  0  0  0  0
   -0.1023    0.4503   -0.1863 C   0  0  0  0  0  0  0  0  0  0  0  0
    1.0978   -0.3557   -0.3104 C   0  0  0  0  0  0  0  0  0  0  0  0
    2.4251    0.0667   -1.1256 S   0  0  0  0  0  0  0  0  0  0  0  0
   -1.1653   -0.9292    1.0039 H   0  0  0  0  0  0  0  0  0  0  0  0
   -2.0546    0.6389    0.5948 H   0  0  0  0  0  0  0  0  0  0  0  0
   -0.0991    1.4132   -0.6847 H   0  0  0  0  0  0  0  0  0  0  0  0
    1.0601   -1.3180    0.2032 H   0  0  0  0  0  0  0  0  0  0  0  0
  1  2  2  3
  1  5  1  0
  1  6  1  0
  2  3  1  0
  2  7  1  0
  3  4  2  0
  3  8  1  0
M  END
>  <reaction>  (3) 
rxn_1606

>  <mol_properties>  (3) 
{"0": {"label": "a_hydrogen", "atom_type": "H0"}, "3": {"label": "acceptor", "atom_type": "CS"}}

>  <type>  (3) 
r2h

$$$$

     RDKit          3D

 13 11  0  0  0  0  0  0  0  0999 V2000
    0.2434   -1.7530   -2.3032 C   0  0  0  0  0  0  0  0  0  0  0  0
   -0.4133   -1.9009   -1.1797 C   0  0  0  0  0  3  0  0  0  0  0  0
    0.7599   -0.8233   -2.5311 H   0  0  0  0  0  0  0  0  0  0  0  0
    0.3017   -2.5425   -3.0499 H   0  0  0  0  0  0  0  0  0  0  0  0
   -0.3389   -0.7018   -0.3539 H   0  0  0  0  0  0  0  0  0  0  0  0
   -0.9705   -2.7559   -0.8147 H   0  0  0  0  0  0  0  0  0  0  0  0
   -1.5188   -0.5422    2.0071 C   0  0  0  0  0  0  0  0  0  0  0  0
   -0.8216    0.4783    1.5104 C   0  0  0  0  0  0  0  0  0  0  0  0
   -0.1707    0.4038    0.2189 C   0  0  0  0  0  0  0  0  0  0  0  0
    0.6966    1.5225   -0.5206 S   0  0  0  0  0  0  0  0  0  0  0  0
   -2.0020   -0.4775    2.9735 H   0  0  0  0  0  0  0  0  0  0  0  0
   -1.6244   -1.4703    1.4588 H   0  0  0  0  0  0  0  0  0  0  0  0
   -0.7192    1.4063    2.0648 H   0  0  0  0  0  0  0  0  0  0  0  0
  1  2  2  3
  1  3  1  0
  1  4  1  0
  2  6  1  0
  5  9  1  0
  7  8  2  3
  7 11  1  0
  7 12  1  0
  8  9  1  0
  8 13  1  0
  9 10  2  0
M  RAD  1   2   2
M  END
>  <reaction>  (4) 
rxn_1606

>  <mol_properties>  (4) 
{"0": {"label": "*4", "atom_type": "Cd"}, "1": {"label": "*3", "atom_type": "Cd"}, "4": {"label": "*2", "atom_type": "H0"}, "8": {"label": "*1", "atom_type": "CS"}, "9": {"label": "*0", "atom_type": "S2d"}}

>  <type>  (4) 
ts

$$$$

     RDKit          3D

 13 11  0  0  0  0  0  0  0  0999 V2000
    0.0011   -1.7152   -2.4306 C   0  0  0  0  0  0  0  0  0  0  0  0
    0.0011   -1.7152   -1.1089 C   0  0  0  0  0  0  0  0  0  0  0  0
    0.0011   -0.7926   -2.9990 H   0  0  0  0  0  0  0  0  0  0  0  0
    0.0011   -2.6378   -2.9990 H   0  0  0  0  0  0  0  0  0  0  0  0
    0.0011   -0.6081   -0.4268 H   0  0  0  0  0  0  0  0  0  0  0  0
    0.0010   -2.6378   -0.5405 H   0  0  0  0  0  0  0  0  0  0  0  0
   -2.3752    0.3603    0.7644 C   0  0  0  0  0  0  0  0  0  0  0  0
   -1.1388    0.6819    1.1409 C   0  0  0  0  0  0  0  0  0  0  0  0
    0.0011    0.5071    0.2602 C   0  0  0  0  0  3  0  0  0  0  0  0
    1.5299    0.8681    0.6302 S   0  0  0  0  0  0  0  0  0  0  0  0
   -3.2221    0.4927    1.4252 H   0  0  0  0  0  0  0  0  0  0  0  0
   -2.5758   -0.0466   -0.2205 H   0  0  0  0  0  0  0  0  0  0  0  0
   -0.9386    1.0887    2.1258 H   0  0  0  0  0  0  0  0  0  0  0  0
  1  2  2  3
  1  3  1  0
  1  4  1  0
  2  5  1  0
  2  6  1  0
  7  8  2  3
  7 11  1  0
  7 12  1  0
  8  9  1  0
  8 13  1  0
  9 10  2  0
M  RAD  1   9   2
M  END
>  <reaction>  (5) 
rxn_1606

>  <mol_properties>  (5) 
{"0": {"label": "*4", "atom_type": "Cd"}, "1": {"label": "*3", "atom_type": "Cd"}, "4": {"label": "*2", "atom_type": "H0"}, "8": {"label": "*1", "atom_type": "CS"}, "9": {"label": "*0", "atom_type": "S2d"}}

>  <type>  (5) 
unop_1

>  <geom_source>  (5) 
Heuristics

$$$$

     RDKit          3D

 13 11  0  0  0  0  0  0  0  0999 V2000
    0.1104   -1.8787   -2.2584 C   0  0  0  0  0  0  0  0  0  0  0  0
    0.1104   -1.8787   -0.9367 C   0  0  0  0  0  0  0  0  0  0  0  0
    0.1104   -0.9561   -2.8268 H   0  0  0  0  0  0  0  0  0  0  0  0
    0.1104   -2.8013   -2.8268 H   0  0  0  0  0  0  0  0  0  0  0  0
    0.1104   -0.7716   -0.2546 H   0  0  0  0  0  0  0  0  0  0  0  0
    0.1104   -2.8013   -0.3683 H   0  0  0  0  0  0  0  0  0  0  0  0
   -0.7933    1.4694   -1.5267 C   0  0  0  0  0  0  0  0  0  0  0  0
   -0.5476    1.4614   -0.2176 C   0  0  0  0  0  0  0  0  0  0  0  0
    0.1104    0.3436    0.4324 C   0  0  0  0  0  3  0  0  0  0  0  0
    0.4478    0.2473    2.0077 S   0  0  0  0  0  0  0  0  0  0  0  0
   -1.2846    2.3059   -2.0067 H   0  0  0  0  0  0  0  0  0  0  0  0
   -0.5084    0.6350   -2.1580 H   0  0  0  0  0  0  0  0  0  0  0  0
   -0.8327    2.2959    0.4133 H   0  0  0  0  0  0  0  0  0  0  0  0
  1  2  2  3
  1  3  1  0
  1  4  1  0
  2  5  1  0
  2  6  1  0
  7  8  2  3
  7 11  1  0
  7 12  1  0
  8  9  1  0
  8 13  1  0
  9 10  2  0
M  RAD  1   9   2
M  END
>  <reaction>  (6) 
rxn_1606

>  <mol_properties>  (6) 
{"0": {"label": "*4", "atom_type": "Cd"}, "1": {"label": "*3", "atom_type": "Cd"}, "4": {"label": "*2", "atom_type": "H0"}, "8": {"label": "*1", "atom_type": "CS"}, "9": {"label": "*0", "atom_type": "S2d"}}

>  <type>  (6) 
unop_2

>  <geom_source>  (6) 
Heuristics

$$$$

     RDKit          3D

 13 11  0  0  0  0  0  0  0  0999 V2000
   -0.0738   -1.7664   -2.3962 C   0  0  0  0  0  0  0  0  0  0  0  0
   -0.0738   -1.7664   -1.0745 C   0  0  0  0  0  0  0  0  0  0  0  0
   -0.0738   -0.8438   -2.9646 H   0  0  0  0  0  0  0  0  0  0  0  0
   -0.0738   -2.6890   -2.9646 H   0  0  0  0  0  0  0  0  0  0  0  0
   -0.0738   -0.6593   -0.3924 H   0  0  0  0  0  0  0  0  0  0  0  0
   -0.0738   -2.6890   -0.5061 H   0  0  0  0  0  0  0  0  0  0  0  0
   -1.7627   -0.4371    1.8021 C   0  0  0  0  0  0  0  0  0  0  0  0
   -0.7318    0.3780    1.5854 C   0  0  0  0  0  0  0  0  0  0  0  0
   -0.0738    0.4559    0.2946 C   0  0  0  0  0  3  0  0  0  0  0  0
    1.1782    1.4113   -0.0582 S   0  0  0  0  0  0  0  0  0  0  0  0
   -2.2501   -0.4914    2.7670 H   0  0  0  0  0  0  0  0  0  0  0  0
   -2.1499   -1.0761    1.0163 H   0  0  0  0  0  0  0  0  0  0  0  0
   -0.3450    1.0169    2.3715 H   0  0  0  0  0  0  0  0  0  0  0  0
  1  2  2  3
  1  3  1  0
  1  4  1  0
  2  5  1  0
  2  6  1  0
  7  8  2  3
  7 11  1  0
  7 12  1  0
  8  9  1  0
  8 13  1  0
  9 10  2  0
M  RAD  1   9   2
M  END
>  <reaction>  (7) 
rxn_1606

>  <mol_properties>  (7) 
{"0": {"label": "*4", "atom_type": "Cd"}, "1": {"label": "*3", "atom_type": "Cd"}, "4": {"label": "*2", "atom_type": "H0"}, "8": {"label": "*1", "atom_type": "CS"}, "9": {"label": "*0", "atom_type": "S2d"}}

>  <type>  (7) 
unop_3

>  <geom_source>  (7) 
Heuristics

$$$$

     RDKit          3D

 13 11  0  0  0  0  0  0  0  0999 V2000
   -0.1490   -1.8034   -2.3340 C   0  0  0  0  0  0  0  0  0  0  0  0
   -0.1490   -1.8034   -1.0123 C   0  0  0  0  0  0  0  0  0  0  0  0
   -0.1490   -0.8808   -2.9024 H   0  0  0  0  0  0  0  0  0  0  0  0
   -0.1490   -2.7260   -2.9024 H   0  0  0  0  0  0  0  0  0  0  0  0
   -0.1490   -0.6963   -0.3303 H   0  0  0  0  0  0  0  0  0  0  0  0
   -0.1490   -2.7260   -0.4439 H   0  0  0  0  0  0  0  0  0  0  0  0
    1.5968    1.3380   -1.0681 C   0  0  0  0  0  0  0  0  0  0  0  0
    0.9909    1.2841    0.1169 C   0  0  0  0  0  0  0  0  0  0  0  0
   -0.1490    0.4189    0.3568 C   0  0  0  0  0  3  0  0  0  0  0  0
   -0.9434    0.2887    1.7556 S   0  0  0  0  0  0  0  0  0  0  0  0
    2.4467    1.9852   -1.2418 H   0  0  0  0  0  0  0  0  0  0  0  0
    1.2576    0.7332   -1.9017 H   0  0  0  0  0  0  0  0  0  0  0  0
    1.3302    1.8890    0.9502 H   0  0  0  0  0  0  0  0  0  0  0  0
  1  2  2  3
  1  3  1  0
  1  4  1  0
  2  5  1  0
  2  6  1  0
  7  8  2  3
  7 11  1  0
  7 12  1  0
  8  9  1  0
  8 13  1  0
  9 10  2  0
M  RAD  1   9   2
M  END
>  <reaction>  (8) 
rxn_1606

>  <mol_properties>  (8) 
{"0": {"label": "*4", "atom_type": "Cd"}, "1": {"label": "*3", "atom_type": "Cd"}, "4": {"label": "*2", "atom_type": "H0"}, "8": {"label": "*1", "atom_type": "CS"}, "9": {"label": "*0", "atom_type": "S2d"}}

>  <type>  (8) 
unop_4

>  <geom_source>  (8) 
Heuristics

$$$$

     RDKit          3D

 13 11  0  0  0  0  0  0  0  0999 V2000
    0.0000   -1.8344   -2.3525 C   0  0  0  0  0  0  0  0  0  0  0  0
    0.0000   -1.8344   -1.0308 C   0  0  0  0  0  0  0  0  0  0  0  0
    0.0000   -0.9118   -2.9209 H   0  0  0  0  0  0  0  0  0  0  0  0
    0.0000   -2.7569   -2.9209 H   0  0  0  0  0  0  0  0  0  0  0  0
    0.0000   -0.7273   -0.3487 H   0  0  0  0  0  0  0  0  0  0  0  0
   -0.0000   -2.7569   -0.4624 H   0  0  0  0  0  0  0  0  0  0  0  0
    0.0000   -0.9879    2.3457 C   0  0  0  0  0  0  0  0  0  0  0  0
    0.0000    0.2176    1.7793 C   0  0  0  0  0  0  0  0  0  0  0  0
    0.0000    0.3879    0.3383 C   0  0  0  0  0  3  0  0  0  0  0  0
   -0.0000    1.8053   -0.4336 S   0  0  0  0  0  0  0  0  0  0  0  0
    0.0000   -1.1095    3.4212 H   0  0  0  0  0  0  0  0  0  0  0  0
    0.0000   -1.8915    1.7463 H   0  0  0  0  0  0  0  0  0  0  0  0
    0.0000    1.1209    2.3790 H   0  0  0  0  0  0  0  0  0  0  0  0
  1  2  2  3
  1  3  1  0
  1  4  1  0
  2  5  1  0
  2  6  1  0
  7  8  2  3
  7 11  1  0
  7 12  1  0
  8  9  1  0
  8 13  1  0
  9 10  2  0
M  RAD  1   9   2
M  END
>  <reaction>  (9) 
rxn_1606

>  <mol_properties>  (9) 
{"0": {"label": "*4", "atom_type": "Cd"}, "1": {"label": "*3", "atom_type": "Cd"}, "4": {"label": "*2", "atom_type": "H0"}, "8": {"label": "*1", "atom_type": "CS"}, "9": {"label": "*0", "atom_type": "S2d"}}

>  <type>  (9) 
unop_5

>  <geom_source>  (9) 
Heuristics

$$$$

     RDKit          3D

 13 11  0  0  0  0  0  0  0  0999 V2000
   -0.1009   -1.7358   -2.4047 C   0  0  0  0  0  0  0  0  0  0  0  0
   -0.1009   -1.7358   -1.0829 C   0  0  0  0  0  0  0  0  0  0  0  0
   -0.1009   -0.8132   -2.9731 H   0  0  0  0  0  0  0  0  0  0  0  0
   -0.1009   -2.6584   -2.9731 H   0  0  0  0  0  0  0  0  0  0  0  0
   -0.1009   -0.6287   -0.4009 H   0  0  0  0  0  0  0  0  0  0  0  0
   -0.1009   -2.6584   -0.5145 H   0  0  0  0  0  0  0  0  0  0  0  0
    2.2180    0.9726   -0.2695 C   0  0  0  0  0  0  0  0  0  0  0  0
    1.2152    1.0065    0.6065 C   0  0  0  0  0  0  0  0  0  0  0  0
   -0.1009    0.4864    0.2862 C   0  0  0  0  0  3  0  0  0  0  0  0
   -1.3713    0.4854    1.2815 S   0  0  0  0  0  0  0  0  0  0  0  0
    3.1980    1.3619   -0.0255 H   0  0  0  0  0  0  0  0  0  0  0  0
    2.0859    0.5524   -1.2603 H   0  0  0  0  0  0  0  0  0  0  0  0
    1.3477    1.4267    1.5972 H   0  0  0  0  0  0  0  0  0  0  0  0
  1  2  2  3
  1  3  1  0
  1  4  1  0
  2  5  1  0
  2  6  1  0
  7  8  2  3
  7 11  1  0
  7 12  1  0
  8  9  1  0
  8 13  1  0
  9 10  2  0
M  RAD  1   9   2
M  END
>  <reaction>  (10) 
rxn_1606

>  <mol_properties>  (10) 
{"0": {"label": "*4", "atom_type": "Cd"}, "1": {"label": "*3", "atom_type": "Cd"}, "4": {"label": "*2", "atom_type": "H0"}, "8": {"label": "*1", "atom_type": "CS"}, "9": {"label": "*0", "atom_type": "S2d"}}

>  <type>  (10) 
unop_6

>  <geom_source>  (10) 
Heuristics

$$$$

     RDKit          3D

 13 11  0  0  0  0  0  0  0  0999 V2000
   -0.0011   -1.7152   -2.4306 C   0  0  0  0  0  0  0  0  0  0  0  0
   -0.0011   -1.7152   -1.1089 C   0  0  0  0  0  0  0  0  0  0  0  0
   -0.0010   -0.7926   -2.9990 H   0  0  0  0  0  0  0  0  0  0  0  0
   -0.0011   -2.6378   -2.9990 H   0  0  0  0  0  0  0  0  0  0  0  0
   -0.0011   -0.6081   -0.4268 H   0  0  0  0  0  0  0  0  0  0  0  0
   -0.0011   -2.6378   -0.5405 H   0  0  0  0  0  0  0  0  0  0  0  0
    2.3752    0.3603    0.7644 C   0  0  0  0  0  0  0  0  0  0  0  0
    1.1388    0.6819    1.1409 C   0  0  0  0  0  0  0  0  0  0  0  0
   -0.0011    0.5071    0.2602 C   0  0  0  0  0  3  0  0  0  0  0  0
   -1.5299    0.8681    0.6302 S   0  0  0  0  0  0  0  0  0  0  0  0
    3.2221    0.4927    1.4252 H   0  0  0  0  0  0  0  0  0  0  0  0
    2.5758   -0.0466   -0.2205 H   0  0  0  0  0  0  0  0  0  0  0  0
    0.9386    1.0887    2.1258 H   0  0  0  0  0  0  0  0  0  0  0  0
  1  2  2  3
  1  3  1  0
  1  4  1  0
  2  5  1  0
  2  6  1  0
  7  8  2  3
  7 11  1  0
  7 12  1  0
  8  9  1  0
  8 13  1  0
  9 10  2  0
M  RAD  1   9   2
M  END
>  <reaction>  (11) 
rxn_1606

>  <mol_properties>  (11) 
{"0": {"label": "*4", "atom_type": "Cd"}, "1": {"label": "*3", "atom_type": "Cd"}, "4": {"label": "*2", "atom_type": "H0"}, "8": {"label": "*1", "atom_type": "CS"}, "9": {"label": "*0", "atom_type": "S2d"}}

>  <type>  (11) 
unop_7

>  <geom_source>  (11) 
Heuristics

$$$$

     RDKit          3D

 13 11  0  0  0  0  0  0  0  0999 V2000
    0.1009   -1.7358   -2.4047 C   0  0  0  0  0  0  0  0  0  0  0  0
    0.1009   -1.7358   -1.0829 C   0  0  0  0  0  0  0  0  0  0  0  0
    0.1009   -0.8132   -2.9731 H   0  0  0  0  0  0  0  0  0  0  0  0
    0.1009   -2.6584   -2.9731 H   0  0  0  0  0  0  0  0  0  0  0  0
    0.1009   -0.6287   -0.4009 H   0  0  0  0  0  0  0  0  0  0  0  0
    0.1009   -2.6584   -0.5145 H   0  0  0  0  0  0  0  0  0  0  0  0
   -2.2180    0.9726   -0.2695 C   0  0  0  0  0  0  0  0  0  0  0  0
   -1.2152    1.0065    0.6065 C   0  0  0  0  0  0  0  0  0  0  0  0
    0.1009    0.4864    0.2862 C   0  0  0  0  0  3  0  0  0  0  0  0
    1.3713    0.4854    1.2815 S   0  0  0  0  0  0  0  0  0  0  0  0
   -3.1980    1.3619   -0.0255 H   0  0  0  0  0  0  0  0  0  0  0  0
   -2.0859    0.5524   -1.2603 H   0  0  0  0  0  0  0  0  0  0  0  0
   -1.3477    1.4267    1.5972 H   0  0  0  0  0  0  0  0  0  0  0  0
  1  2  2  3
  1  3  1  0
  1  4  1  0
  2  5  1  0
  2  6  1  0
  7  8  2  3
  7 11  1  0
  7 12  1  0
  8  9  1  0
  8 13  1  0
  9 10  2  0
M  RAD  1   9   2
M  END
>  <reaction>  (12) 
rxn_1606

>  <mol_properties>  (12) 
{"0": {"label": "*4", "atom_type": "Cd"}, "1": {"label": "*3", "atom_type": "Cd"}, "4": {"label": "*2", "atom_type": "H0"}, "8": {"label": "*1", "atom_type": "CS"}, "9": {"label": "*0", "atom_type": "S2d"}}

>  <type>  (12) 
unop_8

>  <geom_source>  (12) 
Heuristics

$$$$

     RDKit          3D

 13 11  0  0  0  0  0  0  0  0999 V2000
   -0.1104   -1.8787   -2.2584 C   0  0  0  0  0  0  0  0  0  0  0  0
   -0.1104   -1.8787   -0.9367 C   0  0  0  0  0  0  0  0  0  0  0  0
   -0.1104   -0.9561   -2.8268 H   0  0  0  0  0  0  0  0  0  0  0  0
   -0.1104   -2.8013   -2.8268 H   0  0  0  0  0  0  0  0  0  0  0  0
   -0.1104   -0.7716   -0.2546 H   0  0  0  0  0  0  0  0  0  0  0  0
   -0.1104   -2.8013   -0.3683 H   0  0  0  0  0  0  0  0  0  0  0  0
    0.7933    1.4694   -1.5267 C   0  0  0  0  0  0  0  0  0  0  0  0
    0.5476    1.4614   -0.2176 C   0  0  0  0  0  0  0  0  0  0  0  0
   -0.1104    0.3436    0.4324 C   0  0  0  0  0  3  0  0  0  0  0  0
   -0.4478    0.2473    2.0077 S   0  0  0  0  0  0  0  0  0  0  0  0
    1.2846    2.3059   -2.0067 H   0  0  0  0  0  0  0  0  0  0  0  0
    0.5084    0.6350   -2.1580 H   0  0  0  0  0  0  0  0  0  0  0  0
    0.8327    2.2959    0.4133 H   0  0  0  0  0  0  0  0  0  0  0  0
  1  2  2  3
  1  3  1  0
  1  4  1  0
  2  5  1  0
  2  6  1  0
  7  8  2  3
  7 11  1  0
  7 12  1  0
  8  9  1  0
  8 13  1  0
  9 10  2  0
M  RAD  1   9   2
M  END
>  <reaction>  (13) 
rxn_1606

>  <mol_properties>  (13) 
{"0": {"label": "*4", "atom_type": "Cd"}, "1": {"label": "*3", "atom_type": "Cd"}, "4": {"label": "*2", "atom_type": "H0"}, "8": {"label": "*1", "atom_type": "CS"}, "9": {"label": "*0", "atom_type": "S2d"}}

>  <type>  (13) 
unop_9

>  <geom_source>  (13) 
Heuristics

$$$$

     RDKit          3D

 13 11  0  0  0  0  0  0  0  0999 V2000
    0.1490   -1.8034   -2.3340 C   0  0  0  0  0  0  0  0  0  0  0  0
    0.1490   -1.8034   -1.0123 C   0  0  0  0  0  0  0  0  0  0  0  0
    0.1490   -0.8808   -2.9024 H   0  0  0  0  0  0  0  0  0  0  0  0
    0.1490   -2.7260   -2.9024 H   0  0  0  0  0  0  0  0  0  0  0  0
    0.1490   -0.6963   -0.3303 H   0  0  0  0  0  0  0  0  0  0  0  0
    0.1490   -2.7260   -0.4439 H   0  0  0  0  0  0  0  0  0  0  0  0
   -1.5968    1.3380   -1.0681 C   0  0  0  0  0  0  0  0  0  0  0  0
   -0.9909    1.2841    0.1169 C   0  0  0  0  0  0  0  0  0  0  0  0
    0.1490    0.4189    0.3568 C   0  0  0  0  0  3  0  0  0  0  0  0
    0.9434    0.2887    1.7556 S   0  0  0  0  0  0  0  0  0  0  0  0
   -2.4467    1.9852   -1.2418 H   0  0  0  0  0  0  0  0  0  0  0  0
   -1.2576    0.7332   -1.9017 H   0  0  0  0  0  0  0  0  0  0  0  0
   -1.3302    1.8890    0.9502 H   0  0  0  0  0  0  0  0  0  0  0  0
  1  2  2  3
  1  3  1  0
  1  4  1  0
  2  5  1  0
  2  6  1  0
  7  8  2  3
  7 11  1  0
  7 12  1  0
  8  9  1  0
  8 13  1  0
  9 10  2  0
M  RAD  1   9   2
M  END
>  <reaction>  (14) 
rxn_1606

>  <mol_properties>  (14) 
{"0": {"label": "*4", "atom_type": "Cd"}, "1": {"label": "*3", "atom_type": "Cd"}, "4": {"label": "*2", "atom_type": "H0"}, "8": {"label": "*1", "atom_type": "CS"}, "9": {"label": "*0", "atom_type": "S2d"}}

>  <type>  (14) 
unop_10

>  <geom_source>  (14) 
Heuristics

$$$$

     RDKit          3D

 13 11  0  0  0  0  0  0  0  0999 V2000
    0.0738   -1.7664   -2.3962 C   0  0  0  0  0  0  0  0  0  0  0  0
    0.0738   -1.7664   -1.0745 C   0  0  0  0  0  0  0  0  0  0  0  0
    0.0738   -0.8438   -2.9646 H   0  0  0  0  0  0  0  0  0  0  0  0
    0.0738   -2.6890   -2.9646 H   0  0  0  0  0  0  0  0  0  0  0  0
    0.0738   -0.6593   -0.3924 H   0  0  0  0  0  0  0  0  0  0  0  0
    0.0738   -2.6890   -0.5061 H   0  0  0  0  0  0  0  0  0  0  0  0
    1.7627   -0.4371    1.8021 C   0  0  0  0  0  0  0  0  0  0  0  0
    0.7318    0.3780    1.5854 C   0  0  0  0  0  0  0  0  0  0  0  0
    0.0738    0.4559    0.2946 C   0  0  0  0  0  3  0  0  0  0  0  0
   -1.1782    1.4113   -0.0582 S   0  0  0  0  0  0  0  0  0  0  0  0
    2.2501   -0.4914    2.7670 H   0  0  0  0  0  0  0  0  0  0  0  0
    2.1499   -1.0761    1.0163 H   0  0  0  0  0  0  0  0  0  0  0  0
    0.3450    1.0169    2.3715 H   0  0  0  0  0  0  0  0  0  0  0  0
  1  2  2  3
  1  3  1  0
  1  4  1  0
  2  5  1  0
  2  6  1  0
  7  8  2  3
  7 11  1  0
  7 12  1  0
  8  9  1  0
  8 13  1  0
  9 10  2  0
M  RAD  1   9   2
M  END
>  <reaction>  (15) 
rxn_1606

>  <mol_properties>  (15) 
{"0": {"label": "*4", "atom_type": "Cd"}, "1": {"label": "*3", "atom_type": "Cd"}, "4": {"label": "*2", "atom_type": "H0"}, "8": {"label": "*1", "atom_type": "CS"}, "9": {"label": "*0", "atom_type": "S2d"}}

>  <type>  (15) 
unop_11

>  <geom_source>  (15) 
Heuristics

$$$$

     RDKit          3D

 13 11  0  0  0  0  0  0  0  0999 V2000
   -0.0000   -1.9127   -2.2253 C   0  0  0  0  0  0  0  0  0  0  0  0
   -0.0000   -1.9127   -0.9036 C   0  0  0  0  0  0  0  0  0  0  0  0
    0.0000   -0.9901   -2.7937 H   0  0  0  0  0  0  0  0  0  0  0  0
   -0.0000   -2.8353   -2.7937 H   0  0  0  0  0  0  0  0  0  0  0  0
   -0.0000   -0.8056   -0.2215 H   0  0  0  0  0  0  0  0  0  0  0  0
   -0.0000   -2.8353   -0.3352 H   0  0  0  0  0  0  0  0  0  0  0  0
   -0.0000    1.4837   -1.6661 C   0  0  0  0  0  0  0  0  0  0  0  0
   -0.0000    1.5199   -0.3347 C   0  0  0  0  0  0  0  0  0  0  0  0
   -0.0000    0.3096    0.4655 C   0  0  0  0  0  3  0  0  0  0  0  0
    0.0000    0.2576    2.0786 S   0  0  0  0  0  0  0  0  0  0  0  0
   -0.0000    2.3896   -2.2584 H   0  0  0  0  0  0  0  0  0  0  0  0
   -0.0000    0.5419   -2.2036 H   0  0  0  0  0  0  0  0  0  0  0  0
   -0.0000    2.4618    0.2024 H   0  0  0  0  0  0  0  0  0  0  0  0
  1  2  2  3
  1  3  1  0
  1  4  1  0
  2  5  1  0
  2  6  1  0
  7  8  2  3
  7 11  1  0
  7 12  1  0
  8  9  1  0
  8 13  1  0
  9 10  2  0
M  RAD  1   9   2
M  END
>  <reaction>  (16) 
rxn_1606

>  <mol_properties>  (16) 
{"0": {"label": "*4", "atom_type": "Cd"}, "1": {"label": "*3", "atom_type": "Cd"}, "4": {"label": "*2", "atom_type": "H0"}, "8": {"label": "*1", "atom_type": "CS"}, "9": {"label": "*0", "atom_type": "S2d"}}

>  <type>  (16) 
unop_12

>  <geom_source>  (16) 
Heuristics

$$$$

     RDKit          3D

 13 11  0  0  0  0  0  0  0  0999 V2000
   -2.5253   -1.0209    1.2294 S   0  0  0  0  0  0  0  0  0  0  0  0
   -1.4272   -0.6421   -1.1977 C   0  0  0  0  0  0  0  0  0  0  0  0
   -0.4587   -0.2112   -1.9987 C   0  0  0  0  0  0  0  0  0  0  0  0
   -1.3267   -0.4863    0.2561 C   0  0  0  0  0  3  0  0  0  0  0  0
    1.7044    0.9318    1.8240 C   0  0  0  0  0  0  0  0  0  0  0  0
    1.0783    0.2771    0.8504 C   0  0  0  0  0  0  0  0  0  0  0  0
   -2.3014   -1.1146   -1.6294 H   0  0  0  0  0  0  0  0  0  0  0  0
    0.4286    0.2655   -1.6003 H   0  0  0  0  0  0  0  0  0  0  0  0
   -0.5486   -0.3340   -3.0702 H   0  0  0  0  0  0  0  0  0  0  0  0
   -0.1843    0.1322    0.8349 H   0  0  0  0  0  0  0  0  0  0  0  0
    1.1303    1.4029    2.6141 H   0  0  0  0  0  0  0  0  0  0  0  0
    2.7876    0.9975    1.8326 H   0  0  0  0  0  0  0  0  0  0  0  0
    1.6431   -0.1980    0.0548 H   0  0  0  0  0  0  0  0  0  0  0  0
  1  4  2  0
  2  3  2  3
  2  4  1  0
  2  7  1  0
  3  8  1  0
  3  9  1  0
  5  6  2  3
  5 11  1  0
  5 12  1  0
  6 10  1  0
  6 13  1  0
M  RAD  1   4   2
M  END
>  <reaction>  (17) 
rxn_1606

>  <mol_properties>  (17) 
{"0": {"label": "*4", "atom_type": "Cd"}, "1": {"label": "*3", "atom_type": "Cd"}, "4": {"label": "*2", "atom_type": "H0"}, "8": {"label": "*1", "atom_type": "CS"}, "9": {"label": "*0", "atom_type": "S2d"}}

>  <type>  (17) 
unop_13

>  <geom_source>  (17) 
AutoTST

$$$$
