
     RDKit          3D

 10  9  0  0  0  0  0  0  0  0999 V2000
    2.2738    0.0217   -0.0992 C   0  0  0  0  0  0  0  0  0  0  0  0
    1.1083    0.2960   -0.0695 C   0  0  0  0  0  0  0  0  0  0  0  0
   -0.3173    0.6046   -0.0227 C   0  0  0  0  0  0  0  0  0  0  0  0
   -1.1561   -0.5495    0.5292 C   0  0  0  0  0  0  0  0  0  0  0  0
    3.3097   -0.2166   -0.1277 H   0  0  0  0  0  0  0  0  0  0  0  0
   -0.6542    0.8617   -1.0302 H   0  0  0  0  0  0  0  0  0  0  0  0
   -0.4633    1.4978    0.5900 H   0  0  0  0  0  0  0  0  0  0  0  0
   -0.8485   -0.7997    1.5447 H   0  0  0  0  0  0  0  0  0  0  0  0
   -2.2115   -0.2752    0.5459 H   0  0  0  0  0  0  0  0  0  0  0  0
   -1.0409   -1.4407   -0.0879 H   0  0  0  0  0  0  0  0  0  0  0  0
  1  2  3  0
  1  5  1  0
  2  3  1  0
  3  4  1  0
  3  6  1  0
  3  7  1  0
  4  8  1  0
  4  9  1  0
  4 10  1  0
M  END
>  <reaction>  (1) 
rxn_1274

>  <mol_properties>  (1) 
{"2": {"label": "donator", "atom_type": "Cs"}, "5": {"label": "d_hydrogen", "atom_type": "H0"}}

>  <type>  (1) 
r1h

$$$$

     RDKit          3D

  5  4  0  0  0  0  0  0  0  0999 V2000
    0.0397    0.7134    0.0000 C   0  0  0  0  0  3  0  0  0  0  0  0
    0.0458   -0.5870    0.0000 C   0  0  0  0  0  0  0  0  0  0  0  0
   -0.6871    1.5118    0.0000 H   0  0  0  0  0  0  0  0  0  0  0  0
   -0.8806   -1.1637    0.0000 H   0  0  0  0  0  0  0  0  0  0  0  0
    0.9690   -1.1600    0.0000 H   0  0  0  0  0  0  0  0  0  0  0  0
  1  2  2  3
  1  3  1  0
  2  4  1  0
  2  5  1  0
M  RAD  1   1   2
M  END
>  <reaction>  (2) 
rxn_1274

>  <mol_properties>  (2) 
{"0": {"label": "acceptor", "atom_type": "Cd"}}

>  <type>  (2) 
r2

$$$$

     RDKit          3D

  6  5  0  0  0  0  0  0  0  0999 V2000
    0.6594    0.0438   -0.0050 C   0  0  0  0  0  0  0  0  0  0  0  0
   -0.6594   -0.0438    0.0050 C   0  0  0  0  0  0  0  0  0  0  0  0
    1.1706    0.8681   -0.4881 H   0  0  0  0  0  0  0  0  0  0  0  0
    1.2824   -0.7051    0.4696 H   0  0  0  0  0  0  0  0  0  0  0  0
   -1.2824    0.7051   -0.4696 H   0  0  0  0  0  0  0  0  0  0  0  0
   -1.1706   -0.8681    0.4881 H   0  0  0  0  0  0  0  0  0  0  0  0
  1  2  2  3
  1  3  1  0
  1  4  1  0
  2  5  1  0
  2  6  1  0
M  END
>  <reaction>  (3) 
rxn_1274

>  <mol_properties>  (3) 
{"0": {"label": "a_hydrogen", "atom_type": "H0"}, "1": {"label": "acceptor", "atom_type": "Cd"}}

>  <type>  (3) 
r2h

$$$$

     RDKit          3D

 15 13  0  0  0  0  0  0  0  0999 V2000
   -0.6971    0.0884   -2.2167 C   0  0  0  0  0  0  0  0  0  0  0  0
   -0.8295    0.1797   -1.0263 C   0  0  0  0  0  0  0  0  0  0  0  0
   -0.9389    0.2866    0.4027 C   0  0  0  0  0  0  0  0  0  0  0  0
   -0.8206    1.6928    0.9636 C   0  0  0  0  0  0  0  0  0  0  0  0
   -0.5957    0.0096   -3.2722 H   0  0  0  0  0  0  0  0  0  0  0  0
    0.0093   -0.3575    0.8747 H   0  0  0  0  0  0  0  0  0  0  0  0
   -1.8137   -0.2472    0.7764 H   0  0  0  0  0  0  0  0  0  0  0  0
   -1.6446    2.3224    0.6223 H   0  0  0  0  0  0  0  0  0  0  0  0
   -0.8378    1.6673    2.0538 H   0  0  0  0  0  0  0  0  0  0  0  0
    0.1138    2.1552    0.6444 H   0  0  0  0  0  0  0  0  0  0  0  0
    1.2283   -1.0545    1.3171 C   0  0  0  0  0  3  0  0  0  0  0  0
    2.0040   -1.4130    0.3255 C   0  0  0  0  0  0  0  0  0  0  0  0
    1.3446   -1.1866    2.3858 H   0  0  0  0  0  0  0  0  0  0  0  0
    2.9444   -1.9361    0.4886 H   0  0  0  0  0  0  0  0  0  0  0  0
    1.7323   -1.2001   -0.7049 H   0  0  0  0  0  0  0  0  0  0  0  0
  1  2  3  0
  1  5  1  0
  2  3  1  0
  3  4  1  0
  3  6  1  0
  3  7  1  0
  4  8  1  0
  4  9  1  0
  4 10  1  0
 11 12  2  3
 11 13  1  0
 12 14  1  0
 12 15  1  0
M  RAD  1  11   2
M  END
>  <reaction>  (4) 
rxn_1274

>  <mol_properties>  (4) 
{"1": {"label": "*0", "atom_type": "Ct"}, "2": {"label": "*1", "atom_type": "Cs"}, "5": {"label": "*2", "atom_type": "H0"}, "10": {"label": "*3", "atom_type": "Cd"}, "11": {"label": "*4", "atom_type": "Cd"}}

>  <type>  (4) 
ts

$$$$

     RDKit          3D

 15 13  0  0  0  0  0  0  0  0999 V2000
   -0.8639    0.0576   -2.5493 C   0  0  0  0  0  0  0  0  0  0  0  0
   -0.8639    0.0576   -1.3516 C   0  0  0  0  0  0  0  0  0  0  0  0
   -0.8639    0.0859    0.1076 C   0  0  0  0  0  3  0  0  0  0  0  0
   -0.8639    1.5072    0.6732 C   0  0  0  0  0  0  0  0  0  0  0  0
   -0.8639    0.0576   -3.6126 H   0  0  0  0  0  0  0  0  0  0  0  0
    0.1867   -0.5682    0.5416 H   0  0  0  0  0  0  0  0  0  0  0  0
   -1.7394   -0.4592    0.4693 H   0  0  0  0  0  0  0  0  0  0  0  0
   -1.7461    2.0551    0.3417 H   0  0  0  0  0  0  0  0  0  0  0  0
   -0.8639    1.4800    1.7634 H   0  0  0  0  0  0  0  0  0  0  0  0
    0.0183    2.0551    0.3417 H   0  0  0  0  0  0  0  0  0  0  0  0
    1.2283   -1.2168    0.9720 C   0  0  0  0  0  0  0  0  0  0  0  0
    2.1505   -0.6317    1.7163 C   0  0  0  0  0  0  0  0  0  0  0  0
    0.8294   -2.1924    1.2238 H   0  0  0  0  0  0  0  0  0  0  0  0
    2.5448   -1.1040    2.6084 H   0  0  0  0  0  0  0  0  0  0  0  0
    2.5494    0.3439    1.4645 H   0  0  0  0  0  0  0  0  0  0  0  0
  1  2  3  0
  1  5  1  0
  2  3  1  0
  3  4  1  0
  3  7  1  0
  4  8  1  0
  4  9  1  0
  4 10  1  0
  6 11  1  0
 11 12  2  3
 11 13  1  0
 12 14  1  0
 12 15  1  0
M  RAD  1   3   2
M  END
>  <reaction>  (5) 
rxn_1274

>  <mol_properties>  (5) 
{"1": {"label": "*0", "atom_type": "Ct"}, "2": {"label": "*1", "atom_type": "Cs"}, "5": {"label": "*2", "atom_type": "H0"}, "10": {"label": "*3", "atom_type": "Cd"}, "11": {"label": "*4", "atom_type": "Cd"}}

>  <type>  (5) 
unop_1

>  <geom_source>  (5) 
Heuristics

$$$$

     RDKit          3D

 15 13  0  0  0  0  0  0  0  0999 V2000
   -0.9050    0.1659   -2.2943 C   0  0  0  0  0  0  0  0  0  0  0  0
   -0.9050    0.1659   -1.0966 C   0  0  0  0  0  0  0  0  0  0  0  0
   -0.9050    0.1941    0.3626 C   0  0  0  0  0  3  0  0  0  0  0  0
   -0.9050    1.6155    0.9282 C   0  0  0  0  0  0  0  0  0  0  0  0
   -0.9050    0.1659   -3.3576 H   0  0  0  0  0  0  0  0  0  0  0  0
    0.1456   -0.4600    0.7966 H   0  0  0  0  0  0  0  0  0  0  0  0
   -1.7805   -0.3509    0.7243 H   0  0  0  0  0  0  0  0  0  0  0  0
   -1.7872    2.1634    0.5967 H   0  0  0  0  0  0  0  0  0  0  0  0
   -0.9050    1.5882    2.0184 H   0  0  0  0  0  0  0  0  0  0  0  0
   -0.0227    2.1634    0.5967 H   0  0  0  0  0  0  0  0  0  0  0  0
    1.1873   -1.1085    1.2270 C   0  0  0  0  0  0  0  0  0  0  0  0
    2.3076   -1.1632    0.5277 C   0  0  0  0  0  0  0  0  0  0  0  0
    1.1651   -1.3446    2.2843 H   0  0  0  0  0  0  0  0  0  0  0  0
    3.2489   -1.4463    0.9837 H   0  0  0  0  0  0  0  0  0  0  0  0
    2.3297   -0.9272   -0.5296 H   0  0  0  0  0  0  0  0  0  0  0  0
  1  2  3  0
  1  5  1  0
  2  3  1  0
  3  4  1  0
  3  7  1  0
  4  8  1  0
  4  9  1  0
  4 10  1  0
  6 11  1  0
 11 12  2  3
 11 13  1  0
 12 14  1  0
 12 15  1  0
M  RAD  1   3   2
M  END
>  <reaction>  (6) 
rxn_1274

>  <mol_properties>  (6) 
{"1": {"label": "*0", "atom_type": "Ct"}, "2": {"label": "*1", "atom_type": "Cs"}, "5": {"label": "*2", "atom_type": "H0"}, "10": {"label": "*3", "atom_type": "Cd"}, "11": {"label": "*4", "atom_type": "Cd"}}

>  <type>  (6) 
unop_2

>  <geom_source>  (6) 
Heuristics

$$$$

     RDKit          3D

 15 13  0  0  0  0  0  0  0  0999 V2000
   -0.8068    0.1079   -2.6147 C   0  0  0  0  0  0  0  0  0  0  0  0
   -0.8068    0.1079   -1.4170 C   0  0  0  0  0  0  0  0  0  0  0  0
   -0.8068    0.1361    0.0421 C   0  0  0  0  0  3  0  0  0  0  0  0
   -0.8067    1.5575    0.6077 C   0  0  0  0  0  0  0  0  0  0  0  0
   -0.8068    0.1079   -3.6780 H   0  0  0  0  0  0  0  0  0  0  0  0
    0.2438   -0.5180    0.4762 H   0  0  0  0  0  0  0  0  0  0  0  0
   -1.6823   -0.4089    0.4038 H   0  0  0  0  0  0  0  0  0  0  0  0
   -1.6890    2.1054    0.2763 H   0  0  0  0  0  0  0  0  0  0  0  0
   -0.8067    1.5302    1.6980 H   0  0  0  0  0  0  0  0  0  0  0  0
    0.0755    2.1054    0.2763 H   0  0  0  0  0  0  0  0  0  0  0  0
    1.2855   -1.1665    0.9065 C   0  0  0  0  0  0  0  0  0  0  0  0
    1.8761   -0.8516    2.0463 C   0  0  0  0  0  0  0  0  0  0  0  0
    1.1837   -2.1962    0.5846 H   0  0  0  0  0  0  0  0  0  0  0  0
    2.2823   -1.6105    2.7046 H   0  0  0  0  0  0  0  0  0  0  0  0
    1.9779    0.1780    2.3682 H   0  0  0  0  0  0  0  0  0  0  0  0
  1  2  3  0
  1  5  1  0
  2  3  1  0
  3  4  1  0
  3  7  1  0
  4  8  1  0
  4  9  1  0
  4 10  1  0
  6 11  1  0
 11 12  2  3
 11 13  1  0
 12 14  1  0
 12 15  1  0
M  RAD  1   3   2
M  END
>  <reaction>  (7) 
rxn_1274

>  <mol_properties>  (7) 
{"1": {"label": "*0", "atom_type": "Ct"}, "2": {"label": "*1", "atom_type": "Cs"}, "5": {"label": "*2", "atom_type": "H0"}, "10": {"label": "*3", "atom_type": "Cd"}, "11": {"label": "*4", "atom_type": "Cd"}}

>  <type>  (7) 
unop_3

>  <geom_source>  (7) 
Heuristics

$$$$

     RDKit          3D

 15 13  0  0  0  0  0  0  0  0999 V2000
   -0.7384    0.3820   -2.3688 C   0  0  0  0  0  0  0  0  0  0  0  0
   -0.7384    0.3820   -1.1711 C   0  0  0  0  0  0  0  0  0  0  0  0
   -0.7384    0.4102    0.2881 C   0  0  0  0  0  3  0  0  0  0  0  0
   -0.7384    1.8316    0.8537 C   0  0  0  0  0  0  0  0  0  0  0  0
   -0.7384    0.3820   -3.4321 H   0  0  0  0  0  0  0  0  0  0  0  0
    0.3122   -0.2439    0.7222 H   0  0  0  0  0  0  0  0  0  0  0  0
   -1.6139   -0.1349    0.6498 H   0  0  0  0  0  0  0  0  0  0  0  0
   -1.6206    2.3794    0.5222 H   0  0  0  0  0  0  0  0  0  0  0  0
   -0.7384    1.8043    1.9440 H   0  0  0  0  0  0  0  0  0  0  0  0
    0.1439    2.3794    0.5222 H   0  0  0  0  0  0  0  0  0  0  0  0
    1.3539   -0.8925    1.1525 C   0  0  0  0  0  0  0  0  0  0  0  0
    1.5424   -2.1692    0.8670 C   0  0  0  0  0  0  0  0  0  0  0  0
    1.6904   -0.4638    2.0891 H   0  0  0  0  0  0  0  0  0  0  0  0
    2.0410   -2.8385    1.5581 H   0  0  0  0  0  0  0  0  0  0  0  0
    1.2059   -2.5979   -0.0695 H   0  0  0  0  0  0  0  0  0  0  0  0
  1  2  3  0
  1  5  1  0
  2  3  1  0
  3  4  1  0
  3  7  1  0
  4  8  1  0
  4  9  1  0
  4 10  1  0
  6 11  1  0
 11 12  2  3
 11 13  1  0
 12 14  1  0
 12 15  1  0
M  RAD  1   3   2
M  END
>  <reaction>  (8) 
rxn_1274

>  <mol_properties>  (8) 
{"1": {"label": "*0", "atom_type": "Ct"}, "2": {"label": "*1", "atom_type": "Cs"}, "5": {"label": "*2", "atom_type": "H0"}, "10": {"label": "*3", "atom_type": "Cd"}, "11": {"label": "*4", "atom_type": "Cd"}}

>  <type>  (8) 
unop_4

>  <geom_source>  (8) 
Heuristics

$$$$

     RDKit          3D

 15 13  0  0  0  0  0  0  0  0999 V2000
   -0.7535    0.1825   -2.6372 C   0  0  0  0  0  0  0  0  0  0  0  0
   -0.7535    0.1825   -1.4395 C   0  0  0  0  0  0  0  0  0  0  0  0
   -0.7535    0.2108    0.0197 C   0  0  0  0  0  3  0  0  0  0  0  0
   -0.7535    1.6321    0.5853 C   0  0  0  0  0  0  0  0  0  0  0  0
   -0.7535    0.1825   -3.7005 H   0  0  0  0  0  0  0  0  0  0  0  0
    0.2971   -0.4434    0.4537 H   0  0  0  0  0  0  0  0  0  0  0  0
   -1.6290   -0.3343    0.3814 H   0  0  0  0  0  0  0  0  0  0  0  0
   -1.6357    2.1800    0.2538 H   0  0  0  0  0  0  0  0  0  0  0  0
   -0.7535    1.6048    1.6755 H   0  0  0  0  0  0  0  0  0  0  0  0
    0.1287    2.1800    0.2538 H   0  0  0  0  0  0  0  0  0  0  0  0
    1.3387   -1.0919    0.8841 C   0  0  0  0  0  0  0  0  0  0  0  0
    1.5883   -1.2243    2.1753 C   0  0  0  0  0  0  0  0  0  0  0  0
    1.9921   -1.5185    0.1322 H   0  0  0  0  0  0  0  0  0  0  0  0
    2.4563   -1.7648    2.5339 H   0  0  0  0  0  0  0  0  0  0  0  0
    0.9349   -0.7977    2.9271 H   0  0  0  0  0  0  0  0  0  0  0  0
  1  2  3  0
  1  5  1  0
  2  3  1  0
  3  4  1  0
  3  7  1  0
  4  8  1  0
  4  9  1  0
  4 10  1  0
  6 11  1  0
 11 12  2  3
 11 13  1  0
 12 14  1  0
 12 15  1  0
M  RAD  1   3   2
M  END
>  <reaction>  (9) 
rxn_1274

>  <mol_properties>  (9) 
{"1": {"label": "*0", "atom_type": "Ct"}, "2": {"label": "*1", "atom_type": "Cs"}, "5": {"label": "*2", "atom_type": "H0"}, "10": {"label": "*3", "atom_type": "Cd"}, "11": {"label": "*4", "atom_type": "Cd"}}

>  <type>  (9) 
unop_5

>  <geom_source>  (9) 
Heuristics

$$$$

     RDKit          3D

 15 13  0  0  0  0  0  0  0  0999 V2000
   -0.6977    0.3826   -2.4633 C   0  0  0  0  0  0  0  0  0  0  0  0
   -0.6977    0.3826   -1.2656 C   0  0  0  0  0  0  0  0  0  0  0  0
   -0.6977    0.4108    0.1936 C   0  0  0  0  0  3  0  0  0  0  0  0
   -0.6977    1.8322    0.7592 C   0  0  0  0  0  0  0  0  0  0  0  0
   -0.6977    0.3826   -3.5266 H   0  0  0  0  0  0  0  0  0  0  0  0
    0.3529   -0.2433    0.6276 H   0  0  0  0  0  0  0  0  0  0  0  0
   -1.5732   -0.1343    0.5553 H   0  0  0  0  0  0  0  0  0  0  0  0
   -1.5799    2.3800    0.4277 H   0  0  0  0  0  0  0  0  0  0  0  0
   -0.6977    1.8049    1.8495 H   0  0  0  0  0  0  0  0  0  0  0  0
    0.1845    2.3800    0.4277 H   0  0  0  0  0  0  0  0  0  0  0  0
    1.3945   -0.8919    1.0580 C   0  0  0  0  0  0  0  0  0  0  0  0
    1.3498   -2.1894    1.3059 C   0  0  0  0  0  0  0  0  0  0  0  0
    1.9042   -0.2036    1.7219 H   0  0  0  0  0  0  0  0  0  0  0  0
    1.8209   -2.6171    2.1830 H   0  0  0  0  0  0  0  0  0  0  0  0
    0.8401   -2.8776    0.6419 H   0  0  0  0  0  0  0  0  0  0  0  0
  1  2  3  0
  1  5  1  0
  2  3  1  0
  3  4  1  0
  3  7  1  0
  4  8  1  0
  4  9  1  0
  4 10  1  0
  6 11  1  0
 11 12  2  3
 11 13  1  0
 12 14  1  0
 12 15  1  0
M  RAD  1   3   2
M  END
>  <reaction>  (10) 
rxn_1274

>  <mol_properties>  (10) 
{"1": {"label": "*0", "atom_type": "Ct"}, "2": {"label": "*1", "atom_type": "Cs"}, "5": {"label": "*2", "atom_type": "H0"}, "10": {"label": "*3", "atom_type": "Cd"}, "11": {"label": "*4", "atom_type": "Cd"}}

>  <type>  (10) 
unop_6

>  <geom_source>  (10) 
Heuristics

$$$$

     RDKit          3D

 15 13  0  0  0  0  0  0  0  0999 V2000
   -0.6869    0.3383   -2.5547 C   0  0  0  0  0  0  0  0  0  0  0  0
   -0.6869    0.3383   -1.3570 C   0  0  0  0  0  0  0  0  0  0  0  0
   -0.6869    0.3666    0.1021 C   0  0  0  0  0  3  0  0  0  0  0  0
   -0.6869    1.7879    0.6677 C   0  0  0  0  0  0  0  0  0  0  0  0
   -0.6869    0.3383   -3.6180 H   0  0  0  0  0  0  0  0  0  0  0  0
    0.3637   -0.2875    0.5362 H   0  0  0  0  0  0  0  0  0  0  0  0
   -1.5624   -0.1785    0.4638 H   0  0  0  0  0  0  0  0  0  0  0  0
   -1.5691    2.3358    0.3363 H   0  0  0  0  0  0  0  0  0  0  0  0
   -0.6869    1.7607    1.7580 H   0  0  0  0  0  0  0  0  0  0  0  0
    0.1953    2.3358    0.3363 H   0  0  0  0  0  0  0  0  0  0  0  0
    1.4053   -0.9361    0.9665 C   0  0  0  0  0  0  0  0  0  0  0  0
    1.2881   -1.9994    1.7428 C   0  0  0  0  0  0  0  0  0  0  0  0
    2.1178   -0.1492    1.1843 H   0  0  0  0  0  0  0  0  0  0  0  0
    1.8997   -2.1270    2.6282 H   0  0  0  0  0  0  0  0  0  0  0  0
    0.5756   -2.7863    1.5251 H   0  0  0  0  0  0  0  0  0  0  0  0
  1  2  3  0
  1  5  1  0
  2  3  1  0
  3  4  1  0
  3  7  1  0
  4  8  1  0
  4  9  1  0
  4 10  1  0
  6 11  1  0
 11 12  2  3
 11 13  1  0
 12 14  1  0
 12 15  1  0
M  RAD  1   3   2
M  END
>  <reaction>  (11) 
rxn_1274

>  <mol_properties>  (11) 
{"1": {"label": "*0", "atom_type": "Ct"}, "2": {"label": "*1", "atom_type": "Cs"}, "5": {"label": "*2", "atom_type": "H0"}, "10": {"label": "*3", "atom_type": "Cd"}, "11": {"label": "*4", "atom_type": "Cd"}}

>  <type>  (11) 
unop_7

>  <geom_source>  (11) 
Heuristics

$$$$

     RDKit          3D

 15 13  0  0  0  0  0  0  0  0999 V2000
   -0.9069    0.0509   -2.4569 C   0  0  0  0  0  0  0  0  0  0  0  0
   -0.9069    0.0509   -1.2592 C   0  0  0  0  0  0  0  0  0  0  0  0
   -0.9069    0.0791    0.2000 C   0  0  0  0  0  3  0  0  0  0  0  0
   -0.9069    1.5005    0.7656 C   0  0  0  0  0  0  0  0  0  0  0  0
   -0.9069    0.0509   -3.5202 H   0  0  0  0  0  0  0  0  0  0  0  0
    0.1437   -0.5750    0.6341 H   0  0  0  0  0  0  0  0  0  0  0  0
   -1.7824   -0.4660    0.5617 H   0  0  0  0  0  0  0  0  0  0  0  0
   -1.7891    2.0483    0.4341 H   0  0  0  0  0  0  0  0  0  0  0  0
   -0.9069    1.4732    1.8559 H   0  0  0  0  0  0  0  0  0  0  0  0
   -0.0246    2.0483    0.4341 H   0  0  0  0  0  0  0  0  0  0  0  0
    1.1854   -1.2236    1.0644 C   0  0  0  0  0  0  0  0  0  0  0  0
    2.3409   -0.6176    1.2755 C   0  0  0  0  0  0  0  0  0  0  0  0
    0.7958   -1.9613    1.7559 H   0  0  0  0  0  0  0  0  0  0  0  0
    2.9452   -0.8342    2.1485 H   0  0  0  0  0  0  0  0  0  0  0  0
    2.7305    0.1201    0.5840 H   0  0  0  0  0  0  0  0  0  0  0  0
  1  2  3  0
  1  5  1  0
  2  3  1  0
  3  4  1  0
  3  7  1  0
  4  8  1  0
  4  9  1  0
  4 10  1  0
  6 11  1  0
 11 12  2  3
 11 13  1  0
 12 14  1  0
 12 15  1  0
M  RAD  1   3   2
M  END
>  <reaction>  (12) 
rxn_1274

>  <mol_properties>  (12) 
{"1": {"label": "*0", "atom_type": "Ct"}, "2": {"label": "*1", "atom_type": "Cs"}, "5": {"label": "*2", "atom_type": "H0"}, "10": {"label": "*3", "atom_type": "Cd"}, "11": {"label": "*4", "atom_type": "Cd"}}

>  <type>  (12) 
unop_8

>  <geom_source>  (12) 
Heuristics

$$$$

     RDKit          3D

 15 13  0  0  0  0  0  0  0  0999 V2000
   -0.7978    0.3358   -2.2976 C   0  0  0  0  0  0  0  0  0  0  0  0
   -0.7978    0.3358   -1.0999 C   0  0  0  0  0  0  0  0  0  0  0  0
   -0.7978    0.3640    0.3593 C   0  0  0  0  0  3  0  0  0  0  0  0
   -0.7978    1.7854    0.9249 C   0  0  0  0  0  0  0  0  0  0  0  0
   -0.7978    0.3358   -3.3609 H   0  0  0  0  0  0  0  0  0  0  0  0
    0.2528   -0.2901    0.7933 H   0  0  0  0  0  0  0  0  0  0  0  0
   -1.6734   -0.1810    0.7210 H   0  0  0  0  0  0  0  0  0  0  0  0
   -1.6800    2.3333    0.5934 H   0  0  0  0  0  0  0  0  0  0  0  0
   -0.7978    1.7581    2.0152 H   0  0  0  0  0  0  0  0  0  0  0  0
    0.0844    2.3333    0.5934 H   0  0  0  0  0  0  0  0  0  0  0  0
    1.2944   -0.9386    1.2237 C   0  0  0  0  0  0  0  0  0  0  0  0
    1.8145   -1.9451    0.5429 C   0  0  0  0  0  0  0  0  0  0  0  0
    1.5162   -0.7878    2.2736 H   0  0  0  0  0  0  0  0  0  0  0  0
    2.4837   -2.6598    1.0072 H   0  0  0  0  0  0  0  0  0  0  0  0
    1.5927   -2.0959   -0.5070 H   0  0  0  0  0  0  0  0  0  0  0  0
  1  2  3  0
  1  5  1  0
  2  3  1  0
  3  4  1  0
  3  7  1  0
  4  8  1  0
  4  9  1  0
  4 10  1  0
  6 11  1  0
 11 12  2  3
 11 13  1  0
 12 14  1  0
 12 15  1  0
M  RAD  1   3   2
M  END
>  <reaction>  (13) 
rxn_1274

>  <mol_properties>  (13) 
{"1": {"label": "*0", "atom_type": "Ct"}, "2": {"label": "*1", "atom_type": "Cs"}, "5": {"label": "*2", "atom_type": "H0"}, "10": {"label": "*3", "atom_type": "Cd"}, "11": {"label": "*4", "atom_type": "Cd"}}

>  <type>  (13) 
unop_9

>  <geom_source>  (13) 
Heuristics

$$$$

     RDKit          3D

 15 13  0  0  0  0  0  0  0  0999 V2000
   -0.9222    0.0904   -2.3631 C   0  0  0  0  0  0  0  0  0  0  0  0
   -0.9222    0.0904   -1.1654 C   0  0  0  0  0  0  0  0  0  0  0  0
   -0.9222    0.1187    0.2937 C   0  0  0  0  0  3  0  0  0  0  0  0
   -0.9222    1.5400    0.8593 C   0  0  0  0  0  0  0  0  0  0  0  0
   -0.9222    0.0904   -3.4264 H   0  0  0  0  0  0  0  0  0  0  0  0
    0.1284   -0.5355    0.7278 H   0  0  0  0  0  0  0  0  0  0  0  0
   -1.7977   -0.4264    0.6555 H   0  0  0  0  0  0  0  0  0  0  0  0
   -1.8044    2.0879    0.5279 H   0  0  0  0  0  0  0  0  0  0  0  0
   -0.9222    1.5127    1.9496 H   0  0  0  0  0  0  0  0  0  0  0  0
   -0.0400    2.0879    0.5279 H   0  0  0  0  0  0  0  0  0  0  0  0
    1.1700   -1.1840    1.1582 C   0  0  0  0  0  0  0  0  0  0  0  0
    2.3981   -0.8122    0.8408 C   0  0  0  0  0  0  0  0  0  0  0  0
    0.9447   -1.6463    2.1120 H   0  0  0  0  0  0  0  0  0  0  0  0
    3.2289   -0.9548    1.5217 H   0  0  0  0  0  0  0  0  0  0  0  0
    2.6234   -0.3500   -0.1130 H   0  0  0  0  0  0  0  0  0  0  0  0
  1  2  3  0
  1  5  1  0
  2  3  1  0
  3  4  1  0
  3  7  1  0
  4  8  1  0
  4  9  1  0
  4 10  1  0
  6 11  1  0
 11 12  2  3
 11 13  1  0
 12 14  1  0
 12 15  1  0
M  RAD  1   3   2
M  END
>  <reaction>  (14) 
rxn_1274

>  <mol_properties>  (14) 
{"1": {"label": "*0", "atom_type": "Ct"}, "2": {"label": "*1", "atom_type": "Cs"}, "5": {"label": "*2", "atom_type": "H0"}, "10": {"label": "*3", "atom_type": "Cd"}, "11": {"label": "*4", "atom_type": "Cd"}}

>  <type>  (14) 
unop_10

>  <geom_source>  (14) 
Heuristics

$$$$

     RDKit          3D

 15 13  0  0  0  0  0  0  0  0999 V2000
   -0.7088    0.2633   -2.6177 C   0  0  0  0  0  0  0  0  0  0  0  0
   -0.7088    0.2633   -1.4200 C   0  0  0  0  0  0  0  0  0  0  0  0
   -0.7088    0.2915    0.0391 C   0  0  0  0  0  3  0  0  0  0  0  0
   -0.7088    1.7129    0.6047 C   0  0  0  0  0  0  0  0  0  0  0  0
   -0.7088    0.2633   -3.6811 H   0  0  0  0  0  0  0  0  0  0  0  0
    0.3418   -0.3626    0.4732 H   0  0  0  0  0  0  0  0  0  0  0  0
   -1.5843   -0.2536    0.4008 H   0  0  0  0  0  0  0  0  0  0  0  0
   -1.5910    2.2608    0.2733 H   0  0  0  0  0  0  0  0  0  0  0  0
   -0.7088    1.6856    1.6950 H   0  0  0  0  0  0  0  0  0  0  0  0
    0.1735    2.2607    0.2733 H   0  0  0  0  0  0  0  0  0  0  0  0
    1.3835   -1.0111    0.9035 C   0  0  0  0  0  0  0  0  0  0  0  0
    1.3739   -1.6480    2.0617 C   0  0  0  0  0  0  0  0  0  0  0  0
    2.2629   -0.4849    0.5515 H   0  0  0  0  0  0  0  0  0  0  0  0
    2.2451   -1.6694    2.7057 H   0  0  0  0  0  0  0  0  0  0  0  0
    0.4945   -2.1743    2.4137 H   0  0  0  0  0  0  0  0  0  0  0  0
  1  2  3  0
  1  5  1  0
  2  3  1  0
  3  4  1  0
  3  7  1  0
  4  8  1  0
  4  9  1  0
  4 10  1  0
  6 11  1  0
 11 12  2  3
 11 13  1  0
 12 14  1  0
 12 15  1  0
M  RAD  1   3   2
M  END
>  <reaction>  (15) 
rxn_1274

>  <mol_properties>  (15) 
{"1": {"label": "*0", "atom_type": "Ct"}, "2": {"label": "*1", "atom_type": "Cs"}, "5": {"label": "*2", "atom_type": "H0"}, "10": {"label": "*3", "atom_type": "Cd"}, "11": {"label": "*4", "atom_type": "Cd"}}

>  <type>  (15) 
unop_11

>  <geom_source>  (15) 
Heuristics

$$$$

     RDKit          3D

 15 13  0  0  0  0  0  0  0  0999 V2000
   -0.8593    0.2563   -2.2701 C   0  0  0  0  0  0  0  0  0  0  0  0
   -0.8593    0.2563   -1.0724 C   0  0  0  0  0  0  0  0  0  0  0  0
   -0.8593    0.2845    0.3868 C   0  0  0  0  0  3  0  0  0  0  0  0
   -0.8593    1.7059    0.9524 C   0  0  0  0  0  0  0  0  0  0  0  0
   -0.8593    0.2563   -3.3334 H   0  0  0  0  0  0  0  0  0  0  0  0
    0.1913   -0.3696    0.8208 H   0  0  0  0  0  0  0  0  0  0  0  0
   -1.7348   -0.2605    0.7485 H   0  0  0  0  0  0  0  0  0  0  0  0
   -1.7415    2.2538    0.6209 H   0  0  0  0  0  0  0  0  0  0  0  0
   -0.8593    1.6786    2.0426 H   0  0  0  0  0  0  0  0  0  0  0  0
    0.0230    2.2538    0.6209 H   0  0  0  0  0  0  0  0  0  0  0  0
    1.2330   -1.0181    1.2512 C   0  0  0  0  0  0  0  0  0  0  0  0
    2.0942   -1.5773    0.4189 C   0  0  0  0  0  0  0  0  0  0  0  0
    1.3604   -1.0777    2.3256 H   0  0  0  0  0  0  0  0  0  0  0  0
    2.9622   -2.1177    0.7775 H   0  0  0  0  0  0  0  0  0  0  0  0
    1.9668   -1.5177   -0.6556 H   0  0  0  0  0  0  0  0  0  0  0  0
  1  2  3  0
  1  5  1  0
  2  3  1  0
  3  4  1  0
  3  7  1  0
  4  8  1  0
  4  9  1  0
  4 10  1  0
  6 11  1  0
 11 12  2  3
 11 13  1  0
 12 14  1  0
 12 15  1  0
M  RAD  1   3   2
M  END
>  <reaction>  (16) 
rxn_1274

>  <mol_properties>  (16) 
{"1": {"label": "*0", "atom_type": "Ct"}, "2": {"label": "*1", "atom_type": "Cs"}, "5": {"label": "*2", "atom_type": "H0"}, "10": {"label": "*3", "atom_type": "Cd"}, "11": {"label": "*4", "atom_type": "Cd"}}

>  <type>  (16) 
unop_12

>  <geom_source>  (16) 
Heuristics

$$$$

     RDKit          3D

 15 13  0  0  0  0  0  0  0  0999 V2000
    1.2520   -1.5934    0.5606 C   0  0  0  0  0  0  0  0  0  0  0  0
    0.6485   -0.7057   -0.5180 C   0  0  0  0  0  3  0  0  0  0  0  0
   -1.7686    0.1583   -0.1732 C   0  0  0  0  0  0  0  0  0  0  0  0
   -2.3811    1.1944    0.3943 C   0  0  0  0  0  0  0  0  0  0  0  0
    1.3099    0.6034   -0.5445 C   0  0  0  0  0  0  0  0  0  0  0  0
    1.8528    1.6796   -0.5668 C   0  0  0  0  0  0  0  0  0  0  0  0
    2.3315   -1.7670    0.3617 H   0  0  0  0  0  0  0  0  0  0  0  0
    1.1302   -1.1206    1.5584 H   0  0  0  0  0  0  0  0  0  0  0  0
    0.7271   -2.5712    0.5661 H   0  0  0  0  0  0  0  0  0  0  0  0
    0.7511   -1.1917   -1.5111 H   0  0  0  0  0  0  0  0  0  0  0  0
   -2.3296   -0.5411   -0.7845 H   0  0  0  0  0  0  0  0  0  0  0  0
   -0.5896   -0.0083   -0.0113 H   0  0  0  0  0  0  0  0  0  0  0  0
   -1.8181    1.8922    1.0050 H   0  0  0  0  0  0  0  0  0  0  0  0
   -3.4458    1.3470    0.2496 H   0  0  0  0  0  0  0  0  0  0  0  0
    2.3296    2.6242   -0.5863 H   0  0  0  0  0  0  0  0  0  0  0  0
  1  2  1  0
  1  7  1  0
  1  8  1  0
  1  9  1  0
  2  5  1  0
  2 10  1  0
  3  4  2  3
  3 11  1  0
  3 12  1  0
  4 13  1  0
  4 14  1  0
  5  6  3  0
  6 15  1  0
M  RAD  1   2   2
M  END
>  <reaction>  (17) 
rxn_1274

>  <mol_properties>  (17) 
{"1": {"label": "*0", "atom_type": "Ct"}, "2": {"label": "*1", "atom_type": "Cs"}, "5": {"label": "*2", "atom_type": "H0"}, "10": {"label": "*3", "atom_type": "Cd"}, "11": {"label": "*4", "atom_type": "Cd"}}

>  <type>  (17) 
unop_13

>  <geom_source>  (17) 
AutoTST

$$$$
