
     RDKit          3D

  9  8  0  0  0  0  0  0  0  0999 V2000
    1.1303   -0.2933   -0.7510 C   0  0  0  0  0  0  0  0  0  0  0  0
    0.2866    0.4560   -0.0588 C   0  0  0  0  0  0  0  0  0  0  0  0
   -0.9719   -0.0331    0.5823 C   0  0  0  0  0  0  0  0  0  0  0  0
    2.0274    0.1230   -1.1916 H   0  0  0  0  0  0  0  0  0  0  0  0
    0.9532   -1.3530   -0.9023 H   0  0  0  0  0  0  0  0  0  0  0  0
    0.5065    1.5132    0.0659 H   0  0  0  0  0  0  0  0  0  0  0  0
   -0.9526    0.1426    1.6610 H   0  0  0  0  0  0  0  0  0  0  0  0
   -1.1182   -1.1002    0.4106 H   0  0  0  0  0  0  0  0  0  0  0  0
   -1.8412    0.5010    0.1901 H   0  0  0  0  0  0  0  0  0  0  0  0
  1  2  2  3
  1  4  1  0
  1  5  1  0
  2  3  1  0
  2  6  1  0
  3  7  1  0
  3  8  1  0
  3  9  1  0
M  END
>  <reaction>  (1) 
rxn_414

>  <mol_properties>  (1) 
{"2": {"label": "donator", "atom_type": "Cs"}, "6": {"label": "d_hydrogen", "atom_type": "H0"}}

>  <type>  (1) 
r1h

$$$$

     RDKit          3D

 14 13  0  0  0  0  0  0  0  0999 V2000
   -1.1038   -1.2820   -0.0831 C   0  0  0  0  0  0  0  0  0  0  0  0
   -0.3738   -0.0303    0.3958 C   0  0  0  0  0  0  0  0  0  0  0  0
    1.0799   -0.0135   -0.1022 C   0  0  0  0  0  0  0  0  0  0  0  0
   -0.4539    0.0783    1.8774 C   0  0  0  0  0  3  0  0  0  0  0  0
   -0.0196    1.2652    2.3945 O   0  0  0  0  0  0  0  0  0  0  0  0
   -0.6387   -2.1819    0.3292 H   0  0  0  0  0  0  0  0  0  0  0  0
   -1.0649   -1.3593   -1.1709 H   0  0  0  0  0  0  0  0  0  0  0  0
   -2.1510   -1.2728    0.2226 H   0  0  0  0  0  0  0  0  0  0  0  0
   -0.8759    0.8495   -0.0235 H   0  0  0  0  0  0  0  0  0  0  0  0
    1.1145   -0.0235   -1.1941 H   0  0  0  0  0  0  0  0  0  0  0  0
    1.6194   -0.8920    0.2618 H   0  0  0  0  0  0  0  0  0  0  0  0
    1.6007    0.8771    0.2500 H   0  0  0  0  0  0  0  0  0  0  0  0
   -0.3212   -0.8061    2.4983 H   0  0  0  0  0  0  0  0  0  0  0  0
   -0.0217    1.2207    3.3511 H   0  0  0  0  0  0  0  0  0  0  0  0
  1  2  1  0
  1  6  1  0
  1  7  1  0
  1  8  1  0
  2  3  1  0
  2  4  1  0
  2  9  1  0
  3 10  1  0
  3 11  1  0
  3 12  1  0
  4  5  1  0
  4 13  1  0
  5 14  1  0
M  RAD  1   4   2
M  END
>  <reaction>  (2) 
rxn_414

>  <mol_properties>  (2) 
{"3": {"label": "acceptor", "atom_type": "Cs"}}

>  <type>  (2) 
r2

$$$$

     RDKit          3D

 15 14  0  0  0  0  0  0  0  0999 V2000
   -0.6986    1.3249   -0.1641 C   0  0  0  0  0  0  0  0  0  0  0  0
   -0.2590   -0.0344    0.3671 C   0  0  0  0  0  0  0  0  0  0  0  0
   -0.4734   -0.1429    1.8733 C   0  0  0  0  0  0  0  0  0  0  0  0
   -0.9841   -1.1722   -0.3462 C   0  0  0  0  0  0  0  0  0  0  0  0
   -0.7805   -1.1911   -1.7444 O   0  0  0  0  0  0  0  0  0  0  0  0
   -0.1246    2.1306    0.2976 H   0  0  0  0  0  0  0  0  0  0  0  0
   -1.7557    1.4964    0.0581 H   0  0  0  0  0  0  0  0  0  0  0  0
   -0.5709    1.3852   -1.2449 H   0  0  0  0  0  0  0  0  0  0  0  0
    0.8141   -0.1541    0.1667 H   0  0  0  0  0  0  0  0  0  0  0  0
   -1.5346   -0.0466    2.1192 H   0  0  0  0  0  0  0  0  0  0  0  0
    0.0611    0.6480    2.4019 H   0  0  0  0  0  0  0  0  0  0  0  0
   -0.1249   -1.1023    2.2618 H   0  0  0  0  0  0  0  0  0  0  0  0
   -0.6918   -2.1316    0.1011 H   0  0  0  0  0  0  0  0  0  0  0  0
   -2.0629   -1.0627   -0.2056 H   0  0  0  0  0  0  0  0  0  0  0  0
    0.1528   -1.3298   -1.9125 H   0  0  0  0  0  0  0  0  0  0  0  0
  1  2  1  0
  1  6  1  0
  1  7  1  0
  1  8  1  0
  2  3  1  0
  2  4  1  0
  2  9  1  0
  3 10  1  0
  3 11  1  0
  3 12  1  0
  4  5  1  0
  4 13  1  0
  4 14  1  0
  5 15  1  0
M  END
>  <reaction>  (3) 
rxn_414

>  <mol_properties>  (3) 
{"3": {"label": "acceptor", "atom_type": "Cs"}, "14": {"label": "a_hydrogen", "atom_type": "H0"}}

>  <type>  (3) 
r2h

$$$$

     RDKit          3D

 23 21  0  0  0  0  0  0  0  0999 V2000
   -0.3129   -1.4746    1.8731 C   0  0  0  0  0  0  0  0  0  0  0  0
   -0.4658    0.0438    1.8344 C   0  0  0  0  0  0  0  0  0  0  0  0
    0.6699    0.7407    2.5772 C   0  0  0  0  0  0  0  0  0  0  0  0
   -0.5439    0.5597    0.4230 C   0  0  0  0  0  3  0  0  0  0  0  0
   -1.5579   -0.0210   -0.3068 O   0  0  0  0  0  0  0  0  0  0  0  0
   -0.3206   -1.8344    2.9035 H   0  0  0  0  0  0  0  0  0  0  0  0
    0.6343   -1.7759    1.4184 H   0  0  0  0  0  0  0  0  0  0  0  0
   -1.1205   -1.9649    1.3308 H   0  0  0  0  0  0  0  0  0  0  0  0
   -1.4124    0.3018    2.3288 H   0  0  0  0  0  0  0  0  0  0  0  0
    1.6331    0.5087    2.1151 H   0  0  0  0  0  0  0  0  0  0  0  0
    0.7107    0.4114    3.6165 H   0  0  0  0  0  0  0  0  0  0  0  0
    0.5463    1.8257    2.5732 H   0  0  0  0  0  0  0  0  0  0  0  0
   -0.5065    1.6515    0.3368 H   0  0  0  0  0  0  0  0  0  0  0  0
   -1.4637    0.2351   -1.2302 H   0  0  0  0  0  0  0  0  0  0  0  0
    0.3421    0.3760   -3.2598 C   0  0  0  0  0  0  0  0  0  0  0  0
    0.7562   -0.4965   -2.3298 C   0  0  0  0  0  0  0  0  0  0  0  0
    1.5232   -0.1537   -1.1444 C   0  0  0  0  0  0  0  0  0  0  0  0
   -0.2643    0.0615   -4.0993 H   0  0  0  0  0  0  0  0  0  0  0  0
    0.6305    1.4212   -3.2209 H   0  0  0  0  0  0  0  0  0  0  0  0
    0.4411   -1.5322   -2.4211 H   0  0  0  0  0  0  0  0  0  0  0  0
    0.6145    0.1824   -0.2331 H   0  0  0  0  0  0  0  0  0  0  0  0
    2.1085    0.7613   -1.2131 H   0  0  0  0  0  0  0  0  0  0  0  0
    2.0707   -0.9696   -0.6807 H   0  0  0  0  0  0  0  0  0  0  0  0
  1  2  1  0
  1  6  1  0
  1  7  1  0
  1  8  1  0
  2  3  1  0
  2  4  1  0
  2  9  1  0
  3 10  1  0
  3 11  1  0
  3 12  1  0
  4  5  1  0
  4 13  1  0
  5 14  1  0
 15 16  2  3
 15 18  1  0
 15 19  1  0
 16 17  1  0
 16 20  1  0
 17 21  1  0
 17 22  1  0
 17 23  1  0
M  RAD  1   4   2
M  END
>  <reaction>  (4) 
rxn_414

>  <mol_properties>  (4) 
{"1": {"label": "*4", "atom_type": "Cs"}, "3": {"label": "*3", "atom_type": "Cs"}, "15": {"label": "*0", "atom_type": "Cd"}, "16": {"label": "*1", "atom_type": "Cs"}, "20": {"label": "*2", "atom_type": "H0"}}

>  <type>  (4) 
ts

$$$$

     RDKit          3D

 23 21  0  0  0  0  0  0  0  0999 V2000
   -0.5088   -0.9235    2.3795 C   0  0  0  0  0  0  0  0  0  0  0  0
   -0.4689    0.4726    1.7694 C   0  0  0  0  0  0  0  0  0  0  0  0
    0.9200    1.0929    1.8811 C   0  0  0  0  0  0  0  0  0  0  0  0
   -0.9168    0.4558    0.3105 C   0  0  0  0  0  3  0  0  0  0  0  0
   -2.2268   -0.0389    0.1211 O   0  0  0  0  0  0  0  0  0  0  0  0
   -0.2580   -0.8945    3.4416 H   0  0  0  0  0  0  0  0  0  0  0  0
    0.2137   -1.5769    1.8822 H   0  0  0  0  0  0  0  0  0  0  0  0
   -1.4957   -1.3730    2.2697 H   0  0  0  0  0  0  0  0  0  0  0  0
   -1.1722    1.1115    2.3200 H   0  0  0  0  0  0  0  0  0  0  0  0
    1.6534    0.4971    1.3306 H   0  0  0  0  0  0  0  0  0  0  0  0
    1.2452    1.1378    2.9217 H   0  0  0  0  0  0  0  0  0  0  0  0
    0.9417    2.1076    1.4777 H   0  0  0  0  0  0  0  0  0  0  0  0
   -0.8175    1.4630   -0.1158 H   0  0  0  0  0  0  0  0  0  0  0  0
   -2.8385    0.5423    0.5759 H   0  0  0  0  0  0  0  0  0  0  0  0
    1.1900   -0.8074   -3.4369 C   0  0  0  0  0  0  0  0  0  0  0  0
    1.1900   -0.8074   -2.1132 C   0  0  0  0  0  0  0  0  0  0  0  0
    1.1900    0.4148   -1.2527 C   0  0  0  0  0  0  0  0  0  0  0  0
    1.1900   -1.7301   -4.0034 H   0  0  0  0  0  0  0  0  0  0  0  0
    1.1900    0.1182   -4.0029 H   0  0  0  0  0  0  0  0  0  0  0  0
    1.1900   -1.7600   -1.5897 H   0  0  0  0  0  0  0  0  0  0  0  0
    0.1368    0.4353   -0.4712 H   0  0  0  0  0  0  0  0  0  0  0  0
    1.1900    1.3252   -1.8533 H   0  0  0  0  0  0  0  0  0  0  0  0
    2.0677    0.4319   -0.6014 H   0  0  0  0  0  0  0  0  0  0  0  0
  1  2  1  0
  1  6  1  0
  1  7  1  0
  1  8  1  0
  2  3  1  0
  2  4  1  0
  2  9  1  0
  3 10  1  0
  3 11  1  0
  3 12  1  0
  4  5  1  0
  4 13  1  0
  5 14  1  0
 15 16  2  3
 15 18  1  0
 15 19  1  0
 16 17  1  0
 16 20  1  0
 17 21  1  0
 17 22  1  0
 17 23  1  0
M  RAD  1   4   2
M  END
>  <reaction>  (5) 
rxn_414

>  <mol_properties>  (5) 
{"1": {"label": "*4", "atom_type": "Cs"}, "3": {"label": "*3", "atom_type": "Cs"}, "15": {"label": "*0", "atom_type": "Cd"}, "16": {"label": "*1", "atom_type": "Cs"}, "20": {"label": "*2", "atom_type": "H0"}}

>  <type>  (5) 
unop_1

>  <geom_source>  (5) 
Heuristics

$$$$

     RDKit          3D

 23 21  0  0  0  0  0  0  0  0999 V2000
   -1.6746   -1.1626    0.0975 C   0  0  0  0  0  0  0  0  0  0  0  0
   -0.9327   -0.5235    1.2654 C   0  0  0  0  0  0  0  0  0  0  0  0
    0.2850   -1.3466    1.6730 C   0  0  0  0  0  0  0  0  0  0  0  0
   -0.5104    0.9068    0.9412 C   0  0  0  0  0  3  0  0  0  0  0  0
   -1.5890    1.7619    0.6212 O   0  0  0  0  0  0  0  0  0  0  0  0
   -2.0374   -2.1580    0.3611 H   0  0  0  0  0  0  0  0  0  0  0  0
   -1.0099   -1.2657   -0.7650 H   0  0  0  0  0  0  0  0  0  0  0  0
   -2.5259   -0.5544   -0.2083 H   0  0  0  0  0  0  0  0  0  0  0  0
   -1.6145   -0.4762    2.1249 H   0  0  0  0  0  0  0  0  0  0  0  0
    1.0027   -1.4063    0.8500 H   0  0  0  0  0  0  0  0  0  0  0  0
   -0.0026   -2.3662    1.9347 H   0  0  0  0  0  0  0  0  0  0  0  0
    0.7969   -0.9101    2.5333 H   0  0  0  0  0  0  0  0  0  0  0  0
    0.0736    1.3157    1.7765 H   0  0  0  0  0  0  0  0  0  0  0  0
   -2.1622    1.8255    1.3868 H   0  0  0  0  0  0  0  0  0  0  0  0
    1.5964   -0.3564   -2.8062 C   0  0  0  0  0  0  0  0  0  0  0  0
    1.5964   -0.3564   -1.4825 C   0  0  0  0  0  0  0  0  0  0  0  0
    1.5964    0.8658   -0.6219 C   0  0  0  0  0  0  0  0  0  0  0  0
    1.5964   -1.2791   -3.3727 H   0  0  0  0  0  0  0  0  0  0  0  0
    1.5964    0.5692   -3.3722 H   0  0  0  0  0  0  0  0  0  0  0  0
    1.5964   -1.3090   -0.9589 H   0  0  0  0  0  0  0  0  0  0  0  0
    0.5432    0.8863    0.1595 H   0  0  0  0  0  0  0  0  0  0  0  0
    1.5964    1.7762   -1.2225 H   0  0  0  0  0  0  0  0  0  0  0  0
    2.4741    0.8829    0.0293 H   0  0  0  0  0  0  0  0  0  0  0  0
  1  2  1  0
  1  6  1  0
  1  7  1  0
  1  8  1  0
  2  3  1  0
  2  4  1  0
  2  9  1  0
  3 10  1  0
  3 11  1  0
  3 12  1  0
  4  5  1  0
  4 13  1  0
  5 14  1  0
 15 16  2  3
 15 18  1  0
 15 19  1  0
 16 17  1  0
 16 20  1  0
 17 21  1  0
 17 22  1  0
 17 23  1  0
M  RAD  1   4   2
M  END
>  <reaction>  (6) 
rxn_414

>  <mol_properties>  (6) 
{"1": {"label": "*4", "atom_type": "Cs"}, "3": {"label": "*3", "atom_type": "Cs"}, "15": {"label": "*0", "atom_type": "Cd"}, "16": {"label": "*1", "atom_type": "Cs"}, "20": {"label": "*2", "atom_type": "H0"}}

>  <type>  (6) 
unop_2

>  <geom_source>  (6) 
Heuristics

$$$$

     RDKit          3D

 23 21  0  0  0  0  0  0  0  0999 V2000
   -0.0062   -0.0687    2.6486 C   0  0  0  0  0  0  0  0  0  0  0  0
   -0.6124    0.8743    1.6161 C   0  0  0  0  0  0  0  0  0  0  0  0
    0.3129    2.0502    1.3203 C   0  0  0  0  0  0  0  0  0  0  0  0
   -0.9519    0.1396    0.3221 C   0  0  0  0  0  3  0  0  0  0  0  0
   -1.8647   -0.9255    0.4930 O   0  0  0  0  0  0  0  0  0  0  0  0
    0.1668    0.4458    3.5957 H   0  0  0  0  0  0  0  0  0  0  0  0
    0.9551   -0.4526    2.2952 H   0  0  0  0  0  0  0  0  0  0  0  0
   -0.6585   -0.9222    2.8331 H   0  0  0  0  0  0  0  0  0  0  0  0
   -1.5516    1.2740    2.0211 H   0  0  0  0  0  0  0  0  0  0  0  0
    1.2583    1.6995    0.8969 H   0  0  0  0  0  0  0  0  0  0  0  0
    0.5445    2.6038    2.2317 H   0  0  0  0  0  0  0  0  0  0  0  0
   -0.1354    2.7466    0.6084 H   0  0  0  0  0  0  0  0  0  0  0  0
   -1.3276    0.8568   -0.4198 H   0  0  0  0  0  0  0  0  0  0  0  0
   -2.6929   -0.5656    0.8145 H   0  0  0  0  0  0  0  0  0  0  0  0
    1.1549   -1.1237   -3.4253 C   0  0  0  0  0  0  0  0  0  0  0  0
    1.1549   -1.1237   -2.1015 C   0  0  0  0  0  0  0  0  0  0  0  0
    1.1549    0.0985   -1.2410 C   0  0  0  0  0  0  0  0  0  0  0  0
    1.1549   -2.0464   -3.9918 H   0  0  0  0  0  0  0  0  0  0  0  0
    1.1549   -0.1981   -3.9913 H   0  0  0  0  0  0  0  0  0  0  0  0
    1.1549   -2.0763   -1.5780 H   0  0  0  0  0  0  0  0  0  0  0  0
    0.1017    0.1190   -0.4596 H   0  0  0  0  0  0  0  0  0  0  0  0
    1.1549    1.0089   -1.8416 H   0  0  0  0  0  0  0  0  0  0  0  0
    2.0327    0.1156   -0.5898 H   0  0  0  0  0  0  0  0  0  0  0  0
  1  2  1  0
  1  6  1  0
  1  7  1  0
  1  8  1  0
  2  3  1  0
  2  4  1  0
  2  9  1  0
  3 10  1  0
  3 11  1  0
  3 12  1  0
  4  5  1  0
  4 13  1  0
  5 14  1  0
 15 16  2  3
 15 18  1  0
 15 19  1  0
 16 17  1  0
 16 20  1  0
 17 21  1  0
 17 22  1  0
 17 23  1  0
M  RAD  1   4   2
M  END
>  <reaction>  (7) 
rxn_414

>  <mol_properties>  (7) 
{"1": {"label": "*4", "atom_type": "Cs"}, "3": {"label": "*3", "atom_type": "Cs"}, "15": {"label": "*0", "atom_type": "Cd"}, "16": {"label": "*1", "atom_type": "Cs"}, "20": {"label": "*2", "atom_type": "H0"}}

>  <type>  (7) 
unop_3

>  <geom_source>  (7) 
Heuristics

$$$$

     RDKit          3D

 23 21  0  0  0  0  0  0  0  0999 V2000
   -1.3384    0.8460   -0.8120 C   0  0  0  0  0  0  0  0  0  0  0  0
   -1.5853    0.2144    0.5529 C   0  0  0  0  0  0  0  0  0  0  0  0
   -2.1250   -1.2062    0.4230 C   0  0  0  0  0  0  0  0  0  0  0  0
   -0.3187    0.2152    1.4043 C   0  0  0  0  0  3  0  0  0  0  0  0
    0.2120    1.5040    1.6370 O   0  0  0  0  0  0  0  0  0  0  0  0
   -2.2636    0.9089   -1.3881 H   0  0  0  0  0  0  0  0  0  0  0  0
   -0.6263    0.2459   -1.3858 H   0  0  0  0  0  0  0  0  0  0  0  0
   -0.9246    1.8495   -0.7124 H   0  0  0  0  0  0  0  0  0  0  0  0
   -2.3356    0.8163    1.0826 H   0  0  0  0  0  0  0  0  0  0  0  0
   -1.4005   -1.8487   -0.0852 H   0  0  0  0  0  0  0  0  0  0  0  0
   -3.0468   -1.2220   -0.1608 H   0  0  0  0  0  0  0  0  0  0  0  0
   -2.3375   -1.6474    1.3992 H   0  0  0  0  0  0  0  0  0  0  0  0
   -0.5140   -0.3008    2.3538 H   0  0  0  0  0  0  0  0  0  0  0  0
   -0.4342    2.0130    2.1290 H   0  0  0  0  0  0  0  0  0  0  0  0
    1.7882   -1.0481   -2.3431 C   0  0  0  0  0  0  0  0  0  0  0  0
    1.7882   -1.0481   -1.0193 C   0  0  0  0  0  0  0  0  0  0  0  0
    1.7882    0.1741   -0.1588 C   0  0  0  0  0  0  0  0  0  0  0  0
    1.7882   -1.9708   -2.9096 H   0  0  0  0  0  0  0  0  0  0  0  0
    1.7882   -0.1225   -2.9091 H   0  0  0  0  0  0  0  0  0  0  0  0
    1.7882   -2.0007   -0.4958 H   0  0  0  0  0  0  0  0  0  0  0  0
    0.7349    0.1946    0.6226 H   0  0  0  0  0  0  0  0  0  0  0  0
    1.7882    1.0845   -0.7594 H   0  0  0  0  0  0  0  0  0  0  0  0
    2.6659    0.1912    0.4924 H   0  0  0  0  0  0  0  0  0  0  0  0
  1  2  1  0
  1  6  1  0
  1  7  1  0
  1  8  1  0
  2  3  1  0
  2  4  1  0
  2  9  1  0
  3 10  1  0
  3 11  1  0
  3 12  1  0
  4  5  1  0
  4 13  1  0
  5 14  1  0
 15 16  2  3
 15 18  1  0
 15 19  1  0
 16 17  1  0
 16 20  1  0
 17 21  1  0
 17 22  1  0
 17 23  1  0
M  RAD  1   4   2
M  END
>  <reaction>  (8) 
rxn_414

>  <mol_properties>  (8) 
{"1": {"label": "*4", "atom_type": "Cs"}, "3": {"label": "*3", "atom_type": "Cs"}, "15": {"label": "*0", "atom_type": "Cd"}, "16": {"label": "*1", "atom_type": "Cs"}, "20": {"label": "*2", "atom_type": "H0"}}

>  <type>  (8) 
unop_4

>  <geom_source>  (8) 
Heuristics

$$$$

     RDKit          3D

 23 21  0  0  0  0  0  0  0  0999 V2000
    0.3717    1.1468    2.2171 C   0  0  0  0  0  0  0  0  0  0  0  0
   -0.8885    1.0896    1.3618 C   0  0  0  0  0  0  0  0  0  0  0  0
   -1.0253    2.3286    0.4828 C   0  0  0  0  0  0  0  0  0  0  0  0
   -0.9189   -0.1684    0.4982 C   0  0  0  0  0  3  0  0  0  0  0  0
   -0.8692   -1.3707    1.2390 O   0  0  0  0  0  0  0  0  0  0  0  0
    0.3533    2.0101    2.8851 H   0  0  0  0  0  0  0  0  0  0  0  0
    1.2585    1.2326    1.5827 H   0  0  0  0  0  0  0  0  0  0  0  0
    0.4792    0.2454    2.8204 H   0  0  0  0  0  0  0  0  0  0  0  0
   -1.7591    1.0486    2.0298 H   0  0  0  0  0  0  0  0  0  0  0  0
   -0.1854    2.4013   -0.2138 H   0  0  0  0  0  0  0  0  0  0  0  0
   -1.0327    3.2372    1.0870 H   0  0  0  0  0  0  0  0  0  0  0  0
   -1.9463    2.3069   -0.1036 H   0  0  0  0  0  0  0  0  0  0  0  0
   -1.8059   -0.1483   -0.1490 H   0  0  0  0  0  0  0  0  0  0  0  0
   -1.6488   -1.4162    1.7948 H   0  0  0  0  0  0  0  0  0  0  0  0
    1.1879   -1.4317   -3.2492 C   0  0  0  0  0  0  0  0  0  0  0  0
    1.1879   -1.4317   -1.9255 C   0  0  0  0  0  0  0  0  0  0  0  0
    1.1879   -0.2095   -1.0650 C   0  0  0  0  0  0  0  0  0  0  0  0
    1.1879   -2.3544   -3.8157 H   0  0  0  0  0  0  0  0  0  0  0  0
    1.1879   -0.5061   -3.8152 H   0  0  0  0  0  0  0  0  0  0  0  0
    1.1879   -2.3843   -1.4020 H   0  0  0  0  0  0  0  0  0  0  0  0
    0.1347   -0.1889   -0.2835 H   0  0  0  0  0  0  0  0  0  0  0  0
    1.1879    0.7010   -1.6656 H   0  0  0  0  0  0  0  0  0  0  0  0
    2.0656   -0.1924   -0.4138 H   0  0  0  0  0  0  0  0  0  0  0  0
  1  2  1  0
  1  6  1  0
  1  7  1  0
  1  8  1  0
  2  3  1  0
  2  4  1  0
  2  9  1  0
  3 10  1  0
  3 11  1  0
  3 12  1  0
  4  5  1  0
  4 13  1  0
  5 14  1  0
 15 16  2  3
 15 18  1  0
 15 19  1  0
 16 17  1  0
 16 20  1  0
 17 21  1  0
 17 22  1  0
 17 23  1  0
M  RAD  1   4   2
M  END
>  <reaction>  (9) 
rxn_414

>  <mol_properties>  (9) 
{"1": {"label": "*4", "atom_type": "Cs"}, "3": {"label": "*3", "atom_type": "Cs"}, "15": {"label": "*0", "atom_type": "Cd"}, "16": {"label": "*1", "atom_type": "Cs"}, "20": {"label": "*2", "atom_type": "H0"}}

>  <type>  (9) 
unop_5

>  <geom_source>  (9) 
Heuristics

$$$$

     RDKit          3D

 23 21  0  0  0  0  0  0  0  0999 V2000
   -1.0328    1.5241   -0.5168 C   0  0  0  0  0  0  0  0  0  0  0  0
   -1.5454    0.6372    0.6117 C   0  0  0  0  0  0  0  0  0  0  0  0
   -2.5658   -0.3777    0.1067 C   0  0  0  0  0  0  0  0  0  0  0  0
   -0.4001   -0.0823    1.3186 C   0  0  0  0  0  3  0  0  0  0  0  0
    0.5595    0.7883    1.8826 O   0  0  0  0  0  0  0  0  0  0  0  0
   -1.8477    2.0914   -0.9707 H   0  0  0  0  0  0  0  0  0  0  0  0
   -0.5716    0.9153   -1.2997 H   0  0  0  0  0  0  0  0  0  0  0  0
   -0.2822    2.2269   -0.1553 H   0  0  0  0  0  0  0  0  0  0  0  0
   -2.0399    1.2751    1.3563 H   0  0  0  0  0  0  0  0  0  0  0  0
   -2.1111   -1.0486   -0.6275 H   0  0  0  0  0  0  0  0  0  0  0  0
   -3.4062    0.1215   -0.3782 H   0  0  0  0  0  0  0  0  0  0  0  0
   -2.9618   -0.9897    0.9200 H   0  0  0  0  0  0  0  0  0  0  0  0
   -0.8068   -0.7581    2.0827 H   0  0  0  0  0  0  0  0  0  0  0  0
    0.1289    1.3184    2.5551 H   0  0  0  0  0  0  0  0  0  0  0  0
    1.7068   -1.3456   -2.4288 C   0  0  0  0  0  0  0  0  0  0  0  0
    1.7068   -1.3456   -1.1051 C   0  0  0  0  0  0  0  0  0  0  0  0
    1.7068   -0.1234   -0.2445 C   0  0  0  0  0  0  0  0  0  0  0  0
    1.7068   -2.2683   -2.9953 H   0  0  0  0  0  0  0  0  0  0  0  0
    1.7068   -0.4200   -2.9948 H   0  0  0  0  0  0  0  0  0  0  0  0
    1.7068   -2.2982   -0.5815 H   0  0  0  0  0  0  0  0  0  0  0  0
    0.6535   -0.1029    0.5369 H   0  0  0  0  0  0  0  0  0  0  0  0
    1.7068    0.7870   -0.8451 H   0  0  0  0  0  0  0  0  0  0  0  0
    2.5845   -0.1063    0.4067 H   0  0  0  0  0  0  0  0  0  0  0  0
  1  2  1  0
  1  6  1  0
  1  7  1  0
  1  8  1  0
  2  3  1  0
  2  4  1  0
  2  9  1  0
  3 10  1  0
  3 11  1  0
  3 12  1  0
  4  5  1  0
  4 13  1  0
  5 14  1  0
 15 16  2  3
 15 18  1  0
 15 19  1  0
 16 17  1  0
 16 20  1  0
 17 21  1  0
 17 22  1  0
 17 23  1  0
M  RAD  1   4   2
M  END
>  <reaction>  (10) 
rxn_414

>  <mol_properties>  (10) 
{"1": {"label": "*4", "atom_type": "Cs"}, "3": {"label": "*3", "atom_type": "Cs"}, "15": {"label": "*0", "atom_type": "Cd"}, "16": {"label": "*1", "atom_type": "Cs"}, "20": {"label": "*2", "atom_type": "H0"}}

>  <type>  (10) 
unop_6

>  <geom_source>  (10) 
Heuristics

$$$$

     RDKit          3D

 23 21  0  0  0  0  0  0  0  0999 V2000
   -0.5542    2.0194    0.1148 C   0  0  0  0  0  0  0  0  0  0  0  0
   -1.3860    0.9535    0.8183 C   0  0  0  0  0  0  0  0  0  0  0  0
   -2.6226    0.5822    0.0063 C   0  0  0  0  0  0  0  0  0  0  0  0
   -0.5592   -0.2957    1.1098 C   0  0  0  0  0  3  0  0  0  0  0  0
    0.5725   -0.0547    1.9211 O   0  0  0  0  0  0  0  0  0  0  0  0
   -1.1296    2.9365   -0.0255 H   0  0  0  0  0  0  0  0  0  0  0  0
   -0.2395    1.6669   -0.8716 H   0  0  0  0  0  0  0  0  0  0  0  0
    0.3432    2.2586    0.6854 H   0  0  0  0  0  0  0  0  0  0  0  0
   -1.7210    1.3564    1.7833 H   0  0  0  0  0  0  0  0  0  0  0  0
   -2.3360    0.1585   -0.9602 H   0  0  0  0  0  0  0  0  0  0  0  0
   -3.2403    1.4604   -0.1883 H   0  0  0  0  0  0  0  0  0  0  0  0
   -3.2394   -0.1545    0.5257 H   0  0  0  0  0  0  0  0  0  0  0  0
   -1.2015   -1.0647    1.5592 H   0  0  0  0  0  0  0  0  0  0  0  0
    0.2715    0.2645    2.7733 H   0  0  0  0  0  0  0  0  0  0  0  0
    1.5477   -1.5590   -2.6376 C   0  0  0  0  0  0  0  0  0  0  0  0
    1.5477   -1.5590   -1.3138 C   0  0  0  0  0  0  0  0  0  0  0  0
    1.5477   -0.3368   -0.4533 C   0  0  0  0  0  0  0  0  0  0  0  0
    1.5477   -2.4817   -3.2040 H   0  0  0  0  0  0  0  0  0  0  0  0
    1.5477   -0.6334   -3.2036 H   0  0  0  0  0  0  0  0  0  0  0  0
    1.5477   -2.5116   -0.7903 H   0  0  0  0  0  0  0  0  0  0  0  0
    0.4944   -0.3163    0.3282 H   0  0  0  0  0  0  0  0  0  0  0  0
    1.5477    0.5737   -1.0539 H   0  0  0  0  0  0  0  0  0  0  0  0
    2.4254   -0.3197    0.1979 H   0  0  0  0  0  0  0  0  0  0  0  0
  1  2  1  0
  1  6  1  0
  1  7  1  0
  1  8  1  0
  2  3  1  0
  2  4  1  0
  2  9  1  0
  3 10  1  0
  3 11  1  0
  3 12  1  0
  4  5  1  0
  4 13  1  0
  5 14  1  0
 15 16  2  3
 15 18  1  0
 15 19  1  0
 16 17  1  0
 16 20  1  0
 17 21  1  0
 17 22  1  0
 17 23  1  0
M  RAD  1   4   2
M  END
>  <reaction>  (11) 
rxn_414

>  <mol_properties>  (11) 
{"1": {"label": "*4", "atom_type": "Cs"}, "3": {"label": "*3", "atom_type": "Cs"}, "15": {"label": "*0", "atom_type": "Cd"}, "16": {"label": "*1", "atom_type": "Cs"}, "20": {"label": "*2", "atom_type": "H0"}}

>  <type>  (11) 
unop_7

>  <geom_source>  (11) 
Heuristics

$$$$

     RDKit          3D

 23 21  0  0  0  0  0  0  0  0999 V2000
   -0.9876   -1.4165    1.7460 C   0  0  0  0  0  0  0  0  0  0  0  0
   -0.4929    0.0251    1.7490 C   0  0  0  0  0  0  0  0  0  0  0  0
    1.0055    0.1023    2.0231 C   0  0  0  0  0  0  0  0  0  0  0  0
   -0.8195    0.7287    0.4346 C   0  0  0  0  0  3  0  0  0  0  0  0
   -2.2001    0.7677    0.1357 O   0  0  0  0  0  0  0  0  0  0  0  0
   -0.8165   -1.8917    2.7139 H   0  0  0  0  0  0  0  0  0  0  0  0
   -0.4566   -1.9994    0.9879 H   0  0  0  0  0  0  0  0  0  0  0  0
   -2.0527   -1.4668    1.5199 H   0  0  0  0  0  0  0  0  0  0  0  0
   -1.0135    0.5684    2.5488 H   0  0  0  0  0  0  0  0  0  0  0  0
    1.5676   -0.4127    1.2391 H   0  0  0  0  0  0  0  0  0  0  0  0
    1.2536   -0.3728    2.9736 H   0  0  0  0  0  0  0  0  0  0  0  0
    1.3552    1.1362    2.0623 H   0  0  0  0  0  0  0  0  0  0  0  0
   -0.3965    1.7420    0.4455 H   0  0  0  0  0  0  0  0  0  0  0  0
   -2.6436    1.2720    0.8195 H   0  0  0  0  0  0  0  0  0  0  0  0
    1.2873   -0.5346   -3.3128 C   0  0  0  0  0  0  0  0  0  0  0  0
    1.2873   -0.5346   -1.9890 C   0  0  0  0  0  0  0  0  0  0  0  0
    1.2873    0.6876   -1.1285 C   0  0  0  0  0  0  0  0  0  0  0  0
    1.2873   -1.4573   -3.8793 H   0  0  0  0  0  0  0  0  0  0  0  0
    1.2873    0.3910   -3.8788 H   0  0  0  0  0  0  0  0  0  0  0  0
    1.2873   -1.4872   -1.4655 H   0  0  0  0  0  0  0  0  0  0  0  0
    0.2341    0.7081   -0.3471 H   0  0  0  0  0  0  0  0  0  0  0  0
    1.2873    1.5980   -1.7291 H   0  0  0  0  0  0  0  0  0  0  0  0
    2.1650    0.7047   -0.4773 H   0  0  0  0  0  0  0  0  0  0  0  0
  1  2  1  0
  1  6  1  0
  1  7  1  0
  1  8  1  0
  2  3  1  0
  2  4  1  0
  2  9  1  0
  3 10  1  0
  3 11  1  0
  3 12  1  0
  4  5  1  0
  4 13  1  0
  5 14  1  0
 15 16  2  3
 15 18  1  0
 15 19  1  0
 16 17  1  0
 16 20  1  0
 17 21  1  0
 17 22  1  0
 17 23  1  0
M  RAD  1   4   2
M  END
>  <reaction>  (12) 
rxn_414

>  <mol_properties>  (12) 
{"1": {"label": "*4", "atom_type": "Cs"}, "3": {"label": "*3", "atom_type": "Cs"}, "15": {"label": "*0", "atom_type": "Cd"}, "16": {"label": "*1", "atom_type": "Cs"}, "20": {"label": "*2", "atom_type": "H0"}}

>  <type>  (12) 
unop_8

>  <geom_source>  (12) 
Heuristics

$$$$

     RDKit          3D

 23 21  0  0  0  0  0  0  0  0999 V2000
   -1.5426    0.1443   -0.8110 C   0  0  0  0  0  0  0  0  0  0  0  0
   -1.4756   -0.1994    0.6724 C   0  0  0  0  0  0  0  0  0  0  0  0
   -1.3598   -1.7040    0.8938 C   0  0  0  0  0  0  0  0  0  0  0  0
   -0.3174    0.5194    1.3588 C   0  0  0  0  0  3  0  0  0  0  0  0
   -0.3836    1.9279    1.2650 O   0  0  0  0  0  0  0  0  0  0  0  0
   -2.4149   -0.3143   -1.2807 H   0  0  0  0  0  0  0  0  0  0  0  0
   -0.6515   -0.2239   -1.3275 H   0  0  0  0  0  0  0  0  0  0  0  0
   -1.5949    1.2223   -0.9634 H   0  0  0  0  0  0  0  0  0  0  0  0
   -2.4028    0.1445    1.1499 H   0  0  0  0  0  0  0  0  0  0  0  0
   -0.4384   -2.0892    0.4483 H   0  0  0  0  0  0  0  0  0  0  0  0
   -2.1956   -2.2321    0.4322 H   0  0  0  0  0  0  0  0  0  0  0  0
   -1.3489   -1.9551    1.9567 H   0  0  0  0  0  0  0  0  0  0  0  0
   -0.2595    0.2032    2.4088 H   0  0  0  0  0  0  0  0  0  0  0  0
   -1.1776    2.2240    1.7130 H   0  0  0  0  0  0  0  0  0  0  0  0
    1.7894   -0.7438   -2.3886 C   0  0  0  0  0  0  0  0  0  0  0  0
    1.7894   -0.7438   -1.0649 C   0  0  0  0  0  0  0  0  0  0  0  0
    1.7894    0.4783   -0.2043 C   0  0  0  0  0  0  0  0  0  0  0  0
    1.7894   -1.6666   -2.9551 H   0  0  0  0  0  0  0  0  0  0  0  0
    1.7894    0.1818   -2.9546 H   0  0  0  0  0  0  0  0  0  0  0  0
    1.7894   -1.6965   -0.5413 H   0  0  0  0  0  0  0  0  0  0  0  0
    0.7362    0.4989    0.5771 H   0  0  0  0  0  0  0  0  0  0  0  0
    1.7894    1.3888   -0.8049 H   0  0  0  0  0  0  0  0  0  0  0  0
    2.6671    0.4955    0.4469 H   0  0  0  0  0  0  0  0  0  0  0  0
  1  2  1  0
  1  6  1  0
  1  7  1  0
  1  8  1  0
  2  3  1  0
  2  4  1  0
  2  9  1  0
  3 10  1  0
  3 11  1  0
  3 12  1  0
  4  5  1  0
  4 13  1  0
  5 14  1  0
 15 16  2  3
 15 18  1  0
 15 19  1  0
 16 17  1  0
 16 20  1  0
 17 21  1  0
 17 22  1  0
 17 23  1  0
M  RAD  1   4   2
M  END
>  <reaction>  (13) 
rxn_414

>  <mol_properties>  (13) 
{"1": {"label": "*4", "atom_type": "Cs"}, "3": {"label": "*3", "atom_type": "Cs"}, "15": {"label": "*0", "atom_type": "Cd"}, "16": {"label": "*1", "atom_type": "Cs"}, "20": {"label": "*2", "atom_type": "H0"}}

>  <type>  (13) 
unop_9

>  <geom_source>  (13) 
Heuristics

$$$$

     RDKit          3D

 23 21  0  0  0  0  0  0  0  0999 V2000
   -1.4143   -1.4997    0.9215 C   0  0  0  0  0  0  0  0  0  0  0  0
   -0.6627   -0.3391    1.5627 C   0  0  0  0  0  0  0  0  0  0  0  0
    0.7726   -0.7235    1.9070 C   0  0  0  0  0  0  0  0  0  0  0  0
   -0.6708    0.8942    0.6636 C   0  0  0  0  0  3  0  0  0  0  0  0
   -1.9662    1.3647    0.3517 O   0  0  0  0  0  0  0  0  0  0  0  0
   -1.4678   -2.3541    1.5990 H   0  0  0  0  0  0  0  0  0  0  0  0
   -0.9048   -1.8259    0.0102 H   0  0  0  0  0  0  0  0  0  0  0  0
   -2.4294   -1.2096    0.6505 H   0  0  0  0  0  0  0  0  0  0  0  0
   -1.1751   -0.0673    2.4951 H   0  0  0  0  0  0  0  0  0  0  0  0
    1.3286   -0.9862    1.0027 H   0  0  0  0  0  0  0  0  0  0  0  0
    0.7964   -1.5883    2.5721 H   0  0  0  0  0  0  0  0  0  0  0  0
    1.3017    0.0948    2.4001 H   0  0  0  0  0  0  0  0  0  0  0  0
   -0.0703    1.6893    1.1254 H   0  0  0  0  0  0  0  0  0  0  0  0
   -2.3954    1.6319    1.1660 H   0  0  0  0  0  0  0  0  0  0  0  0
    1.4361   -0.3691   -3.0838 C   0  0  0  0  0  0  0  0  0  0  0  0
    1.4361   -0.3691   -1.7601 C   0  0  0  0  0  0  0  0  0  0  0  0
    1.4361    0.8531   -0.8995 C   0  0  0  0  0  0  0  0  0  0  0  0
    1.4361   -1.2918   -3.6503 H   0  0  0  0  0  0  0  0  0  0  0  0
    1.4361    0.5565   -3.6498 H   0  0  0  0  0  0  0  0  0  0  0  0
    1.4361   -1.3217   -1.2365 H   0  0  0  0  0  0  0  0  0  0  0  0
    0.3828    0.8736   -0.1181 H   0  0  0  0  0  0  0  0  0  0  0  0
    1.4361    1.7635   -1.5001 H   0  0  0  0  0  0  0  0  0  0  0  0
    2.3138    0.8702   -0.2483 H   0  0  0  0  0  0  0  0  0  0  0  0
  1  2  1  0
  1  6  1  0
  1  7  1  0
  1  8  1  0
  2  3  1  0
  2  4  1  0
  2  9  1  0
  3 10  1  0
  3 11  1  0
  3 12  1  0
  4  5  1  0
  4 13  1  0
  5 14  1  0
 15 16  2  3
 15 18  1  0
 15 19  1  0
 16 17  1  0
 16 20  1  0
 17 21  1  0
 17 22  1  0
 17 23  1  0
M  RAD  1   4   2
M  END
>  <reaction>  (14) 
rxn_414

>  <mol_properties>  (14) 
{"1": {"label": "*4", "atom_type": "Cs"}, "3": {"label": "*3", "atom_type": "Cs"}, "15": {"label": "*0", "atom_type": "Cd"}, "16": {"label": "*1", "atom_type": "Cs"}, "20": {"label": "*2", "atom_type": "H0"}}

>  <type>  (14) 
unop_10

>  <geom_source>  (14) 
Heuristics

$$$$

     RDKit          3D

 23 21  0  0  0  0  0  0  0  0999 V2000
    0.0567    2.0209    1.1012 C   0  0  0  0  0  0  0  0  0  0  0  0
   -1.1593    1.1021    1.0937 C   0  0  0  0  0  0  0  0  0  0  0  0
   -2.2036    1.5638    0.0825 C   0  0  0  0  0  0  0  0  0  0  0  0
   -0.7628   -0.3442    0.8104 C   0  0  0  0  0  3  0  0  0  0  0  0
    0.1516   -0.8791    1.7456 O   0  0  0  0  0  0  0  0  0  0  0  0
   -0.2234    3.0397    1.3760 H   0  0  0  0  0  0  0  0  0  0  0  0
    0.5138    2.0553    0.1081 H   0  0  0  0  0  0  0  0  0  0  0  0
    0.8118    1.6688    1.8039 H   0  0  0  0  0  0  0  0  0  0  0  0
   -1.6178    1.1260    2.0912 H   0  0  0  0  0  0  0  0  0  0  0  0
   -1.7951    1.5394   -0.9317 H   0  0  0  0  0  0  0  0  0  0  0  0
   -2.5190    2.5882    0.2868 H   0  0  0  0  0  0  0  0  0  0  0  0
   -3.0916    0.9282    0.1016 H   0  0  0  0  0  0  0  0  0  0  0  0
   -1.6650   -0.9674    0.7505 H   0  0  0  0  0  0  0  0  0  0  0  0
   -0.2670   -0.8867    2.6078 H   0  0  0  0  0  0  0  0  0  0  0  0
    1.3440   -1.6075   -2.9370 C   0  0  0  0  0  0  0  0  0  0  0  0
    1.3440   -1.6075   -1.6133 C   0  0  0  0  0  0  0  0  0  0  0  0
    1.3440   -0.3853   -0.7527 C   0  0  0  0  0  0  0  0  0  0  0  0
    1.3440   -2.5302   -3.5035 H   0  0  0  0  0  0  0  0  0  0  0  0
    1.3440   -0.6819   -3.5030 H   0  0  0  0  0  0  0  0  0  0  0  0
    1.3440   -2.5601   -1.0897 H   0  0  0  0  0  0  0  0  0  0  0  0
    0.2908   -0.3647    0.0287 H   0  0  0  0  0  0  0  0  0  0  0  0
    1.3440    0.5252   -1.3533 H   0  0  0  0  0  0  0  0  0  0  0  0
    2.2217   -0.3682   -0.1015 H   0  0  0  0  0  0  0  0  0  0  0  0
  1  2  1  0
  1  6  1  0
  1  7  1  0
  1  8  1  0
  2  3  1  0
  2  4  1  0
  2  9  1  0
  3 10  1  0
  3 11  1  0
  3 12  1  0
  4  5  1  0
  4 13  1  0
  5 14  1  0
 15 16  2  3
 15 18  1  0
 15 19  1  0
 16 17  1  0
 16 20  1  0
 17 21  1  0
 17 22  1  0
 17 23  1  0
M  RAD  1   4   2
M  END
>  <reaction>  (15) 
rxn_414

>  <mol_properties>  (15) 
{"1": {"label": "*4", "atom_type": "Cs"}, "3": {"label": "*3", "atom_type": "Cs"}, "15": {"label": "*0", "atom_type": "Cd"}, "16": {"label": "*1", "atom_type": "Cs"}, "20": {"label": "*2", "atom_type": "H0"}}

>  <type>  (15) 
unop_11

>  <geom_source>  (15) 
Heuristics

$$$$

     RDKit          3D

 23 21  0  0  0  0  0  0  0  0999 V2000
   -1.6886   -0.5472   -0.5153 C   0  0  0  0  0  0  0  0  0  0  0  0
   -1.2338   -0.4743    0.9376 C   0  0  0  0  0  0  0  0  0  0  0  0
   -0.4635   -1.7256    1.3465 C   0  0  0  0  0  0  0  0  0  0  0  0
   -0.3846    0.7677    1.1937 C   0  0  0  0  0  3  0  0  0  0  0  0
   -1.0488    1.9820    0.9088 O   0  0  0  0  0  0  0  0  0  0  0  0
   -2.3548   -1.3971   -0.6754 H   0  0  0  0  0  0  0  0  0  0  0  0
   -0.8269   -0.6671   -1.1782 H   0  0  0  0  0  0  0  0  0  0  0  0
   -2.2121    0.3623   -0.8100 H   0  0  0  0  0  0  0  0  0  0  0  0
   -2.1241   -0.3990    1.5760 H   0  0  0  0  0  0  0  0  0  0  0  0
    0.4444   -1.8325    0.7464 H   0  0  0  0  0  0  0  0  0  0  0  0
   -1.0666   -2.6223    1.1953 H   0  0  0  0  0  0  0  0  0  0  0  0
   -0.1686   -1.6917    2.3975 H   0  0  0  0  0  0  0  0  0  0  0  0
   -0.0227    0.7579    2.2305 H   0  0  0  0  0  0  0  0  0  0  0  0
   -1.8052    2.0574    1.4926 H   0  0  0  0  0  0  0  0  0  0  0  0
    1.7222   -0.4955   -2.5537 C   0  0  0  0  0  0  0  0  0  0  0  0
    1.7222   -0.4955   -1.2300 C   0  0  0  0  0  0  0  0  0  0  0  0
    1.7222    0.7266   -0.3694 C   0  0  0  0  0  0  0  0  0  0  0  0
    1.7222   -1.4183   -3.1202 H   0  0  0  0  0  0  0  0  0  0  0  0
    1.7222    0.4301   -3.1197 H   0  0  0  0  0  0  0  0  0  0  0  0
    1.7222   -1.4482   -0.7064 H   0  0  0  0  0  0  0  0  0  0  0  0
    0.6690    0.7472    0.4120 H   0  0  0  0  0  0  0  0  0  0  0  0
    1.7222    1.6371   -0.9700 H   0  0  0  0  0  0  0  0  0  0  0  0
    2.5999    0.7438    0.2818 H   0  0  0  0  0  0  0  0  0  0  0  0
  1  2  1  0
  1  6  1  0
  1  7  1  0
  1  8  1  0
  2  3  1  0
  2  4  1  0
  2  9  1  0
  3 10  1  0
  3 11  1  0
  3 12  1  0
  4  5  1  0
  4 13  1  0
  5 14  1  0
 15 16  2  3
 15 18  1  0
 15 19  1  0
 16 17  1  0
 16 20  1  0
 17 21  1  0
 17 22  1  0
 17 23  1  0
M  RAD  1   4   2
M  END
>  <reaction>  (16) 
rxn_414

>  <mol_properties>  (16) 
{"1": {"label": "*4", "atom_type": "Cs"}, "3": {"label": "*3", "atom_type": "Cs"}, "15": {"label": "*0", "atom_type": "Cd"}, "16": {"label": "*1", "atom_type": "Cs"}, "20": {"label": "*2", "atom_type": "H0"}}

>  <type>  (16) 
unop_12

>  <geom_source>  (16) 
Heuristics

$$$$

     RDKit          3D

 23 21  0  0  0  0  0  0  0  0999 V2000
   -0.7411   -1.6144   -0.9367 O   0  0  0  0  0  0  0  0  0  0  0  0
   -1.4572    0.3634    0.2591 C   0  0  0  0  0  0  0  0  0  0  0  0
   -0.7225   -0.2141   -0.9604 C   0  0  0  0  0  0  0  0  0  0  0  0
   -0.7695   -0.0493    1.5658 C   0  0  0  0  0  0  0  0  0  0  0  0
   -2.9346   -0.0484    0.2670 C   0  0  0  0  0  0  0  0  0  0  0  0
    2.6926    0.7501   -0.3424 C   0  0  0  0  0  0  0  0  0  0  0  0
    1.8445   -0.0133   -1.3084 C   0  0  0  0  0  0  0  0  0  0  0  0
    2.8880    0.3011    0.8983 C   0  0  0  0  0  3  0  0  0  0  0  0
   -1.4117    1.4723    0.1858 H   0  0  0  0  0  0  0  0  0  0  0  0
   -1.2081    0.1487   -1.8937 H   0  0  0  0  0  0  0  0  0  0  0  0
    0.5380    0.2162   -0.9574 H   0  0  0  0  0  0  0  0  0  0  0  0
   -1.2723    0.4345    2.4303 H   0  0  0  0  0  0  0  0  0  0  0  0
   -0.8081   -1.1513    1.7028 H   0  0  0  0  0  0  0  0  0  0  0  0
    0.2929    0.2750    1.5590 H   0  0  0  0  0  0  0  0  0  0  0  0
   -3.4608    0.4366    1.1167 H   0  0  0  0  0  0  0  0  0  0  0  0
   -3.0380   -1.1503    0.3663 H   0  0  0  0  0  0  0  0  0  0  0  0
   -3.4275    0.2754   -0.6745 H   0  0  0  0  0  0  0  0  0  0  0  0
    3.1445    1.6881   -0.6512 H   0  0  0  0  0  0  0  0  0  0  0  0
    3.5010    0.8686    1.5910 H   0  0  0  0  0  0  0  0  0  0  0  0
    2.4408   -0.6308    1.2316 H   0  0  0  0  0  0  0  0  0  0  0  0
    2.3002   -1.0051   -1.5127 H   0  0  0  0  0  0  0  0  0  0  0  0
    1.7542    0.5497   -2.2608 H   0  0  0  0  0  0  0  0  0  0  0  0
   -0.1456   -1.9024   -1.6755 H   0  0  0  0  0  0  0  0  0  0  0  0
  1  3  1  0
  1 23  1  0
  2  4  1  0
  2  5  1  0
  2  3  1  0
  2  9  1  0
  3 10  1  0
  3 11  1  0
  4 12  1  0
  4 13  1  0
  4 14  1  0
  5 15  1  0
  5 16  1  0
  5 17  1  0
  6  7  2  3
  6  8  1  0
  6 18  1  0
  7 21  1  0
  7 22  1  0
  8 19  1  0
  8 20  1  0
M  RAD  1   8   2
M  END
>  <reaction>  (17) 
rxn_414

>  <mol_properties>  (17) 
{"1": {"label": "*4", "atom_type": "Cs"}, "3": {"label": "*3", "atom_type": "Cs"}, "15": {"label": "*0", "atom_type": "Cd"}, "16": {"label": "*1", "atom_type": "Cs"}, "20": {"label": "*2", "atom_type": "H0"}}

>  <type>  (17) 
unop_13

>  <geom_source>  (17) 
AutoTST

$$$$
