
     RDKit          3D

 16 15  0  0  0  0  0  0  0  0999 V2000
    1.7961   -0.3807    1.6176 C   0  0  0  0  0  0  0  0  0  0  0  0
    0.8562   -0.8708    0.8256 C   0  0  0  0  0  0  0  0  0  0  0  0
    0.0895   -0.0826   -0.2048 C   0  0  0  0  0  0  0  0  0  0  0  0
   -1.4061   -0.1111    0.0982 C   0  0  0  0  0  0  0  0  0  0  0  0
    0.4476   -0.5902   -1.5797 C   0  0  0  0  0  0  0  0  0  0  0  0
   -0.3793   -1.1113   -2.4728 C   0  0  0  0  0  0  0  0  0  0  0  0
    2.3110   -1.0032    2.3386 H   0  0  0  0  0  0  0  0  0  0  0  0
    2.0846    0.6643    1.5737 H   0  0  0  0  0  0  0  0  0  0  0  0
    0.5921   -1.9241    0.8925 H   0  0  0  0  0  0  0  0  0  0  0  0
    0.4358    0.9557   -0.1462 H   0  0  0  0  0  0  0  0  0  0  0  0
   -1.5968    0.3080    1.0865 H   0  0  0  0  0  0  0  0  0  0  0  0
   -1.9674    0.4693   -0.6359 H   0  0  0  0  0  0  0  0  0  0  0  0
   -1.7902   -1.1338    0.0883 H   0  0  0  0  0  0  0  0  0  0  0  0
    1.5049   -0.5197   -1.8214 H   0  0  0  0  0  0  0  0  0  0  0  0
   -1.4421   -1.2131   -2.2889 H   0  0  0  0  0  0  0  0  0  0  0  0
   -0.0162   -1.4558   -3.4328 H   0  0  0  0  0  0  0  0  0  0  0  0
  1  2  2  3
  1  7  1  0
  1  8  1  0
  2  3  1  0
  2  9  1  0
  3  4  1  0
  3  5  1  0
  3 10  1  0
  4 11  1  0
  4 12  1  0
  4 13  1  0
  5  6  2  3
  5 14  1  0
  6 15  1  0
  6 16  1  0
M  END
>  <reaction>  (1) 
rxn_1198

>  <mol_properties>  (1) 
{"2": {"label": "donator", "atom_type": "Cs"}, "9": {"label": "d_hydrogen", "atom_type": "H0"}}

>  <type>  (1) 
r1h

$$$$

     RDKit          3D

  7  6  0  0  0  0  0  0  0  0999 V2000
   -1.3496    0.0255    0.0758 C   0  0  0  0  0  0  0  0  0  0  0  0
   -0.0636   -0.0704   -0.0033 C   0  0  0  0  0  0  0  0  0  0  0  0
    1.2597   -0.1602   -0.0839 C   0  0  0  0  0  0  0  0  0  0  0  0
    2.2616    1.2090   -0.0064 S   0  0  0  0  0  1  0  0  0  0  0  0
   -1.8547   -0.0180    1.0345 H   0  0  0  0  0  0  0  0  0  0  0  0
   -1.9552    0.1601   -0.8138 H   0  0  0  0  0  0  0  0  0  0  0  0
    1.7017   -1.1460   -0.2029 H   0  0  0  0  0  0  0  0  0  0  0  0
  1  2  2  0
  1  5  1  0
  1  6  1  0
  2  3  2  0
  3  4  1  0
  3  7  1  0
M  RAD  1   4   2
M  END
>  <reaction>  (2) 
rxn_1198

>  <mol_properties>  (2) 
{"1": {"label": "acceptor", "atom_type": "Cd"}}

>  <type>  (2) 
r2

$$$$

     RDKit          3D

  8  7  0  0  0  0  0  0  0  0999 V2000
   -1.1617    0.0338    0.5053 C   0  0  0  0  0  0  0  0  0  0  0  0
   -0.1023    0.4503   -0.1863 C   0  0  0  0  0  0  0  0  0  0  0  0
    1.0978   -0.3557   -0.3104 C   0  0  0  0  0  0  0  0  0  0  0  0
    2.4251    0.0667   -1.1256 S   0  0  0  0  0  0  0  0  0  0  0  0
   -1.1653   -0.9292    1.0039 H   0  0  0  0  0  0  0  0  0  0  0  0
   -2.0546    0.6389    0.5948 H   0  0  0  0  0  0  0  0  0  0  0  0
   -0.0991    1.4132   -0.6847 H   0  0  0  0  0  0  0  0  0  0  0  0
    1.0601   -1.3180    0.2032 H   0  0  0  0  0  0  0  0  0  0  0  0
  1  2  2  3
  1  5  1  0
  1  6  1  0
  2  3  1  0
  2  7  1  0
  3  4  2  0
  3  8  1  0
M  END
>  <reaction>  (3) 
rxn_1198

>  <mol_properties>  (3) 
{"1": {"label": "acceptor", "atom_type": "Cd"}, "7": {"label": "a_hydrogen", "atom_type": "H0"}}

>  <type>  (3) 
r2h

$$$$

     RDKit          3D

 23 21  0  0  0  0  0  0  0  0999 V2000
   -1.0138    2.2740    0.1636 C   0  0  0  0  0  0  0  0  0  0  0  0
   -0.1812    1.5569   -0.5508 C   0  0  0  0  0  0  0  0  0  0  0  0
    0.8352    1.6456   -1.5138 C   0  0  0  0  0  0  0  0  0  0  0  0
    2.4357    1.4555   -1.1965 S   0  0  0  0  0  1  0  0  0  0  0  0
   -1.0002    3.3585    0.1252 H   0  0  0  0  0  0  0  0  0  0  0  0
   -1.7303    1.8019    0.8272 H   0  0  0  0  0  0  0  0  0  0  0  0
    0.5018    1.7572   -2.5460 H   0  0  0  0  0  0  0  0  0  0  0  0
   -0.4918   -2.6515   -1.4925 C   0  0  0  0  0  0  0  0  0  0  0  0
    0.1552   -1.7619   -0.7462 C   0  0  0  0  0  0  0  0  0  0  0  0
   -0.4094   -0.9449    0.3495 C   0  0  0  0  0  0  0  0  0  0  0  0
    0.5017   -0.8052    1.5495 C   0  0  0  0  0  0  0  0  0  0  0  0
   -1.8557   -1.0628    0.6041 C   0  0  0  0  0  0  0  0  0  0  0  0
   -2.4409   -1.0361    1.7987 C   0  0  0  0  0  0  0  0  0  0  0  0
    0.0212   -3.1866   -2.2810 H   0  0  0  0  0  0  0  0  0  0  0  0
   -1.5355   -2.8944   -1.3357 H   0  0  0  0  0  0  0  0  0  0  0  0
    1.2088   -1.5838   -0.9420 H   0  0  0  0  0  0  0  0  0  0  0  0
   -0.3257    0.2325   -0.1908 H   0  0  0  0  0  0  0  0  0  0  0  0
    1.5185   -0.5810    1.2272 H   0  0  0  0  0  0  0  0  0  0  0  0
    0.1745    0.0033    2.2036 H   0  0  0  0  0  0  0  0  0  0  0  0
    0.5171   -1.7339    2.1262 H   0  0  0  0  0  0  0  0  0  0  0  0
   -2.4826   -1.1434   -0.2787 H   0  0  0  0  0  0  0  0  0  0  0  0
   -1.8747   -0.9588    2.7185 H   0  0  0  0  0  0  0  0  0  0  0  0
   -3.5171   -1.1050    1.8908 H   0  0  0  0  0  0  0  0  0  0  0  0
  1  2  2  0
  1  5  1  0
  1  6  1  0
  2  3  2  0
  3  4  1  0
  3  7  1  0
  8  9  2  3
  8 14  1  0
  8 15  1  0
  9 10  1  0
  9 16  1  0
 10 11  1  0
 10 12  1  0
 10 17  1  0
 11 18  1  0
 11 19  1  0
 11 20  1  0
 12 13  2  3
 12 21  1  0
 13 22  1  0
 13 23  1  0
M  RAD  1   4   2
M  END
>  <reaction>  (4) 
rxn_1198

>  <mol_properties>  (4) 
{"1": {"label": "*3", "atom_type": "Cdd"}, "2": {"label": "*4", "atom_type": "Cd"}, "8": {"label": "*0", "atom_type": "Cd"}, "9": {"label": "*1", "atom_type": "Cs"}, "16": {"label": "*2", "atom_type": "H0"}}

>  <type>  (4) 
ts

$$$$

     RDKit          3D

 23 21  0  0  0  0  0  0  0  0999 V2000
   -1.3873    2.2365   -0.9043 C   0  0  0  0  0  0  0  0  0  0  0  0
   -0.4159    1.3253   -0.9133 C   0  0  0  0  0  0  0  0  0  0  0  0
    0.9861    1.6989   -0.9221 C   0  0  0  0  0  0  0  0  0  0  0  0
    2.2267    0.6667   -0.9332 S   0  0  0  0  0  0  0  0  0  0  0  0
   -1.1638    3.2976   -0.9032 H   0  0  0  0  0  0  0  0  0  0  0  0
   -2.4317    1.9524   -0.8978 H   0  0  0  0  0  0  0  0  0  0  0  0
    1.1751    2.7739   -0.9207 H   0  0  0  0  0  0  0  0  0  0  0  0
   -0.4887   -1.9829   -1.5169 C   0  0  0  0  0  0  0  0  0  0  0  0
   -0.4887   -1.9829   -0.1937 C   0  0  0  0  0  0  0  0  0  0  0  0
   -0.4887   -0.7521    0.6757 C   0  0  0  0  0  3  0  0  0  0  0  0
    0.7497   -0.7223    1.5673 C   0  0  0  0  0  0  0  0  0  0  0  0
   -1.7922   -0.6835    1.4322 C   0  0  0  0  0  0  0  0  0  0  0  0
   -1.9468   -0.6833    2.7471 C   0  0  0  0  0  0  0  0  0  0  0  0
   -0.4894   -2.9055   -2.0836 H   0  0  0  0  0  0  0  0  0  0  0  0
   -0.4869   -1.0571   -2.0826 H   0  0  0  0  0  0  0  0  0  0  0  0
   -0.4934   -2.9287    0.3439 H   0  0  0  0  0  0  0  0  0  0  0  0
   -0.4521    0.2922   -0.1231 H   0  0  0  0  0  0  0  0  0  0  0  0
    1.6524   -0.7307    0.9560 H   0  0  0  0  0  0  0  0  0  0  0  0
    0.7644    0.1734    2.1904 H   0  0  0  0  0  0  0  0  0  0  0  0
    0.7823   -1.5941    2.2249 H   0  0  0  0  0  0  0  0  0  0  0  0
   -2.6754   -0.6478    0.7997 H   0  0  0  0  0  0  0  0  0  0  0  0
   -1.1065   -0.7226    3.4297 H   0  0  0  0  0  0  0  0  0  0  0  0
   -2.9332   -0.6402    3.1914 H   0  0  0  0  0  0  0  0  0  0  0  0
  1  2  2  3
  1  5  1  0
  1  6  1  0
  2  3  1  0
  2 17  1  0
  3  4  2  0
  3  7  1  0
  8  9  2  3
  8 14  1  0
  8 15  1  0
  9 10  1  0
  9 16  1  0
 10 11  1  0
 10 12  1  0
 11 18  1  0
 11 19  1  0
 11 20  1  0
 12 13  2  3
 12 21  1  0
 13 22  1  0
 13 23  1  0
M  RAD  1  10   2
M  END
>  <reaction>  (5) 
rxn_1198

>  <mol_properties>  (5) 
{"1": {"label": "*3", "atom_type": "Cdd"}, "2": {"label": "*4", "atom_type": "Cd"}, "8": {"label": "*0", "atom_type": "Cd"}, "9": {"label": "*1", "atom_type": "Cs"}, "16": {"label": "*2", "atom_type": "H0"}}

>  <type>  (5) 
unop_1

>  <geom_source>  (5) 
Heuristics

$$$$

     RDKit          3D

 23 21  0  0  0  0  0  0  0  0999 V2000
   -0.5536    0.8730   -2.5118 C   0  0  0  0  0  0  0  0  0  0  0  0
   -0.0123    0.9141   -1.2955 C   0  0  0  0  0  0  0  0  0  0  0  0
    0.3001    2.1687   -0.6370 C   0  0  0  0  0  0  0  0  0  0  0  0
    0.9549    2.3142    0.8309 S   0  0  0  0  0  0  0  0  0  0  0  0
   -0.7818    1.7819   -3.0573 H   0  0  0  0  0  0  0  0  0  0  0  0
   -0.7847   -0.0656   -2.9985 H   0  0  0  0  0  0  0  0  0  0  0  0
    0.0578    3.0632   -1.2138 H   0  0  0  0  0  0  0  0  0  0  0  0
   -0.0851   -2.3941   -1.8991 C   0  0  0  0  0  0  0  0  0  0  0  0
   -0.0851   -2.3941   -0.5759 C   0  0  0  0  0  0  0  0  0  0  0  0
   -0.0851   -1.1633    0.2935 C   0  0  0  0  0  3  0  0  0  0  0  0
    1.1533   -1.1335    1.1851 C   0  0  0  0  0  0  0  0  0  0  0  0
   -1.3886   -1.0947    1.0501 C   0  0  0  0  0  0  0  0  0  0  0  0
   -1.5432   -1.0945    2.3650 C   0  0  0  0  0  0  0  0  0  0  0  0
   -0.0858   -3.3167   -2.4658 H   0  0  0  0  0  0  0  0  0  0  0  0
   -0.0833   -1.4683   -2.4648 H   0  0  0  0  0  0  0  0  0  0  0  0
   -0.0898   -3.3399   -0.0382 H   0  0  0  0  0  0  0  0  0  0  0  0
   -0.0485   -0.1189   -0.5053 H   0  0  0  0  0  0  0  0  0  0  0  0
    2.0560   -1.1419    0.5739 H   0  0  0  0  0  0  0  0  0  0  0  0
    1.1680   -0.2377    1.8082 H   0  0  0  0  0  0  0  0  0  0  0  0
    1.1859   -2.0053    1.8428 H   0  0  0  0  0  0  0  0  0  0  0  0
   -2.2718   -1.0590    0.4175 H   0  0  0  0  0  0  0  0  0  0  0  0
   -0.7029   -1.1338    3.0475 H   0  0  0  0  0  0  0  0  0  0  0  0
   -2.5296   -1.0514    2.8092 H   0  0  0  0  0  0  0  0  0  0  0  0
  1  2  2  3
  1  5  1  0
  1  6  1  0
  2  3  1  0
  2 17  1  0
  3  4  2  0
  3  7  1  0
  8  9  2  3
  8 14  1  0
  8 15  1  0
  9 10  1  0
  9 16  1  0
 10 11  1  0
 10 12  1  0
 11 18  1  0
 11 19  1  0
 11 20  1  0
 12 13  2  3
 12 21  1  0
 13 22  1  0
 13 23  1  0
M  RAD  1  10   2
M  END
>  <reaction>  (6) 
rxn_1198

>  <mol_properties>  (6) 
{"1": {"label": "*3", "atom_type": "Cdd"}, "2": {"label": "*4", "atom_type": "Cd"}, "8": {"label": "*0", "atom_type": "Cd"}, "9": {"label": "*1", "atom_type": "Cs"}, "16": {"label": "*2", "atom_type": "H0"}}

>  <type>  (6) 
unop_2

>  <geom_source>  (6) 
Heuristics

$$$$

     RDKit          3D

 23 21  0  0  0  0  0  0  0  0999 V2000
   -0.8661    2.6531   -0.2830 C   0  0  0  0  0  0  0  0  0  0  0  0
   -0.3077    1.4956   -0.6329 C   0  0  0  0  0  0  0  0  0  0  0  0
    0.9348    1.4383   -1.3800 C   0  0  0  0  0  0  0  0  0  0  0  0
    1.6820    0.0857   -1.8457 S   0  0  0  0  0  0  0  0  0  0  0  0
   -0.4091    3.6007   -0.5457 H   0  0  0  0  0  0  0  0  0  0  0  0
   -1.7932    2.6903    0.2744 H   0  0  0  0  0  0  0  0  0  0  0  0
    1.3672    2.4094   -1.6276 H   0  0  0  0  0  0  0  0  0  0  0  0
   -0.3805   -1.8126   -1.2365 C   0  0  0  0  0  0  0  0  0  0  0  0
   -0.3805   -1.8126    0.0867 C   0  0  0  0  0  0  0  0  0  0  0  0
   -0.3805   -0.5818    0.9561 C   0  0  0  0  0  3  0  0  0  0  0  0
    0.8579   -0.5520    1.8477 C   0  0  0  0  0  0  0  0  0  0  0  0
   -1.6840   -0.5132    1.7126 C   0  0  0  0  0  0  0  0  0  0  0  0
   -1.8386   -0.5130    3.0276 C   0  0  0  0  0  0  0  0  0  0  0  0
   -0.3812   -2.7352   -1.8032 H   0  0  0  0  0  0  0  0  0  0  0  0
   -0.3787   -0.8868   -1.8022 H   0  0  0  0  0  0  0  0  0  0  0  0
   -0.3852   -2.7584    0.6244 H   0  0  0  0  0  0  0  0  0  0  0  0
   -0.3439    0.4625    0.1573 H   0  0  0  0  0  0  0  0  0  0  0  0
    1.7606   -0.5604    1.2365 H   0  0  0  0  0  0  0  0  0  0  0  0
    0.8726    0.3437    2.4708 H   0  0  0  0  0  0  0  0  0  0  0  0
    0.8905   -1.4238    2.5053 H   0  0  0  0  0  0  0  0  0  0  0  0
   -2.5672   -0.4775    1.0801 H   0  0  0  0  0  0  0  0  0  0  0  0
   -0.9983   -0.5523    3.7101 H   0  0  0  0  0  0  0  0  0  0  0  0
   -2.8250   -0.4699    3.4718 H   0  0  0  0  0  0  0  0  0  0  0  0
  1  2  2  3
  1  5  1  0
  1  6  1  0
  2  3  1  0
  2 17  1  0
  3  4  2  0
  3  7  1  0
  8  9  2  3
  8 14  1  0
  8 15  1  0
  9 10  1  0
  9 16  1  0
 10 11  1  0
 10 12  1  0
 11 18  1  0
 11 19  1  0
 11 20  1  0
 12 13  2  3
 12 21  1  0
 13 22  1  0
 13 23  1  0
M  RAD  1  10   2
M  END
>  <reaction>  (7) 
rxn_1198

>  <mol_properties>  (7) 
{"1": {"label": "*3", "atom_type": "Cdd"}, "2": {"label": "*4", "atom_type": "Cd"}, "8": {"label": "*0", "atom_type": "Cd"}, "9": {"label": "*1", "atom_type": "Cs"}, "16": {"label": "*2", "atom_type": "H0"}}

>  <type>  (7) 
unop_3

>  <geom_source>  (7) 
Heuristics

$$$$

     RDKit          3D

 23 21  0  0  0  0  0  0  0  0999 V2000
    1.5352    1.1768   -2.0772 C   0  0  0  0  0  0  0  0  0  0  0  0
    0.5253    0.9908   -1.2289 C   0  0  0  0  0  0  0  0  0  0  0  0
   -0.1778    2.1032   -0.6178 C   0  0  0  0  0  0  0  0  0  0  0  0
   -1.4088    1.9731    0.4179 S   0  0  0  0  0  0  0  0  0  0  0  0
    1.8705    2.1731   -2.3433 H   0  0  0  0  0  0  0  0  0  0  0  0
    2.0564    0.3435   -2.5303 H   0  0  0  0  0  0  0  0  0  0  0  0
    0.1851    3.0910   -0.9074 H   0  0  0  0  0  0  0  0  0  0  0  0
    0.4525   -2.3174   -1.8325 C   0  0  0  0  0  0  0  0  0  0  0  0
    0.4525   -2.3174   -0.5093 C   0  0  0  0  0  0  0  0  0  0  0  0
    0.4525   -1.0866    0.3601 C   0  0  0  0  0  3  0  0  0  0  0  0
    1.6909   -1.0568    1.2517 C   0  0  0  0  0  0  0  0  0  0  0  0
   -0.8510   -1.0180    1.1166 C   0  0  0  0  0  0  0  0  0  0  0  0
   -1.0056   -1.0178    2.4315 C   0  0  0  0  0  0  0  0  0  0  0  0
    0.4518   -3.2400   -2.3992 H   0  0  0  0  0  0  0  0  0  0  0  0
    0.4543   -1.3916   -2.3982 H   0  0  0  0  0  0  0  0  0  0  0  0
    0.4478   -3.2632    0.0283 H   0  0  0  0  0  0  0  0  0  0  0  0
    0.4891   -0.0423   -0.4387 H   0  0  0  0  0  0  0  0  0  0  0  0
    2.5936   -1.0652    0.6405 H   0  0  0  0  0  0  0  0  0  0  0  0
    1.7056   -0.1611    1.8748 H   0  0  0  0  0  0  0  0  0  0  0  0
    1.7235   -1.9286    1.9093 H   0  0  0  0  0  0  0  0  0  0  0  0
   -1.7342   -0.9823    0.4841 H   0  0  0  0  0  0  0  0  0  0  0  0
   -0.1653   -1.0571    3.1141 H   0  0  0  0  0  0  0  0  0  0  0  0
   -1.9920   -0.9747    2.8758 H   0  0  0  0  0  0  0  0  0  0  0  0
  1  2  2  3
  1  5  1  0
  1  6  1  0
  2  3  1  0
  2 17  1  0
  3  4  2  0
  3  7  1  0
  8  9  2  3
  8 14  1  0
  8 15  1  0
  9 10  1  0
  9 16  1  0
 10 11  1  0
 10 12  1  0
 11 18  1  0
 11 19  1  0
 11 20  1  0
 12 13  2  3
 12 21  1  0
 13 22  1  0
 13 23  1  0
M  RAD  1  10   2
M  END
>  <reaction>  (8) 
rxn_1198

>  <mol_properties>  (8) 
{"1": {"label": "*3", "atom_type": "Cdd"}, "2": {"label": "*4", "atom_type": "Cd"}, "8": {"label": "*0", "atom_type": "Cd"}, "9": {"label": "*1", "atom_type": "Cs"}, "16": {"label": "*2", "atom_type": "H0"}}

>  <type>  (8) 
unop_4

>  <geom_source>  (8) 
Heuristics

$$$$

     RDKit          3D

 23 21  0  0  0  0  0  0  0  0999 V2000
    0.1634    2.8138    0.0845 C   0  0  0  0  0  0  0  0  0  0  0  0
    0.1541    1.5732   -0.4001 C   0  0  0  0  0  0  0  0  0  0  0  0
    0.1836    1.3065   -1.8261 C   0  0  0  0  0  0  0  0  0  0  0  0
    0.1750   -0.1592   -2.5015 S   0  0  0  0  0  0  0  0  0  0  0  0
    0.1936    3.6750   -0.5738 H   0  0  0  0  0  0  0  0  0  0  0  0
    0.1413    3.0073    1.1491 H   0  0  0  0  0  0  0  0  0  0  0  0
    0.2136    2.1952   -2.4592 H   0  0  0  0  0  0  0  0  0  0  0  0
    0.0813   -1.7349   -1.0038 C   0  0  0  0  0  0  0  0  0  0  0  0
    0.0813   -1.7349    0.3195 C   0  0  0  0  0  0  0  0  0  0  0  0
    0.0813   -0.5042    1.1889 C   0  0  0  0  0  3  0  0  0  0  0  0
    1.3197   -0.4744    2.0805 C   0  0  0  0  0  0  0  0  0  0  0  0
   -1.2222   -0.4356    1.9454 C   0  0  0  0  0  0  0  0  0  0  0  0
   -1.3768   -0.4354    3.2603 C   0  0  0  0  0  0  0  0  0  0  0  0
    0.0806   -2.6576   -1.5705 H   0  0  0  0  0  0  0  0  0  0  0  0
    0.0831   -0.8092   -1.5695 H   0  0  0  0  0  0  0  0  0  0  0  0
    0.0766   -2.6808    0.8571 H   0  0  0  0  0  0  0  0  0  0  0  0
    0.1179    0.5402    0.3901 H   0  0  0  0  0  0  0  0  0  0  0  0
    2.2224   -0.4828    1.4692 H   0  0  0  0  0  0  0  0  0  0  0  0
    1.3344    0.4214    2.7036 H   0  0  0  0  0  0  0  0  0  0  0  0
    1.3523   -1.3462    2.7381 H   0  0  0  0  0  0  0  0  0  0  0  0
   -2.1054   -0.3999    1.3129 H   0  0  0  0  0  0  0  0  0  0  0  0
   -0.5365   -0.4747    3.9429 H   0  0  0  0  0  0  0  0  0  0  0  0
   -2.3632   -0.3922    3.7045 H   0  0  0  0  0  0  0  0  0  0  0  0
  1  2  2  3
  1  5  1  0
  1  6  1  0
  2  3  1  0
  2 17  1  0
  3  4  2  0
  3  7  1  0
  8  9  2  3
  8 14  1  0
  8 15  1  0
  9 10  1  0
  9 16  1  0
 10 11  1  0
 10 12  1  0
 11 18  1  0
 11 19  1  0
 11 20  1  0
 12 13  2  3
 12 21  1  0
 13 22  1  0
 13 23  1  0
M  RAD  1  10   2
M  END
>  <reaction>  (9) 
rxn_1198

>  <mol_properties>  (9) 
{"1": {"label": "*3", "atom_type": "Cdd"}, "2": {"label": "*4", "atom_type": "Cd"}, "8": {"label": "*0", "atom_type": "Cd"}, "9": {"label": "*1", "atom_type": "Cs"}, "16": {"label": "*2", "atom_type": "H0"}}

>  <type>  (9) 
unop_5

>  <geom_source>  (9) 
Heuristics

$$$$

     RDKit          3D

 23 21  0  0  0  0  0  0  0  0999 V2000
    1.8369    1.6589   -1.4888 C   0  0  0  0  0  0  0  0  0  0  0  0
    0.6795    1.1294   -1.0962 C   0  0  0  0  0  0  0  0  0  0  0  0
   -0.4473    1.9547   -0.7032 C   0  0  0  0  0  0  0  0  0  0  0  0
   -1.8832    1.4022   -0.2154 S   0  0  0  0  0  0  0  0  0  0  0  0
    1.9796    2.7331   -1.5290 H   0  0  0  0  0  0  0  0  0  0  0  0
    2.6744    1.0388   -1.7810 H   0  0  0  0  0  0  0  0  0  0  0  0
   -0.2694    3.0303   -0.7554 H   0  0  0  0  0  0  0  0  0  0  0  0
    0.6067   -2.1787   -1.6999 C   0  0  0  0  0  0  0  0  0  0  0  0
    0.6067   -2.1787   -0.3766 C   0  0  0  0  0  0  0  0  0  0  0  0
    0.6067   -0.9479    0.4928 C   0  0  0  0  0  3  0  0  0  0  0  0
    1.8451   -0.9182    1.3844 C   0  0  0  0  0  0  0  0  0  0  0  0
   -0.6968   -0.8794    1.2493 C   0  0  0  0  0  0  0  0  0  0  0  0
   -0.8515   -0.8791    2.5642 C   0  0  0  0  0  0  0  0  0  0  0  0
    0.6059   -3.1013   -2.2666 H   0  0  0  0  0  0  0  0  0  0  0  0
    0.6084   -1.2529   -2.2656 H   0  0  0  0  0  0  0  0  0  0  0  0
    0.6019   -3.1245    0.1610 H   0  0  0  0  0  0  0  0  0  0  0  0
    0.6433    0.0964   -0.3061 H   0  0  0  0  0  0  0  0  0  0  0  0
    2.7478   -0.9265    0.7731 H   0  0  0  0  0  0  0  0  0  0  0  0
    1.8597   -0.0224    2.0075 H   0  0  0  0  0  0  0  0  0  0  0  0
    1.8776   -1.7899    2.0420 H   0  0  0  0  0  0  0  0  0  0  0  0
   -1.5800   -0.8436    0.6167 H   0  0  0  0  0  0  0  0  0  0  0  0
   -0.0111   -0.9185    3.2467 H   0  0  0  0  0  0  0  0  0  0  0  0
   -1.8379   -0.8360    3.0084 H   0  0  0  0  0  0  0  0  0  0  0  0
  1  2  2  3
  1  5  1  0
  1  6  1  0
  2  3  1  0
  2 17  1  0
  3  4  2  0
  3  7  1  0
  8  9  2  3
  8 14  1  0
  8 15  1  0
  9 10  1  0
  9 16  1  0
 10 11  1  0
 10 12  1  0
 11 18  1  0
 11 19  1  0
 11 20  1  0
 12 13  2  3
 12 21  1  0
 13 22  1  0
 13 23  1  0
M  RAD  1  10   2
M  END
>  <reaction>  (10) 
rxn_1198

>  <mol_properties>  (10) 
{"1": {"label": "*3", "atom_type": "Cdd"}, "2": {"label": "*4", "atom_type": "Cd"}, "8": {"label": "*0", "atom_type": "Cd"}, "9": {"label": "*1", "atom_type": "Cs"}, "16": {"label": "*2", "atom_type": "H0"}}

>  <type>  (10) 
unop_6

>  <geom_source>  (10) 
Heuristics

$$$$

     RDKit          3D

 23 21  0  0  0  0  0  0  0  0999 V2000
    1.7392    2.1839   -0.8298 C   0  0  0  0  0  0  0  0  0  0  0  0
    0.7392    1.3058   -0.8858 C   0  0  0  0  0  0  0  0  0  0  0  0
   -0.6474    1.7264   -0.9610 C   0  0  0  0  0  0  0  0  0  0  0  0
   -1.9201    0.7364   -1.0320 S   0  0  0  0  0  0  0  0  0  0  0  0
    1.5517    3.2519   -0.8385 H   0  0  0  0  0  0  0  0  0  0  0  0
    2.7719    1.8649   -0.7739 H   0  0  0  0  0  0  0  0  0  0  0  0
   -0.8000    2.8072   -0.9677 H   0  0  0  0  0  0  0  0  0  0  0  0
    0.6664   -2.0023   -1.4894 C   0  0  0  0  0  0  0  0  0  0  0  0
    0.6664   -2.0023   -0.1662 C   0  0  0  0  0  0  0  0  0  0  0  0
    0.6664   -0.7715    0.7032 C   0  0  0  0  0  3  0  0  0  0  0  0
    1.9048   -0.7418    1.5948 C   0  0  0  0  0  0  0  0  0  0  0  0
   -0.6371   -0.7030    1.4597 C   0  0  0  0  0  0  0  0  0  0  0  0
   -0.7917   -0.7027    2.7747 C   0  0  0  0  0  0  0  0  0  0  0  0
    0.6657   -2.9249   -2.0561 H   0  0  0  0  0  0  0  0  0  0  0  0
    0.6682   -1.0765   -2.0551 H   0  0  0  0  0  0  0  0  0  0  0  0
    0.6617   -2.9481    0.3714 H   0  0  0  0  0  0  0  0  0  0  0  0
    0.7030    0.2728   -0.0956 H   0  0  0  0  0  0  0  0  0  0  0  0
    2.8076   -0.7501    0.9836 H   0  0  0  0  0  0  0  0  0  0  0  0
    1.9195    0.1540    2.2179 H   0  0  0  0  0  0  0  0  0  0  0  0
    1.9374   -1.6135    2.2524 H   0  0  0  0  0  0  0  0  0  0  0  0
   -1.5202   -0.6672    0.8272 H   0  0  0  0  0  0  0  0  0  0  0  0
    0.0487   -0.7421    3.4572 H   0  0  0  0  0  0  0  0  0  0  0  0
   -1.7781   -0.6596    3.2189 H   0  0  0  0  0  0  0  0  0  0  0  0
  1  2  2  3
  1  5  1  0
  1  6  1  0
  2  3  1  0
  2 17  1  0
  3  4  2  0
  3  7  1  0
  8  9  2  3
  8 14  1  0
  8 15  1  0
  9 10  1  0
  9 16  1  0
 10 11  1  0
 10 12  1  0
 11 18  1  0
 11 19  1  0
 11 20  1  0
 12 13  2  3
 12 21  1  0
 13 22  1  0
 13 23  1  0
M  RAD  1  10   2
M  END
>  <reaction>  (11) 
rxn_1198

>  <mol_properties>  (11) 
{"1": {"label": "*3", "atom_type": "Cdd"}, "2": {"label": "*4", "atom_type": "Cd"}, "8": {"label": "*0", "atom_type": "Cd"}, "9": {"label": "*1", "atom_type": "Cs"}, "16": {"label": "*2", "atom_type": "H0"}}

>  <type>  (11) 
unop_7

>  <geom_source>  (11) 
Heuristics

$$$$

     RDKit          3D

 23 21  0  0  0  0  0  0  0  0999 V2000
   -1.4712    1.7146   -1.5676 C   0  0  0  0  0  0  0  0  0  0  0  0
   -0.3522    1.1468   -1.1208 C   0  0  0  0  0  0  0  0  0  0  0  0
    0.7818    1.9340   -0.6739 C   0  0  0  0  0  0  0  0  0  0  0  0
    2.1734    1.3340   -0.1188 S   0  0  0  0  0  0  0  0  0  0  0  0
   -1.5756    2.7929   -1.6136 H   0  0  0  0  0  0  0  0  0  0  0  0
   -2.3142    1.1227   -1.8998 H   0  0  0  0  0  0  0  0  0  0  0  0
    0.6428    3.0150   -0.7337 H   0  0  0  0  0  0  0  0  0  0  0  0
   -0.4250   -2.1614   -1.7244 C   0  0  0  0  0  0  0  0  0  0  0  0
   -0.4250   -2.1614   -0.4012 C   0  0  0  0  0  0  0  0  0  0  0  0
   -0.4250   -0.9306    0.4682 C   0  0  0  0  0  3  0  0  0  0  0  0
    0.8134   -0.9008    1.3598 C   0  0  0  0  0  0  0  0  0  0  0  0
   -1.7285   -0.8620    1.2247 C   0  0  0  0  0  0  0  0  0  0  0  0
   -1.8831   -0.8618    2.5396 C   0  0  0  0  0  0  0  0  0  0  0  0
   -0.4257   -3.0840   -2.2912 H   0  0  0  0  0  0  0  0  0  0  0  0
   -0.4232   -1.2356   -2.2902 H   0  0  0  0  0  0  0  0  0  0  0  0
   -0.4297   -3.1072    0.1364 H   0  0  0  0  0  0  0  0  0  0  0  0
   -0.3884    0.1138   -0.3306 H   0  0  0  0  0  0  0  0  0  0  0  0
    1.7162   -0.9092    0.7485 H   0  0  0  0  0  0  0  0  0  0  0  0
    0.8281   -0.0050    1.9829 H   0  0  0  0  0  0  0  0  0  0  0  0
    0.8460   -1.7726    2.0174 H   0  0  0  0  0  0  0  0  0  0  0  0
   -2.6117   -0.8263    0.5922 H   0  0  0  0  0  0  0  0  0  0  0  0
   -1.0427   -0.9011    3.2222 H   0  0  0  0  0  0  0  0  0  0  0  0
   -2.8695   -0.8187    2.9839 H   0  0  0  0  0  0  0  0  0  0  0  0
  1  2  2  3
  1  5  1  0
  1  6  1  0
  2  3  1  0
  2 17  1  0
  3  4  2  0
  3  7  1  0
  8  9  2  3
  8 14  1  0
  8 15  1  0
  9 10  1  0
  9 16  1  0
 10 11  1  0
 10 12  1  0
 11 18  1  0
 11 19  1  0
 11 20  1  0
 12 13  2  3
 12 21  1  0
 13 22  1  0
 13 23  1  0
M  RAD  1  10   2
M  END
>  <reaction>  (12) 
rxn_1198

>  <mol_properties>  (12) 
{"1": {"label": "*3", "atom_type": "Cdd"}, "2": {"label": "*4", "atom_type": "Cd"}, "8": {"label": "*0", "atom_type": "Cd"}, "9": {"label": "*1", "atom_type": "Cs"}, "16": {"label": "*2", "atom_type": "H0"}}

>  <type>  (12) 
unop_8

>  <geom_source>  (12) 
Heuristics

$$$$

     RDKit          3D

 23 21  0  0  0  0  0  0  0  0999 V2000
    0.9376    0.8479   -2.4762 C   0  0  0  0  0  0  0  0  0  0  0  0
    0.3407    0.9082   -1.2870 C   0  0  0  0  0  0  0  0  0  0  0  0
    0.0396    2.1731   -0.6432 C   0  0  0  0  0  0  0  0  0  0  0  0
   -0.6790    2.3417    0.7920 S   0  0  0  0  0  0  0  0  0  0  0  0
    1.2219    1.7482   -3.0096 H   0  0  0  0  0  0  0  0  0  0  0  0
    1.1599   -0.0983   -2.9522 H   0  0  0  0  0  0  0  0  0  0  0  0
    0.3391    3.0584   -1.2071 H   0  0  0  0  0  0  0  0  0  0  0  0
    0.2679   -2.4000   -1.8907 C   0  0  0  0  0  0  0  0  0  0  0  0
    0.2679   -2.4000   -0.5675 C   0  0  0  0  0  0  0  0  0  0  0  0
    0.2679   -1.1692    0.3020 C   0  0  0  0  0  3  0  0  0  0  0  0
    1.5063   -1.1394    1.1936 C   0  0  0  0  0  0  0  0  0  0  0  0
   -1.0356   -1.1006    1.0585 C   0  0  0  0  0  0  0  0  0  0  0  0
   -1.1903   -1.1004    2.3734 C   0  0  0  0  0  0  0  0  0  0  0  0
    0.2671   -3.3226   -2.4574 H   0  0  0  0  0  0  0  0  0  0  0  0
    0.2696   -1.4742   -2.4564 H   0  0  0  0  0  0  0  0  0  0  0  0
    0.2631   -3.3458   -0.0298 H   0  0  0  0  0  0  0  0  0  0  0  0
    0.3045   -0.1249   -0.4969 H   0  0  0  0  0  0  0  0  0  0  0  0
    2.4090   -1.1478    0.5823 H   0  0  0  0  0  0  0  0  0  0  0  0
    1.5209   -0.2437    1.8167 H   0  0  0  0  0  0  0  0  0  0  0  0
    1.5388   -2.0112    1.8512 H   0  0  0  0  0  0  0  0  0  0  0  0
   -1.9188   -1.0649    0.4259 H   0  0  0  0  0  0  0  0  0  0  0  0
   -0.3499   -1.1397    3.0559 H   0  0  0  0  0  0  0  0  0  0  0  0
   -2.1767   -1.0573    2.8176 H   0  0  0  0  0  0  0  0  0  0  0  0
  1  2  2  3
  1  5  1  0
  1  6  1  0
  2  3  1  0
  2 17  1  0
  3  4  2  0
  3  7  1  0
  8  9  2  3
  8 14  1  0
  8 15  1  0
  9 10  1  0
  9 16  1  0
 10 11  1  0
 10 12  1  0
 11 18  1  0
 11 19  1  0
 11 20  1  0
 12 13  2  3
 12 21  1  0
 13 22  1  0
 13 23  1  0
M  RAD  1  10   2
M  END
>  <reaction>  (13) 
rxn_1198

>  <mol_properties>  (13) 
{"1": {"label": "*3", "atom_type": "Cdd"}, "2": {"label": "*4", "atom_type": "Cd"}, "8": {"label": "*0", "atom_type": "Cd"}, "9": {"label": "*1", "atom_type": "Cs"}, "16": {"label": "*2", "atom_type": "H0"}}

>  <type>  (13) 
unop_9

>  <geom_source>  (13) 
Heuristics

$$$$

     RDKit          3D

 23 21  0  0  0  0  0  0  0  0999 V2000
   -1.1582    1.2221   -2.1413 C   0  0  0  0  0  0  0  0  0  0  0  0
   -0.1966    1.0029   -1.2461 C   0  0  0  0  0  0  0  0  0  0  0  0
    0.5136    2.0915   -0.6013 C   0  0  0  0  0  0  0  0  0  0  0  0
    1.6889    1.9209    0.4916 S   0  0  0  0  0  0  0  0  0  0  0  0
   -1.4467    2.2289   -2.4224 H   0  0  0  0  0  0  0  0  0  0  0  0
   -1.6849    0.4065   -2.6195 H   0  0  0  0  0  0  0  0  0  0  0  0
    0.1983    3.0908   -0.9071 H   0  0  0  0  0  0  0  0  0  0  0  0
   -0.2694   -2.3052   -1.8497 C   0  0  0  0  0  0  0  0  0  0  0  0
   -0.2694   -2.3052   -0.5265 C   0  0  0  0  0  0  0  0  0  0  0  0
   -0.2694   -1.0744    0.3429 C   0  0  0  0  0  3  0  0  0  0  0  0
    0.9690   -1.0447    1.2345 C   0  0  0  0  0  0  0  0  0  0  0  0
   -1.5729   -1.0059    1.0994 C   0  0  0  0  0  0  0  0  0  0  0  0
   -1.7275   -1.0056    2.4144 C   0  0  0  0  0  0  0  0  0  0  0  0
   -0.2701   -3.2278   -2.4164 H   0  0  0  0  0  0  0  0  0  0  0  0
   -0.2676   -1.3794   -2.4154 H   0  0  0  0  0  0  0  0  0  0  0  0
   -0.2741   -3.2510    0.0111 H   0  0  0  0  0  0  0  0  0  0  0  0
   -0.2328   -0.0301   -0.4559 H   0  0  0  0  0  0  0  0  0  0  0  0
    1.8717   -1.0530    0.6233 H   0  0  0  0  0  0  0  0  0  0  0  0
    0.9836   -0.1489    1.8576 H   0  0  0  0  0  0  0  0  0  0  0  0
    1.0016   -1.9164    1.8921 H   0  0  0  0  0  0  0  0  0  0  0  0
   -2.4561   -0.9701    0.4669 H   0  0  0  0  0  0  0  0  0  0  0  0
   -0.8872   -1.0450    3.0969 H   0  0  0  0  0  0  0  0  0  0  0  0
   -2.7139   -0.9625    2.8586 H   0  0  0  0  0  0  0  0  0  0  0  0
  1  2  2  3
  1  5  1  0
  1  6  1  0
  2  3  1  0
  2 17  1  0
  3  4  2  0
  3  7  1  0
  8  9  2  3
  8 14  1  0
  8 15  1  0
  9 10  1  0
  9 16  1  0
 10 11  1  0
 10 12  1  0
 11 18  1  0
 11 19  1  0
 11 20  1  0
 12 13  2  3
 12 21  1  0
 13 22  1  0
 13 23  1  0
M  RAD  1  10   2
M  END
>  <reaction>  (14) 
rxn_1198

>  <mol_properties>  (14) 
{"1": {"label": "*3", "atom_type": "Cdd"}, "2": {"label": "*4", "atom_type": "Cd"}, "8": {"label": "*0", "atom_type": "Cd"}, "9": {"label": "*1", "atom_type": "Cs"}, "16": {"label": "*2", "atom_type": "H0"}}

>  <type>  (14) 
unop_10

>  <geom_source>  (14) 
Heuristics

$$$$

     RDKit          3D

 23 21  0  0  0  0  0  0  0  0999 V2000
    1.2034    2.6183   -0.2337 C   0  0  0  0  0  0  0  0  0  0  0  0
    0.6236    1.4799   -0.6107 C   0  0  0  0  0  0  0  0  0  0  0  0
   -0.5832    1.4639   -1.4161 C   0  0  0  0  0  0  0  0  0  0  0  0
   -1.3524    0.1367   -1.9179 S   0  0  0  0  0  0  0  0  0  0  0  0
    0.7915    3.5805   -0.5171 H   0  0  0  0  0  0  0  0  0  0  0  0
    2.1035    2.6247    0.3672 H   0  0  0  0  0  0  0  0  0  0  0  0
   -0.9704    2.4488   -1.6833 H   0  0  0  0  0  0  0  0  0  0  0  0
    0.5508   -1.8283   -1.2143 C   0  0  0  0  0  0  0  0  0  0  0  0
    0.5508   -1.8283    0.1089 C   0  0  0  0  0  0  0  0  0  0  0  0
    0.5508   -0.5975    0.9783 C   0  0  0  0  0  3  0  0  0  0  0  0
    1.7892   -0.5677    1.8699 C   0  0  0  0  0  0  0  0  0  0  0  0
   -0.7527   -0.5289    1.7348 C   0  0  0  0  0  0  0  0  0  0  0  0
   -0.9073   -0.5287    3.0498 C   0  0  0  0  0  0  0  0  0  0  0  0
    0.5501   -2.7509   -1.7810 H   0  0  0  0  0  0  0  0  0  0  0  0
    0.5526   -0.9025   -1.7800 H   0  0  0  0  0  0  0  0  0  0  0  0
    0.5461   -2.7741    0.6465 H   0  0  0  0  0  0  0  0  0  0  0  0
    0.5874    0.4469    0.1795 H   0  0  0  0  0  0  0  0  0  0  0  0
    2.6919   -0.5761    1.2587 H   0  0  0  0  0  0  0  0  0  0  0  0
    1.8038    0.3281    2.4930 H   0  0  0  0  0  0  0  0  0  0  0  0
    1.8218   -1.4395    2.5275 H   0  0  0  0  0  0  0  0  0  0  0  0
   -1.6359   -0.4932    1.1023 H   0  0  0  0  0  0  0  0  0  0  0  0
   -0.0670   -0.5680    3.7323 H   0  0  0  0  0  0  0  0  0  0  0  0
   -1.8937   -0.4856    3.4940 H   0  0  0  0  0  0  0  0  0  0  0  0
  1  2  2  3
  1  5  1  0
  1  6  1  0
  2  3  1  0
  2 17  1  0
  3  4  2  0
  3  7  1  0
  8  9  2  3
  8 14  1  0
  8 15  1  0
  9 10  1  0
  9 16  1  0
 10 11  1  0
 10 12  1  0
 11 18  1  0
 11 19  1  0
 11 20  1  0
 12 13  2  3
 12 21  1  0
 13 22  1  0
 13 23  1  0
M  RAD  1  10   2
M  END
>  <reaction>  (15) 
rxn_1198

>  <mol_properties>  (15) 
{"1": {"label": "*3", "atom_type": "Cdd"}, "2": {"label": "*4", "atom_type": "Cd"}, "8": {"label": "*0", "atom_type": "Cd"}, "9": {"label": "*1", "atom_type": "Cs"}, "16": {"label": "*2", "atom_type": "H0"}}

>  <type>  (15) 
unop_11

>  <geom_source>  (15) 
Heuristics

$$$$

     RDKit          3D

 23 21  0  0  0  0  0  0  0  0999 V2000
    0.1931    0.7399   -2.6256 C   0  0  0  0  0  0  0  0  0  0  0  0
    0.1640    0.8833   -1.3017 C   0  0  0  0  0  0  0  0  0  0  0  0
    0.1709    2.1902   -0.6714 C   0  0  0  0  0  0  0  0  0  0  0  0
    0.1376    2.4589    0.9196 S   0  0  0  0  0  0  0  0  0  0  0  0
    0.2233    1.6006   -3.2844 H   0  0  0  0  0  0  0  0  0  0  0  0
    0.1877   -0.2373   -3.0907 H   0  0  0  0  0  0  0  0  0  0  0  0
    0.2016    3.0338   -1.3633 H   0  0  0  0  0  0  0  0  0  0  0  0
    0.0912   -2.4249   -1.9053 C   0  0  0  0  0  0  0  0  0  0  0  0
    0.0912   -2.4249   -0.5821 C   0  0  0  0  0  0  0  0  0  0  0  0
    0.0912   -1.1941    0.2873 C   0  0  0  0  0  3  0  0  0  0  0  0
    1.3295   -1.1643    1.1789 C   0  0  0  0  0  0  0  0  0  0  0  0
   -1.2124   -1.1255    1.0438 C   0  0  0  0  0  0  0  0  0  0  0  0
   -1.3670   -1.1253    2.3588 C   0  0  0  0  0  0  0  0  0  0  0  0
    0.0904   -3.3475   -2.4720 H   0  0  0  0  0  0  0  0  0  0  0  0
    0.0929   -1.4991   -2.4710 H   0  0  0  0  0  0  0  0  0  0  0  0
    0.0864   -3.3707   -0.0444 H   0  0  0  0  0  0  0  0  0  0  0  0
    0.1278   -0.1498   -0.5115 H   0  0  0  0  0  0  0  0  0  0  0  0
    2.2323   -1.1727    0.5677 H   0  0  0  0  0  0  0  0  0  0  0  0
    1.3442   -0.2686    1.8020 H   0  0  0  0  0  0  0  0  0  0  0  0
    1.3621   -2.0361    1.8365 H   0  0  0  0  0  0  0  0  0  0  0  0
   -2.0955   -1.0898    0.4113 H   0  0  0  0  0  0  0  0  0  0  0  0
   -0.5266   -1.1646    3.0413 H   0  0  0  0  0  0  0  0  0  0  0  0
   -2.3534   -1.0822    2.8030 H   0  0  0  0  0  0  0  0  0  0  0  0
  1  2  2  3
  1  5  1  0
  1  6  1  0
  2  3  1  0
  2 17  1  0
  3  4  2  0
  3  7  1  0
  8  9  2  3
  8 14  1  0
  8 15  1  0
  9 10  1  0
  9 16  1  0
 10 11  1  0
 10 12  1  0
 11 18  1  0
 11 19  1  0
 11 20  1  0
 12 13  2  3
 12 21  1  0
 13 22  1  0
 13 23  1  0
M  RAD  1  10   2
M  END
>  <reaction>  (16) 
rxn_1198

>  <mol_properties>  (16) 
{"1": {"label": "*3", "atom_type": "Cdd"}, "2": {"label": "*4", "atom_type": "Cd"}, "8": {"label": "*0", "atom_type": "Cd"}, "9": {"label": "*1", "atom_type": "Cs"}, "16": {"label": "*2", "atom_type": "H0"}}

>  <type>  (16) 
unop_12

>  <geom_source>  (16) 
Heuristics

$$$$

     RDKit          3D

 23 21  0  0  0  0  0  0  0  0999 V2000
    3.8646    1.6538    0.2607 S   0  0  0  0  0  0  0  0  0  0  0  0
    0.1051   -0.0370    1.4686 C   0  0  0  0  0  0  0  0  0  0  0  0
   -0.8217   -0.0977    0.2575 C   0  0  0  0  0  3  0  0  0  0  0  0
   -1.8869    0.9541    0.3403 C   0  0  0  0  0  0  0  0  0  0  0  0
   -1.4425   -1.4556    0.1210 C   0  0  0  0  0  0  0  0  0  0  0  0
    1.6389    0.2070   -0.4268 C   0  0  0  0  0  0  0  0  0  0  0  0
    2.3414   -0.8067   -0.9315 C   0  0  0  0  0  0  0  0  0  0  0  0
    2.2454    1.4162    0.1606 C   0  0  0  0  0  0  0  0  0  0  0  0
   -1.9972    1.8822   -0.6106 C   0  0  0  0  0  0  0  0  0  0  0  0
   -1.2477   -2.1814   -0.9804 C   0  0  0  0  0  0  0  0  0  0  0  0
    0.5820    0.9642    1.5276 H   0  0  0  0  0  0  0  0  0  0  0  0
    0.9071   -0.7986    1.3672 H   0  0  0  0  0  0  0  0  0  0  0  0
   -0.4593   -0.2266    2.4073 H   0  0  0  0  0  0  0  0  0  0  0  0
    0.4055    0.1351   -0.4494 H   0  0  0  0  0  0  0  0  0  0  0  0
   -2.5787    0.9583    1.1783 H   0  0  0  0  0  0  0  0  0  0  0  0
   -2.0606   -1.8506    0.9227 H   0  0  0  0  0  0  0  0  0  0  0  0
    3.4230   -0.8070   -0.9427 H   0  0  0  0  0  0  0  0  0  0  0  0
    1.8230   -1.6612   -1.3457 H   0  0  0  0  0  0  0  0  0  0  0  0
    1.5889    2.1852    0.5448 H   0  0  0  0  0  0  0  0  0  0  0  0
   -1.3185    1.8950   -1.4584 H   0  0  0  0  0  0  0  0  0  0  0  0
   -2.7727    2.6383   -0.5443 H   0  0  0  0  0  0  0  0  0  0  0  0
   -1.7029   -3.1621   -1.0722 H   0  0  0  0  0  0  0  0  0  0  0  0
   -0.6362   -1.8049   -1.7951 H   0  0  0  0  0  0  0  0  0  0  0  0
  1  8  2  0
  2  3  1  0
  2 11  1  0
  2 12  1  0
  2 13  1  0
  3  4  1  0
  3  5  1  0
  4  9  2  3
  4 15  1  0
  5 10  2  3
  5 16  1  0
  6  7  2  3
  6  8  1  0
  6 14  1  0
  7 17  1  0
  7 18  1  0
  8 19  1  0
  9 20  1  0
  9 21  1  0
 10 22  1  0
 10 23  1  0
M  RAD  1   3   2
M  END
>  <reaction>  (17) 
rxn_1198

>  <mol_properties>  (17) 
{"1": {"label": "*3", "atom_type": "Cdd"}, "2": {"label": "*4", "atom_type": "Cd"}, "8": {"label": "*0", "atom_type": "Cd"}, "9": {"label": "*1", "atom_type": "Cs"}, "16": {"label": "*2", "atom_type": "H0"}}

>  <type>  (17) 
unop_13

>  <geom_source>  (17) 
AutoTST

$$$$

     RDKit          3D

 23 21  0  0  0  0  0  0  0  0999 V2000
   -0.5536    0.8730   -2.5118 C   0  0  0  0  0  0  0  0  0  0  0  0
   -0.0123    0.9141   -1.2954 C   0  0  0  0  0  0  0  0  0  0  0  0
    0.3001    2.1687   -0.6370 C   0  0  0  0  0  0  0  0  0  0  0  0
    0.9549    2.3142    0.8309 S   0  0  0  0  0  0  0  0  0  0  0  0
   -0.7818    1.7819   -3.0573 H   0  0  0  0  0  0  0  0  0  0  0  0
   -0.7847   -0.0656   -2.9985 H   0  0  0  0  0  0  0  0  0  0  0  0
    0.0578    3.0632   -1.2138 H   0  0  0  0  0  0  0  0  0  0  0  0
   -0.0851   -2.3941   -1.8991 C   0  0  0  0  0  0  0  0  0  0  0  0
   -0.0851   -2.3941   -0.5759 C   0  0  0  0  0  0  0  0  0  0  0  0
   -0.0851   -1.1633    0.2935 C   0  0  0  0  0  3  0  0  0  0  0  0
    1.1533   -1.1335    1.1851 C   0  0  0  0  0  0  0  0  0  0  0  0
   -1.3886   -1.0947    1.0501 C   0  0  0  0  0  0  0  0  0  0  0  0
   -1.5432   -1.0945    2.3650 C   0  0  0  0  0  0  0  0  0  0  0  0
   -0.0858   -3.3167   -2.4658 H   0  0  0  0  0  0  0  0  0  0  0  0
   -0.0833   -1.4683   -2.4648 H   0  0  0  0  0  0  0  0  0  0  0  0
   -0.0898   -3.3399   -0.0382 H   0  0  0  0  0  0  0  0  0  0  0  0
   -0.0485   -0.1189   -0.5053 H   0  0  0  0  0  0  0  0  0  0  0  0
    2.0560   -1.1419    0.5739 H   0  0  0  0  0  0  0  0  0  0  0  0
    1.1680   -0.2377    1.8082 H   0  0  0  0  0  0  0  0  0  0  0  0
    1.1859   -2.0053    1.8428 H   0  0  0  0  0  0  0  0  0  0  0  0
   -2.2718   -1.0590    0.4175 H   0  0  0  0  0  0  0  0  0  0  0  0
   -0.7029   -1.1338    3.0475 H   0  0  0  0  0  0  0  0  0  0  0  0
   -2.5296   -1.0514    2.8092 H   0  0  0  0  0  0  0  0  0  0  0  0
  1  2  2  3
  1  5  1  0
  1  6  1  0
  2  3  1  0
  2 17  1  0
  3  4  2  0
  3  7  1  0
  8  9  2  3
  8 14  1  0
  8 15  1  0
  9 10  1  0
  9 16  1  0
 10 11  1  0
 10 12  1  0
 11 18  1  0
 11 19  1  0
 11 20  1  0
 12 13  2  3
 12 21  1  0
 13 22  1  0
 13 23  1  0
M  RAD  1  10   2
M  END
>  <reaction>  (18) 
rxn_1198

>  <mol_properties>  (18) 
{"1": {"label": "*3", "atom_type": "Cdd"}, "2": {"label": "*4", "atom_type": "Cd"}, "8": {"label": "*0", "atom_type": "Cd"}, "9": {"label": "*1", "atom_type": "Cs"}, "16": {"label": "*2", "atom_type": "H0"}}

>  <type>  (18) 
unop_14

>  <geom_source>  (18) 
gaussian_log

$$$$
