
     RDKit          3D

  9  8  0  0  0  0  0  0  0  0999 V2000
   -2.1022   -0.6873    0.3932 C   0  0  0  0  0  0  0  0  0  0  0  0
   -1.2072   -0.1086   -0.1482 C   0  0  0  0  0  0  0  0  0  0  0  0
   -0.1242    0.6105   -0.8193 C   0  0  0  0  0  0  0  0  0  0  0  0
    1.2067    0.1106   -0.4741 C   0  0  0  0  0  0  0  0  0  0  0  0
    2.3005   -0.2875   -0.2012 C   0  0  0  0  0  0  0  0  0  0  0  0
   -2.8942   -1.2059    0.8778 H   0  0  0  0  0  0  0  0  0  0  0  0
   -0.1862    1.6723   -0.5649 H   0  0  0  0  0  0  0  0  0  0  0  0
   -0.2641    0.5418   -1.9017 H   0  0  0  0  0  0  0  0  0  0  0  0
    3.2709   -0.6459    0.0455 H   0  0  0  0  0  0  0  0  0  0  0  0
  1  2  3  0
  1  6  1  0
  2  3  1  0
  3  4  1  0
  3  7  1  0
  3  8  1  0
  4  5  3  0
  5  9  1  0
M  END
>  <reaction>  (1) 
rxn_1362

>  <mol_properties>  (1) 
{"2": {"label": "donator", "atom_type": "Cs"}, "6": {"label": "d_hydrogen", "atom_type": "H0"}}

>  <type>  (1) 
r1h

$$$$

     RDKit          3D

  5  4  0  0  0  0  0  0  0  0999 V2000
    0.0397    0.7134    0.0000 C   0  0  0  0  0  3  0  0  0  0  0  0
    0.0458   -0.5870    0.0000 C   0  0  0  0  0  0  0  0  0  0  0  0
   -0.6871    1.5118    0.0000 H   0  0  0  0  0  0  0  0  0  0  0  0
   -0.8806   -1.1637    0.0000 H   0  0  0  0  0  0  0  0  0  0  0  0
    0.9690   -1.1600    0.0000 H   0  0  0  0  0  0  0  0  0  0  0  0
  1  2  2  3
  1  3  1  0
  2  4  1  0
  2  5  1  0
M  RAD  1   1   2
M  END
>  <reaction>  (2) 
rxn_1362

>  <mol_properties>  (2) 
{"0": {"label": "acceptor", "atom_type": "Cd"}}

>  <type>  (2) 
r2

$$$$

     RDKit          3D

  6  5  0  0  0  0  0  0  0  0999 V2000
    0.6594    0.0438   -0.0050 C   0  0  0  0  0  0  0  0  0  0  0  0
   -0.6594   -0.0438    0.0050 C   0  0  0  0  0  0  0  0  0  0  0  0
    1.1706    0.8681   -0.4881 H   0  0  0  0  0  0  0  0  0  0  0  0
    1.2824   -0.7051    0.4696 H   0  0  0  0  0  0  0  0  0  0  0  0
   -1.2824    0.7051   -0.4696 H   0  0  0  0  0  0  0  0  0  0  0  0
   -1.1706   -0.8681    0.4881 H   0  0  0  0  0  0  0  0  0  0  0  0
  1  2  2  3
  1  3  1  0
  1  4  1  0
  2  5  1  0
  2  6  1  0
M  END
>  <reaction>  (3) 
rxn_1362

>  <mol_properties>  (3) 
{"0": {"label": "a_hydrogen", "atom_type": "H0"}, "1": {"label": "acceptor", "atom_type": "Cd"}}

>  <type>  (3) 
r2h

$$$$

     RDKit          3D

 14 12  0  0  0  0  0  0  0  0999 V2000
    0.0358   -0.4556   -2.3965 C   0  0  0  0  0  0  0  0  0  0  0  0
   -0.0537   -0.6285   -1.2141 C   0  0  0  0  0  0  0  0  0  0  0  0
   -0.1154   -0.8057    0.2184 C   0  0  0  0  0  0  0  0  0  0  0  0
   -1.4239   -0.6585    0.8139 C   0  0  0  0  0  0  0  0  0  0  0  0
   -2.4886   -0.5110    1.3423 C   0  0  0  0  0  0  0  0  0  0  0  0
    0.0993   -0.3141   -3.4486 H   0  0  0  0  0  0  0  0  0  0  0  0
    0.6017    0.0593    0.7078 H   0  0  0  0  0  0  0  0  0  0  0  0
    0.3682   -1.7333    0.5291 H   0  0  0  0  0  0  0  0  0  0  0  0
   -3.4403   -0.3869    1.8001 H   0  0  0  0  0  0  0  0  0  0  0  0
    1.5243    1.1682    1.1615 C   0  0  0  0  0  3  0  0  0  0  0  0
    2.0762    1.8166    0.1707 C   0  0  0  0  0  0  0  0  0  0  0  0
    1.5870    1.2791    2.2361 H   0  0  0  0  0  0  0  0  0  0  0  0
    2.7545    2.6512    0.3395 H   0  0  0  0  0  0  0  0  0  0  0  0
    1.8740    1.5481   -0.8625 H   0  0  0  0  0  0  0  0  0  0  0  0
  1  2  3  0
  1  6  1  0
  2  3  1  0
  3  4  1  0
  3  7  1  0
  3  8  1  0
  4  5  3  0
  5  9  1  0
 10 11  2  3
 10 12  1  0
 11 13  1  0
 11 14  1  0
M  RAD  1  10   2
M  END
>  <reaction>  (4) 
rxn_1362

>  <mol_properties>  (4) 
{"1": {"label": "*0", "atom_type": "Ct"}, "2": {"label": "*1", "atom_type": "Cs"}, "6": {"label": "*2", "atom_type": "H0"}, "9": {"label": "*3", "atom_type": "Cd"}, "10": {"label": "*4", "atom_type": "Cd"}}

>  <type>  (4) 
ts

$$$$

     RDKit          3D

 14 12  0  0  0  0  0  0  0  0999 V2000
    0.0564   -0.7969   -2.6964 C   0  0  0  0  0  0  0  0  0  0  0  0
    0.0564   -0.7969   -1.5009 C   0  0  0  0  0  0  0  0  0  0  0  0
    0.0564   -0.7969   -0.0379 C   0  0  0  0  0  3  0  0  0  0  0  0
   -1.2576   -0.5213    0.5433 C   0  0  0  0  0  0  0  0  0  0  0  0
   -2.3314   -0.2961    1.0182 C   0  0  0  0  0  0  0  0  0  0  0  0
    0.0564   -0.7969   -3.7599 H   0  0  0  0  0  0  0  0  0  0  0  0
    0.9145    0.0975    0.3932 H   0  0  0  0  0  0  0  0  0  0  0  0
    0.4118   -1.7668    0.3213 H   0  0  0  0  0  0  0  0  0  0  0  0
   -3.2866   -0.0957    1.4406 H   0  0  0  0  0  0  0  0  0  0  0  0
    1.7649    0.9837    0.8203 C   0  0  0  0  0  0  0  0  0  0  0  0
    1.3870    1.9976    1.5794 C   0  0  0  0  0  0  0  0  0  0  0  0
    2.6438    0.3949    1.0546 H   0  0  0  0  0  0  0  0  0  0  0  0
    1.9410    2.2807    2.4666 H   0  0  0  0  0  0  0  0  0  0  0  0
    0.5081    2.5865    1.3451 H   0  0  0  0  0  0  0  0  0  0  0  0
  1  2  3  0
  1  6  1  0
  2  3  1  0
  3  4  1  0
  3  8  1  0
  4  5  3  0
  5  9  1  0
  7 10  1  0
 10 11  2  3
 10 12  1  0
 11 13  1  0
 11 14  1  0
M  RAD  1   3   2
M  END
>  <reaction>  (5) 
rxn_1362

>  <mol_properties>  (5) 
{"1": {"label": "*0", "atom_type": "Ct"}, "2": {"label": "*1", "atom_type": "Cs"}, "6": {"label": "*2", "atom_type": "H0"}, "9": {"label": "*3", "atom_type": "Cd"}, "10": {"label": "*4", "atom_type": "Cd"}}

>  <type>  (5) 
unop_1

>  <geom_source>  (5) 
Heuristics

$$$$

     RDKit          3D

 14 12  0  0  0  0  0  0  0  0999 V2000
   -0.0422   -0.8155   -2.4681 C   0  0  0  0  0  0  0  0  0  0  0  0
   -0.0422   -0.8155   -1.2726 C   0  0  0  0  0  0  0  0  0  0  0  0
   -0.0422   -0.8155    0.1904 C   0  0  0  0  0  3  0  0  0  0  0  0
   -1.3563   -0.5399    0.7715 C   0  0  0  0  0  0  0  0  0  0  0  0
   -2.4300   -0.3147    1.2464 C   0  0  0  0  0  0  0  0  0  0  0  0
   -0.0422   -0.8155   -3.5316 H   0  0  0  0  0  0  0  0  0  0  0  0
    0.8159    0.0789    0.6214 H   0  0  0  0  0  0  0  0  0  0  0  0
    0.3131   -1.7853    0.5496 H   0  0  0  0  0  0  0  0  0  0  0  0
   -3.3852   -0.1143    1.6689 H   0  0  0  0  0  0  0  0  0  0  0  0
    1.6662    0.9652    1.0485 C   0  0  0  0  0  0  0  0  0  0  0  0
    1.9352    2.0582    0.3558 C   0  0  0  0  0  0  0  0  0  0  0  0
    1.9074    0.8862    2.1020 H   0  0  0  0  0  0  0  0  0  0  0  0
    2.4077    2.9193    0.8134 H   0  0  0  0  0  0  0  0  0  0  0  0
    1.6940    2.1372   -0.6977 H   0  0  0  0  0  0  0  0  0  0  0  0
  1  2  3  0
  1  6  1  0
  2  3  1  0
  3  4  1  0
  3  8  1  0
  4  5  3  0
  5  9  1  0
  7 10  1  0
 10 11  2  3
 10 12  1  0
 11 13  1  0
 11 14  1  0
M  RAD  1   3   2
M  END
>  <reaction>  (6) 
rxn_1362

>  <mol_properties>  (6) 
{"1": {"label": "*0", "atom_type": "Ct"}, "2": {"label": "*1", "atom_type": "Cs"}, "6": {"label": "*2", "atom_type": "H0"}, "9": {"label": "*3", "atom_type": "Cd"}, "10": {"label": "*4", "atom_type": "Cd"}}

>  <type>  (6) 
unop_2

>  <geom_source>  (6) 
Heuristics

$$$$

     RDKit          3D

 14 12  0  0  0  0  0  0  0  0999 V2000
    0.0220   -0.7375   -2.7536 C   0  0  0  0  0  0  0  0  0  0  0  0
    0.0220   -0.7375   -1.5581 C   0  0  0  0  0  0  0  0  0  0  0  0
    0.0220   -0.7375   -0.0951 C   0  0  0  0  0  3  0  0  0  0  0  0
   -1.2920   -0.4619    0.4860 C   0  0  0  0  0  0  0  0  0  0  0  0
   -2.3658   -0.2367    0.9609 C   0  0  0  0  0  0  0  0  0  0  0  0
    0.0220   -0.7375   -3.8171 H   0  0  0  0  0  0  0  0  0  0  0  0
    0.8801    0.1569    0.3359 H   0  0  0  0  0  0  0  0  0  0  0  0
    0.3773   -1.7074    0.2641 H   0  0  0  0  0  0  0  0  0  0  0  0
   -3.3210   -0.0363    1.3834 H   0  0  0  0  0  0  0  0  0  0  0  0
    1.7304    1.0431    0.7630 C   0  0  0  0  0  0  0  0  0  0  0  0
    1.5562    1.6742    1.9112 C   0  0  0  0  0  0  0  0  0  0  0  0
    2.7142    0.7398    0.4247 H   0  0  0  0  0  0  0  0  0  0  0  0
    2.3900    1.9137    2.5605 H   0  0  0  0  0  0  0  0  0  0  0  0
    0.5724    1.9775    2.2495 H   0  0  0  0  0  0  0  0  0  0  0  0
  1  2  3  0
  1  6  1  0
  2  3  1  0
  3  4  1  0
  3  8  1  0
  4  5  3  0
  5  9  1  0
  7 10  1  0
 10 11  2  3
 10 12  1  0
 11 13  1  0
 11 14  1  0
M  RAD  1   3   2
M  END
>  <reaction>  (7) 
rxn_1362

>  <mol_properties>  (7) 
{"1": {"label": "*0", "atom_type": "Ct"}, "2": {"label": "*1", "atom_type": "Cs"}, "6": {"label": "*2", "atom_type": "H0"}, "9": {"label": "*3", "atom_type": "Cd"}, "10": {"label": "*4", "atom_type": "Cd"}}

>  <type>  (7) 
unop_3

>  <geom_source>  (7) 
Heuristics

$$$$

     RDKit          3D

 14 12  0  0  0  0  0  0  0  0999 V2000
   -0.2018   -0.6310   -2.5305 C   0  0  0  0  0  0  0  0  0  0  0  0
   -0.2018   -0.6310   -1.3350 C   0  0  0  0  0  0  0  0  0  0  0  0
   -0.2018   -0.6310    0.1280 C   0  0  0  0  0  3  0  0  0  0  0  0
   -1.5158   -0.3554    0.7091 C   0  0  0  0  0  0  0  0  0  0  0  0
   -2.5896   -0.1301    1.1840 C   0  0  0  0  0  0  0  0  0  0  0  0
   -0.2018   -0.6310   -3.5940 H   0  0  0  0  0  0  0  0  0  0  0  0
    0.6563    0.2634    0.5590 H   0  0  0  0  0  0  0  0  0  0  0  0
    0.1536   -1.6008    0.4872 H   0  0  0  0  0  0  0  0  0  0  0  0
   -3.5448    0.0702    1.6065 H   0  0  0  0  0  0  0  0  0  0  0  0
    1.5066    1.1497    0.9861 C   0  0  0  0  0  0  0  0  0  0  0  0
    2.7912    1.0808    0.6824 C   0  0  0  0  0  0  0  0  0  0  0  0
    1.1671    1.5566    1.9313 H   0  0  0  0  0  0  0  0  0  0  0  0
    3.5564    1.4285    1.3664 H   0  0  0  0  0  0  0  0  0  0  0  0
    3.1307    0.6739   -0.2628 H   0  0  0  0  0  0  0  0  0  0  0  0
  1  2  3  0
  1  6  1  0
  2  3  1  0
  3  4  1  0
  3  8  1  0
  4  5  3  0
  5  9  1  0
  7 10  1  0
 10 11  2  3
 10 12  1  0
 11 13  1  0
 11 14  1  0
M  RAD  1   3   2
M  END
>  <reaction>  (8) 
rxn_1362

>  <mol_properties>  (8) 
{"1": {"label": "*0", "atom_type": "Ct"}, "2": {"label": "*1", "atom_type": "Cs"}, "6": {"label": "*2", "atom_type": "H0"}, "9": {"label": "*3", "atom_type": "Cd"}, "10": {"label": "*4", "atom_type": "Cd"}}

>  <type>  (8) 
unop_4

>  <geom_source>  (8) 
Heuristics

$$$$

     RDKit          3D

 14 12  0  0  0  0  0  0  0  0999 V2000
   -0.0338   -0.6776   -2.7723 C   0  0  0  0  0  0  0  0  0  0  0  0
   -0.0338   -0.6776   -1.5768 C   0  0  0  0  0  0  0  0  0  0  0  0
   -0.0338   -0.6776   -0.1138 C   0  0  0  0  0  3  0  0  0  0  0  0
   -1.3479   -0.4020    0.4674 C   0  0  0  0  0  0  0  0  0  0  0  0
   -2.4216   -0.1767    0.9423 C   0  0  0  0  0  0  0  0  0  0  0  0
   -0.0338   -0.6776   -3.8358 H   0  0  0  0  0  0  0  0  0  0  0  0
    0.8243    0.2168    0.3172 H   0  0  0  0  0  0  0  0  0  0  0  0
    0.3215   -1.6474    0.2454 H   0  0  0  0  0  0  0  0  0  0  0  0
   -3.3768    0.0236    1.3647 H   0  0  0  0  0  0  0  0  0  0  0  0
    1.6746    1.1031    0.7443 C   0  0  0  0  0  0  0  0  0  0  0  0
    1.8720    1.3089    2.0349 C   0  0  0  0  0  0  0  0  0  0  0  0
    2.2134    1.6646   -0.0097 H   0  0  0  0  0  0  0  0  0  0  0  0
    2.5806    2.0474    2.3909 H   0  0  0  0  0  0  0  0  0  0  0  0
    1.3333    0.7473    2.7890 H   0  0  0  0  0  0  0  0  0  0  0  0
  1  2  3  0
  1  6  1  0
  2  3  1  0
  3  4  1  0
  3  8  1  0
  4  5  3  0
  5  9  1  0
  7 10  1  0
 10 11  2  3
 10 12  1  0
 11 13  1  0
 11 14  1  0
M  RAD  1   3   2
M  END
>  <reaction>  (9) 
rxn_1362

>  <mol_properties>  (9) 
{"1": {"label": "*0", "atom_type": "Ct"}, "2": {"label": "*1", "atom_type": "Cs"}, "6": {"label": "*2", "atom_type": "H0"}, "9": {"label": "*3", "atom_type": "Cd"}, "10": {"label": "*4", "atom_type": "Cd"}}

>  <type>  (9) 
unop_5

>  <geom_source>  (9) 
Heuristics

$$$$

     RDKit          3D

 14 12  0  0  0  0  0  0  0  0999 V2000
   -0.1962   -0.5946   -2.6144 C   0  0  0  0  0  0  0  0  0  0  0  0
   -0.1962   -0.5946   -1.4189 C   0  0  0  0  0  0  0  0  0  0  0  0
   -0.1962   -0.5946    0.0441 C   0  0  0  0  0  3  0  0  0  0  0  0
   -1.5102   -0.3190    0.6252 C   0  0  0  0  0  0  0  0  0  0  0  0
   -2.5840   -0.0938    1.1001 C   0  0  0  0  0  0  0  0  0  0  0  0
   -0.1962   -0.5946   -3.6779 H   0  0  0  0  0  0  0  0  0  0  0  0
    0.6619    0.2998    0.4751 H   0  0  0  0  0  0  0  0  0  0  0  0
    0.1592   -1.5644    0.4033 H   0  0  0  0  0  0  0  0  0  0  0  0
   -3.5392    0.1066    1.5226 H   0  0  0  0  0  0  0  0  0  0  0  0
    1.5122    1.1861    0.9022 C   0  0  0  0  0  0  0  0  0  0  0  0
    2.7776    0.8795    1.1299 C   0  0  0  0  0  0  0  0  0  0  0  0
    0.9495    1.8172    1.5799 H   0  0  0  0  0  0  0  0  0  0  0  0
    3.3032    1.2470    2.0034 H   0  0  0  0  0  0  0  0  0  0  0  0
    3.3403    0.2483    0.4523 H   0  0  0  0  0  0  0  0  0  0  0  0
  1  2  3  0
  1  6  1  0
  2  3  1  0
  3  4  1  0
  3  8  1  0
  4  5  3  0
  5  9  1  0
  7 10  1  0
 10 11  2  3
 10 12  1  0
 11 13  1  0
 11 14  1  0
M  RAD  1   3   2
M  END
>  <reaction>  (10) 
rxn_1362

>  <mol_properties>  (10) 
{"1": {"label": "*0", "atom_type": "Ct"}, "2": {"label": "*1", "atom_type": "Cs"}, "6": {"label": "*2", "atom_type": "H0"}, "9": {"label": "*3", "atom_type": "Cd"}, "10": {"label": "*4", "atom_type": "Cd"}}

>  <type>  (10) 
unop_6

>  <geom_source>  (10) 
Heuristics

$$$$

     RDKit          3D

 14 12  0  0  0  0  0  0  0  0999 V2000
   -0.1568   -0.5923   -2.6964 C   0  0  0  0  0  0  0  0  0  0  0  0
   -0.1568   -0.5923   -1.5009 C   0  0  0  0  0  0  0  0  0  0  0  0
   -0.1568   -0.5923   -0.0379 C   0  0  0  0  0  3  0  0  0  0  0  0
   -1.4708   -0.3167    0.5433 C   0  0  0  0  0  0  0  0  0  0  0  0
   -2.5446   -0.0915    1.0182 C   0  0  0  0  0  0  0  0  0  0  0  0
   -0.1568   -0.5923   -3.7599 H   0  0  0  0  0  0  0  0  0  0  0  0
    0.7013    0.3021    0.3932 H   0  0  0  0  0  0  0  0  0  0  0  0
    0.1985   -1.5622    0.3213 H   0  0  0  0  0  0  0  0  0  0  0  0
   -3.4998    0.1088    1.4406 H   0  0  0  0  0  0  0  0  0  0  0  0
    1.5516    1.1883    0.8203 C   0  0  0  0  0  0  0  0  0  0  0  0
    2.5802    0.8528    1.5794 C   0  0  0  0  0  0  0  0  0  0  0  0
    0.9269    2.0422    1.0546 H   0  0  0  0  0  0  0  0  0  0  0  0
    2.8402    1.4180    2.4666 H   0  0  0  0  0  0  0  0  0  0  0  0
    3.2050   -0.0011    1.3451 H   0  0  0  0  0  0  0  0  0  0  0  0
  1  2  3  0
  1  6  1  0
  2  3  1  0
  3  4  1  0
  3  8  1  0
  4  5  3  0
  5  9  1  0
  7 10  1  0
 10 11  2  3
 10 12  1  0
 11 13  1  0
 11 14  1  0
M  RAD  1   3   2
M  END
>  <reaction>  (11) 
rxn_1362

>  <mol_properties>  (11) 
{"1": {"label": "*0", "atom_type": "Ct"}, "2": {"label": "*1", "atom_type": "Cs"}, "6": {"label": "*2", "atom_type": "H0"}, "9": {"label": "*3", "atom_type": "Cd"}, "10": {"label": "*4", "atom_type": "Cd"}}

>  <type>  (11) 
unop_7

>  <geom_source>  (11) 
Heuristics

$$$$

     RDKit          3D

 14 12  0  0  0  0  0  0  0  0999 V2000
    0.0558   -0.8363   -2.6144 C   0  0  0  0  0  0  0  0  0  0  0  0
    0.0558   -0.8363   -1.4189 C   0  0  0  0  0  0  0  0  0  0  0  0
    0.0558   -0.8363    0.0441 C   0  0  0  0  0  3  0  0  0  0  0  0
   -1.2582   -0.5607    0.6252 C   0  0  0  0  0  0  0  0  0  0  0  0
   -2.3320   -0.3355    1.1001 C   0  0  0  0  0  0  0  0  0  0  0  0
    0.0558   -0.8363   -3.6779 H   0  0  0  0  0  0  0  0  0  0  0  0
    0.9139    0.0580    0.4751 H   0  0  0  0  0  0  0  0  0  0  0  0
    0.4111   -1.8062    0.4033 H   0  0  0  0  0  0  0  0  0  0  0  0
   -3.2872   -0.1352    1.5226 H   0  0  0  0  0  0  0  0  0  0  0  0
    1.7642    0.9443    0.9022 C   0  0  0  0  0  0  0  0  0  0  0  0
    1.4056    2.1959    1.1299 C   0  0  0  0  0  0  0  0  0  0  0  0
    2.4181    0.4082    1.5799 H   0  0  0  0  0  0  0  0  0  0  0  0
    1.7510    2.7362    2.0034 H   0  0  0  0  0  0  0  0  0  0  0  0
    0.7516    2.7320    0.4523 H   0  0  0  0  0  0  0  0  0  0  0  0
  1  2  3  0
  1  6  1  0
  2  3  1  0
  3  4  1  0
  3  8  1  0
  4  5  3  0
  5  9  1  0
  7 10  1  0
 10 11  2  3
 10 12  1  0
 11 13  1  0
 11 14  1  0
M  RAD  1   3   2
M  END
>  <reaction>  (12) 
rxn_1362

>  <mol_properties>  (12) 
{"1": {"label": "*0", "atom_type": "Ct"}, "2": {"label": "*1", "atom_type": "Cs"}, "6": {"label": "*2", "atom_type": "H0"}, "9": {"label": "*3", "atom_type": "Cd"}, "10": {"label": "*4", "atom_type": "Cd"}}

>  <type>  (12) 
unop_8

>  <geom_source>  (12) 
Heuristics

$$$$

     RDKit          3D

 14 12  0  0  0  0  0  0  0  0999 V2000
   -0.1713   -0.6917   -2.4681 C   0  0  0  0  0  0  0  0  0  0  0  0
   -0.1713   -0.6917   -1.2726 C   0  0  0  0  0  0  0  0  0  0  0  0
   -0.1713   -0.6917    0.1904 C   0  0  0  0  0  3  0  0  0  0  0  0
   -1.4853   -0.4161    0.7715 C   0  0  0  0  0  0  0  0  0  0  0  0
   -2.5591   -0.1908    1.2464 C   0  0  0  0  0  0  0  0  0  0  0  0
   -0.1713   -0.6917   -3.5316 H   0  0  0  0  0  0  0  0  0  0  0  0
    0.6868    0.2027    0.6214 H   0  0  0  0  0  0  0  0  0  0  0  0
    0.1841   -1.6615    0.5496 H   0  0  0  0  0  0  0  0  0  0  0  0
   -3.5143    0.0095    1.6689 H   0  0  0  0  0  0  0  0  0  0  0  0
    1.5371    1.0890    1.0485 C   0  0  0  0  0  0  0  0  0  0  0  0
    2.6181    1.4029    0.3558 C   0  0  0  0  0  0  0  0  0  0  0  0
    1.4483    1.3267    2.1020 H   0  0  0  0  0  0  0  0  0  0  0  0
    3.4589    1.9107    0.8134 H   0  0  0  0  0  0  0  0  0  0  0  0
    2.7070    1.1652   -0.6977 H   0  0  0  0  0  0  0  0  0  0  0  0
  1  2  3  0
  1  6  1  0
  2  3  1  0
  3  4  1  0
  3  8  1  0
  4  5  3  0
  5  9  1  0
  7 10  1  0
 10 11  2  3
 10 12  1  0
 11 13  1  0
 11 14  1  0
M  RAD  1   3   2
M  END
>  <reaction>  (13) 
rxn_1362

>  <mol_properties>  (13) 
{"1": {"label": "*0", "atom_type": "Ct"}, "2": {"label": "*1", "atom_type": "Cs"}, "6": {"label": "*2", "atom_type": "H0"}, "9": {"label": "*3", "atom_type": "Cd"}, "10": {"label": "*4", "atom_type": "Cd"}}

>  <type>  (13) 
unop_9

>  <geom_source>  (13) 
Heuristics

$$$$

     RDKit          3D

 14 12  0  0  0  0  0  0  0  0999 V2000
    0.0197   -0.8434   -2.5305 C   0  0  0  0  0  0  0  0  0  0  0  0
    0.0197   -0.8434   -1.3350 C   0  0  0  0  0  0  0  0  0  0  0  0
    0.0197   -0.8434    0.1280 C   0  0  0  0  0  3  0  0  0  0  0  0
   -1.2944   -0.5678    0.7091 C   0  0  0  0  0  0  0  0  0  0  0  0
   -2.3681   -0.3426    1.1840 C   0  0  0  0  0  0  0  0  0  0  0  0
    0.0197   -0.8434   -3.5940 H   0  0  0  0  0  0  0  0  0  0  0  0
    0.8778    0.0509    0.5590 H   0  0  0  0  0  0  0  0  0  0  0  0
    0.3750   -1.8133    0.4872 H   0  0  0  0  0  0  0  0  0  0  0  0
   -3.3233   -0.1423    1.6065 H   0  0  0  0  0  0  0  0  0  0  0  0
    1.7281    0.9372    0.9861 C   0  0  0  0  0  0  0  0  0  0  0  0
    1.6062    2.2178    0.6824 C   0  0  0  0  0  0  0  0  0  0  0  0
    2.1487    0.6148    1.9313 H   0  0  0  0  0  0  0  0  0  0  0  0
    1.9219    2.9967    1.3664 H   0  0  0  0  0  0  0  0  0  0  0  0
    1.1856    2.5402   -0.2628 H   0  0  0  0  0  0  0  0  0  0  0  0
  1  2  3  0
  1  6  1  0
  2  3  1  0
  3  4  1  0
  3  8  1  0
  4  5  3  0
  5  9  1  0
  7 10  1  0
 10 11  2  3
 10 12  1  0
 11 13  1  0
 11 14  1  0
M  RAD  1   3   2
M  END
>  <reaction>  (14) 
rxn_1362

>  <mol_properties>  (14) 
{"1": {"label": "*0", "atom_type": "Ct"}, "2": {"label": "*1", "atom_type": "Cs"}, "6": {"label": "*2", "atom_type": "H0"}, "9": {"label": "*3", "atom_type": "Cd"}, "10": {"label": "*4", "atom_type": "Cd"}}

>  <type>  (14) 
unop_10

>  <geom_source>  (14) 
Heuristics

$$$$

     RDKit          3D

 14 12  0  0  0  0  0  0  0  0999 V2000
   -0.0960   -0.6243   -2.7536 C   0  0  0  0  0  0  0  0  0  0  0  0
   -0.0960   -0.6243   -1.5581 C   0  0  0  0  0  0  0  0  0  0  0  0
   -0.0960   -0.6243   -0.0951 C   0  0  0  0  0  3  0  0  0  0  0  0
   -1.4101   -0.3487    0.4860 C   0  0  0  0  0  0  0  0  0  0  0  0
   -2.4838   -0.1234    0.9609 C   0  0  0  0  0  0  0  0  0  0  0  0
   -0.0960   -0.6243   -3.8171 H   0  0  0  0  0  0  0  0  0  0  0  0
    0.7621    0.2701    0.3359 H   0  0  0  0  0  0  0  0  0  0  0  0
    0.2593   -1.5941    0.2641 H   0  0  0  0  0  0  0  0  0  0  0  0
   -3.4390    0.0769    1.3834 H   0  0  0  0  0  0  0  0  0  0  0  0
    1.6124    1.1564    0.7630 C   0  0  0  0  0  0  0  0  0  0  0  0
    2.2501    1.0084    1.9112 C   0  0  0  0  0  0  0  0  0  0  0  0
    1.2686    2.1268    0.4247 H   0  0  0  0  0  0  0  0  0  0  0  0
    2.4549    1.8515    2.5605 H   0  0  0  0  0  0  0  0  0  0  0  0
    2.5939    0.0380    2.2495 H   0  0  0  0  0  0  0  0  0  0  0  0
  1  2  3  0
  1  6  1  0
  2  3  1  0
  3  4  1  0
  3  8  1  0
  4  5  3  0
  5  9  1  0
  7 10  1  0
 10 11  2  3
 10 12  1  0
 11 13  1  0
 11 14  1  0
M  RAD  1   3   2
M  END
>  <reaction>  (15) 
rxn_1362

>  <mol_properties>  (15) 
{"1": {"label": "*0", "atom_type": "Ct"}, "2": {"label": "*1", "atom_type": "Cs"}, "6": {"label": "*2", "atom_type": "H0"}, "9": {"label": "*3", "atom_type": "Cd"}, "10": {"label": "*4", "atom_type": "Cd"}}

>  <type>  (15) 
unop_11

>  <geom_source>  (15) 
Heuristics

$$$$

     RDKit          3D

 14 12  0  0  0  0  0  0  0  0999 V2000
   -0.1126   -0.7597   -2.4451 C   0  0  0  0  0  0  0  0  0  0  0  0
   -0.1126   -0.7597   -1.2496 C   0  0  0  0  0  0  0  0  0  0  0  0
   -0.1126   -0.7597    0.2134 C   0  0  0  0  0  3  0  0  0  0  0  0
   -1.4266   -0.4841    0.7946 C   0  0  0  0  0  0  0  0  0  0  0  0
   -2.5004   -0.2589    1.2695 C   0  0  0  0  0  0  0  0  0  0  0  0
   -0.1126   -0.7597   -3.5086 H   0  0  0  0  0  0  0  0  0  0  0  0
    0.7455    0.1347    0.6444 H   0  0  0  0  0  0  0  0  0  0  0  0
    0.2427   -1.7295    0.5726 H   0  0  0  0  0  0  0  0  0  0  0  0
   -3.4556   -0.0585    1.6919 H   0  0  0  0  0  0  0  0  0  0  0  0
    1.5958    1.0210    1.0716 C   0  0  0  0  0  0  0  0  0  0  0  0
    2.3051    1.7602    0.2364 C   0  0  0  0  0  0  0  0  0  0  0  0
    1.6944    1.1237    2.1458 H   0  0  0  0  0  0  0  0  0  0  0  0
    3.0137    2.4987    0.5923 H   0  0  0  0  0  0  0  0  0  0  0  0
    2.2065    1.6574   -0.8378 H   0  0  0  0  0  0  0  0  0  0  0  0
  1  2  3  0
  1  6  1  0
  2  3  1  0
  3  4  1  0
  3  8  1  0
  4  5  3  0
  5  9  1  0
  7 10  1  0
 10 11  2  3
 10 12  1  0
 11 13  1  0
 11 14  1  0
M  RAD  1   3   2
M  END
>  <reaction>  (16) 
rxn_1362

>  <mol_properties>  (16) 
{"1": {"label": "*0", "atom_type": "Ct"}, "2": {"label": "*1", "atom_type": "Cs"}, "6": {"label": "*2", "atom_type": "H0"}, "9": {"label": "*3", "atom_type": "Cd"}, "10": {"label": "*4", "atom_type": "Cd"}}

>  <type>  (16) 
unop_12

>  <geom_source>  (16) 
Heuristics

$$$$

     RDKit          3D

 14 12  0  0  0  0  0  0  0  0999 V2000
   -0.8916   -0.0774   -0.7835 C   0  0  0  0  0  3  0  0  0  0  0  0
    1.4658   -0.8141    0.0183 C   0  0  0  0  0  0  0  0  0  0  0  0
    2.5548   -0.0499    0.0455 C   0  0  0  0  0  0  0  0  0  0  0  0
   -1.6590   -0.8744    0.1755 C   0  0  0  0  0  0  0  0  0  0  0  0
   -0.9464    1.3367   -0.4077 C   0  0  0  0  0  0  0  0  0  0  0  0
   -2.2904   -1.5324    0.9643 C   0  0  0  0  0  0  0  0  0  0  0  0
   -0.9902    2.5017   -0.0998 C   0  0  0  0  0  0  0  0  0  0  0  0
    1.4158   -1.7169    0.6184 H   0  0  0  0  0  0  0  0  0  0  0  0
    0.5310   -0.5080   -0.6719 H   0  0  0  0  0  0  0  0  0  0  0  0
    3.4003   -0.3243    0.6680 H   0  0  0  0  0  0  0  0  0  0  0  0
    2.6023    0.8521   -0.5553 H   0  0  0  0  0  0  0  0  0  0  0  0
   -1.3191   -0.2075   -1.7991 H   0  0  0  0  0  0  0  0  0  0  0  0
   -2.8446   -2.1098    1.6567 H   0  0  0  0  0  0  0  0  0  0  0  0
   -1.0288    3.5241    0.1706 H   0  0  0  0  0  0  0  0  0  0  0  0
  1  4  1  0
  1  5  1  0
  1 12  1  0
  2  3  2  3
  2  8  1  0
  2  9  1  0
  3 10  1  0
  3 11  1  0
  4  6  3  0
  5  7  3  0
  6 13  1  0
  7 14  1  0
M  RAD  1   1   2
M  END
>  <reaction>  (17) 
rxn_1362

>  <mol_properties>  (17) 
{"1": {"label": "*0", "atom_type": "Ct"}, "2": {"label": "*1", "atom_type": "Cs"}, "6": {"label": "*2", "atom_type": "H0"}, "9": {"label": "*3", "atom_type": "Cd"}, "10": {"label": "*4", "atom_type": "Cd"}}

>  <type>  (17) 
unop_13

>  <geom_source>  (17) 
AutoTST

$$$$
