
     RDKit          3D

 12 11  0  0  0  0  0  0  0  0999 V2000
    2.1696    0.6854    1.1310 C   0  0  0  0  0  0  0  0  0  0  0  0
    1.2518    0.4145    0.4134 C   0  0  0  0  0  0  0  0  0  0  0  0
    0.1391    0.0443   -0.4683 C   0  0  0  0  0  0  0  0  0  0  0  0
   -0.2054   -1.4492   -0.3339 C   0  0  0  0  0  0  0  0  0  0  0  0
   -1.0375    0.8853   -0.2222 C   0  0  0  0  0  0  0  0  0  0  0  0
   -2.0160    1.5463   -0.0311 C   0  0  0  0  0  0  0  0  0  0  0  0
    2.9819    0.9356    1.7702 H   0  0  0  0  0  0  0  0  0  0  0  0
    0.4629    0.2285   -1.4981 H   0  0  0  0  0  0  0  0  0  0  0  0
   -0.5327   -1.6703    0.6812 H   0  0  0  0  0  0  0  0  0  0  0  0
    0.6727   -2.0535   -0.5593 H   0  0  0  0  0  0  0  0  0  0  0  0
   -1.0064   -1.7081   -1.0256 H   0  0  0  0  0  0  0  0  0  0  0  0
   -2.8802    2.1413    0.1426 H   0  0  0  0  0  0  0  0  0  0  0  0
  1  2  3  0
  1  7  1  0
  2  3  1  0
  3  4  1  0
  3  5  1  0
  3  8  1  0
  4  9  1  0
  4 10  1  0
  4 11  1  0
  5  6  3  0
  6 12  1  0
M  END
>  <reaction>  (1) 
rxn_1391

>  <mol_properties>  (1) 
{"2": {"label": "donator", "atom_type": "Cs"}, "7": {"label": "d_hydrogen", "atom_type": "H0"}}

>  <type>  (1) 
r1h

$$$$

     RDKit          3D

  7  6  0  0  0  0  0  0  0  0999 V2000
   -0.6201    0.0189   -0.0017 C   0  0  0  0  0  0  0  0  0  0  0  0
    0.8589   -0.0553    0.0500 C   0  0  0  0  0  3  0  0  0  0  0  0
   -1.0738   -0.9730   -0.0559 H   0  0  0  0  0  0  0  0  0  0  0  0
   -0.9680    0.5706   -0.8872 H   0  0  0  0  0  0  0  0  0  0  0  0
   -1.0303    0.5369    0.8678 H   0  0  0  0  0  0  0  0  0  0  0  0
    1.3939   -0.8386   -0.4695 H   0  0  0  0  0  0  0  0  0  0  0  0
    1.4394    0.7404    0.4965 H   0  0  0  0  0  0  0  0  0  0  0  0
  1  2  1  0
  1  3  1  0
  1  4  1  0
  1  5  1  0
  2  6  1  0
  2  7  1  0
M  RAD  1   2   2
M  END
>  <reaction>  (2) 
rxn_1391

>  <mol_properties>  (2) 
{"1": {"label": "acceptor", "atom_type": "Cs"}}

>  <type>  (2) 
r2

$$$$

     RDKit          3D

  8  7  0  0  0  0  0  0  0  0999 V2000
    0.7610    0.0250    0.0051 C   0  0  0  0  0  0  0  0  0  0  0  0
   -0.7610   -0.0250   -0.0051 C   0  0  0  0  0  0  0  0  0  0  0  0
    1.1904   -0.9237   -0.3217 H   0  0  0  0  0  0  0  0  0  0  0  0
    1.1359    0.8041   -0.6609 H   0  0  0  0  0  0  0  0  0  0  0  0
    1.1435    0.2336    1.0058 H   0  0  0  0  0  0  0  0  0  0  0  0
   -1.1435   -0.2336   -1.0058 H   0  0  0  0  0  0  0  0  0  0  0  0
   -1.1904    0.9237    0.3216 H   0  0  0  0  0  0  0  0  0  0  0  0
   -1.1359   -0.8041    0.6609 H   0  0  0  0  0  0  0  0  0  0  0  0
  1  2  1  0
  1  3  1  0
  1  4  1  0
  1  5  1  0
  2  6  1  0
  2  7  1  0
  2  8  1  0
M  END
>  <reaction>  (3) 
rxn_1391

>  <mol_properties>  (3) 
{"0": {"label": "a_hydrogen", "atom_type": "H0"}, "2": {"label": "acceptor", "atom_type": "Cs"}}

>  <type>  (3) 
r2h

$$$$

     RDKit          3D

 19 17  0  0  0  0  0  0  0  0999 V2000
   -0.1130    2.1137   -1.6883 C   0  0  0  0  0  0  0  0  0  0  0  0
   -0.3551    1.2535   -0.8887 C   0  0  0  0  0  0  0  0  0  0  0  0
   -0.6057    0.2539    0.1248 C   0  0  0  0  0  0  0  0  0  0  0  0
   -1.7209    0.6180    1.1017 C   0  0  0  0  0  0  0  0  0  0  0  0
   -0.6830   -1.0953   -0.3876 C   0  0  0  0  0  0  0  0  0  0  0  0
   -0.7200   -2.2344   -0.7607 C   0  0  0  0  0  0  0  0  0  0  0  0
    0.0886    2.8674   -2.4108 H   0  0  0  0  0  0  0  0  0  0  0  0
    0.4352    0.2596    0.8326 H   0  0  0  0  0  0  0  0  0  0  0  0
   -2.6867    0.6448    0.5955 H   0  0  0  0  0  0  0  0  0  0  0  0
   -1.5275    1.5994    1.5348 H   0  0  0  0  0  0  0  0  0  0  0  0
   -1.7677   -0.1207    1.9018 H   0  0  0  0  0  0  0  0  0  0  0  0
   -0.7638   -3.2384   -1.1082 H   0  0  0  0  0  0  0  0  0  0  0  0
    2.6911   -0.1192    0.5327 C   0  0  0  0  0  0  0  0  0  0  0  0
    1.6885    0.2445    1.5818 C   0  0  0  0  0  3  0  0  0  0  0  0
    3.7026   -0.1711    0.9513 H   0  0  0  0  0  0  0  0  0  0  0  0
    2.7051    0.6191   -0.2709 H   0  0  0  0  0  0  0  0  0  0  0  0
    2.4661   -1.0931    0.0944 H   0  0  0  0  0  0  0  0  0  0  0  0
    1.7212    1.2613    1.9642 H   0  0  0  0  0  0  0  0  0  0  0  0
    1.4748   -0.5035    2.3407 H   0  0  0  0  0  0  0  0  0  0  0  0
  1  2  3  0
  1  7  1  0
  2  3  1  0
  3  4  1  0
  3  5  1  0
  3  8  1  0
  4  9  1  0
  4 10  1  0
  4 11  1  0
  5  6  3  0
  6 12  1  0
 13 14  1  0
 13 15  1  0
 13 16  1  0
 13 17  1  0
 14 18  1  0
 14 19  1  0
M  RAD  1  14   2
M  END
>  <reaction>  (4) 
rxn_1391

>  <mol_properties>  (4) 
{"1": {"label": "*0", "atom_type": "Ct"}, "2": {"label": "*1", "atom_type": "Cs"}, "7": {"label": "*2", "atom_type": "H0"}, "12": {"label": "*4", "atom_type": "Cs"}, "13": {"label": "*3", "atom_type": "Cs"}}

>  <type>  (4) 
ts

$$$$

     RDKit          3D

 19 17  0  0  0  0  0  0  0  0999 V2000
   -0.4264    0.0199   -2.7747 C   0  0  0  0  0  0  0  0  0  0  0  0
   -0.4264    0.0199   -1.5786 C   0  0  0  0  0  0  0  0  0  0  0  0
   -0.4264    0.0600   -0.1120 C   0  0  0  0  0  3  0  0  0  0  0  0
   -1.0645    1.3592    0.4100 C   0  0  0  0  0  0  0  0  0  0  0  0
   -1.0883   -1.1213    0.4528 C   0  0  0  0  0  0  0  0  0  0  0  0
   -1.6365   -2.0665    0.9393 C   0  0  0  0  0  0  0  0  0  0  0  0
   -0.4264    0.0199   -3.8382 H   0  0  0  0  0  0  0  0  0  0  0  0
    0.8272    0.0327    0.2811 H   0  0  0  0  0  0  0  0  0  0  0  0
   -2.1077    1.4164    0.1022 H   0  0  0  0  0  0  0  0  0  0  0  0
   -0.5318    2.2206    0.0083 H   0  0  0  0  0  0  0  0  0  0  0  0
   -1.0173    1.3836    1.4982 H   0  0  0  0  0  0  0  0  0  0  0  0
   -2.1239   -2.9070    1.3718 H   0  0  0  0  0  0  0  0  0  0  0  0
    2.4290    1.2470    1.4814 C   0  0  0  0  0  0  0  0  0  0  0  0
    2.0766    0.0056    0.6730 C   0  0  0  0  0  0  0  0  0  0  0  0
    3.0720    0.9989    2.3277 H   0  0  0  0  0  0  0  0  0  0  0  0
    1.5333    1.7291    1.8772 H   0  0  0  0  0  0  0  0  0  0  0  0
    2.9565    1.9811    0.8698 H   0  0  0  0  0  0  0  0  0  0  0  0
    1.5491   -0.7285    1.2845 H   0  0  0  0  0  0  0  0  0  0  0  0
    2.9722   -0.4765    0.2772 H   0  0  0  0  0  0  0  0  0  0  0  0
  1  2  3  0
  1  7  1  0
  2  3  1  0
  3  4  1  0
  3  5  1  0
  4  9  1  0
  4 10  1  0
  4 11  1  0
  5  6  3  0
  6 12  1  0
  8 14  1  0
 13 14  1  0
 13 15  1  0
 13 16  1  0
 13 17  1  0
 14 18  1  0
 14 19  1  0
M  RAD  1   3   2
M  END
>  <reaction>  (5) 
rxn_1391

>  <mol_properties>  (5) 
{"1": {"label": "*0", "atom_type": "Ct"}, "2": {"label": "*1", "atom_type": "Cs"}, "7": {"label": "*2", "atom_type": "H0"}, "12": {"label": "*4", "atom_type": "Cs"}, "13": {"label": "*3", "atom_type": "Cs"}}

>  <type>  (5) 
unop_1

>  <geom_source>  (5) 
Heuristics

$$$$

     RDKit          3D

 19 17  0  0  0  0  0  0  0  0999 V2000
   -0.5084    0.0974   -2.5135 C   0  0  0  0  0  0  0  0  0  0  0  0
   -0.5084    0.0974   -1.3173 C   0  0  0  0  0  0  0  0  0  0  0  0
   -0.5084    0.1375    0.1492 C   0  0  0  0  0  3  0  0  0  0  0  0
   -1.1464    1.4367    0.6712 C   0  0  0  0  0  0  0  0  0  0  0  0
   -1.1702   -1.0437    0.7140 C   0  0  0  0  0  0  0  0  0  0  0  0
   -1.7185   -1.9890    1.2005 C   0  0  0  0  0  0  0  0  0  0  0  0
   -0.5084    0.0974   -3.5769 H   0  0  0  0  0  0  0  0  0  0  0  0
    0.7452    0.1103    0.5424 H   0  0  0  0  0  0  0  0  0  0  0  0
   -2.1897    1.4940    0.3635 H   0  0  0  0  0  0  0  0  0  0  0  0
   -0.6138    2.2982    0.2696 H   0  0  0  0  0  0  0  0  0  0  0  0
   -1.0992    1.4612    1.7594 H   0  0  0  0  0  0  0  0  0  0  0  0
   -2.2059   -2.8294    1.6330 H   0  0  0  0  0  0  0  0  0  0  0  0
    2.9097    0.7375   -0.0922 C   0  0  0  0  0  0  0  0  0  0  0  0
    1.9946    0.0831    0.9342 C   0  0  0  0  0  0  0  0  0  0  0  0
    3.8726    1.0025    0.3480 H   0  0  0  0  0  0  0  0  0  0  0  0
    2.4665    1.6512   -0.4920 H   0  0  0  0  0  0  0  0  0  0  0  0
    3.1035    0.0690   -0.9329 H   0  0  0  0  0  0  0  0  0  0  0  0
    1.8008    0.7516    1.7749 H   0  0  0  0  0  0  0  0  0  0  0  0
    2.4378   -0.8306    1.3340 H   0  0  0  0  0  0  0  0  0  0  0  0
  1  2  3  0
  1  7  1  0
  2  3  1  0
  3  4  1  0
  3  5  1  0
  4  9  1  0
  4 10  1  0
  4 11  1  0
  5  6  3  0
  6 12  1  0
  8 14  1  0
 13 14  1  0
 13 15  1  0
 13 16  1  0
 13 17  1  0
 14 18  1  0
 14 19  1  0
M  RAD  1   3   2
M  END
>  <reaction>  (6) 
rxn_1391

>  <mol_properties>  (6) 
{"1": {"label": "*0", "atom_type": "Ct"}, "2": {"label": "*1", "atom_type": "Cs"}, "7": {"label": "*2", "atom_type": "H0"}, "12": {"label": "*4", "atom_type": "Cs"}, "13": {"label": "*3", "atom_type": "Cs"}}

>  <type>  (6) 
unop_2

>  <geom_source>  (6) 
Heuristics

$$$$

     RDKit          3D

 19 17  0  0  0  0  0  0  0  0999 V2000
   -0.4043    0.0917   -2.8437 C   0  0  0  0  0  0  0  0  0  0  0  0
   -0.4043    0.0917   -1.6475 C   0  0  0  0  0  0  0  0  0  0  0  0
   -0.4043    0.1318   -0.1810 C   0  0  0  0  0  3  0  0  0  0  0  0
   -1.0423    1.4310    0.3410 C   0  0  0  0  0  0  0  0  0  0  0  0
   -1.0661   -1.0495    0.3838 C   0  0  0  0  0  0  0  0  0  0  0  0
   -1.6143   -1.9947    0.8703 C   0  0  0  0  0  0  0  0  0  0  0  0
   -0.4043    0.0917   -3.9071 H   0  0  0  0  0  0  0  0  0  0  0  0
    0.8493    0.1045    0.2122 H   0  0  0  0  0  0  0  0  0  0  0  0
   -2.0855    1.4882    0.0333 H   0  0  0  0  0  0  0  0  0  0  0  0
   -0.5097    2.2924   -0.0606 H   0  0  0  0  0  0  0  0  0  0  0  0
   -0.9951    1.4554    1.4293 H   0  0  0  0  0  0  0  0  0  0  0  0
   -2.1018   -2.8352    1.3028 H   0  0  0  0  0  0  0  0  0  0  0  0
    2.2805    0.8180    1.9221 C   0  0  0  0  0  0  0  0  0  0  0  0
    2.0988    0.0774    0.6040 C   0  0  0  0  0  0  0  0  0  0  0  0
    3.1118    0.4057    2.4965 H   0  0  0  0  0  0  0  0  0  0  0  0
    1.3845    0.7491    2.5416 H   0  0  0  0  0  0  0  0  0  0  0  0
    2.4866    1.8769    1.7560 H   0  0  0  0  0  0  0  0  0  0  0  0
    1.8926   -0.9814    0.7701 H   0  0  0  0  0  0  0  0  0  0  0  0
    2.9947    0.1463   -0.0155 H   0  0  0  0  0  0  0  0  0  0  0  0
  1  2  3  0
  1  7  1  0
  2  3  1  0
  3  4  1  0
  3  5  1  0
  4  9  1  0
  4 10  1  0
  4 11  1  0
  5  6  3  0
  6 12  1  0
  8 14  1  0
 13 14  1  0
 13 15  1  0
 13 16  1  0
 13 17  1  0
 14 18  1  0
 14 19  1  0
M  RAD  1   3   2
M  END
>  <reaction>  (7) 
rxn_1391

>  <mol_properties>  (7) 
{"1": {"label": "*0", "atom_type": "Ct"}, "2": {"label": "*1", "atom_type": "Cs"}, "7": {"label": "*2", "atom_type": "H0"}, "12": {"label": "*4", "atom_type": "Cs"}, "13": {"label": "*3", "atom_type": "Cs"}}

>  <type>  (7) 
unop_3

>  <geom_source>  (7) 
Heuristics

$$$$

     RDKit          3D

 19 17  0  0  0  0  0  0  0  0999 V2000
   -0.4766    0.3721   -2.5929 C   0  0  0  0  0  0  0  0  0  0  0  0
   -0.4766    0.3721   -1.3968 C   0  0  0  0  0  0  0  0  0  0  0  0
   -0.4766    0.4122    0.0698 C   0  0  0  0  0  3  0  0  0  0  0  0
   -1.1146    1.7114    0.5918 C   0  0  0  0  0  0  0  0  0  0  0  0
   -1.1384   -0.7691    0.6345 C   0  0  0  0  0  0  0  0  0  0  0  0
   -1.6866   -1.7143    1.1210 C   0  0  0  0  0  0  0  0  0  0  0  0
   -0.4766    0.3721   -3.6564 H   0  0  0  0  0  0  0  0  0  0  0  0
    0.7770    0.3849    0.4629 H   0  0  0  0  0  0  0  0  0  0  0  0
   -2.1578    1.7687    0.2840 H   0  0  0  0  0  0  0  0  0  0  0  0
   -0.5820    2.5728    0.1901 H   0  0  0  0  0  0  0  0  0  0  0  0
   -1.0674    1.7358    1.6800 H   0  0  0  0  0  0  0  0  0  0  0  0
   -2.1741   -2.5548    1.5535 H   0  0  0  0  0  0  0  0  0  0  0  0
    2.7278   -0.9065    0.3767 C   0  0  0  0  0  0  0  0  0  0  0  0
    2.0265    0.3578    0.8547 C   0  0  0  0  0  0  0  0  0  0  0  0
    3.4946   -1.2256    1.0849 H   0  0  0  0  0  0  0  0  0  0  0  0
    3.2138   -0.7491   -0.5877 H   0  0  0  0  0  0  0  0  0  0  0  0
    2.0220   -1.7308    0.2604 H   0  0  0  0  0  0  0  0  0  0  0  0
    2.7323    1.1821    0.9711 H   0  0  0  0  0  0  0  0  0  0  0  0
    1.5405    0.2003    1.8192 H   0  0  0  0  0  0  0  0  0  0  0  0
  1  2  3  0
  1  7  1  0
  2  3  1  0
  3  4  1  0
  3  5  1  0
  4  9  1  0
  4 10  1  0
  4 11  1  0
  5  6  3  0
  6 12  1  0
  8 14  1  0
 13 14  1  0
 13 15  1  0
 13 16  1  0
 13 17  1  0
 14 18  1  0
 14 19  1  0
M  RAD  1   3   2
M  END
>  <reaction>  (8) 
rxn_1391

>  <mol_properties>  (8) 
{"1": {"label": "*0", "atom_type": "Ct"}, "2": {"label": "*1", "atom_type": "Cs"}, "7": {"label": "*2", "atom_type": "H0"}, "12": {"label": "*4", "atom_type": "Cs"}, "13": {"label": "*3", "atom_type": "Cs"}}

>  <type>  (8) 
unop_4

>  <geom_source>  (8) 
Heuristics

$$$$

     RDKit          3D

 19 17  0  0  0  0  0  0  0  0999 V2000
   -0.3953    0.1866   -2.8695 C   0  0  0  0  0  0  0  0  0  0  0  0
   -0.3953    0.1866   -1.6733 C   0  0  0  0  0  0  0  0  0  0  0  0
   -0.3953    0.2266   -0.2068 C   0  0  0  0  0  3  0  0  0  0  0  0
   -1.0333    1.5259    0.3152 C   0  0  0  0  0  0  0  0  0  0  0  0
   -1.0571   -0.9546    0.3580 C   0  0  0  0  0  0  0  0  0  0  0  0
   -1.6053   -1.8999    0.8445 C   0  0  0  0  0  0  0  0  0  0  0  0
   -0.3953    0.1866   -3.9329 H   0  0  0  0  0  0  0  0  0  0  0  0
    0.8583    0.1994    0.1864 H   0  0  0  0  0  0  0  0  0  0  0  0
   -2.0765    1.5831    0.0075 H   0  0  0  0  0  0  0  0  0  0  0  0
   -0.5007    2.3873   -0.0864 H   0  0  0  0  0  0  0  0  0  0  0  0
   -0.9861    1.5503    1.4034 H   0  0  0  0  0  0  0  0  0  0  0  0
   -2.0928   -2.7403    1.2770 H   0  0  0  0  0  0  0  0  0  0  0  0
    2.2112    0.2106    2.0970 C   0  0  0  0  0  0  0  0  0  0  0  0
    2.1078    0.1722    0.5782 C   0  0  0  0  0  0  0  0  0  0  0  0
    3.2524    0.1880    2.4235 H   0  0  0  0  0  0  0  0  0  0  0  0
    1.7043   -0.6432    2.5500 H   0  0  0  0  0  0  0  0  0  0  0  0
    1.7577    1.1170    2.5019 H   0  0  0  0  0  0  0  0  0  0  0  0
    2.5613   -0.7341    0.1733 H   0  0  0  0  0  0  0  0  0  0  0  0
    2.6147    1.0261    0.1252 H   0  0  0  0  0  0  0  0  0  0  0  0
  1  2  3  0
  1  7  1  0
  2  3  1  0
  3  4  1  0
  3  5  1  0
  4  9  1  0
  4 10  1  0
  4 11  1  0
  5  6  3  0
  6 12  1  0
  8 14  1  0
 13 14  1  0
 13 15  1  0
 13 16  1  0
 13 17  1  0
 14 18  1  0
 14 19  1  0
M  RAD  1   3   2
M  END
>  <reaction>  (9) 
rxn_1391

>  <mol_properties>  (9) 
{"1": {"label": "*0", "atom_type": "Ct"}, "2": {"label": "*1", "atom_type": "Cs"}, "7": {"label": "*2", "atom_type": "H0"}, "12": {"label": "*4", "atom_type": "Cs"}, "13": {"label": "*3", "atom_type": "Cs"}}

>  <type>  (9) 
unop_5

>  <geom_source>  (9) 
Heuristics

$$$$

     RDKit          3D

 19 17  0  0  0  0  0  0  0  0999 V2000
   -0.4449    0.3930   -2.6902 C   0  0  0  0  0  0  0  0  0  0  0  0
   -0.4449    0.3930   -1.4941 C   0  0  0  0  0  0  0  0  0  0  0  0
   -0.4449    0.4331   -0.0275 C   0  0  0  0  0  3  0  0  0  0  0  0
   -1.0829    1.7323    0.4945 C   0  0  0  0  0  0  0  0  0  0  0  0
   -1.1067   -0.7482    0.5373 C   0  0  0  0  0  0  0  0  0  0  0  0
   -1.6550   -1.6934    1.0237 C   0  0  0  0  0  0  0  0  0  0  0  0
   -0.4449    0.3930   -3.7537 H   0  0  0  0  0  0  0  0  0  0  0  0
    0.8087    0.4058    0.3656 H   0  0  0  0  0  0  0  0  0  0  0  0
   -2.1262    1.7895    0.1867 H   0  0  0  0  0  0  0  0  0  0  0  0
   -0.5503    2.5937    0.0928 H   0  0  0  0  0  0  0  0  0  0  0  0
   -1.0357    1.7567    1.5827 H   0  0  0  0  0  0  0  0  0  0  0  0
   -2.1424   -2.5339    1.4563 H   0  0  0  0  0  0  0  0  0  0  0  0
    2.5421   -1.0507    0.9614 C   0  0  0  0  0  0  0  0  0  0  0  0
    2.0582    0.3787    0.7574 C   0  0  0  0  0  0  0  0  0  0  0  0
    3.1836   -1.1297    1.8408 H   0  0  0  0  0  0  0  0  0  0  0  0
    3.1157   -1.4009    0.1015 H   0  0  0  0  0  0  0  0  0  0  0  0
    1.7043   -1.7361    1.1010 H   0  0  0  0  0  0  0  0  0  0  0  0
    2.8960    1.0641    0.6178 H   0  0  0  0  0  0  0  0  0  0  0  0
    1.4845    0.7289    1.6174 H   0  0  0  0  0  0  0  0  0  0  0  0
  1  2  3  0
  1  7  1  0
  2  3  1  0
  3  4  1  0
  3  5  1  0
  4  9  1  0
  4 10  1  0
  4 11  1  0
  5  6  3  0
  6 12  1  0
  8 14  1  0
 13 14  1  0
 13 15  1  0
 13 16  1  0
 13 17  1  0
 14 18  1  0
 14 19  1  0
M  RAD  1   3   2
M  END
>  <reaction>  (10) 
rxn_1391

>  <mol_properties>  (10) 
{"1": {"label": "*0", "atom_type": "Ct"}, "2": {"label": "*1", "atom_type": "Cs"}, "7": {"label": "*2", "atom_type": "H0"}, "12": {"label": "*4", "atom_type": "Cs"}, "13": {"label": "*3", "atom_type": "Cs"}}

>  <type>  (10) 
unop_6

>  <geom_source>  (10) 
Heuristics

$$$$

     RDKit          3D

 19 17  0  0  0  0  0  0  0  0999 V2000
   -0.4161    0.3597   -2.7840 C   0  0  0  0  0  0  0  0  0  0  0  0
   -0.4161    0.3597   -1.5878 C   0  0  0  0  0  0  0  0  0  0  0  0
   -0.4161    0.3998   -0.1213 C   0  0  0  0  0  3  0  0  0  0  0  0
   -1.0542    1.6990    0.4007 C   0  0  0  0  0  0  0  0  0  0  0  0
   -1.0780   -0.7814    0.4435 C   0  0  0  0  0  0  0  0  0  0  0  0
   -1.6262   -1.7267    0.9300 C   0  0  0  0  0  0  0  0  0  0  0  0
   -0.4161    0.3597   -3.8475 H   0  0  0  0  0  0  0  0  0  0  0  0
    0.8375    0.3726    0.2718 H   0  0  0  0  0  0  0  0  0  0  0  0
   -2.0974    1.7563    0.0929 H   0  0  0  0  0  0  0  0  0  0  0  0
   -0.5215    2.5604   -0.0010 H   0  0  0  0  0  0  0  0  0  0  0  0
   -1.0070    1.7235    1.4889 H   0  0  0  0  0  0  0  0  0  0  0  0
   -2.1136   -2.5671    1.3625 H   0  0  0  0  0  0  0  0  0  0  0  0
    2.3649   -0.8691    1.5392 C   0  0  0  0  0  0  0  0  0  0  0  0
    2.0869    0.3454    0.6637 C   0  0  0  0  0  0  0  0  0  0  0  0
    3.0231   -0.6146    2.3718 H   0  0  0  0  0  0  0  0  0  0  0  0
    2.8459   -1.6661    0.9695 H   0  0  0  0  0  0  0  0  0  0  0  0
    1.4423   -1.2738    1.9592 H   0  0  0  0  0  0  0  0  0  0  0  0
    3.0094    0.7501    0.2437 H   0  0  0  0  0  0  0  0  0  0  0  0
    1.6058    1.1424    1.2334 H   0  0  0  0  0  0  0  0  0  0  0  0
  1  2  3  0
  1  7  1  0
  2  3  1  0
  3  4  1  0
  3  5  1  0
  4  9  1  0
  4 10  1  0
  4 11  1  0
  5  6  3  0
  6 12  1  0
  8 14  1  0
 13 14  1  0
 13 15  1  0
 13 16  1  0
 13 17  1  0
 14 18  1  0
 14 19  1  0
M  RAD  1   3   2
M  END
>  <reaction>  (11) 
rxn_1391

>  <mol_properties>  (11) 
{"1": {"label": "*0", "atom_type": "Ct"}, "2": {"label": "*1", "atom_type": "Cs"}, "7": {"label": "*2", "atom_type": "H0"}, "12": {"label": "*4", "atom_type": "Cs"}, "13": {"label": "*3", "atom_type": "Cs"}}

>  <type>  (11) 
unop_7

>  <geom_source>  (11) 
Heuristics

$$$$

     RDKit          3D

 19 17  0  0  0  0  0  0  0  0999 V2000
   -0.4570   -0.0064   -2.6793 C   0  0  0  0  0  0  0  0  0  0  0  0
   -0.4570   -0.0064   -1.4832 C   0  0  0  0  0  0  0  0  0  0  0  0
   -0.4570    0.0337   -0.0166 C   0  0  0  0  0  3  0  0  0  0  0  0
   -1.0950    1.3329    0.5054 C   0  0  0  0  0  0  0  0  0  0  0  0
   -1.1188   -1.1476    0.5482 C   0  0  0  0  0  0  0  0  0  0  0  0
   -1.6671   -2.0929    1.0347 C   0  0  0  0  0  0  0  0  0  0  0  0
   -0.4570   -0.0064   -3.7428 H   0  0  0  0  0  0  0  0  0  0  0  0
    0.7966    0.0064    0.3765 H   0  0  0  0  0  0  0  0  0  0  0  0
   -2.1383    1.3901    0.1976 H   0  0  0  0  0  0  0  0  0  0  0  0
   -0.5624    2.1943    0.1037 H   0  0  0  0  0  0  0  0  0  0  0  0
   -1.0478    1.3573    1.5936 H   0  0  0  0  0  0  0  0  0  0  0  0
   -2.1545   -2.9333    1.4672 H   0  0  0  0  0  0  0  0  0  0  0  0
    2.6159    1.3857    0.8949 C   0  0  0  0  0  0  0  0  0  0  0  0
    2.0461   -0.0207    0.7684 C   0  0  0  0  0  0  0  0  0  0  0  0
    3.2625    1.4737    1.7697 H   0  0  0  0  0  0  0  0  0  0  0  0
    1.8213    2.1272    0.9955 H   0  0  0  0  0  0  0  0  0  0  0  0
    3.2082    1.6532    0.0180 H   0  0  0  0  0  0  0  0  0  0  0  0
    1.4537   -0.2882    1.6452 H   0  0  0  0  0  0  0  0  0  0  0  0
    2.8406   -0.7622    0.6678 H   0  0  0  0  0  0  0  0  0  0  0  0
  1  2  3  0
  1  7  1  0
  2  3  1  0
  3  4  1  0
  3  5  1  0
  4  9  1  0
  4 10  1  0
  4 11  1  0
  5  6  3  0
  6 12  1  0
  8 14  1  0
 13 14  1  0
 13 15  1  0
 13 16  1  0
 13 17  1  0
 14 18  1  0
 14 19  1  0
M  RAD  1   3   2
M  END
>  <reaction>  (12) 
rxn_1391

>  <mol_properties>  (12) 
{"1": {"label": "*0", "atom_type": "Ct"}, "2": {"label": "*1", "atom_type": "Cs"}, "7": {"label": "*2", "atom_type": "H0"}, "12": {"label": "*4", "atom_type": "Cs"}, "13": {"label": "*3", "atom_type": "Cs"}}

>  <type>  (12) 
unop_8

>  <geom_source>  (12) 
Heuristics

$$$$

     RDKit          3D

 19 17  0  0  0  0  0  0  0  0999 V2000
   -0.5022    0.3017   -2.5191 C   0  0  0  0  0  0  0  0  0  0  0  0
   -0.5022    0.3017   -1.3229 C   0  0  0  0  0  0  0  0  0  0  0  0
   -0.5022    0.3417    0.1436 C   0  0  0  0  0  3  0  0  0  0  0  0
   -1.1402    1.6410    0.6656 C   0  0  0  0  0  0  0  0  0  0  0  0
   -1.1640   -0.8395    0.7084 C   0  0  0  0  0  0  0  0  0  0  0  0
   -1.7123   -1.7848    1.1949 C   0  0  0  0  0  0  0  0  0  0  0  0
   -0.5022    0.3017   -3.5825 H   0  0  0  0  0  0  0  0  0  0  0  0
    0.7514    0.3145    0.5368 H   0  0  0  0  0  0  0  0  0  0  0  0
   -2.1835    1.6982    0.3579 H   0  0  0  0  0  0  0  0  0  0  0  0
   -0.6076    2.5024    0.2640 H   0  0  0  0  0  0  0  0  0  0  0  0
   -1.0930    1.6654    1.7539 H   0  0  0  0  0  0  0  0  0  0  0  0
   -2.1997   -2.6252    1.6274 H   0  0  0  0  0  0  0  0  0  0  0  0
    2.8729   -0.4762   -0.0590 C   0  0  0  0  0  0  0  0  0  0  0  0
    2.0008    0.2873    0.9286 C   0  0  0  0  0  0  0  0  0  0  0  0
    3.8188   -0.7746    0.3966 H   0  0  0  0  0  0  0  0  0  0  0  0
    3.1054    0.1324   -0.9346 H   0  0  0  0  0  0  0  0  0  0  0  0
    2.3746   -1.3819   -0.4091 H   0  0  0  0  0  0  0  0  0  0  0  0
    2.4991    1.1931    1.2787 H   0  0  0  0  0  0  0  0  0  0  0  0
    1.7683   -0.3213    1.8042 H   0  0  0  0  0  0  0  0  0  0  0  0
  1  2  3  0
  1  7  1  0
  2  3  1  0
  3  4  1  0
  3  5  1  0
  4  9  1  0
  4 10  1  0
  4 11  1  0
  5  6  3  0
  6 12  1  0
  8 14  1  0
 13 14  1  0
 13 15  1  0
 13 16  1  0
 13 17  1  0
 14 18  1  0
 14 19  1  0
M  RAD  1   3   2
M  END
>  <reaction>  (13) 
rxn_1391

>  <mol_properties>  (13) 
{"1": {"label": "*0", "atom_type": "Ct"}, "2": {"label": "*1", "atom_type": "Cs"}, "7": {"label": "*2", "atom_type": "H0"}, "12": {"label": "*4", "atom_type": "Cs"}, "13": {"label": "*3", "atom_type": "Cs"}}

>  <type>  (13) 
unop_9

>  <geom_source>  (13) 
Heuristics

$$$$

     RDKit          3D

 19 17  0  0  0  0  0  0  0  0999 V2000
   -0.4872    0.0216   -2.5834 C   0  0  0  0  0  0  0  0  0  0  0  0
   -0.4872    0.0216   -1.3872 C   0  0  0  0  0  0  0  0  0  0  0  0
   -0.4872    0.0617    0.0793 C   0  0  0  0  0  3  0  0  0  0  0  0
   -1.1252    1.3609    0.6013 C   0  0  0  0  0  0  0  0  0  0  0  0
   -1.1490   -1.1195    0.6441 C   0  0  0  0  0  0  0  0  0  0  0  0
   -1.6973   -2.0648    1.1306 C   0  0  0  0  0  0  0  0  0  0  0  0
   -0.4872    0.0216   -3.6468 H   0  0  0  0  0  0  0  0  0  0  0  0
    0.7664    0.0345    0.4725 H   0  0  0  0  0  0  0  0  0  0  0  0
   -2.1685    1.4182    0.2936 H   0  0  0  0  0  0  0  0  0  0  0  0
   -0.5926    2.2224    0.1997 H   0  0  0  0  0  0  0  0  0  0  0  0
   -1.0780    1.3854    1.6896 H   0  0  0  0  0  0  0  0  0  0  0  0
   -2.1847   -2.9052    1.5631 H   0  0  0  0  0  0  0  0  0  0  0  0
    2.7916    1.1989    0.3192 C   0  0  0  0  0  0  0  0  0  0  0  0
    2.0159    0.0073    0.8643 C   0  0  0  0  0  0  0  0  0  0  0  0
    3.5775    1.5092    1.0101 H   0  0  0  0  0  0  0  0  0  0  0  0
    2.1368    2.0569    0.1569 H   0  0  0  0  0  0  0  0  0  0  0  0
    3.2656    0.9600   -0.6344 H   0  0  0  0  0  0  0  0  0  0  0  0
    1.5419    0.2463    1.8180 H   0  0  0  0  0  0  0  0  0  0  0  0
    2.6707   -0.8506    1.0266 H   0  0  0  0  0  0  0  0  0  0  0  0
  1  2  3  0
  1  7  1  0
  2  3  1  0
  3  4  1  0
  3  5  1  0
  4  9  1  0
  4 10  1  0
  4 11  1  0
  5  6  3  0
  6 12  1  0
  8 14  1  0
 13 14  1  0
 13 15  1  0
 13 16  1  0
 13 17  1  0
 14 18  1  0
 14 19  1  0
M  RAD  1   3   2
M  END
>  <reaction>  (14) 
rxn_1391

>  <mol_properties>  (14) 
{"1": {"label": "*0", "atom_type": "Ct"}, "2": {"label": "*1", "atom_type": "Cs"}, "7": {"label": "*2", "atom_type": "H0"}, "12": {"label": "*4", "atom_type": "Cs"}, "13": {"label": "*3", "atom_type": "Cs"}}

>  <type>  (14) 
unop_10

>  <geom_source>  (14) 
Heuristics

$$$$

     RDKit          3D

 19 17  0  0  0  0  0  0  0  0999 V2000
   -0.3985    0.2831   -2.8489 C   0  0  0  0  0  0  0  0  0  0  0  0
   -0.3985    0.2831   -1.6527 C   0  0  0  0  0  0  0  0  0  0  0  0
   -0.3985    0.3231   -0.1862 C   0  0  0  0  0  3  0  0  0  0  0  0
   -1.0365    1.6224    0.3358 C   0  0  0  0  0  0  0  0  0  0  0  0
   -1.0603   -0.8581    0.3786 C   0  0  0  0  0  0  0  0  0  0  0  0
   -1.6085   -1.8034    0.8651 C   0  0  0  0  0  0  0  0  0  0  0  0
   -0.3985    0.2831   -3.9123 H   0  0  0  0  0  0  0  0  0  0  0  0
    0.8551    0.2959    0.2070 H   0  0  0  0  0  0  0  0  0  0  0  0
   -2.0797    1.6796    0.0281 H   0  0  0  0  0  0  0  0  0  0  0  0
   -0.5039    2.4838   -0.0658 H   0  0  0  0  0  0  0  0  0  0  0  0
   -0.9893    1.6468    1.4240 H   0  0  0  0  0  0  0  0  0  0  0  0
   -2.0960   -2.6438    1.2976 H   0  0  0  0  0  0  0  0  0  0  0  0
    2.2433   -0.4085    1.9556 C   0  0  0  0  0  0  0  0  0  0  0  0
    2.1046    0.2687    0.5988 C   0  0  0  0  0  0  0  0  0  0  0  0
    3.0990   -0.0165    2.5081 H   0  0  0  0  0  0  0  0  0  0  0  0
    2.3848   -1.4854    1.8479 H   0  0  0  0  0  0  0  0  0  0  0  0
    1.3542   -0.2519    2.5690 H   0  0  0  0  0  0  0  0  0  0  0  0
    2.9936    0.1121   -0.0146 H   0  0  0  0  0  0  0  0  0  0  0  0
    1.9631    1.3456    0.7065 H   0  0  0  0  0  0  0  0  0  0  0  0
  1  2  3  0
  1  7  1  0
  2  3  1  0
  3  4  1  0
  3  5  1  0
  4  9  1  0
  4 10  1  0
  4 11  1  0
  5  6  3  0
  6 12  1  0
  8 14  1  0
 13 14  1  0
 13 15  1  0
 13 16  1  0
 13 17  1  0
 14 18  1  0
 14 19  1  0
M  RAD  1   3   2
M  END
>  <reaction>  (15) 
rxn_1391

>  <mol_properties>  (15) 
{"1": {"label": "*0", "atom_type": "Ct"}, "2": {"label": "*1", "atom_type": "Cs"}, "7": {"label": "*2", "atom_type": "H0"}, "12": {"label": "*4", "atom_type": "Cs"}, "13": {"label": "*3", "atom_type": "Cs"}}

>  <type>  (15) 
unop_11

>  <geom_source>  (15) 
Heuristics

$$$$

     RDKit          3D

 19 17  0  0  0  0  0  0  0  0999 V2000
   -0.5141    0.2005   -2.4897 C   0  0  0  0  0  0  0  0  0  0  0  0
   -0.5141    0.2005   -1.2935 C   0  0  0  0  0  0  0  0  0  0  0  0
   -0.5141    0.2406    0.1730 C   0  0  0  0  0  3  0  0  0  0  0  0
   -1.1521    1.5398    0.6950 C   0  0  0  0  0  0  0  0  0  0  0  0
   -1.1759   -0.9406    0.7378 C   0  0  0  0  0  0  0  0  0  0  0  0
   -1.7241   -1.8859    1.2243 C   0  0  0  0  0  0  0  0  0  0  0  0
   -0.5141    0.2005   -3.5532 H   0  0  0  0  0  0  0  0  0  0  0  0
    0.7395    0.2134    0.5661 H   0  0  0  0  0  0  0  0  0  0  0  0
   -2.1953    1.5971    0.3873 H   0  0  0  0  0  0  0  0  0  0  0  0
   -0.6195    2.4013    0.2934 H   0  0  0  0  0  0  0  0  0  0  0  0
   -1.1049    1.5643    1.7832 H   0  0  0  0  0  0  0  0  0  0  0  0
   -2.2116   -2.7263    1.6568 H   0  0  0  0  0  0  0  0  0  0  0  0
    2.9392    0.1249   -0.2303 C   0  0  0  0  0  0  0  0  0  0  0  0
    1.9890    0.1862    0.9580 C   0  0  0  0  0  0  0  0  0  0  0  0
    3.9804    0.1023    0.0962 H   0  0  0  0  0  0  0  0  0  0  0  0
    2.8159    0.9925   -0.8810 H   0  0  0  0  0  0  0  0  0  0  0  0
    2.7625   -0.7677   -0.8329 H   0  0  0  0  0  0  0  0  0  0  0  0
    2.1657    1.0789    1.5605 H   0  0  0  0  0  0  0  0  0  0  0  0
    2.1124   -0.6813    1.6086 H   0  0  0  0  0  0  0  0  0  0  0  0
  1  2  3  0
  1  7  1  0
  2  3  1  0
  3  4  1  0
  3  5  1  0
  4  9  1  0
  4 10  1  0
  4 11  1  0
  5  6  3  0
  6 12  1  0
  8 14  1  0
 13 14  1  0
 13 15  1  0
 13 16  1  0
 13 17  1  0
 14 18  1  0
 14 19  1  0
M  RAD  1   3   2
M  END
>  <reaction>  (16) 
rxn_1391

>  <mol_properties>  (16) 
{"1": {"label": "*0", "atom_type": "Ct"}, "2": {"label": "*1", "atom_type": "Cs"}, "7": {"label": "*2", "atom_type": "H0"}, "12": {"label": "*4", "atom_type": "Cs"}, "13": {"label": "*3", "atom_type": "Cs"}}

>  <type>  (16) 
unop_12

>  <geom_source>  (16) 
Heuristics

$$$$

     RDKit          3D

 19 17  0  0  0  0  0  0  0  0999 V2000
    1.4721    0.7315    0.2950 C   0  0  0  0  0  0  0  0  0  0  0  0
    2.7680    0.0353   -0.0811 C   0  0  0  0  0  0  0  0  0  0  0  0
   -1.3238   -1.3188   -1.1523 C   0  0  0  0  0  0  0  0  0  0  0  0
   -0.8714   -0.2450   -0.1670 C   0  0  0  0  0  3  0  0  0  0  0  0
   -1.4972    1.0451   -0.4814 C   0  0  0  0  0  0  0  0  0  0  0  0
   -1.2011   -0.6317    1.2102 C   0  0  0  0  0  0  0  0  0  0  0  0
   -2.0099    2.1053   -0.7408 C   0  0  0  0  0  0  0  0  0  0  0  0
   -1.4704   -0.9502    2.3416 C   0  0  0  0  0  0  0  0  0  0  0  0
    1.5057    1.0403    1.3610 H   0  0  0  0  0  0  0  0  0  0  0  0
    1.3291    1.6307   -0.3406 H   0  0  0  0  0  0  0  0  0  0  0  0
    0.4917   -0.0651    0.1204 H   0  0  0  0  0  0  0  0  0  0  0  0
    3.6247    0.7256    0.0695 H   0  0  0  0  0  0  0  0  0  0  0  0
    2.7313   -0.2742   -1.1466 H   0  0  0  0  0  0  0  0  0  0  0  0
    2.9079   -0.8643    0.5542 H   0  0  0  0  0  0  0  0  0  0  0  0
   -2.4254   -1.4639   -1.1033 H   0  0  0  0  0  0  0  0  0  0  0  0
   -1.0430   -1.0252   -2.1862 H   0  0  0  0  0  0  0  0  0  0  0  0
   -0.8212   -2.2816   -0.9188 H   0  0  0  0  0  0  0  0  0  0  0  0
   -2.4601    3.0356   -0.9684 H   0  0  0  0  0  0  0  0  0  0  0  0
   -1.7069   -1.2297    3.3345 H   0  0  0  0  0  0  0  0  0  0  0  0
  1  2  1  0
  1  9  1  0
  1 10  1  0
  1 11  1  0
  2 12  1  0
  2 13  1  0
  2 14  1  0
  3  4  1  0
  3 15  1  0
  3 16  1  0
  3 17  1  0
  4  5  1  0
  4  6  1  0
  5  7  3  0
  6  8  3  0
  7 18  1  0
  8 19  1  0
M  RAD  1   4   2
M  END
>  <reaction>  (17) 
rxn_1391

>  <mol_properties>  (17) 
{"1": {"label": "*0", "atom_type": "Ct"}, "2": {"label": "*1", "atom_type": "Cs"}, "7": {"label": "*2", "atom_type": "H0"}, "12": {"label": "*4", "atom_type": "Cs"}, "13": {"label": "*3", "atom_type": "Cs"}}

>  <type>  (17) 
unop_13

>  <geom_source>  (17) 
AutoTST

$$$$
