
     RDKit          3D

  5  4  0  0  0  0  0  0  0  0999 V2000
    0.0000    0.0000    0.0000 C   0  0  0  0  0  0  0  0  0  0  0  0
   -0.6486   -0.7720   -0.4113 H   0  0  0  0  0  0  0  0  0  0  0  0
   -0.3482    0.9787   -0.3267 H   0  0  0  0  0  0  0  0  0  0  0  0
   -0.0223   -0.0487    1.0876 H   0  0  0  0  0  0  0  0  0  0  0  0
    1.0191   -0.1580   -0.3496 H   0  0  0  0  0  0  0  0  0  0  0  0
  1  2  1  0
  1  3  1  0
  1  4  1  0
  1  5  1  0
M  END
>  <reaction>  (1) 
rxn_209

>  <mol_properties>  (1) 
{"0": {"label": "donator", "atom_type": "Cs"}, "1": {"label": "d_hydrogen", "atom_type": "H0"}}

>  <type>  (1) 
r1h

$$$$

     RDKit          3D

  6  5  0  0  0  0  0  0  0  0999 V2000
   -0.4344    0.0212    0.0006 C   0  0  0  0  0  0  0  0  0  0  0  0
    0.8754    0.5852   -0.1558 O   0  0  0  0  0  0  0  0  0  0  0  0
    1.8009   -0.3034    0.0506 O   0  0  0  0  0  1  0  0  0  0  0  0
   -0.5437   -0.3548    1.0170 H   0  0  0  0  0  0  0  0  0  0  0  0
   -1.1312    0.8347   -0.1903 H   0  0  0  0  0  0  0  0  0  0  0  0
   -0.5670   -0.7829   -0.7220 H   0  0  0  0  0  0  0  0  0  0  0  0
  1  2  1  0
  1  4  1  0
  1  5  1  0
  1  6  1  0
  2  3  1  0
M  RAD  1   3   2
M  END
>  <reaction>  (2) 
rxn_209

>  <mol_properties>  (2) 
{"2": {"label": "acceptor", "atom_type": "O2s"}}

>  <type>  (2) 
r2

$$$$

     RDKit          3D

  7  6  0  0  0  0  0  0  0  0999 V2000
   -0.7707    0.0268   -0.0047 C   0  0  0  0  0  0  0  0  0  0  0  0
    0.4327    0.7555    0.0056 O   0  0  0  0  0  0  0  0  0  0  0  0
    0.2257    1.8886    0.8427 O   0  0  0  0  0  0  0  0  0  0  0  0
   -1.5847    0.6016   -0.4574 H   0  0  0  0  0  0  0  0  0  0  0  0
   -1.0534   -0.2811    1.0050 H   0  0  0  0  0  0  0  0  0  0  0  0
   -0.5599   -0.8542   -0.6123 H   0  0  0  0  0  0  0  0  0  0  0  0
    0.2626    2.6067    0.2016 H   0  0  0  0  0  0  0  0  0  0  0  0
  1  2  1  0
  1  4  1  0
  1  5  1  0
  1  6  1  0
  2  3  1  0
  3  7  1  0
M  END
>  <reaction>  (3) 
rxn_209

>  <mol_properties>  (3) 
{"2": {"label": "acceptor", "atom_type": "O2s"}, "6": {"label": "a_hydrogen", "atom_type": "H0"}}

>  <type>  (3) 
r2h

$$$$

     RDKit          3D

 11  9  0  0  0  0  0  0  0  0999 V2000
   -0.7697    1.4060    0.0481 C   0  0  0  0  0  0  0  0  0  0  0  0
   -0.4842    0.4217    1.0180 O   0  0  0  0  0  0  0  0  0  0  0  0
    0.8274    0.0107    0.8547 O   0  0  0  0  0  0  0  0  0  0  0  0
   -0.7306    0.9811   -0.9605 H   0  0  0  0  0  0  0  0  0  0  0  0
   -1.7830    1.7437    0.2659 H   0  0  0  0  0  0  0  0  0  0  0  0
   -0.0701    2.2409    0.1239 H   0  0  0  0  0  0  0  0  0  0  0  0
    0.6271   -1.9185   -0.7757 C   0  0  0  0  0  3  0  0  0  0  0  0
    0.7707   -0.8504    0.1325 H   0  0  0  0  0  0  0  0  0  0  0  0
    1.2772   -2.6742   -0.3485 H   0  0  0  0  0  0  0  0  0  0  0  0
   -0.4362   -2.1151   -0.6846 H   0  0  0  0  0  0  0  0  0  0  0  0
    0.9497   -1.5135   -1.7286 H   0  0  0  0  0  0  0  0  0  0  0  0
  1  2  1  0
  1  4  1  0
  1  5  1  0
  1  6  1  0
  2  3  1  0
  3  8  1  0
  7  9  1  0
  7 10  1  0
  7 11  1  0
M  RAD  1   7   2
M  END
>  <reaction>  (4) 
rxn_209

>  <mol_properties>  (4) 
{"1": {"label": "*0", "atom_type": "O2s"}, "2": {"label": "*1", "atom_type": "O2s"}, "6": {"label": "*3", "atom_type": "Cs"}, "7": {"label": "*2", "atom_type": "H0"}, "8": {"label": "*4", "atom_type": "H0"}}

>  <type>  (4) 
ts

$$$$

     RDKit          3D

 11  9  0  0  0  0  0  0  0  0999 V2000
   -0.9577    1.5996    0.5770 C   0  0  0  0  0  0  0  0  0  0  0  0
   -0.4982    0.2701    0.5924 O   0  0  0  0  0  0  0  0  0  0  0  0
    0.7110    0.2391   -0.1590 O   0  0  0  0  0  0  0  0  0  0  0  0
   -1.2144    1.9244   -0.4363 H   0  0  0  0  0  0  0  0  0  0  0  0
   -1.8531    1.5942    1.1997 H   0  0  0  0  0  0  0  0  0  0  0  0
   -0.2155    2.2780    1.0050 H   0  0  0  0  0  0  0  0  0  0  0  0
    0.7110   -2.0827   -0.9799 C   0  0  0  0  0  3  0  0  0  0  0  0
    0.7110   -0.8507   -0.5444 H   0  0  0  0  0  0  0  0  0  0  0  0
    1.6001   -2.5961   -0.6170 H   0  0  0  0  0  0  0  0  0  0  0  0
   -0.1781   -2.5961   -0.6170 H   0  0  0  0  0  0  0  0  0  0  0  0
    0.7110   -2.0827   -2.0689 H   0  0  0  0  0  0  0  0  0  0  0  0
  1  2  1  0
  1  4  1  0
  1  5  1  0
  1  6  1  0
  2  3  1  0
  3  8  1  0
  7  9  1  0
  7 10  1  0
  7 11  1  0
M  RAD  1   7   2
M  END
>  <reaction>  (5) 
rxn_209

>  <mol_properties>  (5) 
{"1": {"label": "*0", "atom_type": "O2s"}, "2": {"label": "*1", "atom_type": "O2s"}, "6": {"label": "*3", "atom_type": "Cs"}, "7": {"label": "*2", "atom_type": "H0"}, "8": {"label": "*4", "atom_type": "H0"}}

>  <type>  (5) 
unop_1

>  <geom_source>  (5) 
Heuristics

$$$$

     RDKit          3D

 11  9  0  0  0  0  0  0  0  0999 V2000
    0.1984    1.7924   -0.5584 C   0  0  0  0  0  0  0  0  0  0  0  0
   -0.5383    0.6357   -0.2448 O   0  0  0  0  0  0  0  0  0  0  0  0
    0.1598   -0.0311    0.8020 O   0  0  0  0  0  0  0  0  0  0  0  0
    1.1876    1.5436   -0.9554 H   0  0  0  0  0  0  0  0  0  0  0  0
   -0.3889    2.2997   -1.3248 H   0  0  0  0  0  0  0  0  0  0  0  0
    0.3037    2.4412    0.3147 H   0  0  0  0  0  0  0  0  0  0  0  0
    0.1598   -2.3529   -0.0189 C   0  0  0  0  0  3  0  0  0  0  0  0
    0.1598   -1.1209    0.4167 H   0  0  0  0  0  0  0  0  0  0  0  0
    1.0489   -2.8662    0.3441 H   0  0  0  0  0  0  0  0  0  0  0  0
   -0.7293   -2.8662    0.3441 H   0  0  0  0  0  0  0  0  0  0  0  0
    0.1598   -2.3529   -1.1078 H   0  0  0  0  0  0  0  0  0  0  0  0
  1  2  1  0
  1  4  1  0
  1  5  1  0
  1  6  1  0
  2  3  1  0
  3  8  1  0
  7  9  1  0
  7 10  1  0
  7 11  1  0
M  RAD  1   7   2
M  END
>  <reaction>  (6) 
rxn_209

>  <mol_properties>  (6) 
{"1": {"label": "*0", "atom_type": "O2s"}, "2": {"label": "*1", "atom_type": "O2s"}, "6": {"label": "*3", "atom_type": "Cs"}, "7": {"label": "*2", "atom_type": "H0"}, "8": {"label": "*4", "atom_type": "H0"}}

>  <type>  (6) 
unop_2

>  <geom_source>  (6) 
Heuristics

$$$$

     RDKit          3D

 11  9  0  0  0  0  0  0  0  0999 V2000
   -0.9936    1.3505    0.9209 C   0  0  0  0  0  0  0  0  0  0  0  0
   -0.1406    0.2380    0.8035 O   0  0  0  0  0  0  0  0  0  0  0  0
    0.5575    0.3773   -0.4298 O   0  0  0  0  0  0  0  0  0  0  0  0
   -1.7541    1.3587    0.1338 H   0  0  0  0  0  0  0  0  0  0  0  0
   -1.4723    1.2354    1.8941 H   0  0  0  0  0  0  0  0  0  0  0  0
   -0.4277    2.2851    0.8970 H   0  0  0  0  0  0  0  0  0  0  0  0
    0.5575   -1.9445   -1.2506 C   0  0  0  0  0  3  0  0  0  0  0  0
    0.5575   -0.7125   -0.8151 H   0  0  0  0  0  0  0  0  0  0  0  0
    1.4466   -2.4578   -0.8877 H   0  0  0  0  0  0  0  0  0  0  0  0
   -0.3316   -2.4578   -0.8877 H   0  0  0  0  0  0  0  0  0  0  0  0
    0.5575   -1.9445   -2.3396 H   0  0  0  0  0  0  0  0  0  0  0  0
  1  2  1  0
  1  4  1  0
  1  5  1  0
  1  6  1  0
  2  3  1  0
  3  8  1  0
  7  9  1  0
  7 10  1  0
  7 11  1  0
M  RAD  1   7   2
M  END
>  <reaction>  (7) 
rxn_209

>  <mol_properties>  (7) 
{"1": {"label": "*0", "atom_type": "O2s"}, "2": {"label": "*1", "atom_type": "O2s"}, "6": {"label": "*3", "atom_type": "Cs"}, "7": {"label": "*2", "atom_type": "H0"}, "8": {"label": "*4", "atom_type": "H0"}}

>  <type>  (7) 
unop_3

>  <geom_source>  (7) 
Heuristics

$$$$

     RDKit          3D

 11  9  0  0  0  0  0  0  0  0999 V2000
    1.4046    0.4635    0.5086 C   0  0  0  0  0  0  0  0  0  0  0  0
    0.3489    0.9640   -0.2751 O   0  0  0  0  0  0  0  0  0  0  0  0
   -0.8602    0.4676    0.2899 O   0  0  0  0  0  0  0  0  0  0  0  0
    1.4628   -0.6282    0.4543 H   0  0  0  0  0  0  0  0  0  0  0  0
    2.3058    0.9019    0.0782 H   0  0  0  0  0  0  0  0  0  0  0  0
    1.3043    0.7763    1.5508 H   0  0  0  0  0  0  0  0  0  0  0  0
   -0.8602   -1.8542   -0.5310 C   0  0  0  0  0  3  0  0  0  0  0  0
   -0.8602   -0.6222   -0.0954 H   0  0  0  0  0  0  0  0  0  0  0  0
    0.0289   -2.3675   -0.1680 H   0  0  0  0  0  0  0  0  0  0  0  0
   -1.7493   -2.3675   -0.1680 H   0  0  0  0  0  0  0  0  0  0  0  0
   -0.8602   -1.8542   -1.6199 H   0  0  0  0  0  0  0  0  0  0  0  0
  1  2  1  0
  1  4  1  0
  1  5  1  0
  1  6  1  0
  2  3  1  0
  3  8  1  0
  7  9  1  0
  7 10  1  0
  7 11  1  0
M  RAD  1   7   2
M  END
>  <reaction>  (8) 
rxn_209

>  <mol_properties>  (8) 
{"1": {"label": "*0", "atom_type": "O2s"}, "2": {"label": "*1", "atom_type": "O2s"}, "6": {"label": "*3", "atom_type": "Cs"}, "7": {"label": "*2", "atom_type": "H0"}, "8": {"label": "*4", "atom_type": "H0"}}

>  <type>  (8) 
unop_4

>  <geom_source>  (8) 
Heuristics

$$$$

     RDKit          3D

 11  9  0  0  0  0  0  0  0  0999 V2000
   -0.9330    0.8208    1.2817 C   0  0  0  0  0  0  0  0  0  0  0  0
    0.3114    0.3726    0.8023 O   0  0  0  0  0  0  0  0  0  0  0  0
    0.3114    0.5743   -0.6072 O   0  0  0  0  0  0  0  0  0  0  0  0
   -1.7570    0.2207    0.8831 H   0  0  0  0  0  0  0  0  0  0  0  0
   -0.8777    0.6973    2.3640 H   0  0  0  0  0  0  0  0  0  0  0  0
   -1.0925    1.8743    1.0389 H   0  0  0  0  0  0  0  0  0  0  0  0
    0.3114   -1.7475   -1.4281 C   0  0  0  0  0  3  0  0  0  0  0  0
    0.3114   -0.5156   -0.9925 H   0  0  0  0  0  0  0  0  0  0  0  0
    1.2005   -2.2609   -1.0651 H   0  0  0  0  0  0  0  0  0  0  0  0
   -0.5777   -2.2609   -1.0651 H   0  0  0  0  0  0  0  0  0  0  0  0
    0.3114   -1.7475   -2.5170 H   0  0  0  0  0  0  0  0  0  0  0  0
  1  2  1  0
  1  4  1  0
  1  5  1  0
  1  6  1  0
  2  3  1  0
  3  8  1  0
  7  9  1  0
  7 10  1  0
  7 11  1  0
M  RAD  1   7   2
M  END
>  <reaction>  (9) 
rxn_209

>  <mol_properties>  (9) 
{"1": {"label": "*0", "atom_type": "O2s"}, "2": {"label": "*1", "atom_type": "O2s"}, "6": {"label": "*3", "atom_type": "Cs"}, "7": {"label": "*2", "atom_type": "H0"}, "8": {"label": "*4", "atom_type": "H0"}}

>  <type>  (9) 
unop_5

>  <geom_source>  (9) 
Heuristics

$$$$

     RDKit          3D

 11  9  0  0  0  0  0  0  0  0999 V2000
    1.0749    0.1553    1.0661 C   0  0  0  0  0  0  0  0  0  0  0  0
    0.5855    0.9095   -0.0160 O   0  0  0  0  0  0  0  0  0  0  0  0
   -0.8107    0.6458   -0.1092 O   0  0  0  0  0  0  0  0  0  0  0  0
    0.9742   -0.9194    0.8850 H   0  0  0  0  0  0  0  0  0  0  0  0
    2.1308    0.4193    1.1371 H   0  0  0  0  0  0  0  0  0  0  0  0
    0.5651    0.4225    1.9950 H   0  0  0  0  0  0  0  0  0  0  0  0
   -0.8107   -1.6760   -0.9301 C   0  0  0  0  0  3  0  0  0  0  0  0
   -0.8107   -0.4441   -0.4946 H   0  0  0  0  0  0  0  0  0  0  0  0
    0.0784   -2.1894   -0.5672 H   0  0  0  0  0  0  0  0  0  0  0  0
   -1.6998   -2.1894   -0.5672 H   0  0  0  0  0  0  0  0  0  0  0  0
   -0.8107   -1.6760   -2.0191 H   0  0  0  0  0  0  0  0  0  0  0  0
  1  2  1  0
  1  4  1  0
  1  5  1  0
  1  6  1  0
  2  3  1  0
  3  8  1  0
  7  9  1  0
  7 10  1  0
  7 11  1  0
M  RAD  1   7   2
M  END
>  <reaction>  (10) 
rxn_209

>  <mol_properties>  (10) 
{"1": {"label": "*0", "atom_type": "O2s"}, "2": {"label": "*1", "atom_type": "O2s"}, "6": {"label": "*3", "atom_type": "Cs"}, "7": {"label": "*2", "atom_type": "H0"}, "8": {"label": "*4", "atom_type": "H0"}}

>  <type>  (10) 
unop_6

>  <geom_source>  (10) 
Heuristics

$$$$

     RDKit          3D

 11  9  0  0  0  0  0  0  0  0999 V2000
    0.4458    0.0405    1.4651 C   0  0  0  0  0  0  0  0  0  0  0  0
    0.6690    0.7904    0.2960 O   0  0  0  0  0  0  0  0  0  0  0  0
   -0.5401    0.7594   -0.4554 O   0  0  0  0  0  0  0  0  0  0  0  0
    0.2504   -1.0119    1.2362 H   0  0  0  0  0  0  0  0  0  0  0  0
    1.3716    0.1274    2.0351 H   0  0  0  0  0  0  0  0  0  0  0  0
   -0.3839    0.4523    2.0449 H   0  0  0  0  0  0  0  0  0  0  0  0
   -0.5401   -1.5624   -1.2763 C   0  0  0  0  0  3  0  0  0  0  0  0
   -0.5401   -0.3304   -0.8408 H   0  0  0  0  0  0  0  0  0  0  0  0
    0.3490   -2.0757   -0.9133 H   0  0  0  0  0  0  0  0  0  0  0  0
   -1.4292   -2.0757   -0.9133 H   0  0  0  0  0  0  0  0  0  0  0  0
   -0.5401   -1.5624   -2.3653 H   0  0  0  0  0  0  0  0  0  0  0  0
  1  2  1  0
  1  4  1  0
  1  5  1  0
  1  6  1  0
  2  3  1  0
  3  8  1  0
  7  9  1  0
  7 10  1  0
  7 11  1  0
M  RAD  1   7   2
M  END
>  <reaction>  (11) 
rxn_209

>  <mol_properties>  (11) 
{"1": {"label": "*0", "atom_type": "O2s"}, "2": {"label": "*1", "atom_type": "O2s"}, "6": {"label": "*3", "atom_type": "Cs"}, "7": {"label": "*2", "atom_type": "H0"}, "8": {"label": "*4", "atom_type": "H0"}}

>  <type>  (11) 
unop_7

>  <geom_source>  (11) 
Heuristics

$$$$

     RDKit          3D

 11  9  0  0  0  0  0  0  0  0999 V2000
   -0.8324    1.7630    0.1503 C   0  0  0  0  0  0  0  0  0  0  0  0
   -0.6664    0.3730    0.2896 O   0  0  0  0  0  0  0  0  0  0  0  0
    0.7297    0.1093    0.1964 O   0  0  0  0  0  0  0  0  0  0  0  0
   -0.5175    2.1081   -0.8395 H   0  0  0  0  0  0  0  0  0  0  0  0
   -1.9027    1.9316    0.2757 H   0  0  0  0  0  0  0  0  0  0  0  0
   -0.2811    2.3049    0.9228 H   0  0  0  0  0  0  0  0  0  0  0  0
    0.7297   -2.2126   -0.6245 C   0  0  0  0  0  3  0  0  0  0  0  0
    0.7297   -0.9806   -0.1890 H   0  0  0  0  0  0  0  0  0  0  0  0
    1.6189   -2.7259   -0.2615 H   0  0  0  0  0  0  0  0  0  0  0  0
   -0.1594   -2.7259   -0.2615 H   0  0  0  0  0  0  0  0  0  0  0  0
    0.7297   -2.2126   -1.7135 H   0  0  0  0  0  0  0  0  0  0  0  0
  1  2  1  0
  1  4  1  0
  1  5  1  0
  1  6  1  0
  2  3  1  0
  3  8  1  0
  7  9  1  0
  7 10  1  0
  7 11  1  0
M  RAD  1   7   2
M  END
>  <reaction>  (12) 
rxn_209

>  <mol_properties>  (12) 
{"1": {"label": "*0", "atom_type": "O2s"}, "2": {"label": "*1", "atom_type": "O2s"}, "6": {"label": "*3", "atom_type": "Cs"}, "7": {"label": "*2", "atom_type": "H0"}, "8": {"label": "*4", "atom_type": "H0"}}

>  <type>  (12) 
unop_8

>  <geom_source>  (12) 
Heuristics

$$$$

     RDKit          3D

 11  9  0  0  0  0  0  0  0  0999 V2000
    1.3761    0.9222   -0.0627 C   0  0  0  0  0  0  0  0  0  0  0  0
    0.0128    0.9261   -0.4102 O   0  0  0  0  0  0  0  0  0  0  0  0
   -0.6853    0.2593    0.6365 O   0  0  0  0  0  0  0  0  0  0  0  0
    1.7775   -0.0953   -0.0219 H   0  0  0  0  0  0  0  0  0  0  0  0
    1.8700    1.4811   -0.8585 H   0  0  0  0  0  0  0  0  0  0  0  0
    1.5399    1.4222    0.8951 H   0  0  0  0  0  0  0  0  0  0  0  0
   -0.6853   -2.0625   -0.1843 C   0  0  0  0  0  3  0  0  0  0  0  0
   -0.6853   -0.8305    0.2512 H   0  0  0  0  0  0  0  0  0  0  0  0
    0.2039   -2.5758    0.1786 H   0  0  0  0  0  0  0  0  0  0  0  0
   -1.5744   -2.5758    0.1786 H   0  0  0  0  0  0  0  0  0  0  0  0
   -0.6853   -2.0625   -1.2733 H   0  0  0  0  0  0  0  0  0  0  0  0
  1  2  1  0
  1  4  1  0
  1  5  1  0
  1  6  1  0
  2  3  1  0
  3  8  1  0
  7  9  1  0
  7 10  1  0
  7 11  1  0
M  RAD  1   7   2
M  END
>  <reaction>  (13) 
rxn_209

>  <mol_properties>  (13) 
{"1": {"label": "*0", "atom_type": "O2s"}, "2": {"label": "*1", "atom_type": "O2s"}, "6": {"label": "*3", "atom_type": "Cs"}, "7": {"label": "*2", "atom_type": "H0"}, "8": {"label": "*4", "atom_type": "H0"}}

>  <type>  (13) 
unop_9

>  <geom_source>  (13) 
Heuristics

$$$$

     RDKit          3D

 11  9  0  0  0  0  0  0  0  0999 V2000
   -0.4588    1.8612   -0.2876 C   0  0  0  0  0  0  0  0  0  0  0  0
   -0.6646    0.4976   -0.0094 O   0  0  0  0  0  0  0  0  0  0  0  0
    0.5446    0.0012    0.5556 O   0  0  0  0  0  0  0  0  0  0  0  0
    0.3183    2.0040   -1.0450 H   0  0  0  0  0  0  0  0  0  0  0  0
   -1.4161    2.2168   -0.6708 H   0  0  0  0  0  0  0  0  0  0  0  0
   -0.1968    2.4130    0.6186 H   0  0  0  0  0  0  0  0  0  0  0  0
    0.5446   -2.3207   -0.2653 C   0  0  0  0  0  3  0  0  0  0  0  0
    0.5446   -1.0887    0.1703 H   0  0  0  0  0  0  0  0  0  0  0  0
    1.4337   -2.8340    0.0977 H   0  0  0  0  0  0  0  0  0  0  0  0
   -0.3445   -2.8340    0.0977 H   0  0  0  0  0  0  0  0  0  0  0  0
    0.5446   -2.3207   -1.3542 H   0  0  0  0  0  0  0  0  0  0  0  0
  1  2  1  0
  1  4  1  0
  1  5  1  0
  1  6  1  0
  2  3  1  0
  3  8  1  0
  7  9  1  0
  7 10  1  0
  7 11  1  0
M  RAD  1   7   2
M  END
>  <reaction>  (14) 
rxn_209

>  <mol_properties>  (14) 
{"1": {"label": "*0", "atom_type": "O2s"}, "2": {"label": "*1", "atom_type": "O2s"}, "6": {"label": "*3", "atom_type": "Cs"}, "7": {"label": "*2", "atom_type": "H0"}, "8": {"label": "*4", "atom_type": "H0"}}

>  <type>  (14) 
unop_10

>  <geom_source>  (14) 
Heuristics

$$$$

     RDKit          3D

 11  9  0  0  0  0  0  0  0  0999 V2000
   -0.3563    0.2311    1.5586 C   0  0  0  0  0  0  0  0  0  0  0  0
    0.5911    0.6116    0.5907 O   0  0  0  0  0  0  0  0  0  0  0  0
   -0.1070    0.7509   -0.6426 O   0  0  0  0  0  0  0  0  0  0  0  0
   -0.7880   -0.7495    1.3346 H   0  0  0  0  0  0  0  0  0  0  0  0
    0.2025    0.1823    2.4940 H   0  0  0  0  0  0  0  0  0  0  0  0
   -1.1529    0.9743    1.6436 H   0  0  0  0  0  0  0  0  0  0  0  0
   -0.1070   -1.5709   -1.4634 C   0  0  0  0  0  3  0  0  0  0  0  0
   -0.1070   -0.3389   -1.0279 H   0  0  0  0  0  0  0  0  0  0  0  0
    0.7821   -2.0842   -1.1005 H   0  0  0  0  0  0  0  0  0  0  0  0
   -0.9961   -2.0842   -1.1005 H   0  0  0  0  0  0  0  0  0  0  0  0
   -0.1070   -1.5709   -2.5524 H   0  0  0  0  0  0  0  0  0  0  0  0
  1  2  1  0
  1  4  1  0
  1  5  1  0
  1  6  1  0
  2  3  1  0
  3  8  1  0
  7  9  1  0
  7 10  1  0
  7 11  1  0
M  RAD  1   7   2
M  END
>  <reaction>  (15) 
rxn_209

>  <mol_properties>  (15) 
{"1": {"label": "*0", "atom_type": "O2s"}, "2": {"label": "*1", "atom_type": "O2s"}, "6": {"label": "*3", "atom_type": "Cs"}, "7": {"label": "*2", "atom_type": "H0"}, "8": {"label": "*4", "atom_type": "H0"}}

>  <type>  (15) 
unop_11

>  <geom_source>  (15) 
Heuristics

$$$$

     RDKit          3D

 11  9  0  0  0  0  0  0  0  0999 V2000
    0.9330    1.4440   -0.4810 C   0  0  0  0  0  0  0  0  0  0  0  0
   -0.3114    0.7941   -0.3899 O   0  0  0  0  0  0  0  0  0  0  0  0
   -0.3114    0.0650    0.8332 O   0  0  0  0  0  0  0  0  0  0  0  0
    1.7570    0.7267   -0.5481 H   0  0  0  0  0  0  0  0  0  0  0  0
    0.8777    2.0282   -1.4004 H   0  0  0  0  0  0  0  0  0  0  0  0
    1.0925    2.1108    0.3701 H   0  0  0  0  0  0  0  0  0  0  0  0
   -0.3114   -2.2568    0.0124 C   0  0  0  0  0  3  0  0  0  0  0  0
   -0.3114   -1.0248    0.4479 H   0  0  0  0  0  0  0  0  0  0  0  0
    0.5777   -2.7702    0.3753 H   0  0  0  0  0  0  0  0  0  0  0  0
   -1.2005   -2.7702    0.3753 H   0  0  0  0  0  0  0  0  0  0  0  0
   -0.3114   -2.2568   -1.0766 H   0  0  0  0  0  0  0  0  0  0  0  0
  1  2  1  0
  1  4  1  0
  1  5  1  0
  1  6  1  0
  2  3  1  0
  3  8  1  0
  7  9  1  0
  7 10  1  0
  7 11  1  0
M  RAD  1   7   2
M  END
>  <reaction>  (16) 
rxn_209

>  <mol_properties>  (16) 
{"1": {"label": "*0", "atom_type": "O2s"}, "2": {"label": "*1", "atom_type": "O2s"}, "6": {"label": "*3", "atom_type": "Cs"}, "7": {"label": "*2", "atom_type": "H0"}, "8": {"label": "*4", "atom_type": "H0"}}

>  <type>  (16) 
unop_12

>  <geom_source>  (16) 
Heuristics

$$$$

     RDKit          3D

 11  9  0  0  0  0  0  0  0  0999 V2000
   -1.1170    0.1917    1.0112 O   0  0  0  0  0  0  0  0  0  0  0  0
   -0.1437   -0.6837    0.8460 O   0  0  0  0  0  1  0  0  0  0  0  0
   -1.9463    0.0570   -0.1103 C   0  0  0  0  0  0  0  0  0  0  0  0
    1.9428    0.0871   -0.1283 C   0  0  0  0  0  0  0  0  0  0  0  0
   -1.3868    0.2934   -1.0422 H   0  0  0  0  0  0  0  0  0  0  0  0
   -2.7903    0.7715   -0.0212 H   0  0  0  0  0  0  0  0  0  0  0  0
   -2.3654   -0.9720   -0.1662 H   0  0  0  0  0  0  0  0  0  0  0  0
    2.3972    1.0991   -0.1425 H   0  0  0  0  0  0  0  0  0  0  0  0
    2.5136   -0.5649    0.5645 H   0  0  0  0  0  0  0  0  0  0  0  0
    1.9703   -0.3450   -1.1497 H   0  0  0  0  0  0  0  0  0  0  0  0
    0.9255    0.0659    0.3387 H   0  0  0  0  0  0  0  0  0  0  0  0
  1  3  1  0
  1  2  1  0
  3  5  1  0
  3  6  1  0
  3  7  1  0
  4  8  1  0
  4  9  1  0
  4 10  1  0
  4 11  1  0
M  RAD  1   2   2
M  END
>  <reaction>  (17) 
rxn_209

>  <mol_properties>  (17) 
{"1": {"label": "*0", "atom_type": "O2s"}, "2": {"label": "*1", "atom_type": "O2s"}, "6": {"label": "*3", "atom_type": "Cs"}, "7": {"label": "*2", "atom_type": "H0"}, "8": {"label": "*4", "atom_type": "H0"}}

>  <type>  (17) 
unop_13

>  <geom_source>  (17) 
AutoTST

$$$$
