
     RDKit          3D

 12 11  0  0  0  0  0  0  0  0999 V2000
    1.4428    0.2441    1.3554 C   0  0  0  0  0  0  0  0  0  0  0  0
    0.3166    0.4887    0.4026 C   0  0  0  0  0  0  0  0  0  0  0  0
   -0.8306    1.0759    0.7113 C   0  0  0  0  0  0  0  0  0  0  0  0
   -1.9569    1.3205   -0.2415 C   0  0  0  0  0  0  0  0  0  0  0  0
    1.6690   -0.8228    1.4301 H   0  0  0  0  0  0  0  0  0  0  0  0
    2.3573    0.7388    1.0175 H   0  0  0  0  0  0  0  0  0  0  0  0
    1.2058    0.6125    2.3545 H   0  0  0  0  0  0  0  0  0  0  0  0
    0.4700    0.1508   -0.6205 H   0  0  0  0  0  0  0  0  0  0  0  0
   -0.9840    1.4138    1.7343 H   0  0  0  0  0  0  0  0  0  0  0  0
   -2.8714    0.8258    0.0963 H   0  0  0  0  0  0  0  0  0  0  0  0
   -2.1831    2.3874   -0.3163 H   0  0  0  0  0  0  0  0  0  0  0  0
   -1.7199    0.9521   -1.2407 H   0  0  0  0  0  0  0  0  0  0  0  0
  1  2  1  0
  1  5  1  0
  1  6  1  0
  1  7  1  0
  2  3  2  3
  2  8  1  0
  3  4  1  0
  3  9  1  0
  4 10  1  0
  4 11  1  0
  4 12  1  0
M  END
>  <reaction>  (1) 
rxn_102

>  <mol_properties>  (1) 
{"3": {"label": "donator", "atom_type": "Cs"}, "11": {"label": "d_hydrogen", "atom_type": "H0"}}

>  <type>  (1) 
r1h

$$$$

     RDKit          3D

  3  2  0  0  0  0  0  0  0  0999 V2000
    0.0002    0.4233    0.0000 N   0  0  0  0  0  2  0  0  0  0  0  0
   -0.8051   -0.2112    0.0000 H   0  0  0  0  0  0  0  0  0  0  0  0
    0.8049   -0.2121    0.0000 H   0  0  0  0  0  0  0  0  0  0  0  0
  1  2  1  0
  1  3  1  0
M  RAD  1   1   2
M  END
>  <reaction>  (2) 
rxn_102

>  <mol_properties>  (2) 
{"0": {"label": "acceptor", "atom_type": "N3s"}}

>  <type>  (2) 
r2

$$$$

     RDKit          3D

  4  3  0  0  0  0  0  0  0  0999 V2000
    0.0006   -0.0009    0.2762 N   0  0  0  0  0  0  0  0  0  0  0  0
   -0.4188    0.8439   -0.0883 H   0  0  0  0  0  0  0  0  0  0  0  0
   -0.5215   -0.7840   -0.0936 H   0  0  0  0  0  0  0  0  0  0  0  0
    0.9397   -0.0590   -0.0943 H   0  0  0  0  0  0  0  0  0  0  0  0
  1  2  1  0
  1  3  1  0
  1  4  1  0
M  END
>  <reaction>  (3) 
rxn_102

>  <mol_properties>  (3) 
{"0": {"label": "acceptor", "atom_type": "N3s"}, "3": {"label": "a_hydrogen", "atom_type": "H0"}}

>  <type>  (3) 
r2h

$$$$

     RDKit          3D

 15 13  0  0  0  0  0  0  0  0999 V2000
   -0.6515   -0.8962    2.6832 N   0  0  0  0  0  2  0  0  0  0  0  0
   -0.7444   -1.6350    1.9819 H   0  0  0  0  0  0  0  0  0  0  0  0
    0.1227   -1.2110    3.2725 H   0  0  0  0  0  0  0  0  0  0  0  0
   -0.3713    0.0888   -2.5660 C   0  0  0  0  0  0  0  0  0  0  0  0
    0.3584    0.0369   -1.2642 C   0  0  0  0  0  0  0  0  0  0  0  0
    0.0416    0.7432   -0.1796 C   0  0  0  0  0  0  0  0  0  0  0  0
    0.7419    0.6612    1.1080 C   0  0  0  0  0  0  0  0  0  0  0  0
    0.2921    0.4045   -3.3757 H   0  0  0  0  0  0  0  0  0  0  0  0
   -0.7546   -0.8982   -2.8394 H   0  0  0  0  0  0  0  0  0  0  0  0
   -1.2129    0.7813   -2.5239 H   0  0  0  0  0  0  0  0  0  0  0  0
    1.2181   -0.6288   -1.2178 H   0  0  0  0  0  0  0  0  0  0  0  0
   -0.8187    1.4069   -0.2233 H   0  0  0  0  0  0  0  0  0  0  0  0
    1.6975    0.1410    1.0624 H   0  0  0  0  0  0  0  0  0  0  0  0
    0.8294    1.6110    1.6349 H   0  0  0  0  0  0  0  0  0  0  0  0
    0.0256    0.0148    1.8869 H   0  0  0  0  0  0  0  0  0  0  0  0
  1  2  1  0
  1  3  1  0
  4  5  1  0
  4  8  1  0
  4  9  1  0
  4 10  1  0
  5  6  2  3
  5 11  1  0
  6  7  1  0
  6 12  1  0
  7 13  1  0
  7 14  1  0
  7 15  1  0
M  RAD  1   1   2
M  END
>  <reaction>  (4) 
rxn_102

>  <mol_properties>  (4) 
{"0": {"label": "*3", "atom_type": "N3s"}, "1": {"label": "*4", "atom_type": "H0"}, "5": {"label": "*0", "atom_type": "Cd"}, "6": {"label": "*1", "atom_type": "Cs"}, "14": {"label": "*2", "atom_type": "H0"}}

>  <type>  (4) 
ts

$$$$

     RDKit          3D

 15 13  0  0  0  0  0  0  0  0999 V2000
   -0.0035   -1.4086    2.1576 N   0  0  0  0  0  0  0  0  0  0  0  0
    0.8317   -1.5161    2.7176 H   0  0  0  0  0  0  0  0  0  0  0  0
   -0.5915   -0.8890    2.7955 H   0  0  0  0  0  0  0  0  0  0  0  0
   -0.0035   -0.1429   -2.5165 C   0  0  0  0  0  0  0  0  0  0  0  0
   -0.0035   -0.1429   -1.0212 C   0  0  0  0  0  0  0  0  0  0  0  0
   -0.0035    0.9403   -0.2578 C   0  0  0  0  0  0  0  0  0  0  0  0
   -0.0035    0.9403    1.2376 C   0  0  0  0  0  3  0  0  0  0  0  0
    0.8744   -0.6629   -2.9091 H   0  0  0  0  0  0  0  0  0  0  0  0
   -0.8813   -0.6629   -2.9091 H   0  0  0  0  0  0  0  0  0  0  0  0
   -0.0035    0.8729   -2.9144 H   0  0  0  0  0  0  0  0  0  0  0  0
   -0.0035   -1.1191   -0.5401 H   0  0  0  0  0  0  0  0  0  0  0  0
   -0.0035    1.9165   -0.7388 H   0  0  0  0  0  0  0  0  0  0  0  0
    0.8744    1.4603    1.6301 H   0  0  0  0  0  0  0  0  0  0  0  0
   -0.8813    1.4603    1.6301 H   0  0  0  0  0  0  0  0  0  0  0  0
   -0.0035   -0.2787    1.7151 H   0  0  0  0  0  0  0  0  0  0  0  0
  1  2  1  0
  1  3  1  0
  1 15  1  0
  4  5  1  0
  4  8  1  0
  4  9  1  0
  4 10  1  0
  5  6  2  3
  5 11  1  0
  6  7  1  0
  6 12  1  0
  7 13  1  0
  7 14  1  0
M  RAD  1   7   2
M  END
>  <reaction>  (5) 
rxn_102

>  <mol_properties>  (5) 
{"0": {"label": "*3", "atom_type": "N3s"}, "1": {"label": "*4", "atom_type": "H0"}, "5": {"label": "*0", "atom_type": "Cd"}, "6": {"label": "*1", "atom_type": "Cs"}, "14": {"label": "*2", "atom_type": "H0"}}

>  <type>  (5) 
unop_1

>  <geom_source>  (5) 
Heuristics

$$$$

     RDKit          3D

 15 13  0  0  0  0  0  0  0  0999 V2000
   -0.0144   -1.4022    2.1746 N   0  0  0  0  0  0  0  0  0  0  0  0
    0.4678   -1.9902    1.5080 H   0  0  0  0  0  0  0  0  0  0  0  0
    0.5329   -0.8567    2.8269 H   0  0  0  0  0  0  0  0  0  0  0  0
   -0.0144   -0.1365   -2.4996 C   0  0  0  0  0  0  0  0  0  0  0  0
   -0.0144   -0.1365   -1.0042 C   0  0  0  0  0  0  0  0  0  0  0  0
   -0.0144    0.9467   -0.2408 C   0  0  0  0  0  0  0  0  0  0  0  0
   -0.0144    0.9467    1.2545 C   0  0  0  0  0  3  0  0  0  0  0  0
    0.8635   -0.6565   -2.8921 H   0  0  0  0  0  0  0  0  0  0  0  0
   -0.8923   -0.6565   -2.8921 H   0  0  0  0  0  0  0  0  0  0  0  0
   -0.0144    0.8793   -2.8974 H   0  0  0  0  0  0  0  0  0  0  0  0
   -0.0144   -1.1127   -0.5231 H   0  0  0  0  0  0  0  0  0  0  0  0
   -0.0144    1.9229   -0.7219 H   0  0  0  0  0  0  0  0  0  0  0  0
    0.8635    1.4667    1.6471 H   0  0  0  0  0  0  0  0  0  0  0  0
   -0.8923    1.4667    1.6471 H   0  0  0  0  0  0  0  0  0  0  0  0
   -0.0144   -0.2723    1.7320 H   0  0  0  0  0  0  0  0  0  0  0  0
  1  2  1  0
  1  3  1  0
  1 15  1  0
  4  5  1  0
  4  8  1  0
  4  9  1  0
  4 10  1  0
  5  6  2  3
  5 11  1  0
  6  7  1  0
  6 12  1  0
  7 13  1  0
  7 14  1  0
M  RAD  1   7   2
M  END
>  <reaction>  (6) 
rxn_102

>  <mol_properties>  (6) 
{"0": {"label": "*3", "atom_type": "N3s"}, "1": {"label": "*4", "atom_type": "H0"}, "5": {"label": "*0", "atom_type": "Cd"}, "6": {"label": "*1", "atom_type": "Cs"}, "14": {"label": "*2", "atom_type": "H0"}}

>  <type>  (6) 
unop_2

>  <geom_source>  (6) 
Heuristics

$$$$

     RDKit          3D

 15 13  0  0  0  0  0  0  0  0999 V2000
    0.0058   -1.4053    2.1558 N   0  0  0  0  0  0  0  0  0  0  0  0
    0.4880   -1.3842    3.0444 H   0  0  0  0  0  0  0  0  0  0  0  0
   -0.8920   -1.2459    2.5930 H   0  0  0  0  0  0  0  0  0  0  0  0
    0.0058   -0.1397   -2.5183 C   0  0  0  0  0  0  0  0  0  0  0  0
    0.0058   -0.1397   -1.0229 C   0  0  0  0  0  0  0  0  0  0  0  0
    0.0058    0.9436   -0.2596 C   0  0  0  0  0  0  0  0  0  0  0  0
    0.0058    0.9436    1.2358 C   0  0  0  0  0  3  0  0  0  0  0  0
    0.8837   -0.6596   -2.9108 H   0  0  0  0  0  0  0  0  0  0  0  0
   -0.8721   -0.6596   -2.9108 H   0  0  0  0  0  0  0  0  0  0  0  0
    0.0058    0.8762   -2.9162 H   0  0  0  0  0  0  0  0  0  0  0  0
    0.0058   -1.1159   -0.5419 H   0  0  0  0  0  0  0  0  0  0  0  0
    0.0058    1.9197   -0.7406 H   0  0  0  0  0  0  0  0  0  0  0  0
    0.8837    1.4635    1.6284 H   0  0  0  0  0  0  0  0  0  0  0  0
   -0.8721    1.4635    1.6284 H   0  0  0  0  0  0  0  0  0  0  0  0
    0.0058   -0.2754    1.7133 H   0  0  0  0  0  0  0  0  0  0  0  0
  1  2  1  0
  1  3  1  0
  1 15  1  0
  4  5  1  0
  4  8  1  0
  4  9  1  0
  4 10  1  0
  5  6  2  3
  5 11  1  0
  6  7  1  0
  6 12  1  0
  7 13  1  0
  7 14  1  0
M  RAD  1   7   2
M  END
>  <reaction>  (7) 
rxn_102

>  <mol_properties>  (7) 
{"0": {"label": "*3", "atom_type": "N3s"}, "1": {"label": "*4", "atom_type": "H0"}, "5": {"label": "*0", "atom_type": "Cd"}, "6": {"label": "*1", "atom_type": "Cs"}, "14": {"label": "*2", "atom_type": "H0"}}

>  <type>  (7) 
unop_3

>  <geom_source>  (7) 
Heuristics

$$$$

     RDKit          3D

 15 13  0  0  0  0  0  0  0  0999 V2000
    0.0000   -1.3883    2.1787 N   0  0  0  0  0  0  0  0  0  0  0  0
   -0.8351   -1.8476    1.8408 H   0  0  0  0  0  0  0  0  0  0  0  0
    0.8320   -1.9625    2.2073 H   0  0  0  0  0  0  0  0  0  0  0  0
    0.0000   -0.1227   -2.4954 C   0  0  0  0  0  0  0  0  0  0  0  0
    0.0000   -0.1227   -1.0001 C   0  0  0  0  0  0  0  0  0  0  0  0
    0.0000    0.9605   -0.2367 C   0  0  0  0  0  0  0  0  0  0  0  0
    0.0000    0.9605    1.2587 C   0  0  0  0  0  3  0  0  0  0  0  0
    0.8779   -0.6427   -2.8880 H   0  0  0  0  0  0  0  0  0  0  0  0
   -0.8778   -0.6427   -2.8880 H   0  0  0  0  0  0  0  0  0  0  0  0
    0.0000    0.8931   -2.8933 H   0  0  0  0  0  0  0  0  0  0  0  0
    0.0000   -1.0989   -0.5190 H   0  0  0  0  0  0  0  0  0  0  0  0
    0.0000    1.9367   -0.7178 H   0  0  0  0  0  0  0  0  0  0  0  0
    0.8779    1.4805    1.6512 H   0  0  0  0  0  0  0  0  0  0  0  0
   -0.8778    1.4805    1.6512 H   0  0  0  0  0  0  0  0  0  0  0  0
    0.0000   -0.2585    1.7361 H   0  0  0  0  0  0  0  0  0  0  0  0
  1  2  1  0
  1  3  1  0
  1 15  1  0
  4  5  1  0
  4  8  1  0
  4  9  1  0
  4 10  1  0
  5  6  2  3
  5 11  1  0
  6  7  1  0
  6 12  1  0
  7 13  1  0
  7 14  1  0
M  RAD  1   7   2
M  END
>  <reaction>  (8) 
rxn_102

>  <mol_properties>  (8) 
{"0": {"label": "*3", "atom_type": "N3s"}, "1": {"label": "*4", "atom_type": "H0"}, "5": {"label": "*0", "atom_type": "Cd"}, "6": {"label": "*1", "atom_type": "Cs"}, "14": {"label": "*2", "atom_type": "H0"}}

>  <type>  (8) 
unop_4

>  <geom_source>  (8) 
Heuristics

$$$$

     RDKit          3D

 15 13  0  0  0  0  0  0  0  0999 V2000
    0.0122   -1.3966    2.1594 N   0  0  0  0  0  0  0  0  0  0  0  0
    0.0122   -1.3284    3.1683 H   0  0  0  0  0  0  0  0  0  0  0  0
   -0.8581   -1.9076    2.2232 H   0  0  0  0  0  0  0  0  0  0  0  0
    0.0122   -0.1309   -2.5148 C   0  0  0  0  0  0  0  0  0  0  0  0
    0.0122   -0.1309   -1.0194 C   0  0  0  0  0  0  0  0  0  0  0  0
    0.0122    0.9523   -0.2560 C   0  0  0  0  0  0  0  0  0  0  0  0
    0.0122    0.9523    1.2393 C   0  0  0  0  0  3  0  0  0  0  0  0
    0.8901   -0.6509   -2.9073 H   0  0  0  0  0  0  0  0  0  0  0  0
   -0.8657   -0.6509   -2.9073 H   0  0  0  0  0  0  0  0  0  0  0  0
    0.0122    0.8849   -2.9126 H   0  0  0  0  0  0  0  0  0  0  0  0
    0.0122   -1.1071   -0.5383 H   0  0  0  0  0  0  0  0  0  0  0  0
    0.0122    1.9285   -0.7371 H   0  0  0  0  0  0  0  0  0  0  0  0
    0.8901    1.4723    1.6319 H   0  0  0  0  0  0  0  0  0  0  0  0
   -0.8657    1.4723    1.6319 H   0  0  0  0  0  0  0  0  0  0  0  0
    0.0122   -0.2667    1.7168 H   0  0  0  0  0  0  0  0  0  0  0  0
  1  2  1  0
  1  3  1  0
  1 15  1  0
  4  5  1  0
  4  8  1  0
  4  9  1  0
  4 10  1  0
  5  6  2  3
  5 11  1  0
  6  7  1  0
  6 12  1  0
  7 13  1  0
  7 14  1  0
M  RAD  1   7   2
M  END
>  <reaction>  (9) 
rxn_102

>  <mol_properties>  (9) 
{"0": {"label": "*3", "atom_type": "N3s"}, "1": {"label": "*4", "atom_type": "H0"}, "5": {"label": "*0", "atom_type": "Cd"}, "6": {"label": "*1", "atom_type": "Cs"}, "14": {"label": "*2", "atom_type": "H0"}}

>  <type>  (9) 
unop_5

>  <geom_source>  (9) 
Heuristics

$$$$

     RDKit          3D

 15 13  0  0  0  0  0  0  0  0999 V2000
    0.0054   -1.3873    2.1743 N   0  0  0  0  0  0  0  0  0  0  0  0
   -0.9589   -1.6708    2.2854 H   0  0  0  0  0  0  0  0  0  0  0  0
    0.5839   -2.2095    2.0648 H   0  0  0  0  0  0  0  0  0  0  0  0
    0.0054   -0.1217   -2.4998 C   0  0  0  0  0  0  0  0  0  0  0  0
    0.0054   -0.1217   -1.0044 C   0  0  0  0  0  0  0  0  0  0  0  0
    0.0054    0.9615   -0.2410 C   0  0  0  0  0  0  0  0  0  0  0  0
    0.0054    0.9615    1.2543 C   0  0  0  0  0  3  0  0  0  0  0  0
    0.8833   -0.6417   -2.8923 H   0  0  0  0  0  0  0  0  0  0  0  0
   -0.8725   -0.6417   -2.8923 H   0  0  0  0  0  0  0  0  0  0  0  0
    0.0054    0.8941   -2.8977 H   0  0  0  0  0  0  0  0  0  0  0  0
    0.0054   -1.0979   -0.5234 H   0  0  0  0  0  0  0  0  0  0  0  0
    0.0054    1.9377   -0.7221 H   0  0  0  0  0  0  0  0  0  0  0  0
    0.8833    1.4815    1.6469 H   0  0  0  0  0  0  0  0  0  0  0  0
   -0.8725    1.4815    1.6469 H   0  0  0  0  0  0  0  0  0  0  0  0
    0.0054   -0.2575    1.7318 H   0  0  0  0  0  0  0  0  0  0  0  0
  1  2  1  0
  1  3  1  0
  1 15  1  0
  4  5  1  0
  4  8  1  0
  4  9  1  0
  4 10  1  0
  5  6  2  3
  5 11  1  0
  6  7  1  0
  6 12  1  0
  7 13  1  0
  7 14  1  0
M  RAD  1   7   2
M  END
>  <reaction>  (10) 
rxn_102

>  <mol_properties>  (10) 
{"0": {"label": "*3", "atom_type": "N3s"}, "1": {"label": "*4", "atom_type": "H0"}, "5": {"label": "*0", "atom_type": "Cd"}, "6": {"label": "*1", "atom_type": "Cs"}, "14": {"label": "*2", "atom_type": "H0"}}

>  <type>  (10) 
unop_6

>  <geom_source>  (10) 
Heuristics

$$$$

     RDKit          3D

 15 13  0  0  0  0  0  0  0  0999 V2000
    0.0085   -1.3878    2.1692 N   0  0  0  0  0  0  0  0  0  0  0  0
   -0.8266   -1.4954    2.7292 H   0  0  0  0  0  0  0  0  0  0  0  0
    0.2328   -2.3552    1.9787 H   0  0  0  0  0  0  0  0  0  0  0  0
    0.0085   -0.1221   -2.5049 C   0  0  0  0  0  0  0  0  0  0  0  0
    0.0085   -0.1221   -1.0096 C   0  0  0  0  0  0  0  0  0  0  0  0
    0.0085    0.9611   -0.2462 C   0  0  0  0  0  0  0  0  0  0  0  0
    0.0085    0.9611    1.2492 C   0  0  0  0  0  3  0  0  0  0  0  0
    0.8864   -0.6421   -2.8975 H   0  0  0  0  0  0  0  0  0  0  0  0
   -0.8693   -0.6421   -2.8975 H   0  0  0  0  0  0  0  0  0  0  0  0
    0.0085    0.8937   -2.9028 H   0  0  0  0  0  0  0  0  0  0  0  0
    0.0085   -1.0983   -0.5285 H   0  0  0  0  0  0  0  0  0  0  0  0
    0.0085    1.9373   -0.7273 H   0  0  0  0  0  0  0  0  0  0  0  0
    0.8864    1.4811    1.6417 H   0  0  0  0  0  0  0  0  0  0  0  0
   -0.8693    1.4811    1.6417 H   0  0  0  0  0  0  0  0  0  0  0  0
    0.0085   -0.2579    1.7266 H   0  0  0  0  0  0  0  0  0  0  0  0
  1  2  1  0
  1  3  1  0
  1 15  1  0
  4  5  1  0
  4  8  1  0
  4  9  1  0
  4 10  1  0
  5  6  2  3
  5 11  1  0
  6  7  1  0
  6 12  1  0
  7 13  1  0
  7 14  1  0
M  RAD  1   7   2
M  END
>  <reaction>  (11) 
rxn_102

>  <mol_properties>  (11) 
{"0": {"label": "*3", "atom_type": "N3s"}, "1": {"label": "*4", "atom_type": "H0"}, "5": {"label": "*0", "atom_type": "Cd"}, "6": {"label": "*1", "atom_type": "Cs"}, "14": {"label": "*2", "atom_type": "H0"}}

>  <type>  (11) 
unop_7

>  <geom_source>  (11) 
Heuristics

$$$$

     RDKit          3D

 15 13  0  0  0  0  0  0  0  0999 V2000
   -0.0102   -1.4082    2.1627 N   0  0  0  0  0  0  0  0  0  0  0  0
    0.9541   -1.6916    2.2737 H   0  0  0  0  0  0  0  0  0  0  0  0
   -0.2461   -0.7395    2.8837 H   0  0  0  0  0  0  0  0  0  0  0  0
   -0.0102   -0.1425   -2.5114 C   0  0  0  0  0  0  0  0  0  0  0  0
   -0.0102   -0.1425   -1.0160 C   0  0  0  0  0  0  0  0  0  0  0  0
   -0.0102    0.9407   -0.2526 C   0  0  0  0  0  0  0  0  0  0  0  0
   -0.0102    0.9407    1.2427 C   0  0  0  0  0  3  0  0  0  0  0  0
    0.8677   -0.6625   -2.9039 H   0  0  0  0  0  0  0  0  0  0  0  0
   -0.8881   -0.6625   -2.9039 H   0  0  0  0  0  0  0  0  0  0  0  0
   -0.0102    0.8733   -2.9093 H   0  0  0  0  0  0  0  0  0  0  0  0
   -0.0102   -1.1187   -0.5350 H   0  0  0  0  0  0  0  0  0  0  0  0
   -0.0102    1.9169   -0.7337 H   0  0  0  0  0  0  0  0  0  0  0  0
    0.8677    1.4607    1.6353 H   0  0  0  0  0  0  0  0  0  0  0  0
   -0.8881    1.4607    1.6353 H   0  0  0  0  0  0  0  0  0  0  0  0
   -0.0102   -0.2783    1.7202 H   0  0  0  0  0  0  0  0  0  0  0  0
  1  2  1  0
  1  3  1  0
  1 15  1  0
  4  5  1  0
  4  8  1  0
  4  9  1  0
  4 10  1  0
  5  6  2  3
  5 11  1  0
  6  7  1  0
  6 12  1  0
  7 13  1  0
  7 14  1  0
M  RAD  1   7   2
M  END
>  <reaction>  (12) 
rxn_102

>  <mol_properties>  (12) 
{"0": {"label": "*3", "atom_type": "N3s"}, "1": {"label": "*4", "atom_type": "H0"}, "5": {"label": "*0", "atom_type": "Cd"}, "6": {"label": "*1", "atom_type": "Cs"}, "14": {"label": "*2", "atom_type": "H0"}}

>  <type>  (12) 
unop_8

>  <geom_source>  (12) 
Heuristics

$$$$

     RDKit          3D

 15 13  0  0  0  0  0  0  0  0999 V2000
   -0.0067   -1.3916    2.1805 N   0  0  0  0  0  0  0  0  0  0  0  0
   -0.4889   -1.9796    1.5139 H   0  0  0  0  0  0  0  0  0  0  0  0
    0.9548   -1.6044    2.4104 H   0  0  0  0  0  0  0  0  0  0  0  0
   -0.0067   -0.1259   -2.4937 C   0  0  0  0  0  0  0  0  0  0  0  0
   -0.0067   -0.1259   -0.9983 C   0  0  0  0  0  0  0  0  0  0  0  0
   -0.0067    0.9573   -0.2349 C   0  0  0  0  0  0  0  0  0  0  0  0
   -0.0067    0.9573    1.2605 C   0  0  0  0  0  3  0  0  0  0  0  0
    0.8712   -0.6459   -2.8862 H   0  0  0  0  0  0  0  0  0  0  0  0
   -0.8846   -0.6459   -2.8862 H   0  0  0  0  0  0  0  0  0  0  0  0
   -0.0067    0.8899   -2.8915 H   0  0  0  0  0  0  0  0  0  0  0  0
   -0.0067   -1.1021   -0.5172 H   0  0  0  0  0  0  0  0  0  0  0  0
   -0.0067    1.9335   -0.7160 H   0  0  0  0  0  0  0  0  0  0  0  0
    0.8712    1.4773    1.6530 H   0  0  0  0  0  0  0  0  0  0  0  0
   -0.8846    1.4773    1.6530 H   0  0  0  0  0  0  0  0  0  0  0  0
   -0.0067   -0.2617    1.7379 H   0  0  0  0  0  0  0  0  0  0  0  0
  1  2  1  0
  1  3  1  0
  1 15  1  0
  4  5  1  0
  4  8  1  0
  4  9  1  0
  4 10  1  0
  5  6  2  3
  5 11  1  0
  6  7  1  0
  6 12  1  0
  7 13  1  0
  7 14  1  0
M  RAD  1   7   2
M  END
>  <reaction>  (13) 
rxn_102

>  <mol_properties>  (13) 
{"0": {"label": "*3", "atom_type": "N3s"}, "1": {"label": "*4", "atom_type": "H0"}, "5": {"label": "*0", "atom_type": "Cd"}, "6": {"label": "*1", "atom_type": "Cs"}, "14": {"label": "*2", "atom_type": "H0"}}

>  <type>  (13) 
unop_9

>  <geom_source>  (13) 
Heuristics

$$$$

     RDKit          3D

 15 13  0  0  0  0  0  0  0  0999 V2000
   -0.0137   -1.4059    2.1689 N   0  0  0  0  0  0  0  0  0  0  0  0
    0.8214   -1.8652    1.8310 H   0  0  0  0  0  0  0  0  0  0  0  0
    0.1305   -0.7211    2.8988 H   0  0  0  0  0  0  0  0  0  0  0  0
   -0.0137   -0.1403   -2.5052 C   0  0  0  0  0  0  0  0  0  0  0  0
   -0.0137   -0.1403   -1.0099 C   0  0  0  0  0  0  0  0  0  0  0  0
   -0.0137    0.9429   -0.2465 C   0  0  0  0  0  0  0  0  0  0  0  0
   -0.0137    0.9429    1.2489 C   0  0  0  0  0  3  0  0  0  0  0  0
    0.8642   -0.6603   -2.8978 H   0  0  0  0  0  0  0  0  0  0  0  0
   -0.8916   -0.6603   -2.8978 H   0  0  0  0  0  0  0  0  0  0  0  0
   -0.0137    0.8755   -2.9031 H   0  0  0  0  0  0  0  0  0  0  0  0
   -0.0137   -1.1165   -0.5288 H   0  0  0  0  0  0  0  0  0  0  0  0
   -0.0137    1.9191   -0.7276 H   0  0  0  0  0  0  0  0  0  0  0  0
    0.8642    1.4629    1.6414 H   0  0  0  0  0  0  0  0  0  0  0  0
   -0.8916    1.4629    1.6414 H   0  0  0  0  0  0  0  0  0  0  0  0
   -0.0137   -0.2761    1.7263 H   0  0  0  0  0  0  0  0  0  0  0  0
  1  2  1  0
  1  3  1  0
  1 15  1  0
  4  5  1  0
  4  8  1  0
  4  9  1  0
  4 10  1  0
  5  6  2  3
  5 11  1  0
  6  7  1  0
  6 12  1  0
  7 13  1  0
  7 14  1  0
M  RAD  1   7   2
M  END
>  <reaction>  (14) 
rxn_102

>  <mol_properties>  (14) 
{"0": {"label": "*3", "atom_type": "N3s"}, "1": {"label": "*4", "atom_type": "H0"}, "5": {"label": "*0", "atom_type": "Cd"}, "6": {"label": "*1", "atom_type": "Cs"}, "14": {"label": "*2", "atom_type": "H0"}}

>  <type>  (14) 
unop_10

>  <geom_source>  (14) 
Heuristics

$$$$

     RDKit          3D

 15 13  0  0  0  0  0  0  0  0999 V2000
    0.0108   -1.3898    2.1645 N   0  0  0  0  0  0  0  0  0  0  0  0
   -0.4713   -1.3687    3.0531 H   0  0  0  0  0  0  0  0  0  0  0  0
   -0.2803   -2.3411    1.9830 H   0  0  0  0  0  0  0  0  0  0  0  0
    0.0108   -0.1241   -2.5097 C   0  0  0  0  0  0  0  0  0  0  0  0
    0.0108   -0.1241   -1.0143 C   0  0  0  0  0  0  0  0  0  0  0  0
    0.0108    0.9591   -0.2509 C   0  0  0  0  0  0  0  0  0  0  0  0
    0.0108    0.9591    1.2445 C   0  0  0  0  0  3  0  0  0  0  0  0
    0.8887   -0.6441   -2.9022 H   0  0  0  0  0  0  0  0  0  0  0  0
   -0.8671   -0.6441   -2.9022 H   0  0  0  0  0  0  0  0  0  0  0  0
    0.0108    0.8917   -2.9075 H   0  0  0  0  0  0  0  0  0  0  0  0
    0.0108   -1.1003   -0.5332 H   0  0  0  0  0  0  0  0  0  0  0  0
    0.0108    1.9353   -0.7320 H   0  0  0  0  0  0  0  0  0  0  0  0
    0.8887    1.4791    1.6370 H   0  0  0  0  0  0  0  0  0  0  0  0
   -0.8671    1.4791    1.6370 H   0  0  0  0  0  0  0  0  0  0  0  0
    0.0108   -0.2599    1.7219 H   0  0  0  0  0  0  0  0  0  0  0  0
  1  2  1  0
  1  3  1  0
  1 15  1  0
  4  5  1  0
  4  8  1  0
  4  9  1  0
  4 10  1  0
  5  6  2  3
  5 11  1  0
  6  7  1  0
  6 12  1  0
  7 13  1  0
  7 14  1  0
M  RAD  1   7   2
M  END
>  <reaction>  (15) 
rxn_102

>  <mol_properties>  (15) 
{"0": {"label": "*3", "atom_type": "N3s"}, "1": {"label": "*4", "atom_type": "H0"}, "5": {"label": "*0", "atom_type": "Cd"}, "6": {"label": "*1", "atom_type": "Cs"}, "14": {"label": "*2", "atom_type": "H0"}}

>  <type>  (15) 
unop_11

>  <geom_source>  (15) 
Heuristics

$$$$

     RDKit          3D

 15 13  0  0  0  0  0  0  0  0999 V2000
   -0.0122   -1.3969    2.1788 N   0  0  0  0  0  0  0  0  0  0  0  0
   -0.0122   -2.0320    1.3919 H   0  0  0  0  0  0  0  0  0  0  0  0
    0.8581   -1.1822    2.6469 H   0  0  0  0  0  0  0  0  0  0  0  0
   -0.0122   -0.1313   -2.4953 C   0  0  0  0  0  0  0  0  0  0  0  0
   -0.0122   -0.1313   -0.9999 C   0  0  0  0  0  0  0  0  0  0  0  0
   -0.0122    0.9520   -0.2366 C   0  0  0  0  0  0  0  0  0  0  0  0
   -0.0122    0.9520    1.2588 C   0  0  0  0  0  3  0  0  0  0  0  0
    0.8657   -0.6512   -2.8878 H   0  0  0  0  0  0  0  0  0  0  0  0
   -0.8901   -0.6512   -2.8878 H   0  0  0  0  0  0  0  0  0  0  0  0
   -0.0122    0.8846   -2.8932 H   0  0  0  0  0  0  0  0  0  0  0  0
   -0.0122   -1.1075   -0.5189 H   0  0  0  0  0  0  0  0  0  0  0  0
   -0.0122    1.9282   -0.7176 H   0  0  0  0  0  0  0  0  0  0  0  0
    0.8657    1.4719    1.6513 H   0  0  0  0  0  0  0  0  0  0  0  0
   -0.8901    1.4719    1.6513 H   0  0  0  0  0  0  0  0  0  0  0  0
   -0.0122   -0.2670    1.7363 H   0  0  0  0  0  0  0  0  0  0  0  0
  1  2  1  0
  1  3  1  0
  1 15  1  0
  4  5  1  0
  4  8  1  0
  4  9  1  0
  4 10  1  0
  5  6  2  3
  5 11  1  0
  6  7  1  0
  6 12  1  0
  7 13  1  0
  7 14  1  0
M  RAD  1   7   2
M  END
>  <reaction>  (16) 
rxn_102

>  <mol_properties>  (16) 
{"0": {"label": "*3", "atom_type": "N3s"}, "1": {"label": "*4", "atom_type": "H0"}, "5": {"label": "*0", "atom_type": "Cd"}, "6": {"label": "*1", "atom_type": "Cs"}, "14": {"label": "*2", "atom_type": "H0"}}

>  <type>  (16) 
unop_12

>  <geom_source>  (16) 
Heuristics

$$$$
