
     RDKit          3D

 13 12  0  0  0  0  0  0  0  0999 V2000
    1.4471   -0.5697   -0.3031 C   0  0  0  0  0  0  0  0  0  0  0  0
    0.1326   -0.0908    0.2824 C   0  0  0  0  0  0  0  0  0  0  0  0
   -0.9497   -1.1552    0.2479 C   0  0  0  0  0  0  0  0  0  0  0  0
    0.4558    0.2966    1.6153 O   0  0  0  0  0  0  0  0  0  0  0  0
   -0.6579    0.9916    2.1633 O   0  0  0  0  0  0  0  0  0  0  0  0
    1.3038   -0.8532   -1.3463 H   0  0  0  0  0  0  0  0  0  0  0  0
    2.2007    0.2158   -0.2551 H   0  0  0  0  0  0  0  0  0  0  0  0
    1.8154   -1.4406    0.2423 H   0  0  0  0  0  0  0  0  0  0  0  0
   -0.2086    0.8022   -0.2523 H   0  0  0  0  0  0  0  0  0  0  0  0
   -0.6253   -2.0447    0.7929 H   0  0  0  0  0  0  0  0  0  0  0  0
   -1.8753   -0.7853    0.6886 H   0  0  0  0  0  0  0  0  0  0  0  0
   -1.1623   -1.4423   -0.7833 H   0  0  0  0  0  0  0  0  0  0  0  0
   -0.9730    0.3636    2.8217 H   0  0  0  0  0  0  0  0  0  0  0  0
  1  2  1  0
  1  6  1  0
  1  7  1  0
  1  8  1  0
  2  3  1  0
  2  4  1  0
  2  9  1  0
  3 10  1  0
  3 11  1  0
  3 12  1  0
  4  5  1  0
  5 13  1  0
M  END
>  <reaction>  (1) 
rxn_461

>  <mol_properties>  (1) 
{"4": {"label": "donator", "atom_type": "O2s"}, "12": {"label": "d_hydrogen", "atom_type": "H0"}}

>  <type>  (1) 
r1h

$$$$

     RDKit          3D

  6  5  0  0  0  0  0  0  0  0999 V2000
   -0.7133   -0.0465   -0.1138 C   0  0  0  0  0  0  0  0  0  0  0  0
    0.6837    0.0990    0.1040 C   0  0  0  0  0  0  0  0  0  0  0  0
    1.4284   -0.8504    0.3164 O   0  0  0  0  0  1  0  0  0  0  0  0
   -1.3425    0.8143   -0.2988 H   0  0  0  0  0  0  0  0  0  0  0  0
   -1.1519   -1.0358   -0.0939 H   0  0  0  0  0  0  0  0  0  0  0  0
    1.0889    1.1261    0.0750 H   0  0  0  0  0  0  0  0  0  0  0  0
  1  2  2  3
  1  4  1  0
  1  5  1  0
  2  3  1  0
  2  6  1  0
M  RAD  1   3   2
M  END
>  <reaction>  (2) 
rxn_461

>  <mol_properties>  (2) 
{"0": {"label": "acceptor", "atom_type": "Cs"}}

>  <type>  (2) 
r2

$$$$

     RDKit          3D

  7  6  0  0  0  0  0  0  0  0999 V2000
   -0.6468   -0.0443   -0.0231 C   0  0  0  0  0  0  0  0  0  0  0  0
    0.8470    0.0371    0.0688 C   0  0  0  0  0  0  0  0  0  0  0  0
    1.4866   -0.2280    1.0479 O   0  0  0  0  0  0  0  0  0  0  0  0
   -1.0466    0.9363   -0.2943 H   0  0  0  0  0  0  0  0  0  0  0  0
   -0.9229   -0.7318   -0.8269 H   0  0  0  0  0  0  0  0  0  0  0  0
   -1.0759   -0.3772    0.9198 H   0  0  0  0  0  0  0  0  0  0  0  0
    1.3584    0.3712   -0.8589 H   0  0  0  0  0  0  0  0  0  0  0  0
  1  2  1  0
  1  4  1  0
  1  5  1  0
  1  6  1  0
  2  3  2  0
  2  7  1  0
M  END
>  <reaction>  (3) 
rxn_461

>  <mol_properties>  (3) 
{"0": {"label": "a_hydrogen", "atom_type": "H0"}, "1": {"label": "acceptor", "atom_type": "Cs"}}

>  <type>  (3) 
r2h

$$$$

     RDKit          3D

 19 17  0  0  0  0  0  0  0  0999 V2000
    1.6186   -0.1856   -2.2889 C   0  0  0  0  0  0  0  0  0  0  0  0
    1.6950   -0.2158   -0.7766 C   0  0  0  0  0  0  0  0  0  0  0  0
    1.5140    1.1504   -0.1455 C   0  0  0  0  0  0  0  0  0  0  0  0
    0.6532   -1.1351   -0.3906 O   0  0  0  0  0  0  0  0  0  0  0  0
    0.6483   -1.3301    0.9602 O   0  0  0  0  0  0  0  0  0  0  0  0
    2.4285    0.4284   -2.6834 H   0  0  0  0  0  0  0  0  0  0  0  0
    1.7112   -1.1893   -2.7036 H   0  0  0  0  0  0  0  0  0  0  0  0
    0.6688    0.2433   -2.6120 H   0  0  0  0  0  0  0  0  0  0  0  0
    2.6420   -0.6573   -0.4511 H   0  0  0  0  0  0  0  0  0  0  0  0
    0.5431    1.5724   -0.4099 H   0  0  0  0  0  0  0  0  0  0  0  0
    1.5981    1.0961    0.9394 H   0  0  0  0  0  0  0  0  0  0  0  0
    2.2977    1.8176   -0.5076 H   0  0  0  0  0  0  0  0  0  0  0  0
   -0.2014   -0.6781    1.3498 H   0  0  0  0  0  0  0  0  0  0  0  0
   -1.2624    0.1370    1.7572 C   0  0  0  0  0  0  0  0  0  0  0  0
   -2.0197    0.1896    0.5129 C   0  0  0  0  0  0  0  0  0  0  0  0
   -1.9305    1.0914   -0.2917 O   0  0  0  0  0  1  0  0  0  0  0  0
   -1.6670   -0.4778    2.5562 H   0  0  0  0  0  0  0  0  0  0  0  0
   -0.7636    1.0539    2.0540 H   0  0  0  0  0  0  0  0  0  0  0  0
   -2.6831   -0.6721    0.3142 H   0  0  0  0  0  0  0  0  0  0  0  0
  1  2  1  0
  1  6  1  0
  1  7  1  0
  1  8  1  0
  2  3  1  0
  2  4  1  0
  2  9  1  0
  3 10  1  0
  3 11  1  0
  3 12  1  0
  4  5  1  0
  5 13  1  0
 14 15  2  3
 14 17  1  0
 14 18  1  0
 15 16  1  0
 15 19  1  0
M  RAD  1  16   2
M  END
>  <reaction>  (4) 
rxn_461

>  <mol_properties>  (4) 
{"3": {"label": "*0", "atom_type": "O2s"}, "4": {"label": "*1", "atom_type": "O2s"}, "12": {"label": "*2", "atom_type": "H0"}, "13": {"label": "*3", "atom_type": "Cd"}, "14": {"label": "*4", "atom_type": "Cd"}}

>  <type>  (4) 
ts

$$$$

     RDKit          3D

 19 17  0  0  0  0  0  0  0  0999 V2000
    1.7758    0.0460   -2.8364 C   0  0  0  0  0  0  0  0  0  0  0  0
    1.7758    0.0460   -1.3198 C   0  0  0  0  0  0  0  0  0  0  0  0
    1.7758    1.4457   -0.7312 C   0  0  0  0  0  0  0  0  0  0  0  0
    0.6032   -0.6813   -0.9630 O   0  0  0  0  0  0  0  0  0  0  0  0
    0.6488   -0.9494    0.4333 O   0  0  0  0  0  0  0  0  0  0  0  0
    2.6684    0.5529   -3.2044 H   0  0  0  0  0  0  0  0  0  0  0  0
    1.7683   -0.9727   -3.2229 H   0  0  0  0  0  0  0  0  0  0  0  0
    0.8993    0.5715   -3.2201 H   0  0  0  0  0  0  0  0  0  0  0  0
    2.6419   -0.5122   -0.9485 H   0  0  0  0  0  0  0  0  0  0  0  0
    0.9062    2.0058   -1.0829 H   0  0  0  0  0  0  0  0  0  0  0  0
    1.7606    1.4112    0.3580 H   0  0  0  0  0  0  0  0  0  0  0  0
    2.6762    1.9819   -1.0356 H   0  0  0  0  0  0  0  0  0  0  0  0
   -0.1979   -0.2693    0.8280 H   0  0  0  0  0  0  0  0  0  0  0  0
   -1.1591    0.5028    1.2761 C   0  0  0  0  0  0  0  0  0  0  0  0
   -2.1961   -0.3395    1.9555 C   0  0  0  0  0  0  0  0  0  0  0  0
   -3.3240    0.0066    2.1700 O   0  0  0  0  0  1  0  0  0  0  0  0
   -0.3013    0.6279    1.9422 H   0  0  0  0  0  0  0  0  0  0  0  0
   -1.5666    1.4738    1.0022 H   0  0  0  0  0  0  0  0  0  0  0  0
   -1.8531   -1.3493    2.2660 H   0  0  0  0  0  0  0  0  0  0  0  0
  1  2  1  0
  1  6  1  0
  1  7  1  0
  1  8  1  0
  2  3  1  0
  2  4  1  0
  2  9  1  0
  3 10  1  0
  3 11  1  0
  3 12  1  0
  4  5  1  0
  5 13  1  0
 14 15  2  3
 14 17  1  0
 14 18  1  0
 15 16  1  0
 15 19  1  0
M  RAD  1  16   2
M  END
>  <reaction>  (5) 
rxn_461

>  <mol_properties>  (5) 
{"3": {"label": "*0", "atom_type": "O2s"}, "4": {"label": "*1", "atom_type": "O2s"}, "12": {"label": "*2", "atom_type": "H0"}, "13": {"label": "*3", "atom_type": "Cd"}, "14": {"label": "*4", "atom_type": "Cd"}}

>  <type>  (5) 
unop_1

>  <geom_source>  (5) 
Heuristics

$$$$

     RDKit          3D

 19 17  0  0  0  0  0  0  0  0999 V2000
    1.7150   -0.2789   -2.3501 C   0  0  0  0  0  0  0  0  0  0  0  0
    1.7150   -0.2789   -0.8336 C   0  0  0  0  0  0  0  0  0  0  0  0
    1.7150    1.1208   -0.2449 C   0  0  0  0  0  0  0  0  0  0  0  0
    0.5424   -1.0062   -0.4768 O   0  0  0  0  0  0  0  0  0  0  0  0
    0.5879   -1.2744    0.9195 O   0  0  0  0  0  0  0  0  0  0  0  0
    2.6076    0.2279   -2.7182 H   0  0  0  0  0  0  0  0  0  0  0  0
    1.7075   -1.2976   -2.7367 H   0  0  0  0  0  0  0  0  0  0  0  0
    0.8384    0.2465   -2.7339 H   0  0  0  0  0  0  0  0  0  0  0  0
    2.5810   -0.8371   -0.4623 H   0  0  0  0  0  0  0  0  0  0  0  0
    0.8454    1.6808   -0.5967 H   0  0  0  0  0  0  0  0  0  0  0  0
    1.6997    1.0863    0.8443 H   0  0  0  0  0  0  0  0  0  0  0  0
    2.6154    1.6569   -0.5494 H   0  0  0  0  0  0  0  0  0  0  0  0
   -0.2587   -0.5943    1.3142 H   0  0  0  0  0  0  0  0  0  0  0  0
   -1.2199    0.1778    1.7623 C   0  0  0  0  0  0  0  0  0  0  0  0
   -2.2710    0.3263    0.7043 C   0  0  0  0  0  0  0  0  0  0  0  0
   -2.8471    1.3474    0.4523 O   0  0  0  0  0  1  0  0  0  0  0  0
   -1.5325   -0.5870    2.4781 H   0  0  0  0  0  0  0  0  0  0  0  0
   -1.0480    1.1228    2.2736 H   0  0  0  0  0  0  0  0  0  0  0  0
   -2.5022   -0.6002    0.1369 H   0  0  0  0  0  0  0  0  0  0  0  0
  1  2  1  0
  1  6  1  0
  1  7  1  0
  1  8  1  0
  2  3  1  0
  2  4  1  0
  2  9  1  0
  3 10  1  0
  3 11  1  0
  3 12  1  0
  4  5  1  0
  5 13  1  0
 14 15  2  3
 14 17  1  0
 14 18  1  0
 15 16  1  0
 15 19  1  0
M  RAD  1  16   2
M  END
>  <reaction>  (6) 
rxn_461

>  <mol_properties>  (6) 
{"3": {"label": "*0", "atom_type": "O2s"}, "4": {"label": "*1", "atom_type": "O2s"}, "12": {"label": "*2", "atom_type": "H0"}, "13": {"label": "*3", "atom_type": "Cd"}, "14": {"label": "*4", "atom_type": "Cd"}}

>  <type>  (6) 
unop_2

>  <geom_source>  (6) 
Heuristics

$$$$

     RDKit          3D

 19 17  0  0  0  0  0  0  0  0999 V2000
    1.6723    0.0168   -2.9826 C   0  0  0  0  0  0  0  0  0  0  0  0
    1.6723    0.0168   -1.4660 C   0  0  0  0  0  0  0  0  0  0  0  0
    1.6723    1.4165   -0.8774 C   0  0  0  0  0  0  0  0  0  0  0  0
    0.4997   -0.7105   -1.1092 O   0  0  0  0  0  0  0  0  0  0  0  0
    0.5453   -0.9787    0.2871 O   0  0  0  0  0  0  0  0  0  0  0  0
    2.5649    0.5237   -3.3506 H   0  0  0  0  0  0  0  0  0  0  0  0
    1.6648   -1.0019   -3.3691 H   0  0  0  0  0  0  0  0  0  0  0  0
    0.7958    0.5423   -3.3663 H   0  0  0  0  0  0  0  0  0  0  0  0
    2.5383   -0.5414   -1.0947 H   0  0  0  0  0  0  0  0  0  0  0  0
    0.8027    1.9766   -1.2291 H   0  0  0  0  0  0  0  0  0  0  0  0
    1.6570    1.3820    0.2118 H   0  0  0  0  0  0  0  0  0  0  0  0
    2.5727    1.9527   -1.1819 H   0  0  0  0  0  0  0  0  0  0  0  0
   -0.3014   -0.2985    0.6818 H   0  0  0  0  0  0  0  0  0  0  0  0
   -1.2626    0.4736    1.1299 C   0  0  0  0  0  0  0  0  0  0  0  0
   -1.8656   -0.1450    2.3547 C   0  0  0  0  0  0  0  0  0  0  0  0
   -3.0100   -0.0199    2.6904 O   0  0  0  0  0  1  0  0  0  0  0  0
   -0.4245    1.1117    1.4220 H   0  0  0  0  0  0  0  0  0  0  0  0
   -2.0035    1.0535    0.5834 H   0  0  0  0  0  0  0  0  0  0  0  0
   -1.1675   -0.7548    2.9667 H   0  0  0  0  0  0  0  0  0  0  0  0
  1  2  1  0
  1  6  1  0
  1  7  1  0
  1  8  1  0
  2  3  1  0
  2  4  1  0
  2  9  1  0
  3 10  1  0
  3 11  1  0
  3 12  1  0
  4  5  1  0
  5 13  1  0
 14 15  2  3
 14 17  1  0
 14 18  1  0
 15 16  1  0
 15 19  1  0
M  RAD  1  16   2
M  END
>  <reaction>  (7) 
rxn_461

>  <mol_properties>  (7) 
{"3": {"label": "*0", "atom_type": "O2s"}, "4": {"label": "*1", "atom_type": "O2s"}, "12": {"label": "*2", "atom_type": "H0"}, "13": {"label": "*3", "atom_type": "Cd"}, "14": {"label": "*4", "atom_type": "Cd"}}

>  <type>  (7) 
unop_3

>  <geom_source>  (7) 
Heuristics

$$$$

     RDKit          3D

 19 17  0  0  0  0  0  0  0  0999 V2000
    1.2286   -0.5595   -2.6472 C   0  0  0  0  0  0  0  0  0  0  0  0
    1.2286   -0.5595   -1.1306 C   0  0  0  0  0  0  0  0  0  0  0  0
    1.2286    0.8401   -0.5420 C   0  0  0  0  0  0  0  0  0  0  0  0
    0.0560   -1.2869   -0.7739 O   0  0  0  0  0  0  0  0  0  0  0  0
    0.1016   -1.5550    0.6224 O   0  0  0  0  0  0  0  0  0  0  0  0
    2.1212   -0.0527   -3.0153 H   0  0  0  0  0  0  0  0  0  0  0  0
    1.2211   -1.5783   -3.0338 H   0  0  0  0  0  0  0  0  0  0  0  0
    0.3521   -0.0341   -3.0310 H   0  0  0  0  0  0  0  0  0  0  0  0
    2.0947   -1.1178   -0.7593 H   0  0  0  0  0  0  0  0  0  0  0  0
    0.3590    1.4002   -0.8938 H   0  0  0  0  0  0  0  0  0  0  0  0
    1.2133    0.8057    0.5472 H   0  0  0  0  0  0  0  0  0  0  0  0
    2.1290    1.3763   -0.8465 H   0  0  0  0  0  0  0  0  0  0  0  0
   -0.7451   -0.8749    1.0172 H   0  0  0  0  0  0  0  0  0  0  0  0
   -1.7063   -0.1028    1.4653 C   0  0  0  0  0  0  0  0  0  0  0  0
   -1.3964    1.3236    1.1249 C   0  0  0  0  0  0  0  0  0  0  0  0
   -0.7762    2.0737    1.8253 O   0  0  0  0  0  1  0  0  0  0  0  0
   -2.7898   -0.2478    1.4645 H   0  0  0  0  0  0  0  0  0  0  0  0
   -1.2925   -0.3687    2.4358 H   0  0  0  0  0  0  0  0  0  0  0  0
   -1.7878    1.6695    0.1447 H   0  0  0  0  0  0  0  0  0  0  0  0
  1  2  1  0
  1  6  1  0
  1  7  1  0
  1  8  1  0
  2  3  1  0
  2  4  1  0
  2  9  1  0
  3 10  1  0
  3 11  1  0
  3 12  1  0
  4  5  1  0
  5 13  1  0
 14 15  2  3
 14 17  1  0
 14 18  1  0
 15 16  1  0
 15 19  1  0
M  RAD  1  16   2
M  END
>  <reaction>  (8) 
rxn_461

>  <mol_properties>  (8) 
{"3": {"label": "*0", "atom_type": "O2s"}, "4": {"label": "*1", "atom_type": "O2s"}, "12": {"label": "*2", "atom_type": "H0"}, "13": {"label": "*3", "atom_type": "Cd"}, "14": {"label": "*4", "atom_type": "Cd"}}

>  <type>  (8) 
unop_4

>  <geom_source>  (8) 
Heuristics

$$$$

     RDKit          3D

 19 17  0  0  0  0  0  0  0  0999 V2000
    1.5342   -0.0364   -3.0754 C   0  0  0  0  0  0  0  0  0  0  0  0
    1.5342   -0.0364   -1.5588 C   0  0  0  0  0  0  0  0  0  0  0  0
    1.5342    1.3633   -0.9702 C   0  0  0  0  0  0  0  0  0  0  0  0
    0.3617   -0.7637   -1.2021 O   0  0  0  0  0  0  0  0  0  0  0  0
    0.4072   -1.0319    0.1942 O   0  0  0  0  0  0  0  0  0  0  0  0
    2.4268    0.4704   -3.4435 H   0  0  0  0  0  0  0  0  0  0  0  0
    1.5267   -1.0551   -3.4620 H   0  0  0  0  0  0  0  0  0  0  0  0
    0.6577    0.4890   -3.4592 H   0  0  0  0  0  0  0  0  0  0  0  0
    2.4003   -0.5946   -1.1875 H   0  0  0  0  0  0  0  0  0  0  0  0
    0.6647    1.9233   -1.3219 H   0  0  0  0  0  0  0  0  0  0  0  0
    1.5190    1.3288    0.1190 H   0  0  0  0  0  0  0  0  0  0  0  0
    2.4346    1.8994   -1.2747 H   0  0  0  0  0  0  0  0  0  0  0  0
   -0.4395   -0.3518    0.5890 H   0  0  0  0  0  0  0  0  0  0  0  0
   -1.4006    0.4203    1.0371 C   0  0  0  0  0  0  0  0  0  0  0  0
   -1.5054    0.2695    2.5246 C   0  0  0  0  0  0  0  0  0  0  0  0
   -2.4923   -0.0830    3.1076 O   0  0  0  0  0  1  0  0  0  0  0  0
   -1.1183    1.4487    0.7966 H   0  0  0  0  0  0  0  0  0  0  0  0
   -2.3421    0.1667    0.5542 H   0  0  0  0  0  0  0  0  0  0  0  0
   -0.5799    0.5117    3.0888 H   0  0  0  0  0  0  0  0  0  0  0  0
  1  2  1  0
  1  6  1  0
  1  7  1  0
  1  8  1  0
  2  3  1  0
  2  4  1  0
  2  9  1  0
  3 10  1  0
  3 11  1  0
  3 12  1  0
  4  5  1  0
  5 13  1  0
 14 15  2  3
 14 17  1  0
 14 18  1  0
 15 16  1  0
 15 19  1  0
M  RAD  1  16   2
M  END
>  <reaction>  (9) 
rxn_461

>  <mol_properties>  (9) 
{"3": {"label": "*0", "atom_type": "O2s"}, "4": {"label": "*1", "atom_type": "O2s"}, "12": {"label": "*2", "atom_type": "H0"}, "13": {"label": "*3", "atom_type": "Cd"}, "14": {"label": "*4", "atom_type": "Cd"}}

>  <type>  (9) 
unop_5

>  <geom_source>  (9) 
Heuristics

$$$$

     RDKit          3D

 19 17  0  0  0  0  0  0  0  0999 V2000
    1.1762   -0.4774   -2.8564 C   0  0  0  0  0  0  0  0  0  0  0  0
    1.1762   -0.4774   -1.3398 C   0  0  0  0  0  0  0  0  0  0  0  0
    1.1762    0.9223   -0.7512 C   0  0  0  0  0  0  0  0  0  0  0  0
    0.0036   -1.2047   -0.9830 O   0  0  0  0  0  0  0  0  0  0  0  0
    0.0492   -1.4728    0.4133 O   0  0  0  0  0  0  0  0  0  0  0  0
    2.0688    0.0295   -3.2244 H   0  0  0  0  0  0  0  0  0  0  0  0
    1.1687   -1.4961   -3.2430 H   0  0  0  0  0  0  0  0  0  0  0  0
    0.2997    0.0481   -3.2401 H   0  0  0  0  0  0  0  0  0  0  0  0
    2.0423   -1.0356   -0.9685 H   0  0  0  0  0  0  0  0  0  0  0  0
    0.3066    1.4824   -1.1029 H   0  0  0  0  0  0  0  0  0  0  0  0
    1.1610    0.8878    0.3380 H   0  0  0  0  0  0  0  0  0  0  0  0
    2.0766    1.4585   -1.0557 H   0  0  0  0  0  0  0  0  0  0  0  0
   -0.7975   -0.7927    0.8080 H   0  0  0  0  0  0  0  0  0  0  0  0
   -1.7587   -0.0206    1.2561 C   0  0  0  0  0  0  0  0  0  0  0  0
   -1.1952    1.3255    1.5978 C   0  0  0  0  0  0  0  0  0  0  0  0
   -0.6467    1.5945    2.6297 O   0  0  0  0  0  1  0  0  0  0  0  0
   -2.8258    0.0780    1.0405 H   0  0  0  0  0  0  0  0  0  0  0  0
   -1.6037   -0.7243    2.0713 H   0  0  0  0  0  0  0  0  0  0  0  0
   -1.3158    2.1001    0.8109 H   0  0  0  0  0  0  0  0  0  0  0  0
  1  2  1  0
  1  6  1  0
  1  7  1  0
  1  8  1  0
  2  3  1  0
  2  4  1  0
  2  9  1  0
  3 10  1  0
  3 11  1  0
  3 12  1  0
  4  5  1  0
  5 13  1  0
 14 15  2  3
 14 17  1  0
 14 18  1  0
 15 16  1  0
 15 19  1  0
M  RAD  1  16   2
M  END
>  <reaction>  (10) 
rxn_461

>  <mol_properties>  (10) 
{"3": {"label": "*0", "atom_type": "O2s"}, "4": {"label": "*1", "atom_type": "O2s"}, "12": {"label": "*2", "atom_type": "H0"}, "13": {"label": "*3", "atom_type": "Cd"}, "14": {"label": "*4", "atom_type": "Cd"}}

>  <type>  (10) 
unop_6

>  <geom_source>  (10) 
Heuristics

$$$$

     RDKit          3D

 19 17  0  0  0  0  0  0  0  0999 V2000
    1.2197   -0.3244   -3.0268 C   0  0  0  0  0  0  0  0  0  0  0  0
    1.2197   -0.3244   -1.5102 C   0  0  0  0  0  0  0  0  0  0  0  0
    1.2197    1.0753   -0.9216 C   0  0  0  0  0  0  0  0  0  0  0  0
    0.0471   -1.0517   -1.1534 O   0  0  0  0  0  0  0  0  0  0  0  0
    0.0927   -1.3199    0.2429 O   0  0  0  0  0  0  0  0  0  0  0  0
    2.1123    0.1825   -3.3948 H   0  0  0  0  0  0  0  0  0  0  0  0
    1.2122   -1.3431   -3.4133 H   0  0  0  0  0  0  0  0  0  0  0  0
    0.3432    0.2011   -3.4105 H   0  0  0  0  0  0  0  0  0  0  0  0
    2.0857   -0.8826   -1.1389 H   0  0  0  0  0  0  0  0  0  0  0  0
    0.3501    1.6354   -1.2733 H   0  0  0  0  0  0  0  0  0  0  0  0
    1.2044    1.0408    0.1676 H   0  0  0  0  0  0  0  0  0  0  0  0
    2.1201    1.6115   -1.2261 H   0  0  0  0  0  0  0  0  0  0  0  0
   -0.7540   -0.6397    0.6376 H   0  0  0  0  0  0  0  0  0  0  0  0
   -1.7152    0.1324    1.0857 C   0  0  0  0  0  0  0  0  0  0  0  0
   -1.1465    1.1159    2.0633 C   0  0  0  0  0  0  0  0  0  0  0  0
   -0.9401    0.8857    3.2220 O   0  0  0  0  0  1  0  0  0  0  0  0
   -2.6342    0.5395    0.6560 H   0  0  0  0  0  0  0  0  0  0  0  0
   -1.9168   -0.8218    1.5682 H   0  0  0  0  0  0  0  0  0  0  0  0
   -0.9140    2.1172    1.6427 H   0  0  0  0  0  0  0  0  0  0  0  0
  1  2  1  0
  1  6  1  0
  1  7  1  0
  1  8  1  0
  2  3  1  0
  2  4  1  0
  2  9  1  0
  3 10  1  0
  3 11  1  0
  3 12  1  0
  4  5  1  0
  5 13  1  0
 14 15  2  3
 14 17  1  0
 14 18  1  0
 15 16  1  0
 15 19  1  0
M  RAD  1  16   2
M  END
>  <reaction>  (11) 
rxn_461

>  <mol_properties>  (11) 
{"3": {"label": "*0", "atom_type": "O2s"}, "4": {"label": "*1", "atom_type": "O2s"}, "12": {"label": "*2", "atom_type": "H0"}, "13": {"label": "*3", "atom_type": "Cd"}, "14": {"label": "*4", "atom_type": "Cd"}}

>  <type>  (11) 
unop_7

>  <geom_source>  (11) 
Heuristics

$$$$

     RDKit          3D

 19 17  0  0  0  0  0  0  0  0999 V2000
    1.8346    0.0093   -2.6469 C   0  0  0  0  0  0  0  0  0  0  0  0
    1.8346    0.0093   -1.1304 C   0  0  0  0  0  0  0  0  0  0  0  0
    1.8346    1.4090   -0.5417 C   0  0  0  0  0  0  0  0  0  0  0  0
    0.6620   -0.7180   -0.7736 O   0  0  0  0  0  0  0  0  0  0  0  0
    0.7076   -0.9861    0.6227 O   0  0  0  0  0  0  0  0  0  0  0  0
    2.7272    0.5162   -3.0150 H   0  0  0  0  0  0  0  0  0  0  0  0
    1.8271   -1.0094   -3.0335 H   0  0  0  0  0  0  0  0  0  0  0  0
    0.9581    0.5348   -3.0307 H   0  0  0  0  0  0  0  0  0  0  0  0
    2.7007   -0.5489   -0.7591 H   0  0  0  0  0  0  0  0  0  0  0  0
    0.9651    1.9691   -0.8935 H   0  0  0  0  0  0  0  0  0  0  0  0
    1.8194    1.3745    0.5475 H   0  0  0  0  0  0  0  0  0  0  0  0
    2.7350    1.9452   -0.8462 H   0  0  0  0  0  0  0  0  0  0  0  0
   -0.1391   -0.3060    1.0174 H   0  0  0  0  0  0  0  0  0  0  0  0
   -1.1003    0.4661    1.4655 C   0  0  0  0  0  0  0  0  0  0  0  0
   -2.3908   -0.2960    1.4628 C   0  0  0  0  0  0  0  0  0  0  0  0
   -3.4799    0.2048    1.4941 O   0  0  0  0  0  1  0  0  0  0  0  0
   -0.4999    0.1580    2.3256 H   0  0  0  0  0  0  0  0  0  0  0  0
   -1.2829    1.5382    1.4998 H   0  0  0  0  0  0  0  0  0  0  0  0
   -2.2850   -1.4012    1.4288 H   0  0  0  0  0  0  0  0  0  0  0  0
  1  2  1  0
  1  6  1  0
  1  7  1  0
  1  8  1  0
  2  3  1  0
  2  4  1  0
  2  9  1  0
  3 10  1  0
  3 11  1  0
  3 12  1  0
  4  5  1  0
  5 13  1  0
 14 15  2  3
 14 17  1  0
 14 18  1  0
 15 16  1  0
 15 19  1  0
M  RAD  1  16   2
M  END
>  <reaction>  (12) 
rxn_461

>  <mol_properties>  (12) 
{"3": {"label": "*0", "atom_type": "O2s"}, "4": {"label": "*1", "atom_type": "O2s"}, "12": {"label": "*2", "atom_type": "H0"}, "13": {"label": "*3", "atom_type": "Cd"}, "14": {"label": "*4", "atom_type": "Cd"}}

>  <type>  (12) 
unop_8

>  <geom_source>  (12) 
Heuristics

$$$$

     RDKit          3D

 19 17  0  0  0  0  0  0  0  0999 V2000
    1.3630   -0.5492   -2.4587 C   0  0  0  0  0  0  0  0  0  0  0  0
    1.3630   -0.5492   -0.9422 C   0  0  0  0  0  0  0  0  0  0  0  0
    1.3630    0.8505   -0.3535 C   0  0  0  0  0  0  0  0  0  0  0  0
    0.1904   -1.2765   -0.5854 O   0  0  0  0  0  0  0  0  0  0  0  0
    0.2360   -1.5447    0.8109 O   0  0  0  0  0  0  0  0  0  0  0  0
    2.2556   -0.0424   -2.8268 H   0  0  0  0  0  0  0  0  0  0  0  0
    1.3555   -1.5679   -2.8453 H   0  0  0  0  0  0  0  0  0  0  0  0
    0.4865   -0.0238   -2.8425 H   0  0  0  0  0  0  0  0  0  0  0  0
    2.2291   -1.1074   -0.5709 H   0  0  0  0  0  0  0  0  0  0  0  0
    0.4934    1.4105   -0.7053 H   0  0  0  0  0  0  0  0  0  0  0  0
    1.3477    0.8160    0.7357 H   0  0  0  0  0  0  0  0  0  0  0  0
    2.2634    1.3866   -0.6580 H   0  0  0  0  0  0  0  0  0  0  0  0
   -0.6107   -0.8646    1.2056 H   0  0  0  0  0  0  0  0  0  0  0  0
   -1.5719   -0.0925    1.6538 C   0  0  0  0  0  0  0  0  0  0  0  0
   -1.6960    1.1101    0.7679 C   0  0  0  0  0  0  0  0  0  0  0  0
   -1.2934    2.2057    1.0431 O   0  0  0  0  0  1  0  0  0  0  0  0
   -2.5677   -0.4922    1.8628 H   0  0  0  0  0  0  0  0  0  0  0  0
   -1.0662    0.1609    2.5832 H   0  0  0  0  0  0  0  0  0  0  0  0
   -2.2036    0.9292   -0.2033 H   0  0  0  0  0  0  0  0  0  0  0  0
  1  2  1  0
  1  6  1  0
  1  7  1  0
  1  8  1  0
  2  3  1  0
  2  4  1  0
  2  9  1  0
  3 10  1  0
  3 11  1  0
  3 12  1  0
  4  5  1  0
  5 13  1  0
 14 15  2  3
 14 17  1  0
 14 18  1  0
 15 16  1  0
 15 19  1  0
M  RAD  1  16   2
M  END
>  <reaction>  (13) 
rxn_461

>  <mol_properties>  (13) 
{"3": {"label": "*0", "atom_type": "O2s"}, "4": {"label": "*1", "atom_type": "O2s"}, "12": {"label": "*2", "atom_type": "H0"}, "13": {"label": "*3", "atom_type": "Cd"}, "14": {"label": "*4", "atom_type": "Cd"}}

>  <type>  (13) 
unop_9

>  <geom_source>  (13) 
Heuristics

$$$$

     RDKit          3D

 19 17  0  0  0  0  0  0  0  0999 V2000
    1.8184   -0.1078   -2.4648 C   0  0  0  0  0  0  0  0  0  0  0  0
    1.8184   -0.1078   -0.9483 C   0  0  0  0  0  0  0  0  0  0  0  0
    1.8184    1.2919   -0.3596 C   0  0  0  0  0  0  0  0  0  0  0  0
    0.6458   -0.8351   -0.5915 O   0  0  0  0  0  0  0  0  0  0  0  0
    0.6914   -1.1033    0.8048 O   0  0  0  0  0  0  0  0  0  0  0  0
    2.7110    0.3990   -2.8329 H   0  0  0  0  0  0  0  0  0  0  0  0
    1.8109   -1.1265   -2.8514 H   0  0  0  0  0  0  0  0  0  0  0  0
    0.9419    0.4177   -2.8486 H   0  0  0  0  0  0  0  0  0  0  0  0
    2.6845   -0.6660   -0.5770 H   0  0  0  0  0  0  0  0  0  0  0  0
    0.9488    1.8520   -0.7114 H   0  0  0  0  0  0  0  0  0  0  0  0
    1.8032    1.2574    0.7296 H   0  0  0  0  0  0  0  0  0  0  0  0
    2.7188    1.8280   -0.6641 H   0  0  0  0  0  0  0  0  0  0  0  0
   -0.1553   -0.4232    1.1995 H   0  0  0  0  0  0  0  0  0  0  0  0
   -1.1165    0.3489    1.6477 C   0  0  0  0  0  0  0  0  0  0  0  0
   -2.4122   -0.0505    1.0090 C   0  0  0  0  0  0  0  0  0  0  0  0
   -3.3449    0.6838    0.8390 O   0  0  0  0  0  1  0  0  0  0  0  0
   -0.9345   -0.2815    2.5220 H   0  0  0  0  0  0  0  0  0  0  0  0
   -1.1340    1.3975    1.9378 H   0  0  0  0  0  0  0  0  0  0  0  0
   -2.4701   -1.1113    0.6848 H   0  0  0  0  0  0  0  0  0  0  0  0
  1  2  1  0
  1  6  1  0
  1  7  1  0
  1  8  1  0
  2  3  1  0
  2  4  1  0
  2  9  1  0
  3 10  1  0
  3 11  1  0
  3 12  1  0
  4  5  1  0
  5 13  1  0
 14 15  2  3
 14 17  1  0
 14 18  1  0
 15 16  1  0
 15 19  1  0
M  RAD  1  16   2
M  END
>  <reaction>  (14) 
rxn_461

>  <mol_properties>  (14) 
{"3": {"label": "*0", "atom_type": "O2s"}, "4": {"label": "*1", "atom_type": "O2s"}, "12": {"label": "*2", "atom_type": "H0"}, "13": {"label": "*3", "atom_type": "Cd"}, "14": {"label": "*4", "atom_type": "Cd"}}

>  <type>  (14) 
unop_10

>  <geom_source>  (14) 
Heuristics

$$$$

     RDKit          3D

 19 17  0  0  0  0  0  0  0  0999 V2000
    1.3545   -0.1505   -3.1061 C   0  0  0  0  0  0  0  0  0  0  0  0
    1.3545   -0.1505   -1.5895 C   0  0  0  0  0  0  0  0  0  0  0  0
    1.3545    1.2492   -1.0009 C   0  0  0  0  0  0  0  0  0  0  0  0
    0.1819   -0.8778   -1.2328 O   0  0  0  0  0  0  0  0  0  0  0  0
    0.2275   -1.1460    0.1635 O   0  0  0  0  0  0  0  0  0  0  0  0
    2.2471    0.3563   -3.4742 H   0  0  0  0  0  0  0  0  0  0  0  0
    1.3470   -1.1692   -3.4927 H   0  0  0  0  0  0  0  0  0  0  0  0
    0.4780    0.3749   -3.4899 H   0  0  0  0  0  0  0  0  0  0  0  0
    2.2206   -0.7087   -1.2182 H   0  0  0  0  0  0  0  0  0  0  0  0
    0.4850    1.8092   -1.3527 H   0  0  0  0  0  0  0  0  0  0  0  0
    1.3393    1.2147    0.0883 H   0  0  0  0  0  0  0  0  0  0  0  0
    2.2549    1.7853   -1.3054 H   0  0  0  0  0  0  0  0  0  0  0  0
   -0.6192   -0.4659    0.5583 H   0  0  0  0  0  0  0  0  0  0  0  0
   -1.5804    0.3062    1.0064 C   0  0  0  0  0  0  0  0  0  0  0  0
   -1.2563    0.7418    2.4034 C   0  0  0  0  0  0  0  0  0  0  0  0
   -1.6349    0.1872    3.3969 O   0  0  0  0  0  1  0  0  0  0  0  0
   -2.0866    1.1207    0.4817 H   0  0  0  0  0  0  0  0  0  0  0  0
   -2.2071   -0.5832    1.0129 H   0  0  0  0  0  0  0  0  0  0  0  0
   -0.6173    1.6472    2.4781 H   0  0  0  0  0  0  0  0  0  0  0  0
  1  2  1  0
  1  6  1  0
  1  7  1  0
  1  8  1  0
  2  3  1  0
  2  4  1  0
  2  9  1  0
  3 10  1  0
  3 11  1  0
  3 12  1  0
  4  5  1  0
  5 13  1  0
 14 15  2  3
 14 17  1  0
 14 18  1  0
 15 16  1  0
 15 19  1  0
M  RAD  1  16   2
M  END
>  <reaction>  (15) 
rxn_461

>  <mol_properties>  (15) 
{"3": {"label": "*0", "atom_type": "O2s"}, "4": {"label": "*1", "atom_type": "O2s"}, "12": {"label": "*2", "atom_type": "H0"}, "13": {"label": "*3", "atom_type": "Cd"}, "14": {"label": "*4", "atom_type": "Cd"}}

>  <type>  (15) 
unop_11

>  <geom_source>  (15) 
Heuristics

$$$$

     RDKit          3D

 19 17  0  0  0  0  0  0  0  0999 V2000
    1.5447   -0.4461   -2.3470 C   0  0  0  0  0  0  0  0  0  0  0  0
    1.5447   -0.4461   -0.8304 C   0  0  0  0  0  0  0  0  0  0  0  0
    1.5447    0.9535   -0.2418 C   0  0  0  0  0  0  0  0  0  0  0  0
    0.3721   -1.1735   -0.4737 O   0  0  0  0  0  0  0  0  0  0  0  0
    0.4177   -1.4416    0.9226 O   0  0  0  0  0  0  0  0  0  0  0  0
    2.4373    0.0607   -2.7151 H   0  0  0  0  0  0  0  0  0  0  0  0
    1.5372   -1.4649   -2.7336 H   0  0  0  0  0  0  0  0  0  0  0  0
    0.6682    0.0793   -2.7308 H   0  0  0  0  0  0  0  0  0  0  0  0
    2.4108   -1.0044   -0.4592 H   0  0  0  0  0  0  0  0  0  0  0  0
    0.6751    1.5136   -0.5936 H   0  0  0  0  0  0  0  0  0  0  0  0
    1.5295    0.9191    0.8474 H   0  0  0  0  0  0  0  0  0  0  0  0
    2.4451    1.4897   -0.5463 H   0  0  0  0  0  0  0  0  0  0  0  0
   -0.4290   -0.7615    1.3174 H   0  0  0  0  0  0  0  0  0  0  0  0
   -1.3902    0.0106    1.7655 C   0  0  0  0  0  0  0  0  0  0  0  0
   -2.0125    0.7455    0.6169 C   0  0  0  0  0  0  0  0  0  0  0  0
   -2.0730    1.9394    0.5223 O   0  0  0  0  0  1  0  0  0  0  0  0
   -2.1360   -0.6455    2.2220 H   0  0  0  0  0  0  0  0  0  0  0  0
   -0.9991    0.7063    2.5050 H   0  0  0  0  0  0  0  0  0  0  0  0
   -2.4356    0.0996   -0.1816 H   0  0  0  0  0  0  0  0  0  0  0  0
  1  2  1  0
  1  6  1  0
  1  7  1  0
  1  8  1  0
  2  3  1  0
  2  4  1  0
  2  9  1  0
  3 10  1  0
  3 11  1  0
  3 12  1  0
  4  5  1  0
  5 13  1  0
 14 15  2  3
 14 17  1  0
 14 18  1  0
 15 16  1  0
 15 19  1  0
M  RAD  1  16   2
M  END
>  <reaction>  (16) 
rxn_461

>  <mol_properties>  (16) 
{"3": {"label": "*0", "atom_type": "O2s"}, "4": {"label": "*1", "atom_type": "O2s"}, "12": {"label": "*2", "atom_type": "H0"}, "13": {"label": "*3", "atom_type": "Cd"}, "14": {"label": "*4", "atom_type": "Cd"}}

>  <type>  (16) 
unop_12

>  <geom_source>  (16) 
Heuristics

$$$$

     RDKit          3D

 19 17  0  0  0  0  0  0  0  0999 V2000
   -0.8480    0.0059   -1.5457 O   0  0  0  0  0  0  0  0  0  0  0  0
    3.2456    1.9771   -0.0385 O   0  0  0  0  0  0  0  0  0  0  0  0
    0.2638   -0.4333   -0.9829 O   0  0  0  0  0  1  0  0  0  0  0  0
   -1.8480    0.0367   -0.5487 C   0  0  0  0  0  0  0  0  0  0  0  0
   -1.5024    1.0233    0.5756 C   0  0  0  0  0  0  0  0  0  0  0  0
   -2.1531   -1.3655   -0.0033 C   0  0  0  0  0  0  0  0  0  0  0  0
    2.5652   -0.2718   -0.2035 C   0  0  0  0  0  0  0  0  0  0  0  0
    3.2170    0.8780    0.4907 C   0  0  0  0  0  0  0  0  0  0  0  0
   -2.7780    0.4071   -1.0321 H   0  0  0  0  0  0  0  0  0  0  0  0
   -2.3669    1.1317    1.2649 H   0  0  0  0  0  0  0  0  0  0  0  0
   -0.6258    0.6713    1.1600 H   0  0  0  0  0  0  0  0  0  0  0  0
   -1.2702    2.0196    0.1433 H   0  0  0  0  0  0  0  0  0  0  0  0
   -3.0368   -1.3277    0.6689 H   0  0  0  0  0  0  0  0  0  0  0  0
   -2.3800   -2.0549   -0.8439 H   0  0  0  0  0  0  0  0  0  0  0  0
   -1.2902   -1.7677    0.5690 H   0  0  0  0  0  0  0  0  0  0  0  0
    3.0747   -0.4637   -1.1710 H   0  0  0  0  0  0  0  0  0  0  0  0
    2.6339   -1.1812    0.4293 H   0  0  0  0  0  0  0  0  0  0  0  0
    1.4322   -0.0251   -0.4008 H   0  0  0  0  0  0  0  0  0  0  0  0
    3.6669    0.7402    1.4685 H   0  0  0  0  0  0  0  0  0  0  0  0
  1  4  1  0
  1  3  1  0
  2  8  2  0
  4  5  1  0
  4  6  1  0
  4  9  1  0
  5 10  1  0
  5 11  1  0
  5 12  1  0
  6 13  1  0
  6 14  1  0
  6 15  1  0
  7  8  1  0
  7 16  1  0
  7 17  1  0
  7 18  1  0
  8 19  1  0
M  RAD  1   3   2
M  END
>  <reaction>  (17) 
rxn_461

>  <mol_properties>  (17) 
{"3": {"label": "*0", "atom_type": "O2s"}, "4": {"label": "*1", "atom_type": "O2s"}, "12": {"label": "*2", "atom_type": "H0"}, "13": {"label": "*3", "atom_type": "Cd"}, "14": {"label": "*4", "atom_type": "Cd"}}

>  <type>  (17) 
unop_13

>  <geom_source>  (17) 
AutoTST

$$$$
