
     RDKit          3D

 15 14  0  0  0  0  0  0  0  0999 V2000
    2.1256    0.4849   -0.6284 C   0  0  0  0  0  0  0  0  0  0  0  0
    1.1128    0.2141    0.1794 C   0  0  0  0  0  0  0  0  0  0  0  0
   -0.3017   -0.0425   -0.2513 C   0  0  0  0  0  0  0  0  0  0  0  0
   -1.2427    1.0075    0.3423 C   0  0  0  0  0  0  0  0  0  0  0  0
   -0.7381   -1.4526    0.1504 C   0  0  0  0  0  0  0  0  0  0  0  0
    3.1243    0.6602   -0.2486 H   0  0  0  0  0  0  0  0  0  0  0  0
    1.9908    0.5411   -1.7036 H   0  0  0  0  0  0  0  0  0  0  0  0
    1.2888    0.1665    1.2533 H   0  0  0  0  0  0  0  0  0  0  0  0
   -0.3426    0.0343   -1.3424 H   0  0  0  0  0  0  0  0  0  0  0  0
   -0.9570    2.0133    0.0315 H   0  0  0  0  0  0  0  0  0  0  0  0
   -1.2189    0.9728    1.4350 H   0  0  0  0  0  0  0  0  0  0  0  0
   -2.2723    0.8287    0.0254 H   0  0  0  0  0  0  0  0  0  0  0  0
   -0.6964   -1.5744    1.2363 H   0  0  0  0  0  0  0  0  0  0  0  0
   -0.0911   -2.2079   -0.2978 H   0  0  0  0  0  0  0  0  0  0  0  0
   -1.7646   -1.6461   -0.1677 H   0  0  0  0  0  0  0  0  0  0  0  0
  1  2  2  3
  1  6  1  0
  1  7  1  0
  2  3  1  0
  2  8  1  0
  3  4  1  0
  3  5  1  0
  3  9  1  0
  4 10  1  0
  4 11  1  0
  4 12  1  0
  5 13  1  0
  5 14  1  0
  5 15  1  0
M  END
>  <reaction>  (1) 
rxn_1088

>  <mol_properties>  (1) 
{"2": {"label": "donator", "atom_type": "Cs"}, "8": {"label": "d_hydrogen", "atom_type": "H0"}}

>  <type>  (1) 
r1h

$$$$

     RDKit          3D

 12 11  0  0  0  0  0  0  0  0999 V2000
   -2.3791    0.4612   -0.5870 C   0  0  0  0  0  0  0  0  0  0  0  0
   -1.3422   -0.3138   -0.1893 C   0  0  0  0  0  0  0  0  0  0  0  0
   -1.4723   -1.6058    0.3589 C   0  0  0  0  0  3  0  0  0  0  0  0
   -0.3798   -2.3973    0.7671 C   0  0  0  0  0  0  0  0  0  0  0  0
   -0.4849   -3.6397    1.2956 C   0  0  0  0  0  0  0  0  0  0  0  0
   -2.2205    1.4472   -1.0017 H   0  0  0  0  0  0  0  0  0  0  0  0
   -3.4026    0.1153   -0.5011 H   0  0  0  0  0  0  0  0  0  0  0  0
   -0.3330    0.0765   -0.2952 H   0  0  0  0  0  0  0  0  0  0  0  0
   -2.4723   -2.0151    0.4735 H   0  0  0  0  0  0  0  0  0  0  0  0
    0.6117   -1.9687    0.6436 H   0  0  0  0  0  0  0  0  0  0  0  0
    0.3893   -4.2030    1.5920 H   0  0  0  0  0  0  0  0  0  0  0  0
   -1.4516   -4.1084    1.4378 H   0  0  0  0  0  0  0  0  0  0  0  0
  1  2  2  3
  1  6  1  0
  1  7  1  0
  2  3  1  0
  2  8  1  0
  3  4  1  0
  3  9  1  0
  4  5  2  3
  4 10  1  0
  5 11  1  0
  5 12  1  0
M  RAD  1   3   2
M  END
>  <reaction>  (2) 
rxn_1088

>  <mol_properties>  (2) 
{"2": {"label": "acceptor", "atom_type": "Cs"}}

>  <type>  (2) 
r2

$$$$

     RDKit          3D

 13 12  0  0  0  0  0  0  0  0999 V2000
    3.0977   -0.3549   -0.5105 C   0  0  0  0  0  0  0  0  0  0  0  0
    2.0556    0.4221   -0.2627 C   0  0  0  0  0  0  0  0  0  0  0  0
    0.6313   -0.0354   -0.2366 C   0  0  0  0  0  0  0  0  0  0  0  0
   -0.2567    0.6038   -1.2694 C   0  0  0  0  0  0  0  0  0  0  0  0
    0.1459    1.3456   -2.2891 C   0  0  0  0  0  0  0  0  0  0  0  0
    4.1081    0.0344   -0.5074 H   0  0  0  0  0  0  0  0  0  0  0  0
    2.9777   -1.4116   -0.7243 H   0  0  0  0  0  0  0  0  0  0  0  0
    2.2171    1.4781   -0.0618 H   0  0  0  0  0  0  0  0  0  0  0  0
    0.5865   -1.1233   -0.3540 H   0  0  0  0  0  0  0  0  0  0  0  0
    0.2065    0.1743    0.7521 H   0  0  0  0  0  0  0  0  0  0  0  0
   -1.3190    0.4126   -1.1445 H   0  0  0  0  0  0  0  0  0  0  0  0
    1.1948    1.5564   -2.4628 H   0  0  0  0  0  0  0  0  0  0  0  0
   -0.5644    1.7621   -2.9918 H   0  0  0  0  0  0  0  0  0  0  0  0
  1  2  2  3
  1  6  1  0
  1  7  1  0
  2  3  1  0
  2  8  1  0
  3  4  1  0
  3  9  1  0
  3 10  1  0
  4  5  2  3
  4 11  1  0
  5 12  1  0
  5 13  1  0
M  END
>  <reaction>  (3) 
rxn_1088

>  <mol_properties>  (3) 
{"2": {"label": "acceptor", "atom_type": "Cs"}, "12": {"label": "a_hydrogen", "atom_type": "H0"}}

>  <type>  (3) 
r2h

$$$$

     RDKit          3D

 27 25  0  0  0  0  0  0  0  0999 V2000
   -2.2978    1.8380   -0.0571 C   0  0  0  0  0  0  0  0  0  0  0  0
   -1.1307    1.5068   -0.6097 C   0  0  0  0  0  0  0  0  0  0  0  0
    0.1473    1.4984    0.1030 C   0  0  0  0  0  0  0  0  0  0  0  0
    1.4109    1.6376   -0.6291 C   0  0  0  0  0  0  0  0  0  0  0  0
    1.6455    1.2647   -1.8879 C   0  0  0  0  0  0  0  0  0  0  0  0
   -3.2195    1.8041   -0.6229 H   0  0  0  0  0  0  0  0  0  0  0  0
   -2.3632    2.1611    0.9764 H   0  0  0  0  0  0  0  0  0  0  0  0
   -1.1198    1.1867   -1.6461 H   0  0  0  0  0  0  0  0  0  0  0  0
    0.1208    2.0457    1.0441 H   0  0  0  0  0  0  0  0  0  0  0  0
    2.2438    2.0218   -0.0473 H   0  0  0  0  0  0  0  0  0  0  0  0
    2.6310    1.3690   -2.3223 H   0  0  0  0  0  0  0  0  0  0  0  0
    0.8726    0.8536   -2.5258 H   0  0  0  0  0  0  0  0  0  0  0  0
   -0.9248   -2.1619   -0.9396 C   0  0  0  0  0  0  0  0  0  0  0  0
    0.1909   -1.7439   -0.3285 C   0  0  0  0  0  0  0  0  0  0  0  0
    0.2716   -1.0618    0.9526 C   0  0  0  0  0  3  0  0  0  0  0  0
    1.6132   -1.1111    1.6423 C   0  0  0  0  0  0  0  0  0  0  0  0
   -0.9273   -1.1141    1.8652 C   0  0  0  0  0  0  0  0  0  0  0  0
   -0.8823   -2.6203   -1.9190 H   0  0  0  0  0  0  0  0  0  0  0  0
   -1.9029   -2.0702   -0.4841 H   0  0  0  0  0  0  0  0  0  0  0  0
    1.1360   -1.8648   -0.8517 H   0  0  0  0  0  0  0  0  0  0  0  0
    0.2300    0.2490    0.5385 H   0  0  0  0  0  0  0  0  0  0  0  0
    2.4260   -0.9447    0.9328 H   0  0  0  0  0  0  0  0  0  0  0  0
    1.7755   -2.0847    2.1169 H   0  0  0  0  0  0  0  0  0  0  0  0
    1.6808   -0.3500    2.4229 H   0  0  0  0  0  0  0  0  0  0  0  0
   -1.0945   -2.1321    2.2324 H   0  0  0  0  0  0  0  0  0  0  0  0
   -1.8348   -0.7866    1.3563 H   0  0  0  0  0  0  0  0  0  0  0  0
   -0.7784   -0.4655    2.7303 H   0  0  0  0  0  0  0  0  0  0  0  0
  1  2  2  3
  1  6  1  0
  1  7  1  0
  2  3  1  0
  2  8  1  0
  3  4  1  0
  3  9  1  0
  3 21  1  0
  4  5  2  3
  4 10  1  0
  5 11  1  0
  5 12  1  0
 13 14  2  3
 13 18  1  0
 13 19  1  0
 14 15  1  0
 14 20  1  0
 15 16  1  0
 15 17  1  0
 16 22  1  0
 16 23  1  0
 16 24  1  0
 17 25  1  0
 17 26  1  0
 17 27  1  0
M  RAD  1  15   2
M  END
>  <reaction>  (4) 
rxn_1088

>  <mol_properties>  (4) 
{"1": {"label": "*0", "atom_type": "Cd"}, "2": {"label": "*1", "atom_type": "Cs"}, "13": {"label": "*4", "atom_type": "Cd"}, "14": {"label": "*3", "atom_type": "Cs"}, "20": {"label": "*2", "atom_type": "H0"}}

>  <type>  (4) 
ts

$$$$

     RDKit          3D

 27 25  0  0  0  0  0  0  0  0999 V2000
   -1.1960    2.5823    0.7779 C   0  0  0  0  0  0  0  0  0  0  0  0
   -1.0711    1.7133   -0.2122 C   0  0  0  0  0  0  0  0  0  0  0  0
    0.1538    0.9006   -0.4910 C   0  0  0  0  0  3  0  0  0  0  0  0
    0.8004    1.1690   -1.8228 C   0  0  0  0  0  0  0  0  0  0  0  0
    0.5109    2.1691   -2.6402 C   0  0  0  0  0  0  0  0  0  0  0  0
   -2.1135    3.1360    0.9333 H   0  0  0  0  0  0  0  0  0  0  0  0
   -0.3836    2.7703    1.4718 H   0  0  0  0  0  0  0  0  0  0  0  0
   -1.9056    1.5597   -0.8917 H   0  0  0  0  0  0  0  0  0  0  0  0
    0.8937    1.0570    0.3010 H   0  0  0  0  0  0  0  0  0  0  0  0
    1.5784    0.4656   -2.1066 H   0  0  0  0  0  0  0  0  0  0  0  0
    1.0335    2.2915   -3.5803 H   0  0  0  0  0  0  0  0  0  0  0  0
   -0.2493    2.9028   -2.3979 H   0  0  0  0  0  0  0  0  0  0  0  0
    0.1538   -2.4353   -1.1244 C   0  0  0  0  0  0  0  0  0  0  0  0
    0.1538   -2.4353    0.1991 C   0  0  0  0  0  0  0  0  0  0  0  0
    0.1538   -1.2139    1.0711 C   0  0  0  0  0  0  0  0  0  0  0  0
    1.4131   -1.1735    1.9388 C   0  0  0  0  0  0  0  0  0  0  0  0
   -1.1055   -1.1735    1.9388 C   0  0  0  0  0  0  0  0  0  0  0  0
    0.1538   -3.3570   -1.6927 H   0  0  0  0  0  0  0  0  0  0  0  0
    0.1538   -1.5088   -1.6890 H   0  0  0  0  0  0  0  0  0  0  0  0
    0.1538   -3.3866    0.7296 H   0  0  0  0  0  0  0  0  0  0  0  0
    0.1538   -0.1575    0.2907 H   0  0  0  0  0  0  0  0  0  0  0  0
    2.3147   -1.1676    1.3246 H   0  0  0  0  0  0  0  0  0  0  0  0
    1.4577   -2.0473    2.5946 H   0  0  0  0  0  0  0  0  0  0  0  0
    1.4206   -0.2823    2.5697 H   0  0  0  0  0  0  0  0  0  0  0  0
   -1.1501   -2.0473    2.5946 H   0  0  0  0  0  0  0  0  0  0  0  0
   -2.0070   -1.1676    1.3246 H   0  0  0  0  0  0  0  0  0  0  0  0
   -1.1130   -0.2823    2.5697 H   0  0  0  0  0  0  0  0  0  0  0  0
  1  2  2  3
  1  6  1  0
  1  7  1  0
  2  3  1  0
  2  8  1  0
  3  4  1  0
  3  9  1  0
  4  5  2  3
  4 10  1  0
  5 11  1  0
  5 12  1  0
 13 14  2  3
 13 18  1  0
 13 19  1  0
 14 15  1  0
 14 20  1  0
 15 16  1  0
 15 17  1  0
 15 21  1  0
 16 22  1  0
 16 23  1  0
 16 24  1  0
 17 25  1  0
 17 26  1  0
 17 27  1  0
M  RAD  1   3   2
M  END
>  <reaction>  (5) 
rxn_1088

>  <mol_properties>  (5) 
{"1": {"label": "*0", "atom_type": "Cd"}, "2": {"label": "*1", "atom_type": "Cs"}, "13": {"label": "*4", "atom_type": "Cd"}, "14": {"label": "*3", "atom_type": "Cs"}, "20": {"label": "*2", "atom_type": "H0"}}

>  <type>  (5) 
unop_1

>  <geom_source>  (5) 
Heuristics

$$$$

     RDKit          3D

 27 25  0  0  0  0  0  0  0  0999 V2000
   -1.9566    1.1376   -1.8282 C   0  0  0  0  0  0  0  0  0  0  0  0
   -0.7222    0.7691   -1.5256 C   0  0  0  0  0  0  0  0  0  0  0  0
   -0.0150    1.1045   -0.2504 C   0  0  0  0  0  3  0  0  0  0  0  0
    1.2214    1.9458   -0.4160 C   0  0  0  0  0  0  0  0  0  0  0  0
    1.5996    2.5623   -1.5246 C   0  0  0  0  0  0  0  0  0  0  0  0
   -2.4178    0.8562   -2.7666 H   0  0  0  0  0  0  0  0  0  0  0  0
   -2.5526    1.7341   -1.1457 H   0  0  0  0  0  0  0  0  0  0  0  0
   -0.1544    0.1791   -2.2404 H   0  0  0  0  0  0  0  0  0  0  0  0
   -0.7016    1.6133    0.4345 H   0  0  0  0  0  0  0  0  0  0  0  0
    1.8336    2.0444    0.4762 H   0  0  0  0  0  0  0  0  0  0  0  0
    2.5045    3.1558   -1.5530 H   0  0  0  0  0  0  0  0  0  0  0  0
    1.0181    2.5035   -2.4375 H   0  0  0  0  0  0  0  0  0  0  0  0
   -0.0150   -2.2314   -0.8838 C   0  0  0  0  0  0  0  0  0  0  0  0
   -0.0150   -2.2314    0.4397 C   0  0  0  0  0  0  0  0  0  0  0  0
   -0.0150   -1.0100    1.3117 C   0  0  0  0  0  0  0  0  0  0  0  0
    1.2443   -0.9696    2.1794 C   0  0  0  0  0  0  0  0  0  0  0  0
   -1.2743   -0.9696    2.1794 C   0  0  0  0  0  0  0  0  0  0  0  0
   -0.0150   -3.1531   -1.4521 H   0  0  0  0  0  0  0  0  0  0  0  0
   -0.0150   -1.3048   -1.4484 H   0  0  0  0  0  0  0  0  0  0  0  0
   -0.0150   -3.1827    0.9702 H   0  0  0  0  0  0  0  0  0  0  0  0
   -0.0150    0.0464    0.5313 H   0  0  0  0  0  0  0  0  0  0  0  0
    2.1459   -0.9637    1.5652 H   0  0  0  0  0  0  0  0  0  0  0  0
    1.2889   -1.8434    2.8352 H   0  0  0  0  0  0  0  0  0  0  0  0
    1.2518   -0.0784    2.8104 H   0  0  0  0  0  0  0  0  0  0  0  0
   -1.3189   -1.8434    2.8352 H   0  0  0  0  0  0  0  0  0  0  0  0
   -2.1759   -0.9637    1.5652 H   0  0  0  0  0  0  0  0  0  0  0  0
   -1.2818   -0.0784    2.8104 H   0  0  0  0  0  0  0  0  0  0  0  0
  1  2  2  3
  1  6  1  0
  1  7  1  0
  2  3  1  0
  2  8  1  0
  3  4  1  0
  3  9  1  0
  4  5  2  3
  4 10  1  0
  5 11  1  0
  5 12  1  0
 13 14  2  3
 13 18  1  0
 13 19  1  0
 14 15  1  0
 14 20  1  0
 15 16  1  0
 15 17  1  0
 15 21  1  0
 16 22  1  0
 16 23  1  0
 16 24  1  0
 17 25  1  0
 17 26  1  0
 17 27  1  0
M  RAD  1   3   2
M  END
>  <reaction>  (6) 
rxn_1088

>  <mol_properties>  (6) 
{"1": {"label": "*0", "atom_type": "Cd"}, "2": {"label": "*1", "atom_type": "Cs"}, "13": {"label": "*4", "atom_type": "Cd"}, "14": {"label": "*3", "atom_type": "Cs"}, "20": {"label": "*2", "atom_type": "H0"}}

>  <type>  (6) 
unop_2

>  <geom_source>  (6) 
Heuristics

$$$$

     RDKit          3D

 27 25  0  0  0  0  0  0  0  0999 V2000
    0.0316    2.9366    0.9101 C   0  0  0  0  0  0  0  0  0  0  0  0
   -0.5577    2.0072    0.1754 C   0  0  0  0  0  0  0  0  0  0  0  0
    0.1495    0.8869   -0.5199 C   0  0  0  0  0  3  0  0  0  0  0  0
    0.0262    0.8958   -2.0194 C   0  0  0  0  0  0  0  0  0  0  0  0
   -0.4564    1.8856   -2.7540 C   0  0  0  0  0  0  0  0  0  0  0  0
   -0.5370    3.7196    1.3961 H   0  0  0  0  0  0  0  0  0  0  0  0
    1.1068    2.9470    1.0539 H   0  0  0  0  0  0  0  0  0  0  0  0
   -1.6368    2.0367    0.0481 H   0  0  0  0  0  0  0  0  0  0  0  0
    1.2110    0.8915   -0.2509 H   0  0  0  0  0  0  0  0  0  0  0  0
    0.3829   -0.0026   -2.5157 H   0  0  0  0  0  0  0  0  0  0  0  0
   -0.5017    1.8101   -3.8330 H   0  0  0  0  0  0  0  0  0  0  0  0
   -0.8147    2.8060   -2.3074 H   0  0  0  0  0  0  0  0  0  0  0  0
    0.1495   -2.4490   -1.1533 C   0  0  0  0  0  0  0  0  0  0  0  0
    0.1495   -2.4490    0.1702 C   0  0  0  0  0  0  0  0  0  0  0  0
    0.1495   -1.2276    1.0422 C   0  0  0  0  0  0  0  0  0  0  0  0
    1.4088   -1.1872    1.9099 C   0  0  0  0  0  0  0  0  0  0  0  0
   -1.1098   -1.1872    1.9099 C   0  0  0  0  0  0  0  0  0  0  0  0
    0.1495   -3.3708   -1.7216 H   0  0  0  0  0  0  0  0  0  0  0  0
    0.1495   -1.5225   -1.7179 H   0  0  0  0  0  0  0  0  0  0  0  0
    0.1495   -3.4003    0.7007 H   0  0  0  0  0  0  0  0  0  0  0  0
    0.1495   -0.1713    0.2618 H   0  0  0  0  0  0  0  0  0  0  0  0
    2.3104   -1.1813    1.2957 H   0  0  0  0  0  0  0  0  0  0  0  0
    1.4534   -2.0611    2.5657 H   0  0  0  0  0  0  0  0  0  0  0  0
    1.4163   -0.2960    2.5409 H   0  0  0  0  0  0  0  0  0  0  0  0
   -1.1544   -2.0611    2.5657 H   0  0  0  0  0  0  0  0  0  0  0  0
   -2.0114   -1.1813    1.2957 H   0  0  0  0  0  0  0  0  0  0  0  0
   -1.1173   -0.2960    2.5409 H   0  0  0  0  0  0  0  0  0  0  0  0
  1  2  2  3
  1  6  1  0
  1  7  1  0
  2  3  1  0
  2  8  1  0
  3  4  1  0
  3  9  1  0
  4  5  2  3
  4 10  1  0
  5 11  1  0
  5 12  1  0
 13 14  2  3
 13 18  1  0
 13 19  1  0
 14 15  1  0
 14 20  1  0
 15 16  1  0
 15 17  1  0
 15 21  1  0
 16 22  1  0
 16 23  1  0
 16 24  1  0
 17 25  1  0
 17 26  1  0
 17 27  1  0
M  RAD  1   3   2
M  END
>  <reaction>  (7) 
rxn_1088

>  <mol_properties>  (7) 
{"1": {"label": "*0", "atom_type": "Cd"}, "2": {"label": "*1", "atom_type": "Cs"}, "13": {"label": "*4", "atom_type": "Cd"}, "14": {"label": "*3", "atom_type": "Cs"}, "20": {"label": "*2", "atom_type": "H0"}}

>  <type>  (7) 
unop_3

>  <geom_source>  (7) 
Heuristics

$$$$

     RDKit          3D

 27 25  0  0  0  0  0  0  0  0999 V2000
    0.9339    1.5643   -2.7397 C   0  0  0  0  0  0  0  0  0  0  0  0
    0.8336    1.0092   -1.5428 C   0  0  0  0  0  0  0  0  0  0  0  0
   -0.3913    1.0369   -0.6840 C   0  0  0  0  0  3  0  0  0  0  0  0
   -0.2238    1.7453    0.6328 C   0  0  0  0  0  0  0  0  0  0  0  0
    0.8082    2.4948    0.9867 C   0  0  0  0  0  0  0  0  0  0  0  0
    1.8474    1.5032   -3.3179 H   0  0  0  0  0  0  0  0  0  0  0  0
    0.1030    2.0999   -3.1866 H   0  0  0  0  0  0  0  0  0  0  0  0
    1.6920    0.4887   -1.1258 H   0  0  0  0  0  0  0  0  0  0  0  0
   -1.2207    1.4967   -1.2316 H   0  0  0  0  0  0  0  0  0  0  0  0
   -1.0462    1.6181    1.3315 H   0  0  0  0  0  0  0  0  0  0  0  0
    0.8433    2.9757    1.9560 H   0  0  0  0  0  0  0  0  0  0  0  0
    1.6479    2.6610    0.3217 H   0  0  0  0  0  0  0  0  0  0  0  0
   -0.3913   -2.2990   -1.3174 C   0  0  0  0  0  0  0  0  0  0  0  0
   -0.3913   -2.2990    0.0061 C   0  0  0  0  0  0  0  0  0  0  0  0
   -0.3913   -1.0776    0.8781 C   0  0  0  0  0  0  0  0  0  0  0  0
    0.8680   -1.0372    1.7458 C   0  0  0  0  0  0  0  0  0  0  0  0
   -1.6506   -1.0372    1.7458 C   0  0  0  0  0  0  0  0  0  0  0  0
   -0.3913   -3.2207   -1.8857 H   0  0  0  0  0  0  0  0  0  0  0  0
   -0.3913   -1.3724   -1.8820 H   0  0  0  0  0  0  0  0  0  0  0  0
   -0.3913   -3.2503    0.5367 H   0  0  0  0  0  0  0  0  0  0  0  0
   -0.3913   -0.0212    0.0977 H   0  0  0  0  0  0  0  0  0  0  0  0
    1.7695   -1.0313    1.1316 H   0  0  0  0  0  0  0  0  0  0  0  0
    0.9126   -1.9110    2.4016 H   0  0  0  0  0  0  0  0  0  0  0  0
    0.8755   -0.1460    2.3768 H   0  0  0  0  0  0  0  0  0  0  0  0
   -1.6952   -1.9110    2.4016 H   0  0  0  0  0  0  0  0  0  0  0  0
   -2.5522   -1.0313    1.1316 H   0  0  0  0  0  0  0  0  0  0  0  0
   -1.6582   -0.1460    2.3768 H   0  0  0  0  0  0  0  0  0  0  0  0
  1  2  2  3
  1  6  1  0
  1  7  1  0
  2  3  1  0
  2  8  1  0
  3  4  1  0
  3  9  1  0
  4  5  2  3
  4 10  1  0
  5 11  1  0
  5 12  1  0
 13 14  2  3
 13 18  1  0
 13 19  1  0
 14 15  1  0
 14 20  1  0
 15 16  1  0
 15 17  1  0
 15 21  1  0
 16 22  1  0
 16 23  1  0
 16 24  1  0
 17 25  1  0
 17 26  1  0
 17 27  1  0
M  RAD  1   3   2
M  END
>  <reaction>  (8) 
rxn_1088

>  <mol_properties>  (8) 
{"1": {"label": "*0", "atom_type": "Cd"}, "2": {"label": "*1", "atom_type": "Cs"}, "13": {"label": "*4", "atom_type": "Cd"}, "14": {"label": "*3", "atom_type": "Cs"}, "20": {"label": "*2", "atom_type": "H0"}}

>  <type>  (8) 
unop_4

>  <geom_source>  (8) 
Heuristics

$$$$

     RDKit          3D

 27 25  0  0  0  0  0  0  0  0999 V2000
    1.1528    3.0676    0.1913 C   0  0  0  0  0  0  0  0  0  0  0  0
    0.2239    2.1256    0.2220 C   0  0  0  0  0  0  0  0  0  0  0  0
    0.2239    0.8927   -0.6257 C   0  0  0  0  0  3  0  0  0  0  0  0
   -0.9425    0.7743   -1.5687 C   0  0  0  0  0  0  0  0  0  0  0  0
   -1.8162    1.7285   -1.8483 C   0  0  0  0  0  0  0  0  0  0  0  0
    1.1013    3.9352    0.8370 H   0  0  0  0  0  0  0  0  0  0  0  0
    2.0015    3.0038   -0.4813 H   0  0  0  0  0  0  0  0  0  0  0  0
   -0.6160    2.2308    0.9040 H   0  0  0  0  0  0  0  0  0  0  0  0
    1.1535    0.8359   -1.2018 H   0  0  0  0  0  0  0  0  0  0  0  0
   -1.0442   -0.1917   -2.0556 H   0  0  0  0  0  0  0  0  0  0  0  0
   -2.6246    1.5584   -2.5479 H   0  0  0  0  0  0  0  0  0  0  0  0
   -1.7517    2.7119   -1.3970 H   0  0  0  0  0  0  0  0  0  0  0  0
    0.2239   -2.4432   -1.2591 C   0  0  0  0  0  0  0  0  0  0  0  0
    0.2239   -2.4432    0.0644 C   0  0  0  0  0  0  0  0  0  0  0  0
    0.2239   -1.2218    0.9364 C   0  0  0  0  0  0  0  0  0  0  0  0
    1.4832   -1.1814    1.8041 C   0  0  0  0  0  0  0  0  0  0  0  0
   -1.0354   -1.1814    1.8041 C   0  0  0  0  0  0  0  0  0  0  0  0
    0.2239   -3.3649   -1.8274 H   0  0  0  0  0  0  0  0  0  0  0  0
    0.2239   -1.5167   -1.8237 H   0  0  0  0  0  0  0  0  0  0  0  0
    0.2239   -3.3945    0.5949 H   0  0  0  0  0  0  0  0  0  0  0  0
    0.2239   -0.1654    0.1560 H   0  0  0  0  0  0  0  0  0  0  0  0
    2.3848   -1.1755    1.1899 H   0  0  0  0  0  0  0  0  0  0  0  0
    1.5278   -2.0552    2.4599 H   0  0  0  0  0  0  0  0  0  0  0  0
    1.4908   -0.2902    2.4351 H   0  0  0  0  0  0  0  0  0  0  0  0
   -1.0800   -2.0552    2.4599 H   0  0  0  0  0  0  0  0  0  0  0  0
   -1.9369   -1.1755    1.1899 H   0  0  0  0  0  0  0  0  0  0  0  0
   -1.0429   -0.2902    2.4351 H   0  0  0  0  0  0  0  0  0  0  0  0
  1  2  2  3
  1  6  1  0
  1  7  1  0
  2  3  1  0
  2  8  1  0
  3  4  1  0
  3  9  1  0
  4  5  2  3
  4 10  1  0
  5 11  1  0
  5 12  1  0
 13 14  2  3
 13 18  1  0
 13 19  1  0
 14 15  1  0
 14 20  1  0
 15 16  1  0
 15 17  1  0
 15 21  1  0
 16 22  1  0
 16 23  1  0
 16 24  1  0
 17 25  1  0
 17 26  1  0
 17 27  1  0
M  RAD  1   3   2
M  END
>  <reaction>  (9) 
rxn_1088

>  <mol_properties>  (9) 
{"1": {"label": "*0", "atom_type": "Cd"}, "2": {"label": "*1", "atom_type": "Cs"}, "13": {"label": "*4", "atom_type": "Cd"}, "14": {"label": "*3", "atom_type": "Cs"}, "20": {"label": "*2", "atom_type": "H0"}}

>  <type>  (9) 
unop_5

>  <geom_source>  (9) 
Heuristics

$$$$

     RDKit          3D

 27 25  0  0  0  0  0  0  0  0999 V2000
    1.5295    2.1025   -2.1673 C   0  0  0  0  0  0  0  0  0  0  0  0
    1.1441    1.3517   -1.1481 C   0  0  0  0  0  0  0  0  0  0  0  0
   -0.2703    0.9592   -0.8582 C   0  0  0  0  0  3  0  0  0  0  0  0
   -0.8096    1.4629    0.4531 C   0  0  0  0  0  0  0  0  0  0  0  0
   -0.2335    2.3599    1.2376 C   0  0  0  0  0  0  0  0  0  0  0  0
    2.5721    2.3462   -2.3291 H   0  0  0  0  0  0  0  0  0  0  0  0
    0.8145    2.5000   -2.8797 H   0  0  0  0  0  0  0  0  0  0  0  0
    1.8906    0.9798   -0.4510 H   0  0  0  0  0  0  0  0  0  0  0  0
   -0.9256    1.3008   -1.6664 H   0  0  0  0  0  0  0  0  0  0  0  0
   -1.7650    1.0394    0.7506 H   0  0  0  0  0  0  0  0  0  0  0  0
   -0.6975    2.6716    2.1647 H   0  0  0  0  0  0  0  0  0  0  0  0
    0.7140    2.8191    0.9802 H   0  0  0  0  0  0  0  0  0  0  0  0
   -0.2703   -2.3767   -1.4915 C   0  0  0  0  0  0  0  0  0  0  0  0
   -0.2703   -2.3767   -0.1680 C   0  0  0  0  0  0  0  0  0  0  0  0
   -0.2703   -1.1553    0.7040 C   0  0  0  0  0  0  0  0  0  0  0  0
    0.9890   -1.1149    1.5716 C   0  0  0  0  0  0  0  0  0  0  0  0
   -1.5296   -1.1149    1.5716 C   0  0  0  0  0  0  0  0  0  0  0  0
   -0.2703   -3.2984   -2.0598 H   0  0  0  0  0  0  0  0  0  0  0  0
   -0.2703   -1.4502   -2.0561 H   0  0  0  0  0  0  0  0  0  0  0  0
   -0.2703   -3.3280    0.3625 H   0  0  0  0  0  0  0  0  0  0  0  0
   -0.2703   -0.0989   -0.0765 H   0  0  0  0  0  0  0  0  0  0  0  0
    1.8905   -1.1090    0.9575 H   0  0  0  0  0  0  0  0  0  0  0  0
    1.0335   -1.9887    2.2274 H   0  0  0  0  0  0  0  0  0  0  0  0
    0.9965   -0.2237    2.2026 H   0  0  0  0  0  0  0  0  0  0  0  0
   -1.5742   -1.9887    2.2274 H   0  0  0  0  0  0  0  0  0  0  0  0
   -2.4312   -1.1090    0.9575 H   0  0  0  0  0  0  0  0  0  0  0  0
   -1.5372   -0.2237    2.2026 H   0  0  0  0  0  0  0  0  0  0  0  0
  1  2  2  3
  1  6  1  0
  1  7  1  0
  2  3  1  0
  2  8  1  0
  3  4  1  0
  3  9  1  0
  4  5  2  3
  4 10  1  0
  5 11  1  0
  5 12  1  0
 13 14  2  3
 13 18  1  0
 13 19  1  0
 14 15  1  0
 14 20  1  0
 15 16  1  0
 15 17  1  0
 15 21  1  0
 16 22  1  0
 16 23  1  0
 16 24  1  0
 17 25  1  0
 17 26  1  0
 17 27  1  0
M  RAD  1   3   2
M  END
>  <reaction>  (10) 
rxn_1088

>  <mol_properties>  (10) 
{"1": {"label": "*0", "atom_type": "Cd"}, "2": {"label": "*1", "atom_type": "Cs"}, "13": {"label": "*4", "atom_type": "Cd"}, "14": {"label": "*3", "atom_type": "Cs"}, "20": {"label": "*2", "atom_type": "H0"}}

>  <type>  (10) 
unop_6

>  <geom_source>  (10) 
Heuristics

$$$$

     RDKit          3D

 27 25  0  0  0  0  0  0  0  0999 V2000
    1.6883    2.6131   -1.4743 C   0  0  0  0  0  0  0  0  0  0  0  0
    1.1667    1.7193   -0.6496 C   0  0  0  0  0  0  0  0  0  0  0  0
   -0.0582    0.9066   -0.9285 C   0  0  0  0  0  3  0  0  0  0  0  0
   -1.2029    1.1438    0.0186 C   0  0  0  0  0  0  0  0  0  0  0  0
   -1.2865    2.1205    0.9081 C   0  0  0  0  0  0  0  0  0  0  0  0
    2.5838    3.1655   -1.2183 H   0  0  0  0  0  0  0  0  0  0  0  0
    1.2383    2.8239   -2.4386 H   0  0  0  0  0  0  0  0  0  0  0  0
    1.6425    1.5432    0.3117 H   0  0  0  0  0  0  0  0  0  0  0  0
   -0.4012    1.0878   -1.9526 H   0  0  0  0  0  0  0  0  0  0  0  0
   -2.0243    0.4376   -0.0665 H   0  0  0  0  0  0  0  0  0  0  0  0
   -2.1543    2.2213    1.5474 H   0  0  0  0  0  0  0  0  0  0  0  0
   -0.4988    2.8559    1.0243 H   0  0  0  0  0  0  0  0  0  0  0  0
   -0.0582   -2.4293   -1.5619 C   0  0  0  0  0  0  0  0  0  0  0  0
   -0.0582   -2.4293   -0.2384 C   0  0  0  0  0  0  0  0  0  0  0  0
   -0.0582   -1.2079    0.6336 C   0  0  0  0  0  0  0  0  0  0  0  0
    1.2011   -1.1675    1.5013 C   0  0  0  0  0  0  0  0  0  0  0  0
   -1.3175   -1.1675    1.5013 C   0  0  0  0  0  0  0  0  0  0  0  0
   -0.0582   -3.3510   -2.1302 H   0  0  0  0  0  0  0  0  0  0  0  0
   -0.0582   -1.5028   -2.1265 H   0  0  0  0  0  0  0  0  0  0  0  0
   -0.0582   -3.3806    0.2921 H   0  0  0  0  0  0  0  0  0  0  0  0
   -0.0582   -0.1516   -0.1468 H   0  0  0  0  0  0  0  0  0  0  0  0
    2.1027   -1.1616    0.8871 H   0  0  0  0  0  0  0  0  0  0  0  0
    1.2457   -2.0414    2.1571 H   0  0  0  0  0  0  0  0  0  0  0  0
    1.2086   -0.2763    2.1323 H   0  0  0  0  0  0  0  0  0  0  0  0
   -1.3621   -2.0414    2.1571 H   0  0  0  0  0  0  0  0  0  0  0  0
   -2.2191   -1.1616    0.8871 H   0  0  0  0  0  0  0  0  0  0  0  0
   -1.3250   -0.2763    2.1323 H   0  0  0  0  0  0  0  0  0  0  0  0
  1  2  2  3
  1  6  1  0
  1  7  1  0
  2  3  1  0
  2  8  1  0
  3  4  1  0
  3  9  1  0
  4  5  2  3
  4 10  1  0
  5 11  1  0
  5 12  1  0
 13 14  2  3
 13 18  1  0
 13 19  1  0
 14 15  1  0
 14 20  1  0
 15 16  1  0
 15 17  1  0
 15 21  1  0
 16 22  1  0
 16 23  1  0
 16 24  1  0
 17 25  1  0
 17 26  1  0
 17 27  1  0
M  RAD  1   3   2
M  END
>  <reaction>  (11) 
rxn_1088

>  <mol_properties>  (11) 
{"1": {"label": "*0", "atom_type": "Cd"}, "2": {"label": "*1", "atom_type": "Cs"}, "13": {"label": "*4", "atom_type": "Cd"}, "14": {"label": "*3", "atom_type": "Cs"}, "20": {"label": "*2", "atom_type": "H0"}}

>  <type>  (11) 
unop_7

>  <geom_source>  (11) 
Heuristics

$$$$

     RDKit          3D

 27 25  0  0  0  0  0  0  0  0999 V2000
   -2.0007    2.0716    0.0894 C   0  0  0  0  0  0  0  0  0  0  0  0
   -1.2356    1.3457   -0.7098 C   0  0  0  0  0  0  0  0  0  0  0  0
    0.1788    0.9532   -0.4198 C   0  0  0  0  0  3  0  0  0  0  0  0
    1.1949    1.4881   -1.3920 C   0  0  0  0  0  0  0  0  0  0  0  0
    0.9759    2.4085   -2.3178 C   0  0  0  0  0  0  0  0  0  0  0  0
   -3.0222    2.3167   -0.1731 H   0  0  0  0  0  0  0  0  0  0  0  0
   -1.6326    2.4464    1.0385 H   0  0  0  0  0  0  0  0  0  0  0  0
   -1.6388    0.9963   -1.6568 H   0  0  0  0  0  0  0  0  0  0  0  0
    0.4541    1.2699    0.5917 H   0  0  0  0  0  0  0  0  0  0  0  0
    2.1918    1.0674   -1.2935 H   0  0  0  0  0  0  0  0  0  0  0  0
    1.7703    2.7419   -2.9733 H   0  0  0  0  0  0  0  0  0  0  0  0
    0.0020    2.8661   -2.4489 H   0  0  0  0  0  0  0  0  0  0  0  0
    0.1788   -2.3827   -1.0532 C   0  0  0  0  0  0  0  0  0  0  0  0
    0.1788   -2.3827    0.2703 C   0  0  0  0  0  0  0  0  0  0  0  0
    0.1788   -1.1613    1.1423 C   0  0  0  0  0  0  0  0  0  0  0  0
    1.4381   -1.1209    2.0100 C   0  0  0  0  0  0  0  0  0  0  0  0
   -1.0805   -1.1209    2.0100 C   0  0  0  0  0  0  0  0  0  0  0  0
    0.1788   -3.3044   -1.6215 H   0  0  0  0  0  0  0  0  0  0  0  0
    0.1788   -1.4562   -1.6178 H   0  0  0  0  0  0  0  0  0  0  0  0
    0.1788   -3.3340    0.8008 H   0  0  0  0  0  0  0  0  0  0  0  0
    0.1788   -0.1049    0.3619 H   0  0  0  0  0  0  0  0  0  0  0  0
    2.3397   -1.1150    1.3958 H   0  0  0  0  0  0  0  0  0  0  0  0
    1.4827   -1.9947    2.6658 H   0  0  0  0  0  0  0  0  0  0  0  0
    1.4457   -0.2297    2.6410 H   0  0  0  0  0  0  0  0  0  0  0  0
   -1.1251   -1.9947    2.6658 H   0  0  0  0  0  0  0  0  0  0  0  0
   -1.9820   -1.1150    1.3958 H   0  0  0  0  0  0  0  0  0  0  0  0
   -1.0880   -0.2297    2.6410 H   0  0  0  0  0  0  0  0  0  0  0  0
  1  2  2  3
  1  6  1  0
  1  7  1  0
  2  3  1  0
  2  8  1  0
  3  4  1  0
  3  9  1  0
  4  5  2  3
  4 10  1  0
  5 11  1  0
  5 12  1  0
 13 14  2  3
 13 18  1  0
 13 19  1  0
 14 15  1  0
 14 20  1  0
 15 16  1  0
 15 17  1  0
 15 21  1  0
 16 22  1  0
 16 23  1  0
 16 24  1  0
 17 25  1  0
 17 26  1  0
 17 27  1  0
M  RAD  1   3   2
M  END
>  <reaction>  (12) 
rxn_1088

>  <mol_properties>  (12) 
{"1": {"label": "*0", "atom_type": "Cd"}, "2": {"label": "*1", "atom_type": "Cs"}, "13": {"label": "*4", "atom_type": "Cd"}, "14": {"label": "*3", "atom_type": "Cs"}, "20": {"label": "*2", "atom_type": "H0"}}

>  <type>  (12) 
unop_8

>  <geom_source>  (12) 
Heuristics

$$$$

     RDKit          3D

 27 25  0  0  0  0  0  0  0  0999 V2000
   -0.0579    1.1529   -2.9495 C   0  0  0  0  0  0  0  0  0  0  0  0
    0.3309    0.7721   -1.7434 C   0  0  0  0  0  0  0  0  0  0  0  0
   -0.3763    1.1075   -0.4682 C   0  0  0  0  0  3  0  0  0  0  0  0
    0.4257    1.9332    0.5007 C   0  0  0  0  0  0  0  0  0  0  0  0
    1.5743    2.5381    0.2419 C   0  0  0  0  0  0  0  0  0  0  0  0
    0.4933    0.8708   -3.8378 H   0  0  0  0  0  0  0  0  0  0  0  0
   -0.9451    1.7607   -3.0926 H   0  0  0  0  0  0  0  0  0  0  0  0
    1.2308    0.1709   -1.6413 H   0  0  0  0  0  0  0  0  0  0  0  0
   -1.3141    1.6286   -0.6875 H   0  0  0  0  0  0  0  0  0  0  0  0
   -0.0089    2.0305    1.4919 H   0  0  0  0  0  0  0  0  0  0  0  0
    2.0821    3.1209    0.9998 H   0  0  0  0  0  0  0  0  0  0  0  0
    2.0430    2.4801   -0.7337 H   0  0  0  0  0  0  0  0  0  0  0  0
   -0.3763   -2.2284   -1.1016 C   0  0  0  0  0  0  0  0  0  0  0  0
   -0.3763   -2.2284    0.2219 C   0  0  0  0  0  0  0  0  0  0  0  0
   -0.3763   -1.0070    1.0939 C   0  0  0  0  0  0  0  0  0  0  0  0
    0.8830   -0.9666    1.9616 C   0  0  0  0  0  0  0  0  0  0  0  0
   -1.6356   -0.9666    1.9616 C   0  0  0  0  0  0  0  0  0  0  0  0
   -0.3763   -3.1501   -1.6698 H   0  0  0  0  0  0  0  0  0  0  0  0
   -0.3763   -1.3018   -1.6662 H   0  0  0  0  0  0  0  0  0  0  0  0
   -0.3763   -3.1797    0.7525 H   0  0  0  0  0  0  0  0  0  0  0  0
   -0.3763    0.0494    0.3135 H   0  0  0  0  0  0  0  0  0  0  0  0
    1.7846   -0.9607    1.3474 H   0  0  0  0  0  0  0  0  0  0  0  0
    0.9276   -1.8404    2.6174 H   0  0  0  0  0  0  0  0  0  0  0  0
    0.8905   -0.0754    2.5926 H   0  0  0  0  0  0  0  0  0  0  0  0
   -1.6802   -1.8404    2.6174 H   0  0  0  0  0  0  0  0  0  0  0  0
   -2.5371   -0.9607    1.3474 H   0  0  0  0  0  0  0  0  0  0  0  0
   -1.6431   -0.0754    2.5926 H   0  0  0  0  0  0  0  0  0  0  0  0
  1  2  2  3
  1  6  1  0
  1  7  1  0
  2  3  1  0
  2  8  1  0
  3  4  1  0
  3  9  1  0
  4  5  2  3
  4 10  1  0
  5 11  1  0
  5 12  1  0
 13 14  2  3
 13 18  1  0
 13 19  1  0
 14 15  1  0
 14 20  1  0
 15 16  1  0
 15 17  1  0
 15 21  1  0
 16 22  1  0
 16 23  1  0
 16 24  1  0
 17 25  1  0
 17 26  1  0
 17 27  1  0
M  RAD  1   3   2
M  END
>  <reaction>  (13) 
rxn_1088

>  <mol_properties>  (13) 
{"1": {"label": "*0", "atom_type": "Cd"}, "2": {"label": "*1", "atom_type": "Cs"}, "13": {"label": "*4", "atom_type": "Cd"}, "14": {"label": "*3", "atom_type": "Cs"}, "20": {"label": "*2", "atom_type": "H0"}}

>  <type>  (13) 
unop_9

>  <geom_source>  (13) 
Heuristics

$$$$

     RDKit          3D

 27 25  0  0  0  0  0  0  0  0999 V2000
   -2.2569    1.5385   -0.8517 C   0  0  0  0  0  0  0  0  0  0  0  0
   -1.0906    1.0041   -1.1760 C   0  0  0  0  0  0  0  0  0  0  0  0
    0.1343    1.0319   -0.3173 C   0  0  0  0  0  3  0  0  0  0  0  0
    1.3056    1.7665   -0.9109 C   0  0  0  0  0  0  0  0  0  0  0  0
    1.2763    2.5355   -1.9878 C   0  0  0  0  0  0  0  0  0  0  0  0
   -3.1114    1.4785   -1.5142 H   0  0  0  0  0  0  0  0  0  0  0  0
   -2.4002    2.0550    0.0914 H   0  0  0  0  0  0  0  0  0  0  0  0
   -0.9850    0.5025   -2.1346 H   0  0  0  0  0  0  0  0  0  0  0  0
   -0.1031    1.4708    0.6575 H   0  0  0  0  0  0  0  0  0  0  0  0
    2.2446    1.6415   -0.3787 H   0  0  0  0  0  0  0  0  0  0  0  0
    2.1690    3.0345   -2.3426 H   0  0  0  0  0  0  0  0  0  0  0  0
    0.3625    2.7002   -2.5471 H   0  0  0  0  0  0  0  0  0  0  0  0
    0.1343   -2.3040   -0.9506 C   0  0  0  0  0  0  0  0  0  0  0  0
    0.1343   -2.3040    0.3729 C   0  0  0  0  0  0  0  0  0  0  0  0
    0.1343   -1.0826    1.2449 C   0  0  0  0  0  0  0  0  0  0  0  0
    1.3936   -1.0422    2.1125 C   0  0  0  0  0  0  0  0  0  0  0  0
   -1.1250   -1.0422    2.1125 C   0  0  0  0  0  0  0  0  0  0  0  0
    0.1343   -3.2257   -1.5189 H   0  0  0  0  0  0  0  0  0  0  0  0
    0.1343   -1.3775   -1.5152 H   0  0  0  0  0  0  0  0  0  0  0  0
    0.1343   -3.2553    0.9034 H   0  0  0  0  0  0  0  0  0  0  0  0
    0.1343   -0.0262    0.4644 H   0  0  0  0  0  0  0  0  0  0  0  0
    2.2952   -1.0363    1.4984 H   0  0  0  0  0  0  0  0  0  0  0  0
    1.4382   -1.9160    2.7683 H   0  0  0  0  0  0  0  0  0  0  0  0
    1.4012   -0.1510    2.7435 H   0  0  0  0  0  0  0  0  0  0  0  0
   -1.1696   -1.9160    2.7683 H   0  0  0  0  0  0  0  0  0  0  0  0
   -2.0265   -1.0363    1.4984 H   0  0  0  0  0  0  0  0  0  0  0  0
   -1.1325   -0.1510    2.7435 H   0  0  0  0  0  0  0  0  0  0  0  0
  1  2  2  3
  1  6  1  0
  1  7  1  0
  2  3  1  0
  2  8  1  0
  3  4  1  0
  3  9  1  0
  4  5  2  3
  4 10  1  0
  5 11  1  0
  5 12  1  0
 13 14  2  3
 13 18  1  0
 13 19  1  0
 14 15  1  0
 14 20  1  0
 15 16  1  0
 15 17  1  0
 15 21  1  0
 16 22  1  0
 16 23  1  0
 16 24  1  0
 17 25  1  0
 17 26  1  0
 17 27  1  0
M  RAD  1   3   2
M  END
>  <reaction>  (14) 
rxn_1088

>  <mol_properties>  (14) 
{"1": {"label": "*0", "atom_type": "Cd"}, "2": {"label": "*1", "atom_type": "Cs"}, "13": {"label": "*4", "atom_type": "Cd"}, "14": {"label": "*3", "atom_type": "Cs"}, "20": {"label": "*2", "atom_type": "H0"}}

>  <type>  (14) 
unop_10

>  <geom_source>  (14) 
Heuristics

$$$$

     RDKit          3D

 27 25  0  0  0  0  0  0  0  0999 V2000
    1.5662    2.9594   -0.7519 C   0  0  0  0  0  0  0  0  0  0  0  0
    0.8681    2.0116   -0.1475 C   0  0  0  0  0  0  0  0  0  0  0  0
    0.1609    0.8913   -0.8427 C   0  0  0  0  0  3  0  0  0  0  0  0
   -1.3326    0.8772   -0.6606 C   0  0  0  0  0  0  0  0  0  0  0  0
   -2.0610    1.8498   -0.1356 C   0  0  0  0  0  0  0  0  0  0  0  0
    2.0635    3.7413   -0.1917 H   0  0  0  0  0  0  0  0  0  0  0  0
    1.6675    2.9865   -1.8316 H   0  0  0  0  0  0  0  0  0  0  0  0
    0.7831    2.0246    0.9361 H   0  0  0  0  0  0  0  0  0  0  0  0
    0.3878    0.9143   -1.9138 H   0  0  0  0  0  0  0  0  0  0  0  0
   -1.8302   -0.0232   -1.0103 H   0  0  0  0  0  0  0  0  0  0  0  0
   -3.1362    1.7583   -0.0491 H   0  0  0  0  0  0  0  0  0  0  0  0
   -1.6133    2.7714    0.2180 H   0  0  0  0  0  0  0  0  0  0  0  0
    0.1609   -2.4446   -1.4761 C   0  0  0  0  0  0  0  0  0  0  0  0
    0.1609   -2.4446   -0.1526 C   0  0  0  0  0  0  0  0  0  0  0  0
    0.1609   -1.2232    0.7194 C   0  0  0  0  0  0  0  0  0  0  0  0
    1.4202   -1.1828    1.5871 C   0  0  0  0  0  0  0  0  0  0  0  0
   -1.0984   -1.1828    1.5871 C   0  0  0  0  0  0  0  0  0  0  0  0
    0.1609   -3.3663   -2.0444 H   0  0  0  0  0  0  0  0  0  0  0  0
    0.1609   -1.5181   -2.0407 H   0  0  0  0  0  0  0  0  0  0  0  0
    0.1609   -3.3959    0.3779 H   0  0  0  0  0  0  0  0  0  0  0  0
    0.1609   -0.1668   -0.0610 H   0  0  0  0  0  0  0  0  0  0  0  0
    2.3217   -1.1769    0.9729 H   0  0  0  0  0  0  0  0  0  0  0  0
    1.4647   -2.0566    2.2429 H   0  0  0  0  0  0  0  0  0  0  0  0
    1.4277   -0.2916    2.2180 H   0  0  0  0  0  0  0  0  0  0  0  0
   -1.1430   -2.0566    2.2429 H   0  0  0  0  0  0  0  0  0  0  0  0
   -2.0000   -1.1769    0.9729 H   0  0  0  0  0  0  0  0  0  0  0  0
   -1.1060   -0.2916    2.2180 H   0  0  0  0  0  0  0  0  0  0  0  0
  1  2  2  3
  1  6  1  0
  1  7  1  0
  2  3  1  0
  2  8  1  0
  3  4  1  0
  3  9  1  0
  4  5  2  3
  4 10  1  0
  5 11  1  0
  5 12  1  0
 13 14  2  3
 13 18  1  0
 13 19  1  0
 14 15  1  0
 14 20  1  0
 15 16  1  0
 15 17  1  0
 15 21  1  0
 16 22  1  0
 16 23  1  0
 16 24  1  0
 17 25  1  0
 17 26  1  0
 17 27  1  0
M  RAD  1   3   2
M  END
>  <reaction>  (15) 
rxn_1088

>  <mol_properties>  (15) 
{"1": {"label": "*0", "atom_type": "Cd"}, "2": {"label": "*1", "atom_type": "Cs"}, "13": {"label": "*4", "atom_type": "Cd"}, "14": {"label": "*3", "atom_type": "Cs"}, "20": {"label": "*2", "atom_type": "H0"}}

>  <type>  (15) 
unop_11

>  <geom_source>  (15) 
Heuristics

$$$$

     RDKit          3D

 27 25  0  0  0  0  0  0  0  0999 V2000
   -1.1528    0.9935   -2.6161 C   0  0  0  0  0  0  0  0  0  0  0  0
   -0.2239    0.6874   -1.7248 C   0  0  0  0  0  0  0  0  0  0  0  0
   -0.2239    1.1354   -0.2972 C   0  0  0  0  0  3  0  0  0  0  0  0
    0.9425    2.0019    0.0931 C   0  0  0  0  0  0  0  0  0  0  0  0
    1.8162    2.5496   -0.7369 C   0  0  0  0  0  0  0  0  0  0  0  0
   -1.1013    0.6313   -3.6352 H   0  0  0  0  0  0  0  0  0  0  0  0
   -2.0015    1.6177   -2.3575 H   0  0  0  0  0  0  0  0  0  0  0  0
    0.6160    0.0664   -2.0257 H   0  0  0  0  0  0  0  0  0  0  0  0
   -1.1535    1.6694   -0.0736 H   0  0  0  0  0  0  0  0  0  0  0  0
    1.0442    2.1835    1.1595 H   0  0  0  0  0  0  0  0  0  0  0  0
    2.6246    3.1684   -0.3687 H   0  0  0  0  0  0  0  0  0  0  0  0
    1.7517    2.4072   -1.8095 H   0  0  0  0  0  0  0  0  0  0  0  0
   -0.2239   -2.2005   -0.9306 C   0  0  0  0  0  0  0  0  0  0  0  0
   -0.2239   -2.2005    0.3929 C   0  0  0  0  0  0  0  0  0  0  0  0
   -0.2239   -0.9791    1.2650 C   0  0  0  0  0  0  0  0  0  0  0  0
    1.0354   -0.9387    2.1326 C   0  0  0  0  0  0  0  0  0  0  0  0
   -1.4832   -0.9387    2.1326 C   0  0  0  0  0  0  0  0  0  0  0  0
   -0.2239   -3.1222   -1.4988 H   0  0  0  0  0  0  0  0  0  0  0  0
   -0.2239   -1.2740   -1.4951 H   0  0  0  0  0  0  0  0  0  0  0  0
   -0.2239   -3.1518    0.9235 H   0  0  0  0  0  0  0  0  0  0  0  0
   -0.2239    0.0773    0.4845 H   0  0  0  0  0  0  0  0  0  0  0  0
    1.9369   -0.9328    1.5185 H   0  0  0  0  0  0  0  0  0  0  0  0
    1.0800   -1.8125    2.7884 H   0  0  0  0  0  0  0  0  0  0  0  0
    1.0429   -0.0475    2.7636 H   0  0  0  0  0  0  0  0  0  0  0  0
   -1.5278   -1.8125    2.7884 H   0  0  0  0  0  0  0  0  0  0  0  0
   -2.3848   -0.9328    1.5185 H   0  0  0  0  0  0  0  0  0  0  0  0
   -1.4908   -0.0475    2.7636 H   0  0  0  0  0  0  0  0  0  0  0  0
  1  2  2  3
  1  6  1  0
  1  7  1  0
  2  3  1  0
  2  8  1  0
  3  4  1  0
  3  9  1  0
  4  5  2  3
  4 10  1  0
  5 11  1  0
  5 12  1  0
 13 14  2  3
 13 18  1  0
 13 19  1  0
 14 15  1  0
 14 20  1  0
 15 16  1  0
 15 17  1  0
 15 21  1  0
 16 22  1  0
 16 23  1  0
 16 24  1  0
 17 25  1  0
 17 26  1  0
 17 27  1  0
M  RAD  1   3   2
M  END
>  <reaction>  (16) 
rxn_1088

>  <mol_properties>  (16) 
{"1": {"label": "*0", "atom_type": "Cd"}, "2": {"label": "*1", "atom_type": "Cs"}, "13": {"label": "*4", "atom_type": "Cd"}, "14": {"label": "*3", "atom_type": "Cs"}, "20": {"label": "*2", "atom_type": "H0"}}

>  <type>  (16) 
unop_12

>  <geom_source>  (16) 
Heuristics

$$$$

     RDKit          3D

 27 25  0  0  0  0  0  0  0  0999 V2000
   -1.0396    0.1151    0.3178 C   0  0  0  0  0  3  0  0  0  0  0  0
    0.9942   -1.7438   -0.4823 C   0  0  0  0  0  0  0  0  0  0  0  0
    2.4152   -0.7214    1.3413 C   0  0  0  0  0  0  0  0  0  0  0  0
    1.5234   -0.4482    0.1310 C   0  0  0  0  0  0  0  0  0  0  0  0
   -1.3923    1.5685    0.4547 C   0  0  0  0  0  0  0  0  0  0  0  0
   -1.8697   -0.5399   -0.7487 C   0  0  0  0  0  0  0  0  0  0  0  0
    2.2539    0.3677   -0.8956 C   0  0  0  0  0  0  0  0  0  0  0  0
   -2.4452    1.9757    1.1694 C   0  0  0  0  0  0  0  0  0  0  0  0
   -3.1122   -0.9704   -0.5121 C   0  0  0  0  0  0  0  0  0  0  0  0
    1.8155    1.5805   -1.2340 C   0  0  0  0  0  0  0  0  0  0  0  0
   -1.1440   -0.4159    1.2896 H   0  0  0  0  0  0  0  0  0  0  0  0
    0.3224    0.0301   -0.0737 H   0  0  0  0  0  0  0  0  0  0  0  0
    0.3211   -1.5102   -1.3344 H   0  0  0  0  0  0  0  0  0  0  0  0
    0.4111   -2.3095    0.2746 H   0  0  0  0  0  0  0  0  0  0  0  0
    1.8318   -2.3785   -0.8443 H   0  0  0  0  0  0  0  0  0  0  0  0
    1.8439   -1.2786    2.1134 H   0  0  0  0  0  0  0  0  0  0  0  0
    2.7523    0.2390    1.7857 H   0  0  0  0  0  0  0  0  0  0  0  0
    3.3056   -1.3180    1.0471 H   0  0  0  0  0  0  0  0  0  0  0  0
   -0.7667    2.3069   -0.0371 H   0  0  0  0  0  0  0  0  0  0  0  0
   -1.4412   -0.6720   -1.7374 H   0  0  0  0  0  0  0  0  0  0  0  0
    3.1471   -0.0322   -1.3675 H   0  0  0  0  0  0  0  0  0  0  0  0
   -3.0833    1.2637    1.6829 H   0  0  0  0  0  0  0  0  0  0  0  0
   -2.6699    3.0343    1.2488 H   0  0  0  0  0  0  0  0  0  0  0  0
   -3.6833   -1.4413   -1.3056 H   0  0  0  0  0  0  0  0  0  0  0  0
   -3.5651   -0.8642    0.4685 H   0  0  0  0  0  0  0  0  0  0  0  0
    2.3499    2.1633   -1.9772 H   0  0  0  0  0  0  0  0  0  0  0  0
    0.9250    1.9995   -0.7750 H   0  0  0  0  0  0  0  0  0  0  0  0
  1  5  1  0
  1  6  1  0
  1 11  1  0
  2  4  1  0
  2 13  1  0
  2 14  1  0
  2 15  1  0
  3  4  1  0
  3 16  1  0
  3 17  1  0
  3 18  1  0
  4  7  1  0
  4 12  1  0
  5  8  2  3
  5 19  1  0
  6  9  2  3
  6 20  1  0
  7 10  2  3
  7 21  1  0
  8 22  1  0
  8 23  1  0
  9 24  1  0
  9 25  1  0
 10 26  1  0
 10 27  1  0
M  RAD  1   1   2
M  END
>  <reaction>  (17) 
rxn_1088

>  <mol_properties>  (17) 
{"1": {"label": "*0", "atom_type": "Cd"}, "2": {"label": "*1", "atom_type": "Cs"}, "13": {"label": "*4", "atom_type": "Cd"}, "14": {"label": "*3", "atom_type": "Cs"}, "20": {"label": "*2", "atom_type": "H0"}}

>  <type>  (17) 
unop_13

>  <geom_source>  (17) 
AutoTST

$$$$

     RDKit          3D

 27 25  0  0  0  0  0  0  0  0999 V2000
   -1.9566    1.1376   -1.8282 C   0  0  0  0  0  0  0  0  0  0  0  0
   -0.7222    0.7691   -1.5256 C   0  0  0  0  0  0  0  0  0  0  0  0
   -0.0150    1.1045   -0.2504 C   0  0  0  0  0  3  0  0  0  0  0  0
    1.2214    1.9458   -0.4160 C   0  0  0  0  0  0  0  0  0  0  0  0
    1.5996    2.5623   -1.5246 C   0  0  0  0  0  0  0  0  0  0  0  0
   -2.4178    0.8562   -2.7666 H   0  0  0  0  0  0  0  0  0  0  0  0
   -2.5526    1.7341   -1.1458 H   0  0  0  0  0  0  0  0  0  0  0  0
   -0.1543    0.1791   -2.2404 H   0  0  0  0  0  0  0  0  0  0  0  0
   -0.7016    1.6133    0.4345 H   0  0  0  0  0  0  0  0  0  0  0  0
    1.8336    2.0444    0.4762 H   0  0  0  0  0  0  0  0  0  0  0  0
    2.5045    3.1558   -1.5530 H   0  0  0  0  0  0  0  0  0  0  0  0
    1.0180    2.5035   -2.4375 H   0  0  0  0  0  0  0  0  0  0  0  0
   -0.0150   -2.2314   -0.8838 C   0  0  0  0  0  0  0  0  0  0  0  0
   -0.0150   -2.2314    0.4397 C   0  0  0  0  0  0  0  0  0  0  0  0
   -0.0150   -1.0100    1.3117 C   0  0  0  0  0  0  0  0  0  0  0  0
    1.2443   -0.9696    2.1794 C   0  0  0  0  0  0  0  0  0  0  0  0
   -1.2743   -0.9696    2.1794 C   0  0  0  0  0  0  0  0  0  0  0  0
   -0.0150   -3.1531   -1.4521 H   0  0  0  0  0  0  0  0  0  0  0  0
   -0.0150   -1.3048   -1.4484 H   0  0  0  0  0  0  0  0  0  0  0  0
   -0.0150   -3.1827    0.9702 H   0  0  0  0  0  0  0  0  0  0  0  0
   -0.0150    0.0464    0.5313 H   0  0  0  0  0  0  0  0  0  0  0  0
    2.1458   -0.9637    1.5652 H   0  0  0  0  0  0  0  0  0  0  0  0
    1.2889   -1.8434    2.8352 H   0  0  0  0  0  0  0  0  0  0  0  0
    1.2518   -0.0784    2.8104 H   0  0  0  0  0  0  0  0  0  0  0  0
   -1.3189   -1.8434    2.8352 H   0  0  0  0  0  0  0  0  0  0  0  0
   -2.1759   -0.9637    1.5652 H   0  0  0  0  0  0  0  0  0  0  0  0
   -1.2818   -0.0784    2.8104 H   0  0  0  0  0  0  0  0  0  0  0  0
  1  2  2  3
  1  6  1  0
  1  7  1  0
  2  3  1  0
  2  8  1  0
  3  4  1  0
  3  9  1  0
  4  5  2  3
  4 10  1  0
  5 11  1  0
  5 12  1  0
 13 14  2  3
 13 18  1  0
 13 19  1  0
 14 15  1  0
 14 20  1  0
 15 16  1  0
 15 17  1  0
 15 21  1  0
 16 22  1  0
 16 23  1  0
 16 24  1  0
 17 25  1  0
 17 26  1  0
 17 27  1  0
M  RAD  1   3   2
M  END
>  <reaction>  (18) 
rxn_1088

>  <mol_properties>  (18) 
{"1": {"label": "*0", "atom_type": "Cd"}, "2": {"label": "*1", "atom_type": "Cs"}, "13": {"label": "*4", "atom_type": "Cd"}, "14": {"label": "*3", "atom_type": "Cs"}, "20": {"label": "*2", "atom_type": "H0"}}

>  <type>  (18) 
unop_14

>  <geom_source>  (18) 
gaussian_log

$$$$
