
     RDKit          3D

 11 10  0  0  0  0  0  0  0  0999 V2000
   -1.2710    0.1907   -0.2084 C   0  0  0  0  0  0  0  0  0  0  0  0
    0.0202   -0.6130   -0.2928 C   0  0  0  0  0  0  0  0  0  0  0  0
    0.1086   -1.6953    0.7756 C   0  0  0  0  0  0  0  0  0  0  0  0
   -1.3607    0.6851    0.7620 H   0  0  0  0  0  0  0  0  0  0  0  0
   -2.1429   -0.4567   -0.3299 H   0  0  0  0  0  0  0  0  0  0  0  0
   -1.3158    0.9602   -0.9809 H   0  0  0  0  0  0  0  0  0  0  0  0
    0.8757    0.0616   -0.1992 H   0  0  0  0  0  0  0  0  0  0  0  0
    0.0997   -1.0712   -1.2825 H   0  0  0  0  0  0  0  0  0  0  0  0
   -0.7198   -2.4022    0.6850 H   0  0  0  0  0  0  0  0  0  0  0  0
    1.0395   -2.2596    0.6989 H   0  0  0  0  0  0  0  0  0  0  0  0
    0.0624   -1.2603    1.7770 H   0  0  0  0  0  0  0  0  0  0  0  0
  1  2  1  0
  1  4  1  0
  1  5  1  0
  1  6  1  0
  2  3  1  0
  2  7  1  0
  2  8  1  0
  3  9  1  0
  3 10  1  0
  3 11  1  0
M  END
>  <reaction>  (1) 
rxn_909

>  <mol_properties>  (1) 
{"1": {"label": "donator", "atom_type": "Cs"}, "6": {"label": "d_hydrogen", "atom_type": "H0"}}

>  <type>  (1) 
r1h

$$$$

     RDKit          3D

  1  0  0  0  0  0  0  0  0  0999 V2000
    0.0000    0.0000    0.0000 H   0  0  0  0  0 15  0  0  0  0  0  0
M  END
>  <reaction>  (2) 
rxn_909

>  <mol_properties>  (2) 
{"0": {"label": "acceptor", "atom_type": "H0"}}

>  <type>  (2) 
r2

$$$$

     RDKit          3D

  2  1  0  0  0  0  0  0  0  0999 V2000
    0.0000    0.0000    0.3721 H   0  0  0  0  0  0  0  0  0  0  0  0
    0.0000    0.0000   -0.3721 H   0  0  0  0  0  0  0  0  0  0  0  0
  1  2  1  0
M  END
>  <reaction>  (3) 
rxn_909

>  <mol_properties>  (3) 
{"0": {"label": "acceptor", "atom_type": "H0"}, "1": {"label": "a_hydrogen", "atom_type": "H0"}}

>  <type>  (3) 
r2h

$$$$

     RDKit          3D

 12 10  0  0  0  0  0  0  0  0999 V2000
    1.7509   -1.4848    0.9893 H   0  0  0  0  0 15  0  0  0  0  0  0
   -0.0404   -0.4565   -1.2322 C   0  0  0  0  0  0  0  0  0  0  0  0
   -0.1171   -0.4075    0.2715 C   0  0  0  0  0  0  0  0  0  0  0  0
   -0.0404    0.9613    0.8958 C   0  0  0  0  0  0  0  0  0  0  0  0
    0.8572    0.0498   -1.5942 H   0  0  0  0  0  0  0  0  0  0  0  0
   -0.9045    0.0446   -1.6804 H   0  0  0  0  0  0  0  0  0  0  0  0
   -0.0232   -1.4834   -1.5994 H   0  0  0  0  0  0  0  0  0  0  0  0
    0.9283   -1.0398    0.6927 H   0  0  0  0  0  0  0  0  0  0  0  0
   -0.9219   -1.0199    0.6795 H   0  0  0  0  0  0  0  0  0  0  0  0
   -0.9045    1.5679    0.6061 H   0  0  0  0  0  0  0  0  0  0  0  0
   -0.0232    0.9046    1.9850 H   0  0  0  0  0  0  0  0  0  0  0  0
    0.8572    1.4904    0.5680 H   0  0  0  0  0  0  0  0  0  0  0  0
  2  3  1  0
  2  5  1  0
  2  6  1  0
  2  7  1  0
  3  4  1  0
  3  8  1  0
  3  9  1  0
  4 10  1  0
  4 11  1  0
  4 12  1  0
M  END
>  <reaction>  (4) 
rxn_909

>  <mol_properties>  (4) 
{"0": {"label": "*1", "atom_type": "H0"}, "1": {"label": "*4", "atom_type": "Cs"}, "2": {"label": "*3", "atom_type": "Cs"}, "7": {"label": "*2", "atom_type": "H0"}}

>  <type>  (4) 
ts

$$$$

     RDKit          3D

 12 10  0  0  0  0  0  0  0  0999 V2000
    1.7202   -1.5437    1.0285 H   0  0  0  0  0 15  0  0  0  0  0  0
   -0.0433   -0.4419   -1.2289 C   0  0  0  0  0  0  0  0  0  0  0  0
   -0.0433   -0.4419    0.2944 C   0  0  0  0  0  0  0  0  0  0  0  0
   -0.0433    0.9639    0.8811 C   0  0  0  0  0  0  0  0  0  0  0  0
    0.8381    0.0724   -1.6195 H   0  0  0  0  0  0  0  0  0  0  0  0
   -0.9248    0.0724   -1.6195 H   0  0  0  0  0  0  0  0  0  0  0  0
   -0.0433   -1.4568   -1.6301 H   0  0  0  0  0  0  0  0  0  0  0  0
    1.0061   -1.0975    0.7312 H   0  0  0  0  0  0  0  0  0  0  0  0
   -0.9179   -0.9883    0.6584 H   0  0  0  0  0  0  0  0  0  0  0  0
   -0.9248    1.5225    0.5570 H   0  0  0  0  0  0  0  0  0  0  0  0
   -0.0433    0.9432    1.9722 H   0  0  0  0  0  0  0  0  0  0  0  0
    0.8381    1.5225    0.5570 H   0  0  0  0  0  0  0  0  0  0  0  0
  2  3  1  0
  2  5  1  0
  2  6  1  0
  2  7  1  0
  3  4  1  0
  3  8  1  0
  3  9  1  0
  4 10  1  0
  4 11  1  0
  4 12  1  0
M  END
>  <reaction>  (5) 
rxn_909

>  <mol_properties>  (5) 
{"0": {"label": "*1", "atom_type": "H0"}, "1": {"label": "*4", "atom_type": "Cs"}, "2": {"label": "*3", "atom_type": "Cs"}, "7": {"label": "*2", "atom_type": "H0"}}

>  <type>  (5) 
unop_1

>  <geom_source>  (5) 
Heuristics

$$$$

     RDKit          3D

 12 10  0  0  0  0  0  0  0  0999 V2000
    1.1436   -0.6175   -0.2771 C   0  0  0  0  0  0  0  0  0  0  0  0
   -1.2446   -0.1006    0.3442 C   0  0  0  0  0  0  0  0  0  0  0  0
   -0.0196    0.3532   -0.4400 C   0  0  0  0  0  0  0  0  0  0  0  0
    0.8662   -1.6217   -0.6628 H   0  0  0  0  0  0  0  0  0  0  0  0
    1.4280   -0.6973    0.7934 H   0  0  0  0  0  0  0  0  0  0  0  0
    2.0174   -0.2420   -0.8489 H   0  0  0  0  0  0  0  0  0  0  0  0
   -1.0020   -0.1713    1.4255 H   0  0  0  0  0  0  0  0  0  0  0  0
   -2.0600    0.6405    0.2117 H   0  0  0  0  0  0  0  0  0  0  0  0
   -1.5943   -1.0891   -0.0226 H   0  0  0  0  0  0  0  0  0  0  0  0
   -0.2770    0.4568   -1.5161 H   0  0  0  0  0  0  0  0  0  0  0  0
    0.6405    1.8699    0.9828 H   0  0  0  0  0 15  0  0  0  0  0  0
    0.1018    1.2191    0.0099 H   0  0  0  0  0  0  0  0  0  0  0  0
  1  3  1  0
  1  4  1  0
  1  5  1  0
  1  6  1  0
  2  3  1  0
  2  7  1  0
  2  8  1  0
  2  9  1  0
  3 10  1  0
  3 12  1  0
M  END
>  <reaction>  (6) 
rxn_909

>  <mol_properties>  (6) 
{"0": {"label": "*1", "atom_type": "H0"}, "1": {"label": "*4", "atom_type": "Cs"}, "2": {"label": "*3", "atom_type": "Cs"}, "7": {"label": "*2", "atom_type": "H0"}}

>  <type>  (6) 
unop_2

>  <geom_source>  (6) 
AutoTST

$$$$
