
     RDKit          3D

  9  8  0  0  0  0  0  0  0  0999 V2000
    1.1303   -0.2933   -0.7510 C   0  0  0  0  0  0  0  0  0  0  0  0
    0.2866    0.4560   -0.0588 C   0  0  0  0  0  0  0  0  0  0  0  0
   -0.9719   -0.0331    0.5823 C   0  0  0  0  0  0  0  0  0  0  0  0
    2.0274    0.1230   -1.1916 H   0  0  0  0  0  0  0  0  0  0  0  0
    0.9532   -1.3530   -0.9023 H   0  0  0  0  0  0  0  0  0  0  0  0
    0.5065    1.5132    0.0659 H   0  0  0  0  0  0  0  0  0  0  0  0
   -0.9526    0.1426    1.6610 H   0  0  0  0  0  0  0  0  0  0  0  0
   -1.1182   -1.1002    0.4106 H   0  0  0  0  0  0  0  0  0  0  0  0
   -1.8412    0.5010    0.1901 H   0  0  0  0  0  0  0  0  0  0  0  0
  1  2  2  3
  1  4  1  0
  1  5  1  0
  2  3  1  0
  2  6  1  0
  3  7  1  0
  3  8  1  0
  3  9  1  0
M  END
>  <reaction>  (1) 
rxn_1631

>  <mol_properties>  (1) 
{"1": {"label": "donator", "atom_type": "Cd"}, "5": {"label": "d_hydrogen", "atom_type": "H0"}}

>  <type>  (1) 
r1h

$$$$

     RDKit          3D

  7  6  0  0  0  0  0  0  0  0999 V2000
   -1.3496    0.0255    0.0758 C   0  0  0  0  0  0  0  0  0  0  0  0
   -0.0636   -0.0704   -0.0033 C   0  0  0  0  0  0  0  0  0  0  0  0
    1.2597   -0.1602   -0.0839 C   0  0  0  0  0  0  0  0  0  0  0  0
    2.2616    1.2090   -0.0064 S   0  0  0  0  0  1  0  0  0  0  0  0
   -1.8547   -0.0180    1.0345 H   0  0  0  0  0  0  0  0  0  0  0  0
   -1.9552    0.1601   -0.8138 H   0  0  0  0  0  0  0  0  0  0  0  0
    1.7017   -1.1460   -0.2029 H   0  0  0  0  0  0  0  0  0  0  0  0
  1  2  2  0
  1  5  1  0
  1  6  1  0
  2  3  2  0
  3  4  1  0
  3  7  1  0
M  RAD  1   4   2
M  END
>  <reaction>  (2) 
rxn_1631

>  <mol_properties>  (2) 
{"1": {"label": "acceptor", "atom_type": "Cd"}}

>  <type>  (2) 
r2

$$$$

     RDKit          3D

  8  7  0  0  0  0  0  0  0  0999 V2000
   -1.1617    0.0338    0.5053 C   0  0  0  0  0  0  0  0  0  0  0  0
   -0.1023    0.4503   -0.1863 C   0  0  0  0  0  0  0  0  0  0  0  0
    1.0978   -0.3557   -0.3104 C   0  0  0  0  0  0  0  0  0  0  0  0
    2.4251    0.0667   -1.1256 S   0  0  0  0  0  0  0  0  0  0  0  0
   -1.1653   -0.9292    1.0039 H   0  0  0  0  0  0  0  0  0  0  0  0
   -2.0546    0.6389    0.5948 H   0  0  0  0  0  0  0  0  0  0  0  0
   -0.0991    1.4132   -0.6847 H   0  0  0  0  0  0  0  0  0  0  0  0
    1.0601   -1.3180    0.2032 H   0  0  0  0  0  0  0  0  0  0  0  0
  1  2  2  3
  1  5  1  0
  1  6  1  0
  2  3  1  0
  2  7  1  0
  3  4  2  0
  3  8  1  0
M  END
>  <reaction>  (3) 
rxn_1631

>  <mol_properties>  (3) 
{"1": {"label": "acceptor", "atom_type": "Cd"}, "7": {"label": "a_hydrogen", "atom_type": "H0"}}

>  <type>  (3) 
r2h

$$$$

     RDKit          3D

 16 14  0  0  0  0  0  0  0  0999 V2000
   -1.7405   -1.4791    0.9248 C   0  0  0  0  0  0  0  0  0  0  0  0
   -0.6230   -0.7809    0.7962 C   0  0  0  0  0  0  0  0  0  0  0  0
    0.6631   -1.1120    1.3524 C   0  0  0  0  0  0  0  0  0  0  0  0
    1.9888   -0.1900    1.3111 S   0  0  0  0  0  1  0  0  0  0  0  0
   -1.7720   -2.4054    1.4955 H   0  0  0  0  0  0  0  0  0  0  0  0
   -2.6683   -1.1488    0.4710 H   0  0  0  0  0  0  0  0  0  0  0  0
    0.7073   -2.0908    1.8410 H   0  0  0  0  0  0  0  0  0  0  0  0
   -1.3350    1.1548   -1.8959 C   0  0  0  0  0  0  0  0  0  0  0  0
   -0.8353    1.4047   -0.7051 C   0  0  0  0  0  0  0  0  0  0  0  0
   -0.4108    2.6734   -0.0681 C   0  0  0  0  0  0  0  0  0  0  0  0
   -1.5816    0.1464   -2.2081 H   0  0  0  0  0  0  0  0  0  0  0  0
   -1.5109    1.9516   -2.6149 H   0  0  0  0  0  0  0  0  0  0  0  0
   -0.6865    0.3712    0.0491 H   0  0  0  0  0  0  0  0  0  0  0  0
   -0.9797    2.8577    0.8461 H   0  0  0  0  0  0  0  0  0  0  0  0
   -0.5566    3.5194   -0.7449 H   0  0  0  0  0  0  0  0  0  0  0  0
    0.6430    2.6199    0.2125 H   0  0  0  0  0  0  0  0  0  0  0  0
  1  2  2  0
  1  5  1  0
  1  6  1  0
  2  3  2  0
  3  4  1  0
  3  7  1  0
  8  9  2  3
  8 11  1  0
  8 12  1  0
  9 10  1  0
  9 13  1  0
 10 14  1  0
 10 15  1  0
 10 16  1  0
M  RAD  1   4   2
M  END
>  <reaction>  (4) 
rxn_1631

>  <mol_properties>  (4) 
{"1": {"label": "*3", "atom_type": "Cdd"}, "2": {"label": "*4", "atom_type": "Cd"}, "7": {"label": "*0", "atom_type": "Cd"}, "8": {"label": "*1", "atom_type": "Cd"}, "12": {"label": "*2", "atom_type": "H0"}}

>  <type>  (4) 
ts

$$$$

     RDKit          3D

 16 14  0  0  0  0  0  0  0  0999 V2000
    1.7686   -1.3196    1.3568 C   0  0  0  0  0  0  0  0  0  0  0  0
    0.7824   -0.9882    0.5250 C   0  0  0  0  0  0  0  0  0  0  0  0
   -0.6125   -1.1869    0.8715 C   0  0  0  0  0  0  0  0  0  0  0  0
   -1.8696   -0.8164   -0.0703 S   0  0  0  0  0  0  0  0  0  0  0  0
    1.5629   -1.7527    2.3294 H   0  0  0  0  0  0  0  0  0  0  0  0
    2.8075   -1.1693    1.0935 H   0  0  0  0  0  0  0  0  0  0  0  0
   -0.7834   -1.6244    1.8568 H   0  0  0  0  0  0  0  0  0  0  0  0
    0.7824    1.2952   -2.0536 C   0  0  0  0  0  0  0  0  0  0  0  0
    0.7824    1.2952   -0.7298 C   0  0  0  0  0  3  0  0  0  0  0  0
    0.7824    2.5174    0.1307 C   0  0  0  0  0  0  0  0  0  0  0  0
    0.7824    0.3725   -2.6200 H   0  0  0  0  0  0  0  0  0  0  0  0
    0.7824    2.2208   -2.6196 H   0  0  0  0  0  0  0  0  0  0  0  0
    0.7824    0.1520   -0.1016 H   0  0  0  0  0  0  0  0  0  0  0  0
   -0.0953    2.5345    0.7819 H   0  0  0  0  0  0  0  0  0  0  0  0
    0.7824    3.4278   -0.4699 H   0  0  0  0  0  0  0  0  0  0  0  0
    1.6601    2.5345    0.7819 H   0  0  0  0  0  0  0  0  0  0  0  0
  1  2  2  3
  1  5  1  0
  1  6  1  0
  2  3  1  0
  2 13  1  0
  3  4  2  0
  3  7  1  0
  8  9  2  3
  8 11  1  0
  8 12  1  0
  9 10  1  0
 10 14  1  0
 10 15  1  0
 10 16  1  0
M  RAD  1   9   2
M  END
>  <reaction>  (5) 
rxn_1631

>  <mol_properties>  (5) 
{"1": {"label": "*3", "atom_type": "Cdd"}, "2": {"label": "*4", "atom_type": "Cd"}, "7": {"label": "*0", "atom_type": "Cd"}, "8": {"label": "*1", "atom_type": "Cd"}, "12": {"label": "*2", "atom_type": "H0"}}

>  <type>  (5) 
unop_1

>  <geom_source>  (5) 
Heuristics

$$$$

     RDKit          3D

 16 14  0  0  0  0  0  0  0  0999 V2000
    0.8084   -2.3332   -0.7215 C   0  0  0  0  0  0  0  0  0  0  0  0
    0.2391   -1.2527   -0.1900 C   0  0  0  0  0  0  0  0  0  0  0  0
   -0.0678   -1.1651    1.2254 C   0  0  0  0  0  0  0  0  0  0  0  0
   -0.7548    0.1002    1.9546 S   0  0  0  0  0  0  0  0  0  0  0  0
    1.0648   -3.1921   -0.1112 H   0  0  0  0  0  0  0  0  0  0  0  0
    1.0353   -2.3935   -1.7780 H   0  0  0  0  0  0  0  0  0  0  0  0
    0.2033   -2.0464    1.8097 H   0  0  0  0  0  0  0  0  0  0  0  0
    0.2391    1.0307   -2.7686 C   0  0  0  0  0  0  0  0  0  0  0  0
    0.2391    1.0307   -1.4449 C   0  0  0  0  0  3  0  0  0  0  0  0
    0.2391    2.2529   -0.5844 C   0  0  0  0  0  0  0  0  0  0  0  0
    0.2391    0.1080   -3.3351 H   0  0  0  0  0  0  0  0  0  0  0  0
    0.2391    1.9563   -3.3346 H   0  0  0  0  0  0  0  0  0  0  0  0
    0.2391   -0.1125   -0.8167 H   0  0  0  0  0  0  0  0  0  0  0  0
   -0.6386    2.2700    0.0669 H   0  0  0  0  0  0  0  0  0  0  0  0
    0.2391    3.1633   -1.1850 H   0  0  0  0  0  0  0  0  0  0  0  0
    1.1168    2.2700    0.0669 H   0  0  0  0  0  0  0  0  0  0  0  0
  1  2  2  3
  1  5  1  0
  1  6  1  0
  2  3  1  0
  2 13  1  0
  3  4  2  0
  3  7  1  0
  8  9  2  3
  8 11  1  0
  8 12  1  0
  9 10  1  0
 10 14  1  0
 10 15  1  0
 10 16  1  0
M  RAD  1   9   2
M  END
>  <reaction>  (6) 
rxn_1631

>  <mol_properties>  (6) 
{"1": {"label": "*3", "atom_type": "Cdd"}, "2": {"label": "*4", "atom_type": "Cd"}, "7": {"label": "*0", "atom_type": "Cd"}, "8": {"label": "*1", "atom_type": "Cd"}, "12": {"label": "*2", "atom_type": "H0"}}

>  <type>  (6) 
unop_2

>  <geom_source>  (6) 
Heuristics

$$$$

     RDKit          3D

 16 14  0  0  0  0  0  0  0  0999 V2000
    1.2002   -0.8687    2.0871 C   0  0  0  0  0  0  0  0  0  0  0  0
    0.6308   -0.7380    0.8901 C   0  0  0  0  0  0  0  0  0  0  0  0
   -0.5944   -1.4338    0.5435 C   0  0  0  0  0  0  0  0  0  0  0  0
   -1.3528   -1.3358   -0.8777 S   0  0  0  0  0  0  0  0  0  0  0  0
    0.7655   -1.5041    2.8508 H   0  0  0  0  0  0  0  0  0  0  0  0
    2.1141   -0.3474    2.3407 H   0  0  0  0  0  0  0  0  0  0  0  0
   -1.0043   -2.0642    1.3346 H   0  0  0  0  0  0  0  0  0  0  0  0
    0.6308    1.5454   -1.6885 C   0  0  0  0  0  0  0  0  0  0  0  0
    0.6308    1.5454   -0.3648 C   0  0  0  0  0  3  0  0  0  0  0  0
    0.6308    2.7676    0.4958 C   0  0  0  0  0  0  0  0  0  0  0  0
    0.6308    0.6226   -2.2550 H   0  0  0  0  0  0  0  0  0  0  0  0
    0.6308    2.4710   -2.2545 H   0  0  0  0  0  0  0  0  0  0  0  0
    0.6308    0.4022    0.2635 H   0  0  0  0  0  0  0  0  0  0  0  0
   -0.2469    2.7847    1.1470 H   0  0  0  0  0  0  0  0  0  0  0  0
    0.6308    3.6780   -0.1048 H   0  0  0  0  0  0  0  0  0  0  0  0
    1.5085    2.7847    1.1470 H   0  0  0  0  0  0  0  0  0  0  0  0
  1  2  2  3
  1  5  1  0
  1  6  1  0
  2  3  1  0
  2 13  1  0
  3  4  2  0
  3  7  1  0
  8  9  2  3
  8 11  1  0
  8 12  1  0
  9 10  1  0
 10 14  1  0
 10 15  1  0
 10 16  1  0
M  RAD  1   9   2
M  END
>  <reaction>  (7) 
rxn_1631

>  <mol_properties>  (7) 
{"1": {"label": "*3", "atom_type": "Cdd"}, "2": {"label": "*4", "atom_type": "Cd"}, "7": {"label": "*0", "atom_type": "Cd"}, "8": {"label": "*1", "atom_type": "Cd"}, "12": {"label": "*2", "atom_type": "H0"}}

>  <type>  (7) 
unop_3

>  <geom_source>  (7) 
Heuristics

$$$$

     RDKit          3D

 16 14  0  0  0  0  0  0  0  0999 V2000
   -1.4751   -2.1127   -0.2206 C   0  0  0  0  0  0  0  0  0  0  0  0
   -0.4890   -1.2330   -0.0544 C   0  0  0  0  0  0  0  0  0  0  0  0
    0.2180   -1.1023    1.2059 C   0  0  0  0  0  0  0  0  0  0  0  0
    1.4216   -0.0674    1.4975 S   0  0  0  0  0  0  0  0  0  0  0  0
   -1.7871   -2.7674    0.5856 H   0  0  0  0  0  0  0  0  0  0  0  0
   -1.9993   -2.2062   -1.1629 H   0  0  0  0  0  0  0  0  0  0  0  0
   -0.1212   -1.7758    1.9950 H   0  0  0  0  0  0  0  0  0  0  0  0
   -0.4890    1.0505   -2.6330 C   0  0  0  0  0  0  0  0  0  0  0  0
   -0.4890    1.0505   -1.3093 C   0  0  0  0  0  3  0  0  0  0  0  0
   -0.4890    2.2726   -0.4488 C   0  0  0  0  0  0  0  0  0  0  0  0
   -0.4890    0.1277   -3.1995 H   0  0  0  0  0  0  0  0  0  0  0  0
   -0.4890    1.9761   -3.1990 H   0  0  0  0  0  0  0  0  0  0  0  0
   -0.4890   -0.0927   -0.6811 H   0  0  0  0  0  0  0  0  0  0  0  0
   -1.3667    2.2898    0.2024 H   0  0  0  0  0  0  0  0  0  0  0  0
   -0.4890    3.1831   -1.0494 H   0  0  0  0  0  0  0  0  0  0  0  0
    0.3887    2.2898    0.2024 H   0  0  0  0  0  0  0  0  0  0  0  0
  1  2  2  3
  1  5  1  0
  1  6  1  0
  2  3  1  0
  2 13  1  0
  3  4  2  0
  3  7  1  0
  8  9  2  3
  8 11  1  0
  8 12  1  0
  9 10  1  0
 10 14  1  0
 10 15  1  0
 10 16  1  0
M  RAD  1   9   2
M  END
>  <reaction>  (8) 
rxn_1631

>  <mol_properties>  (8) 
{"1": {"label": "*3", "atom_type": "Cdd"}, "2": {"label": "*4", "atom_type": "Cd"}, "7": {"label": "*0", "atom_type": "Cd"}, "8": {"label": "*1", "atom_type": "Cd"}, "12": {"label": "*2", "atom_type": "H0"}}

>  <type>  (8) 
unop_4

>  <geom_source>  (8) 
Heuristics

$$$$

     RDKit          3D

 16 14  0  0  0  0  0  0  0  0999 V2000
   -0.0000   -0.5672    2.4478 C   0  0  0  0  0  0  0  0  0  0  0  0
   -0.0000   -0.5100    1.1171 C   0  0  0  0  0  0  0  0  0  0  0  0
    0.0000   -1.7077    0.2979 C   0  0  0  0  0  0  0  0  0  0  0  0
    0.0000   -1.7343   -1.3158 S   0  0  0  0  0  0  0  0  0  0  0  0
   -0.0000   -1.5173    2.9704 H   0  0  0  0  0  0  0  0  0  0  0  0
   -0.0000    0.3293    3.0542 H   0  0  0  0  0  0  0  0  0  0  0  0
    0.0000   -2.6458    0.8558 H   0  0  0  0  0  0  0  0  0  0  0  0
   -0.0000    1.7734   -1.4615 C   0  0  0  0  0  0  0  0  0  0  0  0
   -0.0000    1.7734   -0.1378 C   0  0  0  0  0  3  0  0  0  0  0  0
   -0.0000    2.9956    0.7227 C   0  0  0  0  0  0  0  0  0  0  0  0
   -0.0000    0.8507   -2.0280 H   0  0  0  0  0  0  0  0  0  0  0  0
    0.0000    2.6990   -2.0276 H   0  0  0  0  0  0  0  0  0  0  0  0
   -0.0000    0.6303    0.4904 H   0  0  0  0  0  0  0  0  0  0  0  0
   -0.8777    3.0127    1.3739 H   0  0  0  0  0  0  0  0  0  0  0  0
    0.0000    3.9060    0.1221 H   0  0  0  0  0  0  0  0  0  0  0  0
    0.8777    3.0127    1.3739 H   0  0  0  0  0  0  0  0  0  0  0  0
  1  2  2  3
  1  5  1  0
  1  6  1  0
  2  3  1  0
  2 13  1  0
  3  4  2  0
  3  7  1  0
  8  9  2  3
  8 11  1  0
  8 12  1  0
  9 10  1  0
 10 14  1  0
 10 15  1  0
 10 16  1  0
M  RAD  1   9   2
M  END
>  <reaction>  (9) 
rxn_1631

>  <mol_properties>  (9) 
{"1": {"label": "*3", "atom_type": "Cdd"}, "2": {"label": "*4", "atom_type": "Cd"}, "7": {"label": "*0", "atom_type": "Cd"}, "8": {"label": "*1", "atom_type": "Cd"}, "12": {"label": "*2", "atom_type": "H0"}}

>  <type>  (9) 
unop_5

>  <geom_source>  (9) 
Heuristics

$$$$

     RDKit          3D

 16 14  0  0  0  0  0  0  0  0999 V2000
   -1.8375   -1.7559    0.5238 C   0  0  0  0  0  0  0  0  0  0  0  0
   -0.6988   -1.1503    0.1910 C   0  0  0  0  0  0  0  0  0  0  0  0
    0.4321   -1.0913    1.0982 C   0  0  0  0  0  0  0  0  0  0  0  0
    1.8464   -0.3813    0.7812 S   0  0  0  0  0  0  0  0  0  0  0  0
   -1.9611   -2.2297    1.4913 H   0  0  0  0  0  0  0  0  0  0  0  0
   -2.6781   -1.7971   -0.1566 H   0  0  0  0  0  0  0  0  0  0  0  0
    0.2736   -1.5778    2.0624 H   0  0  0  0  0  0  0  0  0  0  0  0
   -0.6988    1.1331   -2.3876 C   0  0  0  0  0  0  0  0  0  0  0  0
   -0.6988    1.1331   -1.0638 C   0  0  0  0  0  3  0  0  0  0  0  0
   -0.6988    2.3553   -0.2033 C   0  0  0  0  0  0  0  0  0  0  0  0
   -0.6988    0.2104   -2.9541 H   0  0  0  0  0  0  0  0  0  0  0  0
   -0.6988    2.0587   -2.9536 H   0  0  0  0  0  0  0  0  0  0  0  0
   -0.6988   -0.0100   -0.4356 H   0  0  0  0  0  0  0  0  0  0  0  0
   -1.5765    2.3724    0.4479 H   0  0  0  0  0  0  0  0  0  0  0  0
   -0.6988    3.2658   -0.8039 H   0  0  0  0  0  0  0  0  0  0  0  0
    0.1789    2.3724    0.4479 H   0  0  0  0  0  0  0  0  0  0  0  0
  1  2  2  3
  1  5  1  0
  1  6  1  0
  2  3  1  0
  2 13  1  0
  3  4  2  0
  3  7  1  0
  8  9  2  3
  8 11  1  0
  8 12  1  0
  9 10  1  0
 10 14  1  0
 10 15  1  0
 10 16  1  0
M  RAD  1   9   2
M  END
>  <reaction>  (10) 
rxn_1631

>  <mol_properties>  (10) 
{"1": {"label": "*3", "atom_type": "Cdd"}, "2": {"label": "*4", "atom_type": "Cd"}, "7": {"label": "*0", "atom_type": "Cd"}, "8": {"label": "*1", "atom_type": "Cd"}, "12": {"label": "*2", "atom_type": "H0"}}

>  <type>  (10) 
unop_6

>  <geom_source>  (10) 
Heuristics

$$$$

     RDKit          3D

 16 14  0  0  0  0  0  0  0  0999 V2000
   -1.7686   -1.3196    1.3568 C   0  0  0  0  0  0  0  0  0  0  0  0
   -0.7824   -0.9882    0.5250 C   0  0  0  0  0  0  0  0  0  0  0  0
    0.6125   -1.1869    0.8715 C   0  0  0  0  0  0  0  0  0  0  0  0
    1.8696   -0.8164   -0.0703 S   0  0  0  0  0  0  0  0  0  0  0  0
   -1.5629   -1.7527    2.3294 H   0  0  0  0  0  0  0  0  0  0  0  0
   -2.8075   -1.1693    1.0935 H   0  0  0  0  0  0  0  0  0  0  0  0
    0.7834   -1.6244    1.8568 H   0  0  0  0  0  0  0  0  0  0  0  0
   -0.7824    1.2952   -2.0536 C   0  0  0  0  0  0  0  0  0  0  0  0
   -0.7824    1.2952   -0.7298 C   0  0  0  0  0  3  0  0  0  0  0  0
   -0.7824    2.5174    0.1307 C   0  0  0  0  0  0  0  0  0  0  0  0
   -0.7824    0.3725   -2.6201 H   0  0  0  0  0  0  0  0  0  0  0  0
   -0.7824    2.2208   -2.6196 H   0  0  0  0  0  0  0  0  0  0  0  0
   -0.7824    0.1520   -0.1016 H   0  0  0  0  0  0  0  0  0  0  0  0
   -1.6601    2.5345    0.7819 H   0  0  0  0  0  0  0  0  0  0  0  0
   -0.7824    3.4278   -0.4699 H   0  0  0  0  0  0  0  0  0  0  0  0
    0.0953    2.5345    0.7819 H   0  0  0  0  0  0  0  0  0  0  0  0
  1  2  2  3
  1  5  1  0
  1  6  1  0
  2  3  1  0
  2 13  1  0
  3  4  2  0
  3  7  1  0
  8  9  2  3
  8 11  1  0
  8 12  1  0
  9 10  1  0
 10 14  1  0
 10 15  1  0
 10 16  1  0
M  RAD  1   9   2
M  END
>  <reaction>  (11) 
rxn_1631

>  <mol_properties>  (11) 
{"1": {"label": "*3", "atom_type": "Cdd"}, "2": {"label": "*4", "atom_type": "Cd"}, "7": {"label": "*0", "atom_type": "Cd"}, "8": {"label": "*1", "atom_type": "Cd"}, "12": {"label": "*2", "atom_type": "H0"}}

>  <type>  (11) 
unop_7

>  <geom_source>  (11) 
Heuristics

$$$$

     RDKit          3D

 16 14  0  0  0  0  0  0  0  0999 V2000
    1.8375   -1.7559    0.5238 C   0  0  0  0  0  0  0  0  0  0  0  0
    0.6988   -1.1503    0.1910 C   0  0  0  0  0  0  0  0  0  0  0  0
   -0.4321   -1.0913    1.0982 C   0  0  0  0  0  0  0  0  0  0  0  0
   -1.8464   -0.3813    0.7812 S   0  0  0  0  0  0  0  0  0  0  0  0
    1.9611   -2.2297    1.4913 H   0  0  0  0  0  0  0  0  0  0  0  0
    2.6781   -1.7971   -0.1566 H   0  0  0  0  0  0  0  0  0  0  0  0
   -0.2736   -1.5778    2.0624 H   0  0  0  0  0  0  0  0  0  0  0  0
    0.6988    1.1331   -2.3876 C   0  0  0  0  0  0  0  0  0  0  0  0
    0.6988    1.1331   -1.0638 C   0  0  0  0  0  3  0  0  0  0  0  0
    0.6988    2.3553   -0.2033 C   0  0  0  0  0  0  0  0  0  0  0  0
    0.6988    0.2104   -2.9541 H   0  0  0  0  0  0  0  0  0  0  0  0
    0.6988    2.0587   -2.9536 H   0  0  0  0  0  0  0  0  0  0  0  0
    0.6988   -0.0100   -0.4356 H   0  0  0  0  0  0  0  0  0  0  0  0
   -0.1789    2.3724    0.4479 H   0  0  0  0  0  0  0  0  0  0  0  0
    0.6988    3.2658   -0.8039 H   0  0  0  0  0  0  0  0  0  0  0  0
    1.5765    2.3724    0.4479 H   0  0  0  0  0  0  0  0  0  0  0  0
  1  2  2  3
  1  5  1  0
  1  6  1  0
  2  3  1  0
  2 13  1  0
  3  4  2  0
  3  7  1  0
  8  9  2  3
  8 11  1  0
  8 12  1  0
  9 10  1  0
 10 14  1  0
 10 15  1  0
 10 16  1  0
M  RAD  1   9   2
M  END
>  <reaction>  (12) 
rxn_1631

>  <mol_properties>  (12) 
{"1": {"label": "*3", "atom_type": "Cdd"}, "2": {"label": "*4", "atom_type": "Cd"}, "7": {"label": "*0", "atom_type": "Cd"}, "8": {"label": "*1", "atom_type": "Cd"}, "12": {"label": "*2", "atom_type": "H0"}}

>  <type>  (12) 
unop_8

>  <geom_source>  (12) 
Heuristics

$$$$

     RDKit          3D

 16 14  0  0  0  0  0  0  0  0999 V2000
   -0.8084   -2.3332   -0.7215 C   0  0  0  0  0  0  0  0  0  0  0  0
   -0.2391   -1.2527   -0.1900 C   0  0  0  0  0  0  0  0  0  0  0  0
    0.0678   -1.1651    1.2254 C   0  0  0  0  0  0  0  0  0  0  0  0
    0.7548    0.1002    1.9546 S   0  0  0  0  0  0  0  0  0  0  0  0
   -1.0648   -3.1921   -0.1112 H   0  0  0  0  0  0  0  0  0  0  0  0
   -1.0353   -2.3935   -1.7780 H   0  0  0  0  0  0  0  0  0  0  0  0
   -0.2033   -2.0464    1.8097 H   0  0  0  0  0  0  0  0  0  0  0  0
   -0.2391    1.0307   -2.7686 C   0  0  0  0  0  0  0  0  0  0  0  0
   -0.2391    1.0307   -1.4449 C   0  0  0  0  0  3  0  0  0  0  0  0
   -0.2391    2.2529   -0.5844 C   0  0  0  0  0  0  0  0  0  0  0  0
   -0.2391    0.1080   -3.3351 H   0  0  0  0  0  0  0  0  0  0  0  0
   -0.2391    1.9563   -3.3346 H   0  0  0  0  0  0  0  0  0  0  0  0
   -0.2391   -0.1125   -0.8167 H   0  0  0  0  0  0  0  0  0  0  0  0
   -1.1168    2.2700    0.0669 H   0  0  0  0  0  0  0  0  0  0  0  0
   -0.2391    3.1633   -1.1850 H   0  0  0  0  0  0  0  0  0  0  0  0
    0.6386    2.2700    0.0669 H   0  0  0  0  0  0  0  0  0  0  0  0
  1  2  2  3
  1  5  1  0
  1  6  1  0
  2  3  1  0
  2 13  1  0
  3  4  2  0
  3  7  1  0
  8  9  2  3
  8 11  1  0
  8 12  1  0
  9 10  1  0
 10 14  1  0
 10 15  1  0
 10 16  1  0
M  RAD  1   9   2
M  END
>  <reaction>  (13) 
rxn_1631

>  <mol_properties>  (13) 
{"1": {"label": "*3", "atom_type": "Cdd"}, "2": {"label": "*4", "atom_type": "Cd"}, "7": {"label": "*0", "atom_type": "Cd"}, "8": {"label": "*1", "atom_type": "Cd"}, "12": {"label": "*2", "atom_type": "H0"}}

>  <type>  (13) 
unop_9

>  <geom_source>  (13) 
Heuristics

$$$$

     RDKit          3D

 16 14  0  0  0  0  0  0  0  0999 V2000
    1.4751   -2.1127   -0.2206 C   0  0  0  0  0  0  0  0  0  0  0  0
    0.4890   -1.2330   -0.0544 C   0  0  0  0  0  0  0  0  0  0  0  0
   -0.2180   -1.1023    1.2059 C   0  0  0  0  0  0  0  0  0  0  0  0
   -1.4216   -0.0674    1.4975 S   0  0  0  0  0  0  0  0  0  0  0  0
    1.7871   -2.7674    0.5856 H   0  0  0  0  0  0  0  0  0  0  0  0
    1.9993   -2.2062   -1.1629 H   0  0  0  0  0  0  0  0  0  0  0  0
    0.1212   -1.7758    1.9950 H   0  0  0  0  0  0  0  0  0  0  0  0
    0.4890    1.0505   -2.6330 C   0  0  0  0  0  0  0  0  0  0  0  0
    0.4890    1.0505   -1.3093 C   0  0  0  0  0  3  0  0  0  0  0  0
    0.4890    2.2726   -0.4488 C   0  0  0  0  0  0  0  0  0  0  0  0
    0.4890    0.1277   -3.1995 H   0  0  0  0  0  0  0  0  0  0  0  0
    0.4890    1.9761   -3.1990 H   0  0  0  0  0  0  0  0  0  0  0  0
    0.4890   -0.0927   -0.6811 H   0  0  0  0  0  0  0  0  0  0  0  0
   -0.3887    2.2898    0.2024 H   0  0  0  0  0  0  0  0  0  0  0  0
    0.4890    3.1831   -1.0494 H   0  0  0  0  0  0  0  0  0  0  0  0
    1.3667    2.2898    0.2024 H   0  0  0  0  0  0  0  0  0  0  0  0
  1  2  2  3
  1  5  1  0
  1  6  1  0
  2  3  1  0
  2 13  1  0
  3  4  2  0
  3  7  1  0
  8  9  2  3
  8 11  1  0
  8 12  1  0
  9 10  1  0
 10 14  1  0
 10 15  1  0
 10 16  1  0
M  RAD  1   9   2
M  END
>  <reaction>  (14) 
rxn_1631

>  <mol_properties>  (14) 
{"1": {"label": "*3", "atom_type": "Cdd"}, "2": {"label": "*4", "atom_type": "Cd"}, "7": {"label": "*0", "atom_type": "Cd"}, "8": {"label": "*1", "atom_type": "Cd"}, "12": {"label": "*2", "atom_type": "H0"}}

>  <type>  (14) 
unop_10

>  <geom_source>  (14) 
Heuristics

$$$$

     RDKit          3D

 16 14  0  0  0  0  0  0  0  0999 V2000
   -1.2002   -0.8687    2.0871 C   0  0  0  0  0  0  0  0  0  0  0  0
   -0.6308   -0.7380    0.8901 C   0  0  0  0  0  0  0  0  0  0  0  0
    0.5944   -1.4338    0.5435 C   0  0  0  0  0  0  0  0  0  0  0  0
    1.3528   -1.3358   -0.8777 S   0  0  0  0  0  0  0  0  0  0  0  0
   -0.7655   -1.5041    2.8508 H   0  0  0  0  0  0  0  0  0  0  0  0
   -2.1141   -0.3474    2.3407 H   0  0  0  0  0  0  0  0  0  0  0  0
    1.0043   -2.0642    1.3346 H   0  0  0  0  0  0  0  0  0  0  0  0
   -0.6308    1.5454   -1.6885 C   0  0  0  0  0  0  0  0  0  0  0  0
   -0.6308    1.5454   -0.3648 C   0  0  0  0  0  3  0  0  0  0  0  0
   -0.6308    2.7676    0.4958 C   0  0  0  0  0  0  0  0  0  0  0  0
   -0.6308    0.6226   -2.2550 H   0  0  0  0  0  0  0  0  0  0  0  0
   -0.6308    2.4710   -2.2545 H   0  0  0  0  0  0  0  0  0  0  0  0
   -0.6308    0.4022    0.2635 H   0  0  0  0  0  0  0  0  0  0  0  0
   -1.5085    2.7847    1.1470 H   0  0  0  0  0  0  0  0  0  0  0  0
   -0.6308    3.6780   -0.1048 H   0  0  0  0  0  0  0  0  0  0  0  0
    0.2469    2.7847    1.1470 H   0  0  0  0  0  0  0  0  0  0  0  0
  1  2  2  3
  1  5  1  0
  1  6  1  0
  2  3  1  0
  2 13  1  0
  3  4  2  0
  3  7  1  0
  8  9  2  3
  8 11  1  0
  8 12  1  0
  9 10  1  0
 10 14  1  0
 10 15  1  0
 10 16  1  0
M  RAD  1   9   2
M  END
>  <reaction>  (15) 
rxn_1631

>  <mol_properties>  (15) 
{"1": {"label": "*3", "atom_type": "Cdd"}, "2": {"label": "*4", "atom_type": "Cd"}, "7": {"label": "*0", "atom_type": "Cd"}, "8": {"label": "*1", "atom_type": "Cd"}, "12": {"label": "*2", "atom_type": "H0"}}

>  <type>  (15) 
unop_11

>  <geom_source>  (15) 
Heuristics

$$$$

     RDKit          3D

 16 14  0  0  0  0  0  0  0  0999 V2000
    0.0000   -2.4044   -0.8954 C   0  0  0  0  0  0  0  0  0  0  0  0
    0.0000   -1.2504   -0.2302 C   0  0  0  0  0  0  0  0  0  0  0  0
   -0.0000   -1.2010    1.2199 C   0  0  0  0  0  0  0  0  0  0  0  0
   -0.0000    0.1470    2.1075 S   0  0  0  0  0  0  0  0  0  0  0  0
   -0.0000   -3.3549   -0.3734 H   0  0  0  0  0  0  0  0  0  0  0  0
    0.0000   -2.4357   -1.9772 H   0  0  0  0  0  0  0  0  0  0  0  0
   -0.0000   -2.1749    1.7128 H   0  0  0  0  0  0  0  0  0  0  0  0
    0.0000    1.0330   -2.8088 C   0  0  0  0  0  0  0  0  0  0  0  0
    0.0000    1.0330   -1.4851 C   0  0  0  0  0  3  0  0  0  0  0  0
    0.0000    2.2552   -0.6246 C   0  0  0  0  0  0  0  0  0  0  0  0
    0.0000    0.1103   -3.3753 H   0  0  0  0  0  0  0  0  0  0  0  0
    0.0000    1.9586   -3.3748 H   0  0  0  0  0  0  0  0  0  0  0  0
    0.0000   -0.1101   -0.8569 H   0  0  0  0  0  0  0  0  0  0  0  0
   -0.8777    2.2723    0.0267 H   0  0  0  0  0  0  0  0  0  0  0  0
    0.0000    3.1656   -1.2252 H   0  0  0  0  0  0  0  0  0  0  0  0
    0.8777    2.2723    0.0267 H   0  0  0  0  0  0  0  0  0  0  0  0
  1  2  2  3
  1  5  1  0
  1  6  1  0
  2  3  1  0
  2 13  1  0
  3  4  2  0
  3  7  1  0
  8  9  2  3
  8 11  1  0
  8 12  1  0
  9 10  1  0
 10 14  1  0
 10 15  1  0
 10 16  1  0
M  RAD  1   9   2
M  END
>  <reaction>  (16) 
rxn_1631

>  <mol_properties>  (16) 
{"1": {"label": "*3", "atom_type": "Cdd"}, "2": {"label": "*4", "atom_type": "Cd"}, "7": {"label": "*0", "atom_type": "Cd"}, "8": {"label": "*1", "atom_type": "Cd"}, "12": {"label": "*2", "atom_type": "H0"}}

>  <type>  (16) 
unop_12

>  <geom_source>  (16) 
Heuristics

$$$$

     RDKit          3D

 16 14  0  0  0  0  0  0  0  0999 V2000
    1.9102   -2.0893    0.4233 S   0  0  0  0  0  0  0  0  0  0  0  0
   -1.7863   -1.4520   -0.6535 C   0  0  0  0  0  0  0  0  0  0  0  0
    1.3568    0.4892   -0.0880 C   0  0  0  0  0  0  0  0  0  0  0  0
    1.6543    1.7841   -0.1019 C   0  0  0  0  0  0  0  0  0  0  0  0
    2.3070   -0.5051    0.4202 C   0  0  0  0  0  0  0  0  0  0  0  0
   -1.6752    0.6784    0.5938 C   0  0  0  0  0  0  0  0  0  0  0  0
   -1.1252   -0.1634   -0.2819 C   0  0  0  0  0  3  0  0  0  0  0  0
   -1.1539   -1.9863   -1.3919 H   0  0  0  0  0  0  0  0  0  0  0  0
   -2.7807   -1.2527   -1.1058 H   0  0  0  0  0  0  0  0  0  0  0  0
   -1.9086   -2.0902    0.2471 H   0  0  0  0  0  0  0  0  0  0  0  0
    0.1762    0.0933   -0.5436 H   0  0  0  0  0  0  0  0  0  0  0  0
    2.6083    2.1456    0.2619 H   0  0  0  0  0  0  0  0  0  0  0  0
    0.9342    2.4960   -0.4825 H   0  0  0  0  0  0  0  0  0  0  0  0
    3.2764   -0.2032    0.7968 H   0  0  0  0  0  0  0  0  0  0  0  0
   -2.6263    0.4514    1.0664 H   0  0  0  0  0  0  0  0  0  0  0  0
   -1.1673    1.6043    0.8396 H   0  0  0  0  0  0  0  0  0  0  0  0
  1  5  2  0
  2  7  1  0
  2  8  1  0
  2  9  1  0
  2 10  1  0
  3  4  2  3
  3  5  1  0
  3 11  1  0
  4 12  1  0
  4 13  1  0
  5 14  1  0
  6  7  2  3
  6 15  1  0
  6 16  1  0
M  RAD  1   7   2
M  END
>  <reaction>  (17) 
rxn_1631

>  <mol_properties>  (17) 
{"1": {"label": "*3", "atom_type": "Cdd"}, "2": {"label": "*4", "atom_type": "Cd"}, "7": {"label": "*0", "atom_type": "Cd"}, "8": {"label": "*1", "atom_type": "Cd"}, "12": {"label": "*2", "atom_type": "H0"}}

>  <type>  (17) 
unop_13

>  <geom_source>  (17) 
AutoTST

$$$$
