
     RDKit          3D

  7  6  0  0  0  0  0  0  0  0999 V2000
    1.2985   -0.0065   -0.2721 C   0  0  0  0  0  0  0  0  0  0  0  0
    0.0000    0.0000   -0.2926 C   0  0  0  0  0  0  0  0  0  0  0  0
   -1.2985    0.0065   -0.3130 C   0  0  0  0  0  0  0  0  0  0  0  0
    1.8444   -0.7551    0.2895 H   0  0  0  0  0  0  0  0  0  0  0  0
    1.8693    0.7364   -0.8162 H   0  0  0  0  0  0  0  0  0  0  0  0
   -1.8658    0.5623    0.4239 H   0  0  0  0  0  0  0  0  0  0  0  0
   -1.8479   -0.5437   -1.0675 H   0  0  0  0  0  0  0  0  0  0  0  0
  1  2  2  0
  1  4  1  0
  1  5  1  0
  2  3  2  0
  3  6  1  0
  3  7  1  0
M  END
>  <reaction>  (1) 
rxn_1793

>  <mol_properties>  (1) 
{"0": {"label": "donator", "atom_type": "Cd"}, "3": {"label": "d_hydrogen", "atom_type": "H0"}}

>  <type>  (1) 
r1h

$$$$

     RDKit          3D

  9  8  0  0  0  0  0  0  0  0999 V2000
    1.8963   -0.1405   -0.2150 C   0  0  0  0  0  0  0  0  0  0  0  0
    0.6340    0.1486   -0.2254 C   0  0  0  0  0  3  0  0  0  0  0  0
   -0.6770    0.4501   -0.2373 C   0  0  0  0  0  0  0  0  0  0  0  0
   -1.6600   -0.2303    0.4662 C   0  0  0  0  0  0  0  0  0  0  0  0
    2.3274   -0.8354   -0.9313 H   0  0  0  0  0  0  0  0  0  0  0  0
    2.5751    0.2988    0.5117 H   0  0  0  0  0  0  0  0  0  0  0  0
   -0.9723    1.2966   -0.8520 H   0  0  0  0  0  0  0  0  0  0  0  0
   -2.6934    0.0777    0.4015 H   0  0  0  0  0  0  0  0  0  0  0  0
   -1.4140   -1.0782    1.0904 H   0  0  0  0  0  0  0  0  0  0  0  0
  1  2  2  3
  1  5  1  0
  1  6  1  0
  2  3  1  0
  3  4  2  3
  3  7  1  0
  4  8  1  0
  4  9  1  0
M  RAD  1   2   2
M  END
>  <reaction>  (2) 
rxn_1793

>  <mol_properties>  (2) 
{"1": {"label": "acceptor", "atom_type": "Cd"}}

>  <type>  (2) 
r2

$$$$

     RDKit          3D

 10  9  0  0  0  0  0  0  0  0999 V2000
    1.8334    0.0847   -0.1062 C   0  0  0  0  0  0  0  0  0  0  0  0
    0.5993   -0.4071   -0.0750 C   0  0  0  0  0  0  0  0  0  0  0  0
   -0.5993    0.4071    0.0750 C   0  0  0  0  0  0  0  0  0  0  0  0
   -1.8334   -0.0847    0.1062 C   0  0  0  0  0  0  0  0  0  0  0  0
    2.0179    1.1498   -0.0189 H   0  0  0  0  0  0  0  0  0  0  0  0
    2.6972   -0.5572   -0.2194 H   0  0  0  0  0  0  0  0  0  0  0  0
    0.4465   -1.4793   -0.1649 H   0  0  0  0  0  0  0  0  0  0  0  0
   -0.4465    1.4793    0.1649 H   0  0  0  0  0  0  0  0  0  0  0  0
   -2.0179   -1.1498    0.0189 H   0  0  0  0  0  0  0  0  0  0  0  0
   -2.6972    0.5572    0.2194 H   0  0  0  0  0  0  0  0  0  0  0  0
  1  2  2  3
  1  5  1  0
  1  6  1  0
  2  3  1  0
  2  7  1  0
  3  4  2  3
  3  8  1  0
  4  9  1  0
  4 10  1  0
M  END
>  <reaction>  (3) 
rxn_1793

>  <mol_properties>  (3) 
{"1": {"label": "acceptor", "atom_type": "Cd"}, "9": {"label": "a_hydrogen", "atom_type": "H0"}}

>  <type>  (3) 
r2h

$$$$

     RDKit          3D

 16 14  0  0  0  0  0  0  0  0999 V2000
   -0.2848   -0.3796    2.6353 C   0  0  0  0  0  0  0  0  0  0  0  0
   -0.4093   -0.5413    1.3340 C   0  0  0  0  0  3  0  0  0  0  0  0
   -1.1490   -1.5123    0.5616 C   0  0  0  0  0  0  0  0  0  0  0  0
   -1.1839   -1.5562   -0.7663 C   0  0  0  0  0  0  0  0  0  0  0  0
    0.3202    0.4148    3.0569 H   0  0  0  0  0  0  0  0  0  0  0  0
   -0.7875   -1.0414    3.3377 H   0  0  0  0  0  0  0  0  0  0  0  0
   -1.7075   -2.2472    1.1410 H   0  0  0  0  0  0  0  0  0  0  0  0
   -1.7600   -2.3125   -1.2831 H   0  0  0  0  0  0  0  0  0  0  0  0
   -0.6406   -0.8412   -1.3723 H   0  0  0  0  0  0  0  0  0  0  0  0
    0.9981    1.3102    0.0298 C   0  0  0  0  0  0  0  0  0  0  0  0
    1.0425    1.3705   -1.2482 C   0  0  0  0  0  0  0  0  0  0  0  0
    1.0370    1.3654   -2.5582 C   0  0  0  0  0  0  0  0  0  0  0  0
    0.3036    0.3967    0.5774 H   0  0  0  0  0  0  0  0  0  0  0  0
    1.4861    1.9504    0.7505 H   0  0  0  0  0  0  0  0  0  0  0  0
    0.3024    1.9346   -3.1145 H   0  0  0  0  0  0  0  0  0  0  0  0
    1.7807    0.8097   -3.1162 H   0  0  0  0  0  0  0  0  0  0  0  0
  1  2  2  3
  1  5  1  0
  1  6  1  0
  2  3  1  0
  3  4  2  3
  3  7  1  0
  4  8  1  0
  4  9  1  0
 10 11  2  0
 10 13  1  0
 10 14  1  0
 11 12  2  0
 12 15  1  0
 12 16  1  0
M  RAD  1   2   2
M  END
>  <reaction>  (4) 
rxn_1793

>  <mol_properties>  (4) 
{"1": {"label": "*3", "atom_type": "Cd"}, "2": {"label": "*4", "atom_type": "Cd"}, "9": {"label": "*1", "atom_type": "Cd"}, "10": {"label": "*0", "atom_type": "Cdd"}, "12": {"label": "*2", "atom_type": "H0"}}

>  <type>  (4) 
ts

$$$$

     RDKit          3D

 16 14  0  0  0  0  0  0  0  0999 V2000
   -1.9677    0.0109    1.1814 C   0  0  0  0  0  0  0  0  0  0  0  0
   -0.7917   -0.5209    0.8648 C   0  0  0  0  0  3  0  0  0  0  0  0
   -0.0138   -1.3695    1.7577 C   0  0  0  0  0  0  0  0  0  0  0  0
    1.1621   -1.9013    1.4411 C   0  0  0  0  0  0  0  0  0  0  0  0
   -2.5127    0.6366    0.4868 H   0  0  0  0  0  0  0  0  0  0  0  0
   -2.4230   -0.1645    2.1499 H   0  0  0  0  0  0  0  0  0  0  0  0
   -0.4446   -1.5636    2.7363 H   0  0  0  0  0  0  0  0  0  0  0  0
    1.7071   -2.5269    2.1357 H   0  0  0  0  0  0  0  0  0  0  0  0
    1.6175   -1.7259    0.4726 H   0  0  0  0  0  0  0  0  0  0  0  0
    0.5375    1.2716   -0.4774 C   0  0  0  0  0  0  0  0  0  0  0  0
    0.5375    1.2716   -1.7760 C   0  0  0  0  0  0  0  0  0  0  0  0
    0.5375    1.2716   -3.0747 C   0  0  0  0  0  0  0  0  0  0  0  0
   -0.1261    0.3767    0.1927 H   0  0  0  0  0  0  0  0  0  0  0  0
    1.0905    2.0174    0.0811 H   0  0  0  0  0  0  0  0  0  0  0  0
   -0.2083    1.8246   -3.6331 H   0  0  0  0  0  0  0  0  0  0  0  0
    1.2833    0.7186   -3.6331 H   0  0  0  0  0  0  0  0  0  0  0  0
  1  2  2  3
  1  5  1  0
  1  6  1  0
  2  3  1  0
  3  4  2  3
  3  7  1  0
  4  8  1  0
  4  9  1  0
 10 11  2  0
 10 13  1  0
 10 14  1  0
 11 12  2  0
 12 15  1  0
 12 16  1  0
M  RAD  1   2   2
M  END
>  <reaction>  (5) 
rxn_1793

>  <mol_properties>  (5) 
{"1": {"label": "*3", "atom_type": "Cd"}, "2": {"label": "*4", "atom_type": "Cd"}, "9": {"label": "*1", "atom_type": "Cd"}, "10": {"label": "*0", "atom_type": "Cdd"}, "12": {"label": "*2", "atom_type": "H0"}}

>  <type>  (5) 
unop_1

>  <geom_source>  (5) 
Heuristics

$$$$

     RDKit          3D

 16 14  0  0  0  0  0  0  0  0999 V2000
   -0.7008   -0.1626    2.6105 C   0  0  0  0  0  0  0  0  0  0  0  0
   -0.5230   -0.3823    1.3120 C   0  0  0  0  0  3  0  0  0  0  0  0
   -0.6762   -1.6845    0.6770 C   0  0  0  0  0  0  0  0  0  0  0  0
   -0.4984   -1.9043   -0.6214 C   0  0  0  0  0  0  0  0  0  0  0  0
   -0.5765    0.8222    3.0413 H   0  0  0  0  0  0  0  0  0  0  0  0
   -0.9775   -0.9653    3.2851 H   0  0  0  0  0  0  0  0  0  0  0  0
   -0.9533   -2.5094    1.3279 H   0  0  0  0  0  0  0  0  0  0  0  0
   -0.6228   -2.8891   -1.0523 H   0  0  0  0  0  0  0  0  0  0  0  0
   -0.2218   -1.1015   -1.2961 H   0  0  0  0  0  0  0  0  0  0  0  0
    0.8062    1.4102   -0.0302 C   0  0  0  0  0  0  0  0  0  0  0  0
    0.8062    1.4102   -1.3289 C   0  0  0  0  0  0  0  0  0  0  0  0
    0.8062    1.4102   -2.6275 C   0  0  0  0  0  0  0  0  0  0  0  0
    0.1426    0.5152    0.6399 H   0  0  0  0  0  0  0  0  0  0  0  0
    1.3592    2.1559    0.5282 H   0  0  0  0  0  0  0  0  0  0  0  0
    0.0604    1.9632   -3.1860 H   0  0  0  0  0  0  0  0  0  0  0  0
    1.5519    0.8572   -3.1860 H   0  0  0  0  0  0  0  0  0  0  0  0
  1  2  2  3
  1  5  1  0
  1  6  1  0
  2  3  1  0
  3  4  2  3
  3  7  1  0
  4  8  1  0
  4  9  1  0
 10 11  2  0
 10 13  1  0
 10 14  1  0
 11 12  2  0
 12 15  1  0
 12 16  1  0
M  RAD  1   2   2
M  END
>  <reaction>  (6) 
rxn_1793

>  <mol_properties>  (6) 
{"1": {"label": "*3", "atom_type": "Cd"}, "2": {"label": "*4", "atom_type": "Cd"}, "9": {"label": "*1", "atom_type": "Cd"}, "10": {"label": "*0", "atom_type": "Cdd"}, "12": {"label": "*2", "atom_type": "H0"}}

>  <type>  (6) 
unop_2

>  <geom_source>  (6) 
Heuristics

$$$$

     RDKit          3D

 16 14  0  0  0  0  0  0  0  0999 V2000
   -2.0168   -0.6424    0.4600 C   0  0  0  0  0  0  0  0  0  0  0  0
   -0.7197   -0.6601    0.7483 C   0  0  0  0  0  3  0  0  0  0  0  0
   -0.1789   -1.0264    2.0505 C   0  0  0  0  0  0  0  0  0  0  0  0
    1.1182   -1.0441    2.3388 C   0  0  0  0  0  0  0  0  0  0  0  0
   -2.3758   -0.3635   -0.5220 H   0  0  0  0  0  0  0  0  0  0  0  0
   -2.7625   -0.9076    1.2014 H   0  0  0  0  0  0  0  0  0  0  0  0
   -0.9023   -1.2974    2.8148 H   0  0  0  0  0  0  0  0  0  0  0  0
    1.4772   -1.3229    3.3208 H   0  0  0  0  0  0  0  0  0  0  0  0
    1.8639   -0.7788    1.5974 H   0  0  0  0  0  0  0  0  0  0  0  0
    0.6095    1.1324   -0.5939 C   0  0  0  0  0  0  0  0  0  0  0  0
    0.6095    1.1324   -1.8926 C   0  0  0  0  0  0  0  0  0  0  0  0
    0.6095    1.1324   -3.1912 C   0  0  0  0  0  0  0  0  0  0  0  0
   -0.0541    0.2375    0.0762 H   0  0  0  0  0  0  0  0  0  0  0  0
    1.1625    1.8782   -0.0355 H   0  0  0  0  0  0  0  0  0  0  0  0
   -0.1363    1.6854   -3.7497 H   0  0  0  0  0  0  0  0  0  0  0  0
    1.3553    0.5794   -3.7497 H   0  0  0  0  0  0  0  0  0  0  0  0
  1  2  2  3
  1  5  1  0
  1  6  1  0
  2  3  1  0
  3  4  2  3
  3  7  1  0
  4  8  1  0
  4  9  1  0
 10 11  2  0
 10 13  1  0
 10 14  1  0
 11 12  2  0
 12 15  1  0
 12 16  1  0
M  RAD  1   2   2
M  END
>  <reaction>  (7) 
rxn_1793

>  <mol_properties>  (7) 
{"1": {"label": "*3", "atom_type": "Cd"}, "2": {"label": "*4", "atom_type": "Cd"}, "9": {"label": "*1", "atom_type": "Cd"}, "10": {"label": "*0", "atom_type": "Cdd"}, "12": {"label": "*2", "atom_type": "H0"}}

>  <type>  (7) 
unop_3

>  <geom_source>  (7) 
Heuristics

$$$$

     RDKit          3D

 16 14  0  0  0  0  0  0  0  0999 V2000
    0.4344   -1.0547    2.3479 C   0  0  0  0  0  0  0  0  0  0  0  0
   -0.1462   -0.7538    1.1910 C   0  0  0  0  0  3  0  0  0  0  0  0
   -1.5848   -0.7963    0.9654 C   0  0  0  0  0  0  0  0  0  0  0  0
   -2.1654   -0.4954   -0.1915 C   0  0  0  0  0  0  0  0  0  0  0  0
    1.5084   -1.0098    2.4721 H   0  0  0  0  0  0  0  0  0  0  0  0
   -0.1502   -1.3565    3.2100 H   0  0  0  0  0  0  0  0  0  0  0  0
   -2.1976   -1.0955    1.8115 H   0  0  0  0  0  0  0  0  0  0  0  0
   -3.2394   -0.5403   -0.3157 H   0  0  0  0  0  0  0  0  0  0  0  0
   -1.5808   -0.1936   -1.0536 H   0  0  0  0  0  0  0  0  0  0  0  0
    1.1830    1.0387   -0.1512 C   0  0  0  0  0  0  0  0  0  0  0  0
    1.1830    1.0387   -1.4499 C   0  0  0  0  0  0  0  0  0  0  0  0
    1.1830    1.0387   -2.7485 C   0  0  0  0  0  0  0  0  0  0  0  0
    0.5194    0.1438    0.5189 H   0  0  0  0  0  0  0  0  0  0  0  0
    1.7361    1.7845    0.4072 H   0  0  0  0  0  0  0  0  0  0  0  0
    0.4373    1.5917   -3.3069 H   0  0  0  0  0  0  0  0  0  0  0  0
    1.9288    0.4857   -3.3070 H   0  0  0  0  0  0  0  0  0  0  0  0
  1  2  2  3
  1  5  1  0
  1  6  1  0
  2  3  1  0
  3  4  2  3
  3  7  1  0
  4  8  1  0
  4  9  1  0
 10 11  2  0
 10 13  1  0
 10 14  1  0
 11 12  2  0
 12 15  1  0
 12 16  1  0
M  RAD  1   2   2
M  END
>  <reaction>  (8) 
rxn_1793

>  <mol_properties>  (8) 
{"1": {"label": "*3", "atom_type": "Cd"}, "2": {"label": "*4", "atom_type": "Cd"}, "9": {"label": "*1", "atom_type": "Cd"}, "10": {"label": "*0", "atom_type": "Cdd"}, "12": {"label": "*2", "atom_type": "H0"}}

>  <type>  (8) 
unop_4

>  <geom_source>  (8) 
Heuristics

$$$$

     RDKit          3D

 16 14  0  0  0  0  0  0  0  0999 V2000
   -1.2746   -1.7189    0.0550 C   0  0  0  0  0  0  0  0  0  0  0  0
   -0.5849   -0.7888    0.7070 C   0  0  0  0  0  3  0  0  0  0  0  0
   -0.5146   -0.6940    2.1591 C   0  0  0  0  0  0  0  0  0  0  0  0
    0.1751    0.2361    2.8111 C   0  0  0  0  0  0  0  0  0  0  0  0
   -1.2997   -1.7527   -1.0263 H   0  0  0  0  0  0  0  0  0  0  0  0
   -1.8379   -2.4785    0.5860 H   0  0  0  0  0  0  0  0  0  0  0  0
   -1.0693   -1.4420    2.7191 H   0  0  0  0  0  0  0  0  0  0  0  0
    0.2002    0.2699    3.8923 H   0  0  0  0  0  0  0  0  0  0  0  0
    0.7383    0.9957    2.2801 H   0  0  0  0  0  0  0  0  0  0  0  0
    0.7443    1.0037   -0.6352 C   0  0  0  0  0  0  0  0  0  0  0  0
    0.7443    1.0037   -1.9339 C   0  0  0  0  0  0  0  0  0  0  0  0
    0.7443    1.0037   -3.2325 C   0  0  0  0  0  0  0  0  0  0  0  0
    0.0807    0.1088    0.0349 H   0  0  0  0  0  0  0  0  0  0  0  0
    1.2973    1.7495   -0.0768 H   0  0  0  0  0  0  0  0  0  0  0  0
   -0.0015    1.5567   -3.7910 H   0  0  0  0  0  0  0  0  0  0  0  0
    1.4900    0.4507   -3.7910 H   0  0  0  0  0  0  0  0  0  0  0  0
  1  2  2  3
  1  5  1  0
  1  6  1  0
  2  3  1  0
  3  4  2  3
  3  7  1  0
  4  8  1  0
  4  9  1  0
 10 11  2  0
 10 13  1  0
 10 14  1  0
 11 12  2  0
 12 15  1  0
 12 16  1  0
M  RAD  1   2   2
M  END
>  <reaction>  (9) 
rxn_1793

>  <mol_properties>  (9) 
{"1": {"label": "*3", "atom_type": "Cd"}, "2": {"label": "*4", "atom_type": "Cd"}, "9": {"label": "*1", "atom_type": "Cd"}, "10": {"label": "*0", "atom_type": "Cdd"}, "12": {"label": "*2", "atom_type": "H0"}}

>  <type>  (9) 
unop_5

>  <geom_source>  (9) 
Heuristics

$$$$

     RDKit          3D

 16 14  0  0  0  0  0  0  0  0999 V2000
    0.6731   -1.4730    1.8568 C   0  0  0  0  0  0  0  0  0  0  0  0
   -0.1665   -0.8627    1.0270 C   0  0  0  0  0  3  0  0  0  0  0  0
   -1.5453   -0.5308    1.3607 C   0  0  0  0  0  0  0  0  0  0  0  0
   -2.3850    0.0794    0.5309 C   0  0  0  0  0  0  0  0  0  0  0  0
    1.6907   -1.7010    1.5677 H   0  0  0  0  0  0  0  0  0  0  0  0
    0.3664   -1.7643    2.8553 H   0  0  0  0  0  0  0  0  0  0  0  0
   -1.8821   -0.8105    2.3552 H   0  0  0  0  0  0  0  0  0  0  0  0
   -3.4025    0.3074    0.8200 H   0  0  0  0  0  0  0  0  0  0  0  0
   -2.0782    0.3708   -0.4676 H   0  0  0  0  0  0  0  0  0  0  0  0
    1.1627    0.9298   -0.3152 C   0  0  0  0  0  0  0  0  0  0  0  0
    1.1627    0.9298   -1.6138 C   0  0  0  0  0  0  0  0  0  0  0  0
    1.1627    0.9298   -2.9125 C   0  0  0  0  0  0  0  0  0  0  0  0
    0.4990    0.0349    0.3549 H   0  0  0  0  0  0  0  0  0  0  0  0
    1.7157    1.6756    0.2433 H   0  0  0  0  0  0  0  0  0  0  0  0
    0.4169    1.4828   -3.4709 H   0  0  0  0  0  0  0  0  0  0  0  0
    1.9084    0.3768   -3.4709 H   0  0  0  0  0  0  0  0  0  0  0  0
  1  2  2  3
  1  5  1  0
  1  6  1  0
  2  3  1  0
  3  4  2  3
  3  7  1  0
  4  8  1  0
  4  9  1  0
 10 11  2  0
 10 13  1  0
 10 14  1  0
 11 12  2  0
 12 15  1  0
 12 16  1  0
M  RAD  1   2   2
M  END
>  <reaction>  (10) 
rxn_1793

>  <mol_properties>  (10) 
{"1": {"label": "*3", "atom_type": "Cd"}, "2": {"label": "*4", "atom_type": "Cd"}, "9": {"label": "*1", "atom_type": "Cd"}, "10": {"label": "*0", "atom_type": "Cdd"}, "12": {"label": "*2", "atom_type": "H0"}}

>  <type>  (10) 
unop_6

>  <geom_source>  (10) 
Heuristics

$$$$

     RDKit          3D

 16 14  0  0  0  0  0  0  0  0999 V2000
    0.5819   -1.8797    1.1814 C   0  0  0  0  0  0  0  0  0  0  0  0
   -0.2685   -0.9089    0.8648 C   0  0  0  0  0  3  0  0  0  0  0  0
   -1.3064   -0.4110    1.7577 C   0  0  0  0  0  0  0  0  0  0  0  0
   -2.1568    0.5599    1.4411 C   0  0  0  0  0  0  0  0  0  0  0  0
    1.3389   -2.2195    0.4868 H   0  0  0  0  0  0  0  0  0  0  0  0
    0.5463   -2.3664    2.1499 H   0  0  0  0  0  0  0  0  0  0  0  0
   -1.3671   -0.8795    2.7363 H   0  0  0  0  0  0  0  0  0  0  0  0
   -2.9138    0.8996    2.1357 H   0  0  0  0  0  0  0  0  0  0  0  0
   -2.1212    1.0465    0.4726 H   0  0  0  0  0  0  0  0  0  0  0  0
    1.0607    0.8836   -0.4774 C   0  0  0  0  0  0  0  0  0  0  0  0
    1.0607    0.8836   -1.7760 C   0  0  0  0  0  0  0  0  0  0  0  0
    1.0607    0.8836   -3.0747 C   0  0  0  0  0  0  0  0  0  0  0  0
    0.3971   -0.0113    0.1927 H   0  0  0  0  0  0  0  0  0  0  0  0
    1.6137    1.6294    0.0811 H   0  0  0  0  0  0  0  0  0  0  0  0
    0.3150    1.4367   -3.6331 H   0  0  0  0  0  0  0  0  0  0  0  0
    1.8065    0.3306   -3.6331 H   0  0  0  0  0  0  0  0  0  0  0  0
  1  2  2  3
  1  5  1  0
  1  6  1  0
  2  3  1  0
  3  4  2  3
  3  7  1  0
  4  8  1  0
  4  9  1  0
 10 11  2  0
 10 13  1  0
 10 14  1  0
 11 12  2  0
 12 15  1  0
 12 16  1  0
M  RAD  1   2   2
M  END
>  <reaction>  (11) 
rxn_1793

>  <mol_properties>  (11) 
{"1": {"label": "*3", "atom_type": "Cd"}, "2": {"label": "*4", "atom_type": "Cd"}, "9": {"label": "*1", "atom_type": "Cd"}, "10": {"label": "*0", "atom_type": "Cdd"}, "12": {"label": "*2", "atom_type": "H0"}}

>  <type>  (11) 
unop_7

>  <geom_source>  (11) 
Heuristics

$$$$

     RDKit          3D

 16 14  0  0  0  0  0  0  0  0999 V2000
   -1.6050    0.2163    1.8568 C   0  0  0  0  0  0  0  0  0  0  0  0
   -0.7772   -0.4099    1.0270 C   0  0  0  0  0  3  0  0  0  0  0  0
   -0.0592   -1.6329    1.3607 C   0  0  0  0  0  0  0  0  0  0  0  0
    0.7686   -2.2591    0.5309 C   0  0  0  0  0  0  0  0  0  0  0  0
   -2.1187    1.1238    1.5677 H   0  0  0  0  0  0  0  0  0  0  0  0
   -1.7947   -0.1618    2.8553 H   0  0  0  0  0  0  0  0  0  0  0  0
   -0.2290   -2.0364    2.3552 H   0  0  0  0  0  0  0  0  0  0  0  0
    1.2823   -3.1666    0.8200 H   0  0  0  0  0  0  0  0  0  0  0  0
    0.9584   -1.8810   -0.4676 H   0  0  0  0  0  0  0  0  0  0  0  0
    0.5521    1.3826   -0.3152 C   0  0  0  0  0  0  0  0  0  0  0  0
    0.5521    1.3826   -1.6138 C   0  0  0  0  0  0  0  0  0  0  0  0
    0.5521    1.3826   -2.9125 C   0  0  0  0  0  0  0  0  0  0  0  0
   -0.1116    0.4877    0.3549 H   0  0  0  0  0  0  0  0  0  0  0  0
    1.1051    2.1283    0.2433 H   0  0  0  0  0  0  0  0  0  0  0  0
   -0.1937    1.9356   -3.4709 H   0  0  0  0  0  0  0  0  0  0  0  0
    1.2978    0.8296   -3.4709 H   0  0  0  0  0  0  0  0  0  0  0  0
  1  2  2  3
  1  5  1  0
  1  6  1  0
  2  3  1  0
  3  4  2  3
  3  7  1  0
  4  8  1  0
  4  9  1  0
 10 11  2  0
 10 13  1  0
 10 14  1  0
 11 12  2  0
 12 15  1  0
 12 16  1  0
M  RAD  1   2   2
M  END
>  <reaction>  (12) 
rxn_1793

>  <mol_properties>  (12) 
{"1": {"label": "*3", "atom_type": "Cd"}, "2": {"label": "*4", "atom_type": "Cd"}, "9": {"label": "*1", "atom_type": "Cd"}, "10": {"label": "*0", "atom_type": "Cdd"}, "12": {"label": "*2", "atom_type": "H0"}}

>  <type>  (12) 
unop_8

>  <geom_source>  (12) 
Heuristics

$$$$

     RDKit          3D

 16 14  0  0  0  0  0  0  0  0999 V2000
    0.0480   -0.7178    2.6105 C   0  0  0  0  0  0  0  0  0  0  0  0
   -0.2140   -0.6115    1.3120 C   0  0  0  0  0  3  0  0  0  0  0  0
   -1.4155   -1.1363    0.6770 C   0  0  0  0  0  0  0  0  0  0  0  0
   -1.6774   -1.0300   -0.6214 C   0  0  0  0  0  0  0  0  0  0  0  0
    0.9542   -0.3129    3.0413 H   0  0  0  0  0  0  0  0  0  0  0  0
   -0.6398   -1.2157    3.2851 H   0  0  0  0  0  0  0  0  0  0  0  0
   -2.1244   -1.6410    1.3279 H   0  0  0  0  0  0  0  0  0  0  0  0
   -2.5837   -1.4350   -1.0523 H   0  0  0  0  0  0  0  0  0  0  0  0
   -0.9897   -0.5321   -1.2961 H   0  0  0  0  0  0  0  0  0  0  0  0
    1.1152    1.1810   -0.0302 C   0  0  0  0  0  0  0  0  0  0  0  0
    1.1152    1.1810   -1.3289 C   0  0  0  0  0  0  0  0  0  0  0  0
    1.1152    1.1810   -2.6275 C   0  0  0  0  0  0  0  0  0  0  0  0
    0.4516    0.2861    0.6399 H   0  0  0  0  0  0  0  0  0  0  0  0
    1.6683    1.9267    0.5282 H   0  0  0  0  0  0  0  0  0  0  0  0
    0.3695    1.7340   -3.1860 H   0  0  0  0  0  0  0  0  0  0  0  0
    1.8610    0.6280   -3.1860 H   0  0  0  0  0  0  0  0  0  0  0  0
  1  2  2  3
  1  5  1  0
  1  6  1  0
  2  3  1  0
  3  4  2  3
  3  7  1  0
  4  8  1  0
  4  9  1  0
 10 11  2  0
 10 13  1  0
 10 14  1  0
 11 12  2  0
 12 15  1  0
 12 16  1  0
M  RAD  1   2   2
M  END
>  <reaction>  (13) 
rxn_1793

>  <mol_properties>  (13) 
{"1": {"label": "*3", "atom_type": "Cd"}, "2": {"label": "*4", "atom_type": "Cd"}, "9": {"label": "*1", "atom_type": "Cd"}, "10": {"label": "*0", "atom_type": "Cdd"}, "12": {"label": "*2", "atom_type": "H0"}}

>  <type>  (13) 
unop_9

>  <geom_source>  (13) 
Heuristics

$$$$

     RDKit          3D

 16 14  0  0  0  0  0  0  0  0999 V2000
   -1.1354    0.1094    2.3479 C   0  0  0  0  0  0  0  0  0  0  0  0
   -0.6789   -0.3588    1.1910 C   0  0  0  0  0  3  0  0  0  0  0  0
   -0.3017   -1.7478    0.9654 C   0  0  0  0  0  0  0  0  0  0  0  0
    0.1548   -2.2159   -0.1915 C   0  0  0  0  0  0  0  0  0  0  0  0
   -1.4043    1.1501    2.4721 H   0  0  0  0  0  0  0  0  0  0  0  0
   -1.2544   -0.5377    3.2100 H   0  0  0  0  0  0  0  0  0  0  0  0
   -0.4100   -2.4210    1.8115 H   0  0  0  0  0  0  0  0  0  0  0  0
    0.4238   -3.2566   -0.3157 H   0  0  0  0  0  0  0  0  0  0  0  0
    0.2739   -1.5688   -1.0536 H   0  0  0  0  0  0  0  0  0  0  0  0
    0.6503    1.4337   -0.1512 C   0  0  0  0  0  0  0  0  0  0  0  0
    0.6503    1.4337   -1.4499 C   0  0  0  0  0  0  0  0  0  0  0  0
    0.6503    1.4337   -2.7485 C   0  0  0  0  0  0  0  0  0  0  0  0
   -0.0133    0.5388    0.5189 H   0  0  0  0  0  0  0  0  0  0  0  0
    1.2034    2.1795    0.4072 H   0  0  0  0  0  0  0  0  0  0  0  0
   -0.0954    1.9867   -3.3069 H   0  0  0  0  0  0  0  0  0  0  0  0
    1.3961    0.8807   -3.3070 H   0  0  0  0  0  0  0  0  0  0  0  0
  1  2  2  3
  1  5  1  0
  1  6  1  0
  2  3  1  0
  3  4  2  3
  3  7  1  0
  4  8  1  0
  4  9  1  0
 10 11  2  0
 10 13  1  0
 10 14  1  0
 11 12  2  0
 12 15  1  0
 12 16  1  0
M  RAD  1   2   2
M  END
>  <reaction>  (14) 
rxn_1793

>  <mol_properties>  (14) 
{"1": {"label": "*3", "atom_type": "Cd"}, "2": {"label": "*4", "atom_type": "Cd"}, "9": {"label": "*1", "atom_type": "Cd"}, "10": {"label": "*0", "atom_type": "Cdd"}, "12": {"label": "*2", "atom_type": "H0"}}

>  <type>  (14) 
unop_10

>  <geom_source>  (14) 
Heuristics

$$$$

     RDKit          3D

 16 14  0  0  0  0  0  0  0  0999 V2000
   -0.0290   -2.1165    0.4600 C   0  0  0  0  0  0  0  0  0  0  0  0
   -0.4226   -0.8804    0.7483 C   0  0  0  0  0  3  0  0  0  0  0  0
   -0.9302   -0.4693    2.0505 C   0  0  0  0  0  0  0  0  0  0  0  0
   -1.3238    0.7668    2.3388 C   0  0  0  0  0  0  0  0  0  0  0  0
    0.3421   -2.3790   -0.5220 H   0  0  0  0  0  0  0  0  0  0  0  0
   -0.0662   -2.9070    1.2014 H   0  0  0  0  0  0  0  0  0  0  0  0
   -0.9794   -1.2402    2.8148 H   0  0  0  0  0  0  0  0  0  0  0  0
   -1.6949    1.0293    3.3208 H   0  0  0  0  0  0  0  0  0  0  0  0
   -1.2866    1.5574    1.5974 H   0  0  0  0  0  0  0  0  0  0  0  0
    0.9066    0.9121   -0.5939 C   0  0  0  0  0  0  0  0  0  0  0  0
    0.9066    0.9121   -1.8926 C   0  0  0  0  0  0  0  0  0  0  0  0
    0.9066    0.9121   -3.1912 C   0  0  0  0  0  0  0  0  0  0  0  0
    0.2430    0.0172    0.0762 H   0  0  0  0  0  0  0  0  0  0  0  0
    1.4596    1.6579   -0.0355 H   0  0  0  0  0  0  0  0  0  0  0  0
    0.1608    1.4651   -3.7497 H   0  0  0  0  0  0  0  0  0  0  0  0
    1.6524    0.3591   -3.7497 H   0  0  0  0  0  0  0  0  0  0  0  0
  1  2  2  3
  1  5  1  0
  1  6  1  0
  2  3  1  0
  3  4  2  3
  3  7  1  0
  4  8  1  0
  4  9  1  0
 10 11  2  0
 10 13  1  0
 10 14  1  0
 11 12  2  0
 12 15  1  0
 12 16  1  0
M  RAD  1   2   2
M  END
>  <reaction>  (15) 
rxn_1793

>  <mol_properties>  (15) 
{"1": {"label": "*3", "atom_type": "Cd"}, "2": {"label": "*4", "atom_type": "Cd"}, "9": {"label": "*1", "atom_type": "Cd"}, "10": {"label": "*0", "atom_type": "Cdd"}, "12": {"label": "*2", "atom_type": "H0"}}

>  <type>  (15) 
unop_11

>  <geom_source>  (15) 
Heuristics

$$$$

     RDKit          3D

 16 14  0  0  0  0  0  0  0  0999 V2000
   -0.3324   -0.4483    2.6850 C   0  0  0  0  0  0  0  0  0  0  0  0
   -0.3522   -0.4750    1.3565 C   0  0  0  0  0  3  0  0  0  0  0  0
   -1.0833   -1.4609    0.5717 C   0  0  0  0  0  0  0  0  0  0  0  0
   -1.1031   -1.4876   -0.7568 C   0  0  0  0  0  0  0  0  0  0  0  0
    0.2247    0.3031    3.2289 H   0  0  0  0  0  0  0  0  0  0  0  0
   -0.8758   -1.1810    3.2714 H   0  0  0  0  0  0  0  0  0  0  0  0
   -1.6380   -2.2089    1.1318 H   0  0  0  0  0  0  0  0  0  0  0  0
   -1.6603   -2.2390   -1.3007 H   0  0  0  0  0  0  0  0  0  0  0  0
   -0.5598   -0.7549   -1.3433 H   0  0  0  0  0  0  0  0  0  0  0  0
    0.9770    1.3175    0.0143 C   0  0  0  0  0  0  0  0  0  0  0  0
    0.9770    1.3175   -1.2844 C   0  0  0  0  0  0  0  0  0  0  0  0
    0.9770    1.3175   -2.5831 C   0  0  0  0  0  0  0  0  0  0  0  0
    0.3134    0.4226    0.6844 H   0  0  0  0  0  0  0  0  0  0  0  0
    1.5300    2.0632    0.5727 H   0  0  0  0  0  0  0  0  0  0  0  0
    0.2312    1.8705   -3.1415 H   0  0  0  0  0  0  0  0  0  0  0  0
    1.7227    0.7645   -3.1415 H   0  0  0  0  0  0  0  0  0  0  0  0
  1  2  2  3
  1  5  1  0
  1  6  1  0
  2  3  1  0
  3  4  2  3
  3  7  1  0
  4  8  1  0
  4  9  1  0
 10 11  2  0
 10 13  1  0
 10 14  1  0
 11 12  2  0
 12 15  1  0
 12 16  1  0
M  RAD  1   2   2
M  END
>  <reaction>  (16) 
rxn_1793

>  <mol_properties>  (16) 
{"1": {"label": "*3", "atom_type": "Cd"}, "2": {"label": "*4", "atom_type": "Cd"}, "9": {"label": "*1", "atom_type": "Cd"}, "10": {"label": "*0", "atom_type": "Cdd"}, "12": {"label": "*2", "atom_type": "H0"}}

>  <type>  (16) 
unop_12

>  <geom_source>  (16) 
Heuristics

$$$$

     RDKit          3D

 16 14  0  0  0  0  0  0  0  0999 V2000
   -1.1397    1.0353   -0.4148 C   0  0  0  0  0  0  0  0  0  0  0  0
   -1.0285   -0.3981   -0.0658 C   0  0  0  0  0  0  0  0  0  0  0  0
   -2.0677    1.8684    0.0594 C   0  0  0  0  0  0  0  0  0  0  0  0
   -1.8406   -1.0481    0.7687 C   0  0  0  0  0  0  0  0  0  0  0  0
    3.3817   -0.0353    0.1387 C   0  0  0  0  0  3  0  0  0  0  0  0
    2.3242   -0.5928   -0.3785 C   0  0  0  0  0  0  0  0  0  0  0  0
    1.2668   -1.1505   -0.8957 C   0  0  0  0  0  0  0  0  0  0  0  0
   -0.4085    1.4305   -1.1084 H   0  0  0  0  0  0  0  0  0  0  0  0
   -0.0722   -1.0633   -0.6133 H   0  0  0  0  0  0  0  0  0  0  0  0
   -2.8330    1.5566    0.7543 H   0  0  0  0  0  0  0  0  0  0  0  0
   -2.0663    2.9035   -0.2567 H   0  0  0  0  0  0  0  0  0  0  0  0
   -2.6677   -0.5703    1.2719 H   0  0  0  0  0  0  0  0  0  0  0  0
   -1.6731   -2.1000    0.9575 H   0  0  0  0  0  0  0  0  0  0  0  0
    4.1758   -0.6502    0.5396 H   0  0  0  0  0  0  0  0  0  0  0  0
    3.4656    1.0425    0.1673 H   0  0  0  0  0  0  0  0  0  0  0  0
    1.1832   -2.2283   -0.9241 H   0  0  0  0  0  0  0  0  0  0  0  0
  1  3  2  3
  1  2  1  0
  1  8  1  0
  2  4  2  3
  2  9  1  0
  3 10  1  0
  3 11  1  0
  4 12  1  0
  4 13  1  0
  5  6  1  0
  5 14  1  0
  5 15  1  0
  6  7  3  0
  7 16  1  0
M  RAD  1   5   2
M  END
>  <reaction>  (17) 
rxn_1793

>  <mol_properties>  (17) 
{"1": {"label": "*3", "atom_type": "Cd"}, "2": {"label": "*4", "atom_type": "Cd"}, "9": {"label": "*1", "atom_type": "Cd"}, "10": {"label": "*0", "atom_type": "Cdd"}, "12": {"label": "*2", "atom_type": "H0"}}

>  <type>  (17) 
unop_13

>  <geom_source>  (17) 
AutoTST

$$$$
