
     RDKit          3D

  7  6  0  0  0  0  0  0  0  0999 V2000
    1.2985   -0.0065   -0.2721 C   0  0  0  0  0  0  0  0  0  0  0  0
    0.0000    0.0000   -0.2926 C   0  0  0  0  0  0  0  0  0  0  0  0
   -1.2985    0.0065   -0.3130 C   0  0  0  0  0  0  0  0  0  0  0  0
    1.8444   -0.7551    0.2895 H   0  0  0  0  0  0  0  0  0  0  0  0
    1.8693    0.7364   -0.8162 H   0  0  0  0  0  0  0  0  0  0  0  0
   -1.8658    0.5623    0.4239 H   0  0  0  0  0  0  0  0  0  0  0  0
   -1.8479   -0.5437   -1.0675 H   0  0  0  0  0  0  0  0  0  0  0  0
  1  2  2  0
  1  4  1  0
  1  5  1  0
  2  3  2  0
  3  6  1  0
  3  7  1  0
M  END
>  <reaction>  (1) 
rxn_256

>  <mol_properties>  (1) 
{"2": {"label": "donator", "atom_type": "Cd"}, "6": {"label": "d_hydrogen", "atom_type": "H0"}}

>  <type>  (1) 
r1h

$$$$

     RDKit          3D

  2  1  0  0  0  0  0  0  0  0999 V2000
    0.0000    0.0000    0.4855 O   0  0  0  0  0  1  0  0  0  0  0  0
    0.0000    0.0000   -0.4855 H   0  0  0  0  0  0  0  0  0  0  0  0
  1  2  1  0
M  RAD  1   1   2
M  END
>  <reaction>  (2) 
rxn_256

>  <mol_properties>  (2) 
{"0": {"label": "acceptor", "atom_type": "O2s"}}

>  <type>  (2) 
r2

$$$$

     RDKit          3D

  3  2  0  0  0  0  0  0  0  0999 V2000
   -0.0003    0.3867    0.0000 O   0  0  0  0  0  0  0  0  0  0  0  0
   -0.7617   -0.1940    0.0000 H   0  0  0  0  0  0  0  0  0  0  0  0
    0.7620   -0.1927    0.0000 H   0  0  0  0  0  0  0  0  0  0  0  0
  1  2  1  0
  1  3  1  0
M  END
>  <reaction>  (3) 
rxn_256

>  <mol_properties>  (3) 
{"0": {"label": "acceptor", "atom_type": "O2s"}, "1": {"label": "a_hydrogen", "atom_type": "H0"}}

>  <type>  (3) 
r2h

$$$$

     RDKit          3D

  9  7  0  0  0  0  0  0  0  0999 V2000
    2.4273    0.8575   -0.1131 O   0  0  0  0  0  1  0  0  0  0  0  0
   -1.8806    0.1920    0.1854 C   0  0  0  0  0  0  0  0  0  0  0  0
   -0.7004   -0.2869   -0.1000 C   0  0  0  0  0  0  0  0  0  0  0  0
    0.4753   -0.7180   -0.3888 C   0  0  0  0  0  0  0  0  0  0  0  0
   -2.5364    0.5572   -0.5955 H   0  0  0  0  0  0  0  0  0  0  0  0
   -2.2368    0.2261    1.2078 H   0  0  0  0  0  0  0  0  0  0  0  0
    0.7640   -1.7398   -0.5944 H   0  0  0  0  0  0  0  0  0  0  0  0
    1.3616    0.0583   -0.4507 H   0  0  0  0  0  0  0  0  0  0  0  0
    2.3260    0.8535    0.8494 H   0  0  0  0  0  0  0  0  0  0  0  0
  1  9  1  0
  2  3  2  0
  2  5  1  0
  2  6  1  0
  3  4  2  0
  4  7  1  0
  4  8  1  0
M  RAD  1   1   2
M  END
>  <reaction>  (4) 
rxn_256

>  <mol_properties>  (4) 
{"0": {"label": "*3", "atom_type": "O2s"}, "2": {"label": "*0", "atom_type": "Cdd"}, "3": {"label": "*1", "atom_type": "Cd"}, "7": {"label": "*2", "atom_type": "H0"}, "8": {"label": "*4", "atom_type": "H0"}}

>  <type>  (4) 
ts

$$$$

     RDKit          3D

  9  7  0  0  0  0  0  0  0  0999 V2000
    0.3631    0.5134    0.5239 C   0  0  0  0  0  0  0  0  0  0  0  0
    0.3631    0.5134   -0.7748 C   0  0  0  0  0  0  0  0  0  0  0  0
    0.3631    0.5134   -2.0734 C   0  0  0  0  0  3  0  0  0  0  0  0
   -0.3005   -0.3816    1.1940 H   0  0  0  0  0  0  0  0  0  0  0  0
    0.9161    1.2591    1.0823 H   0  0  0  0  0  0  0  0  0  0  0  0
   -0.3827    1.0664   -2.6319 H   0  0  0  0  0  0  0  0  0  0  0  0
    1.1089   -0.0397   -2.6319 H   0  0  0  0  0  0  0  0  0  0  0  0
   -0.8871   -1.1725    1.7863 O   0  0  0  0  0  0  0  0  0  0  0  0
   -0.2333   -1.6330    2.3131 H   0  0  0  0  0  0  0  0  0  0  0  0
  1  2  3  0
  1  5  1  0
  2  3  1  0
  3  6  1  0
  3  7  1  0
  4  8  1  0
  8  9  1  0
M  RAD  1   3   2
M  END
>  <reaction>  (5) 
rxn_256

>  <mol_properties>  (5) 
{"0": {"label": "*3", "atom_type": "O2s"}, "2": {"label": "*0", "atom_type": "Cdd"}, "3": {"label": "*1", "atom_type": "Cd"}, "7": {"label": "*2", "atom_type": "H0"}, "8": {"label": "*4", "atom_type": "H0"}}

>  <type>  (5) 
unop_1

>  <geom_source>  (5) 
Heuristics

$$$$

     RDKit          3D

  9  7  0  0  0  0  0  0  0  0999 V2000
    0.3747    0.5190    0.5430 C   0  0  0  0  0  0  0  0  0  0  0  0
    0.3747    0.5190   -0.7557 C   0  0  0  0  0  0  0  0  0  0  0  0
    0.3747    0.5190   -2.0543 C   0  0  0  0  0  3  0  0  0  0  0  0
   -0.2889   -0.3759    1.2131 H   0  0  0  0  0  0  0  0  0  0  0  0
    0.9277    1.2648    1.1014 H   0  0  0  0  0  0  0  0  0  0  0  0
   -0.3710    1.0720   -2.6128 H   0  0  0  0  0  0  0  0  0  0  0  0
    1.1205   -0.0340   -2.6128 H   0  0  0  0  0  0  0  0  0  0  0  0
   -0.8754   -1.1669    1.8054 O   0  0  0  0  0  0  0  0  0  0  0  0
   -0.8802   -1.9481    1.2517 H   0  0  0  0  0  0  0  0  0  0  0  0
  1  2  3  0
  1  5  1  0
  2  3  1  0
  3  6  1  0
  3  7  1  0
  4  8  1  0
  8  9  1  0
M  RAD  1   3   2
M  END
>  <reaction>  (6) 
rxn_256

>  <mol_properties>  (6) 
{"0": {"label": "*3", "atom_type": "O2s"}, "2": {"label": "*0", "atom_type": "Cdd"}, "3": {"label": "*1", "atom_type": "Cd"}, "7": {"label": "*2", "atom_type": "H0"}, "8": {"label": "*4", "atom_type": "H0"}}

>  <type>  (6) 
unop_2

>  <geom_source>  (6) 
Heuristics

$$$$

     RDKit          3D

  9  7  0  0  0  0  0  0  0  0999 V2000
    0.3661    0.5073    0.5188 C   0  0  0  0  0  0  0  0  0  0  0  0
    0.3661    0.5073   -0.7799 C   0  0  0  0  0  0  0  0  0  0  0  0
    0.3661    0.5073   -2.0786 C   0  0  0  0  0  3  0  0  0  0  0  0
   -0.2976   -0.3876    1.1889 H   0  0  0  0  0  0  0  0  0  0  0  0
    0.9191    1.2531    1.0772 H   0  0  0  0  0  0  0  0  0  0  0  0
   -0.3797    1.0603   -2.6370 H   0  0  0  0  0  0  0  0  0  0  0  0
    1.1118   -0.0457   -2.6370 H   0  0  0  0  0  0  0  0  0  0  0  0
   -0.8841   -1.1785    1.7812 O   0  0  0  0  0  0  0  0  0  0  0  0
   -0.3980   -1.2979    2.5975 H   0  0  0  0  0  0  0  0  0  0  0  0
  1  2  3  0
  1  5  1  0
  2  3  1  0
  3  6  1  0
  3  7  1  0
  4  8  1  0
  8  9  1  0
M  RAD  1   3   2
M  END
>  <reaction>  (7) 
rxn_256

>  <mol_properties>  (7) 
{"0": {"label": "*3", "atom_type": "O2s"}, "2": {"label": "*0", "atom_type": "Cdd"}, "3": {"label": "*1", "atom_type": "Cd"}, "7": {"label": "*2", "atom_type": "H0"}, "8": {"label": "*4", "atom_type": "H0"}}

>  <type>  (7) 
unop_3

>  <geom_source>  (7) 
Heuristics

$$$$

     RDKit          3D

  9  7  0  0  0  0  0  0  0  0999 V2000
    0.3908    0.5033    0.5379 C   0  0  0  0  0  0  0  0  0  0  0  0
    0.3908    0.5033   -0.7608 C   0  0  0  0  0  0  0  0  0  0  0  0
    0.3908    0.5033   -2.0595 C   0  0  0  0  0  3  0  0  0  0  0  0
   -0.2728   -0.3916    1.2080 H   0  0  0  0  0  0  0  0  0  0  0  0
    0.9438    1.2490    1.0963 H   0  0  0  0  0  0  0  0  0  0  0  0
   -0.3550    1.0563   -2.6179 H   0  0  0  0  0  0  0  0  0  0  0  0
    1.1366   -0.0497   -2.6179 H   0  0  0  0  0  0  0  0  0  0  0  0
   -0.8594   -1.1826    1.8003 O   0  0  0  0  0  0  0  0  0  0  0  0
   -1.7732   -1.0729    1.5361 H   0  0  0  0  0  0  0  0  0  0  0  0
  1  2  3  0
  1  5  1  0
  2  3  1  0
  3  6  1  0
  3  7  1  0
  4  8  1  0
  8  9  1  0
M  RAD  1   3   2
M  END
>  <reaction>  (8) 
rxn_256

>  <mol_properties>  (8) 
{"0": {"label": "*3", "atom_type": "O2s"}, "2": {"label": "*0", "atom_type": "Cdd"}, "3": {"label": "*1", "atom_type": "Cd"}, "7": {"label": "*2", "atom_type": "H0"}, "8": {"label": "*4", "atom_type": "H0"}}

>  <type>  (8) 
unop_4

>  <geom_source>  (8) 
Heuristics

$$$$

     RDKit          3D

  9  7  0  0  0  0  0  0  0  0999 V2000
    0.3719    0.5016    0.5169 C   0  0  0  0  0  0  0  0  0  0  0  0
    0.3719    0.5016   -0.7818 C   0  0  0  0  0  0  0  0  0  0  0  0
    0.3719    0.5016   -2.0804 C   0  0  0  0  0  3  0  0  0  0  0  0
   -0.2917   -0.3933    1.1870 H   0  0  0  0  0  0  0  0  0  0  0  0
    0.9249    1.2473    1.0753 H   0  0  0  0  0  0  0  0  0  0  0  0
   -0.3738    1.0546   -2.6388 H   0  0  0  0  0  0  0  0  0  0  0  0
    1.1177   -0.0514   -2.6389 H   0  0  0  0  0  0  0  0  0  0  0  0
   -0.8782   -1.1843    1.7793 O   0  0  0  0  0  0  0  0  0  0  0  0
   -0.7249   -0.9775    2.7016 H   0  0  0  0  0  0  0  0  0  0  0  0
  1  2  3  0
  1  5  1  0
  2  3  1  0
  3  6  1  0
  3  7  1  0
  4  8  1  0
  8  9  1  0
M  RAD  1   3   2
M  END
>  <reaction>  (9) 
rxn_256

>  <mol_properties>  (9) 
{"0": {"label": "*3", "atom_type": "O2s"}, "2": {"label": "*0", "atom_type": "Cdd"}, "3": {"label": "*1", "atom_type": "Cd"}, "7": {"label": "*2", "atom_type": "H0"}, "8": {"label": "*4", "atom_type": "H0"}}

>  <type>  (9) 
unop_5

>  <geom_source>  (9) 
Heuristics

$$$$

     RDKit          3D

  9  7  0  0  0  0  0  0  0  0999 V2000
    0.3900    0.4986    0.5309 C   0  0  0  0  0  0  0  0  0  0  0  0
    0.3900    0.4986   -0.7678 C   0  0  0  0  0  0  0  0  0  0  0  0
    0.3900    0.4986   -2.0664 C   0  0  0  0  0  3  0  0  0  0  0  0
   -0.2736   -0.3963    1.2010 H   0  0  0  0  0  0  0  0  0  0  0  0
    0.9431    1.2444    1.0893 H   0  0  0  0  0  0  0  0  0  0  0  0
   -0.3557    1.0516   -2.6249 H   0  0  0  0  0  0  0  0  0  0  0  0
    1.1358   -0.0544   -2.6249 H   0  0  0  0  0  0  0  0  0  0  0  0
   -0.8601   -1.1873    1.7933 O   0  0  0  0  0  0  0  0  0  0  0  0
   -1.7316   -0.8128    1.9246 H   0  0  0  0  0  0  0  0  0  0  0  0
  1  2  3  0
  1  5  1  0
  2  3  1  0
  3  6  1  0
  3  7  1  0
  4  8  1  0
  8  9  1  0
M  RAD  1   3   2
M  END
>  <reaction>  (10) 
rxn_256

>  <mol_properties>  (10) 
{"0": {"label": "*3", "atom_type": "O2s"}, "2": {"label": "*0", "atom_type": "Cdd"}, "3": {"label": "*1", "atom_type": "Cd"}, "7": {"label": "*2", "atom_type": "H0"}, "8": {"label": "*4", "atom_type": "H0"}}

>  <type>  (10) 
unop_6

>  <geom_source>  (10) 
Heuristics

$$$$

     RDKit          3D

  9  7  0  0  0  0  0  0  0  0999 V2000
    0.3858    0.4965    0.5239 C   0  0  0  0  0  0  0  0  0  0  0  0
    0.3858    0.4965   -0.7748 C   0  0  0  0  0  0  0  0  0  0  0  0
    0.3858    0.4965   -2.0734 C   0  0  0  0  0  3  0  0  0  0  0  0
   -0.2778   -0.3984    1.1940 H   0  0  0  0  0  0  0  0  0  0  0  0
    0.9388    1.2423    1.0823 H   0  0  0  0  0  0  0  0  0  0  0  0
   -0.3600    1.0495   -2.6319 H   0  0  0  0  0  0  0  0  0  0  0  0
    1.1315   -0.0565   -2.6319 H   0  0  0  0  0  0  0  0  0  0  0  0
   -0.8644   -1.1893    1.7863 O   0  0  0  0  0  0  0  0  0  0  0  0
   -1.4948   -0.6975    2.3131 H   0  0  0  0  0  0  0  0  0  0  0  0
  1  2  3  0
  1  5  1  0
  2  3  1  0
  3  6  1  0
  3  7  1  0
  4  8  1  0
  8  9  1  0
M  RAD  1   3   2
M  END
>  <reaction>  (11) 
rxn_256

>  <mol_properties>  (11) 
{"0": {"label": "*3", "atom_type": "O2s"}, "2": {"label": "*0", "atom_type": "Cdd"}, "3": {"label": "*1", "atom_type": "Cd"}, "7": {"label": "*2", "atom_type": "H0"}, "8": {"label": "*4", "atom_type": "H0"}}

>  <type>  (11) 
unop_7

>  <geom_source>  (11) 
Heuristics

$$$$

     RDKit          3D

  9  7  0  0  0  0  0  0  0  0999 V2000
    0.3638    0.5180    0.5309 C   0  0  0  0  0  0  0  0  0  0  0  0
    0.3638    0.5180   -0.7678 C   0  0  0  0  0  0  0  0  0  0  0  0
    0.3638    0.5180   -2.0664 C   0  0  0  0  0  3  0  0  0  0  0  0
   -0.2998   -0.3769    1.2010 H   0  0  0  0  0  0  0  0  0  0  0  0
    0.9168    1.2638    1.0893 H   0  0  0  0  0  0  0  0  0  0  0  0
   -0.3819    1.0710   -2.6249 H   0  0  0  0  0  0  0  0  0  0  0  0
    1.1096   -0.0350   -2.6249 H   0  0  0  0  0  0  0  0  0  0  0  0
   -0.8863   -1.1678    1.7933 O   0  0  0  0  0  0  0  0  0  0  0  0
   -0.2749   -1.8930    1.9246 H   0  0  0  0  0  0  0  0  0  0  0  0
  1  2  3  0
  1  5  1  0
  2  3  1  0
  3  6  1  0
  3  7  1  0
  4  8  1  0
  8  9  1  0
M  RAD  1   3   2
M  END
>  <reaction>  (12) 
rxn_256

>  <mol_properties>  (12) 
{"0": {"label": "*3", "atom_type": "O2s"}, "2": {"label": "*0", "atom_type": "Cdd"}, "3": {"label": "*1", "atom_type": "Cd"}, "7": {"label": "*2", "atom_type": "H0"}, "8": {"label": "*4", "atom_type": "H0"}}

>  <type>  (12) 
unop_8

>  <geom_source>  (12) 
Heuristics

$$$$

     RDKit          3D

  9  7  0  0  0  0  0  0  0  0999 V2000
    0.3878    0.5093    0.5430 C   0  0  0  0  0  0  0  0  0  0  0  0
    0.3878    0.5093   -0.7557 C   0  0  0  0  0  0  0  0  0  0  0  0
    0.3878    0.5093   -2.0543 C   0  0  0  0  0  3  0  0  0  0  0  0
   -0.2758   -0.3856    1.2131 H   0  0  0  0  0  0  0  0  0  0  0  0
    0.9408    1.2551    1.1014 H   0  0  0  0  0  0  0  0  0  0  0  0
   -0.3579    1.0623   -2.6128 H   0  0  0  0  0  0  0  0  0  0  0  0
    1.1336   -0.0437   -2.6128 H   0  0  0  0  0  0  0  0  0  0  0  0
   -0.8623   -1.1766    1.8054 O   0  0  0  0  0  0  0  0  0  0  0  0
   -1.6085   -1.4080    1.2517 H   0  0  0  0  0  0  0  0  0  0  0  0
  1  2  3  0
  1  5  1  0
  2  3  1  0
  3  6  1  0
  3  7  1  0
  4  8  1  0
  8  9  1  0
M  RAD  1   3   2
M  END
>  <reaction>  (13) 
rxn_256

>  <mol_properties>  (13) 
{"0": {"label": "*3", "atom_type": "O2s"}, "2": {"label": "*0", "atom_type": "Cdd"}, "3": {"label": "*1", "atom_type": "Cd"}, "7": {"label": "*2", "atom_type": "H0"}, "8": {"label": "*4", "atom_type": "H0"}}

>  <type>  (13) 
unop_9

>  <geom_source>  (13) 
Heuristics

$$$$

     RDKit          3D

  9  7  0  0  0  0  0  0  0  0999 V2000
    0.3681    0.5201    0.5379 C   0  0  0  0  0  0  0  0  0  0  0  0
    0.3681    0.5201   -0.7608 C   0  0  0  0  0  0  0  0  0  0  0  0
    0.3681    0.5201   -2.0595 C   0  0  0  0  0  3  0  0  0  0  0  0
   -0.2955   -0.3748    1.2080 H   0  0  0  0  0  0  0  0  0  0  0  0
    0.9211    1.2659    1.0963 H   0  0  0  0  0  0  0  0  0  0  0  0
   -0.3777    1.0731   -2.6179 H   0  0  0  0  0  0  0  0  0  0  0  0
    1.1139   -0.0329   -2.6179 H   0  0  0  0  0  0  0  0  0  0  0  0
   -0.8820   -1.1658    1.8003 O   0  0  0  0  0  0  0  0  0  0  0  0
   -0.5117   -2.0084    1.5361 H   0  0  0  0  0  0  0  0  0  0  0  0
  1  2  3  0
  1  5  1  0
  2  3  1  0
  3  6  1  0
  3  7  1  0
  4  8  1  0
  8  9  1  0
M  RAD  1   3   2
M  END
>  <reaction>  (14) 
rxn_256

>  <mol_properties>  (14) 
{"0": {"label": "*3", "atom_type": "O2s"}, "2": {"label": "*0", "atom_type": "Cdd"}, "3": {"label": "*1", "atom_type": "Cd"}, "7": {"label": "*2", "atom_type": "H0"}, "8": {"label": "*4", "atom_type": "H0"}}

>  <type>  (14) 
unop_10

>  <geom_source>  (14) 
Heuristics

$$$$

     RDKit          3D

  9  7  0  0  0  0  0  0  0  0999 V2000
    0.3792    0.4976    0.5188 C   0  0  0  0  0  0  0  0  0  0  0  0
    0.3792    0.4976   -0.7799 C   0  0  0  0  0  0  0  0  0  0  0  0
    0.3792    0.4976   -2.0786 C   0  0  0  0  0  3  0  0  0  0  0  0
   -0.2845   -0.3973    1.1889 H   0  0  0  0  0  0  0  0  0  0  0  0
    0.9322    1.2434    1.0772 H   0  0  0  0  0  0  0  0  0  0  0  0
   -0.3666    1.0506   -2.6370 H   0  0  0  0  0  0  0  0  0  0  0  0
    1.1249   -0.0554   -2.6370 H   0  0  0  0  0  0  0  0  0  0  0  0
   -0.8710   -1.1883    1.7812 O   0  0  0  0  0  0  0  0  0  0  0  0
   -1.1263   -0.7578    2.5975 H   0  0  0  0  0  0  0  0  0  0  0  0
  1  2  3  0
  1  5  1  0
  2  3  1  0
  3  6  1  0
  3  7  1  0
  4  8  1  0
  8  9  1  0
M  RAD  1   3   2
M  END
>  <reaction>  (15) 
rxn_256

>  <mol_properties>  (15) 
{"0": {"label": "*3", "atom_type": "O2s"}, "2": {"label": "*0", "atom_type": "Cdd"}, "3": {"label": "*1", "atom_type": "Cd"}, "7": {"label": "*2", "atom_type": "H0"}, "8": {"label": "*4", "atom_type": "H0"}}

>  <type>  (15) 
unop_11

>  <geom_source>  (15) 
Heuristics

$$$$

     RDKit          3D

  9  7  0  0  0  0  0  0  0  0999 V2000
    0.3819    0.5151    0.5449 C   0  0  0  0  0  0  0  0  0  0  0  0
    0.3819    0.5151   -0.7538 C   0  0  0  0  0  0  0  0  0  0  0  0
    0.3819    0.5151   -2.0525 C   0  0  0  0  0  3  0  0  0  0  0  0
   -0.2817   -0.3798    1.2150 H   0  0  0  0  0  0  0  0  0  0  0  0
    0.9350    1.2608    1.1033 H   0  0  0  0  0  0  0  0  0  0  0  0
   -0.3638    1.0681   -2.6109 H   0  0  0  0  0  0  0  0  0  0  0  0
    1.1277   -0.0379   -2.6109 H   0  0  0  0  0  0  0  0  0  0  0  0
   -0.8682   -1.1708    1.8072 O   0  0  0  0  0  0  0  0  0  0  0  0
   -1.2816   -1.7283    1.1476 H   0  0  0  0  0  0  0  0  0  0  0  0
  1  2  3  0
  1  5  1  0
  2  3  1  0
  3  6  1  0
  3  7  1  0
  4  8  1  0
  8  9  1  0
M  RAD  1   3   2
M  END
>  <reaction>  (16) 
rxn_256

>  <mol_properties>  (16) 
{"0": {"label": "*3", "atom_type": "O2s"}, "2": {"label": "*0", "atom_type": "Cdd"}, "3": {"label": "*1", "atom_type": "Cd"}, "7": {"label": "*2", "atom_type": "H0"}, "8": {"label": "*4", "atom_type": "H0"}}

>  <type>  (16) 
unop_12

>  <geom_source>  (16) 
Heuristics

$$$$

     RDKit          3D

  9  7  0  0  0  0  0  0  0  0999 V2000
    2.4006    0.5898   -0.2958 O   0  0  0  0  0  0  0  0  0  0  0  0
   -1.9785    0.2670    0.2377 C   0  0  0  0  0  3  0  0  0  0  0  0
   -0.8174   -0.1592   -0.1707 C   0  0  0  0  0  0  0  0  0  0  0  0
    0.3436   -0.5856   -0.5791 C   0  0  0  0  0  0  0  0  0  0  0  0
   -2.1973    1.3261    0.2349 H   0  0  0  0  0  0  0  0  0  0  0  0
   -2.7237   -0.4382    0.5796 H   0  0  0  0  0  0  0  0  0  0  0  0
    0.5609   -1.6450   -0.5798 H   0  0  0  0  0  0  0  0  0  0  0  0
    2.9424    0.7004    0.5257 H   0  0  0  0  0  0  0  0  0  0  0  0
    1.4694   -0.0553    0.0476 H   0  0  0  0  0  0  0  0  0  0  0  0
  1  8  1  0
  1  9  1  0
  2  3  1  0
  2  5  1  0
  2  6  1  0
  3  4  3  0
  4  7  1  0
M  RAD  1   2   2
M  END
>  <reaction>  (17) 
rxn_256

>  <mol_properties>  (17) 
{"0": {"label": "*3", "atom_type": "O2s"}, "2": {"label": "*0", "atom_type": "Cdd"}, "3": {"label": "*1", "atom_type": "Cd"}, "7": {"label": "*2", "atom_type": "H0"}, "8": {"label": "*4", "atom_type": "H0"}}

>  <type>  (17) 
unop_13

>  <geom_source>  (17) 
AutoTST

$$$$
