
     RDKit          3D

 15 15  0  0  0  0  0  0  0  0999 V2000
    2.2031   -0.2111   -0.1693 C   0  0  0  0  0  0  0  0  0  0  0  0
    0.7140   -0.0314   -0.0623 C   0  0  0  0  0  0  0  0  0  0  0  0
   -0.0114    0.5491   -1.0982 C   0  0  0  0  0  0  0  0  0  0  0  0
   -1.3882    0.6886   -1.0150 C   0  0  0  0  0  0  0  0  0  0  0  0
   -2.0661    0.2493    0.1118 C   0  0  0  0  0  0  0  0  0  0  0  0
   -1.3551   -0.3278    1.1528 C   0  0  0  0  0  0  0  0  0  0  0  0
    0.0216   -0.4648    1.0642 C   0  0  0  0  0  0  0  0  0  0  0  0
    2.6776   -0.1836    0.8122 H   0  0  0  0  0  0  0  0  0  0  0  0
    2.4446   -1.1749   -0.6249 H   0  0  0  0  0  0  0  0  0  0  0  0
    2.6532    0.5664   -0.7875 H   0  0  0  0  0  0  0  0  0  0  0  0
    0.5104    0.8989   -1.9819 H   0  0  0  0  0  0  0  0  0  0  0  0
   -1.9328    1.1452   -1.8322 H   0  0  0  0  0  0  0  0  0  0  0  0
   -3.1409    0.3597    0.1800 H   0  0  0  0  0  0  0  0  0  0  0  0
   -1.8736   -0.6702    2.0398 H   0  0  0  0  0  0  0  0  0  0  0  0
    0.5695   -0.9141    1.8849 H   0  0  0  0  0  0  0  0  0  0  0  0
  1  2  1  0
  1  8  1  0
  1  9  1  0
  1 10  1  0
  2  3  2  0
  2  7  1  0
  3  4  1  0
  3 11  1  0
  4  5  2  0
  4 12  1  0
  5  6  1  0
  5 13  1  0
  6  7  2  0
  6 14  1  0
  7 15  1  0
M  END
>  <reaction>  (1) 
rxn_262

>  <mol_properties>  (1) 
{"4": {"label": "donator", "atom_type": "Cd"}, "12": {"label": "d_hydrogen", "atom_type": "H0"}}

>  <type>  (1) 
r1h

$$$$

     RDKit          3D

  1  0  0  0  0  0  0  0  0  0999 V2000
    0.0000    0.0000    0.0000 H   0  0  0  0  0 15  0  0  0  0  0  0
M  END
>  <reaction>  (2) 
rxn_262

>  <mol_properties>  (2) 
{"0": {"label": "acceptor", "atom_type": "H0"}}

>  <type>  (2) 
r2

$$$$

     RDKit          3D

  2  1  0  0  0  0  0  0  0  0999 V2000
    0.0000    0.0000    0.3721 H   0  0  0  0  0  0  0  0  0  0  0  0
    0.0000    0.0000   -0.3721 H   0  0  0  0  0  0  0  0  0  0  0  0
  1  2  1  0
M  END
>  <reaction>  (3) 
rxn_262

>  <mol_properties>  (3) 
{"0": {"label": "a_hydrogen", "atom_type": "H0"}, "1": {"label": "acceptor", "atom_type": "H0"}}

>  <type>  (3) 
r2h

$$$$

     RDKit          3D

 16 15  0  0  0  0  0  0  0  0999 V2000
    0.0258   -0.0003   -2.5022 C   0  0  0  0  0  0  0  0  0  0  0  0
    0.0256   -0.0003   -0.9979 C   0  0  0  0  0  0  0  0  0  0  0  0
    0.0257    1.1979   -0.2884 C   0  0  0  0  0  0  0  0  0  0  0  0
   -0.0047    1.2097    1.1017 C   0  0  0  0  0  0  0  0  0  0  0  0
   -0.0335    0.0004    1.7514 C   0  0  0  0  0  0  0  0  0  0  0  0
   -0.0313   -1.2093    1.1017 C   0  0  0  0  0  0  0  0  0  0  0  0
   -0.0008   -1.1982   -0.2884 C   0  0  0  0  0  0  0  0  0  0  0  0
    0.5178   -0.8889   -2.8987 H   0  0  0  0  0  0  0  0  0  0  0  0
   -0.9962    0.0110   -2.8892 H   0  0  0  0  0  0  0  0  0  0  0  0
    0.5373    0.8772   -2.8987 H   0  0  0  0  0  0  0  0  0  0  0  0
    0.0523    2.1377   -0.8291 H   0  0  0  0  0  0  0  0  0  0  0  0
   -0.0021    2.1449    1.6480 H   0  0  0  0  0  0  0  0  0  0  0  0
   -0.0614    0.0007    3.2038 H   0  0  0  0  0  0  0  0  0  0  0  0
   -0.0493   -2.1443    1.6480 H   0  0  0  0  0  0  0  0  0  0  0  0
    0.0052   -2.1383   -0.8291 H   0  0  0  0  0  0  0  0  0  0  0  0
   -0.0776    0.0009    4.0660 H   0  0  0  0  0 15  0  0  0  0  0  0
  1  2  1  0
  1  8  1  0
  1  9  1  0
  1 10  1  0
  2  3  2  0
  2  7  1  0
  3  4  1  0
  3 11  1  0
  4  5  2  0
  4 12  1  0
  5  6  1  0
  5 13  1  0
  6  7  2  0
  6 14  1  0
  7 15  1  0
M  END
>  <reaction>  (4) 
rxn_262

>  <mol_properties>  (4) 
{"3": {"label": "*4", "atom_type": "Cd"}, "4": {"label": "*3", "atom_type": "Cd"}, "12": {"label": "*2", "atom_type": "H0"}, "15": {"label": "*1", "atom_type": "H0"}}

>  <type>  (4) 
ts

$$$$

     RDKit          3D

 16 15  0  0  0  0  0  0  0  0999 V2000
    0.0257   -0.0003   -2.4941 C   0  0  0  0  0  0  0  0  0  0  0  0
    0.0257   -0.0003   -0.9904 C   0  0  0  0  0  0  0  0  0  0  0  0
    0.0257    1.1940   -0.2763 C   0  0  0  0  0  0  0  0  0  0  0  0
   -0.0048    1.1974    1.1097 C   0  0  0  0  0  0  0  0  0  0  0  0
   -0.0343    0.0004    1.8087 C   0  0  0  0  0  0  0  0  0  0  0  0
   -0.0312   -1.1970    1.1097 C   0  0  0  0  0  0  0  0  0  0  0  0
   -0.0007   -1.1943   -0.2763 C   0  0  0  0  0  0  0  0  0  0  0  0
    0.5172   -0.8892   -2.8908 H   0  0  0  0  0  0  0  0  0  0  0  0
   -0.9965    0.0110   -2.8809 H   0  0  0  0  0  0  0  0  0  0  0  0
    0.5367    0.8776   -2.8908 H   0  0  0  0  0  0  0  0  0  0  0  0
    0.0523    2.1351   -0.8141 H   0  0  0  0  0  0  0  0  0  0  0  0
   -0.0021    2.1386    1.6454 H   0  0  0  0  0  0  0  0  0  0  0  0
   -0.0597    0.0007    3.1075 H   0  0  0  0  0  0  0  0  0  0  0  0
   -0.0493   -2.1380    1.6454 H   0  0  0  0  0  0  0  0  0  0  0  0
    0.0052   -2.1358   -0.8141 H   0  0  0  0  0  0  0  0  0  0  0  0
   -0.0771    0.0009    4.0004 H   0  0  0  0  0 15  0  0  0  0  0  0
  1  2  1  0
  1  8  1  0
  1  9  1  0
  1 10  1  0
  2  3  2  0
  2  7  1  0
  3  4  1  0
  3 11  1  0
  4  5  2  0
  4 12  1  0
  5  6  1  0
  5 13  1  0
  6  7  2  0
  6 14  1  0
  7 15  1  0
M  END
>  <reaction>  (5) 
rxn_262

>  <mol_properties>  (5) 
{"3": {"label": "*4", "atom_type": "Cd"}, "4": {"label": "*3", "atom_type": "Cd"}, "12": {"label": "*2", "atom_type": "H0"}, "15": {"label": "*1", "atom_type": "H0"}}

>  <type>  (5) 
unop_1

>  <geom_source>  (5) 
Heuristics

$$$$

     RDKit          3D

 16 15  0  0  0  0  0  0  0  0999 V2000
    2.3468    0.1259   -0.0852 C   0  0  0  0  0  0  0  0  0  0  0  0
    0.8496    0.0896   -0.1672 C   0  0  0  0  0  0  0  0  0  0  0  0
    0.0945    1.2256    0.1679 C   0  0  0  0  0  0  0  0  0  0  0  0
    0.1883   -1.1001   -0.5142 C   0  0  0  0  0  0  0  0  0  0  0  0
   -1.3028    1.1785    0.1265 C   0  0  0  0  0  0  0  0  0  0  0  0
   -1.2092   -1.1420   -0.5541 C   0  0  0  0  0  0  0  0  0  0  0  0
   -1.9532   -0.0036   -0.2351 C   0  0  0  0  0  0  0  0  0  0  0  0
    2.7269    1.1449   -0.3118 H   0  0  0  0  0  0  0  0  0  0  0  0
    2.7965   -0.5787   -0.8170 H   0  0  0  0  0  0  0  0  0  0  0  0
    2.6675   -0.1611    0.9380 H   0  0  0  0  0  0  0  0  0  0  0  0
    0.5864    2.1453    0.4596 H   0  0  0  0  0  0  0  0  0  0  0  0
    0.7534   -1.9925   -0.7541 H   0  0  0  0  0  0  0  0  0  0  0  0
   -1.8837    2.0557    0.3781 H   0  0  0  0  0  0  0  0  0  0  0  0
   -1.7178   -2.0566   -0.8280 H   0  0  0  0  0  0  0  0  0  0  0  0
   -2.4781   -0.6132    1.7734 H   0  0  0  0  0 15  0  0  0  0  0  0
   -2.4652   -0.3177    0.4232 H   0  0  0  0  0  0  0  0  0  0  0  0
  1  2  1  0
  1  8  1  0
  1  9  1  0
  1 10  1  0
  2  3  2  0
  2  4  1  0
  3  5  1  0
  3 11  1  0
  4  6  2  0
  4 12  1  0
  5  7  2  0
  5 13  1  0
  6  7  1  0
  6 14  1  0
  7 16  1  0
M  END
>  <reaction>  (6) 
rxn_262

>  <mol_properties>  (6) 
{"3": {"label": "*4", "atom_type": "Cd"}, "4": {"label": "*3", "atom_type": "Cd"}, "12": {"label": "*2", "atom_type": "H0"}, "15": {"label": "*1", "atom_type": "H0"}}

>  <type>  (6) 
unop_2

>  <geom_source>  (6) 
AutoTST

$$$$

     RDKit          3D

 16 15  0  0  0  0  0  0  0  0999 V2000
    2.1163   -0.0414   -1.3374 C   0  0  0  0  0  0  0  0  0  0  0  0
    0.8229   -0.0172   -0.5782 C   0  0  0  0  0  0  0  0  0  0  0  0
    0.1684   -1.2177   -0.2567 C   0  0  0  0  0  0  0  0  0  0  0  0
    0.2914    1.2009   -0.1239 C   0  0  0  0  0  0  0  0  0  0  0  0
   -1.0182   -1.1954    0.4833 C   0  0  0  0  0  0  0  0  0  0  0  0
   -1.5505    0.0214    0.9168 C   0  0  0  0  0  0  0  0  0  0  0  0
   -0.8954    1.2181    0.6159 C   0  0  0  0  0  0  0  0  0  0  0  0
    2.1452   -0.9058   -2.0345 H   0  0  0  0  0  0  0  0  0  0  0  0
    2.2364    0.8866   -1.9361 H   0  0  0  0  0  0  0  0  0  0  0  0
    2.9619   -0.1236   -0.6231 H   0  0  0  0  0  0  0  0  0  0  0  0
    0.5755   -2.1682   -0.5787 H   0  0  0  0  0  0  0  0  0  0  0  0
   -1.5243   -2.1206    0.7249 H   0  0  0  0  0  0  0  0  0  0  0  0
   -2.7259    0.0409    1.6518 H   0  0  0  0  0  0  0  0  0  0  0  0
   -1.3066    2.1579    0.9599 H   0  0  0  0  0  0  0  0  0  0  0  0
    0.7945    2.1348   -0.3423 H   0  0  0  0  0  0  0  0  0  0  0  0
   -3.0916    0.1292    2.4585 H   0  0  0  0  0 15  0  0  0  0  0  0
  1  2  1  0
  1  8  1  0
  1  9  1  0
  1 10  1  0
  2  3  2  0
  2  4  1  0
  3  5  1  0
  3 11  1  0
  4  7  2  0
  4 15  1  0
  5  6  2  0
  5 12  1  0
  6  7  1  0
  6 13  1  0
  7 14  1  0
M  END
>  <reaction>  (7) 
rxn_262

>  <mol_properties>  (7) 
{"3": {"label": "*4", "atom_type": "Cd"}, "4": {"label": "*3", "atom_type": "Cd"}, "12": {"label": "*2", "atom_type": "H0"}, "15": {"label": "*1", "atom_type": "H0"}}

>  <type>  (7) 
unop_3

>  <geom_source>  (7) 
gaussian_log

$$$$
