
     RDKit          3D

 12 11  0  0  0  0  0  0  0  0999 V2000
    1.4428    0.2441    1.3554 C   0  0  0  0  0  0  0  0  0  0  0  0
    0.3166    0.4887    0.4026 C   0  0  0  0  0  0  0  0  0  0  0  0
   -0.8306    1.0759    0.7113 C   0  0  0  0  0  0  0  0  0  0  0  0
   -1.9569    1.3205   -0.2415 C   0  0  0  0  0  0  0  0  0  0  0  0
    1.6690   -0.8228    1.4301 H   0  0  0  0  0  0  0  0  0  0  0  0
    2.3573    0.7388    1.0175 H   0  0  0  0  0  0  0  0  0  0  0  0
    1.2058    0.6125    2.3545 H   0  0  0  0  0  0  0  0  0  0  0  0
    0.4700    0.1508   -0.6205 H   0  0  0  0  0  0  0  0  0  0  0  0
   -0.9840    1.4138    1.7343 H   0  0  0  0  0  0  0  0  0  0  0  0
   -2.8714    0.8258    0.0963 H   0  0  0  0  0  0  0  0  0  0  0  0
   -2.1831    2.3874   -0.3163 H   0  0  0  0  0  0  0  0  0  0  0  0
   -1.7199    0.9521   -1.2407 H   0  0  0  0  0  0  0  0  0  0  0  0
  1  2  1  0
  1  5  1  0
  1  6  1  0
  1  7  1  0
  2  3  2  3
  2  8  1  0
  3  4  1  0
  3  9  1  0
  4 10  1  0
  4 11  1  0
  4 12  1  0
M  END
>  <reaction>  (1) 
rxn_758

>  <mol_properties>  (1) 
{"3": {"label": "donator", "atom_type": "Cs"}, "11": {"label": "d_hydrogen", "atom_type": "H0"}}

>  <type>  (1) 
r1h

$$$$

     RDKit          3D

  4  3  0  0  0  0  0  0  0  0999 V2000
    0.0000    0.0000    0.0000 C   0  0  0  0  0  3  0  0  0  0  0  0
    1.0638   -0.1747    0.0540 H   0  0  0  0  0  0  0  0  0  0  0  0
   -0.6833   -0.8351   -0.0280 H   0  0  0  0  0  0  0  0  0  0  0  0
   -0.3805    1.0098   -0.0260 H   0  0  0  0  0  0  0  0  0  0  0  0
  1  2  1  0
  1  3  1  0
  1  4  1  0
M  RAD  1   1   2
M  END
>  <reaction>  (2) 
rxn_758

>  <mol_properties>  (2) 
{"0": {"label": "acceptor", "atom_type": "Cs"}}

>  <type>  (2) 
r2

$$$$

     RDKit          3D

  5  4  0  0  0  0  0  0  0  0999 V2000
    0.0000    0.0000    0.0000 C   0  0  0  0  0  0  0  0  0  0  0  0
   -0.6486   -0.7720   -0.4113 H   0  0  0  0  0  0  0  0  0  0  0  0
   -0.3482    0.9787   -0.3267 H   0  0  0  0  0  0  0  0  0  0  0  0
   -0.0223   -0.0487    1.0876 H   0  0  0  0  0  0  0  0  0  0  0  0
    1.0191   -0.1580   -0.3496 H   0  0  0  0  0  0  0  0  0  0  0  0
  1  2  1  0
  1  3  1  0
  1  4  1  0
  1  5  1  0
M  END
>  <reaction>  (3) 
rxn_758

>  <mol_properties>  (3) 
{"0": {"label": "acceptor", "atom_type": "Cs"}, "4": {"label": "a_hydrogen", "atom_type": "H0"}}

>  <type>  (3) 
r2h

$$$$

     RDKit          3D

 16 14  0  0  0  0  0  0  0  0999 V2000
   -0.5931   -1.3111    2.6140 C   0  0  0  0  0  3  0  0  0  0  0  0
   -0.4947   -2.1576    1.9425 H   0  0  0  0  0  0  0  0  0  0  0  0
   -1.6128   -0.9754    2.7721 H   0  0  0  0  0  0  0  0  0  0  0  0
    0.0090   -1.3712    3.5145 H   0  0  0  0  0  0  0  0  0  0  0  0
   -0.1011    0.0585   -2.6132 C   0  0  0  0  0  0  0  0  0  0  0  0
    0.5170    0.1053   -1.2539 C   0  0  0  0  0  0  0  0  0  0  0  0
   -0.0354    0.6695   -0.1802 C   0  0  0  0  0  0  0  0  0  0  0  0
    0.5508    0.6742    1.1638 C   0  0  0  0  0  0  0  0  0  0  0  0
    0.5361    0.5506   -3.3531 H   0  0  0  0  0  0  0  0  0  0  0  0
   -0.2342   -0.9738   -2.9487 H   0  0  0  0  0  0  0  0  0  0  0  0
   -1.0762    0.5476   -2.6242 H   0  0  0  0  0  0  0  0  0  0  0  0
    1.4971   -0.3561   -1.1519 H   0  0  0  0  0  0  0  0  0  0  0  0
   -1.0160    1.1292   -0.2853 H   0  0  0  0  0  0  0  0  0  0  0  0
    1.6076    0.4117    1.1940 H   0  0  0  0  0  0  0  0  0  0  0  0
    0.3456    1.5706    1.7470 H   0  0  0  0  0  0  0  0  0  0  0  0
   -0.0001   -0.2373    1.8493 H   0  0  0  0  0  0  0  0  0  0  0  0
  1  2  1  0
  1  3  1  0
  1  4  1  0
  5  6  1  0
  5  9  1  0
  5 10  1  0
  5 11  1  0
  6  7  2  3
  6 12  1  0
  7  8  1  0
  7 13  1  0
  8 14  1  0
  8 15  1  0
  8 16  1  0
M  RAD  1   1   2
M  END
>  <reaction>  (4) 
rxn_758

>  <mol_properties>  (4) 
{"0": {"label": "*3", "atom_type": "Cs"}, "1": {"label": "*4", "atom_type": "H0"}, "6": {"label": "*0", "atom_type": "Cd"}, "7": {"label": "*1", "atom_type": "Cs"}, "15": {"label": "*2", "atom_type": "H0"}}

>  <type>  (4) 
ts

$$$$

     RDKit          3D

 16 14  0  0  0  0  0  0  0  0999 V2000
    0.0020   -1.4822    2.2172 C   0  0  0  0  0  0  0  0  0  0  0  0
    0.8911   -1.6329    2.8275 H   0  0  0  0  0  0  0  0  0  0  0  0
   -0.3882   -2.4479    1.8995 H   0  0  0  0  0  0  0  0  0  0  0  0
   -0.6371   -0.9828    2.9437 H   0  0  0  0  0  0  0  0  0  0  0  0
    0.0020   -0.1297   -2.4910 C   0  0  0  0  0  0  0  0  0  0  0  0
    0.0020   -0.1297   -0.9956 C   0  0  0  0  0  0  0  0  0  0  0  0
    0.0020    0.9535   -0.2322 C   0  0  0  0  0  0  0  0  0  0  0  0
    0.0020    0.9535    1.2632 C   0  0  0  0  0  3  0  0  0  0  0  0
    0.8799   -0.6497   -2.8835 H   0  0  0  0  0  0  0  0  0  0  0  0
   -0.8759   -0.6497   -2.8835 H   0  0  0  0  0  0  0  0  0  0  0  0
    0.0020    0.8861   -2.8888 H   0  0  0  0  0  0  0  0  0  0  0  0
    0.0020   -1.1059   -0.5145 H   0  0  0  0  0  0  0  0  0  0  0  0
    0.0020    1.9297   -0.7133 H   0  0  0  0  0  0  0  0  0  0  0  0
    0.8799    1.4735    1.6557 H   0  0  0  0  0  0  0  0  0  0  0  0
   -0.8759    1.4735    1.6557 H   0  0  0  0  0  0  0  0  0  0  0  0
    0.0020   -0.2655    1.7406 H   0  0  0  0  0  0  0  0  0  0  0  0
  1  2  1  0
  1  3  1  0
  1  4  1  0
  1 16  1  0
  5  6  1  0
  5  9  1  0
  5 10  1  0
  5 11  1  0
  6  7  2  3
  6 12  1  0
  7  8  1  0
  7 13  1  0
  8 14  1  0
  8 15  1  0
M  RAD  1   8   2
M  END
>  <reaction>  (5) 
rxn_758

>  <mol_properties>  (5) 
{"0": {"label": "*3", "atom_type": "Cs"}, "1": {"label": "*4", "atom_type": "H0"}, "6": {"label": "*0", "atom_type": "Cd"}, "7": {"label": "*1", "atom_type": "Cs"}, "15": {"label": "*2", "atom_type": "H0"}}

>  <type>  (5) 
unop_1

>  <geom_source>  (5) 
Heuristics

$$$$

     RDKit          3D

 16 14  0  0  0  0  0  0  0  0999 V2000
    0.0014   -1.4838    2.2244 C   0  0  0  0  0  0  0  0  0  0  0  0
    0.5147   -2.1461    1.5289 H   0  0  0  0  0  0  0  0  0  0  0  0
   -0.8899   -1.9792    2.6066 H   0  0  0  0  0  0  0  0  0  0  0  0
    0.2806   -0.8266    3.0465 H   0  0  0  0  0  0  0  0  0  0  0  0
    0.0014   -0.1313   -2.4837 C   0  0  0  0  0  0  0  0  0  0  0  0
    0.0014   -0.1313   -0.9884 C   0  0  0  0  0  0  0  0  0  0  0  0
    0.0014    0.9519   -0.2250 C   0  0  0  0  0  0  0  0  0  0  0  0
    0.0014    0.9519    1.2704 C   0  0  0  0  0  3  0  0  0  0  0  0
    0.8793   -0.6513   -2.8763 H   0  0  0  0  0  0  0  0  0  0  0  0
   -0.8765   -0.6513   -2.8763 H   0  0  0  0  0  0  0  0  0  0  0  0
    0.0014    0.8845   -2.8816 H   0  0  0  0  0  0  0  0  0  0  0  0
    0.0014   -1.1075   -0.5073 H   0  0  0  0  0  0  0  0  0  0  0  0
    0.0014    1.9281   -0.7060 H   0  0  0  0  0  0  0  0  0  0  0  0
    0.8793    1.4719    1.6629 H   0  0  0  0  0  0  0  0  0  0  0  0
   -0.8765    1.4719    1.6629 H   0  0  0  0  0  0  0  0  0  0  0  0
    0.0014   -0.2671    1.7478 H   0  0  0  0  0  0  0  0  0  0  0  0
  1  2  1  0
  1  3  1  0
  1  4  1  0
  1 16  1  0
  5  6  1  0
  5  9  1  0
  5 10  1  0
  5 11  1  0
  6  7  2  3
  6 12  1  0
  7  8  1  0
  7 13  1  0
  8 14  1  0
  8 15  1  0
M  RAD  1   8   2
M  END
>  <reaction>  (6) 
rxn_758

>  <mol_properties>  (6) 
{"0": {"label": "*3", "atom_type": "Cs"}, "1": {"label": "*4", "atom_type": "H0"}, "6": {"label": "*0", "atom_type": "Cd"}, "7": {"label": "*1", "atom_type": "Cs"}, "15": {"label": "*2", "atom_type": "H0"}}

>  <type>  (6) 
unop_2

>  <geom_source>  (6) 
Heuristics

$$$$

     RDKit          3D

 16 14  0  0  0  0  0  0  0  0999 V2000
    0.0040   -1.4792    2.2180 C   0  0  0  0  0  0  0  0  0  0  0  0
    0.5174   -1.4929    3.1783 H   0  0  0  0  0  0  0  0  0  0  0  0
    0.1601   -2.4293    1.7094 H   0  0  0  0  0  0  0  0  0  0  0  0
   -0.9495   -1.3417    2.7255 H   0  0  0  0  0  0  0  0  0  0  0  0
    0.0040   -0.1267   -2.4901 C   0  0  0  0  0  0  0  0  0  0  0  0
    0.0040   -0.1267   -0.9947 C   0  0  0  0  0  0  0  0  0  0  0  0
    0.0040    0.9565   -0.2314 C   0  0  0  0  0  0  0  0  0  0  0  0
    0.0040    0.9565    1.2640 C   0  0  0  0  0  3  0  0  0  0  0  0
    0.8819   -0.6467   -2.8827 H   0  0  0  0  0  0  0  0  0  0  0  0
   -0.8739   -0.6467   -2.8827 H   0  0  0  0  0  0  0  0  0  0  0  0
    0.0040    0.8891   -2.8880 H   0  0  0  0  0  0  0  0  0  0  0  0
    0.0040   -1.1029   -0.5137 H   0  0  0  0  0  0  0  0  0  0  0  0
    0.0040    1.9327   -0.7124 H   0  0  0  0  0  0  0  0  0  0  0  0
    0.8819    1.4765    1.6565 H   0  0  0  0  0  0  0  0  0  0  0  0
   -0.8739    1.4765    1.6565 H   0  0  0  0  0  0  0  0  0  0  0  0
    0.0040   -0.2625    1.7415 H   0  0  0  0  0  0  0  0  0  0  0  0
  1  2  1  0
  1  3  1  0
  1  4  1  0
  1 16  1  0
  5  6  1  0
  5  9  1  0
  5 10  1  0
  5 11  1  0
  6  7  2  3
  6 12  1  0
  7  8  1  0
  7 13  1  0
  8 14  1  0
  8 15  1  0
M  RAD  1   8   2
M  END
>  <reaction>  (7) 
rxn_758

>  <mol_properties>  (7) 
{"0": {"label": "*3", "atom_type": "Cs"}, "1": {"label": "*4", "atom_type": "H0"}, "6": {"label": "*0", "atom_type": "Cd"}, "7": {"label": "*1", "atom_type": "Cs"}, "15": {"label": "*2", "atom_type": "H0"}}

>  <type>  (7) 
unop_3

>  <geom_source>  (7) 
Heuristics

$$$$

     RDKit          3D

 16 14  0  0  0  0  0  0  0  0999 V2000
    0.0018   -1.4847    2.2211 C   0  0  0  0  0  0  0  0  0  0  0  0
   -0.8873   -2.0099    1.8755 H   0  0  0  0  0  0  0  0  0  0  0  0
   -0.2240   -0.9597    3.1480 H   0  0  0  0  0  0  0  0  0  0  0  0
    0.9870   -1.9198    2.3821 H   0  0  0  0  0  0  0  0  0  0  0  0
    0.0018   -0.1323   -2.4870 C   0  0  0  0  0  0  0  0  0  0  0  0
    0.0018   -0.1323   -0.9917 C   0  0  0  0  0  0  0  0  0  0  0  0
    0.0018    0.9510   -0.2283 C   0  0  0  0  0  0  0  0  0  0  0  0
    0.0018    0.9510    1.2671 C   0  0  0  0  0  3  0  0  0  0  0  0
    0.8797   -0.6522   -2.8796 H   0  0  0  0  0  0  0  0  0  0  0  0
   -0.8760   -0.6522   -2.8796 H   0  0  0  0  0  0  0  0  0  0  0  0
    0.0018    0.8836   -2.8849 H   0  0  0  0  0  0  0  0  0  0  0  0
    0.0018   -1.1084   -0.5106 H   0  0  0  0  0  0  0  0  0  0  0  0
    0.0018    1.9272   -0.7094 H   0  0  0  0  0  0  0  0  0  0  0  0
    0.8797    1.4709    1.6596 H   0  0  0  0  0  0  0  0  0  0  0  0
   -0.8760    1.4709    1.6596 H   0  0  0  0  0  0  0  0  0  0  0  0
    0.0018   -0.2680    1.7445 H   0  0  0  0  0  0  0  0  0  0  0  0
  1  2  1  0
  1  3  1  0
  1  4  1  0
  1 16  1  0
  5  6  1  0
  5  9  1  0
  5 10  1  0
  5 11  1  0
  6  7  2  3
  6 12  1  0
  7  8  1  0
  7 13  1  0
  8 14  1  0
  8 15  1  0
M  RAD  1   8   2
M  END
>  <reaction>  (8) 
rxn_758

>  <mol_properties>  (8) 
{"0": {"label": "*3", "atom_type": "Cs"}, "1": {"label": "*4", "atom_type": "H0"}, "6": {"label": "*0", "atom_type": "Cd"}, "7": {"label": "*1", "atom_type": "Cs"}, "15": {"label": "*2", "atom_type": "H0"}}

>  <type>  (8) 
unop_4

>  <geom_source>  (8) 
Heuristics

$$$$

     RDKit          3D

 16 14  0  0  0  0  0  0  0  0999 V2000
    0.0006   -1.4761    2.2198 C   0  0  0  0  0  0  0  0  0  0  0  0
    0.0006   -1.4397    3.3082 H   0  0  0  0  0  0  0  0  0  0  0  0
    0.8897   -2.0013    1.8743 H   0  0  0  0  0  0  0  0  0  0  0  0
   -0.9317   -2.0318    2.3078 H   0  0  0  0  0  0  0  0  0  0  0  0
    0.0006   -0.1236   -2.4883 C   0  0  0  0  0  0  0  0  0  0  0  0
    0.0006   -0.1236   -0.9929 C   0  0  0  0  0  0  0  0  0  0  0  0
    0.0006    0.9596   -0.2295 C   0  0  0  0  0  0  0  0  0  0  0  0
    0.0006    0.9596    1.2658 C   0  0  0  0  0  3  0  0  0  0  0  0
    0.8785   -0.6436   -2.8808 H   0  0  0  0  0  0  0  0  0  0  0  0
   -0.8773   -0.6436   -2.8808 H   0  0  0  0  0  0  0  0  0  0  0  0
    0.0006    0.8922   -2.8862 H   0  0  0  0  0  0  0  0  0  0  0  0
    0.0006   -1.0998   -0.5119 H   0  0  0  0  0  0  0  0  0  0  0  0
    0.0006    1.9358   -0.7106 H   0  0  0  0  0  0  0  0  0  0  0  0
    0.8785    1.4796    1.6584 H   0  0  0  0  0  0  0  0  0  0  0  0
   -0.8773    1.4796    1.6584 H   0  0  0  0  0  0  0  0  0  0  0  0
    0.0006   -0.2594    1.7433 H   0  0  0  0  0  0  0  0  0  0  0  0
  1  2  1  0
  1  3  1  0
  1  4  1  0
  1 16  1  0
  5  6  1  0
  5  9  1  0
  5 10  1  0
  5 11  1  0
  6  7  2  3
  6 12  1  0
  7  8  1  0
  7 13  1  0
  8 14  1  0
  8 15  1  0
M  RAD  1   8   2
M  END
>  <reaction>  (9) 
rxn_758

>  <mol_properties>  (9) 
{"0": {"label": "*3", "atom_type": "Cs"}, "1": {"label": "*4", "atom_type": "H0"}, "6": {"label": "*0", "atom_type": "Cd"}, "7": {"label": "*1", "atom_type": "Cs"}, "15": {"label": "*2", "atom_type": "H0"}}

>  <type>  (9) 
unop_5

>  <geom_source>  (9) 
Heuristics

$$$$

     RDKit          3D

 16 14  0  0  0  0  0  0  0  0999 V2000
    0.0005   -1.4833    2.2188 C   0  0  0  0  0  0  0  0  0  0  0  0
   -1.0262   -1.8212    2.3512 H   0  0  0  0  0  0  0  0  0  0  0  0
    0.2887   -0.8588    3.0631 H   0  0  0  0  0  0  0  0  0  0  0  0
    0.7068   -2.3086    2.1436 H   0  0  0  0  0  0  0  0  0  0  0  0
    0.0005   -0.1308   -2.4893 C   0  0  0  0  0  0  0  0  0  0  0  0
    0.0005   -0.1308   -0.9939 C   0  0  0  0  0  0  0  0  0  0  0  0
    0.0005    0.9524   -0.2305 C   0  0  0  0  0  0  0  0  0  0  0  0
    0.0005    0.9524    1.2648 C   0  0  0  0  0  3  0  0  0  0  0  0
    0.8783   -0.6508   -2.8818 H   0  0  0  0  0  0  0  0  0  0  0  0
   -0.8774   -0.6508   -2.8818 H   0  0  0  0  0  0  0  0  0  0  0  0
    0.0005    0.8850   -2.8872 H   0  0  0  0  0  0  0  0  0  0  0  0
    0.0005   -1.1070   -0.5129 H   0  0  0  0  0  0  0  0  0  0  0  0
    0.0005    1.9286   -0.7116 H   0  0  0  0  0  0  0  0  0  0  0  0
    0.8783    1.4724    1.6574 H   0  0  0  0  0  0  0  0  0  0  0  0
   -0.8774    1.4724    1.6574 H   0  0  0  0  0  0  0  0  0  0  0  0
    0.0005   -0.2666    1.7423 H   0  0  0  0  0  0  0  0  0  0  0  0
  1  2  1  0
  1  3  1  0
  1  4  1  0
  1 16  1  0
  5  6  1  0
  5  9  1  0
  5 10  1  0
  5 11  1  0
  6  7  2  3
  6 12  1  0
  7  8  1  0
  7 13  1  0
  8 14  1  0
  8 15  1  0
M  RAD  1   8   2
M  END
>  <reaction>  (10) 
rxn_758

>  <mol_properties>  (10) 
{"0": {"label": "*3", "atom_type": "Cs"}, "1": {"label": "*4", "atom_type": "H0"}, "6": {"label": "*0", "atom_type": "Cd"}, "7": {"label": "*1", "atom_type": "Cs"}, "15": {"label": "*2", "atom_type": "H0"}}

>  <type>  (10) 
unop_6

>  <geom_source>  (10) 
Heuristics

$$$$

     RDKit          3D

 16 14  0  0  0  0  0  0  0  0999 V2000
   -0.0018   -1.4815    2.2176 C   0  0  0  0  0  0  0  0  0  0  0  0
   -0.8909   -1.6322    2.8279 H   0  0  0  0  0  0  0  0  0  0  0  0
    0.7545   -0.9585    2.8009 H   0  0  0  0  0  0  0  0  0  0  0  0
    0.2594   -2.5188    2.0140 H   0  0  0  0  0  0  0  0  0  0  0  0
   -0.0018   -0.1290   -2.4905 C   0  0  0  0  0  0  0  0  0  0  0  0
   -0.0018   -0.1290   -0.9952 C   0  0  0  0  0  0  0  0  0  0  0  0
   -0.0018    0.9542   -0.2318 C   0  0  0  0  0  0  0  0  0  0  0  0
   -0.0018    0.9542    1.2636 C   0  0  0  0  0  3  0  0  0  0  0  0
    0.8761   -0.6490   -2.8831 H   0  0  0  0  0  0  0  0  0  0  0  0
   -0.8797   -0.6490   -2.8831 H   0  0  0  0  0  0  0  0  0  0  0  0
   -0.0018    0.8868   -2.8884 H   0  0  0  0  0  0  0  0  0  0  0  0
   -0.0018   -1.1052   -0.5141 H   0  0  0  0  0  0  0  0  0  0  0  0
   -0.0018    1.9304   -0.7129 H   0  0  0  0  0  0  0  0  0  0  0  0
    0.8761    1.4742    1.6561 H   0  0  0  0  0  0  0  0  0  0  0  0
   -0.8797    1.4742    1.6561 H   0  0  0  0  0  0  0  0  0  0  0  0
   -0.0018   -0.2648    1.7410 H   0  0  0  0  0  0  0  0  0  0  0  0
  1  2  1  0
  1  3  1  0
  1  4  1  0
  1 16  1  0
  5  6  1  0
  5  9  1  0
  5 10  1  0
  5 11  1  0
  6  7  2  3
  6 12  1  0
  7  8  1  0
  7 13  1  0
  8 14  1  0
  8 15  1  0
M  RAD  1   8   2
M  END
>  <reaction>  (11) 
rxn_758

>  <mol_properties>  (11) 
{"0": {"label": "*3", "atom_type": "Cs"}, "1": {"label": "*4", "atom_type": "H0"}, "6": {"label": "*0", "atom_type": "Cd"}, "7": {"label": "*1", "atom_type": "Cs"}, "15": {"label": "*2", "atom_type": "H0"}}

>  <type>  (11) 
unop_7

>  <geom_source>  (11) 
Heuristics

$$$$

     RDKit          3D

 16 14  0  0  0  0  0  0  0  0999 V2000
   -0.0004   -1.4830    2.2190 C   0  0  0  0  0  0  0  0  0  0  0  0
    1.0263   -1.8210    2.3514 H   0  0  0  0  0  0  0  0  0  0  0  0
   -0.6622   -2.3459    2.1631 H   0  0  0  0  0  0  0  0  0  0  0  0
   -0.3383   -0.8416    3.0315 H   0  0  0  0  0  0  0  0  0  0  0  0
   -0.0004   -0.1305   -2.4891 C   0  0  0  0  0  0  0  0  0  0  0  0
   -0.0004   -0.1305   -0.9938 C   0  0  0  0  0  0  0  0  0  0  0  0
   -0.0004    0.9527   -0.2304 C   0  0  0  0  0  0  0  0  0  0  0  0
   -0.0004    0.9527    1.2650 C   0  0  0  0  0  3  0  0  0  0  0  0
    0.8775   -0.6505   -2.8817 H   0  0  0  0  0  0  0  0  0  0  0  0
   -0.8783   -0.6505   -2.8817 H   0  0  0  0  0  0  0  0  0  0  0  0
   -0.0004    0.8853   -2.8870 H   0  0  0  0  0  0  0  0  0  0  0  0
   -0.0004   -1.1067   -0.5127 H   0  0  0  0  0  0  0  0  0  0  0  0
   -0.0004    1.9289   -0.7114 H   0  0  0  0  0  0  0  0  0  0  0  0
    0.8775    1.4727    1.6575 H   0  0  0  0  0  0  0  0  0  0  0  0
   -0.8783    1.4727    1.6575 H   0  0  0  0  0  0  0  0  0  0  0  0
   -0.0004   -0.2663    1.7425 H   0  0  0  0  0  0  0  0  0  0  0  0
  1  2  1  0
  1  3  1  0
  1  4  1  0
  1 16  1  0
  5  6  1  0
  5  9  1  0
  5 10  1  0
  5 11  1  0
  6  7  2  3
  6 12  1  0
  7  8  1  0
  7 13  1  0
  8 14  1  0
  8 15  1  0
M  RAD  1   8   2
M  END
>  <reaction>  (12) 
rxn_758

>  <mol_properties>  (12) 
{"0": {"label": "*3", "atom_type": "Cs"}, "1": {"label": "*4", "atom_type": "H0"}, "6": {"label": "*0", "atom_type": "Cd"}, "7": {"label": "*1", "atom_type": "Cs"}, "15": {"label": "*2", "atom_type": "H0"}}

>  <type>  (12) 
unop_8

>  <geom_source>  (12) 
Heuristics

$$$$

     RDKit          3D

 16 14  0  0  0  0  0  0  0  0999 V2000
    0.0027   -1.4858    2.2232 C   0  0  0  0  0  0  0  0  0  0  0  0
   -0.5106   -2.1480    1.5277 H   0  0  0  0  0  0  0  0  0  0  0  0
   -0.6615   -1.2440    3.0515 H   0  0  0  0  0  0  0  0  0  0  0  0
    0.9883   -1.4279    2.6826 H   0  0  0  0  0  0  0  0  0  0  0  0
    0.0027   -0.1333   -2.4849 C   0  0  0  0  0  0  0  0  0  0  0  0
    0.0027   -0.1333   -0.9895 C   0  0  0  0  0  0  0  0  0  0  0  0
    0.0027    0.9499   -0.2262 C   0  0  0  0  0  0  0  0  0  0  0  0
    0.0027    0.9499    1.2692 C   0  0  0  0  0  3  0  0  0  0  0  0
    0.8806   -0.6533   -2.8774 H   0  0  0  0  0  0  0  0  0  0  0  0
   -0.8752   -0.6533   -2.8774 H   0  0  0  0  0  0  0  0  0  0  0  0
    0.0027    0.8825   -2.8828 H   0  0  0  0  0  0  0  0  0  0  0  0
    0.0027   -1.1095   -0.5085 H   0  0  0  0  0  0  0  0  0  0  0  0
    0.0027    1.9261   -0.7072 H   0  0  0  0  0  0  0  0  0  0  0  0
    0.8806    1.4699    1.6617 H   0  0  0  0  0  0  0  0  0  0  0  0
   -0.8752    1.4699    1.6617 H   0  0  0  0  0  0  0  0  0  0  0  0
    0.0027   -0.2691    1.7467 H   0  0  0  0  0  0  0  0  0  0  0  0
  1  2  1  0
  1  3  1  0
  1  4  1  0
  1 16  1  0
  5  6  1  0
  5  9  1  0
  5 10  1  0
  5 11  1  0
  6  7  2  3
  6 12  1  0
  7  8  1  0
  7 13  1  0
  8 14  1  0
  8 15  1  0
M  RAD  1   8   2
M  END
>  <reaction>  (13) 
rxn_758

>  <mol_properties>  (13) 
{"0": {"label": "*3", "atom_type": "Cs"}, "1": {"label": "*4", "atom_type": "H0"}, "6": {"label": "*0", "atom_type": "Cd"}, "7": {"label": "*1", "atom_type": "Cs"}, "15": {"label": "*2", "atom_type": "H0"}}

>  <type>  (13) 
unop_9

>  <geom_source>  (13) 
Heuristics

$$$$

     RDKit          3D

 16 14  0  0  0  0  0  0  0  0999 V2000
   -0.0005   -1.4831    2.2221 C   0  0  0  0  0  0  0  0  0  0  0  0
    0.8887   -2.0083    1.8765 H   0  0  0  0  0  0  0  0  0  0  0  0
   -0.8008   -2.2005    2.3970 H   0  0  0  0  0  0  0  0  0  0  0  0
   -0.0573   -0.7941    3.0634 H   0  0  0  0  0  0  0  0  0  0  0  0
   -0.0005   -0.1306   -2.4860 C   0  0  0  0  0  0  0  0  0  0  0  0
   -0.0005   -0.1306   -0.9907 C   0  0  0  0  0  0  0  0  0  0  0  0
   -0.0005    0.9526   -0.2273 C   0  0  0  0  0  0  0  0  0  0  0  0
   -0.0005    0.9526    1.2681 C   0  0  0  0  0  3  0  0  0  0  0  0
    0.8774   -0.6506   -2.8786 H   0  0  0  0  0  0  0  0  0  0  0  0
   -0.8783   -0.6506   -2.8786 H   0  0  0  0  0  0  0  0  0  0  0  0
   -0.0005    0.8852   -2.8839 H   0  0  0  0  0  0  0  0  0  0  0  0
   -0.0005   -1.1068   -0.5096 H   0  0  0  0  0  0  0  0  0  0  0  0
   -0.0005    1.9288   -0.7083 H   0  0  0  0  0  0  0  0  0  0  0  0
    0.8774    1.4726    1.6606 H   0  0  0  0  0  0  0  0  0  0  0  0
   -0.8783    1.4726    1.6606 H   0  0  0  0  0  0  0  0  0  0  0  0
   -0.0005   -0.2664    1.7456 H   0  0  0  0  0  0  0  0  0  0  0  0
  1  2  1  0
  1  3  1  0
  1  4  1  0
  1 16  1  0
  5  6  1  0
  5  9  1  0
  5 10  1  0
  5 11  1  0
  6  7  2  3
  6 12  1  0
  7  8  1  0
  7 13  1  0
  8 14  1  0
  8 15  1  0
M  RAD  1   8   2
M  END
>  <reaction>  (14) 
rxn_758

>  <mol_properties>  (14) 
{"0": {"label": "*3", "atom_type": "Cs"}, "1": {"label": "*4", "atom_type": "H0"}, "6": {"label": "*0", "atom_type": "Cd"}, "7": {"label": "*1", "atom_type": "Cs"}, "15": {"label": "*2", "atom_type": "H0"}}

>  <type>  (14) 
unop_10

>  <geom_source>  (14) 
Heuristics

$$$$

     RDKit          3D

 16 14  0  0  0  0  0  0  0  0999 V2000
   -0.0032   -1.4784    2.2185 C   0  0  0  0  0  0  0  0  0  0  0  0
   -0.5165   -1.4922    3.1787 H   0  0  0  0  0  0  0  0  0  0  0  0
    1.0626   -1.3233    2.3788 H   0  0  0  0  0  0  0  0  0  0  0  0
   -0.3299   -2.4990    2.0250 H   0  0  0  0  0  0  0  0  0  0  0  0
   -0.0032   -0.1260   -2.4897 C   0  0  0  0  0  0  0  0  0  0  0  0
   -0.0032   -0.1260   -0.9943 C   0  0  0  0  0  0  0  0  0  0  0  0
   -0.0032    0.9573   -0.2309 C   0  0  0  0  0  0  0  0  0  0  0  0
   -0.0032    0.9573    1.2645 C   0  0  0  0  0  3  0  0  0  0  0  0
    0.8747   -0.6459   -2.8822 H   0  0  0  0  0  0  0  0  0  0  0  0
   -0.8811   -0.6459   -2.8822 H   0  0  0  0  0  0  0  0  0  0  0  0
   -0.0032    0.8899   -2.8875 H   0  0  0  0  0  0  0  0  0  0  0  0
   -0.0032   -1.1022   -0.5132 H   0  0  0  0  0  0  0  0  0  0  0  0
   -0.0032    1.9334   -0.7120 H   0  0  0  0  0  0  0  0  0  0  0  0
    0.8747    1.4772    1.6570 H   0  0  0  0  0  0  0  0  0  0  0  0
   -0.8811    1.4772    1.6570 H   0  0  0  0  0  0  0  0  0  0  0  0
   -0.0032   -0.2617    1.7419 H   0  0  0  0  0  0  0  0  0  0  0  0
  1  2  1  0
  1  3  1  0
  1  4  1  0
  1 16  1  0
  5  6  1  0
  5  9  1  0
  5 10  1  0
  5 11  1  0
  6  7  2  3
  6 12  1  0
  7  8  1  0
  7 13  1  0
  8 14  1  0
  8 15  1  0
M  RAD  1   8   2
M  END
>  <reaction>  (15) 
rxn_758

>  <mol_properties>  (15) 
{"0": {"label": "*3", "atom_type": "Cs"}, "1": {"label": "*4", "atom_type": "H0"}, "6": {"label": "*0", "atom_type": "Cd"}, "7": {"label": "*1", "atom_type": "Cs"}, "15": {"label": "*2", "atom_type": "H0"}}

>  <type>  (15) 
unop_11

>  <geom_source>  (15) 
Heuristics

$$$$

     RDKit          3D

 16 14  0  0  0  0  0  0  0  0999 V2000
    0.0029   -1.4853    2.2246 C   0  0  0  0  0  0  0  0  0  0  0  0
    0.0029   -2.1977    1.4011 H   0  0  0  0  0  0  0  0  0  0  0  0
   -0.8862   -1.6360    2.8350 H   0  0  0  0  0  0  0  0  0  0  0  0
    0.6883   -1.0193    2.9310 H   0  0  0  0  0  0  0  0  0  0  0  0
    0.0029   -0.1328   -2.4835 C   0  0  0  0  0  0  0  0  0  0  0  0
    0.0029   -0.1328   -0.9881 C   0  0  0  0  0  0  0  0  0  0  0  0
    0.0029    0.9504   -0.2247 C   0  0  0  0  0  0  0  0  0  0  0  0
    0.0029    0.9504    1.2706 C   0  0  0  0  0  3  0  0  0  0  0  0
    0.8808   -0.6528   -2.8760 H   0  0  0  0  0  0  0  0  0  0  0  0
   -0.8750   -0.6528   -2.8760 H   0  0  0  0  0  0  0  0  0  0  0  0
    0.0029    0.8830   -2.8814 H   0  0  0  0  0  0  0  0  0  0  0  0
    0.0029   -1.1090   -0.5071 H   0  0  0  0  0  0  0  0  0  0  0  0
    0.0029    1.9266   -0.7058 H   0  0  0  0  0  0  0  0  0  0  0  0
    0.8808    1.4704    1.6632 H   0  0  0  0  0  0  0  0  0  0  0  0
   -0.8750    1.4704    1.6632 H   0  0  0  0  0  0  0  0  0  0  0  0
    0.0029   -0.2686    1.7481 H   0  0  0  0  0  0  0  0  0  0  0  0
  1  2  1  0
  1  3  1  0
  1  4  1  0
  1 16  1  0
  5  6  1  0
  5  9  1  0
  5 10  1  0
  5 11  1  0
  6  7  2  3
  6 12  1  0
  7  8  1  0
  7 13  1  0
  8 14  1  0
  8 15  1  0
M  RAD  1   8   2
M  END
>  <reaction>  (16) 
rxn_758

>  <mol_properties>  (16) 
{"0": {"label": "*3", "atom_type": "Cs"}, "1": {"label": "*4", "atom_type": "H0"}, "6": {"label": "*0", "atom_type": "Cd"}, "7": {"label": "*1", "atom_type": "Cs"}, "15": {"label": "*2", "atom_type": "H0"}}

>  <type>  (16) 
unop_12

>  <geom_source>  (16) 
Heuristics

$$$$

     RDKit          3D

 16 14  0  0  0  0  0  0  0  0999 V2000
    2.3855    0.4292   -0.8280 C   0  0  0  0  0  0  0  0  0  0  0  0
   -2.7389    0.3327    1.0518 C   0  0  0  0  0  0  0  0  0  0  0  0
    1.8181   -0.8473   -0.2783 C   0  0  0  0  0  0  0  0  0  0  0  0
    0.5071   -1.0298   -0.0527 C   0  0  0  0  0  0  0  0  0  0  0  0
   -0.5274    0.0202   -0.3255 C   0  0  0  0  0  3  0  0  0  0  0  0
    2.1594    1.2737   -0.1435 H   0  0  0  0  0  0  0  0  0  0  0  0
    1.9577    0.6365   -1.8313 H   0  0  0  0  0  0  0  0  0  0  0  0
    3.4874    0.3362   -0.9246 H   0  0  0  0  0  0  0  0  0  0  0  0
   -3.1083   -0.3795    1.8180 H   0  0  0  0  0  0  0  0  0  0  0  0
   -3.5135    0.4687    0.2693 H   0  0  0  0  0  0  0  0  0  0  0  0
   -2.5206    1.3098    1.5297 H   0  0  0  0  0  0  0  0  0  0  0  0
   -1.7012   -0.1167    0.5342 H   0  0  0  0  0  0  0  0  0  0  0  0
    2.5026   -1.6600   -0.0533 H   0  0  0  0  0  0  0  0  0  0  0  0
    0.1708   -1.9812    0.3467 H   0  0  0  0  0  0  0  0  0  0  0  0
   -0.3381    0.9237    0.2912 H   0  0  0  0  0  0  0  0  0  0  0  0
   -0.5407    0.2838   -1.4038 H   0  0  0  0  0  0  0  0  0  0  0  0
  1  3  1  0
  1  6  1  0
  1  7  1  0
  1  8  1  0
  2  9  1  0
  2 10  1  0
  2 11  1  0
  2 12  1  0
  3  4  2  3
  3 13  1  0
  4  5  1  0
  4 14  1  0
  5 15  1  0
  5 16  1  0
M  RAD  1   5   2
M  END
>  <reaction>  (17) 
rxn_758

>  <mol_properties>  (17) 
{"0": {"label": "*3", "atom_type": "Cs"}, "1": {"label": "*4", "atom_type": "H0"}, "6": {"label": "*0", "atom_type": "Cd"}, "7": {"label": "*1", "atom_type": "Cs"}, "15": {"label": "*2", "atom_type": "H0"}}

>  <type>  (17) 
unop_13

>  <geom_source>  (17) 
AutoTST

$$$$

     RDKit          3D

 16 14  0  0  0  0  0  0  0  0999 V2000
    0.0014   -1.4838    2.2244 C   0  0  0  0  0  0  0  0  0  0  0  0
    0.5147   -2.1461    1.5289 H   0  0  0  0  0  0  0  0  0  0  0  0
   -0.8899   -1.9792    2.6066 H   0  0  0  0  0  0  0  0  0  0  0  0
    0.2806   -0.8266    3.0465 H   0  0  0  0  0  0  0  0  0  0  0  0
    0.0014   -0.1313   -2.4837 C   0  0  0  0  0  0  0  0  0  0  0  0
    0.0014   -0.1313   -0.9884 C   0  0  0  0  0  0  0  0  0  0  0  0
    0.0014    0.9519   -0.2250 C   0  0  0  0  0  0  0  0  0  0  0  0
    0.0014    0.9519    1.2704 C   0  0  0  0  0  3  0  0  0  0  0  0
    0.8793   -0.6513   -2.8763 H   0  0  0  0  0  0  0  0  0  0  0  0
   -0.8765   -0.6513   -2.8763 H   0  0  0  0  0  0  0  0  0  0  0  0
    0.0014    0.8845   -2.8816 H   0  0  0  0  0  0  0  0  0  0  0  0
    0.0014   -1.1075   -0.5073 H   0  0  0  0  0  0  0  0  0  0  0  0
    0.0014    1.9281   -0.7060 H   0  0  0  0  0  0  0  0  0  0  0  0
    0.8793    1.4719    1.6629 H   0  0  0  0  0  0  0  0  0  0  0  0
   -0.8765    1.4719    1.6629 H   0  0  0  0  0  0  0  0  0  0  0  0
    0.0014   -0.2671    1.7478 H   0  0  0  0  0  0  0  0  0  0  0  0
  1  2  1  0
  1  3  1  0
  1  4  1  0
  1 16  1  0
  5  6  1  0
  5  9  1  0
  5 10  1  0
  5 11  1  0
  6  7  2  3
  6 12  1  0
  7  8  1  0
  7 13  1  0
  8 14  1  0
  8 15  1  0
M  RAD  1   8   2
M  END
>  <reaction>  (18) 
rxn_758

>  <mol_properties>  (18) 
{"0": {"label": "*3", "atom_type": "Cs"}, "1": {"label": "*4", "atom_type": "H0"}, "6": {"label": "*0", "atom_type": "Cd"}, "7": {"label": "*1", "atom_type": "Cs"}, "15": {"label": "*2", "atom_type": "H0"}}

>  <type>  (18) 
unop_14

>  <geom_source>  (18) 
gaussian_log

$$$$
