
     RDKit          3D

 11 10  0  0  0  0  0  0  0  0999 V2000
   -1.2710    0.1907   -0.2084 C   0  0  0  0  0  0  0  0  0  0  0  0
    0.0202   -0.6130   -0.2928 C   0  0  0  0  0  0  0  0  0  0  0  0
    0.1086   -1.6953    0.7756 C   0  0  0  0  0  0  0  0  0  0  0  0
   -1.3607    0.6851    0.7620 H   0  0  0  0  0  0  0  0  0  0  0  0
   -2.1429   -0.4567   -0.3299 H   0  0  0  0  0  0  0  0  0  0  0  0
   -1.3158    0.9602   -0.9809 H   0  0  0  0  0  0  0  0  0  0  0  0
    0.8757    0.0616   -0.1992 H   0  0  0  0  0  0  0  0  0  0  0  0
    0.0997   -1.0712   -1.2825 H   0  0  0  0  0  0  0  0  0  0  0  0
   -0.7198   -2.4022    0.6850 H   0  0  0  0  0  0  0  0  0  0  0  0
    1.0395   -2.2596    0.6989 H   0  0  0  0  0  0  0  0  0  0  0  0
    0.0624   -1.2603    1.7770 H   0  0  0  0  0  0  0  0  0  0  0  0
  1  2  1  0
  1  4  1  0
  1  5  1  0
  1  6  1  0
  2  3  1  0
  2  7  1  0
  2  8  1  0
  3  9  1  0
  3 10  1  0
  3 11  1  0
M  END
>  <reaction>  (1) 
rxn_484

>  <mol_properties>  (1) 
{"1": {"label": "donator", "atom_type": "Cs"}, "6": {"label": "d_hydrogen", "atom_type": "H0"}}

>  <type>  (1) 
r1h

$$$$

     RDKit          3D

  3  2  0  0  0  0  0  0  0  0999 V2000
    0.0002    0.4233    0.0000 N   0  0  0  0  0  2  0  0  0  0  0  0
   -0.8051   -0.2112    0.0000 H   0  0  0  0  0  0  0  0  0  0  0  0
    0.8049   -0.2121    0.0000 H   0  0  0  0  0  0  0  0  0  0  0  0
  1  2  1  0
  1  3  1  0
M  RAD  1   1   2
M  END
>  <reaction>  (2) 
rxn_484

>  <mol_properties>  (2) 
{"0": {"label": "acceptor", "atom_type": "N3s"}}

>  <type>  (2) 
r2

$$$$

     RDKit          3D

  4  3  0  0  0  0  0  0  0  0999 V2000
    0.0006   -0.0009    0.2762 N   0  0  0  0  0  0  0  0  0  0  0  0
   -0.4188    0.8439   -0.0883 H   0  0  0  0  0  0  0  0  0  0  0  0
   -0.5215   -0.7840   -0.0936 H   0  0  0  0  0  0  0  0  0  0  0  0
    0.9397   -0.0590   -0.0943 H   0  0  0  0  0  0  0  0  0  0  0  0
  1  2  1  0
  1  3  1  0
  1  4  1  0
M  END
>  <reaction>  (3) 
rxn_484

>  <mol_properties>  (3) 
{"0": {"label": "acceptor", "atom_type": "N3s"}, "3": {"label": "a_hydrogen", "atom_type": "H0"}}

>  <type>  (3) 
r2h

$$$$

     RDKit          3D

 14 12  0  0  0  0  0  0  0  0999 V2000
    1.7829   -0.9493    0.6368 N   0  0  0  0  0  2  0  0  0  0  0  0
    1.7299   -0.8316    1.6507 H   0  0  0  0  0  0  0  0  0  0  0  0
    1.5392   -1.9309    0.4886 H   0  0  0  0  0  0  0  0  0  0  0  0
   -0.7192   -0.1865   -1.4424 C   0  0  0  0  0  0  0  0  0  0  0  0
   -0.5210    0.0945    0.0274 C   0  0  0  0  0  0  0  0  0  0  0  0
   -0.4174    1.5542    0.3979 C   0  0  0  0  0  0  0  0  0  0  0  0
    0.0865    0.2549   -2.0329 H   0  0  0  0  0  0  0  0  0  0  0  0
   -1.6634    0.2402   -1.7969 H   0  0  0  0  0  0  0  0  0  0  0  0
   -0.7415   -1.2578   -1.6481 H   0  0  0  0  0  0  0  0  0  0  0  0
    0.6043   -0.3921    0.3031 H   0  0  0  0  0  0  0  0  0  0  0  0
   -1.2287   -0.4479    0.6565 H   0  0  0  0  0  0  0  0  0  0  0  0
   -1.3435    2.0849    0.1534 H   0  0  0  0  0  0  0  0  0  0  0  0
   -0.2309    1.6866    1.4647 H   0  0  0  0  0  0  0  0  0  0  0  0
    0.3953    2.0358   -0.1502 H   0  0  0  0  0  0  0  0  0  0  0  0
  1  2  1  0
  1  3  1  0
  4  5  1  0
  4  7  1  0
  4  8  1  0
  4  9  1  0
  5  6  1  0
  5 10  1  0
  5 11  1  0
  6 12  1  0
  6 13  1  0
  6 14  1  0
M  RAD  1   1   2
M  END
>  <reaction>  (4) 
rxn_484

>  <mol_properties>  (4) 
{"0": {"label": "*3", "atom_type": "N3s"}, "1": {"label": "*4", "atom_type": "H0"}, "3": {"label": "*0", "atom_type": "Cs"}, "4": {"label": "*1", "atom_type": "Cs"}, "9": {"label": "*2", "atom_type": "H0"}}

>  <type>  (4) 
ts

$$$$

     RDKit          3D

 14 12  0  0  0  0  0  0  0  0999 V2000
    1.4815   -1.2822    0.8294 N   0  0  0  0  0  0  0  0  0  0  0  0
    2.0313   -0.6410    1.3854 H   0  0  0  0  0  0  0  0  0  0  0  0
    0.7479   -1.5173    1.4846 H   0  0  0  0  0  0  0  0  0  0  0  0
   -0.5384   -0.0204   -1.5346 C   0  0  0  0  0  0  0  0  0  0  0  0
   -0.5384   -0.0204   -0.0113 C   0  0  0  0  0  3  0  0  0  0  0  0
   -0.5384    1.3855    0.5754 C   0  0  0  0  0  0  0  0  0  0  0  0
    0.3431    0.4939   -1.9253 H   0  0  0  0  0  0  0  0  0  0  0  0
   -1.4198    0.4939   -1.9253 H   0  0  0  0  0  0  0  0  0  0  0  0
   -0.5384   -1.0353   -1.9358 H   0  0  0  0  0  0  0  0  0  0  0  0
    0.5111   -0.6760    0.4255 H   0  0  0  0  0  0  0  0  0  0  0  0
   -1.4129   -0.5667    0.3527 H   0  0  0  0  0  0  0  0  0  0  0  0
   -1.4198    1.9440    0.2513 H   0  0  0  0  0  0  0  0  0  0  0  0
   -0.5384    1.3648    1.6665 H   0  0  0  0  0  0  0  0  0  0  0  0
    0.3431    1.9440    0.2513 H   0  0  0  0  0  0  0  0  0  0  0  0
  1  2  1  0
  1  3  1  0
  1 10  1  0
  4  5  1  0
  4  7  1  0
  4  8  1  0
  4  9  1  0
  5  6  1  0
  5 11  1  0
  6 12  1  0
  6 13  1  0
  6 14  1  0
M  RAD  1   5   2
M  END
>  <reaction>  (5) 
rxn_484

>  <mol_properties>  (5) 
{"0": {"label": "*3", "atom_type": "N3s"}, "1": {"label": "*4", "atom_type": "H0"}, "3": {"label": "*0", "atom_type": "Cs"}, "4": {"label": "*1", "atom_type": "Cs"}, "9": {"label": "*2", "atom_type": "H0"}}

>  <type>  (5) 
unop_1

>  <geom_source>  (5) 
Heuristics

$$$$

     RDKit          3D

 14 12  0  0  0  0  0  0  0  0999 V2000
    1.4687   -1.2897    0.8500 N   0  0  0  0  0  0  0  0  0  0  0  0
    2.2033   -1.1802    0.1638 H   0  0  0  0  0  0  0  0  0  0  0  0
    1.3151   -0.5485    1.5205 H   0  0  0  0  0  0  0  0  0  0  0  0
   -0.5512   -0.0278   -1.5140 C   0  0  0  0  0  0  0  0  0  0  0  0
   -0.5512   -0.0278    0.0093 C   0  0  0  0  0  3  0  0  0  0  0  0
   -0.5512    1.3780    0.5960 C   0  0  0  0  0  0  0  0  0  0  0  0
    0.3302    0.4865   -1.9047 H   0  0  0  0  0  0  0  0  0  0  0  0
   -1.4327    0.4864   -1.9047 H   0  0  0  0  0  0  0  0  0  0  0  0
   -0.5512   -1.0427   -1.9152 H   0  0  0  0  0  0  0  0  0  0  0  0
    0.4982   -0.6834    0.4461 H   0  0  0  0  0  0  0  0  0  0  0  0
   -1.4258   -0.5742    0.3733 H   0  0  0  0  0  0  0  0  0  0  0  0
   -1.4327    1.9366    0.2719 H   0  0  0  0  0  0  0  0  0  0  0  0
   -0.5512    1.3573    1.6871 H   0  0  0  0  0  0  0  0  0  0  0  0
    0.3302    1.9366    0.2719 H   0  0  0  0  0  0  0  0  0  0  0  0
  1  2  1  0
  1  3  1  0
  1 10  1  0
  4  5  1  0
  4  7  1  0
  4  8  1  0
  4  9  1  0
  5  6  1  0
  5 11  1  0
  6 12  1  0
  6 13  1  0
  6 14  1  0
M  RAD  1   5   2
M  END
>  <reaction>  (6) 
rxn_484

>  <mol_properties>  (6) 
{"0": {"label": "*3", "atom_type": "N3s"}, "1": {"label": "*4", "atom_type": "H0"}, "3": {"label": "*0", "atom_type": "Cs"}, "4": {"label": "*1", "atom_type": "Cs"}, "9": {"label": "*2", "atom_type": "H0"}}

>  <type>  (6) 
unop_2

>  <geom_source>  (6) 
Heuristics

$$$$

     RDKit          3D

 14 12  0  0  0  0  0  0  0  0999 V2000
    1.4840   -1.2707    0.8274 N   0  0  0  0  0  0  0  0  0  0  0  0
    1.7472   -0.8666    1.7162 H   0  0  0  0  0  0  0  0  0  0  0  0
    0.8859   -1.9556    1.2698 H   0  0  0  0  0  0  0  0  0  0  0  0
   -0.5359   -0.0088   -1.5366 C   0  0  0  0  0  0  0  0  0  0  0  0
   -0.5359   -0.0088   -0.0133 C   0  0  0  0  0  3  0  0  0  0  0  0
   -0.5359    1.3970    0.5734 C   0  0  0  0  0  0  0  0  0  0  0  0
    0.3456    0.5054   -1.9273 H   0  0  0  0  0  0  0  0  0  0  0  0
   -1.4173    0.5054   -1.9273 H   0  0  0  0  0  0  0  0  0  0  0  0
   -0.5359   -1.0237   -1.9378 H   0  0  0  0  0  0  0  0  0  0  0  0
    0.5136   -0.6645    0.4235 H   0  0  0  0  0  0  0  0  0  0  0  0
   -1.4104   -0.5552    0.3507 H   0  0  0  0  0  0  0  0  0  0  0  0
   -1.4173    1.9555    0.2493 H   0  0  0  0  0  0  0  0  0  0  0  0
   -0.5359    1.3763    1.6645 H   0  0  0  0  0  0  0  0  0  0  0  0
    0.3456    1.9555    0.2493 H   0  0  0  0  0  0  0  0  0  0  0  0
  1  2  1  0
  1  3  1  0
  1 10  1  0
  4  5  1  0
  4  7  1  0
  4  8  1  0
  4  9  1  0
  5  6  1  0
  5 11  1  0
  6 12  1  0
  6 13  1  0
  6 14  1  0
M  RAD  1   5   2
M  END
>  <reaction>  (7) 
rxn_484

>  <mol_properties>  (7) 
{"0": {"label": "*3", "atom_type": "N3s"}, "1": {"label": "*4", "atom_type": "H0"}, "3": {"label": "*0", "atom_type": "Cs"}, "4": {"label": "*1", "atom_type": "Cs"}, "9": {"label": "*2", "atom_type": "H0"}}

>  <type>  (7) 
unop_3

>  <geom_source>  (7) 
Heuristics

$$$$

     RDKit          3D

 14 12  0  0  0  0  0  0  0  0999 V2000
    1.4639   -1.2663    0.8555 N   0  0  0  0  0  0  0  0  0  0  0  0
    1.4010   -2.2117    0.5022 H   0  0  0  0  0  0  0  0  0  0  0  0
    2.3922   -0.8653    0.8646 H   0  0  0  0  0  0  0  0  0  0  0  0
   -0.5560   -0.0044   -1.5085 C   0  0  0  0  0  0  0  0  0  0  0  0
   -0.5560   -0.0044    0.0148 C   0  0  0  0  0  3  0  0  0  0  0  0
   -0.5560    1.4014    0.6015 C   0  0  0  0  0  0  0  0  0  0  0  0
    0.3255    0.5099   -1.8992 H   0  0  0  0  0  0  0  0  0  0  0  0
   -1.4374    0.5099   -1.8992 H   0  0  0  0  0  0  0  0  0  0  0  0
   -0.5560   -1.0193   -1.9097 H   0  0  0  0  0  0  0  0  0  0  0  0
    0.4935   -0.6600    0.4516 H   0  0  0  0  0  0  0  0  0  0  0  0
   -1.4305   -0.5508    0.3788 H   0  0  0  0  0  0  0  0  0  0  0  0
   -1.4374    1.9600    0.2774 H   0  0  0  0  0  0  0  0  0  0  0  0
   -0.5560    1.3807    1.6926 H   0  0  0  0  0  0  0  0  0  0  0  0
    0.3255    1.9600    0.2774 H   0  0  0  0  0  0  0  0  0  0  0  0
  1  2  1  0
  1  3  1  0
  1 10  1  0
  4  5  1  0
  4  7  1  0
  4  8  1  0
  4  9  1  0
  5  6  1  0
  5 11  1  0
  6 12  1  0
  6 13  1  0
  6 14  1  0
M  RAD  1   5   2
M  END
>  <reaction>  (8) 
rxn_484

>  <mol_properties>  (8) 
{"0": {"label": "*3", "atom_type": "N3s"}, "1": {"label": "*4", "atom_type": "H0"}, "3": {"label": "*0", "atom_type": "Cs"}, "4": {"label": "*1", "atom_type": "Cs"}, "9": {"label": "*2", "atom_type": "H0"}}

>  <type>  (8) 
unop_4

>  <geom_source>  (8) 
Heuristics

$$$$

     RDKit          3D

 14 12  0  0  0  0  0  0  0  0999 V2000
    1.4793   -1.2588    0.8320 N   0  0  0  0  0  0  0  0  0  0  0  0
    1.4506   -1.2408    1.8427 H   0  0  0  0  0  0  0  0  0  0  0  0
    1.4531   -2.2686    0.8785 H   0  0  0  0  0  0  0  0  0  0  0  0
   -0.5405    0.0031   -1.5320 C   0  0  0  0  0  0  0  0  0  0  0  0
   -0.5405    0.0031   -0.0087 C   0  0  0  0  0  3  0  0  0  0  0  0
   -0.5405    1.4089    0.5780 C   0  0  0  0  0  0  0  0  0  0  0  0
    0.3409    0.5174   -1.9227 H   0  0  0  0  0  0  0  0  0  0  0  0
   -1.4220    0.5174   -1.9227 H   0  0  0  0  0  0  0  0  0  0  0  0
   -0.5405   -1.0118   -1.9332 H   0  0  0  0  0  0  0  0  0  0  0  0
    0.5089   -0.6525    0.4281 H   0  0  0  0  0  0  0  0  0  0  0  0
   -1.4151   -0.5433    0.3553 H   0  0  0  0  0  0  0  0  0  0  0  0
   -1.4220    1.9675    0.2539 H   0  0  0  0  0  0  0  0  0  0  0  0
   -0.5406    1.3882    1.6691 H   0  0  0  0  0  0  0  0  0  0  0  0
    0.3409    1.9675    0.2539 H   0  0  0  0  0  0  0  0  0  0  0  0
  1  2  1  0
  1  3  1  0
  1 10  1  0
  4  5  1  0
  4  7  1  0
  4  8  1  0
  4  9  1  0
  5  6  1  0
  5 11  1  0
  6 12  1  0
  6 13  1  0
  6 14  1  0
M  RAD  1   5   2
M  END
>  <reaction>  (9) 
rxn_484

>  <mol_properties>  (9) 
{"0": {"label": "*3", "atom_type": "N3s"}, "1": {"label": "*4", "atom_type": "H0"}, "3": {"label": "*0", "atom_type": "Cs"}, "4": {"label": "*1", "atom_type": "Cs"}, "9": {"label": "*2", "atom_type": "H0"}}

>  <type>  (9) 
unop_5

>  <geom_source>  (9) 
Heuristics

$$$$

     RDKit          3D

 14 12  0  0  0  0  0  0  0  0999 V2000
    1.4661   -1.2601    0.8504 N   0  0  0  0  0  0  0  0  0  0  0  0
    1.1986   -2.2300    0.9517 H   0  0  0  0  0  0  0  0  0  0  0  0
    2.4663   -1.2029    0.7130 H   0  0  0  0  0  0  0  0  0  0  0  0
   -0.5538    0.0018   -1.5137 C   0  0  0  0  0  0  0  0  0  0  0  0
   -0.5538    0.0018    0.0096 C   0  0  0  0  0  3  0  0  0  0  0  0
   -0.5538    1.4076    0.5963 C   0  0  0  0  0  0  0  0  0  0  0  0
    0.3277    0.5160   -1.9043 H   0  0  0  0  0  0  0  0  0  0  0  0
   -1.4352    0.5160   -1.9043 H   0  0  0  0  0  0  0  0  0  0  0  0
   -0.5538   -1.0131   -1.9149 H   0  0  0  0  0  0  0  0  0  0  0  0
    0.4957   -0.6539    0.4464 H   0  0  0  0  0  0  0  0  0  0  0  0
   -1.4283   -0.5446    0.3736 H   0  0  0  0  0  0  0  0  0  0  0  0
   -1.4352    1.9661    0.2722 H   0  0  0  0  0  0  0  0  0  0  0  0
   -0.5538    1.3869    1.6875 H   0  0  0  0  0  0  0  0  0  0  0  0
    0.3277    1.9661    0.2722 H   0  0  0  0  0  0  0  0  0  0  0  0
  1  2  1  0
  1  3  1  0
  1 10  1  0
  4  5  1  0
  4  7  1  0
  4  8  1  0
  4  9  1  0
  5  6  1  0
  5 11  1  0
  6 12  1  0
  6 13  1  0
  6 14  1  0
M  RAD  1   5   2
M  END
>  <reaction>  (10) 
rxn_484

>  <mol_properties>  (10) 
{"0": {"label": "*3", "atom_type": "N3s"}, "1": {"label": "*4", "atom_type": "H0"}, "3": {"label": "*0", "atom_type": "Cs"}, "4": {"label": "*1", "atom_type": "Cs"}, "9": {"label": "*2", "atom_type": "H0"}}

>  <type>  (10) 
unop_6

>  <geom_source>  (10) 
Heuristics

$$$$

     RDKit          3D

 14 12  0  0  0  0  0  0  0  0999 V2000
    1.4684   -1.2571    0.8442 N   0  0  0  0  0  0  0  0  0  0  0  0
    1.1332   -2.0324    1.4002 H   0  0  0  0  0  0  0  0  0  0  0  0
    2.4017   -1.5758    0.6210 H   0  0  0  0  0  0  0  0  0  0  0  0
   -0.5515    0.0048   -1.5199 C   0  0  0  0  0  0  0  0  0  0  0  0
   -0.5515    0.0048    0.0034 C   0  0  0  0  0  3  0  0  0  0  0  0
   -0.5515    1.4106    0.5902 C   0  0  0  0  0  0  0  0  0  0  0  0
    0.3299    0.5191   -1.9105 H   0  0  0  0  0  0  0  0  0  0  0  0
   -1.4330    0.5191   -1.9105 H   0  0  0  0  0  0  0  0  0  0  0  0
   -0.5515   -1.0101   -1.9211 H   0  0  0  0  0  0  0  0  0  0  0  0
    0.4979   -0.6508    0.4402 H   0  0  0  0  0  0  0  0  0  0  0  0
   -1.4260   -0.5415    0.3674 H   0  0  0  0  0  0  0  0  0  0  0  0
   -1.4330    1.9692    0.2660 H   0  0  0  0  0  0  0  0  0  0  0  0
   -0.5515    1.3899    1.6813 H   0  0  0  0  0  0  0  0  0  0  0  0
    0.3299    1.9692    0.2660 H   0  0  0  0  0  0  0  0  0  0  0  0
  1  2  1  0
  1  3  1  0
  1 10  1  0
  4  5  1  0
  4  7  1  0
  4  8  1  0
  4  9  1  0
  5  6  1  0
  5 11  1  0
  6 12  1  0
  6 13  1  0
  6 14  1  0
M  RAD  1   5   2
M  END
>  <reaction>  (11) 
rxn_484

>  <mol_properties>  (11) 
{"0": {"label": "*3", "atom_type": "N3s"}, "1": {"label": "*4", "atom_type": "H0"}, "3": {"label": "*0", "atom_type": "Cs"}, "4": {"label": "*1", "atom_type": "Cs"}, "9": {"label": "*2", "atom_type": "H0"}}

>  <type>  (11) 
unop_7

>  <geom_source>  (11) 
Heuristics

$$$$

     RDKit          3D

 14 12  0  0  0  0  0  0  0  0999 V2000
    1.4770   -1.2890    0.8356 N   0  0  0  0  0  0  0  0  0  0  0  0
    2.2314   -0.6232    0.9369 H   0  0  0  0  0  0  0  0  0  0  0  0
    0.8060   -1.1479    1.5788 H   0  0  0  0  0  0  0  0  0  0  0  0
   -0.5429   -0.0271   -1.5285 C   0  0  0  0  0  0  0  0  0  0  0  0
   -0.5429   -0.0271   -0.0051 C   0  0  0  0  0  3  0  0  0  0  0  0
   -0.5429    1.3787    0.5816 C   0  0  0  0  0  0  0  0  0  0  0  0
    0.3386    0.4872   -1.9191 H   0  0  0  0  0  0  0  0  0  0  0  0
   -1.4243    0.4872   -1.9191 H   0  0  0  0  0  0  0  0  0  0  0  0
   -0.5429   -1.0420   -1.9296 H   0  0  0  0  0  0  0  0  0  0  0  0
    0.5066   -0.6827    0.4317 H   0  0  0  0  0  0  0  0  0  0  0  0
   -1.4174   -0.5734    0.3589 H   0  0  0  0  0  0  0  0  0  0  0  0
   -1.4243    1.9373    0.2574 H   0  0  0  0  0  0  0  0  0  0  0  0
   -0.5429    1.3581    1.6727 H   0  0  0  0  0  0  0  0  0  0  0  0
    0.3386    1.9373    0.2574 H   0  0  0  0  0  0  0  0  0  0  0  0
  1  2  1  0
  1  3  1  0
  1 10  1  0
  4  5  1  0
  4  7  1  0
  4  8  1  0
  4  9  1  0
  5  6  1  0
  5 11  1  0
  6 12  1  0
  6 13  1  0
  6 14  1  0
M  RAD  1   5   2
M  END
>  <reaction>  (12) 
rxn_484

>  <mol_properties>  (12) 
{"0": {"label": "*3", "atom_type": "N3s"}, "1": {"label": "*4", "atom_type": "H0"}, "3": {"label": "*0", "atom_type": "Cs"}, "4": {"label": "*1", "atom_type": "Cs"}, "9": {"label": "*2", "atom_type": "H0"}}

>  <type>  (12) 
unop_8

>  <geom_source>  (12) 
Heuristics

$$$$

     RDKit          3D

 14 12  0  0  0  0  0  0  0  0999 V2000
    1.4630   -1.2753    0.8575 N   0  0  0  0  0  0  0  0  0  0  0  0
    1.6867   -1.9836    0.1714 H   0  0  0  0  0  0  0  0  0  0  0  0
    2.1594   -0.5767    1.0801 H   0  0  0  0  0  0  0  0  0  0  0  0
   -0.5569   -0.0134   -1.5065 C   0  0  0  0  0  0  0  0  0  0  0  0
   -0.5569   -0.0134    0.0168 C   0  0  0  0  0  3  0  0  0  0  0  0
   -0.5569    1.3924    0.6035 C   0  0  0  0  0  0  0  0  0  0  0  0
    0.3245    0.5009   -1.8972 H   0  0  0  0  0  0  0  0  0  0  0  0
   -1.4384    0.5009   -1.8972 H   0  0  0  0  0  0  0  0  0  0  0  0
   -0.5569   -1.0283   -1.9077 H   0  0  0  0  0  0  0  0  0  0  0  0
    0.4925   -0.6690    0.4536 H   0  0  0  0  0  0  0  0  0  0  0  0
   -1.4314   -0.5597    0.3808 H   0  0  0  0  0  0  0  0  0  0  0  0
   -1.4384    1.9510    0.2794 H   0  0  0  0  0  0  0  0  0  0  0  0
   -0.5569    1.3718    1.6946 H   0  0  0  0  0  0  0  0  0  0  0  0
    0.3245    1.9510    0.2794 H   0  0  0  0  0  0  0  0  0  0  0  0
  1  2  1  0
  1  3  1  0
  1 10  1  0
  4  5  1  0
  4  7  1  0
  4  8  1  0
  4  9  1  0
  5  6  1  0
  5 11  1  0
  6 12  1  0
  6 13  1  0
  6 14  1  0
M  RAD  1   5   2
M  END
>  <reaction>  (13) 
rxn_484

>  <mol_properties>  (13) 
{"0": {"label": "*3", "atom_type": "N3s"}, "1": {"label": "*4", "atom_type": "H0"}, "3": {"label": "*0", "atom_type": "Cs"}, "4": {"label": "*1", "atom_type": "Cs"}, "9": {"label": "*2", "atom_type": "H0"}}

>  <type>  (13) 
unop_9

>  <geom_source>  (13) 
Heuristics

$$$$

     RDKit          3D

 14 12  0  0  0  0  0  0  0  0999 V2000
    1.4727   -1.2913    0.8431 N   0  0  0  0  0  0  0  0  0  0  0  0
    2.2948   -0.8201    0.4897 H   0  0  0  0  0  0  0  0  0  0  0  0
    0.9897   -0.8194    1.5958 H   0  0  0  0  0  0  0  0  0  0  0  0
   -0.5472   -0.0294   -1.5210 C   0  0  0  0  0  0  0  0  0  0  0  0
   -0.5472   -0.0294    0.0023 C   0  0  0  0  0  3  0  0  0  0  0  0
   -0.5472    1.3765    0.5890 C   0  0  0  0  0  0  0  0  0  0  0  0
    0.3343    0.4849   -1.9116 H   0  0  0  0  0  0  0  0  0  0  0  0
   -1.4286    0.4849   -1.9116 H   0  0  0  0  0  0  0  0  0  0  0  0
   -0.5472   -1.0443   -1.9222 H   0  0  0  0  0  0  0  0  0  0  0  0
    0.5023   -0.6850    0.4391 H   0  0  0  0  0  0  0  0  0  0  0  0
   -1.4217   -0.5757    0.3663 H   0  0  0  0  0  0  0  0  0  0  0  0
   -1.4286    1.9350    0.2649 H   0  0  0  0  0  0  0  0  0  0  0  0
   -0.5472    1.3558    1.6801 H   0  0  0  0  0  0  0  0  0  0  0  0
    0.3343    1.9350    0.2649 H   0  0  0  0  0  0  0  0  0  0  0  0
  1  2  1  0
  1  3  1  0
  1 10  1  0
  4  5  1  0
  4  7  1  0
  4  8  1  0
  4  9  1  0
  5  6  1  0
  5 11  1  0
  6 12  1  0
  6 13  1  0
  6 14  1  0
M  RAD  1   5   2
M  END
>  <reaction>  (14) 
rxn_484

>  <mol_properties>  (14) 
{"0": {"label": "*3", "atom_type": "N3s"}, "1": {"label": "*4", "atom_type": "H0"}, "3": {"label": "*0", "atom_type": "Cs"}, "4": {"label": "*1", "atom_type": "Cs"}, "9": {"label": "*2", "atom_type": "H0"}}

>  <type>  (14) 
unop_10

>  <geom_source>  (14) 
Heuristics

$$$$

     RDKit          3D

 14 12  0  0  0  0  0  0  0  0999 V2000
    1.4717   -1.2560    0.8384 N   0  0  0  0  0  0  0  0  0  0  0  0
    1.2239   -1.6697    1.7273 H   0  0  0  0  0  0  0  0  0  0  0  0
    2.1186   -2.0033    0.6248 H   0  0  0  0  0  0  0  0  0  0  0  0
   -0.5482    0.0059   -1.5256 C   0  0  0  0  0  0  0  0  0  0  0  0
   -0.5482    0.0059   -0.0023 C   0  0  0  0  0  3  0  0  0  0  0  0
   -0.5482    1.4117    0.5844 C   0  0  0  0  0  0  0  0  0  0  0  0
    0.3333    0.5202   -1.9163 H   0  0  0  0  0  0  0  0  0  0  0  0
   -1.4296    0.5202   -1.9163 H   0  0  0  0  0  0  0  0  0  0  0  0
   -0.5482   -1.0090   -1.9268 H   0  0  0  0  0  0  0  0  0  0  0  0
    0.5013   -0.6497    0.4345 H   0  0  0  0  0  0  0  0  0  0  0  0
   -1.4227   -0.5404    0.3617 H   0  0  0  0  0  0  0  0  0  0  0  0
   -1.4296    1.9703    0.2603 H   0  0  0  0  0  0  0  0  0  0  0  0
   -0.5482    1.3911    1.6755 H   0  0  0  0  0  0  0  0  0  0  0  0
    0.3333    1.9703    0.2603 H   0  0  0  0  0  0  0  0  0  0  0  0
  1  2  1  0
  1  3  1  0
  1 10  1  0
  4  5  1  0
  4  7  1  0
  4  8  1  0
  4  9  1  0
  5  6  1  0
  5 11  1  0
  6 12  1  0
  6 13  1  0
  6 14  1  0
M  RAD  1   5   2
M  END
>  <reaction>  (15) 
rxn_484

>  <mol_properties>  (15) 
{"0": {"label": "*3", "atom_type": "N3s"}, "1": {"label": "*4", "atom_type": "H0"}, "3": {"label": "*0", "atom_type": "Cs"}, "4": {"label": "*1", "atom_type": "Cs"}, "9": {"label": "*2", "atom_type": "H0"}}

>  <type>  (15) 
unop_11

>  <geom_source>  (15) 
Heuristics

$$$$

     RDKit          3D

 14 12  0  0  0  0  0  0  0  0999 V2000
    1.4649   -1.2842    0.8553 N   0  0  0  0  0  0  0  0  0  0  0  0
    1.9805   -1.6063    0.0473 H   0  0  0  0  0  0  0  0  0  0  0  0
    1.7575   -0.4408    1.3304 H   0  0  0  0  0  0  0  0  0  0  0  0
   -0.5550   -0.0223   -1.5087 C   0  0  0  0  0  0  0  0  0  0  0  0
   -0.5550   -0.0223    0.0146 C   0  0  0  0  0  3  0  0  0  0  0  0
   -0.5550    1.3835    0.6013 C   0  0  0  0  0  0  0  0  0  0  0  0
    0.3264    0.4920   -1.8994 H   0  0  0  0  0  0  0  0  0  0  0  0
   -1.4365    0.4920   -1.8994 H   0  0  0  0  0  0  0  0  0  0  0  0
   -0.5550   -1.0372   -1.9099 H   0  0  0  0  0  0  0  0  0  0  0  0
    0.4944   -0.6779    0.4514 H   0  0  0  0  0  0  0  0  0  0  0  0
   -1.4296   -0.5686    0.3786 H   0  0  0  0  0  0  0  0  0  0  0  0
   -1.4365    1.9421    0.2772 H   0  0  0  0  0  0  0  0  0  0  0  0
   -0.5550    1.3628    1.6924 H   0  0  0  0  0  0  0  0  0  0  0  0
    0.3264    1.9421    0.2772 H   0  0  0  0  0  0  0  0  0  0  0  0
  1  2  1  0
  1  3  1  0
  1 10  1  0
  4  5  1  0
  4  7  1  0
  4  8  1  0
  4  9  1  0
  5  6  1  0
  5 11  1  0
  6 12  1  0
  6 13  1  0
  6 14  1  0
M  RAD  1   5   2
M  END
>  <reaction>  (16) 
rxn_484

>  <mol_properties>  (16) 
{"0": {"label": "*3", "atom_type": "N3s"}, "1": {"label": "*4", "atom_type": "H0"}, "3": {"label": "*0", "atom_type": "Cs"}, "4": {"label": "*1", "atom_type": "Cs"}, "9": {"label": "*2", "atom_type": "H0"}}

>  <type>  (16) 
unop_12

>  <geom_source>  (16) 
Heuristics

$$$$
