
     RDKit          3D

  5  4  0  0  0  0  0  0  0  0999 V2000
    0.0000    0.0000    0.0000 C   0  0  0  0  0  0  0  0  0  0  0  0
   -0.6486   -0.7720   -0.4113 H   0  0  0  0  0  0  0  0  0  0  0  0
   -0.3482    0.9787   -0.3267 H   0  0  0  0  0  0  0  0  0  0  0  0
   -0.0223   -0.0487    1.0876 H   0  0  0  0  0  0  0  0  0  0  0  0
    1.0191   -0.1580   -0.3496 H   0  0  0  0  0  0  0  0  0  0  0  0
  1  2  1  0
  1  3  1  0
  1  4  1  0
  1  5  1  0
M  END
>  <reaction>  (1) 
rxn_854

>  <mol_properties>  (1) 
{"0": {"label": "donator", "atom_type": "Cs"}, "1": {"label": "d_hydrogen", "atom_type": "H0"}}

>  <type>  (1) 
r1h

$$$$

     RDKit          3D

  7  6  0  0  0  0  0  0  0  0999 V2000
   -1.3496    0.0255    0.0758 C   0  0  0  0  0  0  0  0  0  0  0  0
   -0.0636   -0.0704   -0.0033 C   0  0  0  0  0  0  0  0  0  0  0  0
    1.2597   -0.1602   -0.0839 C   0  0  0  0  0  0  0  0  0  0  0  0
    2.2616    1.2090   -0.0064 S   0  0  0  0  0  1  0  0  0  0  0  0
   -1.8547   -0.0180    1.0345 H   0  0  0  0  0  0  0  0  0  0  0  0
   -1.9552    0.1601   -0.8138 H   0  0  0  0  0  0  0  0  0  0  0  0
    1.7017   -1.1460   -0.2029 H   0  0  0  0  0  0  0  0  0  0  0  0
  1  2  2  0
  1  5  1  0
  1  6  1  0
  2  3  2  0
  3  4  1  0
  3  7  1  0
M  RAD  1   4   2
M  END
>  <reaction>  (2) 
rxn_854

>  <mol_properties>  (2) 
{"1": {"label": "acceptor", "atom_type": "Cd"}}

>  <type>  (2) 
r2

$$$$

     RDKit          3D

  8  7  0  0  0  0  0  0  0  0999 V2000
   -1.1617    0.0338    0.5053 C   0  0  0  0  0  0  0  0  0  0  0  0
   -0.1023    0.4503   -0.1863 C   0  0  0  0  0  0  0  0  0  0  0  0
    1.0978   -0.3557   -0.3104 C   0  0  0  0  0  0  0  0  0  0  0  0
    2.4251    0.0667   -1.1256 S   0  0  0  0  0  0  0  0  0  0  0  0
   -1.1653   -0.9292    1.0039 H   0  0  0  0  0  0  0  0  0  0  0  0
   -2.0546    0.6389    0.5948 H   0  0  0  0  0  0  0  0  0  0  0  0
   -0.0991    1.4132   -0.6847 H   0  0  0  0  0  0  0  0  0  0  0  0
    1.0601   -1.3180    0.2032 H   0  0  0  0  0  0  0  0  0  0  0  0
  1  2  2  3
  1  5  1  0
  1  6  1  0
  2  3  1  0
  2  7  1  0
  3  4  2  0
  3  8  1  0
M  END
>  <reaction>  (3) 
rxn_854

>  <mol_properties>  (3) 
{"1": {"label": "acceptor", "atom_type": "Cd"}, "7": {"label": "a_hydrogen", "atom_type": "H0"}}

>  <type>  (3) 
r2h

$$$$

     RDKit          3D

 12 10  0  0  0  0  0  0  0  0999 V2000
   -1.9376    0.7486    1.0559 C   0  0  0  0  0  0  0  0  0  0  0  0
   -0.8557    0.2341    0.4925 C   0  0  0  0  0  0  0  0  0  0  0  0
    0.4650    0.8096    0.5025 C   0  0  0  0  0  0  0  0  0  0  0  0
    1.7870    0.1857   -0.1831 S   0  0  0  0  0  1  0  0  0  0  0  0
   -1.9041    1.6933    1.5953 H   0  0  0  0  0  0  0  0  0  0  0  0
   -2.8987    0.2496    1.0021 H   0  0  0  0  0  0  0  0  0  0  0  0
    0.5375    1.7624    1.0370 H   0  0  0  0  0  0  0  0  0  0  0  0
   -1.1257   -2.0899   -0.7886 C   0  0  0  0  0  0  0  0  0  0  0  0
   -0.9817   -0.9619   -0.1700 H   0  0  0  0  0  0  0  0  0  0  0  0
   -0.4548   -2.7760   -0.2805 H   0  0  0  0  0  0  0  0  0  0  0  0
   -2.1758   -2.3499   -0.6820 H   0  0  0  0  0  0  0  0  0  0  0  0
   -0.8305   -1.8872   -1.8137 H   0  0  0  0  0  0  0  0  0  0  0  0
  1  2  2  0
  1  5  1  0
  1  6  1  0
  2  3  2  0
  3  4  1  0
  3  7  1  0
  8  9  1  0
  8 10  1  0
  8 11  1  0
  8 12  1  0
M  RAD  1   4   2
M  END
>  <reaction>  (4) 
rxn_854

>  <mol_properties>  (4) 
{"1": {"label": "*3", "atom_type": "Cdd"}, "2": {"label": "*4", "atom_type": "Cd"}, "7": {"label": "*1", "atom_type": "Cs"}, "8": {"label": "*2", "atom_type": "H0"}, "9": {"label": "*0", "atom_type": "H0"}}

>  <type>  (4) 
ts

$$$$

     RDKit          3D

 12 10  0  0  0  0  0  0  0  0999 V2000
   -2.0025    0.8865    0.9442 C   0  0  0  0  0  0  0  0  0  0  0  0
   -1.0163    0.4248    0.1771 C   0  0  0  0  0  0  0  0  0  0  0  0
    0.3786    0.6770    0.4868 C   0  0  0  0  0  0  0  0  0  0  0  0
    1.6357    0.1588   -0.3826 S   0  0  0  0  0  0  0  0  0  0  0  0
   -1.7968    1.4714    1.8338 H   0  0  0  0  0  0  0  0  0  0  0  0
   -3.0414    0.6955    0.7087 H   0  0  0  0  0  0  0  0  0  0  0  0
    0.5495    1.2683    1.3882 H   0  0  0  0  0  0  0  0  0  0  0  0
   -1.0163   -2.0339   -0.6922 C   0  0  0  0  0  3  0  0  0  0  0  0
   -1.0163   -0.8019   -0.2566 H   0  0  0  0  0  0  0  0  0  0  0  0
   -0.1272   -2.5472   -0.3292 H   0  0  0  0  0  0  0  0  0  0  0  0
   -1.9054   -2.5472   -0.3292 H   0  0  0  0  0  0  0  0  0  0  0  0
   -1.0163   -2.0339   -1.7811 H   0  0  0  0  0  0  0  0  0  0  0  0
  1  2  2  3
  1  5  1  0
  1  6  1  0
  2  3  1  0
  2  9  1  0
  3  4  2  0
  3  7  1  0
  8 10  1  0
  8 11  1  0
  8 12  1  0
M  RAD  1   8   2
M  END
>  <reaction>  (5) 
rxn_854

>  <mol_properties>  (5) 
{"1": {"label": "*3", "atom_type": "Cdd"}, "2": {"label": "*4", "atom_type": "Cd"}, "7": {"label": "*1", "atom_type": "Cs"}, "8": {"label": "*2", "atom_type": "H0"}, "9": {"label": "*0", "atom_type": "H0"}}

>  <type>  (5) 
unop_1

>  <geom_source>  (5) 
Heuristics

$$$$

     RDKit          3D

 12 10  0  0  0  0  0  0  0  0999 V2000
   -0.8799    1.5936   -1.4946 C   0  0  0  0  0  0  0  0  0  0  0  0
   -0.3106    0.6134   -0.7951 C   0  0  0  0  0  0  0  0  0  0  0  0
   -0.0037    0.7562    0.6158 C   0  0  0  0  0  0  0  0  0  0  0  0
    0.6833   -0.3744    1.5402 S   0  0  0  0  0  0  0  0  0  0  0  0
   -1.1363    2.5400   -1.0314 H   0  0  0  0  0  0  0  0  0  0  0  0
   -1.1067    1.4819   -2.5469 H   0  0  0  0  0  0  0  0  0  0  0  0
   -0.2747    1.7204    1.0497 H   0  0  0  0  0  0  0  0  0  0  0  0
   -0.3106   -1.8453   -1.6644 C   0  0  0  0  0  3  0  0  0  0  0  0
   -0.3106   -0.6133   -1.2288 H   0  0  0  0  0  0  0  0  0  0  0  0
    0.5785   -2.3586   -1.3014 H   0  0  0  0  0  0  0  0  0  0  0  0
   -1.1997   -2.3586   -1.3014 H   0  0  0  0  0  0  0  0  0  0  0  0
   -0.3106   -1.8453   -2.7533 H   0  0  0  0  0  0  0  0  0  0  0  0
  1  2  2  3
  1  5  1  0
  1  6  1  0
  2  3  1  0
  2  9  1  0
  3  4  2  0
  3  7  1  0
  8 10  1  0
  8 11  1  0
  8 12  1  0
M  RAD  1   8   2
M  END
>  <reaction>  (6) 
rxn_854

>  <mol_properties>  (6) 
{"1": {"label": "*3", "atom_type": "Cdd"}, "2": {"label": "*4", "atom_type": "Cd"}, "7": {"label": "*1", "atom_type": "Cs"}, "8": {"label": "*2", "atom_type": "H0"}, "9": {"label": "*0", "atom_type": "H0"}}

>  <type>  (6) 
unop_2

>  <geom_source>  (6) 
Heuristics

$$$$

     RDKit          3D

 12 10  0  0  0  0  0  0  0  0999 V2000
   -1.3887    0.5036    1.8577 C   0  0  0  0  0  0  0  0  0  0  0  0
   -0.8194    0.1809    0.6976 C   0  0  0  0  0  0  0  0  0  0  0  0
    0.4058    0.8114    0.2429 C   0  0  0  0  0  0  0  0  0  0  0  0
    1.1643    0.4845   -1.1437 S   0  0  0  0  0  0  0  0  0  0  0  0
   -0.9541    1.2543    2.5084 H   0  0  0  0  0  0  0  0  0  0  0  0
   -2.3027    0.0303    2.1923 H   0  0  0  0  0  0  0  0  0  0  0  0
    0.8158    1.5615    0.9215 H   0  0  0  0  0  0  0  0  0  0  0  0
   -0.8194   -2.2778   -0.1717 C   0  0  0  0  0  3  0  0  0  0  0  0
   -0.8194   -1.0458    0.2639 H   0  0  0  0  0  0  0  0  0  0  0  0
    0.0697   -2.7911    0.1913 H   0  0  0  0  0  0  0  0  0  0  0  0
   -1.7085   -2.7911    0.1913 H   0  0  0  0  0  0  0  0  0  0  0  0
   -0.8194   -2.2778   -1.2606 H   0  0  0  0  0  0  0  0  0  0  0  0
  1  2  2  3
  1  5  1  0
  1  6  1  0
  2  3  1  0
  2  9  1  0
  3  4  2  0
  3  7  1  0
  8 10  1  0
  8 11  1  0
  8 12  1  0
M  RAD  1   8   2
M  END
>  <reaction>  (7) 
rxn_854

>  <mol_properties>  (7) 
{"1": {"label": "*3", "atom_type": "Cdd"}, "2": {"label": "*4", "atom_type": "Cd"}, "7": {"label": "*1", "atom_type": "Cs"}, "8": {"label": "*2", "atom_type": "H0"}, "9": {"label": "*0", "atom_type": "H0"}}

>  <type>  (7) 
unop_3

>  <geom_source>  (7) 
Heuristics

$$$$

     RDKit          3D

 12 10  0  0  0  0  0  0  0  0999 V2000
    1.6213    1.4578   -0.9236 C   0  0  0  0  0  0  0  0  0  0  0  0
    0.6352    0.6166   -0.6172 C   0  0  0  0  0  0  0  0  0  0  0  0
   -0.0718    0.6917    0.6477 C   0  0  0  0  0  0  0  0  0  0  0  0
   -1.2754   -0.2823    1.1030 S   0  0  0  0  0  0  0  0  0  0  0  0
    1.9333    2.2344   -0.2341 H   0  0  0  0  0  0  0  0  0  0  0  0
    2.1455    1.3975   -1.8686 H   0  0  0  0  0  0  0  0  0  0  0  0
    0.2674    1.4841    1.3173 H   0  0  0  0  0  0  0  0  0  0  0  0
    0.6352   -1.8421   -1.4865 C   0  0  0  0  0  3  0  0  0  0  0  0
    0.6352   -0.6101   -1.0509 H   0  0  0  0  0  0  0  0  0  0  0  0
    1.5243   -2.3554   -1.1235 H   0  0  0  0  0  0  0  0  0  0  0  0
   -0.2539   -2.3554   -1.1235 H   0  0  0  0  0  0  0  0  0  0  0  0
    0.6352   -1.8421   -2.5754 H   0  0  0  0  0  0  0  0  0  0  0  0
  1  2  2  3
  1  5  1  0
  1  6  1  0
  2  3  1  0
  2  9  1  0
  3  4  2  0
  3  7  1  0
  8 10  1  0
  8 11  1  0
  8 12  1  0
M  RAD  1   8   2
M  END
>  <reaction>  (8) 
rxn_854

>  <mol_properties>  (8) 
{"1": {"label": "*3", "atom_type": "Cdd"}, "2": {"label": "*4", "atom_type": "Cd"}, "7": {"label": "*1", "atom_type": "Cs"}, "8": {"label": "*2", "atom_type": "H0"}, "9": {"label": "*0", "atom_type": "H0"}}

>  <type>  (8) 
unop_4

>  <geom_source>  (8) 
Heuristics

$$$$

     RDKit          3D

 12 10  0  0  0  0  0  0  0  0999 V2000
    0.0000    0.2082    2.3404 C   0  0  0  0  0  0  0  0  0  0  0  0
    0.0000   -0.0637    1.0365 C   0  0  0  0  0  0  0  0  0  0  0  0
   -0.0000    0.9855    0.0342 C   0  0  0  0  0  0  0  0  0  0  0  0
   -0.0000    0.7505   -1.5625 S   0  0  0  0  0  0  0  0  0  0  0  0
    0.0000    1.2305    2.7022 H   0  0  0  0  0  0  0  0  0  0  0  0
    0.0000   -0.5782    3.0840 H   0  0  0  0  0  0  0  0  0  0  0  0
   -0.0000    2.0017    0.4328 H   0  0  0  0  0  0  0  0  0  0  0  0
    0.0000   -2.5223    0.1672 C   0  0  0  0  0  3  0  0  0  0  0  0
    0.0000   -1.2904    0.6028 H   0  0  0  0  0  0  0  0  0  0  0  0
    0.8891   -3.0357    0.5302 H   0  0  0  0  0  0  0  0  0  0  0  0
   -0.8891   -3.0357    0.5302 H   0  0  0  0  0  0  0  0  0  0  0  0
    0.0000   -2.5223   -0.9217 H   0  0  0  0  0  0  0  0  0  0  0  0
  1  2  2  3
  1  5  1  0
  1  6  1  0
  2  3  1  0
  2  9  1  0
  3  4  2  0
  3  7  1  0
  8 10  1  0
  8 11  1  0
  8 12  1  0
M  RAD  1   8   2
M  END
>  <reaction>  (9) 
rxn_854

>  <mol_properties>  (9) 
{"1": {"label": "*3", "atom_type": "Cdd"}, "2": {"label": "*4", "atom_type": "Cd"}, "7": {"label": "*1", "atom_type": "Cs"}, "8": {"label": "*2", "atom_type": "H0"}, "9": {"label": "*0", "atom_type": "H0"}}

>  <type>  (9) 
unop_5

>  <geom_source>  (9) 
Heuristics

$$$$

     RDKit          3D

 12 10  0  0  0  0  0  0  0  0999 V2000
    2.0464    1.2137   -0.0548 C   0  0  0  0  0  0  0  0  0  0  0  0
    0.9077    0.5622   -0.2852 C   0  0  0  0  0  0  0  0  0  0  0  0
   -0.2232    0.6509    0.6196 C   0  0  0  0  0  0  0  0  0  0  0  0
   -1.6375   -0.1010    0.4217 S   0  0  0  0  0  0  0  0  0  0  0  0
    2.1700    1.8380    0.8231 H   0  0  0  0  0  0  0  0  0  0  0  0
    2.8870    1.1442   -0.7330 H   0  0  0  0  0  0  0  0  0  0  0  0
   -0.0647    1.2871    1.4922 H   0  0  0  0  0  0  0  0  0  0  0  0
    0.9077   -1.8964   -1.1544 C   0  0  0  0  0  3  0  0  0  0  0  0
    0.9077   -0.6645   -0.7189 H   0  0  0  0  0  0  0  0  0  0  0  0
    1.7968   -2.4098   -0.7915 H   0  0  0  0  0  0  0  0  0  0  0  0
    0.0186   -2.4098   -0.7915 H   0  0  0  0  0  0  0  0  0  0  0  0
    0.9077   -1.8964   -2.2434 H   0  0  0  0  0  0  0  0  0  0  0  0
  1  2  2  3
  1  5  1  0
  1  6  1  0
  2  3  1  0
  2  9  1  0
  3  4  2  0
  3  7  1  0
  8 10  1  0
  8 11  1  0
  8 12  1  0
M  RAD  1   8   2
M  END
>  <reaction>  (10) 
rxn_854

>  <mol_properties>  (10) 
{"1": {"label": "*3", "atom_type": "Cdd"}, "2": {"label": "*4", "atom_type": "Cd"}, "7": {"label": "*1", "atom_type": "Cs"}, "8": {"label": "*2", "atom_type": "H0"}, "9": {"label": "*0", "atom_type": "H0"}}

>  <type>  (10) 
unop_6

>  <geom_source>  (10) 
Heuristics

$$$$

     RDKit          3D

 12 10  0  0  0  0  0  0  0  0999 V2000
    2.0025    0.8865    0.9442 C   0  0  0  0  0  0  0  0  0  0  0  0
    1.0163    0.4248    0.1771 C   0  0  0  0  0  0  0  0  0  0  0  0
   -0.3786    0.6770    0.4868 C   0  0  0  0  0  0  0  0  0  0  0  0
   -1.6357    0.1588   -0.3826 S   0  0  0  0  0  0  0  0  0  0  0  0
    1.7968    1.4714    1.8338 H   0  0  0  0  0  0  0  0  0  0  0  0
    3.0414    0.6955    0.7087 H   0  0  0  0  0  0  0  0  0  0  0  0
   -0.5495    1.2682    1.3882 H   0  0  0  0  0  0  0  0  0  0  0  0
    1.0163   -2.0339   -0.6922 C   0  0  0  0  0  3  0  0  0  0  0  0
    1.0163   -0.8019   -0.2566 H   0  0  0  0  0  0  0  0  0  0  0  0
    1.9054   -2.5472   -0.3292 H   0  0  0  0  0  0  0  0  0  0  0  0
    0.1272   -2.5472   -0.3292 H   0  0  0  0  0  0  0  0  0  0  0  0
    1.0163   -2.0339   -1.7811 H   0  0  0  0  0  0  0  0  0  0  0  0
  1  2  2  3
  1  5  1  0
  1  6  1  0
  2  3  1  0
  2  9  1  0
  3  4  2  0
  3  7  1  0
  8 10  1  0
  8 11  1  0
  8 12  1  0
M  RAD  1   8   2
M  END
>  <reaction>  (11) 
rxn_854

>  <mol_properties>  (11) 
{"1": {"label": "*3", "atom_type": "Cdd"}, "2": {"label": "*4", "atom_type": "Cd"}, "7": {"label": "*1", "atom_type": "Cs"}, "8": {"label": "*2", "atom_type": "H0"}, "9": {"label": "*0", "atom_type": "H0"}}

>  <type>  (11) 
unop_7

>  <geom_source>  (11) 
Heuristics

$$$$

     RDKit          3D

 12 10  0  0  0  0  0  0  0  0999 V2000
   -2.0464    1.2137   -0.0548 C   0  0  0  0  0  0  0  0  0  0  0  0
   -0.9077    0.5622   -0.2852 C   0  0  0  0  0  0  0  0  0  0  0  0
    0.2232    0.6509    0.6196 C   0  0  0  0  0  0  0  0  0  0  0  0
    1.6375   -0.1010    0.4217 S   0  0  0  0  0  0  0  0  0  0  0  0
   -2.1700    1.8380    0.8231 H   0  0  0  0  0  0  0  0  0  0  0  0
   -2.8870    1.1442   -0.7330 H   0  0  0  0  0  0  0  0  0  0  0  0
    0.0647    1.2871    1.4922 H   0  0  0  0  0  0  0  0  0  0  0  0
   -0.9077   -1.8964   -1.1544 C   0  0  0  0  0  3  0  0  0  0  0  0
   -0.9077   -0.6645   -0.7189 H   0  0  0  0  0  0  0  0  0  0  0  0
   -0.0186   -2.4098   -0.7914 H   0  0  0  0  0  0  0  0  0  0  0  0
   -1.7968   -2.4098   -0.7914 H   0  0  0  0  0  0  0  0  0  0  0  0
   -0.9077   -1.8964   -2.2434 H   0  0  0  0  0  0  0  0  0  0  0  0
  1  2  2  3
  1  5  1  0
  1  6  1  0
  2  3  1  0
  2  9  1  0
  3  4  2  0
  3  7  1  0
  8 10  1  0
  8 11  1  0
  8 12  1  0
M  RAD  1   8   2
M  END
>  <reaction>  (12) 
rxn_854

>  <mol_properties>  (12) 
{"1": {"label": "*3", "atom_type": "Cdd"}, "2": {"label": "*4", "atom_type": "Cd"}, "7": {"label": "*1", "atom_type": "Cs"}, "8": {"label": "*2", "atom_type": "H0"}, "9": {"label": "*0", "atom_type": "H0"}}

>  <type>  (12) 
unop_8

>  <geom_source>  (12) 
Heuristics

$$$$

     RDKit          3D

 12 10  0  0  0  0  0  0  0  0999 V2000
    0.8799    1.5936   -1.4946 C   0  0  0  0  0  0  0  0  0  0  0  0
    0.3106    0.6134   -0.7951 C   0  0  0  0  0  0  0  0  0  0  0  0
    0.0037    0.7562    0.6158 C   0  0  0  0  0  0  0  0  0  0  0  0
   -0.6833   -0.3744    1.5402 S   0  0  0  0  0  0  0  0  0  0  0  0
    1.1363    2.5400   -1.0314 H   0  0  0  0  0  0  0  0  0  0  0  0
    1.1067    1.4819   -2.5469 H   0  0  0  0  0  0  0  0  0  0  0  0
    0.2747    1.7204    1.0497 H   0  0  0  0  0  0  0  0  0  0  0  0
    0.3106   -1.8453   -1.6644 C   0  0  0  0  0  3  0  0  0  0  0  0
    0.3106   -0.6133   -1.2288 H   0  0  0  0  0  0  0  0  0  0  0  0
    1.1997   -2.3586   -1.3014 H   0  0  0  0  0  0  0  0  0  0  0  0
   -0.5785   -2.3586   -1.3014 H   0  0  0  0  0  0  0  0  0  0  0  0
    0.3106   -1.8453   -2.7533 H   0  0  0  0  0  0  0  0  0  0  0  0
  1  2  2  3
  1  5  1  0
  1  6  1  0
  2  3  1  0
  2  9  1  0
  3  4  2  0
  3  7  1  0
  8 10  1  0
  8 11  1  0
  8 12  1  0
M  RAD  1   8   2
M  END
>  <reaction>  (13) 
rxn_854

>  <mol_properties>  (13) 
{"1": {"label": "*3", "atom_type": "Cdd"}, "2": {"label": "*4", "atom_type": "Cd"}, "7": {"label": "*1", "atom_type": "Cs"}, "8": {"label": "*2", "atom_type": "H0"}, "9": {"label": "*0", "atom_type": "H0"}}

>  <type>  (13) 
unop_9

>  <geom_source>  (13) 
Heuristics

$$$$

     RDKit          3D

 12 10  0  0  0  0  0  0  0  0999 V2000
   -1.6213    1.4578   -0.9236 C   0  0  0  0  0  0  0  0  0  0  0  0
   -0.6352    0.6166   -0.6172 C   0  0  0  0  0  0  0  0  0  0  0  0
    0.0718    0.6917    0.6477 C   0  0  0  0  0  0  0  0  0  0  0  0
    1.2754   -0.2823    1.1030 S   0  0  0  0  0  0  0  0  0  0  0  0
   -1.9333    2.2344   -0.2341 H   0  0  0  0  0  0  0  0  0  0  0  0
   -2.1455    1.3974   -1.8686 H   0  0  0  0  0  0  0  0  0  0  0  0
   -0.2674    1.4841    1.3173 H   0  0  0  0  0  0  0  0  0  0  0  0
   -0.6352   -1.8421   -1.4865 C   0  0  0  0  0  3  0  0  0  0  0  0
   -0.6352   -0.6101   -1.0509 H   0  0  0  0  0  0  0  0  0  0  0  0
    0.2539   -2.3554   -1.1235 H   0  0  0  0  0  0  0  0  0  0  0  0
   -1.5243   -2.3554   -1.1235 H   0  0  0  0  0  0  0  0  0  0  0  0
   -0.6352   -1.8421   -2.5754 H   0  0  0  0  0  0  0  0  0  0  0  0
  1  2  2  3
  1  5  1  0
  1  6  1  0
  2  3  1  0
  2  9  1  0
  3  4  2  0
  3  7  1  0
  8 10  1  0
  8 11  1  0
  8 12  1  0
M  RAD  1   8   2
M  END
>  <reaction>  (14) 
rxn_854

>  <mol_properties>  (14) 
{"1": {"label": "*3", "atom_type": "Cdd"}, "2": {"label": "*4", "atom_type": "Cd"}, "7": {"label": "*1", "atom_type": "Cs"}, "8": {"label": "*2", "atom_type": "H0"}, "9": {"label": "*0", "atom_type": "H0"}}

>  <type>  (14) 
unop_10

>  <geom_source>  (14) 
Heuristics

$$$$

     RDKit          3D

 12 10  0  0  0  0  0  0  0  0999 V2000
    1.3887    0.5036    1.8577 C   0  0  0  0  0  0  0  0  0  0  0  0
    0.8194    0.1809    0.6976 C   0  0  0  0  0  0  0  0  0  0  0  0
   -0.4058    0.8114    0.2429 C   0  0  0  0  0  0  0  0  0  0  0  0
   -1.1643    0.4845   -1.1437 S   0  0  0  0  0  0  0  0  0  0  0  0
    0.9541    1.2543    2.5084 H   0  0  0  0  0  0  0  0  0  0  0  0
    2.3027    0.0303    2.1923 H   0  0  0  0  0  0  0  0  0  0  0  0
   -0.8158    1.5615    0.9215 H   0  0  0  0  0  0  0  0  0  0  0  0
    0.8194   -2.2778   -0.1717 C   0  0  0  0  0  3  0  0  0  0  0  0
    0.8194   -1.0458    0.2639 H   0  0  0  0  0  0  0  0  0  0  0  0
    1.7085   -2.7911    0.1913 H   0  0  0  0  0  0  0  0  0  0  0  0
   -0.0697   -2.7911    0.1913 H   0  0  0  0  0  0  0  0  0  0  0  0
    0.8194   -2.2778   -1.2606 H   0  0  0  0  0  0  0  0  0  0  0  0
  1  2  2  3
  1  5  1  0
  1  6  1  0
  2  3  1  0
  2  9  1  0
  3  4  2  0
  3  7  1  0
  8 10  1  0
  8 11  1  0
  8 12  1  0
M  RAD  1   8   2
M  END
>  <reaction>  (15) 
rxn_854

>  <mol_properties>  (15) 
{"1": {"label": "*3", "atom_type": "Cdd"}, "2": {"label": "*4", "atom_type": "Cd"}, "7": {"label": "*1", "atom_type": "Cs"}, "8": {"label": "*2", "atom_type": "H0"}, "9": {"label": "*0", "atom_type": "H0"}}

>  <type>  (15) 
unop_11

>  <geom_source>  (15) 
Heuristics

$$$$

     RDKit          3D

 12 10  0  0  0  0  0  0  0  0999 V2000
   -0.0000    1.6330   -1.6894 C   0  0  0  0  0  0  0  0  0  0  0  0
   -0.0000    0.6020   -0.8462 C   0  0  0  0  0  0  0  0  0  0  0  0
    0.0000    0.7880    0.5928 C   0  0  0  0  0  0  0  0  0  0  0  0
    0.0000   -0.3984    1.6869 S   0  0  0  0  0  0  0  0  0  0  0  0
   -0.0000    2.6555   -1.3283 H   0  0  0  0  0  0  0  0  0  0  0  0
   -0.0000    1.4887   -2.7621 H   0  0  0  0  0  0  0  0  0  0  0  0
    0.0000    1.8289    0.9215 H   0  0  0  0  0  0  0  0  0  0  0  0
   -0.0000   -1.8567   -1.7155 C   0  0  0  0  0  3  0  0  0  0  0  0
   -0.0000   -0.6247   -1.2799 H   0  0  0  0  0  0  0  0  0  0  0  0
    0.8891   -2.3700   -1.3525 H   0  0  0  0  0  0  0  0  0  0  0  0
   -0.8891   -2.3700   -1.3525 H   0  0  0  0  0  0  0  0  0  0  0  0
   -0.0000   -1.8567   -2.8044 H   0  0  0  0  0  0  0  0  0  0  0  0
  1  2  2  3
  1  5  1  0
  1  6  1  0
  2  3  1  0
  2  9  1  0
  3  4  2  0
  3  7  1  0
  8 10  1  0
  8 11  1  0
  8 12  1  0
M  RAD  1   8   2
M  END
>  <reaction>  (16) 
rxn_854

>  <mol_properties>  (16) 
{"1": {"label": "*3", "atom_type": "Cdd"}, "2": {"label": "*4", "atom_type": "Cd"}, "7": {"label": "*1", "atom_type": "Cs"}, "8": {"label": "*2", "atom_type": "H0"}, "9": {"label": "*0", "atom_type": "H0"}}

>  <type>  (16) 
unop_12

>  <geom_source>  (16) 
Heuristics

$$$$

     RDKit          3D

 12 10  0  0  0  0  0  0  0  0999 V2000
    1.3791    2.1791    0.2305 S   0  0  0  0  0  0  0  0  0  0  0  0
    0.5634   -0.3630   -0.0678 C   0  0  0  0  0  0  0  0  0  0  0  0
    0.7468   -1.6328   -0.4135 C   0  0  0  0  0  0  0  0  0  0  0  0
    1.6373    0.6260   -0.2036 C   0  0  0  0  0  0  0  0  0  0  0  0
   -1.7208    0.7952    0.3636 C   0  0  0  0  0  3  0  0  0  0  0  0
   -0.6136    0.0116    0.4080 H   0  0  0  0  0  0  0  0  0  0  0  0
   -0.0630   -2.3414   -0.3028 H   0  0  0  0  0  0  0  0  0  0  0  0
    1.6957   -1.9769   -0.8066 H   0  0  0  0  0  0  0  0  0  0  0  0
    2.6076    0.3406   -0.5907 H   0  0  0  0  0  0  0  0  0  0  0  0
   -2.0094   -0.2436    0.6249 H   0  0  0  0  0  0  0  0  0  0  0  0
   -2.3435    1.1501   -0.4832 H   0  0  0  0  0  0  0  0  0  0  0  0
   -1.8795    1.4549    1.2413 H   0  0  0  0  0  0  0  0  0  0  0  0
  1  4  2  0
  2  3  2  3
  2  4  1  0
  2  6  1  0
  3  7  1  0
  3  8  1  0
  4  9  1  0
  5 10  1  0
  5 11  1  0
  5 12  1  0
M  RAD  1   5   2
M  END
>  <reaction>  (17) 
rxn_854

>  <mol_properties>  (17) 
{"1": {"label": "*3", "atom_type": "Cdd"}, "2": {"label": "*4", "atom_type": "Cd"}, "7": {"label": "*1", "atom_type": "Cs"}, "8": {"label": "*2", "atom_type": "H0"}, "9": {"label": "*0", "atom_type": "H0"}}

>  <type>  (17) 
unop_13

>  <geom_source>  (17) 
AutoTST

$$$$
