
     RDKit          3D

  6  5  0  0  0  0  0  0  0  0999 V2000
   -0.5072   -0.0291   -0.0097 C   0  0  0  0  0  0  0  0  0  0  0  0
    1.1321   -0.1527   -0.7687 S   0  0  0  0  0  0  0  0  0  0  0  0
   -0.6174   -0.7330    0.8127 H   0  0  0  0  0  0  0  0  0  0  0  0
   -0.5863    0.9827    0.3845 H   0  0  0  0  0  0  0  0  0  0  0  0
   -1.2962   -0.1800   -0.7434 H   0  0  0  0  0  0  0  0  0  0  0  0
    1.0312   -1.4237   -1.1764 H   0  0  0  0  0  0  0  0  0  0  0  0
  1  2  1  0
  1  3  1  0
  1  4  1  0
  1  5  1  0
  2  6  1  0
M  END
>  <reaction>  (1) 
rxn_1811

>  <mol_properties>  (1) 
{"0": {"label": "donator", "atom_type": "Cs"}, "2": {"label": "d_hydrogen", "atom_type": "H0"}}

>  <type>  (1) 
r1h

$$$$

     RDKit          3D

 14 13  0  0  0  0  0  0  0  0999 V2000
    1.0767   -1.6838    1.2931 C   0  0  0  0  0  0  0  0  0  0  0  0
    1.0020   -0.3665    0.9163 C   0  0  0  0  0  0  0  0  0  0  0  0
    1.3965    0.7260    1.6806 C   0  0  0  0  0  3  0  0  0  0  0  0
    1.2666    2.1197    1.1619 C   0  0  0  0  0  0  0  0  0  0  0  0
    1.9670    0.5479    3.0536 C   0  0  0  0  0  0  0  0  0  0  0  0
    0.7448   -2.4705    0.6300 H   0  0  0  0  0  0  0  0  0  0  0  0
    1.4663   -1.9826    2.2578 H   0  0  0  0  0  0  0  0  0  0  0  0
    0.5980   -0.1511   -0.0695 H   0  0  0  0  0  0  0  0  0  0  0  0
    0.6296    2.7241    1.8172 H   0  0  0  0  0  0  0  0  0  0  0  0
    2.2410    2.6200    1.1341 H   0  0  0  0  0  0  0  0  0  0  0  0
    0.8426    2.1448    0.1579 H   0  0  0  0  0  0  0  0  0  0  0  0
    2.8745   -0.0634    3.0328 H   0  0  0  0  0  0  0  0  0  0  0  0
    1.2599    0.0408    3.7173 H   0  0  0  0  0  0  0  0  0  0  0  0
    2.2205    1.5071    3.5054 H   0  0  0  0  0  0  0  0  0  0  0  0
  1  2  2  3
  1  6  1  0
  1  7  1  0
  2  3  1  0
  2  8  1  0
  3  4  1  0
  3  5  1  0
  4  9  1  0
  4 10  1  0
  4 11  1  0
  5 12  1  0
  5 13  1  0
  5 14  1  0
M  RAD  1   3   2
M  END
>  <reaction>  (2) 
rxn_1811

>  <mol_properties>  (2) 
{"2": {"label": "acceptor", "atom_type": "Cs"}}

>  <type>  (2) 
r2

$$$$

     RDKit          3D

 15 14  0  0  0  0  0  0  0  0999 V2000
    2.1256    0.4849   -0.6284 C   0  0  0  0  0  0  0  0  0  0  0  0
    1.1128    0.2141    0.1794 C   0  0  0  0  0  0  0  0  0  0  0  0
   -0.3017   -0.0425   -0.2513 C   0  0  0  0  0  0  0  0  0  0  0  0
   -1.2427    1.0075    0.3423 C   0  0  0  0  0  0  0  0  0  0  0  0
   -0.7381   -1.4526    0.1504 C   0  0  0  0  0  0  0  0  0  0  0  0
    3.1243    0.6601   -0.2485 H   0  0  0  0  0  0  0  0  0  0  0  0
    1.9909    0.5411   -1.7035 H   0  0  0  0  0  0  0  0  0  0  0  0
    1.2888    0.1665    1.2533 H   0  0  0  0  0  0  0  0  0  0  0  0
   -0.3426    0.0343   -1.3424 H   0  0  0  0  0  0  0  0  0  0  0  0
   -0.9571    2.0133    0.0314 H   0  0  0  0  0  0  0  0  0  0  0  0
   -1.2189    0.9729    1.4350 H   0  0  0  0  0  0  0  0  0  0  0  0
   -2.2723    0.8286    0.0255 H   0  0  0  0  0  0  0  0  0  0  0  0
   -0.6963   -1.5745    1.2363 H   0  0  0  0  0  0  0  0  0  0  0  0
   -0.0911   -2.2079   -0.2979 H   0  0  0  0  0  0  0  0  0  0  0  0
   -1.7647   -1.6460   -0.1676 H   0  0  0  0  0  0  0  0  0  0  0  0
  1  2  2  3
  1  6  1  0
  1  7  1  0
  2  3  1  0
  2  8  1  0
  3  4  1  0
  3  5  1  0
  3  9  1  0
  4 10  1  0
  4 11  1  0
  4 12  1  0
  5 13  1  0
  5 14  1  0
  5 15  1  0
M  END
>  <reaction>  (3) 
rxn_1811

>  <mol_properties>  (3) 
{"0": {"label": "a_hydrogen", "atom_type": "H0"}, "3": {"label": "acceptor", "atom_type": "Cs"}}

>  <type>  (3) 
r2h

$$$$

     RDKit          3D

 20 18  0  0  0  0  0  0  0  0999 V2000
   -0.1418   -0.9131   -1.3280 C   0  0  0  0  0  3  0  0  0  0  0  0
    0.6102   -2.3511   -0.6482 S   0  0  0  0  0  0  0  0  0  0  0  0
   -0.0535    0.1281   -0.3467 H   0  0  0  0  0  0  0  0  0  0  0  0
    0.4216   -0.5503   -2.1826 H   0  0  0  0  0  0  0  0  0  0  0  0
   -1.2105   -0.9822   -1.5111 H   0  0  0  0  0  0  0  0  0  0  0  0
   -0.2225   -2.4987    0.3916 H   0  0  0  0  0  0  0  0  0  0  0  0
   -0.1354   -0.2582    2.7336 C   0  0  0  0  0  0  0  0  0  0  0  0
   -0.6417    0.4212    1.7045 C   0  0  0  0  0  0  0  0  0  0  0  0
    0.1039    1.0022    0.5768 C   0  0  0  0  0  0  0  0  0  0  0  0
    1.6071    1.0649    0.7227 C   0  0  0  0  0  0  0  0  0  0  0  0
   -0.5167    2.2611    0.0044 C   0  0  0  0  0  0  0  0  0  0  0  0
   -0.7802   -0.6745    3.4970 H   0  0  0  0  0  0  0  0  0  0  0  0
    0.9298   -0.4116    2.8555 H   0  0  0  0  0  0  0  0  0  0  0  0
   -1.7223    0.5396    1.6529 H   0  0  0  0  0  0  0  0  0  0  0  0
    2.0618    1.4627   -0.1863 H   0  0  0  0  0  0  0  0  0  0  0  0
    1.8955    1.7137    1.5558 H   0  0  0  0  0  0  0  0  0  0  0  0
    2.0326    0.0756    0.9005 H   0  0  0  0  0  0  0  0  0  0  0  0
   -0.3711    3.1116    0.6781 H   0  0  0  0  0  0  0  0  0  0  0  0
   -1.5910    2.1405   -0.1503 H   0  0  0  0  0  0  0  0  0  0  0  0
   -0.0628    2.5177   -0.9552 H   0  0  0  0  0  0  0  0  0  0  0  0
  1  2  1  0
  1  4  1  0
  1  5  1  0
  2  6  1  0
  3  9  1  0
  7  8  2  3
  7 12  1  0
  7 13  1  0
  8  9  1  0
  8 14  1  0
  9 10  1  0
  9 11  1  0
 10 15  1  0
 10 16  1  0
 10 17  1  0
 11 18  1  0
 11 19  1  0
 11 20  1  0
M  RAD  1   1   2
M  END
>  <reaction>  (4) 
rxn_1811

>  <mol_properties>  (4) 
{"0": {"label": "*3", "atom_type": "Cs"}, "1": {"label": "*4", "atom_type": "S2s"}, "2": {"label": "*2", "atom_type": "H0"}, "7": {"label": "*0", "atom_type": "Cd"}, "8": {"label": "*1", "atom_type": "Cs"}}

>  <type>  (4) 
ts

$$$$

     RDKit          3D

 20 18  0  0  0  0  0  0  0  0999 V2000
    0.2112   -1.5109   -0.2671 C   0  0  0  0  0  0  0  0  0  0  0  0
    0.2112   -1.5109   -2.0777 S   0  0  0  0  0  0  0  0  0  0  0  0
    0.2112   -0.2951    0.2087 H   0  0  0  0  0  0  0  0  0  0  0  0
   -0.7095   -2.0050    0.0389 H   0  0  0  0  0  0  0  0  0  0  0  0
    1.0555   -2.0709    0.1294 H   0  0  0  0  0  0  0  0  0  0  0  0
    1.3815   -0.8828   -2.2441 H   0  0  0  0  0  0  0  0  0  0  0  0
   -2.2186    0.6040    1.2381 C   0  0  0  0  0  0  0  0  0  0  0  0
   -1.0247    1.1003    1.5210 C   0  0  0  0  0  0  0  0  0  0  0  0
    0.2112    0.9280    0.6873 C   0  0  0  0  0  3  0  0  0  0  0  0
    1.2931    0.1892    1.4772 C   0  0  0  0  0  0  0  0  0  0  0  0
    0.7243    2.2846    0.2009 C   0  0  0  0  0  0  0  0  0  0  0  0
   -3.0703    0.7677    1.8864 H   0  0  0  0  0  0  0  0  0  0  0  0
   -2.3870    0.0135    0.3436 H   0  0  0  0  0  0  0  0  0  0  0  0
   -0.8962    1.6882    2.4289 H   0  0  0  0  0  0  0  0  0  0  0  0
    2.1919    0.0553    0.8716 H   0  0  0  0  0  0  0  0  0  0  0  0
    1.5732    0.7552    2.3698 H   0  0  0  0  0  0  0  0  0  0  0  0
    0.9449   -0.7937    1.7977 H   0  0  0  0  0  0  0  0  0  0  0  0
    0.9842    2.9250    1.0483 H   0  0  0  0  0  0  0  0  0  0  0  0
   -0.0310    2.8019   -0.3923 H   0  0  0  0  0  0  0  0  0  0  0  0
    1.6198    2.1632   -0.4122 H   0  0  0  0  0  0  0  0  0  0  0  0
  1  2  1  0
  1  3  1  0
  1  4  1  0
  1  5  1  0
  2  6  1  0
  7  8  2  3
  7 12  1  0
  7 13  1  0
  8  9  1  0
  8 14  1  0
  9 10  1  0
  9 11  1  0
 10 15  1  0
 10 16  1  0
 10 17  1  0
 11 18  1  0
 11 19  1  0
 11 20  1  0
M  RAD  1   9   2
M  END
>  <reaction>  (5) 
rxn_1811

>  <mol_properties>  (5) 
{"0": {"label": "*3", "atom_type": "Cs"}, "1": {"label": "*4", "atom_type": "S2s"}, "2": {"label": "*2", "atom_type": "H0"}, "7": {"label": "*0", "atom_type": "Cd"}, "8": {"label": "*1", "atom_type": "Cs"}}

>  <type>  (5) 
unop_1

>  <geom_source>  (5) 
Heuristics

$$$$

     RDKit          3D

 20 18  0  0  0  0  0  0  0  0999 V2000
    0.1417   -1.6627    0.0968 C   0  0  0  0  0  0  0  0  0  0  0  0
    0.1417   -1.6627   -1.7138 S   0  0  0  0  0  0  0  0  0  0  0  0
    0.1417   -0.4469    0.5726 H   0  0  0  0  0  0  0  0  0  0  0  0
   -0.7790   -2.1569    0.4028 H   0  0  0  0  0  0  0  0  0  0  0  0
    0.9861   -2.2227    0.4933 H   0  0  0  0  0  0  0  0  0  0  0  0
    1.3120   -1.0346   -1.8802 H   0  0  0  0  0  0  0  0  0  0  0  0
   -0.8037    1.3666   -1.2004 C   0  0  0  0  0  0  0  0  0  0  0  0
   -0.5719    1.6589    0.0694 C   0  0  0  0  0  0  0  0  0  0  0  0
    0.1417    0.7762    1.0512 C   0  0  0  0  0  3  0  0  0  0  0  0
   -0.7845    0.4037    2.2104 C   0  0  0  0  0  0  0  0  0  0  0  0
    1.4090    1.4607    1.5666 C   0  0  0  0  0  0  0  0  0  0  0  0
   -1.3265    2.0526   -1.8551 H   0  0  0  0  0  0  0  0  0  0  0  0
   -0.4772    0.4263   -1.6320 H   0  0  0  0  0  0  0  0  0  0  0  0
   -0.9157    2.6136    0.4654 H   0  0  0  0  0  0  0  0  0  0  0  0
   -0.2713   -0.2446    2.9237 H   0  0  0  0  0  0  0  0  0  0  0  0
   -1.1097    1.2991    2.7471 H   0  0  0  0  0  0  0  0  0  0  0  0
   -1.6745   -0.1157    1.8523 H   0  0  0  0  0  0  0  0  0  0  0  0
    1.1616    2.3937    2.0805 H   0  0  0  0  0  0  0  0  0  0  0  0
    2.0894    1.6982    0.7476 H   0  0  0  0  0  0  0  0  0  0  0  0
    1.9352    0.8187    2.2760 H   0  0  0  0  0  0  0  0  0  0  0  0
  1  2  1  0
  1  3  1  0
  1  4  1  0
  1  5  1  0
  2  6  1  0
  7  8  2  3
  7 12  1  0
  7 13  1  0
  8  9  1  0
  8 14  1  0
  9 10  1  0
  9 11  1  0
 10 15  1  0
 10 16  1  0
 10 17  1  0
 11 18  1  0
 11 19  1  0
 11 20  1  0
M  RAD  1   9   2
M  END
>  <reaction>  (6) 
rxn_1811

>  <mol_properties>  (6) 
{"0": {"label": "*3", "atom_type": "Cs"}, "1": {"label": "*4", "atom_type": "S2s"}, "2": {"label": "*2", "atom_type": "H0"}, "7": {"label": "*0", "atom_type": "Cd"}, "8": {"label": "*1", "atom_type": "Cs"}}

>  <type>  (6) 
unop_2

>  <geom_source>  (6) 
Heuristics

$$$$

     RDKit          3D

 20 18  0  0  0  0  0  0  0  0999 V2000
    0.1050   -1.4864   -0.3451 C   0  0  0  0  0  0  0  0  0  0  0  0
    0.1050   -1.4864   -2.1558 S   0  0  0  0  0  0  0  0  0  0  0  0
    0.1050   -0.2706    0.1307 H   0  0  0  0  0  0  0  0  0  0  0  0
   -0.8156   -1.9806   -0.0392 H   0  0  0  0  0  0  0  0  0  0  0  0
    0.9494   -2.0464    0.0514 H   0  0  0  0  0  0  0  0  0  0  0  0
    1.2753   -0.8583   -2.3222 H   0  0  0  0  0  0  0  0  0  0  0  0
   -1.5462    0.0707    2.2850 C   0  0  0  0  0  0  0  0  0  0  0  0
   -0.6085    0.9344    1.9294 C   0  0  0  0  0  0  0  0  0  0  0  0
    0.1050    0.9525    0.6093 C   0  0  0  0  0  3  0  0  0  0  0  0
    1.6062    0.7338    0.8071 C   0  0  0  0  0  0  0  0  0  0  0  0
   -0.1603    2.2671   -0.1267 C   0  0  0  0  0  0  0  0  0  0  0  0
   -2.0211    0.1157    3.2571 H   0  0  0  0  0  0  0  0  0  0  0  0
   -1.8736   -0.7157    1.6130 H   0  0  0  0  0  0  0  0  0  0  0  0
   -0.3072    1.7098    2.6326 H   0  0  0  0  0  0  0  0  0  0  0  0
    2.1284    0.7391   -0.1519 H   0  0  0  0  0  0  0  0  0  0  0  0
    2.0335    1.5288    1.4244 H   0  0  0  0  0  0  0  0  0  0  0  0
    1.8038   -0.2185    1.3010 H   0  0  0  0  0  0  0  0  0  0  0  0
    0.2044    3.1164    0.4574 H   0  0  0  0  0  0  0  0  0  0  0  0
   -1.2273    2.4124   -0.3013 H   0  0  0  0  0  0  0  0  0  0  0  0
    0.3514    2.2815   -1.0913 H   0  0  0  0  0  0  0  0  0  0  0  0
  1  2  1  0
  1  3  1  0
  1  4  1  0
  1  5  1  0
  2  6  1  0
  7  8  2  3
  7 12  1  0
  7 13  1  0
  8  9  1  0
  8 14  1  0
  9 10  1  0
  9 11  1  0
 10 15  1  0
 10 16  1  0
 10 17  1  0
 11 18  1  0
 11 19  1  0
 11 20  1  0
M  RAD  1   9   2
M  END
>  <reaction>  (7) 
rxn_1811

>  <mol_properties>  (7) 
{"0": {"label": "*3", "atom_type": "Cs"}, "1": {"label": "*4", "atom_type": "S2s"}, "2": {"label": "*2", "atom_type": "H0"}, "7": {"label": "*0", "atom_type": "Cd"}, "8": {"label": "*1", "atom_type": "Cs"}}

>  <type>  (7) 
unop_3

>  <geom_source>  (7) 
Heuristics

$$$$

     RDKit          3D

 20 18  0  0  0  0  0  0  0  0999 V2000
   -0.2611   -1.6158   -0.0087 C   0  0  0  0  0  0  0  0  0  0  0  0
   -0.2611   -1.6158   -1.8193 S   0  0  0  0  0  0  0  0  0  0  0  0
   -0.2611   -0.4000    0.4671 H   0  0  0  0  0  0  0  0  0  0  0  0
   -1.1817   -2.1100    0.2972 H   0  0  0  0  0  0  0  0  0  0  0  0
    0.5833   -2.1758    0.3878 H   0  0  0  0  0  0  0  0  0  0  0  0
    0.9092   -0.9877   -1.9857 H   0  0  0  0  0  0  0  0  0  0  0  0
    1.5710    1.2886   -0.7093 C   0  0  0  0  0  0  0  0  0  0  0  0
    0.9749    1.5155    0.4504 C   0  0  0  0  0  0  0  0  0  0  0  0
   -0.2611    0.8231    0.9457 C   0  0  0  0  0  3  0  0  0  0  0  0
   -1.3928    1.8305    1.1571 C   0  0  0  0  0  0  0  0  0  0  0  0
    0.0332    0.0574    2.2370 C   0  0  0  0  0  0  0  0  0  0  0  0
    2.4632    1.8265   -1.0044 H   0  0  0  0  0  0  0  0  0  0  0  0
    1.1857    0.5533   -1.4079 H   0  0  0  0  0  0  0  0  0  0  0  0
    1.3926    2.2621    1.1246 H   0  0  0  0  0  0  0  0  0  0  0  0
   -2.2965    1.3297    1.5108 H   0  0  0  0  0  0  0  0  0  0  0  0
   -1.1102    2.5766    1.9048 H   0  0  0  0  0  0  0  0  0  0  0  0
   -1.6308    2.3557    0.2311 H   0  0  0  0  0  0  0  0  0  0  0  0
    0.3664    0.7407    3.0230 H   0  0  0  0  0  0  0  0  0  0  0  0
    0.8161   -0.6867    2.0841 H   0  0  0  0  0  0  0  0  0  0  0  0
   -0.8620   -0.4538    2.5971 H   0  0  0  0  0  0  0  0  0  0  0  0
  1  2  1  0
  1  3  1  0
  1  4  1  0
  1  5  1  0
  2  6  1  0
  7  8  2  3
  7 12  1  0
  7 13  1  0
  8  9  1  0
  8 14  1  0
  9 10  1  0
  9 11  1  0
 10 15  1  0
 10 16  1  0
 10 17  1  0
 11 18  1  0
 11 19  1  0
 11 20  1  0
M  RAD  1   9   2
M  END
>  <reaction>  (8) 
rxn_1811

>  <mol_properties>  (8) 
{"0": {"label": "*3", "atom_type": "Cs"}, "1": {"label": "*4", "atom_type": "S2s"}, "2": {"label": "*2", "atom_type": "H0"}, "7": {"label": "*0", "atom_type": "Cd"}, "8": {"label": "*1", "atom_type": "Cs"}}

>  <type>  (8) 
unop_4

>  <geom_source>  (8) 
Heuristics

$$$$

     RDKit          3D

 20 18  0  0  0  0  0  0  0  0999 V2000
   -0.0094   -1.4838   -0.3677 C   0  0  0  0  0  0  0  0  0  0  0  0
   -0.0094   -1.4838   -2.1783 S   0  0  0  0  0  0  0  0  0  0  0  0
   -0.0094   -0.2680    0.1081 H   0  0  0  0  0  0  0  0  0  0  0  0
   -0.9301   -1.9780   -0.0617 H   0  0  0  0  0  0  0  0  0  0  0  0
    0.8349   -2.0438    0.0288 H   0  0  0  0  0  0  0  0  0  0  0  0
    1.1609   -0.8557   -2.3447 H   0  0  0  0  0  0  0  0  0  0  0  0
   -0.0094   -0.2529    2.7896 C   0  0  0  0  0  0  0  0  0  0  0  0
   -0.0094    0.8674    2.0849 C   0  0  0  0  0  0  0  0  0  0  0  0
   -0.0094    0.9551    0.5867 C   0  0  0  0  0  3  0  0  0  0  0  0
    1.2499    1.6680    0.0905 C   0  0  0  0  0  0  0  0  0  0  0  0
   -1.2687    1.6680    0.0905 C   0  0  0  0  0  0  0  0  0  0  0  0
   -0.0094   -0.2431    3.8724 H   0  0  0  0  0  0  0  0  0  0  0  0
   -0.0094   -1.2242    2.3060 H   0  0  0  0  0  0  0  0  0  0  0  0
   -0.0094    1.8230    2.6076 H   0  0  0  0  0  0  0  0  0  0  0  0
    1.2573    1.7276   -0.9999 H   0  0  0  0  0  0  0  0  0  0  0  0
    1.2946    2.6883    0.4810 H   0  0  0  0  0  0  0  0  0  0  0  0
    2.1514    1.1449    0.4124 H   0  0  0  0  0  0  0  0  0  0  0  0
   -1.3134    2.6883    0.4810 H   0  0  0  0  0  0  0  0  0  0  0  0
   -2.1703    1.1449    0.4124 H   0  0  0  0  0  0  0  0  0  0  0  0
   -1.2762    1.7276   -0.9999 H   0  0  0  0  0  0  0  0  0  0  0  0
  1  2  1  0
  1  3  1  0
  1  4  1  0
  1  5  1  0
  2  6  1  0
  7  8  2  3
  7 12  1  0
  7 13  1  0
  8  9  1  0
  8 14  1  0
  9 10  1  0
  9 11  1  0
 10 15  1  0
 10 16  1  0
 10 17  1  0
 11 18  1  0
 11 19  1  0
 11 20  1  0
M  RAD  1   9   2
M  END
>  <reaction>  (9) 
rxn_1811

>  <mol_properties>  (9) 
{"0": {"label": "*3", "atom_type": "Cs"}, "1": {"label": "*4", "atom_type": "S2s"}, "2": {"label": "*2", "atom_type": "H0"}, "7": {"label": "*0", "atom_type": "Cd"}, "8": {"label": "*1", "atom_type": "Cs"}}

>  <type>  (9) 
unop_5

>  <geom_source>  (9) 
Heuristics

$$$$

     RDKit          3D

 20 18  0  0  0  0  0  0  0  0999 V2000
   -0.2843   -1.5590   -0.1436 C   0  0  0  0  0  0  0  0  0  0  0  0
   -0.2843   -1.5590   -1.9543 S   0  0  0  0  0  0  0  0  0  0  0  0
   -0.2843   -0.3432    0.3322 H   0  0  0  0  0  0  0  0  0  0  0  0
   -1.2049   -2.0531    0.1623 H   0  0  0  0  0  0  0  0  0  0  0  0
    0.5601   -2.1190    0.2529 H   0  0  0  0  0  0  0  0  0  0  0  0
    0.8861   -0.9309   -2.1207 H   0  0  0  0  0  0  0  0  0  0  0  0
    2.1343    1.0345    0.1484 C   0  0  0  0  0  0  0  0  0  0  0  0
    1.1429    1.3123    0.9800 C   0  0  0  0  0  0  0  0  0  0  0  0
   -0.2843    0.8799    0.8108 C   0  0  0  0  0  3  0  0  0  0  0  0
   -1.2033    2.0969    0.6896 C   0  0  0  0  0  0  0  0  0  0  0  0
   -0.7164   -0.0136    1.9749 C   0  0  0  0  0  0  0  0  0  0  0  0
    3.1440    1.3796    0.3324 H   0  0  0  0  0  0  0  0  0  0  0  0
    1.9702    0.4493   -0.7504 H   0  0  0  0  0  0  0  0  0  0  0  0
    1.3482    1.9029    1.8719 H   0  0  0  0  0  0  0  0  0  0  0  0
   -2.2421    1.7866    0.5591 H   0  0  0  0  0  0  0  0  0  0  0  0
   -1.1494    2.7122    1.5919 H   0  0  0  0  0  0  0  0  0  0  0  0
   -0.9214    2.7204   -0.1600 H   0  0  0  0  0  0  0  0  0  0  0  0
   -0.6452    0.5268    2.9228 H   0  0  0  0  0  0  0  0  0  0  0  0
   -0.0858   -0.9010    2.0456 H   0  0  0  0  0  0  0  0  0  0  0  0
   -1.7523   -0.3363    1.8521 H   0  0  0  0  0  0  0  0  0  0  0  0
  1  2  1  0
  1  3  1  0
  1  4  1  0
  1  5  1  0
  2  6  1  0
  7  8  2  3
  7 12  1  0
  7 13  1  0
  8  9  1  0
  8 14  1  0
  9 10  1  0
  9 11  1  0
 10 15  1  0
 10 16  1  0
 10 17  1  0
 11 18  1  0
 11 19  1  0
 11 20  1  0
M  RAD  1   9   2
M  END
>  <reaction>  (10) 
rxn_1811

>  <mol_properties>  (10) 
{"0": {"label": "*3", "atom_type": "Cs"}, "1": {"label": "*4", "atom_type": "S2s"}, "2": {"label": "*2", "atom_type": "H0"}, "7": {"label": "*0", "atom_type": "Cd"}, "8": {"label": "*1", "atom_type": "Cs"}}

>  <type>  (10) 
unop_6

>  <geom_source>  (10) 
Heuristics

$$$$

     RDKit          3D

 20 18  0  0  0  0  0  0  0  0999 V2000
   -0.2300   -1.5109   -0.2671 C   0  0  0  0  0  0  0  0  0  0  0  0
   -0.2300   -1.5109   -2.0777 S   0  0  0  0  0  0  0  0  0  0  0  0
   -0.2300   -0.2951    0.2087 H   0  0  0  0  0  0  0  0  0  0  0  0
   -1.1507   -2.0050    0.0389 H   0  0  0  0  0  0  0  0  0  0  0  0
    0.6144   -2.0709    0.1294 H   0  0  0  0  0  0  0  0  0  0  0  0
    0.9403   -0.8828   -2.2441 H   0  0  0  0  0  0  0  0  0  0  0  0
    2.1998    0.6040    1.2381 C   0  0  0  0  0  0  0  0  0  0  0  0
    1.0059    1.1003    1.5210 C   0  0  0  0  0  0  0  0  0  0  0  0
   -0.2300    0.9280    0.6873 C   0  0  0  0  0  3  0  0  0  0  0  0
   -0.7432    2.2846    0.2009 C   0  0  0  0  0  0  0  0  0  0  0  0
   -1.3119    0.1892    1.4772 C   0  0  0  0  0  0  0  0  0  0  0  0
    3.0514    0.7677    1.8864 H   0  0  0  0  0  0  0  0  0  0  0  0
    2.3682    0.0135    0.3436 H   0  0  0  0  0  0  0  0  0  0  0  0
    0.8773    1.6882    2.4289 H   0  0  0  0  0  0  0  0  0  0  0  0
   -1.6386    2.1632   -0.4122 H   0  0  0  0  0  0  0  0  0  0  0  0
   -1.0031    2.9250    1.0483 H   0  0  0  0  0  0  0  0  0  0  0  0
    0.0122    2.8019   -0.3923 H   0  0  0  0  0  0  0  0  0  0  0  0
   -1.5920    0.7552    2.3698 H   0  0  0  0  0  0  0  0  0  0  0  0
   -0.9637   -0.7937    1.7977 H   0  0  0  0  0  0  0  0  0  0  0  0
   -2.2107    0.0553    0.8716 H   0  0  0  0  0  0  0  0  0  0  0  0
  1  2  1  0
  1  3  1  0
  1  4  1  0
  1  5  1  0
  2  6  1  0
  7  8  2  3
  7 12  1  0
  7 13  1  0
  8  9  1  0
  8 14  1  0
  9 10  1  0
  9 11  1  0
 10 15  1  0
 10 16  1  0
 10 17  1  0
 11 18  1  0
 11 19  1  0
 11 20  1  0
M  RAD  1   9   2
M  END
>  <reaction>  (11) 
rxn_1811

>  <mol_properties>  (11) 
{"0": {"label": "*3", "atom_type": "Cs"}, "1": {"label": "*4", "atom_type": "S2s"}, "2": {"label": "*2", "atom_type": "H0"}, "7": {"label": "*0", "atom_type": "Cd"}, "8": {"label": "*1", "atom_type": "Cs"}}

>  <type>  (11) 
unop_7

>  <geom_source>  (11) 
Heuristics

$$$$

     RDKit          3D

 20 18  0  0  0  0  0  0  0  0999 V2000
    0.2654   -1.5590   -0.1436 C   0  0  0  0  0  0  0  0  0  0  0  0
    0.2654   -1.5590   -1.9543 S   0  0  0  0  0  0  0  0  0  0  0  0
    0.2654   -0.3432    0.3322 H   0  0  0  0  0  0  0  0  0  0  0  0
   -0.6553   -2.0531    0.1623 H   0  0  0  0  0  0  0  0  0  0  0  0
    1.1098   -2.1190    0.2529 H   0  0  0  0  0  0  0  0  0  0  0  0
    1.4357   -0.9309   -2.1207 H   0  0  0  0  0  0  0  0  0  0  0  0
   -2.1531    1.0345    0.1484 C   0  0  0  0  0  0  0  0  0  0  0  0
   -1.1617    1.3123    0.9800 C   0  0  0  0  0  0  0  0  0  0  0  0
    0.2654    0.8799    0.8108 C   0  0  0  0  0  3  0  0  0  0  0  0
    0.6975   -0.0136    1.9749 C   0  0  0  0  0  0  0  0  0  0  0  0
    1.1845    2.0969    0.6896 C   0  0  0  0  0  0  0  0  0  0  0  0
   -3.1628    1.3796    0.3324 H   0  0  0  0  0  0  0  0  0  0  0  0
   -1.9890    0.4493   -0.7504 H   0  0  0  0  0  0  0  0  0  0  0  0
   -1.3671    1.9029    1.8719 H   0  0  0  0  0  0  0  0  0  0  0  0
    1.7335   -0.3363    1.8521 H   0  0  0  0  0  0  0  0  0  0  0  0
    0.6264    0.5268    2.9228 H   0  0  0  0  0  0  0  0  0  0  0  0
    0.0670   -0.9010    2.0456 H   0  0  0  0  0  0  0  0  0  0  0  0
    1.1306    2.7122    1.5919 H   0  0  0  0  0  0  0  0  0  0  0  0
    0.9025    2.7204   -0.1600 H   0  0  0  0  0  0  0  0  0  0  0  0
    2.2233    1.7866    0.5591 H   0  0  0  0  0  0  0  0  0  0  0  0
  1  2  1  0
  1  3  1  0
  1  4  1  0
  1  5  1  0
  2  6  1  0
  7  8  2  3
  7 12  1  0
  7 13  1  0
  8  9  1  0
  8 14  1  0
  9 10  1  0
  9 11  1  0
 10 15  1  0
 10 16  1  0
 10 17  1  0
 11 18  1  0
 11 19  1  0
 11 20  1  0
M  RAD  1   9   2
M  END
>  <reaction>  (12) 
rxn_1811

>  <mol_properties>  (12) 
{"0": {"label": "*3", "atom_type": "Cs"}, "1": {"label": "*4", "atom_type": "S2s"}, "2": {"label": "*2", "atom_type": "H0"}, "7": {"label": "*0", "atom_type": "Cd"}, "8": {"label": "*1", "atom_type": "Cs"}}

>  <type>  (12) 
unop_8

>  <geom_source>  (12) 
Heuristics

$$$$

     RDKit          3D

 20 18  0  0  0  0  0  0  0  0999 V2000
   -0.1605   -1.6627    0.0968 C   0  0  0  0  0  0  0  0  0  0  0  0
   -0.1605   -1.6627   -1.7138 S   0  0  0  0  0  0  0  0  0  0  0  0
   -0.1605   -0.4469    0.5726 H   0  0  0  0  0  0  0  0  0  0  0  0
   -1.0812   -2.1569    0.4028 H   0  0  0  0  0  0  0  0  0  0  0  0
    0.6838   -2.2227    0.4933 H   0  0  0  0  0  0  0  0  0  0  0  0
    1.0098   -1.0346   -1.8802 H   0  0  0  0  0  0  0  0  0  0  0  0
    0.7849    1.3666   -1.2004 C   0  0  0  0  0  0  0  0  0  0  0  0
    0.5530    1.6589    0.0694 C   0  0  0  0  0  0  0  0  0  0  0  0
   -0.1605    0.7762    1.0512 C   0  0  0  0  0  3  0  0  0  0  0  0
   -1.4279    1.4607    1.5666 C   0  0  0  0  0  0  0  0  0  0  0  0
    0.7656    0.4037    2.2104 C   0  0  0  0  0  0  0  0  0  0  0  0
    1.3076    2.0526   -1.8551 H   0  0  0  0  0  0  0  0  0  0  0  0
    0.4584    0.4263   -1.6320 H   0  0  0  0  0  0  0  0  0  0  0  0
    0.8969    2.6136    0.4654 H   0  0  0  0  0  0  0  0  0  0  0  0
   -1.9541    0.8187    2.2760 H   0  0  0  0  0  0  0  0  0  0  0  0
   -1.1804    2.3937    2.0805 H   0  0  0  0  0  0  0  0  0  0  0  0
   -2.1082    1.6982    0.7476 H   0  0  0  0  0  0  0  0  0  0  0  0
    1.0909    1.2991    2.7471 H   0  0  0  0  0  0  0  0  0  0  0  0
    1.6556   -0.1157    1.8523 H   0  0  0  0  0  0  0  0  0  0  0  0
    0.2524   -0.2446    2.9237 H   0  0  0  0  0  0  0  0  0  0  0  0
  1  2  1  0
  1  3  1  0
  1  4  1  0
  1  5  1  0
  2  6  1  0
  7  8  2  3
  7 12  1  0
  7 13  1  0
  8  9  1  0
  8 14  1  0
  9 10  1  0
  9 11  1  0
 10 15  1  0
 10 16  1  0
 10 17  1  0
 11 18  1  0
 11 19  1  0
 11 20  1  0
M  RAD  1   9   2
M  END
>  <reaction>  (13) 
rxn_1811

>  <mol_properties>  (13) 
{"0": {"label": "*3", "atom_type": "Cs"}, "1": {"label": "*4", "atom_type": "S2s"}, "2": {"label": "*2", "atom_type": "H0"}, "7": {"label": "*0", "atom_type": "Cd"}, "8": {"label": "*1", "atom_type": "Cs"}}

>  <type>  (13) 
unop_9

>  <geom_source>  (13) 
Heuristics

$$$$

     RDKit          3D

 20 18  0  0  0  0  0  0  0  0999 V2000
    0.2422   -1.6158   -0.0087 C   0  0  0  0  0  0  0  0  0  0  0  0
    0.2422   -1.6158   -1.8193 S   0  0  0  0  0  0  0  0  0  0  0  0
    0.2422   -0.4000    0.4671 H   0  0  0  0  0  0  0  0  0  0  0  0
   -0.6784   -2.1100    0.2972 H   0  0  0  0  0  0  0  0  0  0  0  0
    1.0866   -2.1758    0.3878 H   0  0  0  0  0  0  0  0  0  0  0  0
    1.4125   -0.9877   -1.9857 H   0  0  0  0  0  0  0  0  0  0  0  0
   -1.5898    1.2886   -0.7093 C   0  0  0  0  0  0  0  0  0  0  0  0
   -0.9937    1.5155    0.4504 C   0  0  0  0  0  0  0  0  0  0  0  0
    0.2422    0.8231    0.9457 C   0  0  0  0  0  3  0  0  0  0  0  0
   -0.0521    0.0574    2.2370 C   0  0  0  0  0  0  0  0  0  0  0  0
    1.3740    1.8305    1.1571 C   0  0  0  0  0  0  0  0  0  0  0  0
   -2.4821    1.8265   -1.0044 H   0  0  0  0  0  0  0  0  0  0  0  0
   -1.2045    0.5533   -1.4079 H   0  0  0  0  0  0  0  0  0  0  0  0
   -1.4114    2.2621    1.1246 H   0  0  0  0  0  0  0  0  0  0  0  0
    0.8431   -0.4538    2.5971 H   0  0  0  0  0  0  0  0  0  0  0  0
   -0.3853    0.7407    3.0230 H   0  0  0  0  0  0  0  0  0  0  0  0
   -0.8350   -0.6867    2.0841 H   0  0  0  0  0  0  0  0  0  0  0  0
    1.0914    2.5766    1.9048 H   0  0  0  0  0  0  0  0  0  0  0  0
    1.6120    2.3557    0.2311 H   0  0  0  0  0  0  0  0  0  0  0  0
    2.2776    1.3297    1.5108 H   0  0  0  0  0  0  0  0  0  0  0  0
  1  2  1  0
  1  3  1  0
  1  4  1  0
  1  5  1  0
  2  6  1  0
  7  8  2  3
  7 12  1  0
  7 13  1  0
  8  9  1  0
  8 14  1  0
  9 10  1  0
  9 11  1  0
 10 15  1  0
 10 16  1  0
 10 17  1  0
 11 18  1  0
 11 19  1  0
 11 20  1  0
M  RAD  1   9   2
M  END
>  <reaction>  (14) 
rxn_1811

>  <mol_properties>  (14) 
{"0": {"label": "*3", "atom_type": "Cs"}, "1": {"label": "*4", "atom_type": "S2s"}, "2": {"label": "*2", "atom_type": "H0"}, "7": {"label": "*0", "atom_type": "Cd"}, "8": {"label": "*1", "atom_type": "Cs"}}

>  <type>  (14) 
unop_10

>  <geom_source>  (14) 
Heuristics

$$$$

     RDKit          3D

 20 18  0  0  0  0  0  0  0  0999 V2000
   -0.1239   -1.4864   -0.3451 C   0  0  0  0  0  0  0  0  0  0  0  0
   -0.1239   -1.4864   -2.1558 S   0  0  0  0  0  0  0  0  0  0  0  0
   -0.1239   -0.2706    0.1307 H   0  0  0  0  0  0  0  0  0  0  0  0
   -1.0446   -1.9806   -0.0392 H   0  0  0  0  0  0  0  0  0  0  0  0
    0.7205   -2.0464    0.0514 H   0  0  0  0  0  0  0  0  0  0  0  0
    1.0464   -0.8583   -2.3222 H   0  0  0  0  0  0  0  0  0  0  0  0
    1.5274    0.0707    2.2850 C   0  0  0  0  0  0  0  0  0  0  0  0
    0.5897    0.9344    1.9294 C   0  0  0  0  0  0  0  0  0  0  0  0
   -0.1239    0.9525    0.6093 C   0  0  0  0  0  3  0  0  0  0  0  0
    0.1415    2.2671   -0.1267 C   0  0  0  0  0  0  0  0  0  0  0  0
   -1.6250    0.7338    0.8071 C   0  0  0  0  0  0  0  0  0  0  0  0
    2.0022    0.1157    3.2571 H   0  0  0  0  0  0  0  0  0  0  0  0
    1.8547   -0.7157    1.6130 H   0  0  0  0  0  0  0  0  0  0  0  0
    0.2884    1.7098    2.6326 H   0  0  0  0  0  0  0  0  0  0  0  0
   -0.3703    2.2815   -1.0913 H   0  0  0  0  0  0  0  0  0  0  0  0
   -0.2233    3.1164    0.4574 H   0  0  0  0  0  0  0  0  0  0  0  0
    1.2084    2.4124   -0.3014 H   0  0  0  0  0  0  0  0  0  0  0  0
   -2.0524    1.5288    1.4244 H   0  0  0  0  0  0  0  0  0  0  0  0
   -1.8226   -0.2185    1.3010 H   0  0  0  0  0  0  0  0  0  0  0  0
   -2.1472    0.7391   -0.1519 H   0  0  0  0  0  0  0  0  0  0  0  0
  1  2  1  0
  1  3  1  0
  1  4  1  0
  1  5  1  0
  2  6  1  0
  7  8  2  3
  7 12  1  0
  7 13  1  0
  8  9  1  0
  8 14  1  0
  9 10  1  0
  9 11  1  0
 10 15  1  0
 10 16  1  0
 10 17  1  0
 11 18  1  0
 11 19  1  0
 11 20  1  0
M  RAD  1   9   2
M  END
>  <reaction>  (15) 
rxn_1811

>  <mol_properties>  (15) 
{"0": {"label": "*3", "atom_type": "Cs"}, "1": {"label": "*4", "atom_type": "S2s"}, "2": {"label": "*2", "atom_type": "H0"}, "7": {"label": "*0", "atom_type": "Cd"}, "8": {"label": "*1", "atom_type": "Cs"}}

>  <type>  (15) 
unop_11

>  <geom_source>  (15) 
Heuristics

$$$$

     RDKit          3D

 20 18  0  0  0  0  0  0  0  0999 V2000
   -0.0094   -1.6814    0.1371 C   0  0  0  0  0  0  0  0  0  0  0  0
   -0.0094   -1.6814   -1.6735 S   0  0  0  0  0  0  0  0  0  0  0  0
   -0.0094   -0.4656    0.6129 H   0  0  0  0  0  0  0  0  0  0  0  0
   -0.9301   -2.1755    0.4431 H   0  0  0  0  0  0  0  0  0  0  0  0
    0.8349   -2.2414    0.5336 H   0  0  0  0  0  0  0  0  0  0  0  0
    1.1609   -1.0532   -1.8399 H   0  0  0  0  0  0  0  0  0  0  0  0
   -0.0094    1.3655   -1.3462 C   0  0  0  0  0  0  0  0  0  0  0  0
   -0.0094    1.7099   -0.0683 C   0  0  0  0  0  0  0  0  0  0  0  0
   -0.0094    0.7575    1.0915 C   0  0  0  0  0  3  0  0  0  0  0  0
   -1.2687    0.9443    1.9398 C   0  0  0  0  0  0  0  0  0  0  0  0
    1.2499    0.9443    1.9398 C   0  0  0  0  0  0  0  0  0  0  0  0
   -0.0094    2.1076   -2.1348 H   0  0  0  0  0  0  0  0  0  0  0  0
   -0.0094    0.3240   -1.6503 H   0  0  0  0  0  0  0  0  0  0  0  0
   -0.0094    2.7665    0.1964 H   0  0  0  0  0  0  0  0  0  0  0  0
   -1.2762    0.2481    2.7810 H   0  0  0  0  0  0  0  0  0  0  0  0
   -1.3134    1.9587    2.3455 H   0  0  0  0  0  0  0  0  0  0  0  0
   -2.1703    0.7786    1.3484 H   0  0  0  0  0  0  0  0  0  0  0  0
    1.2946    1.9587    2.3455 H   0  0  0  0  0  0  0  0  0  0  0  0
    2.1514    0.7786    1.3484 H   0  0  0  0  0  0  0  0  0  0  0  0
    1.2573    0.2481    2.7810 H   0  0  0  0  0  0  0  0  0  0  0  0
  1  2  1  0
  1  3  1  0
  1  4  1  0
  1  5  1  0
  2  6  1  0
  7  8  2  3
  7 12  1  0
  7 13  1  0
  8  9  1  0
  8 14  1  0
  9 10  1  0
  9 11  1  0
 10 15  1  0
 10 16  1  0
 10 17  1  0
 11 18  1  0
 11 19  1  0
 11 20  1  0
M  RAD  1   9   2
M  END
>  <reaction>  (16) 
rxn_1811

>  <mol_properties>  (16) 
{"0": {"label": "*3", "atom_type": "Cs"}, "1": {"label": "*4", "atom_type": "S2s"}, "2": {"label": "*2", "atom_type": "H0"}, "7": {"label": "*0", "atom_type": "Cd"}, "8": {"label": "*1", "atom_type": "Cs"}}

>  <type>  (16) 
unop_12

>  <geom_source>  (16) 
Heuristics

$$$$

     RDKit          3D

 20 18  0  0  0  0  0  0  0  0999 V2000
    2.9685   -1.0788    0.4904 S   0  0  0  0  0  0  0  0  0  0  0  0
   -0.4523    0.2480    0.1486 C   0  0  0  0  0  3  0  0  0  0  0  0
   -0.5922    1.1758    1.3586 C   0  0  0  0  0  0  0  0  0  0  0  0
   -0.8942    0.9659   -1.1307 C   0  0  0  0  0  0  0  0  0  0  0  0
   -1.2529   -1.0153    0.3547 C   0  0  0  0  0  0  0  0  0  0  0  0
   -1.0540   -2.0958   -0.4053 C   0  0  0  0  0  0  0  0  0  0  0  0
    2.0256    0.0210   -0.6017 C   0  0  0  0  0  0  0  0  0  0  0  0
    0.8619   -0.0814    0.0291 H   0  0  0  0  0  0  0  0  0  0  0  0
   -0.2491    0.6543    2.2775 H   0  0  0  0  0  0  0  0  0  0  0  0
   -1.6496    1.4905    1.4949 H   0  0  0  0  0  0  0  0  0  0  0  0
    0.0379    2.0798    1.2196 H   0  0  0  0  0  0  0  0  0  0  0  0
   -0.2932    1.8884   -1.2765 H   0  0  0  0  0  0  0  0  0  0  0  0
   -0.7348    0.3114   -2.0135 H   0  0  0  0  0  0  0  0  0  0  0  0
   -1.9698    1.2406   -1.0749 H   0  0  0  0  0  0  0  0  0  0  0  0
   -1.9883   -1.0681    1.1533 H   0  0  0  0  0  0  0  0  0  0  0  0
   -0.3156   -2.0918   -1.2013 H   0  0  0  0  0  0  0  0  0  0  0  0
   -1.6322   -2.9971   -0.2297 H   0  0  0  0  0  0  0  0  0  0  0  0
    2.4720    1.0367   -0.5825 H   0  0  0  0  0  0  0  0  0  0  0  0
    2.0543   -0.3743   -1.6378 H   0  0  0  0  0  0  0  0  0  0  0  0
    2.6578   -0.3097    1.6275 H   0  0  0  0  0  0  0  0  0  0  0  0
  1  7  1  0
  1 20  1  0
  2  3  1  0
  2  4  1  0
  2  5  1  0
  3  9  1  0
  3 10  1  0
  3 11  1  0
  4 12  1  0
  4 13  1  0
  4 14  1  0
  5  6  2  3
  5 15  1  0
  6 16  1  0
  6 17  1  0
  7  8  1  0
  7 18  1  0
  7 19  1  0
M  RAD  1   2   2
M  END
>  <reaction>  (17) 
rxn_1811

>  <mol_properties>  (17) 
{"0": {"label": "*3", "atom_type": "Cs"}, "1": {"label": "*4", "atom_type": "S2s"}, "2": {"label": "*2", "atom_type": "H0"}, "7": {"label": "*0", "atom_type": "Cd"}, "8": {"label": "*1", "atom_type": "Cs"}}

>  <type>  (17) 
unop_13

>  <geom_source>  (17) 
AutoTST

$$$$
