
     RDKit          3D

  9  8  0  0  0  0  0  0  0  0999 V2000
   -2.1022   -0.6873    0.3932 C   0  0  0  0  0  0  0  0  0  0  0  0
   -1.2072   -0.1086   -0.1482 C   0  0  0  0  0  0  0  0  0  0  0  0
   -0.1242    0.6105   -0.8193 C   0  0  0  0  0  0  0  0  0  0  0  0
    1.2067    0.1106   -0.4741 C   0  0  0  0  0  0  0  0  0  0  0  0
    2.3005   -0.2875   -0.2012 C   0  0  0  0  0  0  0  0  0  0  0  0
   -2.8942   -1.2059    0.8778 H   0  0  0  0  0  0  0  0  0  0  0  0
   -0.1862    1.6723   -0.5649 H   0  0  0  0  0  0  0  0  0  0  0  0
   -0.2641    0.5418   -1.9017 H   0  0  0  0  0  0  0  0  0  0  0  0
    3.2709   -0.6459    0.0455 H   0  0  0  0  0  0  0  0  0  0  0  0
  1  2  3  0
  1  6  1  0
  2  3  1  0
  3  4  1  0
  3  7  1  0
  3  8  1  0
  4  5  3  0
  5  9  1  0
M  END
>  <reaction>  (1) 
rxn_1352

>  <mol_properties>  (1) 
{"2": {"label": "donator", "atom_type": "Cs"}, "6": {"label": "d_hydrogen", "atom_type": "H0"}}

>  <type>  (1) 
r1h

$$$$

     RDKit          3D

 14 13  0  0  0  0  0  0  0  0999 V2000
    1.0767   -1.6838    1.2931 C   0  0  0  0  0  0  0  0  0  0  0  0
    1.0020   -0.3665    0.9163 C   0  0  0  0  0  0  0  0  0  0  0  0
    1.3965    0.7260    1.6806 C   0  0  0  0  0  3  0  0  0  0  0  0
    1.2666    2.1197    1.1619 C   0  0  0  0  0  0  0  0  0  0  0  0
    1.9670    0.5479    3.0536 C   0  0  0  0  0  0  0  0  0  0  0  0
    0.7448   -2.4705    0.6300 H   0  0  0  0  0  0  0  0  0  0  0  0
    1.4663   -1.9826    2.2578 H   0  0  0  0  0  0  0  0  0  0  0  0
    0.5980   -0.1511   -0.0695 H   0  0  0  0  0  0  0  0  0  0  0  0
    0.6296    2.7241    1.8172 H   0  0  0  0  0  0  0  0  0  0  0  0
    2.2410    2.6200    1.1341 H   0  0  0  0  0  0  0  0  0  0  0  0
    0.8426    2.1448    0.1579 H   0  0  0  0  0  0  0  0  0  0  0  0
    2.8745   -0.0634    3.0328 H   0  0  0  0  0  0  0  0  0  0  0  0
    1.2599    0.0408    3.7173 H   0  0  0  0  0  0  0  0  0  0  0  0
    2.2205    1.5071    3.5054 H   0  0  0  0  0  0  0  0  0  0  0  0
  1  2  2  3
  1  6  1  0
  1  7  1  0
  2  3  1  0
  2  8  1  0
  3  4  1  0
  3  5  1  0
  4  9  1  0
  4 10  1  0
  4 11  1  0
  5 12  1  0
  5 13  1  0
  5 14  1  0
M  RAD  1   3   2
M  END
>  <reaction>  (2) 
rxn_1352

>  <mol_properties>  (2) 
{"2": {"label": "acceptor", "atom_type": "Cs"}}

>  <type>  (2) 
r2

$$$$

     RDKit          3D

 15 14  0  0  0  0  0  0  0  0999 V2000
    2.1256    0.4849   -0.6284 C   0  0  0  0  0  0  0  0  0  0  0  0
    1.1128    0.2141    0.1794 C   0  0  0  0  0  0  0  0  0  0  0  0
   -0.3017   -0.0425   -0.2513 C   0  0  0  0  0  0  0  0  0  0  0  0
   -1.2427    1.0075    0.3423 C   0  0  0  0  0  0  0  0  0  0  0  0
   -0.7381   -1.4526    0.1504 C   0  0  0  0  0  0  0  0  0  0  0  0
    3.1243    0.6602   -0.2486 H   0  0  0  0  0  0  0  0  0  0  0  0
    1.9908    0.5411   -1.7036 H   0  0  0  0  0  0  0  0  0  0  0  0
    1.2888    0.1665    1.2533 H   0  0  0  0  0  0  0  0  0  0  0  0
   -0.3426    0.0343   -1.3424 H   0  0  0  0  0  0  0  0  0  0  0  0
   -0.9570    2.0133    0.0315 H   0  0  0  0  0  0  0  0  0  0  0  0
   -1.2189    0.9728    1.4350 H   0  0  0  0  0  0  0  0  0  0  0  0
   -2.2723    0.8287    0.0254 H   0  0  0  0  0  0  0  0  0  0  0  0
   -0.6964   -1.5744    1.2363 H   0  0  0  0  0  0  0  0  0  0  0  0
   -0.0911   -2.2079   -0.2978 H   0  0  0  0  0  0  0  0  0  0  0  0
   -1.7646   -1.6461   -0.1677 H   0  0  0  0  0  0  0  0  0  0  0  0
  1  2  2  3
  1  6  1  0
  1  7  1  0
  2  3  1  0
  2  8  1  0
  3  4  1  0
  3  5  1  0
  3  9  1  0
  4 10  1  0
  4 11  1  0
  4 12  1  0
  5 13  1  0
  5 14  1  0
  5 15  1  0
M  END
>  <reaction>  (3) 
rxn_1352

>  <mol_properties>  (3) 
{"0": {"label": "a_hydrogen", "atom_type": "H0"}, "3": {"label": "acceptor", "atom_type": "Cs"}}

>  <type>  (3) 
r2h

$$$$

     RDKit          3D

 23 21  0  0  0  0  0  0  0  0999 V2000
    0.1335   -1.5162   -2.5427 C   0  0  0  0  0  0  0  0  0  0  0  0
   -0.4457   -1.2776   -1.5182 C   0  0  0  0  0  0  0  0  0  0  0  0
   -1.0669   -0.9646   -0.2704 C   0  0  0  0  0  3  0  0  0  0  0  0
   -2.2410   -0.1492   -0.2943 C   0  0  0  0  0  0  0  0  0  0  0  0
   -3.1981    0.5760   -0.2745 C   0  0  0  0  0  0  0  0  0  0  0  0
    0.6286   -1.7398   -3.4567 H   0  0  0  0  0  0  0  0  0  0  0  0
   -0.1240   -0.2115    0.3781 H   0  0  0  0  0  0  0  0  0  0  0  0
   -1.1280   -1.8076    0.4163 H   0  0  0  0  0  0  0  0  0  0  0  0
   -4.0585    1.2007   -0.2726 H   0  0  0  0  0  0  0  0  0  0  0  0
    2.9779   -0.2381    0.2502 C   0  0  0  0  0  0  0  0  0  0  0  0
    1.9381   -0.1677    1.0843 C   0  0  0  0  0  0  0  0  0  0  0  0
    0.7411    0.6541    0.9147 C   0  0  0  0  0  0  0  0  0  0  0  0
    0.7610    1.7182   -0.1540 C   0  0  0  0  0  0  0  0  0  0  0  0
    0.0313    1.0496    2.1890 C   0  0  0  0  0  0  0  0  0  0  0  0
    3.8054   -0.9063    0.4494 H   0  0  0  0  0  0  0  0  0  0  0  0
    3.0398    0.3644   -0.6472 H   0  0  0  0  0  0  0  0  0  0  0  0
    1.9447   -0.8031    1.9669 H   0  0  0  0  0  0  0  0  0  0  0  0
   -0.2278    2.1669   -0.2593 H   0  0  0  0  0  0  0  0  0  0  0  0
    1.4708    2.5107    0.1029 H   0  0  0  0  0  0  0  0  0  0  0  0
    1.0451    1.3087   -1.1243 H   0  0  0  0  0  0  0  0  0  0  0  0
    0.5538    1.8781    2.6783 H   0  0  0  0  0  0  0  0  0  0  0  0
   -0.0127    0.2194    2.8964 H   0  0  0  0  0  0  0  0  0  0  0  0
   -0.9888    1.3767    1.9791 H   0  0  0  0  0  0  0  0  0  0  0  0
  1  2  3  0
  1  6  1  0
  2  3  1  0
  3  4  1  0
  3  8  1  0
  4  5  3  0
  5  9  1  0
  7 12  1  0
 10 11  2  3
 10 15  1  0
 10 16  1  0
 11 12  1  0
 11 17  1  0
 12 13  1  0
 12 14  1  0
 13 18  1  0
 13 19  1  0
 13 20  1  0
 14 21  1  0
 14 22  1  0
 14 23  1  0
M  RAD  1   3   2
M  END
>  <reaction>  (4) 
rxn_1352

>  <mol_properties>  (4) 
{"1": {"label": "*4", "atom_type": "Ct"}, "2": {"label": "*3", "atom_type": "Cs"}, "6": {"label": "*2", "atom_type": "H0"}, "10": {"label": "*0", "atom_type": "Cd"}, "11": {"label": "*1", "atom_type": "Cs"}}

>  <type>  (4) 
ts

$$$$

     RDKit          3D

 23 21  0  0  0  0  0  0  0  0999 V2000
   -0.4456   -1.1841   -3.0493 C   0  0  0  0  0  0  0  0  0  0  0  0
   -0.4456   -1.1841   -1.8538 C   0  0  0  0  0  0  0  0  0  0  0  0
   -0.4456   -1.1841   -0.3908 C   0  0  0  0  0  0  0  0  0  0  0  0
   -1.7596   -0.9085    0.1903 C   0  0  0  0  0  0  0  0  0  0  0  0
   -2.8334   -0.6832    0.6652 C   0  0  0  0  0  0  0  0  0  0  0  0
   -0.4456   -1.1841   -4.1128 H   0  0  0  0  0  0  0  0  0  0  0  0
    0.4126   -0.2897    0.0402 H   0  0  0  0  0  0  0  0  0  0  0  0
   -0.0902   -2.1539   -0.0316 H   0  0  0  0  0  0  0  0  0  0  0  0
   -3.7885   -0.4829    1.0877 H   0  0  0  0  0  0  0  0  0  0  0  0
   -0.6915    2.0692    1.0343 C   0  0  0  0  0  0  0  0  0  0  0  0
    0.5209    1.6084    1.2980 C   0  0  0  0  0  0  0  0  0  0  0  0
    1.2714    0.6055    0.4716 C   0  0  0  0  0  3  0  0  0  0  0  0
    1.5619   -0.6545    1.2892 C   0  0  0  0  0  0  0  0  0  0  0  0
    2.5673    1.2150   -0.0665 C   0  0  0  0  0  0  0  0  0  0  0  0
   -1.1756    2.7948    1.6759 H   0  0  0  0  0  0  0  0  0  0  0  0
   -1.2452    1.7353    0.1631 H   0  0  0  0  0  0  0  0  0  0  0  0
    1.0444    1.9684    2.1828 H   0  0  0  0  0  0  0  0  0  0  0  0
    2.1017   -1.3900    0.6891 H   0  0  0  0  0  0  0  0  0  0  0  0
    2.1794   -0.4156    2.1594 H   0  0  0  0  0  0  0  0  0  0  0  0
    0.6392   -1.1132    1.6472 H   0  0  0  0  0  0  0  0  0  0  0  0
    3.2204    1.5201    0.7558 H   0  0  0  0  0  0  0  0  0  0  0  0
    2.3644    2.0946   -0.6789 H   0  0  0  0  0  0  0  0  0  0  0  0
    3.1131    0.4906   -0.6746 H   0  0  0  0  0  0  0  0  0  0  0  0
  1  2  3  0
  1  6  1  0
  2  3  1  0
  3  4  1  0
  3  7  1  0
  3  8  1  0
  4  5  3  0
  5  9  1  0
 10 11  2  3
 10 15  1  0
 10 16  1  0
 11 12  1  0
 11 17  1  0
 12 13  1  0
 12 14  1  0
 13 18  1  0
 13 19  1  0
 13 20  1  0
 14 21  1  0
 14 22  1  0
 14 23  1  0
M  RAD  1  12   2
M  END
>  <reaction>  (5) 
rxn_1352

>  <mol_properties>  (5) 
{"1": {"label": "*4", "atom_type": "Ct"}, "2": {"label": "*3", "atom_type": "Cs"}, "6": {"label": "*2", "atom_type": "H0"}, "10": {"label": "*0", "atom_type": "Cd"}, "11": {"label": "*1", "atom_type": "Cs"}}

>  <type>  (5) 
unop_1

>  <geom_source>  (5) 
Heuristics

$$$$

     RDKit          3D

 23 21  0  0  0  0  0  0  0  0999 V2000
   -0.5736   -1.2292   -2.7244 C   0  0  0  0  0  0  0  0  0  0  0  0
   -0.5736   -1.2292   -1.5289 C   0  0  0  0  0  0  0  0  0  0  0  0
   -0.5736   -1.2292   -0.0659 C   0  0  0  0  0  0  0  0  0  0  0  0
   -1.8876   -0.9536    0.5153 C   0  0  0  0  0  0  0  0  0  0  0  0
   -2.9614   -0.7284    0.9901 C   0  0  0  0  0  0  0  0  0  0  0  0
   -0.5736   -1.2292   -3.7879 H   0  0  0  0  0  0  0  0  0  0  0  0
    0.2846   -0.3348    0.3651 H   0  0  0  0  0  0  0  0  0  0  0  0
   -0.2182   -2.1991    0.2933 H   0  0  0  0  0  0  0  0  0  0  0  0
   -3.9166   -0.5280    1.4126 H   0  0  0  0  0  0  0  0  0  0  0  0
    0.8099    1.5783   -1.4760 C   0  0  0  0  0  0  0  0  0  0  0  0
    1.2131    1.6637   -0.2184 C   0  0  0  0  0  0  0  0  0  0  0  0
    1.1434    0.5603    0.7965 C   0  0  0  0  0  3  0  0  0  0  0  0
    0.2481    0.9650    1.9691 C   0  0  0  0  0  0  0  0  0  0  0  0
    2.5452    0.1908    1.2853 C   0  0  0  0  0  0  0  0  0  0  0  0
    0.8899    2.4167   -2.1566 H   0  0  0  0  0  0  0  0  0  0  0  0
    0.3835    0.6622   -1.8713 H   0  0  0  0  0  0  0  0  0  0  0  0
    1.6360    2.6011    0.1407 H   0  0  0  0  0  0  0  0  0  0  0  0
    0.1888    0.1619    2.7067 H   0  0  0  0  0  0  0  0  0  0  0  0
    0.6472    1.8506    2.4712 H   0  0  0  0  0  0  0  0  0  0  0  0
   -0.7628    1.1969    1.6312 H   0  0  0  0  0  0  0  0  0  0  0  0
    3.0256    1.0490    1.7631 H   0  0  0  0  0  0  0  0  0  0  0  0
    3.1787   -0.1315    0.4577 H   0  0  0  0  0  0  0  0  0  0  0  0
    2.4995   -0.6169    2.0187 H   0  0  0  0  0  0  0  0  0  0  0  0
  1  2  3  0
  1  6  1  0
  2  3  1  0
  3  4  1  0
  3  7  1  0
  3  8  1  0
  4  5  3  0
  5  9  1  0
 10 11  2  3
 10 15  1  0
 10 16  1  0
 11 12  1  0
 11 17  1  0
 12 13  1  0
 12 14  1  0
 13 18  1  0
 13 19  1  0
 13 20  1  0
 14 21  1  0
 14 22  1  0
 14 23  1  0
M  RAD  1  12   2
M  END
>  <reaction>  (6) 
rxn_1352

>  <mol_properties>  (6) 
{"1": {"label": "*4", "atom_type": "Ct"}, "2": {"label": "*3", "atom_type": "Cs"}, "6": {"label": "*2", "atom_type": "H0"}, "10": {"label": "*0", "atom_type": "Cd"}, "11": {"label": "*1", "atom_type": "Cs"}}

>  <type>  (6) 
unop_2

>  <geom_source>  (6) 
Heuristics

$$$$

     RDKit          3D

 23 21  0  0  0  0  0  0  0  0999 V2000
   -0.4999   -1.1058   -3.1188 C   0  0  0  0  0  0  0  0  0  0  0  0
   -0.4999   -1.1058   -1.9233 C   0  0  0  0  0  0  0  0  0  0  0  0
   -0.4999   -1.1058   -0.4603 C   0  0  0  0  0  0  0  0  0  0  0  0
   -1.8139   -0.8302    0.1209 C   0  0  0  0  0  0  0  0  0  0  0  0
   -2.8877   -0.6050    0.5958 C   0  0  0  0  0  0  0  0  0  0  0  0
   -0.4999   -1.1058   -4.1823 H   0  0  0  0  0  0  0  0  0  0  0  0
    0.3582   -0.2114   -0.0292 H   0  0  0  0  0  0  0  0  0  0  0  0
   -0.1445   -2.0757   -0.1011 H   0  0  0  0  0  0  0  0  0  0  0  0
   -3.8429   -0.4047    1.0182 H   0  0  0  0  0  0  0  0  0  0  0  0
   -0.5400    1.2374    2.1104 C   0  0  0  0  0  0  0  0  0  0  0  0
    0.7247    1.2012    1.7220 C   0  0  0  0  0  0  0  0  0  0  0  0
    1.2171    0.6837    0.4021 C   0  0  0  0  0  3  0  0  0  0  0  0
    2.1543   -0.5077    0.6082 C   0  0  0  0  0  0  0  0  0  0  0  0
    1.9156    1.7950   -0.3837 C   0  0  0  0  0  0  0  0  0  0  0  0
   -0.8258    1.6255    3.0801 H   0  0  0  0  0  0  0  0  0  0  0  0
   -1.3381    0.8784    1.4690 H   0  0  0  0  0  0  0  0  0  0  0  0
    1.4972    1.5712    2.3949 H   0  0  0  0  0  0  0  0  0  0  0  0
    2.5092   -0.8920   -0.3503 H   0  0  0  0  0  0  0  0  0  0  0  0
    3.0291   -0.2133    1.1945 H   0  0  0  0  0  0  0  0  0  0  0  0
    1.6512   -1.3176    1.1384 H   0  0  0  0  0  0  0  0  0  0  0  0
    2.7819    2.1710    0.1675 H   0  0  0  0  0  0  0  0  0  0  0  0
    1.2416    2.6337   -0.5636 H   0  0  0  0  0  0  0  0  0  0  0  0
    2.2691    1.4245   -1.3481 H   0  0  0  0  0  0  0  0  0  0  0  0
  1  2  3  0
  1  6  1  0
  2  3  1  0
  3  4  1  0
  3  7  1  0
  3  8  1  0
  4  5  3  0
  5  9  1  0
 10 11  2  3
 10 15  1  0
 10 16  1  0
 11 12  1  0
 11 17  1  0
 12 13  1  0
 12 14  1  0
 13 18  1  0
 13 19  1  0
 13 20  1  0
 14 21  1  0
 14 22  1  0
 14 23  1  0
M  RAD  1  12   2
M  END
>  <reaction>  (7) 
rxn_1352

>  <mol_properties>  (7) 
{"1": {"label": "*4", "atom_type": "Ct"}, "2": {"label": "*3", "atom_type": "Cs"}, "6": {"label": "*2", "atom_type": "H0"}, "10": {"label": "*0", "atom_type": "Cd"}, "11": {"label": "*1", "atom_type": "Cs"}}

>  <type>  (7) 
unop_3

>  <geom_source>  (7) 
Heuristics

$$$$

     RDKit          3D

 23 21  0  0  0  0  0  0  0  0999 V2000
   -0.8031   -0.9567   -2.8187 C   0  0  0  0  0  0  0  0  0  0  0  0
   -0.8031   -0.9567   -1.6232 C   0  0  0  0  0  0  0  0  0  0  0  0
   -0.8031   -0.9567   -0.1602 C   0  0  0  0  0  0  0  0  0  0  0  0
   -2.1171   -0.6811    0.4209 C   0  0  0  0  0  0  0  0  0  0  0  0
   -3.1909   -0.4559    0.8958 C   0  0  0  0  0  0  0  0  0  0  0  0
   -0.8031   -0.9567   -3.8822 H   0  0  0  0  0  0  0  0  0  0  0  0
    0.0550   -0.0623    0.2708 H   0  0  0  0  0  0  0  0  0  0  0  0
   -0.4478   -1.9266    0.1990 H   0  0  0  0  0  0  0  0  0  0  0  0
   -4.1461   -0.2556    1.3183 H   0  0  0  0  0  0  0  0  0  0  0  0
    2.5140   -0.1457   -0.9694 C   0  0  0  0  0  0  0  0  0  0  0  0
    2.2715    0.4627    0.1807 C   0  0  0  0  0  0  0  0  0  0  0  0
    0.9139    0.8328    0.7022 C   0  0  0  0  0  3  0  0  0  0  0  0
    0.7998    2.3486    0.8749 C   0  0  0  0  0  0  0  0  0  0  0  0
    0.6308    0.1127    2.0219 C   0  0  0  0  0  0  0  0  0  0  0  0
    3.5221   -0.3838   -1.2849 H   0  0  0  0  0  0  0  0  0  0  0  0
    1.7086   -0.4285   -1.6393 H   0  0  0  0  0  0  0  0  0  0  0  0
    3.1074    0.7304    0.8258 H   0  0  0  0  0  0  0  0  0  0  0  0
   -0.1894    2.6229    1.2474 H   0  0  0  0  0  0  0  0  0  0  0  0
    1.5397    2.7115    1.5935 H   0  0  0  0  0  0  0  0  0  0  0  0
    0.9670    2.8664   -0.0706 H   0  0  0  0  0  0  0  0  0  0  0  0
    1.3647    0.3965    2.7811 H   0  0  0  0  0  0  0  0  0  0  0  0
    0.6770   -0.9701    1.8976 H   0  0  0  0  0  0  0  0  0  0  0  0
   -0.3594    0.3737    2.4013 H   0  0  0  0  0  0  0  0  0  0  0  0
  1  2  3  0
  1  6  1  0
  2  3  1  0
  3  4  1  0
  3  7  1  0
  3  8  1  0
  4  5  3  0
  5  9  1  0
 10 11  2  3
 10 15  1  0
 10 16  1  0
 11 12  1  0
 11 17  1  0
 12 13  1  0
 12 14  1  0
 13 18  1  0
 13 19  1  0
 13 20  1  0
 14 21  1  0
 14 22  1  0
 14 23  1  0
M  RAD  1  12   2
M  END
>  <reaction>  (8) 
rxn_1352

>  <mol_properties>  (8) 
{"1": {"label": "*4", "atom_type": "Ct"}, "2": {"label": "*3", "atom_type": "Cs"}, "6": {"label": "*2", "atom_type": "H0"}, "10": {"label": "*0", "atom_type": "Cd"}, "11": {"label": "*1", "atom_type": "Cs"}}

>  <type>  (8) 
unop_4

>  <geom_source>  (8) 
Heuristics

$$$$

     RDKit          3D

 23 21  0  0  0  0  0  0  0  0999 V2000
   -0.5715   -1.0350   -3.1387 C   0  0  0  0  0  0  0  0  0  0  0  0
   -0.5715   -1.0350   -1.9432 C   0  0  0  0  0  0  0  0  0  0  0  0
   -0.5715   -1.0350   -0.4802 C   0  0  0  0  0  0  0  0  0  0  0  0
   -1.8855   -0.7594    0.1010 C   0  0  0  0  0  0  0  0  0  0  0  0
   -2.9593   -0.5342    0.5758 C   0  0  0  0  0  0  0  0  0  0  0  0
   -0.5715   -1.0350   -4.2022 H   0  0  0  0  0  0  0  0  0  0  0  0
    0.2867   -0.1406   -0.0492 H   0  0  0  0  0  0  0  0  0  0  0  0
   -0.2161   -2.0049   -0.1210 H   0  0  0  0  0  0  0  0  0  0  0  0
   -3.9145   -0.3339    0.9983 H   0  0  0  0  0  0  0  0  0  0  0  0
    0.3682   -0.0556    2.6298 C   0  0  0  0  0  0  0  0  0  0  0  0
    1.1245    0.7327    1.8826 C   0  0  0  0  0  0  0  0  0  0  0  0
    1.1455    0.7545    0.3822 C   0  0  0  0  0  3  0  0  0  0  0  0
    2.5342    0.3830   -0.1410 C   0  0  0  0  0  0  0  0  0  0  0  0
    0.7168    2.1267   -0.1410 C   0  0  0  0  0  0  0  0  0  0  0  0
    0.4037   -0.0186    3.7114 H   0  0  0  0  0  0  0  0  0  0  0  0
   -0.3165   -0.7693    2.1837 H   0  0  0  0  0  0  0  0  0  0  0  0
    1.7995    1.4362    2.3684 H   0  0  0  0  0  0  0  0  0  0  0  0
    2.5519    0.3906   -1.2328 H   0  0  0  0  0  0  0  0  0  0  0  0
    3.2827    1.0987    0.2101 H   0  0  0  0  0  0  0  0  0  0  0  0
    2.8315   -0.6094    0.2009 H   0  0  0  0  0  0  0  0  0  0  0  0
    1.4010    2.9041    0.2101 H   0  0  0  0  0  0  0  0  0  0  0  0
   -0.2870    2.3827    0.2009 H   0  0  0  0  0  0  0  0  0  0  0  0
    0.7237    2.1447   -1.2328 H   0  0  0  0  0  0  0  0  0  0  0  0
  1  2  3  0
  1  6  1  0
  2  3  1  0
  3  4  1  0
  3  7  1  0
  3  8  1  0
  4  5  3  0
  5  9  1  0
 10 11  2  3
 10 15  1  0
 10 16  1  0
 11 12  1  0
 11 17  1  0
 12 13  1  0
 12 14  1  0
 13 18  1  0
 13 19  1  0
 13 20  1  0
 14 21  1  0
 14 22  1  0
 14 23  1  0
M  RAD  1  12   2
M  END
>  <reaction>  (9) 
rxn_1352

>  <mol_properties>  (9) 
{"1": {"label": "*4", "atom_type": "Ct"}, "2": {"label": "*3", "atom_type": "Cs"}, "6": {"label": "*2", "atom_type": "H0"}, "10": {"label": "*0", "atom_type": "Cd"}, "11": {"label": "*1", "atom_type": "Cs"}}

>  <type>  (9) 
unop_5

>  <geom_source>  (9) 
Heuristics

$$$$

     RDKit          3D

 23 21  0  0  0  0  0  0  0  0999 V2000
   -0.7864   -0.9099   -2.9392 C   0  0  0  0  0  0  0  0  0  0  0  0
   -0.7864   -0.9099   -1.7437 C   0  0  0  0  0  0  0  0  0  0  0  0
   -0.7864   -0.9099   -0.2807 C   0  0  0  0  0  0  0  0  0  0  0  0
   -2.1004   -0.6343    0.3004 C   0  0  0  0  0  0  0  0  0  0  0  0
   -3.1742   -0.4090    0.7753 C   0  0  0  0  0  0  0  0  0  0  0  0
   -0.7864   -0.9099   -4.0027 H   0  0  0  0  0  0  0  0  0  0  0  0
    0.0717   -0.0155    0.1503 H   0  0  0  0  0  0  0  0  0  0  0  0
   -0.4311   -1.8797    0.0785 H   0  0  0  0  0  0  0  0  0  0  0  0
   -4.1294   -0.2087    1.1978 H   0  0  0  0  0  0  0  0  0  0  0  0
    2.7651   -0.7016   -0.0862 C   0  0  0  0  0  0  0  0  0  0  0  0
    2.2639    0.2080    0.7342 C   0  0  0  0  0  0  0  0  0  0  0  0
    0.9306    0.8797    0.5817 C   0  0  0  0  0  3  0  0  0  0  0  0
    1.1061    2.3901    0.4139 C   0  0  0  0  0  0  0  0  0  0  0  0
    0.0315    0.5668    1.7793 C   0  0  0  0  0  0  0  0  0  0  0  0
    3.7373   -1.1468    0.0845 H   0  0  0  0  0  0  0  0  0  0  0  0
    2.2179   -1.0348   -0.9618 H   0  0  0  0  0  0  0  0  0  0  0  0
    2.8444    0.5164    1.6028 H   0  0  0  0  0  0  0  0  0  0  0  0
    0.1384    2.8820    0.2953 H   0  0  0  0  0  0  0  0  0  0  0  0
    1.5945    2.8214    1.2921 H   0  0  0  0  0  0  0  0  0  0  0  0
    1.7185    2.6210   -0.4588 H   0  0  0  0  0  0  0  0  0  0  0  0
    0.4819    0.9335    2.7057 H   0  0  0  0  0  0  0  0  0  0  0  0
   -0.1254   -0.5077    1.8839 H   0  0  0  0  0  0  0  0  0  0  0  0
   -0.9426    1.0477    1.6688 H   0  0  0  0  0  0  0  0  0  0  0  0
  1  2  3  0
  1  6  1  0
  2  3  1  0
  3  4  1  0
  3  7  1  0
  3  8  1  0
  4  5  3  0
  5  9  1  0
 10 11  2  3
 10 15  1  0
 10 16  1  0
 11 12  1  0
 11 17  1  0
 12 13  1  0
 12 14  1  0
 13 18  1  0
 13 19  1  0
 13 20  1  0
 14 21  1  0
 14 22  1  0
 14 23  1  0
M  RAD  1  12   2
M  END
>  <reaction>  (10) 
rxn_1352

>  <mol_properties>  (10) 
{"1": {"label": "*4", "atom_type": "Ct"}, "2": {"label": "*3", "atom_type": "Cs"}, "6": {"label": "*2", "atom_type": "H0"}, "10": {"label": "*0", "atom_type": "Cd"}, "11": {"label": "*1", "atom_type": "Cs"}}

>  <type>  (10) 
unop_6

>  <geom_source>  (10) 
Heuristics

$$$$

     RDKit          3D

 23 21  0  0  0  0  0  0  0  0999 V2000
   -0.7256   -0.9154   -3.0493 C   0  0  0  0  0  0  0  0  0  0  0  0
   -0.7256   -0.9154   -1.8538 C   0  0  0  0  0  0  0  0  0  0  0  0
   -0.7256   -0.9154   -0.3908 C   0  0  0  0  0  0  0  0  0  0  0  0
   -2.0396   -0.6398    0.1903 C   0  0  0  0  0  0  0  0  0  0  0  0
   -3.1134   -0.4146    0.6652 C   0  0  0  0  0  0  0  0  0  0  0  0
   -0.7256   -0.9154   -4.1128 H   0  0  0  0  0  0  0  0  0  0  0  0
    0.1325   -0.0210    0.0402 H   0  0  0  0  0  0  0  0  0  0  0  0
   -0.3702   -1.8852   -0.0316 H   0  0  0  0  0  0  0  0  0  0  0  0
   -4.0686   -0.2142    1.0877 H   0  0  0  0  0  0  0  0  0  0  0  0
    2.5351   -1.0265    1.0343 C   0  0  0  0  0  0  0  0  0  0  0  0
    2.0245    0.1658    1.2980 C   0  0  0  0  0  0  0  0  0  0  0  0
    0.9914    0.8742    0.4716 C   0  0  0  0  0  3  0  0  0  0  0  0
    1.5467    2.1942   -0.0665 C   0  0  0  0  0  0  0  0  0  0  0  0
   -0.2795    1.1123    1.2892 C   0  0  0  0  0  0  0  0  0  0  0  0
    3.2801   -1.4802    1.6759 H   0  0  0  0  0  0  0  0  0  0  0  0
    2.2243   -1.5936    0.1631 H   0  0  0  0  0  0  0  0  0  0  0  0
    2.3625    0.7038    2.1828 H   0  0  0  0  0  0  0  0  0  0  0  0
    0.8004    2.7095   -0.6746 H   0  0  0  0  0  0  0  0  0  0  0  0
    1.8246    2.8593    0.7558 H   0  0  0  0  0  0  0  0  0  0  0  0
    2.4340    2.0278   -0.6789 H   0  0  0  0  0  0  0  0  0  0  0  0
   -0.0663    1.7391    2.1594 H   0  0  0  0  0  0  0  0  0  0  0  0
   -0.6997    0.1714    1.6472 H   0  0  0  0  0  0  0  0  0  0  0  0
   -1.0368    1.6212    0.6891 H   0  0  0  0  0  0  0  0  0  0  0  0
  1  2  3  0
  1  6  1  0
  2  3  1  0
  3  4  1  0
  3  7  1  0
  3  8  1  0
  4  5  3  0
  5  9  1  0
 10 11  2  3
 10 15  1  0
 10 16  1  0
 11 12  1  0
 11 17  1  0
 12 13  1  0
 12 14  1  0
 13 18  1  0
 13 19  1  0
 13 20  1  0
 14 21  1  0
 14 22  1  0
 14 23  1  0
M  RAD  1  12   2
M  END
>  <reaction>  (11) 
rxn_1352

>  <mol_properties>  (11) 
{"1": {"label": "*4", "atom_type": "Ct"}, "2": {"label": "*3", "atom_type": "Cs"}, "6": {"label": "*2", "atom_type": "H0"}, "10": {"label": "*0", "atom_type": "Cd"}, "11": {"label": "*1", "atom_type": "Cs"}}

>  <type>  (11) 
unop_7

>  <geom_source>  (11) 
Heuristics

$$$$

     RDKit          3D

 23 21  0  0  0  0  0  0  0  0999 V2000
   -0.4375   -1.2446   -2.9392 C   0  0  0  0  0  0  0  0  0  0  0  0
   -0.4375   -1.2446   -1.7437 C   0  0  0  0  0  0  0  0  0  0  0  0
   -0.4375   -1.2446   -0.2807 C   0  0  0  0  0  0  0  0  0  0  0  0
   -1.7516   -0.9690    0.3004 C   0  0  0  0  0  0  0  0  0  0  0  0
   -2.8253   -0.7438    0.7753 C   0  0  0  0  0  0  0  0  0  0  0  0
   -0.4375   -1.2446   -4.0027 H   0  0  0  0  0  0  0  0  0  0  0  0
    0.4206   -0.3502    0.1503 H   0  0  0  0  0  0  0  0  0  0  0  0
   -0.0822   -2.2144    0.0785 H   0  0  0  0  0  0  0  0  0  0  0  0
   -3.7805   -0.5434    1.1978 H   0  0  0  0  0  0  0  0  0  0  0  0
   -0.3764    2.3125   -0.0862 C   0  0  0  0  0  0  0  0  0  0  0  0
    0.5532    1.8494    0.7342 C   0  0  0  0  0  0  0  0  0  0  0  0
    1.2794    0.5450    0.5817 C   0  0  0  0  0  3  0  0  0  0  0  0
    1.0040   -0.3663    1.7793 C   0  0  0  0  0  0  0  0  0  0  0  0
    2.7813    0.7828    0.4139 C   0  0  0  0  0  0  0  0  0  0  0  0
   -0.8614    3.2655    0.0845 H   0  0  0  0  0  0  0  0  0  0  0  0
   -0.6867    1.7520   -0.9618 H   0  0  0  0  0  0  0  0  0  0  0  0
    0.8373    2.4421    1.6028 H   0  0  0  0  0  0  0  0  0  0  0  0
    1.5249   -1.3197    1.6688 H   0  0  0  0  0  0  0  0  0  0  0  0
    1.3518    0.0989    2.7057 H   0  0  0  0  0  0  0  0  0  0  0  0
   -0.0631   -0.5675    1.8839 H   0  0  0  0  0  0  0  0  0  0  0  0
    3.1920    1.2886    1.2921 H   0  0  0  0  0  0  0  0  0  0  0  0
    2.9867    1.4042   -0.4588 H   0  0  0  0  0  0  0  0  0  0  0  0
    3.3128   -0.1637    0.2953 H   0  0  0  0  0  0  0  0  0  0  0  0
  1  2  3  0
  1  6  1  0
  2  3  1  0
  3  4  1  0
  3  7  1  0
  3  8  1  0
  4  5  3  0
  5  9  1  0
 10 11  2  3
 10 15  1  0
 10 16  1  0
 11 12  1  0
 11 17  1  0
 12 13  1  0
 12 14  1  0
 13 18  1  0
 13 19  1  0
 13 20  1  0
 14 21  1  0
 14 22  1  0
 14 23  1  0
M  RAD  1  12   2
M  END
>  <reaction>  (12) 
rxn_1352

>  <mol_properties>  (12) 
{"1": {"label": "*4", "atom_type": "Ct"}, "2": {"label": "*3", "atom_type": "Cs"}, "6": {"label": "*2", "atom_type": "H0"}, "10": {"label": "*0", "atom_type": "Cd"}, "11": {"label": "*1", "atom_type": "Cs"}}

>  <type>  (12) 
unop_8

>  <geom_source>  (12) 
Heuristics

$$$$

     RDKit          3D

 23 21  0  0  0  0  0  0  0  0999 V2000
   -0.7654   -1.0451   -2.7244 C   0  0  0  0  0  0  0  0  0  0  0  0
   -0.7654   -1.0451   -1.5289 C   0  0  0  0  0  0  0  0  0  0  0  0
   -0.7654   -1.0451   -0.0659 C   0  0  0  0  0  0  0  0  0  0  0  0
   -2.0794   -0.7695    0.5153 C   0  0  0  0  0  0  0  0  0  0  0  0
   -3.1532   -0.5443    0.9901 C   0  0  0  0  0  0  0  0  0  0  0  0
   -0.7654   -1.0451   -3.7879 H   0  0  0  0  0  0  0  0  0  0  0  0
    0.0927   -0.1508    0.3651 H   0  0  0  0  0  0  0  0  0  0  0  0
   -0.4101   -2.0150    0.2933 H   0  0  0  0  0  0  0  0  0  0  0  0
   -4.1084   -0.3440    1.4126 H   0  0  0  0  0  0  0  0  0  0  0  0
    1.9825    0.4533   -1.4760 C   0  0  0  0  0  0  0  0  0  0  0  0
    2.0511    0.8597   -0.2184 C   0  0  0  0  0  0  0  0  0  0  0  0
    0.9516    0.7444    0.7965 C   0  0  0  0  0  3  0  0  0  0  0  0
    0.5244    2.1297    1.2853 C   0  0  0  0  0  0  0  0  0  0  0  0
    1.3929   -0.1334    1.9691 C   0  0  0  0  0  0  0  0  0  0  0  0
    2.8169    0.5679   -2.1566 H   0  0  0  0  0  0  0  0  0  0  0  0
    1.0848   -0.0107   -1.8713 H   0  0  0  0  0  0  0  0  0  0  0  0
    2.9702    1.3210    0.1407 H   0  0  0  0  0  0  0  0  0  0  0  0
   -0.2808    2.0507    2.0187 H   0  0  0  0  0  0  0  0  0  0  0  0
    1.3620    2.6452    1.7631 H   0  0  0  0  0  0  0  0  0  0  0  0
    0.1761    2.7493    0.4577 H   0  0  0  0  0  0  0  0  0  0  0  0
    2.2613    0.3020    2.4712 H   0  0  0  0  0  0  0  0  0  0  0  0
    1.6665   -1.1339    1.6312 H   0  0  0  0  0  0  0  0  0  0  0  0
    0.5930   -0.2259    2.7067 H   0  0  0  0  0  0  0  0  0  0  0  0
  1  2  3  0
  1  6  1  0
  2  3  1  0
  3  4  1  0
  3  7  1  0
  3  8  1  0
  4  5  3  0
  5  9  1  0
 10 11  2  3
 10 15  1  0
 10 16  1  0
 11 12  1  0
 11 17  1  0
 12 13  1  0
 12 14  1  0
 13 18  1  0
 13 19  1  0
 13 20  1  0
 14 21  1  0
 14 22  1  0
 14 23  1  0
M  RAD  1  12   2
M  END
>  <reaction>  (13) 
rxn_1352

>  <mol_properties>  (13) 
{"1": {"label": "*4", "atom_type": "Ct"}, "2": {"label": "*3", "atom_type": "Cs"}, "6": {"label": "*2", "atom_type": "H0"}, "10": {"label": "*0", "atom_type": "Cd"}, "11": {"label": "*1", "atom_type": "Cs"}}

>  <type>  (13) 
unop_9

>  <geom_source>  (13) 
Heuristics

$$$$

     RDKit          3D

 23 21  0  0  0  0  0  0  0  0999 V2000
   -0.4837   -1.2632   -2.8187 C   0  0  0  0  0  0  0  0  0  0  0  0
   -0.4837   -1.2632   -1.6232 C   0  0  0  0  0  0  0  0  0  0  0  0
   -0.4837   -1.2632   -0.1602 C   0  0  0  0  0  0  0  0  0  0  0  0
   -1.7977   -0.9876    0.4209 C   0  0  0  0  0  0  0  0  0  0  0  0
   -2.8715   -0.7624    0.8958 C   0  0  0  0  0  0  0  0  0  0  0  0
   -0.4837   -1.2632   -3.8822 H   0  0  0  0  0  0  0  0  0  0  0  0
    0.3744   -0.3688    0.2708 H   0  0  0  0  0  0  0  0  0  0  0  0
   -0.1283   -2.2331    0.1990 H   0  0  0  0  0  0  0  0  0  0  0  0
   -3.8267   -0.5621    1.3183 H   0  0  0  0  0  0  0  0  0  0  0  0
    0.1894    2.0846   -0.9694 C   0  0  0  0  0  0  0  0  0  0  0  0
    0.8073    1.8675    0.1807 C   0  0  0  0  0  0  0  0  0  0  0  0
    1.2333    0.5263    0.7022 C   0  0  0  0  0  3  0  0  0  0  0  0
    0.5255    0.2137    2.0219 C   0  0  0  0  0  0  0  0  0  0  0  0
    2.7525    0.4750    0.8749 C   0  0  0  0  0  0  0  0  0  0  0  0
   -0.0901    3.0820   -1.2849 H   0  0  0  0  0  0  0  0  0  0  0  0
   -0.0598    1.2682   -1.6393 H   0  0  0  0  0  0  0  0  0  0  0  0
    1.0402    2.7137    0.8258 H   0  0  0  0  0  0  0  0  0  0  0  0
    0.8272   -0.7648    2.4013 H   0  0  0  0  0  0  0  0  0  0  0  0
    0.7787    0.9587    2.7811 H   0  0  0  0  0  0  0  0  0  0  0  0
   -0.5583    0.2151    1.8976 H   0  0  0  0  0  0  0  0  0  0  0  0
    3.0845    1.2293    1.5935 H   0  0  0  0  0  0  0  0  0  0  0  0
    3.2630    0.6635   -0.0706 H   0  0  0  0  0  0  0  0  0  0  0  0
    3.0675   -0.5019    1.2474 H   0  0  0  0  0  0  0  0  0  0  0  0
  1  2  3  0
  1  6  1  0
  2  3  1  0
  3  4  1  0
  3  7  1  0
  3  8  1  0
  4  5  3  0
  5  9  1  0
 10 11  2  3
 10 15  1  0
 10 16  1  0
 11 12  1  0
 11 17  1  0
 12 13  1  0
 12 14  1  0
 13 18  1  0
 13 19  1  0
 13 20  1  0
 14 21  1  0
 14 22  1  0
 14 23  1  0
M  RAD  1  12   2
M  END
>  <reaction>  (14) 
rxn_1352

>  <mol_properties>  (14) 
{"1": {"label": "*4", "atom_type": "Ct"}, "2": {"label": "*3", "atom_type": "Cs"}, "6": {"label": "*2", "atom_type": "H0"}, "10": {"label": "*0", "atom_type": "Cd"}, "11": {"label": "*1", "atom_type": "Cs"}}

>  <type>  (14) 
unop_10

>  <geom_source>  (14) 
Heuristics

$$$$

     RDKit          3D

 23 21  0  0  0  0  0  0  0  0999 V2000
   -0.6452   -0.9664   -3.1188 C   0  0  0  0  0  0  0  0  0  0  0  0
   -0.6452   -0.9664   -1.9233 C   0  0  0  0  0  0  0  0  0  0  0  0
   -0.6452   -0.9664   -0.4603 C   0  0  0  0  0  0  0  0  0  0  0  0
   -1.9592   -0.6908    0.1209 C   0  0  0  0  0  0  0  0  0  0  0  0
   -3.0330   -0.4656    0.5958 C   0  0  0  0  0  0  0  0  0  0  0  0
   -0.6452   -0.9664   -4.1823 H   0  0  0  0  0  0  0  0  0  0  0  0
    0.2130   -0.0720   -0.0292 H   0  0  0  0  0  0  0  0  0  0  0  0
   -0.2898   -1.9363   -0.1011 H   0  0  0  0  0  0  0  0  0  0  0  0
   -3.9882   -0.2653    1.0182 H   0  0  0  0  0  0  0  0  0  0  0  0
    1.6977   -0.9095    2.1104 C   0  0  0  0  0  0  0  0  0  0  0  0
    1.6092    0.3526    1.7220 C   0  0  0  0  0  0  0  0  0  0  0  0
    1.0718    0.8231    0.4021 C   0  0  0  0  0  3  0  0  0  0  0  0
    2.1532    1.5670   -0.3837 C   0  0  0  0  0  0  0  0  0  0  0  0
   -0.1574    1.7102    0.6082 C   0  0  0  0  0  0  0  0  0  0  0  0
    2.0973   -1.1790    3.0801 H   0  0  0  0  0  0  0  0  0  0  0  0
    1.3720   -1.7218    1.4690 H   0  0  0  0  0  0  0  0  0  0  0  0
    1.9469    1.1397    2.3949 H   0  0  0  0  0  0  0  0  0  0  0  0
    1.7684    1.9049   -1.3481 H   0  0  0  0  0  0  0  0  0  0  0  0
    2.4931    2.4481    0.1675 H   0  0  0  0  0  0  0  0  0  0  0  0
    3.0191    0.9283   -0.5636 H   0  0  0  0  0  0  0  0  0  0  0  0
    0.1006    2.5964    1.1945 H   0  0  0  0  0  0  0  0  0  0  0  0
   -0.9457    1.1741    1.1384 H   0  0  0  0  0  0  0  0  0  0  0  0
   -0.5561    2.0490   -0.3503 H   0  0  0  0  0  0  0  0  0  0  0  0
  1  2  3  0
  1  6  1  0
  2  3  1  0
  3  4  1  0
  3  7  1  0
  3  8  1  0
  4  5  3  0
  5  9  1  0
 10 11  2  3
 10 15  1  0
 10 16  1  0
 11 12  1  0
 11 17  1  0
 12 13  1  0
 12 14  1  0
 13 18  1  0
 13 19  1  0
 13 20  1  0
 14 21  1  0
 14 22  1  0
 14 23  1  0
M  RAD  1  12   2
M  END
>  <reaction>  (15) 
rxn_1352

>  <mol_properties>  (15) 
{"1": {"label": "*4", "atom_type": "Ct"}, "2": {"label": "*3", "atom_type": "Cs"}, "6": {"label": "*2", "atom_type": "H0"}, "10": {"label": "*0", "atom_type": "Cd"}, "11": {"label": "*1", "atom_type": "Cs"}}

>  <type>  (15) 
unop_11

>  <geom_source>  (15) 
Heuristics

$$$$

     RDKit          3D

 23 21  0  0  0  0  0  0  0  0999 V2000
   -0.6799   -1.1480   -2.6884 C   0  0  0  0  0  0  0  0  0  0  0  0
   -0.6799   -1.1480   -1.4929 C   0  0  0  0  0  0  0  0  0  0  0  0
   -0.6799   -1.1480   -0.0299 C   0  0  0  0  0  0  0  0  0  0  0  0
   -1.9939   -0.8724    0.5513 C   0  0  0  0  0  0  0  0  0  0  0  0
   -3.0677   -0.6472    1.0262 C   0  0  0  0  0  0  0  0  0  0  0  0
   -0.6799   -1.1480   -3.7518 H   0  0  0  0  0  0  0  0  0  0  0  0
    0.1782   -0.2536    0.4012 H   0  0  0  0  0  0  0  0  0  0  0  0
   -0.3245   -2.1179    0.3293 H   0  0  0  0  0  0  0  0  0  0  0  0
   -4.0229   -0.4469    1.4487 H   0  0  0  0  0  0  0  0  0  0  0  0
    1.3930    1.0125   -1.6267 C   0  0  0  0  0  0  0  0  0  0  0  0
    1.6652    1.2962   -0.3629 C   0  0  0  0  0  0  0  0  0  0  0  0
    1.0371    0.6415    0.8326 C   0  0  0  0  0  3  0  0  0  0  0  0
    0.2801    1.6715    1.6731 C   0  0  0  0  0  0  0  0  0  0  0  0
    2.0975   -0.0722    1.6731 C   0  0  0  0  0  0  0  0  0  0  0  0
    1.8854    1.5257   -2.4431 H   0  0  0  0  0  0  0  0  0  0  0  0
    0.6644    0.2530   -1.8905 H   0  0  0  0  0  0  0  0  0  0  0  0
    2.4032    2.0653   -0.1389 H   0  0  0  0  0  0  0  0  0  0  0  0
   -0.1847    1.1979    2.5403 H   0  0  0  0  0  0  0  0  0  0  0  0
    0.9605    2.4450    2.0397 H   0  0  0  0  0  0  0  0  0  0  0  0
   -0.5007    2.1600    1.0884 H   0  0  0  0  0  0  0  0  0  0  0  0
    2.8422    0.6396    2.0397 H   0  0  0  0  0  0  0  0  0  0  0  0
    2.6178   -0.8321    1.0884 H   0  0  0  0  0  0  0  0  0  0  0  0
    1.6435   -0.5562    2.5403 H   0  0  0  0  0  0  0  0  0  0  0  0
  1  2  3  0
  1  6  1  0
  2  3  1  0
  3  4  1  0
  3  7  1  0
  3  8  1  0
  4  5  3  0
  5  9  1  0
 10 11  2  3
 10 15  1  0
 10 16  1  0
 11 12  1  0
 11 17  1  0
 12 13  1  0
 12 14  1  0
 13 18  1  0
 13 19  1  0
 13 20  1  0
 14 21  1  0
 14 22  1  0
 14 23  1  0
M  RAD  1  12   2
M  END
>  <reaction>  (16) 
rxn_1352

>  <mol_properties>  (16) 
{"1": {"label": "*4", "atom_type": "Ct"}, "2": {"label": "*3", "atom_type": "Cs"}, "6": {"label": "*2", "atom_type": "H0"}, "10": {"label": "*0", "atom_type": "Cd"}, "11": {"label": "*1", "atom_type": "Cs"}}

>  <type>  (16) 
unop_12

>  <geom_source>  (16) 
Heuristics

$$$$

     RDKit          3D

 23 21  0  0  0  0  0  0  0  0999 V2000
   -0.9554   -0.4527    0.1259 C   0  0  0  0  0  0  0  0  0  0  0  0
   -0.8917   -1.4463    1.2874 C   0  0  0  0  0  0  0  0  0  0  0  0
   -1.3835   -1.1528   -1.1651 C   0  0  0  0  0  0  0  0  0  0  0  0
   -1.9212    0.6582    0.4525 C   0  0  0  0  0  0  0  0  0  0  0  0
   -1.5303    1.9332    0.5267 C   0  0  0  0  0  0  0  0  0  0  0  0
    1.6133    0.0394    0.1157 C   0  0  0  0  0  3  0  0  0  0  0  0
    2.0930    1.3941    0.3955 C   0  0  0  0  0  0  0  0  0  0  0  0
    2.2642   -0.4769   -1.0900 C   0  0  0  0  0  0  0  0  0  0  0  0
    2.4867    2.5099    0.6275 C   0  0  0  0  0  0  0  0  0  0  0  0
    2.7990   -0.9037   -2.0828 C   0  0  0  0  0  0  0  0  0  0  0  0
    0.2542    0.0302   -0.0588 H   0  0  0  0  0  0  0  0  0  0  0  0
   -0.5591   -0.9273    2.2115 H   0  0  0  0  0  0  0  0  0  0  0  0
   -1.8875   -1.9056    1.4700 H   0  0  0  0  0  0  0  0  0  0  0  0
   -0.1603   -2.2506    1.0600 H   0  0  0  0  0  0  0  0  0  0  0  0
   -0.6580   -1.9536   -1.4220 H   0  0  0  0  0  0  0  0  0  0  0  0
   -2.3937   -1.6034   -1.0545 H   0  0  0  0  0  0  0  0  0  0  0  0
   -1.4041   -0.4230   -2.0024 H   0  0  0  0  0  0  0  0  0  0  0  0
   -2.9651    0.4159    0.6328 H   0  0  0  0  0  0  0  0  0  0  0  0
   -0.4973    2.2181    0.3537 H   0  0  0  0  0  0  0  0  0  0  0  0
   -2.2525    2.7075    0.7642 H   0  0  0  0  0  0  0  0  0  0  0  0
    1.8483   -0.6216    0.9753 H   0  0  0  0  0  0  0  0  0  0  0  0
    2.8324    3.4893    0.8310 H   0  0  0  0  0  0  0  0  0  0  0  0
    3.2686   -1.2782   -2.9542 H   0  0  0  0  0  0  0  0  0  0  0  0
  1  2  1  0
  1  3  1  0
  1  4  1  0
  1 11  1  0
  2 12  1  0
  2 13  1  0
  2 14  1  0
  3 15  1  0
  3 16  1  0
  3 17  1  0
  4  5  2  3
  4 18  1  0
  5 19  1  0
  5 20  1  0
  6  7  1  0
  6  8  1  0
  6 21  1  0
  7  9  3  0
  8 10  3  0
  9 22  1  0
 10 23  1  0
M  RAD  1   6   2
M  END
>  <reaction>  (17) 
rxn_1352

>  <mol_properties>  (17) 
{"1": {"label": "*4", "atom_type": "Ct"}, "2": {"label": "*3", "atom_type": "Cs"}, "6": {"label": "*2", "atom_type": "H0"}, "10": {"label": "*0", "atom_type": "Cd"}, "11": {"label": "*1", "atom_type": "Cs"}}

>  <type>  (17) 
unop_13

>  <geom_source>  (17) 
AutoTST

$$$$
