
     RDKit          3D

  9  8  0  0  0  0  0  0  0  0999 V2000
    1.1303   -0.2933   -0.7510 C   0  0  0  0  0  0  0  0  0  0  0  0
    0.2866    0.4560   -0.0588 C   0  0  0  0  0  0  0  0  0  0  0  0
   -0.9719   -0.0331    0.5823 C   0  0  0  0  0  0  0  0  0  0  0  0
    2.0274    0.1230   -1.1916 H   0  0  0  0  0  0  0  0  0  0  0  0
    0.9532   -1.3530   -0.9023 H   0  0  0  0  0  0  0  0  0  0  0  0
    0.5065    1.5132    0.0659 H   0  0  0  0  0  0  0  0  0  0  0  0
   -0.9526    0.1426    1.6610 H   0  0  0  0  0  0  0  0  0  0  0  0
   -1.1182   -1.1002    0.4106 H   0  0  0  0  0  0  0  0  0  0  0  0
   -1.8412    0.5010    0.1901 H   0  0  0  0  0  0  0  0  0  0  0  0
  1  2  2  3
  1  4  1  0
  1  5  1  0
  2  3  1  0
  2  6  1  0
  3  7  1  0
  3  8  1  0
  3  9  1  0
M  END
>  <reaction>  (1) 
rxn_1008

>  <mol_properties>  (1) 
{"2": {"label": "donator", "atom_type": "Cs"}, "6": {"label": "d_hydrogen", "atom_type": "H0"}}

>  <type>  (1) 
r1h

$$$$

     RDKit          3D

 11 10  0  0  0  0  0  0  0  0999 V2000
   -0.9580    1.1013   -2.2955 C   0  0  0  0  0  0  0  0  0  0  0  0
   -0.5129    0.5941   -1.2929 C   0  0  0  0  0  0  0  0  0  0  0  0
   -0.0301   -0.0160   -0.1357 C   0  0  0  0  0  3  0  0  0  0  0  0
   -0.6593   -1.2845    0.3661 C   0  0  0  0  0  0  0  0  0  0  0  0
    1.0691    0.5292    0.5269 C   0  0  0  0  0  0  0  0  0  0  0  0
    2.0168    0.9794    1.1266 C   0  0  0  0  0  0  0  0  0  0  0  0
   -1.3415    1.5561   -3.1769 H   0  0  0  0  0  0  0  0  0  0  0  0
   -1.7166   -1.3186    0.1054 H   0  0  0  0  0  0  0  0  0  0  0  0
   -0.1742   -2.1550   -0.0865 H   0  0  0  0  0  0  0  0  0  0  0  0
   -0.5505   -1.3663    1.4470 H   0  0  0  0  0  0  0  0  0  0  0  0
    2.8514    1.3842    1.6465 H   0  0  0  0  0  0  0  0  0  0  0  0
  1  2  3  0
  1  7  1  0
  2  3  1  0
  3  4  1  0
  3  5  1  0
  4  8  1  0
  4  9  1  0
  4 10  1  0
  5  6  3  0
  6 11  1  0
M  RAD  1   3   2
M  END
>  <reaction>  (2) 
rxn_1008

>  <mol_properties>  (2) 
{"2": {"label": "acceptor", "atom_type": "Cs"}}

>  <type>  (2) 
r2

$$$$

     RDKit          3D

 12 11  0  0  0  0  0  0  0  0999 V2000
    2.1696    0.6854    1.1310 C   0  0  0  0  0  0  0  0  0  0  0  0
    1.2518    0.4145    0.4134 C   0  0  0  0  0  0  0  0  0  0  0  0
    0.1391    0.0443   -0.4683 C   0  0  0  0  0  0  0  0  0  0  0  0
   -0.2054   -1.4492   -0.3339 C   0  0  0  0  0  0  0  0  0  0  0  0
   -1.0375    0.8853   -0.2222 C   0  0  0  0  0  0  0  0  0  0  0  0
   -2.0160    1.5463   -0.0311 C   0  0  0  0  0  0  0  0  0  0  0  0
    2.9819    0.9356    1.7702 H   0  0  0  0  0  0  0  0  0  0  0  0
    0.4629    0.2285   -1.4981 H   0  0  0  0  0  0  0  0  0  0  0  0
   -0.5327   -1.6703    0.6812 H   0  0  0  0  0  0  0  0  0  0  0  0
    0.6727   -2.0535   -0.5593 H   0  0  0  0  0  0  0  0  0  0  0  0
   -1.0064   -1.7081   -1.0256 H   0  0  0  0  0  0  0  0  0  0  0  0
   -2.8802    2.1413    0.1426 H   0  0  0  0  0  0  0  0  0  0  0  0
  1  2  3  0
  1  7  1  0
  2  3  1  0
  3  4  1  0
  3  5  1  0
  3  8  1  0
  4  9  1  0
  4 10  1  0
  4 11  1  0
  5  6  3  0
  6 12  1  0
M  END
>  <reaction>  (3) 
rxn_1008

>  <mol_properties>  (3) 
{"2": {"label": "acceptor", "atom_type": "Cs"}, "11": {"label": "a_hydrogen", "atom_type": "H0"}}

>  <type>  (3) 
r2h

$$$$

     RDKit          3D

 20 18  0  0  0  0  0  0  0  0999 V2000
    0.0954    0.4802    3.1953 C   0  0  0  0  0  0  0  0  0  0  0  0
   -0.2369    0.3993    2.0451 C   0  0  0  0  0  0  0  0  0  0  0  0
   -0.5881    0.2432    0.6599 C   0  0  0  0  0  0  0  0  0  0  0  0
   -1.5823   -0.8678    0.3568 C   0  0  0  0  0  0  0  0  0  0  0  0
   -0.8052    1.4680   -0.0597 C   0  0  0  0  0  0  0  0  0  0  0  0
   -0.9547    2.4626   -0.7145 C   0  0  0  0  0  0  0  0  0  0  0  0
    0.3770    0.5676    4.2169 H   0  0  0  0  0  0  0  0  0  0  0  0
   -1.2676   -1.7912    0.8433 H   0  0  0  0  0  0  0  0  0  0  0  0
   -2.5781   -0.6058    0.7177 H   0  0  0  0  0  0  0  0  0  0  0  0
   -1.6329   -1.0313   -0.7200 H   0  0  0  0  0  0  0  0  0  0  0  0
   -1.1010    3.3528   -1.2773 H   0  0  0  0  0  0  0  0  0  0  0  0
    0.8873   -0.7552   -2.9203 C   0  0  0  0  0  0  0  0  0  0  0  0
    1.1257   -1.3649   -1.7494 C   0  0  0  0  0  0  0  0  0  0  0  0
    1.6197   -0.6998   -0.5694 C   0  0  0  0  0  3  0  0  0  0  0  0
    0.4803   -1.2944   -3.7654 H   0  0  0  0  0  0  0  0  0  0  0  0
    1.0996    0.2990   -3.0568 H   0  0  0  0  0  0  0  0  0  0  0  0
    0.8859   -2.4202   -1.6552 H   0  0  0  0  0  0  0  0  0  0  0  0
    0.5161   -0.2319    0.1007 H   0  0  0  0  0  0  0  0  0  0  0  0
    2.1151    0.2565   -0.7191 H   0  0  0  0  0  0  0  0  0  0  0  0
    2.0689   -1.3170    0.2029 H   0  0  0  0  0  0  0  0  0  0  0  0
  1  2  3  0
  1  7  1  0
  2  3  1  0
  3  4  1  0
  3  5  1  0
  3 18  1  0
  4  8  1  0
  4  9  1  0
  4 10  1  0
  5  6  3  0
  6 11  1  0
 12 13  2  3
 12 15  1  0
 12 16  1  0
 13 14  1  0
 13 17  1  0
 14 19  1  0
 14 20  1  0
M  RAD  1  14   2
M  END
>  <reaction>  (4) 
rxn_1008

>  <mol_properties>  (4) 
{"1": {"label": "*0", "atom_type": "Ct"}, "2": {"label": "*1", "atom_type": "Cs"}, "12": {"label": "*4", "atom_type": "Cd"}, "13": {"label": "*3", "atom_type": "Cs"}, "17": {"label": "*2", "atom_type": "H0"}}

>  <type>  (4) 
ts

$$$$

     RDKit          3D

 20 18  0  0  0  0  0  0  0  0999 V2000
    0.1357   -0.0379    3.1983 C   0  0  0  0  0  0  0  0  0  0  0  0
   -0.2378   -0.0257    2.0620 C   0  0  0  0  0  0  0  0  0  0  0  0
   -0.7206   -0.0410    0.6767 C   0  0  0  0  0  3  0  0  0  0  0  0
   -2.1486   -0.6075    0.5904 C   0  0  0  0  0  0  0  0  0  0  0  0
   -0.6403    1.2924    0.0702 C   0  0  0  0  0  0  0  0  0  0  0  0
   -0.6002    2.3719   -0.4435 C   0  0  0  0  0  0  0  0  0  0  0  0
    0.4677   -0.0488    4.2085 H   0  0  0  0  0  0  0  0  0  0  0  0
   -2.1744   -1.6123    1.0109 H   0  0  0  0  0  0  0  0  0  0  0  0
   -2.8386    0.0245    1.1480 H   0  0  0  0  0  0  0  0  0  0  0  0
   -2.4696   -0.6455   -0.4500 H   0  0  0  0  0  0  0  0  0  0  0  0
   -0.5646    3.3317   -0.9001 H   0  0  0  0  0  0  0  0  0  0  0  0
    1.3879   -1.3043   -3.0719 C   0  0  0  0  0  0  0  0  0  0  0  0
    1.3879   -1.3043   -1.7482 C   0  0  0  0  0  0  0  0  0  0  0  0
    1.3879   -0.0822   -0.8877 C   0  0  0  0  0  0  0  0  0  0  0  0
    1.3879   -2.2271   -3.6384 H   0  0  0  0  0  0  0  0  0  0  0  0
    1.3879   -0.3787   -3.6379 H   0  0  0  0  0  0  0  0  0  0  0  0
    1.3879   -2.2570   -1.2247 H   0  0  0  0  0  0  0  0  0  0  0  0
    0.3346   -0.0616   -0.1062 H   0  0  0  0  0  0  0  0  0  0  0  0
    1.3879    0.8283   -1.4883 H   0  0  0  0  0  0  0  0  0  0  0  0
    2.2656   -0.0651   -0.2364 H   0  0  0  0  0  0  0  0  0  0  0  0
  1  2  3  0
  1  7  1  0
  2  3  1  0
  3  4  1  0
  3  5  1  0
  4  8  1  0
  4  9  1  0
  4 10  1  0
  5  6  3  0
  6 11  1  0
 12 13  2  3
 12 15  1  0
 12 16  1  0
 13 14  1  0
 13 17  1  0
 14 18  1  0
 14 19  1  0
 14 20  1  0
M  RAD  1   3   2
M  END
>  <reaction>  (5) 
rxn_1008

>  <mol_properties>  (5) 
{"1": {"label": "*0", "atom_type": "Ct"}, "2": {"label": "*1", "atom_type": "Cs"}, "12": {"label": "*4", "atom_type": "Cd"}, "13": {"label": "*3", "atom_type": "Cs"}, "17": {"label": "*2", "atom_type": "H0"}}

>  <type>  (5) 
unop_1

>  <geom_source>  (5) 
Heuristics

$$$$

     RDKit          3D

 20 18  0  0  0  0  0  0  0  0999 V2000
   -1.3870   -2.1015    1.0153 C   0  0  0  0  0  0  0  0  0  0  0  0
   -1.0634   -0.9694    0.8048 C   0  0  0  0  0  0  0  0  0  0  0  0
   -0.6992    0.4238    0.5239 C   0  0  0  0  0  3  0  0  0  0  0  0
   -1.9435    1.2727    0.2102 C   0  0  0  0  0  0  0  0  0  0  0  0
    0.0757    1.0040    1.6263 C   0  0  0  0  0  0  0  0  0  0  0  0
    0.6956    1.5065    2.5174 C   0  0  0  0  0  0  0  0  0  0  0  0
   -1.6747   -3.1080    1.2025 H   0  0  0  0  0  0  0  0  0  0  0  0
   -2.4802    0.8444   -0.6358 H   0  0  0  0  0  0  0  0  0  0  0  0
   -2.6091    1.2981    1.0720 H   0  0  0  0  0  0  0  0  0  0  0  0
   -1.6448    2.2918   -0.0332 H   0  0  0  0  0  0  0  0  0  0  0  0
    1.2468    1.9533    3.3096 H   0  0  0  0  0  0  0  0  0  0  0  0
    1.4093   -0.8395   -3.2247 C   0  0  0  0  0  0  0  0  0  0  0  0
    1.4093   -0.8395   -1.9009 C   0  0  0  0  0  0  0  0  0  0  0  0
    1.4093    0.3827   -1.0404 C   0  0  0  0  0  0  0  0  0  0  0  0
    1.4093   -1.7622   -3.7912 H   0  0  0  0  0  0  0  0  0  0  0  0
    1.4093    0.0861   -3.7907 H   0  0  0  0  0  0  0  0  0  0  0  0
    1.4093   -1.7921   -1.3774 H   0  0  0  0  0  0  0  0  0  0  0  0
    0.3560    0.4032   -0.2590 H   0  0  0  0  0  0  0  0  0  0  0  0
    1.4093    1.2931   -1.6410 H   0  0  0  0  0  0  0  0  0  0  0  0
    2.2870    0.3998   -0.3892 H   0  0  0  0  0  0  0  0  0  0  0  0
  1  2  3  0
  1  7  1  0
  2  3  1  0
  3  4  1  0
  3  5  1  0
  4  8  1  0
  4  9  1  0
  4 10  1  0
  5  6  3  0
  6 11  1  0
 12 13  2  3
 12 15  1  0
 12 16  1  0
 13 14  1  0
 13 17  1  0
 14 18  1  0
 14 19  1  0
 14 20  1  0
M  RAD  1   3   2
M  END
>  <reaction>  (6) 
rxn_1008

>  <mol_properties>  (6) 
{"1": {"label": "*0", "atom_type": "Ct"}, "2": {"label": "*1", "atom_type": "Cs"}, "12": {"label": "*4", "atom_type": "Cd"}, "13": {"label": "*3", "atom_type": "Cs"}, "17": {"label": "*2", "atom_type": "H0"}}

>  <type>  (6) 
unop_2

>  <geom_source>  (6) 
Heuristics

$$$$

     RDKit          3D

 20 18  0  0  0  0  0  0  0  0999 V2000
    0.1202    1.2203    3.0343 C   0  0  0  0  0  0  0  0  0  0  0  0
   -0.1813    0.6651    2.0186 C   0  0  0  0  0  0  0  0  0  0  0  0
   -0.5585   -0.0491    0.7939 C   0  0  0  0  0  3  0  0  0  0  0  0
   -1.5424   -1.1928    1.0964 C   0  0  0  0  0  0  0  0  0  0  0  0
   -1.1043    0.8695   -0.2114 C   0  0  0  0  0  0  0  0  0  0  0  0
   -1.5675    1.5940   -1.0429 C   0  0  0  0  0  0  0  0  0  0  0  0
    0.3882    1.7140    3.9373 H   0  0  0  0  0  0  0  0  0  0  0  0
   -1.0996   -1.8820    1.8147 H   0  0  0  0  0  0  0  0  0  0  0  0
   -2.4657   -0.7944    1.5150 H   0  0  0  0  0  0  0  0  0  0  0  0
   -1.7766   -1.7321    0.1791 H   0  0  0  0  0  0  0  0  0  0  0  0
   -1.9792    2.2381   -1.7821 H   0  0  0  0  0  0  0  0  0  0  0  0
    1.5499   -1.3124   -2.9547 C   0  0  0  0  0  0  0  0  0  0  0  0
    1.5499   -1.3124   -1.6309 C   0  0  0  0  0  0  0  0  0  0  0  0
    1.5499   -0.0903   -0.7704 C   0  0  0  0  0  0  0  0  0  0  0  0
    1.5499   -2.2352   -3.5212 H   0  0  0  0  0  0  0  0  0  0  0  0
    1.5499   -0.3868   -3.5207 H   0  0  0  0  0  0  0  0  0  0  0  0
    1.5499   -2.2651   -1.1074 H   0  0  0  0  0  0  0  0  0  0  0  0
    0.4967   -0.0697    0.0110 H   0  0  0  0  0  0  0  0  0  0  0  0
    1.5499    0.8202   -1.3710 H   0  0  0  0  0  0  0  0  0  0  0  0
    2.4276   -0.0731   -0.1192 H   0  0  0  0  0  0  0  0  0  0  0  0
  1  2  3  0
  1  7  1  0
  2  3  1  0
  3  4  1  0
  3  5  1  0
  4  8  1  0
  4  9  1  0
  4 10  1  0
  5  6  3  0
  6 11  1  0
 12 13  2  3
 12 15  1  0
 12 16  1  0
 13 14  1  0
 13 17  1  0
 14 18  1  0
 14 19  1  0
 14 20  1  0
M  RAD  1   3   2
M  END
>  <reaction>  (7) 
rxn_1008

>  <mol_properties>  (7) 
{"1": {"label": "*0", "atom_type": "Ct"}, "2": {"label": "*1", "atom_type": "Cs"}, "12": {"label": "*4", "atom_type": "Cd"}, "13": {"label": "*3", "atom_type": "Cs"}, "17": {"label": "*2", "atom_type": "H0"}}

>  <type>  (7) 
unop_3

>  <geom_source>  (7) 
Heuristics

$$$$

     RDKit          3D

 20 18  0  0  0  0  0  0  0  0999 V2000
   -2.5150    0.3319   -0.8346 C   0  0  0  0  0  0  0  0  0  0  0  0
   -1.5582    0.3053   -0.1173 C   0  0  0  0  0  0  0  0  0  0  0  0
   -0.3721    0.3070    0.7462 C   0  0  0  0  0  3  0  0  0  0  0  0
    0.1432    1.7374    0.9825 C   0  0  0  0  0  0  0  0  0  0  0  0
   -0.6370   -0.3789    2.0158 C   0  0  0  0  0  0  0  0  0  0  0  0
   -0.8307   -0.9190    3.0653 C   0  0  0  0  0  0  0  0  0  0  0  0
   -3.3657    0.3557   -1.4724 H   0  0  0  0  0  0  0  0  0  0  0  0
    0.3698    2.2117    0.0282 H   0  0  0  0  0  0  0  0  0  0  0  0
   -0.6118    2.3292    1.4984 H   0  0  0  0  0  0  0  0  0  0  0  0
    1.0454    1.7099    1.5926 H   0  0  0  0  0  0  0  0  0  0  0  0
   -1.0030   -1.3992    3.9984 H   0  0  0  0  0  0  0  0  0  0  0  0
    1.7363   -0.9563   -3.0024 C   0  0  0  0  0  0  0  0  0  0  0  0
    1.7363   -0.9563   -1.6787 C   0  0  0  0  0  0  0  0  0  0  0  0
    1.7363    0.2658   -0.8182 C   0  0  0  0  0  0  0  0  0  0  0  0
    1.7363   -1.8791   -3.5689 H   0  0  0  0  0  0  0  0  0  0  0  0
    1.7363   -0.0307   -3.5684 H   0  0  0  0  0  0  0  0  0  0  0  0
    1.7363   -1.9090   -1.1552 H   0  0  0  0  0  0  0  0  0  0  0  0
    0.6831    0.2864   -0.0367 H   0  0  0  0  0  0  0  0  0  0  0  0
    1.7363    1.1763   -1.4188 H   0  0  0  0  0  0  0  0  0  0  0  0
    2.6141    0.2829   -0.1669 H   0  0  0  0  0  0  0  0  0  0  0  0
  1  2  3  0
  1  7  1  0
  2  3  1  0
  3  4  1  0
  3  5  1  0
  4  8  1  0
  4  9  1  0
  4 10  1  0
  5  6  3  0
  6 11  1  0
 12 13  2  3
 12 15  1  0
 12 16  1  0
 13 14  1  0
 13 17  1  0
 14 18  1  0
 14 19  1  0
 14 20  1  0
M  RAD  1   3   2
M  END
>  <reaction>  (8) 
rxn_1008

>  <mol_properties>  (8) 
{"1": {"label": "*0", "atom_type": "Ct"}, "2": {"label": "*1", "atom_type": "Cs"}, "12": {"label": "*4", "atom_type": "Cd"}, "13": {"label": "*3", "atom_type": "Cs"}, "17": {"label": "*2", "atom_type": "H0"}}

>  <type>  (8) 
unop_4

>  <geom_source>  (8) 
Heuristics

$$$$

     RDKit          3D

 20 18  0  0  0  0  0  0  0  0999 V2000
   -0.2566    2.2934    2.2848 C   0  0  0  0  0  0  0  0  0  0  0  0
   -0.3347    1.3125    1.6046 C   0  0  0  0  0  0  0  0  0  0  0  0
   -0.4111    0.0890    0.7987 C   0  0  0  0  0  3  0  0  0  0  0  0
   -0.3734   -1.1667    1.6872 C   0  0  0  0  0  0  0  0  0  0  0  0
   -1.5971    0.0935   -0.0648 C   0  0  0  0  0  0  0  0  0  0  0  0
   -2.5647    0.0646   -0.7675 C   0  0  0  0  0  0  0  0  0  0  0  0
   -0.1871    3.1654    2.8895 H   0  0  0  0  0  0  0  0  0  0  0  0
    0.5344   -1.1670    2.2896 H   0  0  0  0  0  0  0  0  0  0  0  0
   -1.2361   -1.1837    2.3519 H   0  0  0  0  0  0  0  0  0  0  0  0
   -0.3915   -2.0611    1.0652 H   0  0  0  0  0  0  0  0  0  0  0  0
   -3.4249    0.0389   -1.3922 H   0  0  0  0  0  0  0  0  0  0  0  0
    1.6974   -1.1743   -2.9499 C   0  0  0  0  0  0  0  0  0  0  0  0
    1.6974   -1.1743   -1.6261 C   0  0  0  0  0  0  0  0  0  0  0  0
    1.6974    0.0478   -0.7656 C   0  0  0  0  0  0  0  0  0  0  0  0
    1.6974   -2.0971   -3.5164 H   0  0  0  0  0  0  0  0  0  0  0  0
    1.6974   -0.2487   -3.5159 H   0  0  0  0  0  0  0  0  0  0  0  0
    1.6974   -2.1270   -1.1026 H   0  0  0  0  0  0  0  0  0  0  0  0
    0.6441    0.0684    0.0158 H   0  0  0  0  0  0  0  0  0  0  0  0
    1.6974    0.9583   -1.3662 H   0  0  0  0  0  0  0  0  0  0  0  0
    2.5751    0.0650   -0.1144 H   0  0  0  0  0  0  0  0  0  0  0  0
  1  2  3  0
  1  7  1  0
  2  3  1  0
  3  4  1  0
  3  5  1  0
  4  8  1  0
  4  9  1  0
  4 10  1  0
  5  6  3  0
  6 11  1  0
 12 13  2  3
 12 15  1  0
 12 16  1  0
 13 14  1  0
 13 17  1  0
 14 18  1  0
 14 19  1  0
 14 20  1  0
M  RAD  1   3   2
M  END
>  <reaction>  (9) 
rxn_1008

>  <mol_properties>  (9) 
{"1": {"label": "*0", "atom_type": "Ct"}, "2": {"label": "*1", "atom_type": "Cs"}, "12": {"label": "*4", "atom_type": "Cd"}, "13": {"label": "*3", "atom_type": "Cs"}, "17": {"label": "*2", "atom_type": "H0"}}

>  <type>  (9) 
unop_5

>  <geom_source>  (9) 
Heuristics

$$$$

     RDKit          3D

 20 18  0  0  0  0  0  0  0  0999 V2000
   -2.3052    1.5150   -0.5882 C   0  0  0  0  0  0  0  0  0  0  0  0
   -1.4548    0.9195    0.0059 C   0  0  0  0  0  0  0  0  0  0  0  0
   -0.3868    0.2201    0.7287 C   0  0  0  0  0  3  0  0  0  0  0  0
    0.6093    1.2145    1.3505 C   0  0  0  0  0  0  0  0  0  0  0  0
   -0.9358   -0.6864    1.7432 C   0  0  0  0  0  0  0  0  0  0  0  0
   -1.3564   -1.4213    2.5881 C   0  0  0  0  0  0  0  0  0  0  0  0
   -3.0613    2.0443   -1.1165 H   0  0  0  0  0  0  0  0  0  0  0  0
    1.0323    1.8497    0.5729 H   0  0  0  0  0  0  0  0  0  0  0  0
    0.1054    1.8439    2.0828 H   0  0  0  0  0  0  0  0  0  0  0  0
    1.4130    0.6718    1.8472 H   0  0  0  0  0  0  0  0  0  0  0  0
   -1.7303   -2.0747    3.3393 H   0  0  0  0  0  0  0  0  0  0  0  0
    1.7217   -1.0432   -3.0199 C   0  0  0  0  0  0  0  0  0  0  0  0
    1.7217   -1.0432   -1.6961 C   0  0  0  0  0  0  0  0  0  0  0  0
    1.7217    0.1789   -0.8356 C   0  0  0  0  0  0  0  0  0  0  0  0
    1.7217   -1.9660   -3.5864 H   0  0  0  0  0  0  0  0  0  0  0  0
    1.7217   -0.1176   -3.5859 H   0  0  0  0  0  0  0  0  0  0  0  0
    1.7217   -1.9959   -1.1726 H   0  0  0  0  0  0  0  0  0  0  0  0
    0.6684    0.1995   -0.0542 H   0  0  0  0  0  0  0  0  0  0  0  0
    1.7217    1.0894   -1.4362 H   0  0  0  0  0  0  0  0  0  0  0  0
    2.5994    0.1961   -0.1844 H   0  0  0  0  0  0  0  0  0  0  0  0
  1  2  3  0
  1  7  1  0
  2  3  1  0
  3  4  1  0
  3  5  1  0
  4  8  1  0
  4  9  1  0
  4 10  1  0
  5  6  3  0
  6 11  1  0
 12 13  2  3
 12 15  1  0
 12 16  1  0
 13 14  1  0
 13 17  1  0
 14 18  1  0
 14 19  1  0
 14 20  1  0
M  RAD  1   3   2
M  END
>  <reaction>  (10) 
rxn_1008

>  <mol_properties>  (10) 
{"1": {"label": "*0", "atom_type": "Ct"}, "2": {"label": "*1", "atom_type": "Cs"}, "12": {"label": "*4", "atom_type": "Cd"}, "13": {"label": "*3", "atom_type": "Cs"}, "17": {"label": "*2", "atom_type": "H0"}}

>  <type>  (10) 
unop_6

>  <geom_source>  (10) 
Heuristics

$$$$

     RDKit          3D

 20 18  0  0  0  0  0  0  0  0999 V2000
   -1.7599    2.4169    0.1231 C   0  0  0  0  0  0  0  0  0  0  0  0
   -1.1690    1.4087    0.3780 C   0  0  0  0  0  0  0  0  0  0  0  0
   -0.4110    0.1936    0.6966 C   0  0  0  0  0  3  0  0  0  0  0  0
    0.7806    0.5058    1.6186 C   0  0  0  0  0  0  0  0  0  0  0  0
   -1.2776   -0.8371    1.2788 C   0  0  0  0  0  0  0  0  0  0  0  0
   -1.9584   -1.6891    1.7700 C   0  0  0  0  0  0  0  0  0  0  0  0
   -2.2853    3.3133   -0.1035 H   0  0  0  0  0  0  0  0  0  0  0  0
    1.4296    1.2437    1.1480 H   0  0  0  0  0  0  0  0  0  0  0  0
    0.4272    0.9040    2.5688 H   0  0  0  0  0  0  0  0  0  0  0  0
    1.3499   -0.4035    1.8086 H   0  0  0  0  0  0  0  0  0  0  0  0
   -2.5638   -2.4466    2.2067 H   0  0  0  0  0  0  0  0  0  0  0  0
    1.6975   -1.0697   -3.0521 C   0  0  0  0  0  0  0  0  0  0  0  0
    1.6975   -1.0697   -1.7283 C   0  0  0  0  0  0  0  0  0  0  0  0
    1.6975    0.1525   -0.8678 C   0  0  0  0  0  0  0  0  0  0  0  0
    1.6975   -1.9924   -3.6185 H   0  0  0  0  0  0  0  0  0  0  0  0
    1.6975   -0.1441   -3.6181 H   0  0  0  0  0  0  0  0  0  0  0  0
    1.6975   -2.0223   -1.2048 H   0  0  0  0  0  0  0  0  0  0  0  0
    0.6442    0.1730   -0.0863 H   0  0  0  0  0  0  0  0  0  0  0  0
    1.6975    1.0629   -1.4684 H   0  0  0  0  0  0  0  0  0  0  0  0
    2.5752    0.1696   -0.2166 H   0  0  0  0  0  0  0  0  0  0  0  0
  1  2  3  0
  1  7  1  0
  2  3  1  0
  3  4  1  0
  3  5  1  0
  4  8  1  0
  4  9  1  0
  4 10  1  0
  5  6  3  0
  6 11  1  0
 12 13  2  3
 12 15  1  0
 12 16  1  0
 13 14  1  0
 13 17  1  0
 14 18  1  0
 14 19  1  0
 14 20  1  0
M  RAD  1   3   2
M  END
>  <reaction>  (11) 
rxn_1008

>  <mol_properties>  (11) 
{"1": {"label": "*0", "atom_type": "Ct"}, "2": {"label": "*1", "atom_type": "Cs"}, "12": {"label": "*4", "atom_type": "Cd"}, "13": {"label": "*3", "atom_type": "Cs"}, "17": {"label": "*2", "atom_type": "H0"}}

>  <type>  (11) 
unop_7

>  <geom_source>  (11) 
Heuristics

$$$$

     RDKit          3D

 20 18  0  0  0  0  0  0  0  0999 V2000
   -0.1719   -1.1763    2.8184 C   0  0  0  0  0  0  0  0  0  0  0  0
   -0.4421   -0.5992    1.8061 C   0  0  0  0  0  0  0  0  0  0  0  0
   -0.8068    0.0866    0.5614 C   0  0  0  0  0  3  0  0  0  0  0  0
   -2.3295    0.0686    0.3409 C   0  0  0  0  0  0  0  0  0  0  0  0
   -0.2822    1.4564    0.5350 C   0  0  0  0  0  0  0  0  0  0  0  0
    0.1205    2.5820    0.4944 C   0  0  0  0  0  0  0  0  0  0  0  0
    0.0683   -1.6894    3.7183 H   0  0  0  0  0  0  0  0  0  0  0  0
   -2.6893   -0.9597    0.3253 H   0  0  0  0  0  0  0  0  0  0  0  0
   -2.8327    0.6047    1.1445 H   0  0  0  0  0  0  0  0  0  0  0  0
   -2.5720    0.5480   -0.6070 H   0  0  0  0  0  0  0  0  0  0  0  0
    0.4785    3.5827    0.4583 H   0  0  0  0  0  0  0  0  0  0  0  0
    1.3016   -1.1767   -3.1872 C   0  0  0  0  0  0  0  0  0  0  0  0
    1.3016   -1.1767   -1.8634 C   0  0  0  0  0  0  0  0  0  0  0  0
    1.3016    0.0454   -1.0029 C   0  0  0  0  0  0  0  0  0  0  0  0
    1.3016   -2.0995   -3.7537 H   0  0  0  0  0  0  0  0  0  0  0  0
    1.3016   -0.2511   -3.7532 H   0  0  0  0  0  0  0  0  0  0  0  0
    1.3016   -2.1294   -1.3399 H   0  0  0  0  0  0  0  0  0  0  0  0
    0.2484    0.0660   -0.2215 H   0  0  0  0  0  0  0  0  0  0  0  0
    1.3016    0.9559   -1.6035 H   0  0  0  0  0  0  0  0  0  0  0  0
    2.1793    0.0626   -0.3517 H   0  0  0  0  0  0  0  0  0  0  0  0
  1  2  3  0
  1  7  1  0
  2  3  1  0
  3  4  1  0
  3  5  1  0
  4  8  1  0
  4  9  1  0
  4 10  1  0
  5  6  3  0
  6 11  1  0
 12 13  2  3
 12 15  1  0
 12 16  1  0
 13 14  1  0
 13 17  1  0
 14 18  1  0
 14 19  1  0
 14 20  1  0
M  RAD  1   3   2
M  END
>  <reaction>  (12) 
rxn_1008

>  <mol_properties>  (12) 
{"1": {"label": "*0", "atom_type": "Ct"}, "2": {"label": "*1", "atom_type": "Cs"}, "12": {"label": "*4", "atom_type": "Cd"}, "13": {"label": "*3", "atom_type": "Cs"}, "17": {"label": "*2", "atom_type": "H0"}}

>  <type>  (12) 
unop_8

>  <geom_source>  (12) 
Heuristics

$$$$

     RDKit          3D

 20 18  0  0  0  0  0  0  0  0999 V2000
   -2.3817   -0.8233   -0.5908 C   0  0  0  0  0  0  0  0  0  0  0  0
   -1.4976   -0.2778    0.0023 C   0  0  0  0  0  0  0  0  0  0  0  0
   -0.4171    0.4227    0.7051 C   0  0  0  0  0  3  0  0  0  0  0  0
   -0.5667    1.9488    0.5775 C   0  0  0  0  0  0  0  0  0  0  0  0
   -0.3429    0.0119    2.1116 C   0  0  0  0  0  0  0  0  0  0  0  0
   -0.2704   -0.2936    3.2658 C   0  0  0  0  0  0  0  0  0  0  0  0
   -3.1676   -1.3083   -1.1180 H   0  0  0  0  0  0  0  0  0  0  0  0
   -0.5799    2.2328   -0.4743 H   0  0  0  0  0  0  0  0  0  0  0  0
   -1.4963    2.2761    1.0414 H   0  0  0  0  0  0  0  0  0  0  0  0
    0.2670    2.4453    1.0728 H   0  0  0  0  0  0  0  0  0  0  0  0
   -0.2060   -0.5652    4.2920 H   0  0  0  0  0  0  0  0  0  0  0  0
    1.6914   -0.8406   -3.0435 C   0  0  0  0  0  0  0  0  0  0  0  0
    1.6914   -0.8406   -1.7197 C   0  0  0  0  0  0  0  0  0  0  0  0
    1.6914    0.3816   -0.8592 C   0  0  0  0  0  0  0  0  0  0  0  0
    1.6914   -1.7633   -3.6100 H   0  0  0  0  0  0  0  0  0  0  0  0
    1.6914    0.0850   -3.6095 H   0  0  0  0  0  0  0  0  0  0  0  0
    1.6914   -1.7932   -1.1962 H   0  0  0  0  0  0  0  0  0  0  0  0
    0.6381    0.4021   -0.0778 H   0  0  0  0  0  0  0  0  0  0  0  0
    1.6914    1.2920   -1.4598 H   0  0  0  0  0  0  0  0  0  0  0  0
    2.5691    0.3987   -0.2080 H   0  0  0  0  0  0  0  0  0  0  0  0
  1  2  3  0
  1  7  1  0
  2  3  1  0
  3  4  1  0
  3  5  1  0
  4  8  1  0
  4  9  1  0
  4 10  1  0
  5  6  3  0
  6 11  1  0
 12 13  2  3
 12 15  1  0
 12 16  1  0
 13 14  1  0
 13 17  1  0
 14 18  1  0
 14 19  1  0
 14 20  1  0
M  RAD  1   3   2
M  END
>  <reaction>  (13) 
rxn_1008

>  <mol_properties>  (13) 
{"1": {"label": "*0", "atom_type": "Ct"}, "2": {"label": "*1", "atom_type": "Cs"}, "12": {"label": "*4", "atom_type": "Cd"}, "13": {"label": "*3", "atom_type": "Cs"}, "17": {"label": "*2", "atom_type": "H0"}}

>  <type>  (13) 
unop_9

>  <geom_source>  (13) 
Heuristics

$$$$

     RDKit          3D

 20 18  0  0  0  0  0  0  0  0999 V2000
   -0.7299   -1.9235    2.0185 C   0  0  0  0  0  0  0  0  0  0  0  0
   -0.7450   -0.9356    1.3444 C   0  0  0  0  0  0  0  0  0  0  0  0
   -0.7997    0.2658    0.5040 C   0  0  0  0  0  3  0  0  0  0  0  0
   -2.2534    0.6958    0.2405 C   0  0  0  0  0  0  0  0  0  0  0  0
   -0.0194    1.3613    1.0900 C   0  0  0  0  0  0  0  0  0  0  0  0
    0.5967    2.2759    1.5534 C   0  0  0  0  0  0  0  0  0  0  0  0
   -0.7166   -2.8019    2.6179 H   0  0  0  0  0  0  0  0  0  0  0  0
   -2.8013   -0.1199   -0.2300 H   0  0  0  0  0  0  0  0  0  0  0  0
   -2.7451    0.9549    1.1773 H   0  0  0  0  0  0  0  0  0  0  0  0
   -2.2691    1.5647   -0.4166 H   0  0  0  0  0  0  0  0  0  0  0  0
    1.1445    3.0890    1.9654 H   0  0  0  0  0  0  0  0  0  0  0  0
    1.3088   -0.9975   -3.2446 C   0  0  0  0  0  0  0  0  0  0  0  0
    1.3088   -0.9975   -1.9208 C   0  0  0  0  0  0  0  0  0  0  0  0
    1.3088    0.2246   -1.0603 C   0  0  0  0  0  0  0  0  0  0  0  0
    1.3088   -1.9203   -3.8111 H   0  0  0  0  0  0  0  0  0  0  0  0
    1.3088   -0.0719   -3.8106 H   0  0  0  0  0  0  0  0  0  0  0  0
    1.3088   -1.9502   -1.3973 H   0  0  0  0  0  0  0  0  0  0  0  0
    0.2555    0.2452   -0.2789 H   0  0  0  0  0  0  0  0  0  0  0  0
    1.3088    1.1351   -1.6609 H   0  0  0  0  0  0  0  0  0  0  0  0
    2.1865    0.2418   -0.4091 H   0  0  0  0  0  0  0  0  0  0  0  0
  1  2  3  0
  1  7  1  0
  2  3  1  0
  3  4  1  0
  3  5  1  0
  4  8  1  0
  4  9  1  0
  4 10  1  0
  5  6  3  0
  6 11  1  0
 12 13  2  3
 12 15  1  0
 12 16  1  0
 13 14  1  0
 13 17  1  0
 14 18  1  0
 14 19  1  0
 14 20  1  0
M  RAD  1   3   2
M  END
>  <reaction>  (14) 
rxn_1008

>  <mol_properties>  (14) 
{"1": {"label": "*0", "atom_type": "Ct"}, "2": {"label": "*1", "atom_type": "Cs"}, "12": {"label": "*4", "atom_type": "Cd"}, "13": {"label": "*3", "atom_type": "Cs"}, "17": {"label": "*2", "atom_type": "H0"}}

>  <type>  (14) 
unop_10

>  <geom_source>  (14) 
Heuristics

$$$$

     RDKit          3D

 20 18  0  0  0  0  0  0  0  0999 V2000
   -0.9901    2.7464    1.1662 C   0  0  0  0  0  0  0  0  0  0  0  0
   -0.7420    1.5957    0.9538 C   0  0  0  0  0  0  0  0  0  0  0  0
   -0.4029    0.1888    0.7129 C   0  0  0  0  0  3  0  0  0  0  0  0
    0.5518   -0.3474    1.7939 C   0  0  0  0  0  0  0  0  0  0  0  0
   -1.6093   -0.6396    0.6110 C   0  0  0  0  0  0  0  0  0  0  0  0
   -2.5760   -1.3406    0.5393 C   0  0  0  0  0  0  0  0  0  0  0  0
   -1.2107    3.7695    1.3549 H   0  0  0  0  0  0  0  0  0  0  0  0
    1.4560    0.2597    1.8235 H   0  0  0  0  0  0  0  0  0  0  0  0
    0.0722   -0.3112    2.7712 H   0  0  0  0  0  0  0  0  0  0  0  0
    0.8198   -1.3798    1.5721 H   0  0  0  0  0  0  0  0  0  0  0  0
   -3.4354   -1.9637    0.4756 H   0  0  0  0  0  0  0  0  0  0  0  0
    1.7056   -1.0745   -3.0358 C   0  0  0  0  0  0  0  0  0  0  0  0
    1.7056   -1.0745   -1.7120 C   0  0  0  0  0  0  0  0  0  0  0  0
    1.7056    0.1477   -0.8515 C   0  0  0  0  0  0  0  0  0  0  0  0
    1.7056   -1.9972   -3.6023 H   0  0  0  0  0  0  0  0  0  0  0  0
    1.7056   -0.1489   -3.6018 H   0  0  0  0  0  0  0  0  0  0  0  0
    1.7056   -2.0271   -1.1885 H   0  0  0  0  0  0  0  0  0  0  0  0
    0.6523    0.1683   -0.0700 H   0  0  0  0  0  0  0  0  0  0  0  0
    1.7056    1.0582   -1.4521 H   0  0  0  0  0  0  0  0  0  0  0  0
    2.5833    0.1648   -0.2003 H   0  0  0  0  0  0  0  0  0  0  0  0
  1  2  3  0
  1  7  1  0
  2  3  1  0
  3  4  1  0
  3  5  1  0
  4  8  1  0
  4  9  1  0
  4 10  1  0
  5  6  3  0
  6 11  1  0
 12 13  2  3
 12 15  1  0
 12 16  1  0
 13 14  1  0
 13 17  1  0
 14 18  1  0
 14 19  1  0
 14 20  1  0
M  RAD  1   3   2
M  END
>  <reaction>  (15) 
rxn_1008

>  <mol_properties>  (15) 
{"1": {"label": "*0", "atom_type": "Ct"}, "2": {"label": "*1", "atom_type": "Cs"}, "12": {"label": "*4", "atom_type": "Cd"}, "13": {"label": "*3", "atom_type": "Cs"}, "17": {"label": "*2", "atom_type": "H0"}}

>  <type>  (15) 
unop_11

>  <geom_source>  (15) 
Heuristics

$$$$

     RDKit          3D

 20 18  0  0  0  0  0  0  0  0999 V2000
   -1.9759   -1.6951    0.0722 C   0  0  0  0  0  0  0  0  0  0  0  0
   -1.3231   -0.7254    0.3260 C   0  0  0  0  0  0  0  0  0  0  0  0
   -0.5434    0.4844    0.6100 C   0  0  0  0  0  3  0  0  0  0  0  0
   -1.3510    1.7551    0.2928 C   0  0  0  0  0  0  0  0  0  0  0  0
   -0.0607    0.4936    1.9954 C   0  0  0  0  0  0  0  0  0  0  0  0
    0.3322    0.5337    3.1245 C   0  0  0  0  0  0  0  0  0  0  0  0
   -2.5564   -2.5571   -0.1534 H   0  0  0  0  0  0  0  0  0  0  0  0
   -1.6645    1.7438   -0.7506 H   0  0  0  0  0  0  0  0  0  0  0  0
   -2.2364    1.8062    0.9251 H   0  0  0  0  0  0  0  0  0  0  0  0
   -0.7386    2.6379    0.4739 H   0  0  0  0  0  0  0  0  0  0  0  0
    0.6814    0.5694    4.1283 H   0  0  0  0  0  0  0  0  0  0  0  0
    1.5651   -0.7789   -3.1386 C   0  0  0  0  0  0  0  0  0  0  0  0
    1.5651   -0.7789   -1.8149 C   0  0  0  0  0  0  0  0  0  0  0  0
    1.5651    0.4433   -0.9544 C   0  0  0  0  0  0  0  0  0  0  0  0
    1.5651   -1.7016   -3.7051 H   0  0  0  0  0  0  0  0  0  0  0  0
    1.5651    0.1467   -3.7046 H   0  0  0  0  0  0  0  0  0  0  0  0
    1.5651   -1.7315   -1.2913 H   0  0  0  0  0  0  0  0  0  0  0  0
    0.5118    0.4638   -0.1729 H   0  0  0  0  0  0  0  0  0  0  0  0
    1.5651    1.3538   -1.5549 H   0  0  0  0  0  0  0  0  0  0  0  0
    2.4428    0.4604   -0.3031 H   0  0  0  0  0  0  0  0  0  0  0  0
  1  2  3  0
  1  7  1  0
  2  3  1  0
  3  4  1  0
  3  5  1  0
  4  8  1  0
  4  9  1  0
  4 10  1  0
  5  6  3  0
  6 11  1  0
 12 13  2  3
 12 15  1  0
 12 16  1  0
 13 14  1  0
 13 17  1  0
 14 18  1  0
 14 19  1  0
 14 20  1  0
M  RAD  1   3   2
M  END
>  <reaction>  (16) 
rxn_1008

>  <mol_properties>  (16) 
{"1": {"label": "*0", "atom_type": "Ct"}, "2": {"label": "*1", "atom_type": "Cs"}, "12": {"label": "*4", "atom_type": "Cd"}, "13": {"label": "*3", "atom_type": "Cs"}, "17": {"label": "*2", "atom_type": "H0"}}

>  <type>  (16) 
unop_12

>  <geom_source>  (16) 
Heuristics

$$$$

     RDKit          3D

 20 18  0  0  0  0  0  0  0  0999 V2000
    1.0795   -0.0537    0.0249 C   0  0  0  0  0  0  0  0  0  0  0  0
    1.7967   -1.1187   -0.8017 C   0  0  0  0  0  0  0  0  0  0  0  0
   -2.4458   -0.3633    0.2567 C   0  0  0  0  0  0  0  0  0  0  0  0
   -1.3507   -0.6475   -0.7206 C   0  0  0  0  0  0  0  0  0  0  0  0
   -3.0408    0.8301    0.2882 C   0  0  0  0  0  3  0  0  0  0  0  0
    1.5184   -0.1112    1.4247 C   0  0  0  0  0  0  0  0  0  0  0  0
    1.3526    1.2834   -0.5161 C   0  0  0  0  0  0  0  0  0  0  0  0
    1.8775   -0.1597    2.5748 C   0  0  0  0  0  0  0  0  0  0  0  0
    1.5754    2.3816   -0.9616 C   0  0  0  0  0  0  0  0  0  0  0  0
   -0.2255   -0.2754   -0.0229 H   0  0  0  0  0  0  0  0  0  0  0  0
    2.8976   -0.9616   -0.7828 H   0  0  0  0  0  0  0  0  0  0  0  0
    1.4456   -1.0816   -1.8552 H   0  0  0  0  0  0  0  0  0  0  0  0
    1.5701   -2.1288   -0.3980 H   0  0  0  0  0  0  0  0  0  0  0  0
   -2.7516   -1.1342    0.9578 H   0  0  0  0  0  0  0  0  0  0  0  0
   -2.7473    1.6185   -0.3986 H   0  0  0  0  0  0  0  0  0  0  0  0
   -3.8302    1.0245    1.0070 H   0  0  0  0  0  0  0  0  0  0  0  0
   -1.7402   -0.5789   -1.7583 H   0  0  0  0  0  0  0  0  0  0  0  0
   -0.9453   -1.6666   -0.5499 H   0  0  0  0  0  0  0  0  0  0  0  0
    2.1927   -0.2023    3.5841 H   0  0  0  0  0  0  0  0  0  0  0  0
    1.7711    3.3453   -1.3526 H   0  0  0  0  0  0  0  0  0  0  0  0
  1  2  1  0
  1  6  1  0
  1  7  1  0
  1 10  1  0
  2 11  1  0
  2 12  1  0
  2 13  1  0
  3  4  2  3
  3  5  1  0
  3 14  1  0
  4 17  1  0
  4 18  1  0
  5 15  1  0
  5 16  1  0
  6  8  3  0
  7  9  3  0
  8 19  1  0
  9 20  1  0
M  RAD  1   5   2
M  END
>  <reaction>  (17) 
rxn_1008

>  <mol_properties>  (17) 
{"1": {"label": "*0", "atom_type": "Ct"}, "2": {"label": "*1", "atom_type": "Cs"}, "12": {"label": "*4", "atom_type": "Cd"}, "13": {"label": "*3", "atom_type": "Cs"}, "17": {"label": "*2", "atom_type": "H0"}}

>  <type>  (17) 
unop_13

>  <geom_source>  (17) 
AutoTST

$$$$
