
     RDKit          3D

 15 14  0  0  0  0  0  0  0  0999 V2000
    2.1256    0.4849   -0.6284 C   0  0  0  0  0  0  0  0  0  0  0  0
    1.1128    0.2141    0.1794 C   0  0  0  0  0  0  0  0  0  0  0  0
   -0.3017   -0.0425   -0.2513 C   0  0  0  0  0  0  0  0  0  0  0  0
   -1.2427    1.0075    0.3423 C   0  0  0  0  0  0  0  0  0  0  0  0
   -0.7381   -1.4526    0.1504 C   0  0  0  0  0  0  0  0  0  0  0  0
    3.1243    0.6602   -0.2486 H   0  0  0  0  0  0  0  0  0  0  0  0
    1.9908    0.5411   -1.7036 H   0  0  0  0  0  0  0  0  0  0  0  0
    1.2888    0.1665    1.2533 H   0  0  0  0  0  0  0  0  0  0  0  0
   -0.3426    0.0343   -1.3424 H   0  0  0  0  0  0  0  0  0  0  0  0
   -0.9570    2.0133    0.0315 H   0  0  0  0  0  0  0  0  0  0  0  0
   -1.2189    0.9728    1.4350 H   0  0  0  0  0  0  0  0  0  0  0  0
   -2.2723    0.8287    0.0254 H   0  0  0  0  0  0  0  0  0  0  0  0
   -0.6964   -1.5744    1.2363 H   0  0  0  0  0  0  0  0  0  0  0  0
   -0.0911   -2.2079   -0.2978 H   0  0  0  0  0  0  0  0  0  0  0  0
   -1.7646   -1.6461   -0.1677 H   0  0  0  0  0  0  0  0  0  0  0  0
  1  2  2  3
  1  6  1  0
  1  7  1  0
  2  3  1  0
  2  8  1  0
  3  4  1  0
  3  5  1  0
  3  9  1  0
  4 10  1  0
  4 11  1  0
  4 12  1  0
  5 13  1  0
  5 14  1  0
  5 15  1  0
M  END
>  <reaction>  (1) 
rxn_1105

>  <mol_properties>  (1) 
{"2": {"label": "donator", "atom_type": "Cs"}, "8": {"label": "d_hydrogen", "atom_type": "H0"}}

>  <type>  (1) 
r1h

$$$$

     RDKit          3D

 11 10  0  0  0  0  0  0  0  0999 V2000
    1.0781   -1.0166   -0.1159 C   0  0  0  0  0  0  0  0  0  0  0  0
    0.2180    0.1942   -0.2297 C   0  0  0  0  0  3  0  0  0  0  0  0
    0.9343    1.7769   -0.3011 S   0  0  0  0  0  0  0  0  0  0  0  0
   -1.1949    0.1490    0.2439 C   0  0  0  0  0  0  0  0  0  0  0  0
    1.4718   -1.1461    0.9024 H   0  0  0  0  0  0  0  0  0  0  0  0
    1.9367   -0.9751   -0.7902 H   0  0  0  0  0  0  0  0  0  0  0  0
    0.5033   -1.9136   -0.3576 H   0  0  0  0  0  0  0  0  0  0  0  0
    2.1166    1.4195   -0.8209 H   0  0  0  0  0  0  0  0  0  0  0  0
   -1.2620    0.0939    1.3399 H   0  0  0  0  0  0  0  0  0  0  0  0
   -1.7600    1.0270   -0.0739 H   0  0  0  0  0  0  0  0  0  0  0  0
   -1.6972   -0.7380   -0.1506 H   0  0  0  0  0  0  0  0  0  0  0  0
  1  2  1  0
  1  5  1  0
  1  6  1  0
  1  7  1  0
  2  4  1  0
  2  3  1  0
  3  8  1  0
  4  9  1  0
  4 10  1  0
  4 11  1  0
M  RAD  1   2   2
M  END
>  <reaction>  (2) 
rxn_1105

>  <mol_properties>  (2) 
{"1": {"label": "acceptor", "atom_type": "Cs"}}

>  <type>  (2) 
r2

$$$$

     RDKit          3D

 12 11  0  0  0  0  0  0  0  0999 V2000
    1.2394   -0.3763   -0.3020 C   0  0  0  0  0  0  0  0  0  0  0  0
    0.1007    0.3024    0.4464 C   0  0  0  0  0  0  0  0  0  0  0  0
   -0.1187    2.0399   -0.0725 S   0  0  0  0  0  0  0  0  0  0  0  0
   -1.1974   -0.4877    0.3552 C   0  0  0  0  0  0  0  0  0  0  0  0
    2.1681    0.1850   -0.2048 H   0  0  0  0  0  0  0  0  0  0  0  0
    1.0030   -0.4604   -1.3656 H   0  0  0  0  0  0  0  0  0  0  0  0
    1.3993   -1.3856    0.0859 H   0  0  0  0  0  0  0  0  0  0  0  0
    0.3797    0.4050    1.4982 H   0  0  0  0  0  0  0  0  0  0  0  0
   -0.4500    1.7774   -1.3452 H   0  0  0  0  0  0  0  0  0  0  0  0
   -1.0545   -1.4977    0.7478 H   0  0  0  0  0  0  0  0  0  0  0  0
   -1.5206   -0.5758   -0.6849 H   0  0  0  0  0  0  0  0  0  0  0  0
   -1.9957   -0.0054    0.9183 H   0  0  0  0  0  0  0  0  0  0  0  0
  1  2  1  0
  1  5  1  0
  1  6  1  0
  1  7  1  0
  2  4  1  0
  2  3  1  0
  2  8  1  0
  3  9  1  0
  4 10  1  0
  4 11  1  0
  4 12  1  0
M  END
>  <reaction>  (3) 
rxn_1105

>  <mol_properties>  (3) 
{"1": {"label": "acceptor", "atom_type": "Cs"}, "11": {"label": "a_hydrogen", "atom_type": "H0"}}

>  <type>  (3) 
r2h

$$$$

     RDKit          3D

 26 24  0  0  0  0  0  0  0  0999 V2000
    0.9849    1.2415   -1.6164 C   0  0  0  0  0  0  0  0  0  0  0  0
   -0.1246    1.3667   -0.6064 C   0  0  0  0  0  3  0  0  0  0  0  0
    0.1188    2.5731    0.6846 S   0  0  0  0  0  0  0  0  0  0  0  0
   -1.5127    1.4599   -1.1860 C   0  0  0  0  0  0  0  0  0  0  0  0
    1.9536    1.0999   -1.1341 H   0  0  0  0  0  0  0  0  0  0  0  0
    1.0498    2.1341   -2.2477 H   0  0  0  0  0  0  0  0  0  0  0  0
    0.8005    0.3776   -2.2595 H   0  0  0  0  0  0  0  0  0  0  0  0
    1.4016    2.2856    0.9427 H   0  0  0  0  0  0  0  0  0  0  0  0
   -1.7017    0.5886   -1.8176 H   0  0  0  0  0  0  0  0  0  0  0  0
   -2.2741    1.4860   -0.4047 H   0  0  0  0  0  0  0  0  0  0  0  0
   -1.6309    2.3542   -1.8071 H   0  0  0  0  0  0  0  0  0  0  0  0
    0.4624   -2.7260   -1.2509 C   0  0  0  0  0  0  0  0  0  0  0  0
   -0.4208   -1.9886   -0.5751 C   0  0  0  0  0  0  0  0  0  0  0  0
   -0.1438   -1.0747    0.5395 C   0  0  0  0  0  0  0  0  0  0  0  0
    1.2355   -1.1455    1.1532 C   0  0  0  0  0  0  0  0  0  0  0  0
   -1.2620   -0.9600    1.5549 C   0  0  0  0  0  0  0  0  0  0  0  0
    0.1508   -3.3443   -2.0827 H   0  0  0  0  0  0  0  0  0  0  0  0
    1.5145   -2.7475   -0.9940 H   0  0  0  0  0  0  0  0  0  0  0  0
   -1.4629   -2.0314   -0.8859 H   0  0  0  0  0  0  0  0  0  0  0  0
   -0.1453    0.1077   -0.0069 H   0  0  0  0  0  0  0  0  0  0  0  0
    2.0194   -1.0189    0.4039 H   0  0  0  0  0  0  0  0  0  0  0  0
    1.3996   -2.1095    1.6458 H   0  0  0  0  0  0  0  0  0  0  0  0
    1.3569   -0.3617    1.9032 H   0  0  0  0  0  0  0  0  0  0  0  0
   -1.2925   -1.8385    2.2080 H   0  0  0  0  0  0  0  0  0  0  0  0
   -2.2346   -0.8770    1.0652 H   0  0  0  0  0  0  0  0  0  0  0  0
   -1.1235   -0.0784    2.1843 H   0  0  0  0  0  0  0  0  0  0  0  0
  1  2  1  0
  1  5  1  0
  1  6  1  0
  1  7  1  0
  2  4  1  0
  2  3  1  0
  3  8  1  0
  4  9  1  0
  4 10  1  0
  4 11  1  0
 12 13  2  3
 12 17  1  0
 12 18  1  0
 13 14  1  0
 13 19  1  0
 14 15  1  0
 14 16  1  0
 14 20  1  0
 15 21  1  0
 15 22  1  0
 15 23  1  0
 16 24  1  0
 16 25  1  0
 16 26  1  0
M  RAD  1   2   2
M  END
>  <reaction>  (4) 
rxn_1105

>  <mol_properties>  (4) 
{"1": {"label": "*3", "atom_type": "Cs"}, "2": {"label": "*4", "atom_type": "S2s"}, "12": {"label": "*0", "atom_type": "Cd"}, "13": {"label": "*1", "atom_type": "Cs"}, "19": {"label": "*2", "atom_type": "H0"}}

>  <type>  (4) 
ts

$$$$

     RDKit          3D

 26 24  0  0  0  0  0  0  0  0999 V2000
   -1.3640    1.8884   -0.1055 C   0  0  0  0  0  0  0  0  0  0  0  0
   -0.1167    1.0637   -0.3916 C   0  0  0  0  0  0  0  0  0  0  0  0
    0.4531    1.2618   -2.1157 S   0  0  0  0  0  0  0  0  0  0  0  0
    0.9954    1.3383    0.6111 C   0  0  0  0  0  0  0  0  0  0  0  0
   -2.1606    1.6612   -0.8131 H   0  0  0  0  0  0  0  0  0  0  0  0
   -1.1421    2.9561   -0.1749 H   0  0  0  0  0  0  0  0  0  0  0  0
   -1.7274    1.6874    0.9056 H   0  0  0  0  0  0  0  0  0  0  0  0
    0.7332    2.5706   -2.0334 H   0  0  0  0  0  0  0  0  0  0  0  0
    0.6484    1.1334    1.6272 H   0  0  0  0  0  0  0  0  0  0  0  0
    1.8708    0.7213    0.4114 H   0  0  0  0  0  0  0  0  0  0  0  0
    1.3012    2.3865    0.5672 H   0  0  0  0  0  0  0  0  0  0  0  0
   -0.1167   -2.2690   -1.0273 C   0  0  0  0  0  0  0  0  0  0  0  0
   -0.1167   -2.2690    0.2962 C   0  0  0  0  0  0  0  0  0  0  0  0
   -0.1167   -1.0476    1.1682 C   0  0  0  0  0  3  0  0  0  0  0  0
    1.1426   -1.0072    2.0359 C   0  0  0  0  0  0  0  0  0  0  0  0
   -1.3761   -1.0072    2.0359 C   0  0  0  0  0  0  0  0  0  0  0  0
   -0.1167   -3.1907   -1.5956 H   0  0  0  0  0  0  0  0  0  0  0  0
   -0.1167   -1.3424   -1.5919 H   0  0  0  0  0  0  0  0  0  0  0  0
   -0.1167   -3.2203    0.8267 H   0  0  0  0  0  0  0  0  0  0  0  0
   -0.1167    0.0088    0.3878 H   0  0  0  0  0  0  0  0  0  0  0  0
    2.0441   -1.0013    1.4217 H   0  0  0  0  0  0  0  0  0  0  0  0
    1.1871   -1.8810    2.6916 H   0  0  0  0  0  0  0  0  0  0  0  0
    1.1501   -0.1160    2.6668 H   0  0  0  0  0  0  0  0  0  0  0  0
   -1.4206   -1.8810    2.6916 H   0  0  0  0  0  0  0  0  0  0  0  0
   -2.2776   -1.0013    1.4217 H   0  0  0  0  0  0  0  0  0  0  0  0
   -1.3836   -0.1160    2.6668 H   0  0  0  0  0  0  0  0  0  0  0  0
  1  2  1  0
  1  5  1  0
  1  6  1  0
  1  7  1  0
  2  4  1  0
  2  3  1  0
  2 20  1  0
  3  8  1  0
  4  9  1  0
  4 10  1  0
  4 11  1  0
 12 13  2  3
 12 17  1  0
 12 18  1  0
 13 14  1  0
 13 19  1  0
 14 15  1  0
 14 16  1  0
 15 21  1  0
 15 22  1  0
 15 23  1  0
 16 24  1  0
 16 25  1  0
 16 26  1  0
M  RAD  1  14   2
M  END
>  <reaction>  (5) 
rxn_1105

>  <mol_properties>  (5) 
{"1": {"label": "*3", "atom_type": "Cs"}, "2": {"label": "*4", "atom_type": "S2s"}, "12": {"label": "*0", "atom_type": "Cd"}, "13": {"label": "*1", "atom_type": "Cs"}, "19": {"label": "*2", "atom_type": "H0"}}

>  <type>  (5) 
unop_1

>  <geom_source>  (5) 
Heuristics

$$$$

     RDKit          3D

 26 24  0  0  0  0  0  0  0  0999 V2000
   -0.9102    0.6524   -1.8262 C   0  0  0  0  0  0  0  0  0  0  0  0
   -0.1901    0.9968   -0.5299 C   0  0  0  0  0  0  0  0  0  0  0  0
    1.4242    1.7948   -0.8359 S   0  0  0  0  0  0  0  0  0  0  0  0
   -1.0619    1.8171    0.4106 C   0  0  0  0  0  0  0  0  0  0  0  0
   -0.2852    0.0420   -2.4771 H   0  0  0  0  0  0  0  0  0  0  0  0
   -1.1792    1.5620   -2.3689 H   0  0  0  0  0  0  0  0  0  0  0  0
   -1.8319    0.1048   -1.6136 H   0  0  0  0  0  0  0  0  0  0  0  0
    0.9400    2.8902   -1.4391 H   0  0  0  0  0  0  0  0  0  0  0  0
   -1.9848    1.2776    0.6388 H   0  0  0  0  0  0  0  0  0  0  0  0
   -0.5445    2.0320    1.3449 H   0  0  0  0  0  0  0  0  0  0  0  0
   -1.3364    2.7681   -0.0525 H   0  0  0  0  0  0  0  0  0  0  0  0
   -0.1901   -2.3359   -1.1657 C   0  0  0  0  0  0  0  0  0  0  0  0
   -0.1901   -2.3359    0.1578 C   0  0  0  0  0  0  0  0  0  0  0  0
   -0.1901   -1.1146    1.0298 C   0  0  0  0  0  3  0  0  0  0  0  0
    1.0692   -1.0741    1.8975 C   0  0  0  0  0  0  0  0  0  0  0  0
   -1.4494   -1.0741    1.8975 C   0  0  0  0  0  0  0  0  0  0  0  0
   -0.1901   -3.2577   -1.7340 H   0  0  0  0  0  0  0  0  0  0  0  0
   -0.1901   -1.4094   -1.7303 H   0  0  0  0  0  0  0  0  0  0  0  0
   -0.1901   -3.2873    0.6884 H   0  0  0  0  0  0  0  0  0  0  0  0
   -0.1901   -0.0582    0.2494 H   0  0  0  0  0  0  0  0  0  0  0  0
    1.9708   -1.0682    1.2833 H   0  0  0  0  0  0  0  0  0  0  0  0
    1.1138   -1.9480    2.5533 H   0  0  0  0  0  0  0  0  0  0  0  0
    1.0768   -0.1829    2.5285 H   0  0  0  0  0  0  0  0  0  0  0  0
   -1.4940   -1.9480    2.5533 H   0  0  0  0  0  0  0  0  0  0  0  0
   -2.3509   -1.0682    1.2833 H   0  0  0  0  0  0  0  0  0  0  0  0
   -1.4569   -0.1829    2.5285 H   0  0  0  0  0  0  0  0  0  0  0  0
  1  2  1  0
  1  5  1  0
  1  6  1  0
  1  7  1  0
  2  4  1  0
  2  3  1  0
  2 20  1  0
  3  8  1  0
  4  9  1  0
  4 10  1  0
  4 11  1  0
 12 13  2  3
 12 17  1  0
 12 18  1  0
 13 14  1  0
 13 19  1  0
 14 15  1  0
 14 16  1  0
 15 21  1  0
 15 22  1  0
 15 23  1  0
 16 24  1  0
 16 25  1  0
 16 26  1  0
M  RAD  1  14   2
M  END
>  <reaction>  (6) 
rxn_1105

>  <mol_properties>  (6) 
{"1": {"label": "*3", "atom_type": "Cs"}, "2": {"label": "*4", "atom_type": "S2s"}, "12": {"label": "*0", "atom_type": "Cd"}, "13": {"label": "*1", "atom_type": "Cs"}, "19": {"label": "*2", "atom_type": "H0"}}

>  <type>  (6) 
unop_2

>  <geom_source>  (6) 
Heuristics

$$$$

     RDKit          3D

 26 24  0  0  0  0  0  0  0  0999 V2000
   -0.7162    2.2538    0.3709 C   0  0  0  0  0  0  0  0  0  0  0  0
    0.0039    1.1159   -0.3392 C   0  0  0  0  0  0  0  0  0  0  0  0
   -0.4049    1.0529   -2.1184 S   0  0  0  0  0  0  0  0  0  0  0  0
    1.5071    1.1506   -0.1009 C   0  0  0  0  0  0  0  0  0  0  0  0
   -1.7931    2.2002    0.2150 H   0  0  0  0  0  0  0  0  0  0  0  0
   -0.3666    3.2201   -0.0008 H   0  0  0  0  0  0  0  0  0  0  0  0
   -0.5168    2.2166    1.4449 H   0  0  0  0  0  0  0  0  0  0  0  0
    0.1193    2.2454   -2.4367 H   0  0  0  0  0  0  0  0  0  0  0  0
    1.7221    1.1056    0.9699 H   0  0  0  0  0  0  0  0  0  0  0  0
    2.0058    0.3152   -0.5912 H   0  0  0  0  0  0  0  0  0  0  0  0
    1.9358    2.0776   -0.4894 H   0  0  0  0  0  0  0  0  0  0  0  0
    0.0039   -2.2168   -0.9749 C   0  0  0  0  0  0  0  0  0  0  0  0
    0.0039   -2.2168    0.3486 C   0  0  0  0  0  0  0  0  0  0  0  0
    0.0039   -0.9954    1.2206 C   0  0  0  0  0  3  0  0  0  0  0  0
    1.2632   -0.9550    2.0883 C   0  0  0  0  0  0  0  0  0  0  0  0
   -1.2554   -0.9550    2.0883 C   0  0  0  0  0  0  0  0  0  0  0  0
    0.0039   -3.1385   -1.5432 H   0  0  0  0  0  0  0  0  0  0  0  0
    0.0039   -1.2903   -1.5395 H   0  0  0  0  0  0  0  0  0  0  0  0
    0.0039   -3.1681    0.8791 H   0  0  0  0  0  0  0  0  0  0  0  0
    0.0039    0.0610    0.4402 H   0  0  0  0  0  0  0  0  0  0  0  0
    2.1648   -0.9491    1.4741 H   0  0  0  0  0  0  0  0  0  0  0  0
    1.3078   -1.8288    2.7440 H   0  0  0  0  0  0  0  0  0  0  0  0
    1.2708   -0.0638    2.7192 H   0  0  0  0  0  0  0  0  0  0  0  0
   -1.3000   -1.8288    2.7440 H   0  0  0  0  0  0  0  0  0  0  0  0
   -2.1569   -0.9491    1.4741 H   0  0  0  0  0  0  0  0  0  0  0  0
   -1.2629   -0.0638    2.7192 H   0  0  0  0  0  0  0  0  0  0  0  0
  1  2  1  0
  1  5  1  0
  1  6  1  0
  1  7  1  0
  2  4  1  0
  2  3  1  0
  2 20  1  0
  3  8  1  0
  4  9  1  0
  4 10  1  0
  4 11  1  0
 12 13  2  3
 12 17  1  0
 12 18  1  0
 13 14  1  0
 13 19  1  0
 14 15  1  0
 14 16  1  0
 15 21  1  0
 15 22  1  0
 15 23  1  0
 16 24  1  0
 16 25  1  0
 16 26  1  0
M  RAD  1  14   2
M  END
>  <reaction>  (7) 
rxn_1105

>  <mol_properties>  (7) 
{"1": {"label": "*3", "atom_type": "Cs"}, "2": {"label": "*4", "atom_type": "S2s"}, "12": {"label": "*0", "atom_type": "Cd"}, "13": {"label": "*1", "atom_type": "Cs"}, "19": {"label": "*2", "atom_type": "H0"}}

>  <type>  (7) 
unop_3

>  <geom_source>  (7) 
Heuristics

$$$$

     RDKit          3D

 26 24  0  0  0  0  0  0  0  0999 V2000
    1.1540    0.9740   -1.7247 C   0  0  0  0  0  0  0  0  0  0  0  0
   -0.0933    1.0052   -0.8523 C   0  0  0  0  0  0  0  0  0  0  0  0
    0.2585    1.6483    0.8207 S   0  0  0  0  0  0  0  0  0  0  0  0
   -1.2416    1.7498   -1.5191 C   0  0  0  0  0  0  0  0  0  0  0  0
    1.9578    0.4144   -1.2476 H   0  0  0  0  0  0  0  0  0  0  0  0
    1.5133    1.9881   -1.9165 H   0  0  0  0  0  0  0  0  0  0  0  0
    0.9304    0.5104   -2.6889 H   0  0  0  0  0  0  0  0  0  0  0  0
    0.6243    2.8797    0.4360 H   0  0  0  0  0  0  0  0  0  0  0  0
   -1.4819    1.2916   -2.4819 H   0  0  0  0  0  0  0  0  0  0  0  0
   -2.1355    1.7398   -0.8964 H   0  0  0  0  0  0  0  0  0  0  0  0
   -0.9675    2.7914   -1.7036 H   0  0  0  0  0  0  0  0  0  0  0  0
   -0.0933   -2.3276   -1.4881 C   0  0  0  0  0  0  0  0  0  0  0  0
   -0.0933   -2.3276   -0.1646 C   0  0  0  0  0  0  0  0  0  0  0  0
   -0.0933   -1.1062    0.7074 C   0  0  0  0  0  3  0  0  0  0  0  0
    1.1660   -1.0657    1.5751 C   0  0  0  0  0  0  0  0  0  0  0  0
   -1.3526   -1.0657    1.5751 C   0  0  0  0  0  0  0  0  0  0  0  0
   -0.0933   -3.2493   -2.0564 H   0  0  0  0  0  0  0  0  0  0  0  0
   -0.0933   -1.4010   -2.0527 H   0  0  0  0  0  0  0  0  0  0  0  0
   -0.0933   -3.2789    0.3659 H   0  0  0  0  0  0  0  0  0  0  0  0
   -0.0933   -0.0498   -0.0730 H   0  0  0  0  0  0  0  0  0  0  0  0
    2.0676   -1.0598    0.9609 H   0  0  0  0  0  0  0  0  0  0  0  0
    1.2106   -1.9396    2.2309 H   0  0  0  0  0  0  0  0  0  0  0  0
    1.1735   -0.1745    2.2061 H   0  0  0  0  0  0  0  0  0  0  0  0
   -1.3972   -1.9396    2.2309 H   0  0  0  0  0  0  0  0  0  0  0  0
   -2.2542   -1.0598    0.9609 H   0  0  0  0  0  0  0  0  0  0  0  0
   -1.3601   -0.1745    2.2061 H   0  0  0  0  0  0  0  0  0  0  0  0
  1  2  1  0
  1  5  1  0
  1  6  1  0
  1  7  1  0
  2  4  1  0
  2  3  1  0
  2 20  1  0
  3  8  1  0
  4  9  1  0
  4 10  1  0
  4 11  1  0
 12 13  2  3
 12 17  1  0
 12 18  1  0
 13 14  1  0
 13 19  1  0
 14 15  1  0
 14 16  1  0
 15 21  1  0
 15 22  1  0
 15 23  1  0
 16 24  1  0
 16 25  1  0
 16 26  1  0
M  RAD  1  14   2
M  END
>  <reaction>  (8) 
rxn_1105

>  <mol_properties>  (8) 
{"1": {"label": "*3", "atom_type": "Cs"}, "2": {"label": "*4", "atom_type": "S2s"}, "12": {"label": "*0", "atom_type": "Cd"}, "13": {"label": "*1", "atom_type": "Cs"}, "19": {"label": "*2", "atom_type": "H0"}}

>  <type>  (8) 
unop_4

>  <geom_source>  (8) 
Heuristics

$$$$

     RDKit          3D

 26 24  0  0  0  0  0  0  0  0999 V2000
    0.2226    2.3970    0.4432 C   0  0  0  0  0  0  0  0  0  0  0  0
    0.2226    1.1444   -0.4220 C   0  0  0  0  0  0  0  0  0  0  0  0
   -1.3422    0.9507   -1.3443 S   0  0  0  0  0  0  0  0  0  0  0  0
    1.4361    1.0803   -1.3391 C   0  0  0  0  0  0  0  0  0  0  0  0
   -0.6358    2.4158    1.1138 H   0  0  0  0  0  0  0  0  0  0  0  0
    0.1865    3.2938   -0.1801 H   0  0  0  0  0  0  0  0  0  0  0  0
    1.1352    2.4431    1.0431 H   0  0  0  0  0  0  0  0  0  0  0  0
   -1.2211    2.0630   -2.0836 H   0  0  0  0  0  0  0  0  0  0  0  0
    2.3571    1.1172   -0.7517 H   0  0  0  0  0  0  0  0  0  0  0  0
    1.4377    0.1660   -1.9315 H   0  0  0  0  0  0  0  0  0  0  0  0
    1.4432    1.9302   -2.0258 H   0  0  0  0  0  0  0  0  0  0  0  0
    0.2226   -2.1883   -1.0578 C   0  0  0  0  0  0  0  0  0  0  0  0
    0.2226   -2.1883    0.2657 C   0  0  0  0  0  0  0  0  0  0  0  0
    0.2226   -0.9669    1.1377 C   0  0  0  0  0  3  0  0  0  0  0  0
    1.4819   -0.9265    2.0054 C   0  0  0  0  0  0  0  0  0  0  0  0
   -1.0367   -0.9265    2.0054 C   0  0  0  0  0  0  0  0  0  0  0  0
    0.2226   -3.1100   -1.6261 H   0  0  0  0  0  0  0  0  0  0  0  0
    0.2226   -1.2617   -1.6224 H   0  0  0  0  0  0  0  0  0  0  0  0
    0.2226   -3.1396    0.7962 H   0  0  0  0  0  0  0  0  0  0  0  0
    0.2226    0.0895    0.3573 H   0  0  0  0  0  0  0  0  0  0  0  0
    2.3834   -0.9206    1.3912 H   0  0  0  0  0  0  0  0  0  0  0  0
    1.5265   -1.8003    2.6612 H   0  0  0  0  0  0  0  0  0  0  0  0
    1.4894   -0.0353    2.6364 H   0  0  0  0  0  0  0  0  0  0  0  0
   -1.0813   -1.8003    2.6612 H   0  0  0  0  0  0  0  0  0  0  0  0
   -1.9383   -0.9206    1.3912 H   0  0  0  0  0  0  0  0  0  0  0  0
   -1.0443   -0.0353    2.6364 H   0  0  0  0  0  0  0  0  0  0  0  0
  1  2  1  0
  1  5  1  0
  1  6  1  0
  1  7  1  0
  2  4  1  0
  2  3  1  0
  2 20  1  0
  3  8  1  0
  4  9  1  0
  4 10  1  0
  4 11  1  0
 12 13  2  3
 12 17  1  0
 12 18  1  0
 13 14  1  0
 13 19  1  0
 14 15  1  0
 14 16  1  0
 15 21  1  0
 15 22  1  0
 15 23  1  0
 16 24  1  0
 16 25  1  0
 16 26  1  0
M  RAD  1  14   2
M  END
>  <reaction>  (9) 
rxn_1105

>  <mol_properties>  (9) 
{"1": {"label": "*3", "atom_type": "Cs"}, "2": {"label": "*4", "atom_type": "S2s"}, "12": {"label": "*0", "atom_type": "Cd"}, "13": {"label": "*1", "atom_type": "Cs"}, "19": {"label": "*2", "atom_type": "H0"}}

>  <type>  (9) 
unop_5

>  <geom_source>  (9) 
Heuristics

$$$$

     RDKit          3D

 26 24  0  0  0  0  0  0  0  0999 V2000
    1.5000    1.4242   -1.1785 C   0  0  0  0  0  0  0  0  0  0  0  0
    0.0598    1.0274   -0.8854 C   0  0  0  0  0  0  0  0  0  0  0  0
   -0.4324    1.4523    0.8215 S   0  0  0  0  0  0  0  0  0  0  0  0
   -0.9111    1.5889   -1.9148 C   0  0  0  0  0  0  0  0  0  0  0  0
    2.1863    0.9925   -0.4508 H   0  0  0  0  0  0  0  0  0  0  0  0
    1.6122    2.5107   -1.1486 H   0  0  0  0  0  0  0  0  0  0  0  0
    1.7908    1.0853   -2.1762 H   0  0  0  0  0  0  0  0  0  0  0  0
   -0.3017    2.7805    0.6909 H   0  0  0  0  0  0  0  0  0  0  0  0
   -0.6372    1.2512   -2.9176 H   0  0  0  0  0  0  0  0  0  0  0  0
   -1.9335    1.2740   -1.7088 H   0  0  0  0  0  0  0  0  0  0  0  0
   -0.8847    2.6814   -1.9110 H   0  0  0  0  0  0  0  0  0  0  0  0
    0.0598   -2.3053   -1.5212 C   0  0  0  0  0  0  0  0  0  0  0  0
    0.0598   -2.3053   -0.1977 C   0  0  0  0  0  0  0  0  0  0  0  0
    0.0598   -1.0839    0.6744 C   0  0  0  0  0  3  0  0  0  0  0  0
    1.3191   -1.0435    1.5420 C   0  0  0  0  0  0  0  0  0  0  0  0
   -1.1995   -1.0435    1.5420 C   0  0  0  0  0  0  0  0  0  0  0  0
    0.0598   -3.2270   -2.0894 H   0  0  0  0  0  0  0  0  0  0  0  0
    0.0598   -1.3788   -2.0857 H   0  0  0  0  0  0  0  0  0  0  0  0
    0.0598   -3.2566    0.3329 H   0  0  0  0  0  0  0  0  0  0  0  0
    0.0598   -0.0275   -0.1061 H   0  0  0  0  0  0  0  0  0  0  0  0
    2.2207   -1.0376    0.9279 H   0  0  0  0  0  0  0  0  0  0  0  0
    1.3637   -1.9173    2.1978 H   0  0  0  0  0  0  0  0  0  0  0  0
    1.3267   -0.1523    2.1730 H   0  0  0  0  0  0  0  0  0  0  0  0
   -1.2441   -1.9173    2.1978 H   0  0  0  0  0  0  0  0  0  0  0  0
   -2.1010   -1.0376    0.9279 H   0  0  0  0  0  0  0  0  0  0  0  0
   -1.2070   -0.1523    2.1730 H   0  0  0  0  0  0  0  0  0  0  0  0
  1  2  1  0
  1  5  1  0
  1  6  1  0
  1  7  1  0
  2  4  1  0
  2  3  1  0
  2 20  1  0
  3  8  1  0
  4  9  1  0
  4 10  1  0
  4 11  1  0
 12 13  2  3
 12 17  1  0
 12 18  1  0
 13 14  1  0
 13 19  1  0
 14 15  1  0
 14 16  1  0
 15 21  1  0
 15 22  1  0
 15 23  1  0
 16 24  1  0
 16 25  1  0
 16 26  1  0
M  RAD  1  14   2
M  END
>  <reaction>  (10) 
rxn_1105

>  <mol_properties>  (10) 
{"1": {"label": "*3", "atom_type": "Cs"}, "2": {"label": "*4", "atom_type": "S2s"}, "12": {"label": "*0", "atom_type": "Cd"}, "13": {"label": "*1", "atom_type": "Cs"}, "19": {"label": "*2", "atom_type": "H0"}}

>  <type>  (10) 
unop_6

>  <geom_source>  (10) 
Heuristics

$$$$

     RDKit          3D

 26 24  0  0  0  0  0  0  0  0999 V2000
    1.4594    1.8950   -0.5403 C   0  0  0  0  0  0  0  0  0  0  0  0
    0.2121    1.0703   -0.8264 C   0  0  0  0  0  0  0  0  0  0  0  0
   -1.0282    1.2221    0.5060 S   0  0  0  0  0  0  0  0  0  0  0  0
   -0.3800    1.3808   -2.1940 C   0  0  0  0  0  0  0  0  0  0  0  0
    1.8882    1.6424    0.4288 H   0  0  0  0  0  0  0  0  0  0  0  0
    1.2221    2.9617   -0.5393 H   0  0  0  0  0  0  0  0  0  0  0  0
    2.2138    1.7209   -1.3118 H   0  0  0  0  0  0  0  0  0  0  0  0
   -1.2565    2.5345    0.3519 H   0  0  0  0  0  0  0  0  0  0  0  0
    0.3615    1.2031   -2.9771 H   0  0  0  0  0  0  0  0  0  0  0  0
   -1.2548    0.7639   -2.3969 H   0  0  0  0  0  0  0  0  0  0  0  0
   -0.6828    2.4292   -2.2519 H   0  0  0  0  0  0  0  0  0  0  0  0
    0.2121   -2.2624   -1.4621 C   0  0  0  0  0  0  0  0  0  0  0  0
    0.2121   -2.2624   -0.1386 C   0  0  0  0  0  0  0  0  0  0  0  0
    0.2121   -1.0410    0.7334 C   0  0  0  0  0  3  0  0  0  0  0  0
    1.4714   -1.0006    1.6011 C   0  0  0  0  0  0  0  0  0  0  0  0
   -1.0472   -1.0006    1.6011 C   0  0  0  0  0  0  0  0  0  0  0  0
    0.2121   -3.1841   -2.0304 H   0  0  0  0  0  0  0  0  0  0  0  0
    0.2121   -1.3358   -2.0267 H   0  0  0  0  0  0  0  0  0  0  0  0
    0.2121   -3.2137    0.3919 H   0  0  0  0  0  0  0  0  0  0  0  0
    0.2121    0.0154   -0.0470 H   0  0  0  0  0  0  0  0  0  0  0  0
    2.3730   -0.9947    0.9869 H   0  0  0  0  0  0  0  0  0  0  0  0
    1.5160   -1.8744    2.2569 H   0  0  0  0  0  0  0  0  0  0  0  0
    1.4789   -0.1094    2.2321 H   0  0  0  0  0  0  0  0  0  0  0  0
   -1.0918   -1.8744    2.2569 H   0  0  0  0  0  0  0  0  0  0  0  0
   -1.9487   -0.9947    0.9869 H   0  0  0  0  0  0  0  0  0  0  0  0
   -1.0547   -0.1094    2.2321 H   0  0  0  0  0  0  0  0  0  0  0  0
  1  2  1  0
  1  5  1  0
  1  6  1  0
  1  7  1  0
  2  4  1  0
  2  3  1  0
  2 20  1  0
  3  8  1  0
  4  9  1  0
  4 10  1  0
  4 11  1  0
 12 13  2  3
 12 17  1  0
 12 18  1  0
 13 14  1  0
 13 19  1  0
 14 15  1  0
 14 16  1  0
 15 21  1  0
 15 22  1  0
 15 23  1  0
 16 24  1  0
 16 25  1  0
 16 26  1  0
M  RAD  1  14   2
M  END
>  <reaction>  (11) 
rxn_1105

>  <mol_properties>  (11) 
{"1": {"label": "*3", "atom_type": "Cs"}, "2": {"label": "*4", "atom_type": "S2s"}, "12": {"label": "*0", "atom_type": "Cd"}, "13": {"label": "*1", "atom_type": "Cs"}, "19": {"label": "*2", "atom_type": "H0"}}

>  <type>  (11) 
unop_7

>  <geom_source>  (11) 
Heuristics

$$$$

     RDKit          3D

 26 24  0  0  0  0  0  0  0  0999 V2000
   -1.5905    1.4176   -0.7427 C   0  0  0  0  0  0  0  0  0  0  0  0
   -0.1503    1.0208   -0.4496 C   0  0  0  0  0  0  0  0  0  0  0  0
    0.9782    1.4921   -1.8064 S   0  0  0  0  0  0  0  0  0  0  0  0
    0.3271    1.5464    0.8970 C   0  0  0  0  0  0  0  0  0  0  0  0
   -1.9278    1.0114   -1.6957 H   0  0  0  0  0  0  0  0  0  0  0  0
   -1.6881    2.5052   -0.7833 H   0  0  0  0  0  0  0  0  0  0  0  0
   -2.2524    1.0517    0.0464 H   0  0  0  0  0  0  0  0  0  0  0  0
    0.7983    2.8167   -1.7001 H   0  0  0  0  0  0  0  0  0  0  0  0
   -0.3214    1.1813    1.6977 H   0  0  0  0  0  0  0  0  0  0  0  0
    1.3488    1.2314    1.1061 H   0  0  0  0  0  0  0  0  0  0  0  0
    0.2978    2.6386    0.9147 H   0  0  0  0  0  0  0  0  0  0  0  0
   -0.1503   -2.3119   -1.0854 C   0  0  0  0  0  0  0  0  0  0  0  0
   -0.1503   -2.3119    0.2381 C   0  0  0  0  0  0  0  0  0  0  0  0
   -0.1503   -1.0905    1.1102 C   0  0  0  0  0  3  0  0  0  0  0  0
    1.1090   -1.0501    1.9778 C   0  0  0  0  0  0  0  0  0  0  0  0
   -1.4096   -1.0501    1.9778 C   0  0  0  0  0  0  0  0  0  0  0  0
   -0.1503   -3.2336   -1.6536 H   0  0  0  0  0  0  0  0  0  0  0  0
   -0.1503   -1.3854   -1.6499 H   0  0  0  0  0  0  0  0  0  0  0  0
   -0.1503   -3.2632    0.7687 H   0  0  0  0  0  0  0  0  0  0  0  0
   -0.1503   -0.0341    0.3297 H   0  0  0  0  0  0  0  0  0  0  0  0
    2.0105   -1.0442    1.3637 H   0  0  0  0  0  0  0  0  0  0  0  0
    1.1536   -1.9239    2.6336 H   0  0  0  0  0  0  0  0  0  0  0  0
    1.1165   -0.1589    2.6088 H   0  0  0  0  0  0  0  0  0  0  0  0
   -1.4542   -1.9239    2.6336 H   0  0  0  0  0  0  0  0  0  0  0  0
   -2.3112   -1.0442    1.3637 H   0  0  0  0  0  0  0  0  0  0  0  0
   -1.4172   -0.1589    2.6088 H   0  0  0  0  0  0  0  0  0  0  0  0
  1  2  1  0
  1  5  1  0
  1  6  1  0
  1  7  1  0
  2  4  1  0
  2  3  1  0
  2 20  1  0
  3  8  1  0
  4  9  1  0
  4 10  1  0
  4 11  1  0
 12 13  2  3
 12 17  1  0
 12 18  1  0
 13 14  1  0
 13 19  1  0
 14 15  1  0
 14 16  1  0
 15 21  1  0
 15 22  1  0
 15 23  1  0
 16 24  1  0
 16 25  1  0
 16 26  1  0
M  RAD  1  14   2
M  END
>  <reaction>  (12) 
rxn_1105

>  <mol_properties>  (12) 
{"1": {"label": "*3", "atom_type": "Cs"}, "2": {"label": "*4", "atom_type": "S2s"}, "12": {"label": "*0", "atom_type": "Cd"}, "13": {"label": "*1", "atom_type": "Cs"}, "19": {"label": "*2", "atom_type": "H0"}}

>  <type>  (12) 
unop_8

>  <geom_source>  (12) 
Heuristics

$$$$

     RDKit          3D

 26 24  0  0  0  0  0  0  0  0999 V2000
    0.5214    0.6557   -2.0431 C   0  0  0  0  0  0  0  0  0  0  0  0
   -0.1987    1.0001   -0.7468 C   0  0  0  0  0  0  0  0  0  0  0  0
    0.9200    1.7750    0.4716 S   0  0  0  0  0  0  0  0  0  0  0  0
   -1.4463    1.8382   -0.9884 C   0  0  0  0  0  0  0  0  0  0  0  0
    1.3957    0.0326   -1.8577 H   0  0  0  0  0  0  0  0  0  0  0  0
    0.8534    1.5647   -2.5506 H   0  0  0  0  0  0  0  0  0  0  0  0
   -0.1508    0.1215   -2.7195 H   0  0  0  0  0  0  0  0  0  0  0  0
    1.1929    2.8722   -0.2495 H   0  0  0  0  0  0  0  0  0  0  0  0
   -2.1323    1.3123   -1.6575 H   0  0  0  0  0  0  0  0  0  0  0  0
   -1.9666    2.0532   -0.0557 H   0  0  0  0  0  0  0  0  0  0  0  0
   -1.1844    2.7894   -1.4584 H   0  0  0  0  0  0  0  0  0  0  0  0
   -0.1987   -2.3327   -1.3825 C   0  0  0  0  0  0  0  0  0  0  0  0
   -0.1987   -2.3327   -0.0590 C   0  0  0  0  0  0  0  0  0  0  0  0
   -0.1987   -1.1113    0.8130 C   0  0  0  0  0  3  0  0  0  0  0  0
    1.0606   -1.0708    1.6807 C   0  0  0  0  0  0  0  0  0  0  0  0
   -1.4580   -1.0708    1.6807 C   0  0  0  0  0  0  0  0  0  0  0  0
   -0.1987   -3.2544   -1.9508 H   0  0  0  0  0  0  0  0  0  0  0  0
   -0.1987   -1.4061   -1.9471 H   0  0  0  0  0  0  0  0  0  0  0  0
   -0.1987   -3.2840    0.4715 H   0  0  0  0  0  0  0  0  0  0  0  0
   -0.1987   -0.0549    0.0326 H   0  0  0  0  0  0  0  0  0  0  0  0
    1.9622   -1.0649    1.0665 H   0  0  0  0  0  0  0  0  0  0  0  0
    1.1052   -1.9447    2.3365 H   0  0  0  0  0  0  0  0  0  0  0  0
    1.0681   -0.1796    2.3117 H   0  0  0  0  0  0  0  0  0  0  0  0
   -1.5026   -1.9447    2.3365 H   0  0  0  0  0  0  0  0  0  0  0  0
   -2.3596   -1.0649    1.0665 H   0  0  0  0  0  0  0  0  0  0  0  0
   -1.4655   -0.1796    2.3117 H   0  0  0  0  0  0  0  0  0  0  0  0
  1  2  1  0
  1  5  1  0
  1  6  1  0
  1  7  1  0
  2  4  1  0
  2  3  1  0
  2 20  1  0
  3  8  1  0
  4  9  1  0
  4 10  1  0
  4 11  1  0
 12 13  2  3
 12 17  1  0
 12 18  1  0
 13 14  1  0
 13 19  1  0
 14 15  1  0
 14 16  1  0
 15 21  1  0
 15 22  1  0
 15 23  1  0
 16 24  1  0
 16 25  1  0
 16 26  1  0
M  RAD  1  14   2
M  END
>  <reaction>  (13) 
rxn_1105

>  <mol_properties>  (13) 
{"1": {"label": "*3", "atom_type": "Cs"}, "2": {"label": "*4", "atom_type": "S2s"}, "12": {"label": "*0", "atom_type": "Cd"}, "13": {"label": "*1", "atom_type": "Cs"}, "19": {"label": "*2", "atom_type": "H0"}}

>  <type>  (13) 
unop_9

>  <geom_source>  (13) 
Heuristics

$$$$

     RDKit          3D

 26 24  0  0  0  0  0  0  0  0999 V2000
   -1.4090    0.9685   -1.3598 C   0  0  0  0  0  0  0  0  0  0  0  0
   -0.1617    0.9996   -0.4875 C   0  0  0  0  0  0  0  0  0  0  0  0
    1.2792    1.6816   -1.3792 S   0  0  0  0  0  0  0  0  0  0  0  0
   -0.4037    1.7141    0.8348 C   0  0  0  0  0  0  0  0  0  0  0  0
   -1.2293    0.4301   -2.2898 H   0  0  0  0  0  0  0  0  0  0  0  0
   -1.7270    1.9834   -1.6107 H   0  0  0  0  0  0  0  0  0  0  0  0
   -2.2310    0.4822   -0.8283 H   0  0  0  0  0  0  0  0  0  0  0  0
    0.7748    2.9100   -1.5655 H   0  0  0  0  0  0  0  0  0  0  0  0
   -1.2188    1.2331    1.3817 H   0  0  0  0  0  0  0  0  0  0  0  0
    0.4883    1.7042    1.4601 H   0  0  0  0  0  0  0  0  0  0  0  0
   -0.6860    2.7556    0.6620 H   0  0  0  0  0  0  0  0  0  0  0  0
   -0.1617   -2.3331   -1.1233 C   0  0  0  0  0  0  0  0  0  0  0  0
   -0.1617   -2.3331    0.2002 C   0  0  0  0  0  0  0  0  0  0  0  0
   -0.1617   -1.1117    1.0723 C   0  0  0  0  0  3  0  0  0  0  0  0
    1.0976   -1.0713    1.9399 C   0  0  0  0  0  0  0  0  0  0  0  0
   -1.4210   -1.0713    1.9399 C   0  0  0  0  0  0  0  0  0  0  0  0
   -0.1617   -3.2548   -1.6915 H   0  0  0  0  0  0  0  0  0  0  0  0
   -0.1617   -1.4065   -1.6878 H   0  0  0  0  0  0  0  0  0  0  0  0
   -0.1617   -3.2844    0.7308 H   0  0  0  0  0  0  0  0  0  0  0  0
   -0.1617   -0.0553    0.2918 H   0  0  0  0  0  0  0  0  0  0  0  0
    1.9991   -1.0654    1.3258 H   0  0  0  0  0  0  0  0  0  0  0  0
    1.1422   -1.9451    2.5957 H   0  0  0  0  0  0  0  0  0  0  0  0
    1.1051   -0.1801    2.5709 H   0  0  0  0  0  0  0  0  0  0  0  0
   -1.4656   -1.9451    2.5957 H   0  0  0  0  0  0  0  0  0  0  0  0
   -2.3226   -1.0654    1.3258 H   0  0  0  0  0  0  0  0  0  0  0  0
   -1.4285   -0.1801    2.5709 H   0  0  0  0  0  0  0  0  0  0  0  0
  1  2  1  0
  1  5  1  0
  1  6  1  0
  1  7  1  0
  2  4  1  0
  2  3  1  0
  2 20  1  0
  3  8  1  0
  4  9  1  0
  4 10  1  0
  4 11  1  0
 12 13  2  3
 12 17  1  0
 12 18  1  0
 13 14  1  0
 13 19  1  0
 14 15  1  0
 14 16  1  0
 15 21  1  0
 15 22  1  0
 15 23  1  0
 16 24  1  0
 16 25  1  0
 16 26  1  0
M  RAD  1  14   2
M  END
>  <reaction>  (14) 
rxn_1105

>  <mol_properties>  (14) 
{"1": {"label": "*3", "atom_type": "Cs"}, "2": {"label": "*4", "atom_type": "S2s"}, "12": {"label": "*0", "atom_type": "Cd"}, "13": {"label": "*1", "atom_type": "Cs"}, "19": {"label": "*2", "atom_type": "H0"}}

>  <type>  (14) 
unop_10

>  <geom_source>  (14) 
Heuristics

$$$$

     RDKit          3D

 26 24  0  0  0  0  0  0  0  0999 V2000
    1.0248    2.2586    0.0501 C   0  0  0  0  0  0  0  0  0  0  0  0
    0.3047    1.1207   -0.6600 C   0  0  0  0  0  0  0  0  0  0  0  0
   -1.4562    1.0236   -0.1841 S   0  0  0  0  0  0  0  0  0  0  0  0
    0.4841    1.1819   -2.1705 C   0  0  0  0  0  0  0  0  0  0  0  0
    0.9115    2.1864    1.1312 H   0  0  0  0  0  0  0  0  0  0  0  0
    0.6253    3.2242   -0.2697 H   0  0  0  0  0  0  0  0  0  0  0  0
    2.0908    2.2413   -0.1910 H   0  0  0  0  0  0  0  0  0  0  0  0
   -1.8125    2.2188   -0.6769 H   0  0  0  0  0  0  0  0  0  0  0  0
    1.5463    1.1571   -2.4271 H   0  0  0  0  0  0  0  0  0  0  0  0
   -0.0124    0.3466   -2.6630 H   0  0  0  0  0  0  0  0  0  0  0  0
    0.0654    2.1091   -2.5692 H   0  0  0  0  0  0  0  0  0  0  0  0
    0.3047   -2.2120   -1.2957 C   0  0  0  0  0  0  0  0  0  0  0  0
    0.3047   -2.2120    0.0278 C   0  0  0  0  0  0  0  0  0  0  0  0
    0.3047   -0.9906    0.8998 C   0  0  0  0  0  3  0  0  0  0  0  0
    1.5640   -0.9502    1.7675 C   0  0  0  0  0  0  0  0  0  0  0  0
   -0.9546   -0.9502    1.7675 C   0  0  0  0  0  0  0  0  0  0  0  0
    0.3047   -3.1337   -1.8640 H   0  0  0  0  0  0  0  0  0  0  0  0
    0.3047   -1.2854   -1.8603 H   0  0  0  0  0  0  0  0  0  0  0  0
    0.3047   -3.1633    0.5583 H   0  0  0  0  0  0  0  0  0  0  0  0
    0.3047    0.0658    0.1194 H   0  0  0  0  0  0  0  0  0  0  0  0
    2.4656   -0.9443    1.1533 H   0  0  0  0  0  0  0  0  0  0  0  0
    1.6086   -1.8240    2.4233 H   0  0  0  0  0  0  0  0  0  0  0  0
    1.5715   -0.0590    2.3985 H   0  0  0  0  0  0  0  0  0  0  0  0
   -0.9992   -1.8240    2.4233 H   0  0  0  0  0  0  0  0  0  0  0  0
   -1.8562   -0.9443    1.1533 H   0  0  0  0  0  0  0  0  0  0  0  0
   -0.9621   -0.0590    2.3985 H   0  0  0  0  0  0  0  0  0  0  0  0
  1  2  1  0
  1  5  1  0
  1  6  1  0
  1  7  1  0
  2  4  1  0
  2  3  1  0
  2 20  1  0
  3  8  1  0
  4  9  1  0
  4 10  1  0
  4 11  1  0
 12 13  2  3
 12 17  1  0
 12 18  1  0
 13 14  1  0
 13 19  1  0
 14 15  1  0
 14 16  1  0
 15 21  1  0
 15 22  1  0
 15 23  1  0
 16 24  1  0
 16 25  1  0
 16 26  1  0
M  RAD  1  14   2
M  END
>  <reaction>  (15) 
rxn_1105

>  <mol_properties>  (15) 
{"1": {"label": "*3", "atom_type": "Cs"}, "2": {"label": "*4", "atom_type": "S2s"}, "12": {"label": "*0", "atom_type": "Cd"}, "13": {"label": "*1", "atom_type": "Cs"}, "19": {"label": "*2", "atom_type": "H0"}}

>  <type>  (15) 
unop_11

>  <geom_source>  (15) 
Heuristics

$$$$

     RDKit          3D

 26 24  0  0  0  0  0  0  0  0999 V2000
   -0.2226    0.5406   -2.0696 C   0  0  0  0  0  0  0  0  0  0  0  0
   -0.2226    0.9996   -0.6181 C   0  0  0  0  0  0  0  0  0  0  0  0
    1.3422    1.8242   -0.1620 S   0  0  0  0  0  0  0  0  0  0  0  0
   -1.4360    1.8573   -0.2873 C   0  0  0  0  0  0  0  0  0  0  0  0
    0.6358   -0.0949   -2.2847 H   0  0  0  0  0  0  0  0  0  0  0  0
   -0.1865    1.3999   -2.7437 H   0  0  0  0  0  0  0  0  0  0  0  0
   -1.1352   -0.0192   -2.2899 H   0  0  0  0  0  0  0  0  0  0  0  0
    1.2211    2.8577   -1.0079 H   0  0  0  0  0  0  0  0  0  0  0  0
   -2.3571    1.3067   -0.4952 H   0  0  0  0  0  0  0  0  0  0  0  0
   -1.4377    2.1549    0.7606 H   0  0  0  0  0  0  0  0  0  0  0  0
   -1.4432    2.7635   -0.8980 H   0  0  0  0  0  0  0  0  0  0  0  0
   -0.2226   -2.3331   -1.2539 C   0  0  0  0  0  0  0  0  0  0  0  0
   -0.2226   -2.3331    0.0696 C   0  0  0  0  0  0  0  0  0  0  0  0
   -0.2226   -1.1117    0.9417 C   0  0  0  0  0  3  0  0  0  0  0  0
    1.0367   -1.0713    1.8093 C   0  0  0  0  0  0  0  0  0  0  0  0
   -1.4819   -1.0713    1.8093 C   0  0  0  0  0  0  0  0  0  0  0  0
   -0.2226   -3.2548   -1.8221 H   0  0  0  0  0  0  0  0  0  0  0  0
   -0.2226   -1.4066   -1.8184 H   0  0  0  0  0  0  0  0  0  0  0  0
   -0.2226   -3.2844    0.6002 H   0  0  0  0  0  0  0  0  0  0  0  0
   -0.2226   -0.0554    0.1612 H   0  0  0  0  0  0  0  0  0  0  0  0
    1.9383   -1.0654    1.1952 H   0  0  0  0  0  0  0  0  0  0  0  0
    1.0813   -1.9451    2.4651 H   0  0  0  0  0  0  0  0  0  0  0  0
    1.0443   -0.1801    2.4403 H   0  0  0  0  0  0  0  0  0  0  0  0
   -1.5265   -1.9451    2.4651 H   0  0  0  0  0  0  0  0  0  0  0  0
   -2.3834   -1.0654    1.1952 H   0  0  0  0  0  0  0  0  0  0  0  0
   -1.4894   -0.1801    2.4403 H   0  0  0  0  0  0  0  0  0  0  0  0
  1  2  1  0
  1  5  1  0
  1  6  1  0
  1  7  1  0
  2  4  1  0
  2  3  1  0
  2 20  1  0
  3  8  1  0
  4  9  1  0
  4 10  1  0
  4 11  1  0
 12 13  2  3
 12 17  1  0
 12 18  1  0
 13 14  1  0
 13 19  1  0
 14 15  1  0
 14 16  1  0
 15 21  1  0
 15 22  1  0
 15 23  1  0
 16 24  1  0
 16 25  1  0
 16 26  1  0
M  RAD  1  14   2
M  END
>  <reaction>  (16) 
rxn_1105

>  <mol_properties>  (16) 
{"1": {"label": "*3", "atom_type": "Cs"}, "2": {"label": "*4", "atom_type": "S2s"}, "12": {"label": "*0", "atom_type": "Cd"}, "13": {"label": "*1", "atom_type": "Cs"}, "19": {"label": "*2", "atom_type": "H0"}}

>  <type>  (16) 
unop_12

>  <geom_source>  (16) 
Heuristics

$$$$

     RDKit          3D

 26 24  0  0  0  0  0  0  0  0999 V2000
    1.8350   -1.7447    0.6788 S   0  0  0  0  0  0  0  0  0  0  0  0
    1.4162    0.0100    0.4155 C   0  0  0  0  0  0  0  0  0  0  0  0
    2.1678    0.5520   -0.7994 C   0  0  0  0  0  0  0  0  0  0  0  0
    1.7533    0.8126    1.6700 C   0  0  0  0  0  0  0  0  0  0  0  0
   -0.9761   -1.8166   -0.7009 C   0  0  0  0  0  0  0  0  0  0  0  0
   -1.9864   -0.3696    1.1058 C   0  0  0  0  0  0  0  0  0  0  0  0
   -1.0888   -0.4011   -0.1330 C   0  0  0  0  0  3  0  0  0  0  0  0
   -1.5713    0.5697   -1.1782 C   0  0  0  0  0  0  0  0  0  0  0  0
   -1.3469    1.8794   -1.0522 C   0  0  0  0  0  0  0  0  0  0  0  0
    0.1091    0.1052    0.1894 H   0  0  0  0  0  0  0  0  0  0  0  0
    1.9008    1.6166   -0.9688 H   0  0  0  0  0  0  0  0  0  0  0  0
    1.8865   -0.0242   -1.7058 H   0  0  0  0  0  0  0  0  0  0  0  0
    3.2657    0.4726   -0.6478 H   0  0  0  0  0  0  0  0  0  0  0  0
    2.8398    0.7503    1.8949 H   0  0  0  0  0  0  0  0  0  0  0  0
    1.4723    1.8776    1.5280 H   0  0  0  0  0  0  0  0  0  0  0  0
    1.1825    0.4146    2.5353 H   0  0  0  0  0  0  0  0  0  0  0  0
   -0.2930   -1.8184   -1.5766 H   0  0  0  0  0  0  0  0  0  0  0  0
   -0.5557   -2.4998    0.0668 H   0  0  0  0  0  0  0  0  0  0  0  0
   -1.9727   -2.1944   -1.0163 H   0  0  0  0  0  0  0  0  0  0  0  0
   -1.5924   -1.0648    1.8769 H   0  0  0  0  0  0  0  0  0  0  0  0
   -3.0246   -0.6679    0.8443 H   0  0  0  0  0  0  0  0  0  0  0  0
   -2.0016    0.6521    1.5405 H   0  0  0  0  0  0  0  0  0  0  0  0
   -2.0861    0.2058   -2.0635 H   0  0  0  0  0  0  0  0  0  0  0  0
   -1.6896    2.5657   -1.8197 H   0  0  0  0  0  0  0  0  0  0  0  0
   -0.8203    2.2750   -0.1887 H   0  0  0  0  0  0  0  0  0  0  0  0
    1.1766   -2.1575   -0.4953 H   0  0  0  0  0  0  0  0  0  0  0  0
  1  2  1  0
  1 26  1  0
  2  3  1  0
  2  4  1  0
  2 10  1  0
  3 11  1  0
  3 12  1  0
  3 13  1  0
  4 14  1  0
  4 15  1  0
  4 16  1  0
  5  7  1  0
  5 17  1  0
  5 18  1  0
  5 19  1  0
  6  7  1  0
  6 20  1  0
  6 21  1  0
  6 22  1  0
  7  8  1  0
  8  9  2  3
  8 23  1  0
  9 24  1  0
  9 25  1  0
M  RAD  1   7   2
M  END
>  <reaction>  (17) 
rxn_1105

>  <mol_properties>  (17) 
{"1": {"label": "*3", "atom_type": "Cs"}, "2": {"label": "*4", "atom_type": "S2s"}, "12": {"label": "*0", "atom_type": "Cd"}, "13": {"label": "*1", "atom_type": "Cs"}, "19": {"label": "*2", "atom_type": "H0"}}

>  <type>  (17) 
unop_13

>  <geom_source>  (17) 
AutoTST

$$$$

     RDKit          3D

 26 24  0  0  0  0  0  0  0  0999 V2000
   -0.9102    0.6524   -1.8262 C   0  0  0  0  0  0  0  0  0  0  0  0
   -0.1901    0.9968   -0.5299 C   0  0  0  0  0  0  0  0  0  0  0  0
    1.4242    1.7948   -0.8359 S   0  0  0  0  0  0  0  0  0  0  0  0
   -1.0619    1.8171    0.4106 C   0  0  0  0  0  0  0  0  0  0  0  0
   -0.2852    0.0420   -2.4771 H   0  0  0  0  0  0  0  0  0  0  0  0
   -1.1792    1.5620   -2.3689 H   0  0  0  0  0  0  0  0  0  0  0  0
   -1.8319    0.1048   -1.6136 H   0  0  0  0  0  0  0  0  0  0  0  0
    0.9400    2.8902   -1.4391 H   0  0  0  0  0  0  0  0  0  0  0  0
   -1.9848    1.2776    0.6388 H   0  0  0  0  0  0  0  0  0  0  0  0
   -0.5445    2.0320    1.3449 H   0  0  0  0  0  0  0  0  0  0  0  0
   -1.3364    2.7681   -0.0525 H   0  0  0  0  0  0  0  0  0  0  0  0
   -0.1901   -2.3359   -1.1657 C   0  0  0  0  0  0  0  0  0  0  0  0
   -0.1901   -2.3359    0.1578 C   0  0  0  0  0  0  0  0  0  0  0  0
   -0.1901   -1.1145    1.0298 C   0  0  0  0  0  3  0  0  0  0  0  0
    1.0692   -1.0741    1.8975 C   0  0  0  0  0  0  0  0  0  0  0  0
   -1.4494   -1.0741    1.8975 C   0  0  0  0  0  0  0  0  0  0  0  0
   -0.1901   -3.2576   -1.7340 H   0  0  0  0  0  0  0  0  0  0  0  0
   -0.1901   -1.4094   -1.7303 H   0  0  0  0  0  0  0  0  0  0  0  0
   -0.1901   -3.2872    0.6884 H   0  0  0  0  0  0  0  0  0  0  0  0
   -0.1901   -0.0582    0.2494 H   0  0  0  0  0  0  0  0  0  0  0  0
    1.9708   -1.0682    1.2833 H   0  0  0  0  0  0  0  0  0  0  0  0
    1.1138   -1.9480    2.5533 H   0  0  0  0  0  0  0  0  0  0  0  0
    1.0768   -0.1829    2.5285 H   0  0  0  0  0  0  0  0  0  0  0  0
   -1.4939   -1.9480    2.5533 H   0  0  0  0  0  0  0  0  0  0  0  0
   -2.3509   -1.0682    1.2833 H   0  0  0  0  0  0  0  0  0  0  0  0
   -1.4569   -0.1829    2.5285 H   0  0  0  0  0  0  0  0  0  0  0  0
  1  2  1  0
  1  5  1  0
  1  6  1  0
  1  7  1  0
  2  4  1  0
  2  3  1  0
  2 20  1  0
  3  8  1  0
  4  9  1  0
  4 10  1  0
  4 11  1  0
 12 13  2  3
 12 17  1  0
 12 18  1  0
 13 14  1  0
 13 19  1  0
 14 15  1  0
 14 16  1  0
 15 21  1  0
 15 22  1  0
 15 23  1  0
 16 24  1  0
 16 25  1  0
 16 26  1  0
M  RAD  1  14   2
M  END
>  <reaction>  (18) 
rxn_1105

>  <mol_properties>  (18) 
{"1": {"label": "*3", "atom_type": "Cs"}, "2": {"label": "*4", "atom_type": "S2s"}, "12": {"label": "*0", "atom_type": "Cd"}, "13": {"label": "*1", "atom_type": "Cs"}, "19": {"label": "*2", "atom_type": "H0"}}

>  <type>  (18) 
unop_14

>  <geom_source>  (18) 
gaussian_log

$$$$
