
     RDKit          3D

 15 14  0  0  0  0  0  0  0  0999 V2000
   -0.6986    1.3249   -0.1641 C   0  0  0  0  0  0  0  0  0  0  0  0
   -0.2590   -0.0344    0.3671 C   0  0  0  0  0  0  0  0  0  0  0  0
   -0.4734   -0.1429    1.8733 C   0  0  0  0  0  0  0  0  0  0  0  0
   -0.9841   -1.1722   -0.3462 C   0  0  0  0  0  0  0  0  0  0  0  0
   -0.7805   -1.1911   -1.7444 O   0  0  0  0  0  0  0  0  0  0  0  0
   -0.1246    2.1306    0.2976 H   0  0  0  0  0  0  0  0  0  0  0  0
   -1.7557    1.4964    0.0581 H   0  0  0  0  0  0  0  0  0  0  0  0
   -0.5709    1.3852   -1.2449 H   0  0  0  0  0  0  0  0  0  0  0  0
    0.8141   -0.1541    0.1667 H   0  0  0  0  0  0  0  0  0  0  0  0
   -1.5346   -0.0466    2.1192 H   0  0  0  0  0  0  0  0  0  0  0  0
    0.0611    0.6480    2.4019 H   0  0  0  0  0  0  0  0  0  0  0  0
   -0.1249   -1.1023    2.2618 H   0  0  0  0  0  0  0  0  0  0  0  0
   -0.6918   -2.1316    0.1011 H   0  0  0  0  0  0  0  0  0  0  0  0
   -2.0629   -1.0627   -0.2056 H   0  0  0  0  0  0  0  0  0  0  0  0
    0.1528   -1.3298   -1.9125 H   0  0  0  0  0  0  0  0  0  0  0  0
  1  2  1  0
  1  6  1  0
  1  7  1  0
  1  8  1  0
  2  3  1  0
  2  4  1  0
  2  9  1  0
  3 10  1  0
  3 11  1  0
  3 12  1  0
  4  5  1  0
  4 13  1  0
  4 14  1  0
  5 15  1  0
M  END
>  <reaction>  (1) 
rxn_417

>  <mol_properties>  (1) 
{"1": {"label": "donator", "atom_type": "Cs"}, "8": {"label": "d_hydrogen", "atom_type": "H0"}}

>  <type>  (1) 
r1h

$$$$

     RDKit          3D

  7  6  0  0  0  0  0  0  0  0999 V2000
   -0.6201    0.0189   -0.0017 C   0  0  0  0  0  0  0  0  0  0  0  0
    0.8589   -0.0553    0.0500 C   0  0  0  0  0  3  0  0  0  0  0  0
   -1.0738   -0.9730   -0.0559 H   0  0  0  0  0  0  0  0  0  0  0  0
   -0.9680    0.5706   -0.8872 H   0  0  0  0  0  0  0  0  0  0  0  0
   -1.0303    0.5369    0.8678 H   0  0  0  0  0  0  0  0  0  0  0  0
    1.3939   -0.8386   -0.4695 H   0  0  0  0  0  0  0  0  0  0  0  0
    1.4394    0.7404    0.4965 H   0  0  0  0  0  0  0  0  0  0  0  0
  1  2  1  0
  1  3  1  0
  1  4  1  0
  1  5  1  0
  2  6  1  0
  2  7  1  0
M  RAD  1   2   2
M  END
>  <reaction>  (2) 
rxn_417

>  <mol_properties>  (2) 
{"1": {"label": "acceptor", "atom_type": "Cs"}}

>  <type>  (2) 
r2

$$$$

     RDKit          3D

  8  7  0  0  0  0  0  0  0  0999 V2000
    0.7610    0.0250    0.0051 C   0  0  0  0  0  0  0  0  0  0  0  0
   -0.7610   -0.0250   -0.0051 C   0  0  0  0  0  0  0  0  0  0  0  0
    1.1904   -0.9237   -0.3217 H   0  0  0  0  0  0  0  0  0  0  0  0
    1.1359    0.8041   -0.6609 H   0  0  0  0  0  0  0  0  0  0  0  0
    1.1435    0.2336    1.0058 H   0  0  0  0  0  0  0  0  0  0  0  0
   -1.1435   -0.2336   -1.0058 H   0  0  0  0  0  0  0  0  0  0  0  0
   -1.1904    0.9237    0.3216 H   0  0  0  0  0  0  0  0  0  0  0  0
   -1.1359   -0.8041    0.6609 H   0  0  0  0  0  0  0  0  0  0  0  0
  1  2  1  0
  1  3  1  0
  1  4  1  0
  1  5  1  0
  2  6  1  0
  2  7  1  0
  2  8  1  0
M  END
>  <reaction>  (3) 
rxn_417

>  <mol_properties>  (3) 
{"0": {"label": "a_hydrogen", "atom_type": "H0"}, "2": {"label": "acceptor", "atom_type": "Cs"}}

>  <type>  (3) 
r2h

$$$$

     RDKit          3D

 22 20  0  0  0  0  0  0  0  0999 V2000
   -0.1634    1.3164   -1.4952 C   0  0  0  0  0  0  0  0  0  0  0  0
   -0.4762    0.7102   -0.1488 C   0  0  0  0  0  0  0  0  0  0  0  0
   -1.0932    1.6759    0.8352 C   0  0  0  0  0  0  0  0  0  0  0  0
   -1.2219   -0.6051   -0.2125 C   0  0  0  0  0  0  0  0  0  0  0  0
   -0.6354   -1.5649   -1.0668 O   0  0  0  0  0  0  0  0  0  0  0  0
    0.4997    2.1778   -1.3902 H   0  0  0  0  0  0  0  0  0  0  0  0
   -1.0805    1.6618   -1.9870 H   0  0  0  0  0  0  0  0  0  0  0  0
    0.3103    0.5906   -2.1562 H   0  0  0  0  0  0  0  0  0  0  0  0
    0.6864    0.4260    0.3831 H   0  0  0  0  0  0  0  0  0  0  0  0
   -2.0761    2.0161    0.4897 H   0  0  0  0  0  0  0  0  0  0  0  0
   -0.4656    2.5608    0.9592 H   0  0  0  0  0  0  0  0  0  0  0  0
   -1.2269    1.2170    1.8176 H   0  0  0  0  0  0  0  0  0  0  0  0
   -1.3393   -1.0061    0.8037 H   0  0  0  0  0  0  0  0  0  0  0  0
   -2.2305   -0.4381   -0.6085 H   0  0  0  0  0  0  0  0  0  0  0  0
    0.2393   -1.7712   -0.7324 H   0  0  0  0  0  0  0  0  0  0  0  0
    2.3896   -1.1769    0.5760 C   0  0  0  0  0  0  0  0  0  0  0  0
    1.9247    0.1962    0.9781 C   0  0  0  0  0  3  0  0  0  0  0  0
    3.3783   -1.4095    0.9843 H   0  0  0  0  0  0  0  0  0  0  0  0
    2.4685   -1.2689   -0.5107 H   0  0  0  0  0  0  0  0  0  0  0  0
    1.7112   -1.9528    0.9419 H   0  0  0  0  0  0  0  0  0  0  0  0
    2.5231    1.0162    0.5865 H   0  0  0  0  0  0  0  0  0  0  0  0
    1.7118    0.3198    2.0380 H   0  0  0  0  0  0  0  0  0  0  0  0
  1  2  1  0
  1  6  1  0
  1  7  1  0
  1  8  1  0
  2  3  1  0
  2  4  1  0
  2  9  1  0
  3 10  1  0
  3 11  1  0
  3 12  1  0
  4  5  1  0
  4 13  1  0
  4 14  1  0
  5 15  1  0
 16 17  1  0
 16 18  1  0
 16 19  1  0
 16 20  1  0
 17 21  1  0
 17 22  1  0
M  RAD  1  17   2
M  END
>  <reaction>  (4) 
rxn_417

>  <mol_properties>  (4) 
{"1": {"label": "*1", "atom_type": "Cs"}, "3": {"label": "*0", "atom_type": "Cs"}, "8": {"label": "*2", "atom_type": "H0"}, "15": {"label": "*4", "atom_type": "Cs"}, "16": {"label": "*3", "atom_type": "Cs"}}

>  <type>  (4) 
ts

$$$$

     RDKit          3D

 22 20  0  0  0  0  0  0  0  0999 V2000
   -0.3894    0.4531   -1.8558 C   0  0  0  0  0  0  0  0  0  0  0  0
   -0.3894    0.4531   -0.3317 C   0  0  0  0  0  3  0  0  0  0  0  0
   -0.3894    1.8718    0.2282 C   0  0  0  0  0  0  0  0  0  0  0  0
   -1.5769   -0.3273    0.2253 C   0  0  0  0  0  0  0  0  0  0  0  0
   -1.6157   -1.6785   -0.1864 O   0  0  0  0  0  0  0  0  0  0  0  0
    0.5003    0.9496   -2.2478 H   0  0  0  0  0  0  0  0  0  0  0  0
   -1.2657    0.9858   -2.2363 H   0  0  0  0  0  0  0  0  0  0  0  0
   -0.4198   -0.5629   -2.2494 H   0  0  0  0  0  0  0  0  0  0  0  0
    0.7061   -0.1499    0.0841 H   0  0  0  0  0  0  0  0  0  0  0  0
   -1.2927    2.4068   -0.0780 H   0  0  0  0  0  0  0  0  0  0  0  0
    0.4692    2.4365   -0.1387 H   0  0  0  0  0  0  0  0  0  0  0  0
   -0.3521    1.8743    1.3198 H   0  0  0  0  0  0  0  0  0  0  0  0
   -1.5821   -0.2557    1.3211 H   0  0  0  0  0  0  0  0  0  0  0  0
   -2.5081    0.1187   -0.1344 H   0  0  0  0  0  0  0  0  0  0  0  0
   -0.8330   -2.1194    0.1479 H   0  0  0  0  0  0  0  0  0  0  0  0
    2.6505    0.1826    1.3449 C   0  0  0  0  0  0  0  0  0  0  0  0
    1.7948   -0.7492    0.4974 C   0  0  0  0  0  0  0  0  0  0  0  0
    3.0861   -0.3443    2.1956 H   0  0  0  0  0  0  0  0  0  0  0  0
    2.0614    1.0134    1.7374 H   0  0  0  0  0  0  0  0  0  0  0  0
    3.4711    0.6055    0.7627 H   0  0  0  0  0  0  0  0  0  0  0  0
    0.9742   -1.1721    1.0795 H   0  0  0  0  0  0  0  0  0  0  0  0
    2.3839   -1.5800    0.1049 H   0  0  0  0  0  0  0  0  0  0  0  0
  1  2  1  0
  1  6  1  0
  1  7  1  0
  1  8  1  0
  2  3  1  0
  2  4  1  0
  3 10  1  0
  3 11  1  0
  3 12  1  0
  4  5  1  0
  4 13  1  0
  4 14  1  0
  5 15  1  0
  9 17  1  0
 16 17  1  0
 16 18  1  0
 16 19  1  0
 16 20  1  0
 17 21  1  0
 17 22  1  0
M  RAD  1   2   2
M  END
>  <reaction>  (5) 
rxn_417

>  <mol_properties>  (5) 
{"1": {"label": "*1", "atom_type": "Cs"}, "3": {"label": "*0", "atom_type": "Cs"}, "8": {"label": "*2", "atom_type": "H0"}, "15": {"label": "*4", "atom_type": "Cs"}, "16": {"label": "*3", "atom_type": "Cs"}}

>  <type>  (5) 
unop_1

>  <geom_source>  (5) 
Heuristics

$$$$

     RDKit          3D

 22 20  0  0  0  0  0  0  0  0999 V2000
   -0.4361    0.5592   -1.5840 C   0  0  0  0  0  0  0  0  0  0  0  0
   -0.4361    0.5592   -0.0599 C   0  0  0  0  0  3  0  0  0  0  0  0
   -0.4361    1.9780    0.5000 C   0  0  0  0  0  0  0  0  0  0  0  0
   -1.6237   -0.2211    0.4971 C   0  0  0  0  0  0  0  0  0  0  0  0
   -1.6625   -1.5724    0.0854 O   0  0  0  0  0  0  0  0  0  0  0  0
    0.4536    1.0558   -1.9760 H   0  0  0  0  0  0  0  0  0  0  0  0
   -1.3124    1.0919   -1.9645 H   0  0  0  0  0  0  0  0  0  0  0  0
   -0.4666   -0.4567   -1.9777 H   0  0  0  0  0  0  0  0  0  0  0  0
    0.6593   -0.0437    0.3559 H   0  0  0  0  0  0  0  0  0  0  0  0
   -1.3394    2.5130    0.1938 H   0  0  0  0  0  0  0  0  0  0  0  0
    0.4224    2.5427    0.1331 H   0  0  0  0  0  0  0  0  0  0  0  0
   -0.3989    1.9804    1.5915 H   0  0  0  0  0  0  0  0  0  0  0  0
   -1.6288   -0.1496    1.5929 H   0  0  0  0  0  0  0  0  0  0  0  0
   -2.5549    0.2248    0.1374 H   0  0  0  0  0  0  0  0  0  0  0  0
   -0.8798   -2.0132    0.4197 H   0  0  0  0  0  0  0  0  0  0  0  0
    2.8890   -0.4612   -0.2228 C   0  0  0  0  0  0  0  0  0  0  0  0
    1.7481   -0.6431    0.7691 C   0  0  0  0  0  0  0  0  0  0  0  0
    3.8543   -0.6707    0.2414 H   0  0  0  0  0  0  0  0  0  0  0  0
    2.9215    0.5603   -0.6059 H   0  0  0  0  0  0  0  0  0  0  0  0
    2.7811   -1.1313   -1.0775 H   0  0  0  0  0  0  0  0  0  0  0  0
    1.8560    0.0270    1.6239 H   0  0  0  0  0  0  0  0  0  0  0  0
    1.7156   -1.6645    1.1522 H   0  0  0  0  0  0  0  0  0  0  0  0
  1  2  1  0
  1  6  1  0
  1  7  1  0
  1  8  1  0
  2  3  1  0
  2  4  1  0
  3 10  1  0
  3 11  1  0
  3 12  1  0
  4  5  1  0
  4 13  1  0
  4 14  1  0
  5 15  1  0
  9 17  1  0
 16 17  1  0
 16 18  1  0
 16 19  1  0
 16 20  1  0
 17 21  1  0
 17 22  1  0
M  RAD  1   2   2
M  END
>  <reaction>  (6) 
rxn_417

>  <mol_properties>  (6) 
{"1": {"label": "*1", "atom_type": "Cs"}, "3": {"label": "*0", "atom_type": "Cs"}, "8": {"label": "*2", "atom_type": "H0"}, "15": {"label": "*4", "atom_type": "Cs"}, "16": {"label": "*3", "atom_type": "Cs"}}

>  <type>  (6) 
unop_2

>  <geom_source>  (6) 
Heuristics

$$$$

     RDKit          3D

 22 20  0  0  0  0  0  0  0  0999 V2000
   -0.3330    0.5101   -1.9249 C   0  0  0  0  0  0  0  0  0  0  0  0
   -0.3330    0.5101   -0.4008 C   0  0  0  0  0  3  0  0  0  0  0  0
   -0.3330    1.9288    0.1591 C   0  0  0  0  0  0  0  0  0  0  0  0
   -1.5205   -0.2703    0.1561 C   0  0  0  0  0  0  0  0  0  0  0  0
   -1.5593   -1.6215   -0.2556 O   0  0  0  0  0  0  0  0  0  0  0  0
    0.5567    1.0066   -2.3170 H   0  0  0  0  0  0  0  0  0  0  0  0
   -1.2092    1.0428   -2.3054 H   0  0  0  0  0  0  0  0  0  0  0  0
   -0.3634   -0.5059   -2.3186 H   0  0  0  0  0  0  0  0  0  0  0  0
    0.7625   -0.0929    0.0150 H   0  0  0  0  0  0  0  0  0  0  0  0
   -1.2362    2.4639   -0.1471 H   0  0  0  0  0  0  0  0  0  0  0  0
    0.5256    2.4935   -0.2079 H   0  0  0  0  0  0  0  0  0  0  0  0
   -0.2957    1.9313    1.2506 H   0  0  0  0  0  0  0  0  0  0  0  0
   -1.5256   -0.1987    1.2520 H   0  0  0  0  0  0  0  0  0  0  0  0
   -2.4517    0.1757   -0.2036 H   0  0  0  0  0  0  0  0  0  0  0  0
   -0.7766   -2.0624    0.0787 H   0  0  0  0  0  0  0  0  0  0  0  0
    2.3128   -0.1364    1.7687 C   0  0  0  0  0  0  0  0  0  0  0  0
    1.8512   -0.6922    0.4282 C   0  0  0  0  0  0  0  0  0  0  0  0
    2.8492   -0.8910    2.3466 H   0  0  0  0  0  0  0  0  0  0  0  0
    1.4666    0.2006    2.3700 H   0  0  0  0  0  0  0  0  0  0  0  0
    2.9827    0.7149    1.6347 H   0  0  0  0  0  0  0  0  0  0  0  0
    1.1814   -1.5434    0.5622 H   0  0  0  0  0  0  0  0  0  0  0  0
    2.6974   -1.0292   -0.1731 H   0  0  0  0  0  0  0  0  0  0  0  0
  1  2  1  0
  1  6  1  0
  1  7  1  0
  1  8  1  0
  2  3  1  0
  2  4  1  0
  3 10  1  0
  3 11  1  0
  3 12  1  0
  4  5  1  0
  4 13  1  0
  4 14  1  0
  5 15  1  0
  9 17  1  0
 16 17  1  0
 16 18  1  0
 16 19  1  0
 16 20  1  0
 17 21  1  0
 17 22  1  0
M  RAD  1   2   2
M  END
>  <reaction>  (7) 
rxn_417

>  <mol_properties>  (7) 
{"1": {"label": "*1", "atom_type": "Cs"}, "3": {"label": "*0", "atom_type": "Cs"}, "8": {"label": "*2", "atom_type": "H0"}, "15": {"label": "*4", "atom_type": "Cs"}, "16": {"label": "*3", "atom_type": "Cs"}}

>  <type>  (7) 
unop_3

>  <geom_source>  (7) 
Heuristics

$$$$

     RDKit          3D

 22 20  0  0  0  0  0  0  0  0999 V2000
   -0.2747    0.7994   -1.6582 C   0  0  0  0  0  0  0  0  0  0  0  0
   -0.2747    0.7994   -0.1341 C   0  0  0  0  0  3  0  0  0  0  0  0
   -0.2747    2.2182    0.4258 C   0  0  0  0  0  0  0  0  0  0  0  0
   -1.4622    0.0190    0.4228 C   0  0  0  0  0  0  0  0  0  0  0  0
   -1.5010   -1.3322    0.0111 O   0  0  0  0  0  0  0  0  0  0  0  0
    0.6151    1.2960   -2.0503 H   0  0  0  0  0  0  0  0  0  0  0  0
   -1.1509    1.3321   -2.0387 H   0  0  0  0  0  0  0  0  0  0  0  0
   -0.3051   -0.2165   -2.0519 H   0  0  0  0  0  0  0  0  0  0  0  0
    0.8208    0.1964    0.2817 H   0  0  0  0  0  0  0  0  0  0  0  0
   -1.1779    2.7532    0.1196 H   0  0  0  0  0  0  0  0  0  0  0  0
    0.5839    2.7828    0.0588 H   0  0  0  0  0  0  0  0  0  0  0  0
   -0.2374    2.2206    1.5173 H   0  0  0  0  0  0  0  0  0  0  0  0
   -1.4673    0.0906    1.5186 H   0  0  0  0  0  0  0  0  0  0  0  0
   -2.3934    0.4650    0.0631 H   0  0  0  0  0  0  0  0  0  0  0  0
   -0.7183   -1.7731    0.3454 H   0  0  0  0  0  0  0  0  0  0  0  0
    1.9722   -1.8402    0.1959 C   0  0  0  0  0  0  0  0  0  0  0  0
    1.9096   -0.4029    0.6949 C   0  0  0  0  0  0  0  0  0  0  0  0
    2.4896   -2.4846    0.9088 H   0  0  0  0  0  0  0  0  0  0  0  0
    2.5035   -1.9062   -0.7552 H   0  0  0  0  0  0  0  0  0  0  0  0
    0.9722   -2.2507    0.0449 H   0  0  0  0  0  0  0  0  0  0  0  0
    2.9095    0.0076    0.8459 H   0  0  0  0  0  0  0  0  0  0  0  0
    1.3783   -0.3369    1.6460 H   0  0  0  0  0  0  0  0  0  0  0  0
  1  2  1  0
  1  6  1  0
  1  7  1  0
  1  8  1  0
  2  3  1  0
  2  4  1  0
  3 10  1  0
  3 11  1  0
  3 12  1  0
  4  5  1  0
  4 13  1  0
  4 14  1  0
  5 15  1  0
  9 17  1  0
 16 17  1  0
 16 18  1  0
 16 19  1  0
 16 20  1  0
 17 21  1  0
 17 22  1  0
M  RAD  1   2   2
M  END
>  <reaction>  (8) 
rxn_417

>  <mol_properties>  (8) 
{"1": {"label": "*1", "atom_type": "Cs"}, "3": {"label": "*0", "atom_type": "Cs"}, "8": {"label": "*2", "atom_type": "H0"}, "15": {"label": "*4", "atom_type": "Cs"}, "16": {"label": "*3", "atom_type": "Cs"}}

>  <type>  (8) 
unop_4

>  <geom_source>  (8) 
Heuristics

$$$$

     RDKit          3D

 22 20  0  0  0  0  0  0  0  0999 V2000
   -0.2791    0.5939   -1.9489 C   0  0  0  0  0  0  0  0  0  0  0  0
   -0.2791    0.5939   -0.4248 C   0  0  0  0  0  3  0  0  0  0  0  0
   -0.2791    2.0127    0.1351 C   0  0  0  0  0  0  0  0  0  0  0  0
   -1.4666   -0.1864    0.1321 C   0  0  0  0  0  0  0  0  0  0  0  0
   -1.5054   -1.5377   -0.2796 O   0  0  0  0  0  0  0  0  0  0  0  0
    0.6106    1.0905   -2.3410 H   0  0  0  0  0  0  0  0  0  0  0  0
   -1.1553    1.1266   -2.3294 H   0  0  0  0  0  0  0  0  0  0  0  0
   -0.3095   -0.4220   -2.3426 H   0  0  0  0  0  0  0  0  0  0  0  0
    0.8164   -0.0090   -0.0090 H   0  0  0  0  0  0  0  0  0  0  0  0
   -1.1824    2.5477   -0.1711 H   0  0  0  0  0  0  0  0  0  0  0  0
    0.5795    2.5774   -0.2319 H   0  0  0  0  0  0  0  0  0  0  0  0
   -0.2418    2.0151    1.2266 H   0  0  0  0  0  0  0  0  0  0  0  0
   -1.4717   -0.1149    1.2279 H   0  0  0  0  0  0  0  0  0  0  0  0
   -2.3978    0.2595   -0.2276 H   0  0  0  0  0  0  0  0  0  0  0  0
   -0.7227   -1.9785    0.0547 H   0  0  0  0  0  0  0  0  0  0  0  0
    1.9720   -0.6452    1.9251 C   0  0  0  0  0  0  0  0  0  0  0  0
    1.9051   -0.6084    0.4042 C   0  0  0  0  0  0  0  0  0  0  0  0
    2.8793   -1.1446    2.2694 H   0  0  0  0  0  0  0  0  0  0  0  0
    1.1197   -1.1815    2.3459 H   0  0  0  0  0  0  0  0  0  0  0  0
    1.9692    0.3618    2.3459 H   0  0  0  0  0  0  0  0  0  0  0  0
    1.9079   -1.6154   -0.0166 H   0  0  0  0  0  0  0  0  0  0  0  0
    2.7575   -0.0721   -0.0166 H   0  0  0  0  0  0  0  0  0  0  0  0
  1  2  1  0
  1  6  1  0
  1  7  1  0
  1  8  1  0
  2  3  1  0
  2  4  1  0
  3 10  1  0
  3 11  1  0
  3 12  1  0
  4  5  1  0
  4 13  1  0
  4 14  1  0
  5 15  1  0
  9 17  1  0
 16 17  1  0
 16 18  1  0
 16 19  1  0
 16 20  1  0
 17 21  1  0
 17 22  1  0
M  RAD  1   2   2
M  END
>  <reaction>  (9) 
rxn_417

>  <mol_properties>  (9) 
{"1": {"label": "*1", "atom_type": "Cs"}, "3": {"label": "*0", "atom_type": "Cs"}, "8": {"label": "*2", "atom_type": "H0"}, "15": {"label": "*4", "atom_type": "Cs"}, "16": {"label": "*3", "atom_type": "Cs"}}

>  <type>  (9) 
unop_5

>  <geom_source>  (9) 
Heuristics

$$$$

     RDKit          3D

 22 20  0  0  0  0  0  0  0  0999 V2000
   -0.2326    0.8053   -1.7580 C   0  0  0  0  0  0  0  0  0  0  0  0
   -0.2326    0.8053   -0.2339 C   0  0  0  0  0  3  0  0  0  0  0  0
   -0.2326    2.2241    0.3260 C   0  0  0  0  0  0  0  0  0  0  0  0
   -1.4202    0.0249    0.3230 C   0  0  0  0  0  0  0  0  0  0  0  0
   -1.4590   -1.3263   -0.0887 O   0  0  0  0  0  0  0  0  0  0  0  0
    0.6571    1.3019   -2.1501 H   0  0  0  0  0  0  0  0  0  0  0  0
   -1.1089    1.3380   -2.1385 H   0  0  0  0  0  0  0  0  0  0  0  0
   -0.2631   -0.2106   -2.1517 H   0  0  0  0  0  0  0  0  0  0  0  0
    0.8628    0.2023    0.1819 H   0  0  0  0  0  0  0  0  0  0  0  0
   -1.1359    2.7591    0.0197 H   0  0  0  0  0  0  0  0  0  0  0  0
    0.6259    2.7888   -0.0410 H   0  0  0  0  0  0  0  0  0  0  0  0
   -0.1954    2.2265    1.4175 H   0  0  0  0  0  0  0  0  0  0  0  0
   -1.4253    0.0965    1.4188 H   0  0  0  0  0  0  0  0  0  0  0  0
   -2.3514    0.4709   -0.0367 H   0  0  0  0  0  0  0  0  0  0  0  0
   -0.6763   -1.7671    0.2456 H   0  0  0  0  0  0  0  0  0  0  0  0
    1.7264   -1.8929    0.7693 C   0  0  0  0  0  0  0  0  0  0  0  0
    1.9516   -0.3970    0.5951 C   0  0  0  0  0  0  0  0  0  0  0  0
    2.2368   -2.2692    1.6577 H   0  0  0  0  0  0  0  0  0  0  0  0
    2.1018   -2.4524   -0.0893 H   0  0  0  0  0  0  0  0  0  0  0  0
    0.6649   -2.1237    0.8755 H   0  0  0  0  0  0  0  0  0  0  0  0
    3.0130   -0.1662    0.4889 H   0  0  0  0  0  0  0  0  0  0  0  0
    1.5761    0.1625    1.4537 H   0  0  0  0  0  0  0  0  0  0  0  0
  1  2  1  0
  1  6  1  0
  1  7  1  0
  1  8  1  0
  2  3  1  0
  2  4  1  0
  3 10  1  0
  3 11  1  0
  3 12  1  0
  4  5  1  0
  4 13  1  0
  4 14  1  0
  5 15  1  0
  9 17  1  0
 16 17  1  0
 16 18  1  0
 16 19  1  0
 16 20  1  0
 17 21  1  0
 17 22  1  0
M  RAD  1   2   2
M  END
>  <reaction>  (10) 
rxn_417

>  <mol_properties>  (10) 
{"1": {"label": "*1", "atom_type": "Cs"}, "3": {"label": "*0", "atom_type": "Cs"}, "8": {"label": "*2", "atom_type": "H0"}, "15": {"label": "*4", "atom_type": "Cs"}, "16": {"label": "*3", "atom_type": "Cs"}}

>  <type>  (10) 
unop_6

>  <geom_source>  (10) 
Heuristics

$$$$

     RDKit          3D

 22 20  0  0  0  0  0  0  0  0999 V2000
   -0.2191    0.7625   -1.8558 C   0  0  0  0  0  0  0  0  0  0  0  0
   -0.2191    0.7625   -0.3317 C   0  0  0  0  0  3  0  0  0  0  0  0
   -0.2191    2.1812    0.2282 C   0  0  0  0  0  0  0  0  0  0  0  0
   -1.4066   -0.0179    0.2253 C   0  0  0  0  0  0  0  0  0  0  0  0
   -1.4454   -1.3691   -0.1864 O   0  0  0  0  0  0  0  0  0  0  0  0
    0.6706    1.2590   -2.2478 H   0  0  0  0  0  0  0  0  0  0  0  0
   -1.0953    1.2952   -2.2363 H   0  0  0  0  0  0  0  0  0  0  0  0
   -0.2495   -0.2534   -2.2494 H   0  0  0  0  0  0  0  0  0  0  0  0
    0.8764    0.1595    0.0841 H   0  0  0  0  0  0  0  0  0  0  0  0
   -1.1223    2.7163   -0.0780 H   0  0  0  0  0  0  0  0  0  0  0  0
    0.6395    2.7459   -0.1387 H   0  0  0  0  0  0  0  0  0  0  0  0
   -0.1818    2.1837    1.3198 H   0  0  0  0  0  0  0  0  0  0  0  0
   -1.4117    0.0537    1.3211 H   0  0  0  0  0  0  0  0  0  0  0  0
   -2.3378    0.4281   -0.1344 H   0  0  0  0  0  0  0  0  0  0  0  0
   -0.6627   -1.8100    0.1479 H   0  0  0  0  0  0  0  0  0  0  0  0
    1.6355   -1.6612    1.3449 C   0  0  0  0  0  0  0  0  0  0  0  0
    1.9651   -0.4398    0.4974 C   0  0  0  0  0  0  0  0  0  0  0  0
    2.3138   -1.7475    2.1956 H   0  0  0  0  0  0  0  0  0  0  0  0
    1.7172   -2.5808    0.7627 H   0  0  0  0  0  0  0  0  0  0  0  0
    0.6185   -1.6079    1.7374 H   0  0  0  0  0  0  0  0  0  0  0  0
    2.9822   -0.4931    0.1049 H   0  0  0  0  0  0  0  0  0  0  0  0
    1.8834    0.4798    1.0795 H   0  0  0  0  0  0  0  0  0  0  0  0
  1  2  1  0
  1  6  1  0
  1  7  1  0
  1  8  1  0
  2  3  1  0
  2  4  1  0
  3 10  1  0
  3 11  1  0
  3 12  1  0
  4  5  1  0
  4 13  1  0
  4 14  1  0
  5 15  1  0
  9 17  1  0
 16 17  1  0
 16 18  1  0
 16 19  1  0
 16 20  1  0
 17 21  1  0
 17 22  1  0
M  RAD  1   2   2
M  END
>  <reaction>  (11) 
rxn_417

>  <mol_properties>  (11) 
{"1": {"label": "*1", "atom_type": "Cs"}, "3": {"label": "*0", "atom_type": "Cs"}, "8": {"label": "*2", "atom_type": "H0"}, "15": {"label": "*4", "atom_type": "Cs"}, "16": {"label": "*3", "atom_type": "Cs"}}

>  <type>  (11) 
unop_7

>  <geom_source>  (11) 
Heuristics

$$$$

     RDKit          3D

 22 20  0  0  0  0  0  0  0  0999 V2000
   -0.4328    0.4416   -1.7580 C   0  0  0  0  0  0  0  0  0  0  0  0
   -0.4328    0.4416   -0.2339 C   0  0  0  0  0  3  0  0  0  0  0  0
   -0.4328    1.8604    0.3260 C   0  0  0  0  0  0  0  0  0  0  0  0
   -1.6204   -0.3388    0.3230 C   0  0  0  0  0  0  0  0  0  0  0  0
   -1.6592   -1.6900   -0.0887 O   0  0  0  0  0  0  0  0  0  0  0  0
    0.4569    0.9382   -2.1501 H   0  0  0  0  0  0  0  0  0  0  0  0
   -1.3091    0.9743   -2.1385 H   0  0  0  0  0  0  0  0  0  0  0  0
   -0.4633   -0.5743   -2.1517 H   0  0  0  0  0  0  0  0  0  0  0  0
    0.6626   -0.1614    0.1819 H   0  0  0  0  0  0  0  0  0  0  0  0
   -1.3361    2.3954    0.0197 H   0  0  0  0  0  0  0  0  0  0  0  0
    0.4257    2.4251   -0.0410 H   0  0  0  0  0  0  0  0  0  0  0  0
   -0.3956    1.8628    1.4175 H   0  0  0  0  0  0  0  0  0  0  0  0
   -1.6255   -0.2672    1.4188 H   0  0  0  0  0  0  0  0  0  0  0  0
   -2.5516    0.1072   -0.0367 H   0  0  0  0  0  0  0  0  0  0  0  0
   -0.8765   -2.1308    0.2456 H   0  0  0  0  0  0  0  0  0  0  0  0
    2.8948    0.2298    0.7693 C   0  0  0  0  0  0  0  0  0  0  0  0
    1.7514   -0.7607    0.5951 C   0  0  0  0  0  0  0  0  0  0  0  0
    3.4858   -0.0001    1.6577 H   0  0  0  0  0  0  0  0  0  0  0  0
    2.5220    1.2501    0.8756 H   0  0  0  0  0  0  0  0  0  0  0  0
    3.5684    0.2119   -0.0893 H   0  0  0  0  0  0  0  0  0  0  0  0
    1.0778   -0.7428    1.4537 H   0  0  0  0  0  0  0  0  0  0  0  0
    2.1242   -1.7809    0.4889 H   0  0  0  0  0  0  0  0  0  0  0  0
  1  2  1  0
  1  6  1  0
  1  7  1  0
  1  8  1  0
  2  3  1  0
  2  4  1  0
  3 10  1  0
  3 11  1  0
  3 12  1  0
  4  5  1  0
  4 13  1  0
  4 14  1  0
  5 15  1  0
  9 17  1  0
 16 17  1  0
 16 18  1  0
 16 19  1  0
 16 20  1  0
 17 21  1  0
 17 22  1  0
M  RAD  1   2   2
M  END
>  <reaction>  (12) 
rxn_417

>  <mol_properties>  (12) 
{"1": {"label": "*1", "atom_type": "Cs"}, "3": {"label": "*0", "atom_type": "Cs"}, "8": {"label": "*2", "atom_type": "H0"}, "15": {"label": "*4", "atom_type": "Cs"}, "16": {"label": "*3", "atom_type": "Cs"}}

>  <type>  (12) 
unop_8

>  <geom_source>  (12) 
Heuristics

$$$$

     RDKit          3D

 22 20  0  0  0  0  0  0  0  0999 V2000
   -0.3338    0.7452   -1.5840 C   0  0  0  0  0  0  0  0  0  0  0  0
   -0.3338    0.7452   -0.0599 C   0  0  0  0  0  3  0  0  0  0  0  0
   -0.3338    2.1640    0.5000 C   0  0  0  0  0  0  0  0  0  0  0  0
   -1.5213   -0.0352    0.4971 C   0  0  0  0  0  0  0  0  0  0  0  0
   -1.5601   -1.3864    0.0854 O   0  0  0  0  0  0  0  0  0  0  0  0
    0.5559    1.2418   -1.9760 H   0  0  0  0  0  0  0  0  0  0  0  0
   -1.2100    1.2779   -1.9645 H   0  0  0  0  0  0  0  0  0  0  0  0
   -0.3642   -0.2707   -1.9777 H   0  0  0  0  0  0  0  0  0  0  0  0
    0.7617    0.1422    0.3559 H   0  0  0  0  0  0  0  0  0  0  0  0
   -1.2371    2.6990    0.1938 H   0  0  0  0  0  0  0  0  0  0  0  0
    0.5248    2.7286    0.1331 H   0  0  0  0  0  0  0  0  0  0  0  0
   -0.2965    2.1664    1.5915 H   0  0  0  0  0  0  0  0  0  0  0  0
   -1.5264    0.0364    1.5929 H   0  0  0  0  0  0  0  0  0  0  0  0
   -2.4525    0.4108    0.1374 H   0  0  0  0  0  0  0  0  0  0  0  0
   -0.7774   -1.8273    0.4197 H   0  0  0  0  0  0  0  0  0  0  0  0
    2.3071   -1.5184   -0.2228 C   0  0  0  0  0  0  0  0  0  0  0  0
    1.8504   -0.4571    0.7691 C   0  0  0  0  0  0  0  0  0  0  0  0
    3.0005   -2.2219    0.2414 H   0  0  0  0  0  0  0  0  0  0  0  0
    2.8155   -1.0688   -1.0775 H   0  0  0  0  0  0  0  0  0  0  0  0
    1.4614   -2.0922   -0.6059 H   0  0  0  0  0  0  0  0  0  0  0  0
    2.6961    0.1167    1.1522 H   0  0  0  0  0  0  0  0  0  0  0  0
    1.3420   -0.9067    1.6239 H   0  0  0  0  0  0  0  0  0  0  0  0
  1  2  1  0
  1  6  1  0
  1  7  1  0
  1  8  1  0
  2  3  1  0
  2  4  1  0
  3 10  1  0
  3 11  1  0
  3 12  1  0
  4  5  1  0
  4 13  1  0
  4 14  1  0
  5 15  1  0
  9 17  1  0
 16 17  1  0
 16 18  1  0
 16 19  1  0
 16 20  1  0
 17 21  1  0
 17 22  1  0
M  RAD  1   2   2
M  END
>  <reaction>  (13) 
rxn_417

>  <mol_properties>  (13) 
{"1": {"label": "*1", "atom_type": "Cs"}, "3": {"label": "*0", "atom_type": "Cs"}, "8": {"label": "*2", "atom_type": "H0"}, "15": {"label": "*4", "atom_type": "Cs"}, "16": {"label": "*3", "atom_type": "Cs"}}

>  <type>  (13) 
unop_9

>  <geom_source>  (13) 
Heuristics

$$$$

     RDKit          3D

 22 20  0  0  0  0  0  0  0  0999 V2000
   -0.4503    0.4803   -1.6582 C   0  0  0  0  0  0  0  0  0  0  0  0
   -0.4503    0.4803   -0.1341 C   0  0  0  0  0  3  0  0  0  0  0  0
   -0.4503    1.8990    0.4258 C   0  0  0  0  0  0  0  0  0  0  0  0
   -1.6378   -0.3001    0.4228 C   0  0  0  0  0  0  0  0  0  0  0  0
   -1.6766   -1.6513    0.0111 O   0  0  0  0  0  0  0  0  0  0  0  0
    0.4394    0.9768   -2.0503 H   0  0  0  0  0  0  0  0  0  0  0  0
   -1.3266    1.0130   -2.0387 H   0  0  0  0  0  0  0  0  0  0  0  0
   -0.4807   -0.5357   -2.0519 H   0  0  0  0  0  0  0  0  0  0  0  0
    0.6451   -0.1227    0.2817 H   0  0  0  0  0  0  0  0  0  0  0  0
   -1.3536    2.4341    0.1196 H   0  0  0  0  0  0  0  0  0  0  0  0
    0.4083    2.4637    0.0588 H   0  0  0  0  0  0  0  0  0  0  0  0
   -0.4130    1.9015    1.5173 H   0  0  0  0  0  0  0  0  0  0  0  0
   -1.6430   -0.2285    1.5186 H   0  0  0  0  0  0  0  0  0  0  0  0
   -2.5690    0.1459    0.0631 H   0  0  0  0  0  0  0  0  0  0  0  0
   -0.8940   -2.0922    0.3454 H   0  0  0  0  0  0  0  0  0  0  0  0
    2.9818   -0.0061    0.1959 C   0  0  0  0  0  0  0  0  0  0  0  0
    1.7339   -0.7220    0.6949 C   0  0  0  0  0  0  0  0  0  0  0  0
    3.8030   -0.0986    0.9087 H   0  0  0  0  0  0  0  0  0  0  0  0
    2.7937    1.0584    0.0449 H   0  0  0  0  0  0  0  0  0  0  0  0
    3.3218   -0.4196   -0.7552 H   0  0  0  0  0  0  0  0  0  0  0  0
    1.3939   -0.3084    1.6460 H   0  0  0  0  0  0  0  0  0  0  0  0
    1.9219   -1.7865    0.8459 H   0  0  0  0  0  0  0  0  0  0  0  0
  1  2  1  0
  1  6  1  0
  1  7  1  0
  1  8  1  0
  2  3  1  0
  2  4  1  0
  3 10  1  0
  3 11  1  0
  3 12  1  0
  4  5  1  0
  4 13  1  0
  4 14  1  0
  5 15  1  0
  9 17  1  0
 16 17  1  0
 16 18  1  0
 16 19  1  0
 16 20  1  0
 17 21  1  0
 17 22  1  0
M  RAD  1   2   2
M  END
>  <reaction>  (14) 
rxn_417

>  <mol_properties>  (14) 
{"1": {"label": "*1", "atom_type": "Cs"}, "3": {"label": "*0", "atom_type": "Cs"}, "8": {"label": "*2", "atom_type": "H0"}, "15": {"label": "*4", "atom_type": "Cs"}, "16": {"label": "*3", "atom_type": "Cs"}}

>  <type>  (14) 
unop_10

>  <geom_source>  (14) 
Heuristics

$$$$

     RDKit          3D

 22 20  0  0  0  0  0  0  0  0999 V2000
   -0.2371    0.6843   -1.9249 C   0  0  0  0  0  0  0  0  0  0  0  0
   -0.2371    0.6843   -0.4008 C   0  0  0  0  0  3  0  0  0  0  0  0
   -0.2371    2.1031    0.1591 C   0  0  0  0  0  0  0  0  0  0  0  0
   -1.4246   -0.0961    0.1561 C   0  0  0  0  0  0  0  0  0  0  0  0
   -1.4634   -1.4473   -0.2556 O   0  0  0  0  0  0  0  0  0  0  0  0
    0.6526    1.1809   -2.3170 H   0  0  0  0  0  0  0  0  0  0  0  0
   -1.1133    1.2170   -2.3054 H   0  0  0  0  0  0  0  0  0  0  0  0
   -0.2675   -0.3316   -2.3186 H   0  0  0  0  0  0  0  0  0  0  0  0
    0.8584    0.0813    0.0150 H   0  0  0  0  0  0  0  0  0  0  0  0
   -1.1403    2.6381   -0.1471 H   0  0  0  0  0  0  0  0  0  0  0  0
    0.6215    2.6678   -0.2079 H   0  0  0  0  0  0  0  0  0  0  0  0
   -0.1998    2.1055    1.2506 H   0  0  0  0  0  0  0  0  0  0  0  0
   -1.4297   -0.0245    1.2520 H   0  0  0  0  0  0  0  0  0  0  0  0
   -2.3558    0.3499   -0.2036 H   0  0  0  0  0  0  0  0  0  0  0  0
   -0.6807   -1.8882    0.0787 H   0  0  0  0  0  0  0  0  0  0  0  0
    1.7244   -1.2053    1.7687 C   0  0  0  0  0  0  0  0  0  0  0  0
    1.9472   -0.5180    0.4282 C   0  0  0  0  0  0  0  0  0  0  0  0
    2.6489   -1.2548    2.3466 H   0  0  0  0  0  0  0  0  0  0  0  0
    1.3635   -2.2266    1.6347 H   0  0  0  0  0  0  0  0  0  0  0  0
    0.9871   -0.6706    2.3700 H   0  0  0  0  0  0  0  0  0  0  0  0
    2.6845   -1.0527   -0.1731 H   0  0  0  0  0  0  0  0  0  0  0  0
    2.3080    0.5033    0.5622 H   0  0  0  0  0  0  0  0  0  0  0  0
  1  2  1  0
  1  6  1  0
  1  7  1  0
  1  8  1  0
  2  3  1  0
  2  4  1  0
  3 10  1  0
  3 11  1  0
  3 12  1  0
  4  5  1  0
  4 13  1  0
  4 14  1  0
  5 15  1  0
  9 17  1  0
 16 17  1  0
 16 18  1  0
 16 19  1  0
 16 20  1  0
 17 21  1  0
 17 22  1  0
M  RAD  1   2   2
M  END
>  <reaction>  (15) 
rxn_417

>  <mol_properties>  (15) 
{"1": {"label": "*1", "atom_type": "Cs"}, "3": {"label": "*0", "atom_type": "Cs"}, "8": {"label": "*2", "atom_type": "H0"}, "15": {"label": "*4", "atom_type": "Cs"}, "16": {"label": "*3", "atom_type": "Cs"}}

>  <type>  (15) 
unop_11

>  <geom_source>  (15) 
Heuristics

$$$$

     RDKit          3D

 22 20  0  0  0  0  0  0  0  0999 V2000
   -0.3934    0.6569   -1.5565 C   0  0  0  0  0  0  0  0  0  0  0  0
   -0.3934    0.6569   -0.0324 C   0  0  0  0  0  3  0  0  0  0  0  0
   -0.3934    2.0756    0.5275 C   0  0  0  0  0  0  0  0  0  0  0  0
   -1.5809   -0.1235    0.5245 C   0  0  0  0  0  0  0  0  0  0  0  0
   -1.6197   -1.4748    0.1128 O   0  0  0  0  0  0  0  0  0  0  0  0
    0.4963    1.1534   -1.9486 H   0  0  0  0  0  0  0  0  0  0  0  0
   -1.2696    1.1896   -1.9370 H   0  0  0  0  0  0  0  0  0  0  0  0
   -0.4238   -0.3591   -1.9502 H   0  0  0  0  0  0  0  0  0  0  0  0
    0.7021    0.0539    0.3834 H   0  0  0  0  0  0  0  0  0  0  0  0
   -1.2967    2.6106    0.2213 H   0  0  0  0  0  0  0  0  0  0  0  0
    0.4652    2.6403    0.1605 H   0  0  0  0  0  0  0  0  0  0  0  0
   -0.3561    2.0780    1.6190 H   0  0  0  0  0  0  0  0  0  0  0  0
   -1.5860   -0.0519    1.6204 H   0  0  0  0  0  0  0  0  0  0  0  0
   -2.5121    0.3224    0.1648 H   0  0  0  0  0  0  0  0  0  0  0  0
   -0.8370   -1.9156    0.4471 H   0  0  0  0  0  0  0  0  0  0  0  0
    2.6422   -1.0141   -0.3758 C   0  0  0  0  0  0  0  0  0  0  0  0
    1.7908   -0.5454    0.7966 C   0  0  0  0  0  0  0  0  0  0  0  0
    3.5495   -1.5135   -0.0314 H   0  0  0  0  0  0  0  0  0  0  0  0
    2.9453   -0.1754   -1.0051 H   0  0  0  0  0  0  0  0  0  0  0  0
    2.0958   -1.7188   -1.0051 H   0  0  0  0  0  0  0  0  0  0  0  0
    2.3373    0.1592    1.4259 H   0  0  0  0  0  0  0  0  0  0  0  0
    1.4877   -1.3841    1.4259 H   0  0  0  0  0  0  0  0  0  0  0  0
  1  2  1  0
  1  6  1  0
  1  7  1  0
  1  8  1  0
  2  3  1  0
  2  4  1  0
  3 10  1  0
  3 11  1  0
  3 12  1  0
  4  5  1  0
  4 13  1  0
  4 14  1  0
  5 15  1  0
  9 17  1  0
 16 17  1  0
 16 18  1  0
 16 19  1  0
 16 20  1  0
 17 21  1  0
 17 22  1  0
M  RAD  1   2   2
M  END
>  <reaction>  (16) 
rxn_417

>  <mol_properties>  (16) 
{"1": {"label": "*1", "atom_type": "Cs"}, "3": {"label": "*0", "atom_type": "Cs"}, "8": {"label": "*2", "atom_type": "H0"}, "15": {"label": "*4", "atom_type": "Cs"}, "16": {"label": "*3", "atom_type": "Cs"}}

>  <type>  (16) 
unop_12

>  <geom_source>  (16) 
Heuristics

$$$$

     RDKit          3D

 22 20  0  0  0  0  0  0  0  0999 V2000
   -1.4015   -1.9102    0.0295 O   0  0  0  0  0  0  0  0  0  0  0  0
   -1.6651   -0.6067   -0.4094 C   0  0  0  0  0  0  0  0  0  0  0  0
    1.4321   -0.7928   -0.6793 C   0  0  0  0  0  0  0  0  0  0  0  0
    2.8395   -0.3111   -0.3749 C   0  0  0  0  0  0  0  0  0  0  0  0
   -0.8766    0.4202    1.7746 C   0  0  0  0  0  0  0  0  0  0  0  0
   -0.8025    1.7705   -0.3571 C   0  0  0  0  0  0  0  0  0  0  0  0
   -0.6890    0.3721    0.2548 C   0  0  0  0  0  3  0  0  0  0  0  0
    1.2351   -0.7166   -1.7694 H   0  0  0  0  0  0  0  0  0  0  0  0
    1.3188   -1.8507   -0.3615 H   0  0  0  0  0  0  0  0  0  0  0  0
    0.5895   -0.0753   -0.0512 H   0  0  0  0  0  0  0  0  0  0  0  0
    3.5781   -0.9347   -0.9212 H   0  0  0  0  0  0  0  0  0  0  0  0
    2.9498    0.7472   -0.6915 H   0  0  0  0  0  0  0  0  0  0  0  0
    3.0335   -0.3864    0.7156 H   0  0  0  0  0  0  0  0  0  0  0  0
   -2.7137   -0.3254   -0.1610 H   0  0  0  0  0  0  0  0  0  0  0  0
   -1.5359   -0.5633   -1.5140 H   0  0  0  0  0  0  0  0  0  0  0  0
   -1.8977    0.7747    2.0323 H   0  0  0  0  0  0  0  0  0  0  0  0
   -0.1303    1.1069    2.2268 H   0  0  0  0  0  0  0  0  0  0  0  0
   -0.7213   -0.5882    2.2120 H   0  0  0  0  0  0  0  0  0  0  0  0
   -0.5978    1.7257   -1.4475 H   0  0  0  0  0  0  0  0  0  0  0  0
   -0.0546    2.4489    0.1048 H   0  0  0  0  0  0  0  0  0  0  0  0
   -1.8200    2.1872   -0.1952 H   0  0  0  0  0  0  0  0  0  0  0  0
   -2.0702   -2.4917   -0.4173 H   0  0  0  0  0  0  0  0  0  0  0  0
  1  2  1  0
  1 22  1  0
  2  7  1  0
  2 14  1  0
  2 15  1  0
  3  4  1  0
  3  8  1  0
  3  9  1  0
  3 10  1  0
  4 11  1  0
  4 12  1  0
  4 13  1  0
  5  7  1  0
  5 16  1  0
  5 17  1  0
  5 18  1  0
  6  7  1  0
  6 19  1  0
  6 20  1  0
  6 21  1  0
M  RAD  1   7   2
M  END
>  <reaction>  (17) 
rxn_417

>  <mol_properties>  (17) 
{"1": {"label": "*1", "atom_type": "Cs"}, "3": {"label": "*0", "atom_type": "Cs"}, "8": {"label": "*2", "atom_type": "H0"}, "15": {"label": "*4", "atom_type": "Cs"}, "16": {"label": "*3", "atom_type": "Cs"}}

>  <type>  (17) 
unop_13

>  <geom_source>  (17) 
AutoTST

$$$$
