
     RDKit          3D

  7  6  0  0  0  0  0  0  0  0999 V2000
   -0.6782    0.0507    0.0301 C   0  0  0  0  0  0  0  0  0  0  0  0
    0.8092    0.0996    0.0213 C   0  0  0  0  0  0  0  0  0  0  0  0
    1.7473    0.7521    1.1507 S   0  0  0  0  0  0  0  0  0  0  0  0
   -1.0667    0.5456   -0.8653 H   0  0  0  0  0  0  0  0  0  0  0  0
   -1.0112   -0.9904   -0.0239 H   0  0  0  0  0  0  0  0  0  0  0  0
   -1.0920    0.5225    0.9188 H   0  0  0  0  0  0  0  0  0  0  0  0
    1.2740   -0.3620   -0.8520 H   0  0  0  0  0  0  0  0  0  0  0  0
  1  2  1  0
  1  4  1  0
  1  5  1  0
  1  6  1  0
  2  3  2  0
  2  7  1  0
M  END
>  <reaction>  (1) 
rxn_1968

>  <mol_properties>  (1) 
{"0": {"label": "donator", "atom_type": "Cs"}, "3": {"label": "d_hydrogen", "atom_type": "H0"}}

>  <type>  (1) 
r1h

$$$$

     RDKit          3D

 20 20  0  0  0  0  0  0  0  0999 V2000
   -2.4774    0.8083    0.1488 C   0  0  0  0  0  0  0  0  0  0  0  0
   -1.4172   -0.1696   -0.2476 C   0  0  0  0  0  3  0  0  0  0  0  0
   -0.2904    0.2932   -1.1156 C   0  0  0  0  0  0  0  0  0  0  0  0
   -1.4797   -1.5204    0.1947 C   0  0  0  0  0  0  0  0  0  0  0  0
   -0.4907   -2.4664   -0.1650 C   0  0  0  0  0  0  0  0  0  0  0  0
   -0.5559   -3.7750    0.2665 C   0  0  0  0  0  0  0  0  0  0  0  0
   -1.6038   -4.2041    1.0733 C   0  0  0  0  0  0  0  0  0  0  0  0
   -2.5899   -3.2959    1.4424 C   0  0  0  0  0  0  0  0  0  0  0  0
   -2.5339   -1.9852    1.0162 C   0  0  0  0  0  0  0  0  0  0  0  0
   -3.4697    0.4933   -0.1924 H   0  0  0  0  0  0  0  0  0  0  0  0
   -2.5434    0.9184    1.2368 H   0  0  0  0  0  0  0  0  0  0  0  0
   -2.2829    1.7944   -0.2706 H   0  0  0  0  0  0  0  0  0  0  0  0
   -0.2452   -0.2661   -2.0565 H   0  0  0  0  0  0  0  0  0  0  0  0
   -0.3905    1.3487   -1.3647 H   0  0  0  0  0  0  0  0  0  0  0  0
    0.6811    0.1589   -0.6274 H   0  0  0  0  0  0  0  0  0  0  0  0
    0.3373   -2.1635   -0.7918 H   0  0  0  0  0  0  0  0  0  0  0  0
    0.2187   -4.4725   -0.0281 H   0  0  0  0  0  0  0  0  0  0  0  0
   -1.6513   -5.2316    1.4097 H   0  0  0  0  0  0  0  0  0  0  0  0
   -3.4116   -3.6175    2.0706 H   0  0  0  0  0  0  0  0  0  0  0  0
   -3.3164   -1.3029    1.3205 H   0  0  0  0  0  0  0  0  0  0  0  0
  1  2  1  0
  1 10  1  0
  1 11  1  0
  1 12  1  0
  2  3  1  0
  2  4  1  0
  3 13  1  0
  3 14  1  0
  3 15  1  0
  4  5  2  0
  4  9  1  0
  5  6  1  0
  5 16  1  0
  6  7  2  0
  6 17  1  0
  7  8  1  0
  7 18  1  0
  8  9  2  0
  8 19  1  0
  9 20  1  0
M  RAD  1   2   2
M  END
>  <reaction>  (2) 
rxn_1968

>  <mol_properties>  (2) 
{"1": {"label": "acceptor", "atom_type": "Cs"}}

>  <type>  (2) 
r2

$$$$

     RDKit          3D

 21 21  0  0  0  0  0  0  0  0999 V2000
   -1.3695    1.3367   -1.0719 C   0  0  0  0  0  0  0  0  0  0  0  0
   -1.4091   -0.0981   -0.5428 C   0  0  0  0  0  0  0  0  0  0  0  0
   -0.1819   -0.3999    0.3191 C   0  0  0  0  0  0  0  0  0  0  0  0
   -1.5636   -1.1028   -1.6652 C   0  0  0  0  0  0  0  0  0  0  0  0
   -0.5920   -1.2314   -2.6553 C   0  0  0  0  0  0  0  0  0  0  0  0
   -0.7353   -2.1509   -3.6809 C   0  0  0  0  0  0  0  0  0  0  0  0
   -1.8582   -2.9642   -3.7377 C   0  0  0  0  0  0  0  0  0  0  0  0
   -2.8325   -2.8475   -2.7602 C   0  0  0  0  0  0  0  0  0  0  0  0
   -2.6828   -1.9241   -1.7351 C   0  0  0  0  0  0  0  0  0  0  0  0
   -0.4920    1.4974   -1.7025 H   0  0  0  0  0  0  0  0  0  0  0  0
   -2.2553    1.5607   -1.6679 H   0  0  0  0  0  0  0  0  0  0  0  0
   -1.3211    2.0496   -0.2461 H   0  0  0  0  0  0  0  0  0  0  0  0
   -2.2930   -0.1918    0.0948 H   0  0  0  0  0  0  0  0  0  0  0  0
   -0.1215    0.2955    1.1588 H   0  0  0  0  0  0  0  0  0  0  0  0
   -0.2200   -1.4155    0.7159 H   0  0  0  0  0  0  0  0  0  0  0  0
    0.7383   -0.3016   -0.2615 H   0  0  0  0  0  0  0  0  0  0  0  0
    0.2915   -0.6040   -2.6263 H   0  0  0  0  0  0  0  0  0  0  0  0
    0.0326   -2.2338   -4.4401 H   0  0  0  0  0  0  0  0  0  0  0  0
   -1.9712   -3.6833   -4.5391 H   0  0  0  0  0  0  0  0  0  0  0  0
   -3.7135   -3.4765   -2.7932 H   0  0  0  0  0  0  0  0  0  0  0  0
   -3.4509   -1.8400   -0.9743 H   0  0  0  0  0  0  0  0  0  0  0  0
  1  2  1  0
  1 10  1  0
  1 11  1  0
  1 12  1  0
  2  3  1  0
  2  4  1  0
  2 13  1  0
  3 14  1  0
  3 15  1  0
  3 16  1  0
  4  5  2  0
  4  9  1  0
  5  6  1  0
  5 17  1  0
  6  7  2  0
  6 18  1  0
  7  8  1  0
  7 19  1  0
  8  9  2  0
  8 20  1  0
  9 21  1  0
M  END
>  <reaction>  (3) 
rxn_1968

>  <mol_properties>  (3) 
{"0": {"label": "a_hydrogen", "atom_type": "H0"}, "2": {"label": "acceptor", "atom_type": "Cs"}}

>  <type>  (3) 
r2h

$$$$

     RDKit          3D

 27 26  0  0  0  0  0  0  0  0999 V2000
    1.4861    1.5377   -0.7969 C   0  0  0  0  0  0  0  0  0  0  0  0
    1.9087    0.2623   -1.2796 C   0  0  0  0  0  0  0  0  0  0  0  0
    1.6136   -0.3299   -2.7805 S   0  0  0  0  0  0  0  0  0  0  0  0
    0.3152    1.3244   -0.2440 H   0  0  0  0  0  0  0  0  0  0  0  0
    2.0232    1.9351    0.0620 H   0  0  0  0  0  0  0  0  0  0  0  0
    1.2224    2.2727   -1.5528 H   0  0  0  0  0  0  0  0  0  0  0  0
    2.4195   -0.3733   -0.5571 H   0  0  0  0  0  0  0  0  0  0  0  0
   -1.1853    2.4555    0.9889 C   0  0  0  0  0  0  0  0  0  0  0  0
   -0.9487    1.1560    0.2612 C   0  0  0  0  0  3  0  0  0  0  0  0
   -1.7339    1.0140   -1.0212 C   0  0  0  0  0  0  0  0  0  0  0  0
   -0.7417   -0.0622    1.0706 C   0  0  0  0  0  0  0  0  0  0  0  0
   -0.6626   -0.0134    2.4672 C   0  0  0  0  0  0  0  0  0  0  0  0
   -0.4156   -1.1536    3.2116 C   0  0  0  0  0  0  0  0  0  0  0  0
   -0.2253   -2.3745    2.5818 C   0  0  0  0  0  0  0  0  0  0  0  0
   -0.2918   -2.4424    1.1987 C   0  0  0  0  0  0  0  0  0  0  0  0
   -0.5493   -1.3049    0.4533 C   0  0  0  0  0  0  0  0  0  0  0  0
   -0.4200    2.6549    1.7396 H   0  0  0  0  0  0  0  0  0  0  0  0
   -1.1864    3.2870    0.2834 H   0  0  0  0  0  0  0  0  0  0  0  0
   -2.1570    2.4489    1.4938 H   0  0  0  0  0  0  0  0  0  0  0  0
   -2.7713    0.7427   -0.8012 H   0  0  0  0  0  0  0  0  0  0  0  0
   -1.7389    1.9556   -1.5710 H   0  0  0  0  0  0  0  0  0  0  0  0
   -1.3211    0.2538   -1.6830 H   0  0  0  0  0  0  0  0  0  0  0  0
   -0.8118    0.9236    2.9861 H   0  0  0  0  0  0  0  0  0  0  0  0
   -0.3718   -1.0876    4.2915 H   0  0  0  0  0  0  0  0  0  0  0  0
   -0.0279   -3.2653    3.1643 H   0  0  0  0  0  0  0  0  0  0  0  0
   -0.1416   -3.3876    0.6927 H   0  0  0  0  0  0  0  0  0  0  0  0
   -0.5870   -1.3876   -0.6238 H   0  0  0  0  0  0  0  0  0  0  0  0
  1  2  1  0
  1  4  1  0
  1  5  1  0
  1  6  1  0
  2  3  2  0
  2  7  1  0
  8  9  1  0
  8 17  1  0
  8 18  1  0
  8 19  1  0
  9 10  1  0
  9 11  1  0
 10 20  1  0
 10 21  1  0
 10 22  1  0
 11 12  2  0
 11 16  1  0
 12 13  1  0
 12 23  1  0
 13 14  2  0
 13 24  1  0
 14 15  1  0
 14 25  1  0
 15 16  2  0
 15 26  1  0
 16 27  1  0
M  RAD  1   9   2
M  END
>  <reaction>  (4) 
rxn_1968

>  <mol_properties>  (4) 
{"0": {"label": "*1", "atom_type": "Cs"}, "1": {"label": "*0", "atom_type": "CS"}, "3": {"label": "*2", "atom_type": "H0"}, "8": {"label": "*3", "atom_type": "Cs"}, "10": {"label": "*4", "atom_type": "Cd"}}

>  <type>  (4) 
ts

$$$$

     RDKit          3D

 27 26  0  0  0  0  0  0  0  0999 V2000
    2.5091    0.7324   -0.5211 C   0  0  0  0  0  0  0  0  0  0  0  0
    2.5091   -0.4660   -1.4033 C   0  0  0  0  0  0  0  0  0  0  0  0
    2.5091   -0.4660   -3.0100 S   0  0  0  0  0  1  0  0  0  0  0  0
    1.4578    0.7002    0.2651 H   0  0  0  0  0  0  0  0  0  0  0  0
    3.3853    0.7056    0.1341 H   0  0  0  0  0  0  0  0  0  0  0  0
    2.5091    1.6562   -1.0958 H   0  0  0  0  0  0  0  0  0  0  0  0
    2.5091   -1.4204   -0.8734 H   0  0  0  0  0  0  0  0  0  0  0  0
    0.9091    0.6500    2.4959 C   0  0  0  0  0  0  0  0  0  0  0  0
    0.4069    0.6679    1.0511 C   0  0  0  0  0  0  0  0  0  0  0  0
    0.4517    2.0828    0.4713 C   0  0  0  0  0  0  0  0  0  0  0  0
   -0.9750    0.0599    0.9330 C   0  0  0  0  0  0  0  0  0  0  0  0
   -2.0693    0.6276    1.5820 C   0  0  0  0  0  0  0  0  0  0  0  0
   -3.3322    0.0700    1.4727 C   0  0  0  0  0  0  0  0  0  0  0  0
   -3.5276   -1.0719    0.7087 C   0  0  0  0  0  0  0  0  0  0  0  0
   -2.4490   -1.6474    0.0578 C   0  0  0  0  0  0  0  0  0  0  0  0
   -1.1860   -1.0836    0.1715 C   0  0  0  0  0  0  0  0  0  0  0  0
    0.8992   -0.3620    2.9033 H   0  0  0  0  0  0  0  0  0  0  0  0
    1.9298    1.0338    2.5527 H   0  0  0  0  0  0  0  0  0  0  0  0
    0.2822    1.2749    3.1362 H   0  0  0  0  0  0  0  0  0  0  0  0
   -0.1916    2.7592    1.0388 H   0  0  0  0  0  0  0  0  0  0  0  0
    1.4678    2.4810    0.5077 H   0  0  0  0  0  0  0  0  0  0  0  0
    0.1153    2.0934   -0.5665 H   0  0  0  0  0  0  0  0  0  0  0  0
   -1.9347    1.5197    2.1829 H   0  0  0  0  0  0  0  0  0  0  0  0
   -4.1687    0.5281    1.9859 H   0  0  0  0  0  0  0  0  0  0  0  0
   -4.5145   -1.5086    0.6227 H   0  0  0  0  0  0  0  0  0  0  0  0
   -2.5883   -2.5386   -0.5414 H   0  0  0  0  0  0  0  0  0  0  0  0
   -0.3476   -1.5412   -0.3418 H   0  0  0  0  0  0  0  0  0  0  0  0
  1  2  2  3
  1  5  1  0
  1  6  1  0
  2  3  1  0
  2  7  1  0
  4  9  1  0
  8  9  1  0
  8 17  1  0
  8 18  1  0
  8 19  1  0
  9 10  1  0
  9 11  1  0
 10 20  1  0
 10 21  1  0
 10 22  1  0
 11 12  2  0
 11 16  1  0
 12 13  1  0
 12 23  1  0
 13 14  2  0
 13 24  1  0
 14 15  1  0
 14 25  1  0
 15 16  2  0
 15 26  1  0
 16 27  1  0
M  RAD  1   3   2
M  END
>  <reaction>  (5) 
rxn_1968

>  <mol_properties>  (5) 
{"0": {"label": "*1", "atom_type": "Cs"}, "1": {"label": "*0", "atom_type": "CS"}, "3": {"label": "*2", "atom_type": "H0"}, "8": {"label": "*3", "atom_type": "Cs"}, "10": {"label": "*4", "atom_type": "Cd"}}

>  <type>  (5) 
unop_1

>  <geom_source>  (5) 
Heuristics

$$$$

     RDKit          3D

 27 26  0  0  0  0  0  0  0  0999 V2000
    2.3956   -0.2663   -0.4132 C   0  0  0  0  0  0  0  0  0  0  0  0
    2.3956   -1.4648   -1.2954 C   0  0  0  0  0  0  0  0  0  0  0  0
    2.3956   -1.4648   -2.9021 S   0  0  0  0  0  1  0  0  0  0  0  0
    1.3442   -0.2986    0.3730 H   0  0  0  0  0  0  0  0  0  0  0  0
    3.2717   -0.2932    0.2420 H   0  0  0  0  0  0  0  0  0  0  0  0
    2.3956    0.6575   -0.9879 H   0  0  0  0  0  0  0  0  0  0  0  0
    2.3956   -2.4192   -0.7655 H   0  0  0  0  0  0  0  0  0  0  0  0
   -0.0529   -1.7996    1.4097 C   0  0  0  0  0  0  0  0  0  0  0  0
    0.2933   -0.3309    1.1590 C   0  0  0  0  0  0  0  0  0  0  0  0
    1.0845    0.2548    2.3299 C   0  0  0  0  0  0  0  0  0  0  0  0
   -0.9424    0.4897    0.8544 C   0  0  0  0  0  0  0  0  0  0  0  0
   -1.9612    0.6330    1.7938 C   0  0  0  0  0  0  0  0  0  0  0  0
   -3.0905    1.3838    1.5132 C   0  0  0  0  0  0  0  0  0  0  0  0
   -3.2248    2.0096    0.2819 C   0  0  0  0  0  0  0  0  0  0  0  0
   -2.2200    1.8761   -0.6619 C   0  0  0  0  0  0  0  0  0  0  0  0
   -1.0909    1.1222   -0.3744 C   0  0  0  0  0  0  0  0  0  0  0  0
   -0.5974   -2.2251    0.5655 H   0  0  0  0  0  0  0  0  0  0  0  0
    0.8543   -2.3871    1.5653 H   0  0  0  0  0  0  0  0  0  0  0  0
   -0.6769   -1.9085    2.2998 H   0  0  0  0  0  0  0  0  0  0  0  0
    0.5014    0.2199    3.2530 H   0  0  0  0  0  0  0  0  0  0  0  0
    2.0032   -0.3120    2.4947 H   0  0  0  0  0  0  0  0  0  0  0  0
    1.3518    1.2958    2.1424 H   0  0  0  0  0  0  0  0  0  0  0  0
   -1.8727    0.1509    2.7607 H   0  0  0  0  0  0  0  0  0  0  0  0
   -3.8702    1.4816    2.2585 H   0  0  0  0  0  0  0  0  0  0  0  0
   -4.1072    2.5968    0.0617 H   0  0  0  0  0  0  0  0  0  0  0  0
   -2.3128    2.3595   -1.6265 H   0  0  0  0  0  0  0  0  0  0  0  0
   -0.3094    1.0234   -1.1197 H   0  0  0  0  0  0  0  0  0  0  0  0
  1  2  2  3
  1  5  1  0
  1  6  1  0
  2  3  1  0
  2  7  1  0
  4  9  1  0
  8  9  1  0
  8 17  1  0
  8 18  1  0
  8 19  1  0
  9 10  1  0
  9 11  1  0
 10 20  1  0
 10 21  1  0
 10 22  1  0
 11 12  2  0
 11 16  1  0
 12 13  1  0
 12 23  1  0
 13 14  2  0
 13 24  1  0
 14 15  1  0
 14 25  1  0
 15 16  2  0
 15 26  1  0
 16 27  1  0
M  RAD  1   3   2
M  END
>  <reaction>  (6) 
rxn_1968

>  <mol_properties>  (6) 
{"0": {"label": "*1", "atom_type": "Cs"}, "1": {"label": "*0", "atom_type": "CS"}, "3": {"label": "*2", "atom_type": "H0"}, "8": {"label": "*3", "atom_type": "Cs"}, "10": {"label": "*4", "atom_type": "Cd"}}

>  <type>  (6) 
unop_2

>  <geom_source>  (6) 
Heuristics

$$$$

     RDKit          3D

 27 26  0  0  0  0  0  0  0  0999 V2000
    2.1899    1.1826   -0.7803 C   0  0  0  0  0  0  0  0  0  0  0  0
    2.1899   -0.0158   -1.6625 C   0  0  0  0  0  0  0  0  0  0  0  0
    2.1899   -0.0158   -3.2692 S   0  0  0  0  0  1  0  0  0  0  0  0
    1.1385    1.1504    0.0060 H   0  0  0  0  0  0  0  0  0  0  0  0
    3.0661    1.1558   -0.1251 H   0  0  0  0  0  0  0  0  0  0  0  0
    2.1899    2.1064   -1.3550 H   0  0  0  0  0  0  0  0  0  0  0  0
    2.1899   -0.9703   -1.1326 H   0  0  0  0  0  0  0  0  0  0  0  0
    0.4605    1.8297    2.0936 C   0  0  0  0  0  0  0  0  0  0  0  0
    0.0876    1.1181    0.7919 C   0  0  0  0  0  0  0  0  0  0  0  0
   -0.5120    2.0983   -0.2179 C   0  0  0  0  0  0  0  0  0  0  0  0
   -0.8330   -0.0578    1.0426 C   0  0  0  0  0  0  0  0  0  0  0  0
   -2.0985    0.1237    1.5961 C   0  0  0  0  0  0  0  0  0  0  0  0
   -2.9389   -0.9531    1.8246 C   0  0  0  0  0  0  0  0  0  0  0  0
   -2.5291   -2.2392    1.5028 C   0  0  0  0  0  0  0  0  0  0  0  0
   -1.2735   -2.4350    0.9518 C   0  0  0  0  0  0  0  0  0  0  0  0
   -0.4363   -1.3517    0.7254 C   0  0  0  0  0  0  0  0  0  0  0  0
    0.9093    1.1364    2.8064 H   0  0  0  0  0  0  0  0  0  0  0  0
    1.1731    2.6345    1.9012 H   0  0  0  0  0  0  0  0  0  0  0  0
   -0.4207    2.2709    2.5651 H   0  0  0  0  0  0  0  0  0  0  0  0
   -1.4282    2.5491    0.1704 H   0  0  0  0  0  0  0  0  0  0  0  0
    0.1908    2.9057   -0.4336 H   0  0  0  0  0  0  0  0  0  0  0  0
   -0.7573    1.5966   -1.1551 H   0  0  0  0  0  0  0  0  0  0  0  0
   -2.4347    1.1216    1.8535 H   0  0  0  0  0  0  0  0  0  0  0  0
   -3.9186   -0.7886    2.2559 H   0  0  0  0  0  0  0  0  0  0  0  0
   -3.1853   -3.0816    1.6810 H   0  0  0  0  0  0  0  0  0  0  0  0
   -0.9419   -3.4338    0.6963 H   0  0  0  0  0  0  0  0  0  0  0  0
    0.5450   -1.5148    0.2936 H   0  0  0  0  0  0  0  0  0  0  0  0
  1  2  2  3
  1  5  1  0
  1  6  1  0
  2  3  1  0
  2  7  1  0
  4  9  1  0
  8  9  1  0
  8 17  1  0
  8 18  1  0
  8 19  1  0
  9 10  1  0
  9 11  1  0
 10 20  1  0
 10 21  1  0
 10 22  1  0
 11 12  2  0
 11 16  1  0
 12 13  1  0
 12 23  1  0
 13 14  2  0
 13 24  1  0
 14 15  1  0
 14 25  1  0
 15 16  2  0
 15 26  1  0
 16 27  1  0
M  RAD  1   3   2
M  END
>  <reaction>  (7) 
rxn_1968

>  <mol_properties>  (7) 
{"0": {"label": "*1", "atom_type": "Cs"}, "1": {"label": "*0", "atom_type": "CS"}, "3": {"label": "*2", "atom_type": "H0"}, "8": {"label": "*3", "atom_type": "Cs"}, "10": {"label": "*4", "atom_type": "Cd"}}

>  <type>  (7) 
unop_3

>  <geom_source>  (7) 
Heuristics

$$$$

     RDKit          3D

 27 25  0  0  0  0  0  0  0  0999 V2000
    1.1144   -0.7685   -0.7985 C   0  0  0  0  0  2  0  0  0  0  0  0
    1.1144   -1.9669   -1.6807 C   0  0  0  0  0  3  0  0  0  0  0  0
    1.1144   -1.9669   -3.2874 S   0  0  0  0  0  0  0  0  0  0  0  0
    0.0631   -0.8007   -0.0122 H   0  0  0  0  0  0  0  0  0  0  0  0
    1.9906   -0.7953   -0.1433 H   0  0  0  0  0  0  0  0  0  0  0  0
    1.1144    0.1553   -1.3732 H   0  0  0  0  0  0  0  0  0  0  0  0
    1.1144   -2.9213   -1.1508 H   0  0  0  0  0  0  0  0  0  0  0  0
   -2.2320   -0.8378   -0.1162 C   0  0  0  0  0  0  0  0  0  0  0  0
   -0.9878   -0.8330    0.7737 C   0  0  0  0  0  0  0  0  0  0  0  0
   -1.2421   -1.5909    2.0779 C   0  0  0  0  0  0  0  0  0  0  0  0
   -0.4929    0.5744    1.0334 C   0  0  0  0  0  0  0  0  0  0  0  0
   -1.2829    1.5024    1.7084 C   0  0  0  0  0  0  0  0  0  0  0  0
   -0.8284    2.7890    1.9449 C   0  0  0  0  0  0  0  0  0  0  0  0
    0.4311    3.1757    1.5093 C   0  0  0  0  0  0  0  0  0  0  0  0
    1.2277    2.2638    0.8369 C   0  0  0  0  0  0  0  0  0  0  0  0
    0.7663    0.9761    0.6032 C   0  0  0  0  0  0  0  0  0  0  0  0
   -2.0451   -0.3173   -1.0566 H   0  0  0  0  0  0  0  0  0  0  0  0
   -2.5374   -1.8612   -0.3442 H   0  0  0  0  0  0  0  0  0  0  0  0
   -3.0701   -0.3428    0.3797 H   0  0  0  0  0  0  0  0  0  0  0  0
   -2.0446   -1.1229    2.6527 H   0  0  0  0  0  0  0  0  0  0  0  0
   -1.5375   -2.6218    1.8720 H   0  0  0  0  0  0  0  0  0  0  0  0
   -0.3486   -1.6078    2.7036 H   0  0  0  0  0  0  0  0  0  0  0  0
   -2.2694    1.2172    2.0556 H   0  0  0  0  0  0  0  0  0  0  0  0
   -1.4596    3.4941    2.4716 H   0  0  0  0  0  0  0  0  0  0  0  0
    0.7873    4.1813    1.6937 H   0  0  0  0  0  0  0  0  0  0  0  0
    2.2126    2.5532    0.4919 H   0  0  0  0  0  0  0  0  0  0  0  0
    1.3972    0.2691    0.0759 H   0  0  0  0  0  0  0  0  0  0  0  0
  1  5  1  0
  1  6  1  0
  2  3  2  0
  2  7  1  0
  4  9  1  0
  8  9  1  0
  8 17  1  0
  8 18  1  0
  8 19  1  0
  9 10  1  0
  9 11  1  0
 10 20  1  0
 10 21  1  0
 10 22  1  0
 11 12  2  0
 11 16  1  0
 12 13  1  0
 12 23  1  0
 13 14  2  0
 13 24  1  0
 14 15  1  0
 14 25  1  0
 15 16  2  0
 15 26  1  0
 16 27  1  0
M  RAD  2   1   3   2   2
M  END
>  <reaction>  (8) 
rxn_1968

>  <mol_properties>  (8) 
{"0": {"label": "*1", "atom_type": "Cs"}, "1": {"label": "*0", "atom_type": "CS"}, "3": {"label": "*2", "atom_type": "H0"}, "8": {"label": "*3", "atom_type": "Cs"}, "10": {"label": "*4", "atom_type": "Cd"}}

>  <type>  (8) 
unop_4

>  <geom_source>  (8) 
Heuristics

$$$$

     RDKit          3D

 27 26  0  0  0  0  0  0  0  0999 V2000
    1.4205    1.2993   -1.2315 C   0  0  0  0  0  0  0  0  0  0  0  0
    1.4205    0.1008   -2.1137 C   0  0  0  0  0  0  0  0  0  0  0  0
    1.4205    0.1008   -3.7204 S   0  0  0  0  0  1  0  0  0  0  0  0
    0.3691    1.2670   -0.4453 H   0  0  0  0  0  0  0  0  0  0  0  0
    2.2966    1.2724   -0.5763 H   0  0  0  0  0  0  0  0  0  0  0  0
    1.4205    2.2231   -1.8062 H   0  0  0  0  0  0  0  0  0  0  0  0
    1.4205   -0.8536   -1.5838 H   0  0  0  0  0  0  0  0  0  0  0  0
   -0.6376    2.4822    1.2249 C   0  0  0  0  0  0  0  0  0  0  0  0
   -0.6818    1.2348    0.3407 C   0  0  0  0  0  0  0  0  0  0  0  0
   -1.9261    1.2357   -0.5491 C   0  0  0  0  0  0  0  0  0  0  0  0
   -0.5831   -0.0344    1.1608 C   0  0  0  0  0  0  0  0  0  0  0  0
   -1.5585   -0.3626    2.0998 C   0  0  0  0  0  0  0  0  0  0  0  0
   -1.4663   -1.5238    2.8488 C   0  0  0  0  0  0  0  0  0  0  0  0
   -0.3920   -2.3845    2.6733 C   0  0  0  0  0  0  0  0  0  0  0  0
    0.5854   -2.0712    1.7433 C   0  0  0  0  0  0  0  0  0  0  0  0
    0.4870   -0.9060    0.9960 C   0  0  0  0  0  0  0  0  0  0  0  0
    0.2609    2.4942    1.8436 H   0  0  0  0  0  0  0  0  0  0  0  0
   -0.6465    3.3871    0.6137 H   0  0  0  0  0  0  0  0  0  0  0  0
   -1.5030    2.5214    1.8905 H   0  0  0  0  0  0  0  0  0  0  0  0
   -2.8379    1.2300    0.0527 H   0  0  0  0  0  0  0  0  0  0  0  0
   -1.9480    2.1280   -1.1782 H   0  0  0  0  0  0  0  0  0  0  0  0
   -1.9473    0.3580   -1.1966 H   0  0  0  0  0  0  0  0  0  0  0  0
   -2.4045    0.2984    2.2498 H   0  0  0  0  0  0  0  0  0  0  0  0
   -2.2362   -1.7591    3.5733 H   0  0  0  0  0  0  0  0  0  0  0  0
   -0.3191   -3.2925    3.2583 H   0  0  0  0  0  0  0  0  0  0  0  0
    1.4287   -2.7346    1.5969 H   0  0  0  0  0  0  0  0  0  0  0  0
    1.2571   -0.6692    0.2703 H   0  0  0  0  0  0  0  0  0  0  0  0
  1  2  2  3
  1  5  1  0
  1  6  1  0
  2  3  1  0
  2  7  1  0
  4  9  1  0
  8  9  1  0
  8 17  1  0
  8 18  1  0
  8 19  1  0
  9 10  1  0
  9 11  1  0
 10 20  1  0
 10 21  1  0
 10 22  1  0
 11 12  2  0
 11 16  1  0
 12 13  1  0
 12 23  1  0
 13 14  2  0
 13 24  1  0
 14 15  1  0
 14 25  1  0
 15 16  2  0
 15 26  1  0
 16 27  1  0
M  RAD  1   3   2
M  END
>  <reaction>  (9) 
rxn_1968

>  <mol_properties>  (9) 
{"0": {"label": "*1", "atom_type": "Cs"}, "1": {"label": "*0", "atom_type": "CS"}, "3": {"label": "*2", "atom_type": "H0"}, "8": {"label": "*3", "atom_type": "Cs"}, "10": {"label": "*4", "atom_type": "Cd"}}

>  <type>  (9) 
unop_5

>  <geom_source>  (9) 
Heuristics

$$$$

     RDKit          3D

 27 25  0  0  0  0  0  0  0  0999 V2000
    0.7259   -0.4510   -1.0909 C   0  0  0  0  0  2  0  0  0  0  0  0
    0.7259   -1.6495   -1.9731 C   0  0  0  0  0  3  0  0  0  0  0  0
    0.7259   -1.6495   -3.5797 S   0  0  0  0  0  0  0  0  0  0  0  0
   -0.3254   -0.4833   -0.3046 H   0  0  0  0  0  0  0  0  0  0  0  0
    1.6021   -0.4779   -0.4356 H   0  0  0  0  0  0  0  0  0  0  0  0
    0.7259    0.4728   -1.6655 H   0  0  0  0  0  0  0  0  0  0  0  0
    0.7259   -2.6039   -1.4431 H   0  0  0  0  0  0  0  0  0  0  0  0
   -2.5160    0.2074   -0.2388 C   0  0  0  0  0  0  0  0  0  0  0  0
   -1.3764   -0.5156    0.4814 C   0  0  0  0  0  0  0  0  0  0  0  0
   -1.9190   -1.5024    1.5166 C   0  0  0  0  0  0  0  0  0  0  0  0
   -0.3986    0.4612    1.1003 C   0  0  0  0  0  0  0  0  0  0  0  0
   -0.7997    1.3463    2.0987 C   0  0  0  0  0  0  0  0  0  0  0  0
    0.0961    2.2388    2.6634 C   0  0  0  0  0  0  0  0  0  0  0  0
    1.4171    2.2647    2.2394 C   0  0  0  0  0  0  0  0  0  0  0  0
    1.8302    1.3906    1.2476 C   0  0  0  0  0  0  0  0  0  0  0  0
    0.9276    0.4987    0.6858 C   0  0  0  0  0  0  0  0  0  0  0  0
   -2.1310    0.8948   -0.9934 H   0  0  0  0  0  0  0  0  0  0  0  0
   -3.1755   -0.5100   -0.7315 H   0  0  0  0  0  0  0  0  0  0  0  0
   -3.1192    0.7859    0.4647 H   0  0  0  0  0  0  0  0  0  0  0  0
   -2.5008   -0.9854    2.2832 H   0  0  0  0  0  0  0  0  0  0  0  0
   -2.5726   -2.2370    1.0416 H   0  0  0  0  0  0  0  0  0  0  0  0
   -1.1080   -2.0353    2.0150 H   0  0  0  0  0  0  0  0  0  0  0  0
   -1.8279    1.3396    2.4419 H   0  0  0  0  0  0  0  0  0  0  0  0
   -0.2376    2.9179    3.4383 H   0  0  0  0  0  0  0  0  0  0  0  0
    2.1181    2.9620    2.6802 H   0  0  0  0  0  0  0  0  0  0  0  0
    2.8585    1.4009    0.9079 H   0  0  0  0  0  0  0  0  0  0  0  0
    1.2602   -0.1818   -0.0901 H   0  0  0  0  0  0  0  0  0  0  0  0
  1  5  1  0
  1  6  1  0
  2  3  2  0
  2  7  1  0
  4  9  1  0
  8  9  1  0
  8 17  1  0
  8 18  1  0
  8 19  1  0
  9 10  1  0
  9 11  1  0
 10 20  1  0
 10 21  1  0
 10 22  1  0
 11 12  2  0
 11 16  1  0
 12 13  1  0
 12 23  1  0
 13 14  2  0
 13 24  1  0
 14 15  1  0
 14 25  1  0
 15 16  2  0
 15 26  1  0
 16 27  1  0
M  RAD  2   1   3   2   2
M  END
>  <reaction>  (10) 
rxn_1968

>  <mol_properties>  (10) 
{"0": {"label": "*1", "atom_type": "Cs"}, "1": {"label": "*0", "atom_type": "CS"}, "3": {"label": "*2", "atom_type": "H0"}, "8": {"label": "*3", "atom_type": "Cs"}, "10": {"label": "*4", "atom_type": "Cd"}}

>  <type>  (10) 
unop_6

>  <geom_source>  (10) 
Heuristics

$$$$

     RDKit          3D

 27 25  0  0  0  0  0  0  0  0999 V2000
    0.5513    0.0766   -1.3154 C   0  0  0  0  0  2  0  0  0  0  0  0
    0.5513   -1.1218   -2.1976 C   0  0  0  0  0  3  0  0  0  0  0  0
    0.5513   -1.1218   -3.8042 S   0  0  0  0  0  0  0  0  0  0  0  0
   -0.5001    0.0444   -0.5291 H   0  0  0  0  0  0  0  0  0  0  0  0
    1.4274    0.0497   -0.6601 H   0  0  0  0  0  0  0  0  0  0  0  0
    0.5513    1.0004   -1.8900 H   0  0  0  0  0  0  0  0  0  0  0  0
    0.5513   -2.0763   -1.6676 H   0  0  0  0  0  0  0  0  0  0  0  0
   -2.3800    1.2661   -0.0262 C   0  0  0  0  0  0  0  0  0  0  0  0
   -1.5510    0.0121    0.2569 C   0  0  0  0  0  0  0  0  0  0  0  0
   -2.4213   -1.1015    0.8421 C   0  0  0  0  0  0  0  0  0  0  0  0
   -0.3631    0.3172    1.1451 C   0  0  0  0  0  0  0  0  0  0  0  0
   -0.5377    0.7958    2.4418 C   0  0  0  0  0  0  0  0  0  0  0  0
    0.5501    1.0742    3.2525 C   0  0  0  0  0  0  0  0  0  0  0  0
    1.8405    0.8787    2.7809 C   0  0  0  0  0  0  0  0  0  0  0  0
    2.0295    0.4034    1.4939 C   0  0  0  0  0  0  0  0  0  0  0  0
    0.9352    0.1264    0.6866 C   0  0  0  0  0  0  0  0  0  0  0  0
   -1.7652    2.0534   -0.4649 H   0  0  0  0  0  0  0  0  0  0  0  0
   -3.1946    1.0403   -0.7176 H   0  0  0  0  0  0  0  0  0  0  0  0
   -2.8220    1.6590    0.8923 H   0  0  0  0  0  0  0  0  0  0  0  0
   -2.8648   -0.7937    1.7919 H   0  0  0  0  0  0  0  0  0  0  0  0
   -3.2363   -1.3511    0.1596 H   0  0  0  0  0  0  0  0  0  0  0  0
   -1.8360   -2.0041    1.0233 H   0  0  0  0  0  0  0  0  0  0  0  0
   -1.5387    0.9542    2.8262 H   0  0  0  0  0  0  0  0  0  0  0  0
    0.3909    1.4455    4.2573 H   0  0  0  0  0  0  0  0  0  0  0  0
    2.6915    1.0960    3.4139 H   0  0  0  0  0  0  0  0  0  0  0  0
    3.0315    0.2466    1.1141 H   0  0  0  0  0  0  0  0  0  0  0  0
    1.0930   -0.2455   -0.3197 H   0  0  0  0  0  0  0  0  0  0  0  0
  1  5  1  0
  1  6  1  0
  2  3  2  0
  2  7  1  0
  4  9  1  0
  8  9  1  0
  8 17  1  0
  8 18  1  0
  8 19  1  0
  9 10  1  0
  9 11  1  0
 10 20  1  0
 10 21  1  0
 10 22  1  0
 11 12  2  0
 11 16  1  0
 12 13  1  0
 12 23  1  0
 13 14  2  0
 13 24  1  0
 14 15  1  0
 14 25  1  0
 15 16  2  0
 15 26  1  0
 16 27  1  0
M  RAD  2   1   3   2   2
M  END
>  <reaction>  (11) 
rxn_1968

>  <mol_properties>  (11) 
{"0": {"label": "*1", "atom_type": "Cs"}, "1": {"label": "*0", "atom_type": "CS"}, "3": {"label": "*2", "atom_type": "H0"}, "8": {"label": "*3", "atom_type": "Cs"}, "10": {"label": "*4", "atom_type": "Cd"}}

>  <type>  (11) 
unop_7

>  <geom_source>  (11) 
Heuristics

$$$$

     RDKit          3D

 27 26  0  0  0  0  0  0  0  0999 V2000
    2.5719    0.3346   -0.4577 C   0  0  0  0  0  0  0  0  0  0  0  0
    2.5719   -0.8638   -1.3399 C   0  0  0  0  0  0  0  0  0  0  0  0
    2.5719   -0.8638   -2.9465 S   0  0  0  0  0  1  0  0  0  0  0  0
    1.5206    0.3023    0.3286 H   0  0  0  0  0  0  0  0  0  0  0  0
    3.4481    0.3077    0.1975 H   0  0  0  0  0  0  0  0  0  0  0  0
    2.5719    1.2584   -1.0324 H   0  0  0  0  0  0  0  0  0  0  0  0
    2.5719   -1.8183   -0.8099 H   0  0  0  0  0  0  0  0  0  0  0  0
    0.8673   -0.4756    2.3896 C   0  0  0  0  0  0  0  0  0  0  0  0
    0.4697    0.2701    1.1146 C   0  0  0  0  0  0  0  0  0  0  0  0
    0.9785    1.7124    1.1402 C   0  0  0  0  0  0  0  0  0  0  0  0
   -1.0244    0.2095    0.8755 C   0  0  0  0  0  0  0  0  0  0  0  0
   -1.9218    0.7720    1.7807 C   0  0  0  0  0  0  0  0  0  0  0  0
   -3.2879    0.7155    1.5602 C   0  0  0  0  0  0  0  0  0  0  0  0
   -3.7867    0.0926    0.4249 C   0  0  0  0  0  0  0  0  0  0  0  0
   -2.9065   -0.4710   -0.4838 C   0  0  0  0  0  0  0  0  0  0  0  0
   -1.5388   -0.4110   -0.2569 C   0  0  0  0  0  0  0  0  0  0  0  0
    0.5248   -1.5111    2.3628 H   0  0  0  0  0  0  0  0  0  0  0  0
    1.9524   -0.4753    2.5125 H   0  0  0  0  0  0  0  0  0  0  0  0
    0.4320   -0.0017    3.2724 H   0  0  0  0  0  0  0  0  0  0  0  0
    0.5472    2.2651    1.9781 H   0  0  0  0  0  0  0  0  0  0  0  0
    2.0647    1.7349    1.2505 H   0  0  0  0  0  0  0  0  0  0  0  0
    0.7154    2.2388    0.2216 H   0  0  0  0  0  0  0  0  0  0  0  0
   -1.5494    1.2624    2.6728 H   0  0  0  0  0  0  0  0  0  0  0  0
   -3.9672    1.1595    2.2773 H   0  0  0  0  0  0  0  0  0  0  0  0
   -4.8545    0.0480    0.2517 H   0  0  0  0  0  0  0  0  0  0  0  0
   -3.2833   -0.9600   -1.3737 H   0  0  0  0  0  0  0  0  0  0  0  0
   -0.8574   -0.8551   -0.9741 H   0  0  0  0  0  0  0  0  0  0  0  0
  1  2  2  3
  1  5  1  0
  1  6  1  0
  2  3  1  0
  2  7  1  0
  4  9  1  0
  8  9  1  0
  8 17  1  0
  8 18  1  0
  8 19  1  0
  9 10  1  0
  9 11  1  0
 10 20  1  0
 10 21  1  0
 10 22  1  0
 11 12  2  0
 11 16  1  0
 12 13  1  0
 12 23  1  0
 13 14  2  0
 13 24  1  0
 14 15  1  0
 14 25  1  0
 15 16  2  0
 15 26  1  0
 16 27  1  0
M  RAD  1   3   2
M  END
>  <reaction>  (12) 
rxn_1968

>  <mol_properties>  (12) 
{"0": {"label": "*1", "atom_type": "Cs"}, "1": {"label": "*0", "atom_type": "CS"}, "3": {"label": "*2", "atom_type": "H0"}, "8": {"label": "*3", "atom_type": "Cs"}, "10": {"label": "*4", "atom_type": "Cd"}}

>  <type>  (12) 
unop_8

>  <geom_source>  (12) 
Heuristics

$$$$

     RDKit          3D

 27 26  0  0  0  0  0  0  0  0999 V2000
    1.6240   -0.8100   -0.5290 C   0  0  0  0  0  0  0  0  0  0  0  0
    1.6240   -2.0085   -1.4112 C   0  0  0  0  0  0  0  0  0  0  0  0
    1.6240   -2.0085   -3.0179 S   0  0  0  0  0  1  0  0  0  0  0  0
    0.5726   -0.8423    0.2573 H   0  0  0  0  0  0  0  0  0  0  0  0
    2.5002   -0.8369    0.1262 H   0  0  0  0  0  0  0  0  0  0  0  0
    1.6240    0.1138   -1.1037 H   0  0  0  0  0  0  0  0  0  0  0  0
    1.6240   -2.9629   -0.8813 H   0  0  0  0  0  0  0  0  0  0  0  0
   -1.5931   -1.6090    0.2964 C   0  0  0  0  0  0  0  0  0  0  0  0
   -0.4783   -0.8746    1.0432 C   0  0  0  0  0  0  0  0  0  0  0  0
   -0.3887   -1.3438    2.4964 C   0  0  0  0  0  0  0  0  0  0  0  0
   -0.6406    0.6282    0.9510 C   0  0  0  0  0  0  0  0  0  0  0  0
   -1.7579    1.2659    1.4857 C   0  0  0  0  0  0  0  0  0  0  0  0
   -1.9044    2.6403    1.4003 C   0  0  0  0  0  0  0  0  0  0  0  0
   -0.9323    3.4087    0.7755 C   0  0  0  0  0  0  0  0  0  0  0  0
    0.1839    2.7884    0.2392 C   0  0  0  0  0  0  0  0  0  0  0  0
    0.3247    1.4107    0.3282 C   0  0  0  0  0  0  0  0  0  0  0  0
   -1.6432   -1.2919   -0.7463 H   0  0  0  0  0  0  0  0  0  0  0  0
   -1.4257   -2.6878    0.3202 H   0  0  0  0  0  0  0  0  0  0  0  0
   -2.5658   -1.4127    0.7532 H   0  0  0  0  0  0  0  0  0  0  0  0
   -1.3181   -1.1380    3.0324 H   0  0  0  0  0  0  0  0  0  0  0  0
   -0.2092   -2.4199    2.5424 H   0  0  0  0  0  0  0  0  0  0  0  0
    0.4208   -0.8374    3.0241 H   0  0  0  0  0  0  0  0  0  0  0  0
   -2.5269    0.6810    1.9772 H   0  0  0  0  0  0  0  0  0  0  0  0
   -2.7813    3.1150    1.8231 H   0  0  0  0  0  0  0  0  0  0  0  0
   -1.0460    4.4832    0.7082 H   0  0  0  0  0  0  0  0  0  0  0  0
    0.9497    3.3769   -0.2509 H   0  0  0  0  0  0  0  0  0  0  0  0
    1.2021    0.9341   -0.0946 H   0  0  0  0  0  0  0  0  0  0  0  0
  1  2  2  3
  1  5  1  0
  1  6  1  0
  2  3  1  0
  2  7  1  0
  4  9  1  0
  8  9  1  0
  8 17  1  0
  8 18  1  0
  8 19  1  0
  9 10  1  0
  9 11  1  0
 10 20  1  0
 10 21  1  0
 10 22  1  0
 11 12  2  0
 11 16  1  0
 12 13  1  0
 12 23  1  0
 13 14  2  0
 13 24  1  0
 14 15  1  0
 14 25  1  0
 15 16  2  0
 15 26  1  0
 16 27  1  0
M  RAD  1   3   2
M  END
>  <reaction>  (13) 
rxn_1968

>  <mol_properties>  (13) 
{"0": {"label": "*1", "atom_type": "Cs"}, "1": {"label": "*0", "atom_type": "CS"}, "3": {"label": "*2", "atom_type": "H0"}, "8": {"label": "*3", "atom_type": "Cs"}, "10": {"label": "*4", "atom_type": "Cd"}}

>  <type>  (13) 
unop_9

>  <geom_source>  (13) 
Heuristics

$$$$

     RDKit          3D

 27 26  0  0  0  0  0  0  0  0999 V2000
    2.5274    0.0268   -0.4480 C   0  0  0  0  0  0  0  0  0  0  0  0
    2.5274   -1.1716   -1.3302 C   0  0  0  0  0  0  0  0  0  0  0  0
    2.5274   -1.1716   -2.9369 S   0  0  0  0  0  1  0  0  0  0  0  0
    1.4760   -0.0054    0.3383 H   0  0  0  0  0  0  0  0  0  0  0  0
    3.4035   -0.0001    0.2072 H   0  0  0  0  0  0  0  0  0  0  0  0
    2.5274    0.9506   -1.0227 H   0  0  0  0  0  0  0  0  0  0  0  0
    2.5274   -2.1261   -0.8003 H   0  0  0  0  0  0  0  0  0  0  0  0
    0.5122   -1.3145    1.9622 C   0  0  0  0  0  0  0  0  0  0  0  0
    0.4251   -0.0377    1.1242 C   0  0  0  0  0  0  0  0  0  0  0  0
    1.2083    1.1026    1.7771 C   0  0  0  0  0  0  0  0  0  0  0  0
   -1.0121    0.3555    0.8539 C   0  0  0  0  0  0  0  0  0  0  0  0
   -1.8767    0.6843    1.8956 C   0  0  0  0  0  0  0  0  0  0  0  0
   -3.1907    1.0437    1.6463 C   0  0  0  0  0  0  0  0  0  0  0  0
   -3.6691    1.0817    0.3442 C   0  0  0  0  0  0  0  0  0  0  0  0
   -2.8209    0.7574   -0.7016 C   0  0  0  0  0  0  0  0  0  0  0  0
   -1.5053    0.3981   -0.4449 C   0  0  0  0  0  0  0  0  0  0  0  0
   -0.0269   -2.1349    1.4864 H   0  0  0  0  0  0  0  0  0  0  0  0
    1.5530   -1.6174    2.0940 H   0  0  0  0  0  0  0  0  0  0  0  0
    0.0816   -1.1618    2.9545 H   0  0  0  0  0  0  0  0  0  0  0  0
    0.8027    1.3422    2.7628 H   0  0  0  0  0  0  0  0  0  0  0  0
    2.2562    0.8240    1.9070 H   0  0  0  0  0  0  0  0  0  0  0  0
    1.1661    2.0074    1.1691 H   0  0  0  0  0  0  0  0  0  0  0  0
   -1.5196    0.6598    2.9189 H   0  0  0  0  0  0  0  0  0  0  0  0
   -3.8453    1.2954    2.4715 H   0  0  0  0  0  0  0  0  0  0  0  0
   -4.6961    1.3625    0.1482 H   0  0  0  0  0  0  0  0  0  0  0  0
   -3.1822    0.7832   -1.7222 H   0  0  0  0  0  0  0  0  0  0  0  0
   -0.8488    0.1458   -1.2702 H   0  0  0  0  0  0  0  0  0  0  0  0
  1  2  2  3
  1  5  1  0
  1  6  1  0
  2  3  1  0
  2  7  1  0
  4  9  1  0
  8  9  1  0
  8 17  1  0
  8 18  1  0
  8 19  1  0
  9 10  1  0
  9 11  1  0
 10 20  1  0
 10 21  1  0
 10 22  1  0
 11 12  2  0
 11 16  1  0
 12 13  1  0
 12 23  1  0
 13 14  2  0
 13 24  1  0
 14 15  1  0
 14 25  1  0
 15 16  2  0
 15 26  1  0
 16 27  1  0
M  RAD  1   3   2
M  END
>  <reaction>  (14) 
rxn_1968

>  <mol_properties>  (14) 
{"0": {"label": "*1", "atom_type": "Cs"}, "1": {"label": "*0", "atom_type": "CS"}, "3": {"label": "*2", "atom_type": "H0"}, "8": {"label": "*3", "atom_type": "Cs"}, "10": {"label": "*4", "atom_type": "Cd"}}

>  <type>  (14) 
unop_10

>  <geom_source>  (14) 
Heuristics

$$$$

     RDKit          3D

 27 26  0  0  0  0  0  0  0  0999 V2000
    0.7183    0.7460   -1.4163 C   0  0  0  0  0  0  0  0  0  0  0  0
    0.7183   -0.4525   -2.2985 C   0  0  0  0  0  0  0  0  0  0  0  0
    0.7183   -0.4525   -3.9051 S   0  0  0  0  0  1  0  0  0  0  0  0
   -0.3331    0.7137   -0.6300 H   0  0  0  0  0  0  0  0  0  0  0  0
    1.5944    0.7191   -0.7610 H   0  0  0  0  0  0  0  0  0  0  0  0
    0.7183    1.6698   -1.9909 H   0  0  0  0  0  0  0  0  0  0  0  0
    0.7183   -1.4069   -1.7685 H   0  0  0  0  0  0  0  0  0  0  0  0
   -1.7797    2.1274    0.4601 C   0  0  0  0  0  0  0  0  0  0  0  0
   -1.3840    0.6815    0.1560 C   0  0  0  0  0  0  0  0  0  0  0  0
   -2.6193   -0.2130    0.0373 C   0  0  0  0  0  0  0  0  0  0  0  0
   -0.4025    0.1450    1.1767 C   0  0  0  0  0  0  0  0  0  0  0  0
   -0.7526    0.0279    2.5201 C   0  0  0  0  0  0  0  0  0  0  0  0
    0.1465   -0.4630    3.4520 C   0  0  0  0  0  0  0  0  0  0  0  0
    1.4199   -0.8486    3.0579 C   0  0  0  0  0  0  0  0  0  0  0  0
    1.7821   -0.7379    1.7256 C   0  0  0  0  0  0  0  0  0  0  0  0
    0.8764   -0.2452    0.7968 C   0  0  0  0  0  0  0  0  0  0  0  0
   -0.9010    2.7710    0.5224 H   0  0  0  0  0  0  0  0  0  0  0  0
   -2.4375    2.5179   -0.3192 H   0  0  0  0  0  0  0  0  0  0  0  0
   -2.3130    2.1958    1.4111 H   0  0  0  0  0  0  0  0  0  0  0  0
   -3.1827   -0.2288    0.9731 H   0  0  0  0  0  0  0  0  0  0  0  0
   -3.2855    0.1539   -0.7463 H   0  0  0  0  0  0  0  0  0  0  0  0
   -2.3398   -1.2400   -0.2022 H   0  0  0  0  0  0  0  0  0  0  0  0
   -1.7433    0.3245    2.8453 H   0  0  0  0  0  0  0  0  0  0  0  0
   -0.1472   -0.5454    4.4912 H   0  0  0  0  0  0  0  0  0  0  0  0
    2.1235   -1.2325    3.7856 H   0  0  0  0  0  0  0  0  0  0  0  0
    2.7730   -1.0354    1.4053 H   0  0  0  0  0  0  0  0  0  0  0  0
    1.1691   -0.1621   -0.2440 H   0  0  0  0  0  0  0  0  0  0  0  0
  1  2  2  3
  1  5  1  0
  1  6  1  0
  2  3  1  0
  2  7  1  0
  4  9  1  0
  8  9  1  0
  8 17  1  0
  8 18  1  0
  8 19  1  0
  9 10  1  0
  9 11  1  0
 10 20  1  0
 10 21  1  0
 10 22  1  0
 11 12  2  0
 11 16  1  0
 12 13  1  0
 12 23  1  0
 13 14  2  0
 13 24  1  0
 14 15  1  0
 14 25  1  0
 15 16  2  0
 15 26  1  0
 16 27  1  0
M  RAD  1   3   2
M  END
>  <reaction>  (15) 
rxn_1968

>  <mol_properties>  (15) 
{"0": {"label": "*1", "atom_type": "Cs"}, "1": {"label": "*0", "atom_type": "CS"}, "3": {"label": "*2", "atom_type": "H0"}, "8": {"label": "*3", "atom_type": "Cs"}, "10": {"label": "*4", "atom_type": "Cd"}}

>  <type>  (15) 
unop_11

>  <geom_source>  (15) 
Heuristics

$$$$

     RDKit          3D

 27 26  0  0  0  0  0  0  0  0999 V2000
    2.1008   -0.5882   -0.3994 C   0  0  0  0  0  0  0  0  0  0  0  0
    2.1008   -1.7867   -1.2816 C   0  0  0  0  0  0  0  0  0  0  0  0
    2.1008   -1.7867   -2.8882 S   0  0  0  0  0  1  0  0  0  0  0  0
    1.0494   -0.6205    0.3869 H   0  0  0  0  0  0  0  0  0  0  0  0
    2.9769   -0.6151    0.2558 H   0  0  0  0  0  0  0  0  0  0  0  0
    2.1008    0.3355   -0.9740 H   0  0  0  0  0  0  0  0  0  0  0  0
    2.1008   -2.7411   -0.7516 H   0  0  0  0  0  0  0  0  0  0  0  0
   -0.7876   -1.9230    0.8435 C   0  0  0  0  0  0  0  0  0  0  0  0
   -0.0015   -0.6528    1.1729 C   0  0  0  0  0  0  0  0  0  0  0  0
    0.5009   -0.6765    2.6175 C   0  0  0  0  0  0  0  0  0  0  0  0
   -0.8098    0.5946    0.8835 C   0  0  0  0  0  0  0  0  0  0  0  0
   -1.9978    0.8564    1.5624 C   0  0  0  0  0  0  0  0  0  0  0  0
   -2.7356    1.9978    1.2962 C   0  0  0  0  0  0  0  0  0  0  0  0
   -2.2984    2.9049    0.3414 C   0  0  0  0  0  0  0  0  0  0  0  0
   -1.1191    2.6578   -0.3416 C   0  0  0  0  0  0  0  0  0  0  0  0
   -0.3845    1.5121   -0.0701 C   0  0  0  0  0  0  0  0  0  0  0  0
   -1.1270   -1.9179   -0.1933 H   0  0  0  0  0  0  0  0  0  0  0  0
   -0.1685   -2.8091    0.9984 H   0  0  0  0  0  0  0  0  0  0  0  0
   -1.6680   -2.0158    1.4836 H   0  0  0  0  0  0  0  0  0  0  0  0
   -0.3332   -0.7244    3.3215 H   0  0  0  0  0  0  0  0  0  0  0  0
    1.1329   -1.5501    2.7903 H   0  0  0  0  0  0  0  0  0  0  0  0
    1.0811    0.2184    2.8470 H   0  0  0  0  0  0  0  0  0  0  0  0
   -2.3540    0.1585    2.3115 H   0  0  0  0  0  0  0  0  0  0  0  0
   -3.6563    2.1811    1.8362 H   0  0  0  0  0  0  0  0  0  0  0  0
   -2.8744    3.7974    0.1326 H   0  0  0  0  0  0  0  0  0  0  0  0
   -0.7671    3.3579   -1.0892 H   0  0  0  0  0  0  0  0  0  0  0  0
    0.5376    1.3273   -0.6099 H   0  0  0  0  0  0  0  0  0  0  0  0
  1  2  2  3
  1  5  1  0
  1  6  1  0
  2  3  1  0
  2  7  1  0
  4  9  1  0
  8  9  1  0
  8 17  1  0
  8 18  1  0
  8 19  1  0
  9 10  1  0
  9 11  1  0
 10 20  1  0
 10 21  1  0
 10 22  1  0
 11 12  2  0
 11 16  1  0
 12 13  1  0
 12 23  1  0
 13 14  2  0
 13 24  1  0
 14 15  1  0
 14 25  1  0
 15 16  2  0
 15 26  1  0
 16 27  1  0
M  RAD  1   3   2
M  END
>  <reaction>  (16) 
rxn_1968

>  <mol_properties>  (16) 
{"0": {"label": "*1", "atom_type": "Cs"}, "1": {"label": "*0", "atom_type": "CS"}, "3": {"label": "*2", "atom_type": "H0"}, "8": {"label": "*3", "atom_type": "Cs"}, "10": {"label": "*4", "atom_type": "Cd"}}

>  <type>  (16) 
unop_12

>  <geom_source>  (16) 
Heuristics

$$$$

     RDKit          3D

 27 26  0  0  0  0  0  0  0  0999 V2000
    4.4436    0.7332   -0.3392 S   0  0  0  0  0  0  0  0  0  0  0  0
    0.5237   -0.4369   -0.0639 C   0  0  0  0  0  3  0  0  0  0  0  0
    0.7549   -1.3014    1.1797 C   0  0  0  0  0  0  0  0  0  0  0  0
    1.0741   -1.1177   -1.3212 C   0  0  0  0  0  0  0  0  0  0  0  0
   -0.9429   -0.0912   -0.2257 C   0  0  0  0  0  0  0  0  0  0  0  0
   -1.9111   -1.0956   -0.4230 C   0  0  0  0  0  0  0  0  0  0  0  0
   -1.3554    1.2522   -0.1796 C   0  0  0  0  0  0  0  0  0  0  0  0
   -3.2599   -0.7587   -0.5704 C   0  0  0  0  0  0  0  0  0  0  0  0
   -3.6571    0.5794   -0.5228 C   0  0  0  0  0  0  0  0  0  0  0  0
   -2.7059    1.5834   -0.3276 C   0  0  0  0  0  0  0  0  0  0  0  0
    2.2108    1.4002    0.6663 C   0  0  0  0  0  0  0  0  0  0  0  0
    3.5918    0.8504    0.8088 C   0  0  0  0  0  0  0  0  0  0  0  0
    1.2439    0.7055    0.1120 H   0  0  0  0  0  0  0  0  0  0  0  0
    0.2641   -2.2926    1.0774 H   0  0  0  0  0  0  0  0  0  0  0  0
    0.3500   -0.7882    2.0777 H   0  0  0  0  0  0  0  0  0  0  0  0
    1.8436   -1.4584    1.3321 H   0  0  0  0  0  0  0  0  0  0  0  0
    0.8971   -0.4733   -2.2084 H   0  0  0  0  0  0  0  0  0  0  0  0
    2.1691   -1.2710   -1.2177 H   0  0  0  0  0  0  0  0  0  0  0  0
    0.5917   -2.1040   -1.4885 H   0  0  0  0  0  0  0  0  0  0  0  0
   -1.6246   -2.1385   -0.4631 H   0  0  0  0  0  0  0  0  0  0  0  0
   -3.9978   -1.5360   -0.7217 H   0  0  0  0  0  0  0  0  0  0  0  0
   -0.6358    2.0468   -0.0294 H   0  0  0  0  0  0  0  0  0  0  0  0
   -4.7018    0.8383   -0.6371 H   0  0  0  0  0  0  0  0  0  0  0  0
   -3.0151    2.6201   -0.2909 H   0  0  0  0  0  0  0  0  0  0  0  0
    1.6644    1.3035    1.6277 H   0  0  0  0  0  0  0  0  0  0  0  0
    2.2524    2.4725    0.3790 H   0  0  0  0  0  0  0  0  0  0  0  0
    3.9324    0.4780    1.7695 H   0  0  0  0  0  0  0  0  0  0  0  0
  1 12  2  0
  2  3  1  0
  2  4  1  0
  2  5  1  0
  3 14  1  0
  3 15  1  0
  3 16  1  0
  4 17  1  0
  4 18  1  0
  4 19  1  0
  5  6  2  0
  5  7  1  0
  6  8  1  0
  6 20  1  0
  7 10  2  0
  7 22  1  0
  8  9  2  0
  8 21  1  0
  9 10  1  0
  9 23  1  0
 10 24  1  0
 11 12  1  0
 11 13  1  0
 11 25  1  0
 11 26  1  0
 12 27  1  0
M  RAD  1   2   2
M  END
>  <reaction>  (17) 
rxn_1968

>  <mol_properties>  (17) 
{"0": {"label": "*1", "atom_type": "Cs"}, "1": {"label": "*0", "atom_type": "CS"}, "3": {"label": "*2", "atom_type": "H0"}, "8": {"label": "*3", "atom_type": "Cs"}, "10": {"label": "*4", "atom_type": "Cd"}}

>  <type>  (17) 
unop_13

>  <geom_source>  (17) 
AutoTST

$$$$
