
     RDKit          3D

  4  3  0  0  0  0  0  0  0  0999 V2000
    0.0006   -0.0009    0.2762 N   0  0  0  0  0  0  0  0  0  0  0  0
   -0.4188    0.8439   -0.0883 H   0  0  0  0  0  0  0  0  0  0  0  0
   -0.5215   -0.7840   -0.0936 H   0  0  0  0  0  0  0  0  0  0  0  0
    0.9397   -0.0590   -0.0943 H   0  0  0  0  0  0  0  0  0  0  0  0
  1  2  1  0
  1  3  1  0
  1  4  1  0
M  END
>  <reaction>  (1) 
rxn_3118

>  <mol_properties>  (1) 
{"0": {"label": "donator", "atom_type": "N3s"}, "1": {"label": "d_hydrogen", "atom_type": "H0"}}

>  <type>  (1) 
r1h

$$$$

     RDKit          3D

  6  6  0  0  0  0  0  0  0  0999 V2000
    1.9594    0.0134   -0.3734 N   0  0  0  0  0  2  0  0  0  0  0  0
    0.7437    0.0051   -0.0788 C   0  0  0  0  0  0  0  0  0  0  0  0
   -0.0745    1.0868    0.0233 O   0  0  0  0  0  0  0  0  0  0  0  0
   -1.3223    0.5972    0.3682 N   0  0  0  0  0  0  0  0  0  0  0  0
   -1.2899   -0.6150    0.4676 N   0  0  0  0  0  0  0  0  0  0  0  0
   -0.0165   -1.0874    0.2015 O   0  0  0  0  0  0  0  0  0  0  0  0
  1  2  2  0
  2  3  1  0
  2  6  1  0
  3  4  1  0
  4  5  2  0
  5  6  1  0
M  RAD  1   1   2
M  END
>  <reaction>  (2) 
rxn_3118

>  <mol_properties>  (2) 
{"0": {"label": "acceptor", "atom_type": "N3d"}}

>  <type>  (2) 
r2

$$$$

     RDKit          3D

  7  7  0  0  0  0  0  0  0  0999 V2000
    1.6064   -0.4313    0.1905 N   0  0  0  0  0  0  0  0  0  0  0  0
    0.3982   -0.1725    0.0701 C   0  0  0  0  0  0  0  0  0  0  0  0
   -0.6051   -1.0481    0.3497 O   0  0  0  0  0  0  0  0  0  0  0  0
   -1.7906   -0.4044    0.0958 N   0  0  0  0  0  0  0  0  0  0  0  0
   -1.5819    0.7348   -0.2956 N   0  0  0  0  0  0  0  0  0  0  0  0
   -0.2229    0.9708   -0.3436 O   0  0  0  0  0  0  0  0  0  0  0  0
    2.1958    0.3506   -0.0669 H   0  0  0  0  0  0  0  0  0  0  0  0
  1  2  2  3
  1  7  1  0
  2  3  1  0
  2  6  1  0
  3  4  1  0
  4  5  2  0
  5  6  1  0
M  END
>  <reaction>  (3) 
rxn_3118

>  <mol_properties>  (3) 
{"0": {"label": "acceptor", "atom_type": "N3d"}, "6": {"label": "a_hydrogen", "atom_type": "H0"}}

>  <type>  (3) 
r2h

$$$$

     RDKit          3D

 10  9  0  0  0  0  0  0  0  0999 V2000
    0.2264   -0.7425    1.4864 N   0  0  0  0  0  2  0  0  0  0  0  0
    0.0664   -0.0028    0.5037 C   0  0  0  0  0  0  0  0  0  0  0  0
    0.1865    1.3608    0.5207 O   0  0  0  0  0  0  0  0  0  0  0  0
   -0.0641    1.8099   -0.7517 N   0  0  0  0  0  0  0  0  0  0  0  0
   -0.3128    0.8733   -1.4952 N   0  0  0  0  0  0  0  0  0  0  0  0
   -0.2548   -0.3138   -0.7937 O   0  0  0  0  0  0  0  0  0  0  0  0
   -0.1466   -3.0163    0.6977 N   0  0  0  0  0  0  0  0  0  0  0  0
    0.0784   -1.9554    1.2900 H   0  0  0  0  0  0  0  0  0  0  0  0
   -1.0724   -2.9425    0.2769 H   0  0  0  0  0  0  0  0  0  0  0  0
    0.5077   -3.0773   -0.0819 H   0  0  0  0  0  0  0  0  0  0  0  0
  1  2  2  0
  2  3  1  0
  2  6  1  0
  3  4  1  0
  4  5  2  0
  5  6  1  0
  7  8  1  0
  7  9  1  0
  7 10  1  0
M  RAD  1   1   2
M  END
>  <reaction>  (4) 
rxn_3118

>  <mol_properties>  (4) 
{"0": {"label": "*3", "atom_type": "N3d"}, "1": {"label": "*4", "atom_type": "Cd"}, "6": {"label": "*1", "atom_type": "N3s"}, "7": {"label": "*2", "atom_type": "H0"}, "8": {"label": "*0", "atom_type": "H0"}}

>  <type>  (4) 
ts

$$$$

     RDKit          3D

 10  9  0  0  0  0  0  0  0  0999 V2000
    1.3436   -0.0273   -0.8470 N   0  0  0  0  0  2  0  0  0  0  0  0
    0.3494    0.2509   -0.1573 C   0  0  0  0  0  0  0  0  0  0  0  0
    0.3896    0.9969    0.9799 O   0  0  0  0  0  0  0  0  0  0  0  0
   -0.8952    1.0857    1.4549 N   0  0  0  0  0  0  0  0  0  0  0  0
   -1.6633    0.4785    0.7229 N   0  0  0  0  0  0  0  0  0  0  0  0
   -0.9635   -0.0833   -0.3257 O   0  0  0  0  0  0  0  0  0  0  0  0
    1.3436   -2.3430   -1.5780 N   0  0  0  0  0  0  0  0  0  0  0  0
    1.3436   -1.1859   -1.2127 H   0  0  0  0  0  0  0  0  0  0  0  0
    0.4733   -2.7583   -1.2736 H   0  0  0  0  0  0  0  0  0  0  0  0
    1.3436   -2.3430   -2.5892 H   0  0  0  0  0  0  0  0  0  0  0  0
  1  2  2  0
  2  3  1  0
  2  6  1  0
  3  4  1  0
  4  5  2  0
  5  6  1  0
  7  8  1  0
  7  9  1  0
  7 10  1  0
M  RAD  1   1   2
M  END
>  <reaction>  (5) 
rxn_3118

>  <mol_properties>  (5) 
{"0": {"label": "*3", "atom_type": "N3d"}, "1": {"label": "*4", "atom_type": "Cd"}, "6": {"label": "*1", "atom_type": "N3s"}, "7": {"label": "*2", "atom_type": "H0"}, "8": {"label": "*0", "atom_type": "H0"}}

>  <type>  (5) 
unop_1

>  <geom_source>  (5) 
Heuristics

$$$$

     RDKit          3D

 10  9  0  0  0  0  0  0  0  0999 V2000
    0.7983   -0.6810    1.1955 N   0  0  0  0  0  2  0  0  0  0  0  0
    0.2243    0.0692    0.3899 C   0  0  0  0  0  0  0  0  0  0  0  0
   -0.2444    1.3092    0.6969 O   0  0  0  0  0  0  0  0  0  0  0  0
   -0.8104    1.8247   -0.4425 N   0  0  0  0  0  0  0  0  0  0  0  0
   -0.7198    1.0253   -1.3629 N   0  0  0  0  0  0  0  0  0  0  0  0
   -0.0780   -0.1167   -0.9284 O   0  0  0  0  0  0  0  0  0  0  0  0
    0.7983   -2.9967    0.4645 N   0  0  0  0  0  0  0  0  0  0  0  0
    0.7983   -1.8396    0.8298 H   0  0  0  0  0  0  0  0  0  0  0  0
   -0.0720   -3.4120    0.7689 H   0  0  0  0  0  0  0  0  0  0  0  0
    0.7983   -2.9967   -0.5467 H   0  0  0  0  0  0  0  0  0  0  0  0
  1  2  2  0
  2  3  1  0
  2  6  1  0
  3  4  1  0
  4  5  2  0
  5  6  1  0
  7  8  1  0
  7  9  1  0
  7 10  1  0
M  RAD  1   1   2
M  END
>  <reaction>  (6) 
rxn_3118

>  <mol_properties>  (6) 
{"0": {"label": "*3", "atom_type": "N3d"}, "1": {"label": "*4", "atom_type": "Cd"}, "6": {"label": "*1", "atom_type": "N3s"}, "7": {"label": "*2", "atom_type": "H0"}, "8": {"label": "*0", "atom_type": "H0"}}

>  <type>  (6) 
unop_2

>  <geom_source>  (6) 
Heuristics

$$$$

     RDKit          3D

 10  9  0  0  0  0  0  0  0  0999 V2000
    0.7669    0.1354   -1.3775 N   0  0  0  0  0  2  0  0  0  0  0  0
    0.1929    0.2871   -0.2871 C   0  0  0  0  0  0  0  0  0  0  0  0
    0.5385    1.2236    0.6376 O   0  0  0  0  0  0  0  0  0  0  0  0
   -0.3185    1.0827    1.7005 N   0  0  0  0  0  0  0  0  0  0  0  0
   -1.1120    0.1766    1.4913 N   0  0  0  0  0  0  0  0  0  0  0  0
   -0.8638   -0.3858    0.2555 O   0  0  0  0  0  0  0  0  0  0  0  0
    0.7669   -2.1803   -2.1085 N   0  0  0  0  0  0  0  0  0  0  0  0
    0.7669   -1.0232   -1.7432 H   0  0  0  0  0  0  0  0  0  0  0  0
   -0.1034   -2.5956   -1.8041 H   0  0  0  0  0  0  0  0  0  0  0  0
    0.7669   -2.1803   -3.1197 H   0  0  0  0  0  0  0  0  0  0  0  0
  1  2  2  0
  2  3  1  0
  2  6  1  0
  3  4  1  0
  4  5  2  0
  5  6  1  0
  7  8  1  0
  7  9  1  0
  7 10  1  0
M  RAD  1   1   2
M  END
>  <reaction>  (7) 
rxn_3118

>  <mol_properties>  (7) 
{"0": {"label": "*3", "atom_type": "N3d"}, "1": {"label": "*4", "atom_type": "Cd"}, "6": {"label": "*1", "atom_type": "N3s"}, "7": {"label": "*2", "atom_type": "H0"}, "8": {"label": "*0", "atom_type": "H0"}}

>  <type>  (7) 
unop_3

>  <geom_source>  (7) 
Heuristics

$$$$

     RDKit          3D

 10  9  0  0  0  0  0  0  0  0999 V2000
   -1.3517   -0.5016    0.6420 N   0  0  0  0  0  2  0  0  0  0  0  0
   -0.3576    0.1221    0.2370 C   0  0  0  0  0  0  0  0  0  0  0  0
    0.2561    1.1198    0.9295 O   0  0  0  0  0  0  0  0  0  0  0  0
    1.3072    1.5603    0.1644 N   0  0  0  0  0  0  0  0  0  0  0  0
    1.3654    0.9318   -0.8825 N   0  0  0  0  0  0  0  0  0  0  0  0
    0.3496   -0.0017   -0.9242 O   0  0  0  0  0  0  0  0  0  0  0  0
   -1.3517   -2.8173   -0.0891 N   0  0  0  0  0  0  0  0  0  0  0  0
   -1.3517   -1.6602    0.2762 H   0  0  0  0  0  0  0  0  0  0  0  0
   -2.2220   -3.2326    0.2153 H   0  0  0  0  0  0  0  0  0  0  0  0
   -1.3517   -2.8173   -1.1003 H   0  0  0  0  0  0  0  0  0  0  0  0
  1  2  2  0
  2  3  1  0
  2  6  1  0
  3  4  1  0
  4  5  2  0
  5  6  1  0
  7  8  1  0
  7  9  1  0
  7 10  1  0
M  RAD  1   1   2
M  END
>  <reaction>  (8) 
rxn_3118

>  <mol_properties>  (8) 
{"0": {"label": "*3", "atom_type": "N3d"}, "1": {"label": "*4", "atom_type": "Cd"}, "6": {"label": "*1", "atom_type": "N3s"}, "7": {"label": "*2", "atom_type": "H0"}, "8": {"label": "*0", "atom_type": "H0"}}

>  <type>  (8) 
unop_4

>  <geom_source>  (8) 
Heuristics

$$$$

     RDKit          3D

 10  9  0  0  0  0  0  0  0  0999 V2000
    0.0085    0.1881   -1.5648 N   0  0  0  0  0  2  0  0  0  0  0  0
    0.0085    0.2935   -0.3278 C   0  0  0  0  0  0  0  0  0  0  0  0
    0.0085    1.4786    0.3408 O   0  0  0  0  0  0  0  0  0  0  0  0
    0.0085    1.1897    1.6827 N   0  0  0  0  0  0  0  0  0  0  0  0
    0.0085   -0.0201    1.8584 N   0  0  0  0  0  0  0  0  0  0  0  0
    0.0085   -0.6692    0.6403 O   0  0  0  0  0  0  0  0  0  0  0  0
    0.0085   -2.1277   -2.2958 N   0  0  0  0  0  0  0  0  0  0  0  0
    0.0085   -0.9705   -1.9305 H   0  0  0  0  0  0  0  0  0  0  0  0
   -0.8618   -2.5430   -1.9914 H   0  0  0  0  0  0  0  0  0  0  0  0
    0.0085   -2.1277   -3.3070 H   0  0  0  0  0  0  0  0  0  0  0  0
  1  2  2  0
  2  3  1  0
  2  6  1  0
  3  4  1  0
  4  5  2  0
  5  6  1  0
  7  8  1  0
  7  9  1  0
  7 10  1  0
M  RAD  1   1   2
M  END
>  <reaction>  (9) 
rxn_3118

>  <mol_properties>  (9) 
{"0": {"label": "*3", "atom_type": "N3d"}, "1": {"label": "*4", "atom_type": "Cd"}, "6": {"label": "*1", "atom_type": "N3s"}, "7": {"label": "*2", "atom_type": "H0"}, "8": {"label": "*0", "atom_type": "H0"}}

>  <type>  (9) 
unop_5

>  <geom_source>  (9) 
Heuristics

$$$$

     RDKit          3D

 10  9  0  0  0  0  0  0  0  0999 V2000
   -1.5499   -0.2614   -0.1071 N   0  0  0  0  0  2  0  0  0  0  0  0
   -0.4019    0.1895    0.0352 C   0  0  0  0  0  0  0  0  0  0  0  0
   -0.0128    0.9833    1.0696 O   0  0  0  0  0  0  0  0  0  0  0  0
    1.3151    1.2759    0.8818 N   0  0  0  0  0  0  0  0  0  0  0  0
    1.7292    0.7427   -0.1373 N   0  0  0  0  0  0  0  0  0  0  0  0
    0.7107    0.0328   -0.7403 O   0  0  0  0  0  0  0  0  0  0  0  0
   -1.5499   -2.5772   -0.8381 N   0  0  0  0  0  0  0  0  0  0  0  0
   -1.5499   -1.4200   -0.4729 H   0  0  0  0  0  0  0  0  0  0  0  0
   -2.4202   -2.9925   -0.5337 H   0  0  0  0  0  0  0  0  0  0  0  0
   -1.5499   -2.5772   -1.8494 H   0  0  0  0  0  0  0  0  0  0  0  0
  1  2  2  0
  2  3  1  0
  2  6  1  0
  3  4  1  0
  4  5  2  0
  5  6  1  0
  7  8  1  0
  7  9  1  0
  7 10  1  0
M  RAD  1   1   2
M  END
>  <reaction>  (10) 
rxn_3118

>  <mol_properties>  (10) 
{"0": {"label": "*3", "atom_type": "N3d"}, "1": {"label": "*4", "atom_type": "Cd"}, "6": {"label": "*1", "atom_type": "N3s"}, "7": {"label": "*2", "atom_type": "H0"}, "8": {"label": "*0", "atom_type": "H0"}}

>  <type>  (10) 
unop_6

>  <geom_source>  (10) 
Heuristics

$$$$

     RDKit          3D

 10  9  0  0  0  0  0  0  0  0999 V2000
   -1.3265   -0.0273   -0.8470 N   0  0  0  0  0  2  0  0  0  0  0  0
   -0.3324    0.2509   -0.1573 C   0  0  0  0  0  0  0  0  0  0  0  0
   -0.3726    0.9969    0.9799 O   0  0  0  0  0  0  0  0  0  0  0  0
    0.9123    1.0857    1.4549 N   0  0  0  0  0  0  0  0  0  0  0  0
    1.6803    0.4785    0.7229 N   0  0  0  0  0  0  0  0  0  0  0  0
    0.9805   -0.0833   -0.3257 O   0  0  0  0  0  0  0  0  0  0  0  0
   -1.3265   -2.3430   -1.5780 N   0  0  0  0  0  0  0  0  0  0  0  0
   -1.3265   -1.1859   -1.2127 H   0  0  0  0  0  0  0  0  0  0  0  0
   -2.1968   -2.7583   -1.2736 H   0  0  0  0  0  0  0  0  0  0  0  0
   -1.3265   -2.3430   -2.5892 H   0  0  0  0  0  0  0  0  0  0  0  0
  1  2  2  0
  2  3  1  0
  2  6  1  0
  3  4  1  0
  4  5  2  0
  5  6  1  0
  7  8  1  0
  7  9  1  0
  7 10  1  0
M  RAD  1   1   2
M  END
>  <reaction>  (11) 
rxn_3118

>  <mol_properties>  (11) 
{"0": {"label": "*3", "atom_type": "N3d"}, "1": {"label": "*4", "atom_type": "Cd"}, "6": {"label": "*1", "atom_type": "N3s"}, "7": {"label": "*2", "atom_type": "H0"}, "8": {"label": "*0", "atom_type": "H0"}}

>  <type>  (11) 
unop_7

>  <geom_source>  (11) 
Heuristics

$$$$

     RDKit          3D

 10  9  0  0  0  0  0  0  0  0999 V2000
    1.5669   -0.2614   -0.1071 N   0  0  0  0  0  2  0  0  0  0  0  0
    0.4190    0.1895    0.0352 C   0  0  0  0  0  0  0  0  0  0  0  0
    0.0298    0.9833    1.0696 O   0  0  0  0  0  0  0  0  0  0  0  0
   -1.2981    1.2759    0.8818 N   0  0  0  0  0  0  0  0  0  0  0  0
   -1.7122    0.7427   -0.1373 N   0  0  0  0  0  0  0  0  0  0  0  0
   -0.6936    0.0328   -0.7403 O   0  0  0  0  0  0  0  0  0  0  0  0
    1.5669   -2.5772   -0.8381 N   0  0  0  0  0  0  0  0  0  0  0  0
    1.5669   -1.4200   -0.4729 H   0  0  0  0  0  0  0  0  0  0  0  0
    0.6966   -2.9925   -0.5337 H   0  0  0  0  0  0  0  0  0  0  0  0
    1.5669   -2.5772   -1.8494 H   0  0  0  0  0  0  0  0  0  0  0  0
  1  2  2  0
  2  3  1  0
  2  6  1  0
  3  4  1  0
  4  5  2  0
  5  6  1  0
  7  8  1  0
  7  9  1  0
  7 10  1  0
M  RAD  1   1   2
M  END
>  <reaction>  (12) 
rxn_3118

>  <mol_properties>  (12) 
{"0": {"label": "*3", "atom_type": "N3d"}, "1": {"label": "*4", "atom_type": "Cd"}, "6": {"label": "*1", "atom_type": "N3s"}, "7": {"label": "*2", "atom_type": "H0"}, "8": {"label": "*0", "atom_type": "H0"}}

>  <type>  (12) 
unop_8

>  <geom_source>  (12) 
Heuristics

$$$$

     RDKit          3D

 10  9  0  0  0  0  0  0  0  0999 V2000
   -0.7812   -0.6810    1.1955 N   0  0  0  0  0  2  0  0  0  0  0  0
   -0.2073    0.0692    0.3899 C   0  0  0  0  0  0  0  0  0  0  0  0
    0.2615    1.3092    0.6969 O   0  0  0  0  0  0  0  0  0  0  0  0
    0.8274    1.8247   -0.4425 N   0  0  0  0  0  0  0  0  0  0  0  0
    0.7368    1.0253   -1.3629 N   0  0  0  0  0  0  0  0  0  0  0  0
    0.0950   -0.1167   -0.9284 O   0  0  0  0  0  0  0  0  0  0  0  0
   -0.7812   -2.9967    0.4645 N   0  0  0  0  0  0  0  0  0  0  0  0
   -0.7812   -1.8396    0.8298 H   0  0  0  0  0  0  0  0  0  0  0  0
   -1.6515   -3.4120    0.7689 H   0  0  0  0  0  0  0  0  0  0  0  0
   -0.7812   -2.9967   -0.5467 H   0  0  0  0  0  0  0  0  0  0  0  0
  1  2  2  0
  2  3  1  0
  2  6  1  0
  3  4  1  0
  4  5  2  0
  5  6  1  0
  7  8  1  0
  7  9  1  0
  7 10  1  0
M  RAD  1   1   2
M  END
>  <reaction>  (13) 
rxn_3118

>  <mol_properties>  (13) 
{"0": {"label": "*3", "atom_type": "N3d"}, "1": {"label": "*4", "atom_type": "Cd"}, "6": {"label": "*1", "atom_type": "N3s"}, "7": {"label": "*2", "atom_type": "H0"}, "8": {"label": "*0", "atom_type": "H0"}}

>  <type>  (13) 
unop_9

>  <geom_source>  (13) 
Heuristics

$$$$

     RDKit          3D

 10  9  0  0  0  0  0  0  0  0999 V2000
    1.3688   -0.5016    0.6420 N   0  0  0  0  0  2  0  0  0  0  0  0
    0.3747    0.1221    0.2370 C   0  0  0  0  0  0  0  0  0  0  0  0
   -0.2391    1.1198    0.9295 O   0  0  0  0  0  0  0  0  0  0  0  0
   -1.2902    1.5603    0.1644 N   0  0  0  0  0  0  0  0  0  0  0  0
   -1.3484    0.9318   -0.8825 N   0  0  0  0  0  0  0  0  0  0  0  0
   -0.3326   -0.0017   -0.9242 O   0  0  0  0  0  0  0  0  0  0  0  0
    1.3688   -2.8173   -0.0891 N   0  0  0  0  0  0  0  0  0  0  0  0
    1.3688   -1.6602    0.2762 H   0  0  0  0  0  0  0  0  0  0  0  0
    0.4985   -3.2327    0.2153 H   0  0  0  0  0  0  0  0  0  0  0  0
    1.3688   -2.8173   -1.1003 H   0  0  0  0  0  0  0  0  0  0  0  0
  1  2  2  0
  2  3  1  0
  2  6  1  0
  3  4  1  0
  4  5  2  0
  5  6  1  0
  7  8  1  0
  7  9  1  0
  7 10  1  0
M  RAD  1   1   2
M  END
>  <reaction>  (14) 
rxn_3118

>  <mol_properties>  (14) 
{"0": {"label": "*3", "atom_type": "N3d"}, "1": {"label": "*4", "atom_type": "Cd"}, "6": {"label": "*1", "atom_type": "N3s"}, "7": {"label": "*2", "atom_type": "H0"}, "8": {"label": "*0", "atom_type": "H0"}}

>  <type>  (14) 
unop_10

>  <geom_source>  (14) 
Heuristics

$$$$

     RDKit          3D

 10  9  0  0  0  0  0  0  0  0999 V2000
   -0.7498    0.1354   -1.3775 N   0  0  0  0  0  2  0  0  0  0  0  0
   -0.1759    0.2871   -0.2871 C   0  0  0  0  0  0  0  0  0  0  0  0
   -0.5215    1.2236    0.6376 O   0  0  0  0  0  0  0  0  0  0  0  0
    0.3355    1.0827    1.7005 N   0  0  0  0  0  0  0  0  0  0  0  0
    1.1290    0.1766    1.4913 N   0  0  0  0  0  0  0  0  0  0  0  0
    0.8808   -0.3858    0.2555 O   0  0  0  0  0  0  0  0  0  0  0  0
   -0.7498   -2.1803   -2.1085 N   0  0  0  0  0  0  0  0  0  0  0  0
   -0.7498   -1.0232   -1.7432 H   0  0  0  0  0  0  0  0  0  0  0  0
   -1.6201   -2.5956   -1.8041 H   0  0  0  0  0  0  0  0  0  0  0  0
   -0.7498   -2.1803   -3.1197 H   0  0  0  0  0  0  0  0  0  0  0  0
  1  2  2  0
  2  3  1  0
  2  6  1  0
  3  4  1  0
  4  5  2  0
  5  6  1  0
  7  8  1  0
  7  9  1  0
  7 10  1  0
M  RAD  1   1   2
M  END
>  <reaction>  (15) 
rxn_3118

>  <mol_properties>  (15) 
{"0": {"label": "*3", "atom_type": "N3d"}, "1": {"label": "*4", "atom_type": "Cd"}, "6": {"label": "*1", "atom_type": "N3s"}, "7": {"label": "*2", "atom_type": "H0"}, "8": {"label": "*0", "atom_type": "H0"}}

>  <type>  (15) 
unop_11

>  <geom_source>  (15) 
Heuristics

$$$$

     RDKit          3D

 10  9  0  0  0  0  0  0  0  0999 V2000
    0.0085   -0.7476    1.3994 N   0  0  0  0  0  2  0  0  0  0  0  0
    0.0085    0.0488    0.4471 C   0  0  0  0  0  0  0  0  0  0  0  0
    0.0085    1.4030    0.5801 O   0  0  0  0  0  0  0  0  0  0  0  0
    0.0085    1.9369   -0.6845 N   0  0  0  0  0  0  0  0  0  0  0  0
    0.0085    1.0473   -1.5229 N   0  0  0  0  0  0  0  0  0  0  0  0
    0.0085   -0.1835   -0.8982 O   0  0  0  0  0  0  0  0  0  0  0  0
    0.0085   -3.0634    0.6684 N   0  0  0  0  0  0  0  0  0  0  0  0
    0.0085   -1.9062    1.0337 H   0  0  0  0  0  0  0  0  0  0  0  0
   -0.8618   -3.4787    0.9728 H   0  0  0  0  0  0  0  0  0  0  0  0
    0.0085   -3.0634   -0.3428 H   0  0  0  0  0  0  0  0  0  0  0  0
  1  2  2  0
  2  3  1  0
  2  6  1  0
  3  4  1  0
  4  5  2  0
  5  6  1  0
  7  8  1  0
  7  9  1  0
  7 10  1  0
M  RAD  1   1   2
M  END
>  <reaction>  (16) 
rxn_3118

>  <mol_properties>  (16) 
{"0": {"label": "*3", "atom_type": "N3d"}, "1": {"label": "*4", "atom_type": "Cd"}, "6": {"label": "*1", "atom_type": "N3s"}, "7": {"label": "*2", "atom_type": "H0"}, "8": {"label": "*0", "atom_type": "H0"}}

>  <type>  (16) 
unop_12

>  <geom_source>  (16) 
Heuristics

$$$$

     RDKit          3D

 10  9  0  0  0  0  0  0  0  0999 V2000
    0.7983   -0.6810    1.1955 N   0  0  0  0  0  2  0  0  0  0  0  0
    0.2243    0.0692    0.3899 C   0  0  0  0  0  0  0  0  0  0  0  0
   -0.2445    1.3092    0.6969 O   0  0  0  0  0  0  0  0  0  0  0  0
   -0.8104    1.8247   -0.4425 N   0  0  0  0  0  0  0  0  0  0  0  0
   -0.7198    1.0253   -1.3629 N   0  0  0  0  0  0  0  0  0  0  0  0
   -0.0780   -0.1167   -0.9284 O   0  0  0  0  0  0  0  0  0  0  0  0
    0.7983   -2.9967    0.4645 N   0  0  0  0  0  0  0  0  0  0  0  0
    0.7983   -1.8396    0.8298 H   0  0  0  0  0  0  0  0  0  0  0  0
   -0.0720   -3.4120    0.7689 H   0  0  0  0  0  0  0  0  0  0  0  0
    0.7983   -2.9967   -0.5467 H   0  0  0  0  0  0  0  0  0  0  0  0
  1  2  2  0
  2  3  1  0
  2  6  1  0
  3  4  1  0
  4  5  2  0
  5  6  1  0
  7  8  1  0
  7  9  1  0
  7 10  1  0
M  RAD  1   1   2
M  END
>  <reaction>  (17) 
rxn_3118

>  <mol_properties>  (17) 
{"0": {"label": "*3", "atom_type": "N3d"}, "1": {"label": "*4", "atom_type": "Cd"}, "6": {"label": "*1", "atom_type": "N3s"}, "7": {"label": "*2", "atom_type": "H0"}, "8": {"label": "*0", "atom_type": "H0"}}

>  <type>  (17) 
unop_13

>  <geom_source>  (17) 
gaussian_log

$$$$
