
     RDKit          3D

  4  3  0  0  0  0  0  0  0  0999 V2000
   -0.0057    0.0001   -0.0008 C   0  0  0  0  0  0  0  0  0  0  0  0
    1.1789   -0.0174    0.1563 O   0  0  0  0  0  0  0  0  0  0  0  0
   -0.5891    0.9399    0.0445 H   0  0  0  0  0  0  0  0  0  0  0  0
   -0.5841   -0.9226   -0.2001 H   0  0  0  0  0  0  0  0  0  0  0  0
  1  2  2  0
  1  3  1  0
  1  4  1  0
M  END
>  <reaction>  (1) 
rxn_361

>  <mol_properties>  (1) 
{"0": {"label": "donator", "atom_type": "CO"}, "2": {"label": "d_hydrogen", "atom_type": "H0"}}

>  <type>  (1) 
r1h

$$$$

     RDKit          3D

  4  3  0  0  0  0  0  0  0  0999 V2000
    0.0000    0.0000    0.0000 C   0  0  0  0  0  3  0  0  0  0  0  0
    1.0638   -0.1747    0.0540 H   0  0  0  0  0  0  0  0  0  0  0  0
   -0.6833   -0.8351   -0.0280 H   0  0  0  0  0  0  0  0  0  0  0  0
   -0.3805    1.0098   -0.0260 H   0  0  0  0  0  0  0  0  0  0  0  0
  1  2  1  0
  1  3  1  0
  1  4  1  0
M  RAD  1   1   2
M  END
>  <reaction>  (2) 
rxn_361

>  <mol_properties>  (2) 
{"0": {"label": "acceptor", "atom_type": "Cs"}}

>  <type>  (2) 
r2

$$$$

     RDKit          3D

  5  4  0  0  0  0  0  0  0  0999 V2000
    0.0000    0.0000    0.0000 C   0  0  0  0  0  0  0  0  0  0  0  0
   -0.6486   -0.7720   -0.4113 H   0  0  0  0  0  0  0  0  0  0  0  0
   -0.3482    0.9787   -0.3267 H   0  0  0  0  0  0  0  0  0  0  0  0
   -0.0223   -0.0487    1.0876 H   0  0  0  0  0  0  0  0  0  0  0  0
    1.0191   -0.1580   -0.3496 H   0  0  0  0  0  0  0  0  0  0  0  0
  1  2  1  0
  1  3  1  0
  1  4  1  0
  1  5  1  0
M  END
>  <reaction>  (3) 
rxn_361

>  <mol_properties>  (3) 
{"0": {"label": "acceptor", "atom_type": "Cs"}, "4": {"label": "a_hydrogen", "atom_type": "H0"}}

>  <type>  (3) 
r2h

$$$$

     RDKit          3D

  8  6  0  0  0  0  0  0  0  0999 V2000
   -0.0003    1.4710    1.3900 C   0  0  0  0  0  3  0  0  0  0  0  0
    1.0430    1.7415    1.5182 H   0  0  0  0  0  0  0  0  0  0  0  0
   -0.4891    1.1018    2.2854 H   0  0  0  0  0  0  0  0  0  0  0  0
   -0.5848    2.1772    0.8091 H   0  0  0  0  0  0  0  0  0  0  0  0
    0.0500   -0.8156   -0.1306 C   0  0  0  0  0  0  0  0  0  0  0  0
   -0.4069   -1.8200    0.2997 O   0  0  0  0  0  0  0  0  0  0  0  0
    0.0444    0.2629    0.5451 H   0  0  0  0  0  0  0  0  0  0  0  0
    0.5110   -0.7423   -1.1428 H   0  0  0  0  0  0  0  0  0  0  0  0
  1  2  1  0
  1  3  1  0
  1  4  1  0
  5  6  2  0
  5  7  1  0
  5  8  1  0
M  RAD  1   1   2
M  END
>  <reaction>  (4) 
rxn_361

>  <mol_properties>  (4) 
{"0": {"label": "*3", "atom_type": "Cs"}, "1": {"label": "*4", "atom_type": "H0"}, "4": {"label": "*1", "atom_type": "CO"}, "5": {"label": "*0", "atom_type": "O2d"}, "6": {"label": "*2", "atom_type": "H0"}}

>  <type>  (4) 
ts

$$$$

     RDKit          3D

  8  6  0  0  0  0  0  0  0  0999 V2000
   -0.0031    1.4762    1.3003 C   0  0  0  0  0  0  0  0  0  0  0  0
   -0.8922    1.5124    1.9280 H   0  0  0  0  0  0  0  0  0  0  0  0
    0.3871    2.4838    1.1652 H   0  0  0  0  0  0  0  0  0  0  0  0
    0.6360    0.8520    1.9229 H   0  0  0  0  0  0  0  0  0  0  0  0
   -0.0031   -0.7594   -0.0948 C   0  0  0  0  0  3  0  0  0  0  0  0
   -0.0031   -0.7594   -1.2898 O   0  0  0  0  0  0  0  0  0  0  0  0
   -0.0031    0.3676    0.6085 H   0  0  0  0  0  0  0  0  0  0  0  0
   -0.0031   -1.6986    0.4913 H   0  0  0  0  0  0  0  0  0  0  0  0
  1  2  1  0
  1  3  1  0
  1  4  1  0
  1  7  1  0
  5  6  2  0
  5  8  1  0
M  RAD  1   5   2
M  END
>  <reaction>  (5) 
rxn_361

>  <mol_properties>  (5) 
{"0": {"label": "*3", "atom_type": "Cs"}, "1": {"label": "*4", "atom_type": "H0"}, "4": {"label": "*1", "atom_type": "CO"}, "5": {"label": "*0", "atom_type": "O2d"}, "6": {"label": "*2", "atom_type": "H0"}}

>  <type>  (5) 
unop_1

>  <geom_source>  (5) 
Heuristics

$$$$

     RDKit          3D

  8  6  0  0  0  0  0  0  0  0999 V2000
   -0.0022    1.4767    1.3120 C   0  0  0  0  0  0  0  0  0  0  0  0
   -0.5155    2.2553    0.7499 H   0  0  0  0  0  0  0  0  0  0  0  0
    0.8891    1.8935    1.7786 H   0  0  0  0  0  0  0  0  0  0  0  0
   -0.2814    0.6797    1.9995 H   0  0  0  0  0  0  0  0  0  0  0  0
   -0.0022   -0.7589   -0.0830 C   0  0  0  0  0  3  0  0  0  0  0  0
   -0.0022   -0.7589   -1.2781 O   0  0  0  0  0  0  0  0  0  0  0  0
   -0.0022    0.3681    0.6203 H   0  0  0  0  0  0  0  0  0  0  0  0
   -0.0022   -1.6982    0.5030 H   0  0  0  0  0  0  0  0  0  0  0  0
  1  2  1  0
  1  3  1  0
  1  4  1  0
  1  7  1  0
  5  6  2  0
  5  8  1  0
M  RAD  1   5   2
M  END
>  <reaction>  (6) 
rxn_361

>  <mol_properties>  (6) 
{"0": {"label": "*3", "atom_type": "Cs"}, "1": {"label": "*4", "atom_type": "H0"}, "4": {"label": "*1", "atom_type": "CO"}, "5": {"label": "*0", "atom_type": "O2d"}, "6": {"label": "*2", "atom_type": "H0"}}

>  <type>  (6) 
unop_2

>  <geom_source>  (6) 
Heuristics

$$$$

     RDKit          3D

  8  6  0  0  0  0  0  0  0  0999 V2000
   -0.0064    1.4714    1.3008 C   0  0  0  0  0  0  0  0  0  0  0  0
   -0.5197    1.3086    2.2472 H   0  0  0  0  0  0  0  0  0  0  0  0
   -0.1624    2.4987    0.9752 H   0  0  0  0  0  0  0  0  0  0  0  0
    0.9472    1.2431    1.7744 H   0  0  0  0  0  0  0  0  0  0  0  0
   -0.0064   -0.7643   -0.0943 C   0  0  0  0  0  3  0  0  0  0  0  0
   -0.0064   -0.7643   -1.2894 O   0  0  0  0  0  0  0  0  0  0  0  0
   -0.0064    0.3628    0.6090 H   0  0  0  0  0  0  0  0  0  0  0  0
   -0.0064   -1.7035    0.4918 H   0  0  0  0  0  0  0  0  0  0  0  0
  1  2  1  0
  1  3  1  0
  1  4  1  0
  1  7  1  0
  5  6  2  0
  5  8  1  0
M  RAD  1   5   2
M  END
>  <reaction>  (7) 
rxn_361

>  <mol_properties>  (7) 
{"0": {"label": "*3", "atom_type": "Cs"}, "1": {"label": "*4", "atom_type": "H0"}, "4": {"label": "*1", "atom_type": "CO"}, "5": {"label": "*0", "atom_type": "O2d"}, "6": {"label": "*2", "atom_type": "H0"}}

>  <type>  (7) 
unop_3

>  <geom_source>  (7) 
Heuristics

$$$$

     RDKit          3D

  8  6  0  0  0  0  0  0  0  0999 V2000
   -0.0029    1.4791    1.3072 C   0  0  0  0  0  0  0  0  0  0  0  0
    0.8862    2.0588    1.0638 H   0  0  0  0  0  0  0  0  0  0  0  0
    0.2229    0.7929    2.1219 H   0  0  0  0  0  0  0  0  0  0  0  0
   -0.9881    1.8772    1.5452 H   0  0  0  0  0  0  0  0  0  0  0  0
   -0.0029   -0.7565   -0.0879 C   0  0  0  0  0  3  0  0  0  0  0  0
   -0.0029   -0.7565   -1.2830 O   0  0  0  0  0  0  0  0  0  0  0  0
   -0.0029    0.3705    0.6154 H   0  0  0  0  0  0  0  0  0  0  0  0
   -0.0029   -1.6958    0.4982 H   0  0  0  0  0  0  0  0  0  0  0  0
  1  2  1  0
  1  3  1  0
  1  4  1  0
  1  7  1  0
  5  6  2  0
  5  8  1  0
M  RAD  1   5   2
M  END
>  <reaction>  (8) 
rxn_361

>  <mol_properties>  (8) 
{"0": {"label": "*3", "atom_type": "Cs"}, "1": {"label": "*4", "atom_type": "H0"}, "4": {"label": "*1", "atom_type": "CO"}, "5": {"label": "*0", "atom_type": "O2d"}, "6": {"label": "*2", "atom_type": "H0"}}

>  <type>  (8) 
unop_4

>  <geom_source>  (8) 
Heuristics

$$$$

     RDKit          3D

  8  6  0  0  0  0  0  0  0  0999 V2000
   -0.0010    1.4661    1.3027 C   0  0  0  0  0  0  0  0  0  0  0  0
   -0.0010    1.2305    2.3659 H   0  0  0  0  0  0  0  0  0  0  0  0
   -0.8901    2.0458    1.0594 H   0  0  0  0  0  0  0  0  0  0  0  0
    0.9313    1.9962    1.4911 H   0  0  0  0  0  0  0  0  0  0  0  0
   -0.0010   -0.7696   -0.0924 C   0  0  0  0  0  3  0  0  0  0  0  0
   -0.0010   -0.7696   -1.2874 O   0  0  0  0  0  0  0  0  0  0  0  0
   -0.0010    0.3575    0.6109 H   0  0  0  0  0  0  0  0  0  0  0  0
   -0.0010   -1.7088    0.4937 H   0  0  0  0  0  0  0  0  0  0  0  0
  1  2  1  0
  1  3  1  0
  1  4  1  0
  1  7  1  0
  5  6  2  0
  5  8  1  0
M  RAD  1   5   2
M  END
>  <reaction>  (9) 
rxn_361

>  <mol_properties>  (9) 
{"0": {"label": "*3", "atom_type": "Cs"}, "1": {"label": "*4", "atom_type": "H0"}, "4": {"label": "*1", "atom_type": "CO"}, "5": {"label": "*0", "atom_type": "O2d"}, "6": {"label": "*2", "atom_type": "H0"}}

>  <type>  (9) 
unop_5

>  <geom_source>  (9) 
Heuristics

$$$$

     RDKit          3D

  8  6  0  0  0  0  0  0  0  0999 V2000
   -0.0007    1.4775    1.3032 C   0  0  0  0  0  0  0  0  0  0  0  0
    1.0259    1.7854    1.4954 H   0  0  0  0  0  0  0  0  0  0  0  0
   -0.2890    0.7087    2.0185 H   0  0  0  0  0  0  0  0  0  0  0  0
   -0.7070    2.3026    1.3807 H   0  0  0  0  0  0  0  0  0  0  0  0
   -0.0007   -0.7582   -0.0918 C   0  0  0  0  0  3  0  0  0  0  0  0
   -0.0007   -0.7582   -1.2869 O   0  0  0  0  0  0  0  0  0  0  0  0
   -0.0007    0.3689    0.6115 H   0  0  0  0  0  0  0  0  0  0  0  0
   -0.0007   -1.6974    0.4942 H   0  0  0  0  0  0  0  0  0  0  0  0
  1  2  1  0
  1  3  1  0
  1  4  1  0
  1  7  1  0
  5  6  2  0
  5  8  1  0
M  RAD  1   5   2
M  END
>  <reaction>  (10) 
rxn_361

>  <mol_properties>  (10) 
{"0": {"label": "*3", "atom_type": "Cs"}, "1": {"label": "*4", "atom_type": "H0"}, "4": {"label": "*1", "atom_type": "CO"}, "5": {"label": "*0", "atom_type": "O2d"}, "6": {"label": "*2", "atom_type": "H0"}}

>  <type>  (10) 
unop_6

>  <geom_source>  (10) 
Heuristics

$$$$

     RDKit          3D

  8  6  0  0  0  0  0  0  0  0999 V2000
    0.0029    1.4751    1.3008 C   0  0  0  0  0  0  0  0  0  0  0  0
    0.8920    1.5112    1.9284 H   0  0  0  0  0  0  0  0  0  0  0  0
   -0.7534    0.8539    1.7782 H   0  0  0  0  0  0  0  0  0  0  0  0
   -0.2583    2.5322    1.2910 H   0  0  0  0  0  0  0  0  0  0  0  0
    0.0029   -0.7606   -0.0943 C   0  0  0  0  0  3  0  0  0  0  0  0
    0.0029   -0.7606   -1.2894 O   0  0  0  0  0  0  0  0  0  0  0  0
    0.0029    0.3665    0.6090 H   0  0  0  0  0  0  0  0  0  0  0  0
    0.0029   -1.6998    0.4918 H   0  0  0  0  0  0  0  0  0  0  0  0
  1  2  1  0
  1  3  1  0
  1  4  1  0
  1  7  1  0
  5  6  2  0
  5  8  1  0
M  RAD  1   5   2
M  END
>  <reaction>  (11) 
rxn_361

>  <mol_properties>  (11) 
{"0": {"label": "*3", "atom_type": "Cs"}, "1": {"label": "*4", "atom_type": "H0"}, "4": {"label": "*1", "atom_type": "CO"}, "5": {"label": "*0", "atom_type": "O2d"}, "6": {"label": "*2", "atom_type": "H0"}}

>  <type>  (11) 
unop_7

>  <geom_source>  (11) 
Heuristics

$$$$

     RDKit          3D

  8  6  0  0  0  0  0  0  0  0999 V2000
    0.0006    1.4770    1.3034 C   0  0  0  0  0  0  0  0  0  0  0  0
   -1.0261    1.7849    1.4956 H   0  0  0  0  0  0  0  0  0  0  0  0
    0.6624    2.3355    1.4068 H   0  0  0  0  0  0  0  0  0  0  0  0
    0.3385    0.6973    1.9844 H   0  0  0  0  0  0  0  0  0  0  0  0
    0.0006   -0.7587   -0.0916 C   0  0  0  0  0  3  0  0  0  0  0  0
    0.0006   -0.7587   -1.2867 O   0  0  0  0  0  0  0  0  0  0  0  0
    0.0006    0.3684    0.6116 H   0  0  0  0  0  0  0  0  0  0  0  0
    0.0006   -1.6979    0.4944 H   0  0  0  0  0  0  0  0  0  0  0  0
  1  2  1  0
  1  3  1  0
  1  4  1  0
  1  7  1  0
  5  6  2  0
  5  8  1  0
M  RAD  1   5   2
M  END
>  <reaction>  (12) 
rxn_361

>  <mol_properties>  (12) 
{"0": {"label": "*3", "atom_type": "Cs"}, "1": {"label": "*4", "atom_type": "H0"}, "4": {"label": "*1", "atom_type": "CO"}, "5": {"label": "*0", "atom_type": "O2d"}, "6": {"label": "*2", "atom_type": "H0"}}

>  <type>  (12) 
unop_8

>  <geom_source>  (12) 
Heuristics

$$$$

     RDKit          3D

  8  6  0  0  0  0  0  0  0  0999 V2000
   -0.0043    1.4801    1.3108 C   0  0  0  0  0  0  0  0  0  0  0  0
    0.5090    2.2587    0.7486 H   0  0  0  0  0  0  0  0  0  0  0  0
    0.6599    1.0904    2.0806 H   0  0  0  0  0  0  0  0  0  0  0  0
   -0.9899    1.3389    1.7516 H   0  0  0  0  0  0  0  0  0  0  0  0
   -0.0043   -0.7556   -0.0843 C   0  0  0  0  0  3  0  0  0  0  0  0
   -0.0043   -0.7556   -1.2794 O   0  0  0  0  0  0  0  0  0  0  0  0
   -0.0043    0.3715    0.6190 H   0  0  0  0  0  0  0  0  0  0  0  0
   -0.0043   -1.6948    0.5018 H   0  0  0  0  0  0  0  0  0  0  0  0
  1  2  1  0
  1  3  1  0
  1  4  1  0
  1  7  1  0
  5  6  2  0
  5  8  1  0
M  RAD  1   5   2
M  END
>  <reaction>  (13) 
rxn_361

>  <mol_properties>  (13) 
{"0": {"label": "*3", "atom_type": "Cs"}, "1": {"label": "*4", "atom_type": "H0"}, "4": {"label": "*1", "atom_type": "CO"}, "5": {"label": "*0", "atom_type": "O2d"}, "6": {"label": "*2", "atom_type": "H0"}}

>  <type>  (13) 
unop_9

>  <geom_source>  (13) 
Heuristics

$$$$

     RDKit          3D

  8  6  0  0  0  0  0  0  0  0999 V2000
    0.0007    1.4762    1.3082 C   0  0  0  0  0  0  0  0  0  0  0  0
   -0.8884    2.0559    1.0649 H   0  0  0  0  0  0  0  0  0  0  0  0
    0.8010    2.1493    1.6118 H   0  0  0  0  0  0  0  0  0  0  0  0
    0.0575    0.6445    2.0088 H   0  0  0  0  0  0  0  0  0  0  0  0
    0.0007   -0.7594   -0.0868 C   0  0  0  0  0  3  0  0  0  0  0  0
    0.0007   -0.7594   -1.2819 O   0  0  0  0  0  0  0  0  0  0  0  0
    0.0007    0.3676    0.6165 H   0  0  0  0  0  0  0  0  0  0  0  0
    0.0007   -1.6987    0.4993 H   0  0  0  0  0  0  0  0  0  0  0  0
  1  2  1  0
  1  3  1  0
  1  4  1  0
  1  7  1  0
  5  6  2  0
  5  8  1  0
M  RAD  1   5   2
M  END
>  <reaction>  (14) 
rxn_361

>  <mol_properties>  (14) 
{"0": {"label": "*3", "atom_type": "Cs"}, "1": {"label": "*4", "atom_type": "H0"}, "4": {"label": "*1", "atom_type": "CO"}, "5": {"label": "*0", "atom_type": "O2d"}, "6": {"label": "*2", "atom_type": "H0"}}

>  <type>  (14) 
unop_10

>  <geom_source>  (14) 
Heuristics

$$$$

     RDKit          3D

  8  6  0  0  0  0  0  0  0  0999 V2000
    0.0051    1.4701    1.3013 C   0  0  0  0  0  0  0  0  0  0  0  0
    0.5184    1.3073    2.2477 H   0  0  0  0  0  0  0  0  0  0  0  0
   -1.0608    1.2882    1.4304 H   0  0  0  0  0  0  0  0  0  0  0  0
    0.3318    2.5088    1.2984 H   0  0  0  0  0  0  0  0  0  0  0  0
    0.0051   -0.7656   -0.0938 C   0  0  0  0  0  3  0  0  0  0  0  0
    0.0051   -0.7656   -1.2889 O   0  0  0  0  0  0  0  0  0  0  0  0
    0.0051    0.3615    0.6095 H   0  0  0  0  0  0  0  0  0  0  0  0
    0.0051   -1.7048    0.4923 H   0  0  0  0  0  0  0  0  0  0  0  0
  1  2  1  0
  1  3  1  0
  1  4  1  0
  1  7  1  0
  5  6  2  0
  5  8  1  0
M  RAD  1   5   2
M  END
>  <reaction>  (15) 
rxn_361

>  <mol_properties>  (15) 
{"0": {"label": "*3", "atom_type": "Cs"}, "1": {"label": "*4", "atom_type": "H0"}, "4": {"label": "*1", "atom_type": "CO"}, "5": {"label": "*0", "atom_type": "O2d"}, "6": {"label": "*2", "atom_type": "H0"}}

>  <type>  (15) 
unop_11

>  <geom_source>  (15) 
Heuristics

$$$$

     RDKit          3D

  8  6  0  0  0  0  0  0  0  0999 V2000
   -0.0046    1.4789    1.3128 C   0  0  0  0  0  0  0  0  0  0  0  0
   -0.0046    2.3304    0.6340 H   0  0  0  0  0  0  0  0  0  0  0  0
    0.8845    1.5151    1.9404 H   0  0  0  0  0  0  0  0  0  0  0  0
   -0.6899    0.8912    1.9216 H   0  0  0  0  0  0  0  0  0  0  0  0
   -0.0046   -0.7567   -0.0823 C   0  0  0  0  0  3  0  0  0  0  0  0
   -0.0046   -0.7567   -1.2773 O   0  0  0  0  0  0  0  0  0  0  0  0
   -0.0046    0.3703    0.6210 H   0  0  0  0  0  0  0  0  0  0  0  0
   -0.0046   -1.6959    0.5038 H   0  0  0  0  0  0  0  0  0  0  0  0
  1  2  1  0
  1  3  1  0
  1  4  1  0
  1  7  1  0
  5  6  2  0
  5  8  1  0
M  RAD  1   5   2
M  END
>  <reaction>  (16) 
rxn_361

>  <mol_properties>  (16) 
{"0": {"label": "*3", "atom_type": "Cs"}, "1": {"label": "*4", "atom_type": "H0"}, "4": {"label": "*1", "atom_type": "CO"}, "5": {"label": "*0", "atom_type": "O2d"}, "6": {"label": "*2", "atom_type": "H0"}}

>  <type>  (16) 
unop_12

>  <geom_source>  (16) 
Heuristics

$$$$

     RDKit          3D

  8  6  0  0  0  0  0  0  0  0999 V2000
    2.0306    0.9492   -0.2053 O   0  0  0  0  0  0  0  0  0  0  0  0
   -1.1371    0.0522    0.0580 C   0  0  0  0  0  0  0  0  0  0  0  0
    1.4588   -0.1244   -0.1189 C   0  0  0  0  0  3  0  0  0  0  0  0
   -1.3213    0.9829   -0.5171 H   0  0  0  0  0  0  0  0  0  0  0  0
   -1.8578   -0.7285   -0.2613 H   0  0  0  0  0  0  0  0  0  0  0  0
   -1.2671    0.2549    1.1409 H   0  0  0  0  0  0  0  0  0  0  0  0
    0.0657   -0.3576   -0.1613 H   0  0  0  0  0  0  0  0  0  0  0  0
    2.0282   -1.0287    0.0649 H   0  0  0  0  0  0  0  0  0  0  0  0
  1  3  2  0
  2  4  1  0
  2  5  1  0
  2  6  1  0
  2  7  1  0
  3  8  1  0
M  RAD  1   3   2
M  END
>  <reaction>  (17) 
rxn_361

>  <mol_properties>  (17) 
{"0": {"label": "*3", "atom_type": "Cs"}, "1": {"label": "*4", "atom_type": "H0"}, "4": {"label": "*1", "atom_type": "CO"}, "5": {"label": "*0", "atom_type": "O2d"}, "6": {"label": "*2", "atom_type": "H0"}}

>  <type>  (17) 
unop_13

>  <geom_source>  (17) 
AutoTST

$$$$
