
     RDKit          3D

 14 13  0  0  0  0  0  0  0  0999 V2000
   -0.7647   -1.2352   -0.0348 C   0  0  0  0  0  0  0  0  0  0  0  0
    0.0570   -0.0126    0.3624 C   0  0  0  0  0  0  0  0  0  0  0  0
    1.4161   -0.0194   -0.3307 C   0  0  0  0  0  0  0  0  0  0  0  0
   -0.7022    1.2765    0.0629 C   0  0  0  0  0  0  0  0  0  0  0  0
   -0.2387   -2.1618    0.2040 H   0  0  0  0  0  0  0  0  0  0  0  0
   -0.9625   -1.2315   -1.1108 H   0  0  0  0  0  0  0  0  0  0  0  0
   -1.7273   -1.2512    0.4807 H   0  0  0  0  0  0  0  0  0  0  0  0
    0.2295   -0.0589    1.4432 H   0  0  0  0  0  0  0  0  0  0  0  0
    1.2933    0.0260   -1.4168 H   0  0  0  0  0  0  0  0  0  0  0  0
    2.0206    0.8381   -0.0278 H   0  0  0  0  0  0  0  0  0  0  0  0
    1.9767   -0.9269   -0.0966 H   0  0  0  0  0  0  0  0  0  0  0  0
   -1.6639    1.3001    0.5798 H   0  0  0  0  0  0  0  0  0  0  0  0
   -0.8977    1.3664   -1.0097 H   0  0  0  0  0  0  0  0  0  0  0  0
   -0.1313    2.1545    0.3722 H   0  0  0  0  0  0  0  0  0  0  0  0
  1  2  1  0
  1  5  1  0
  1  6  1  0
  1  7  1  0
  2  3  1  0
  2  4  1  0
  2  8  1  0
  3  9  1  0
  3 10  1  0
  3 11  1  0
  4 12  1  0
  4 13  1  0
  4 14  1  0
M  END
>  <reaction>  (1) 
rxn_984

>  <mol_properties>  (1) 
{"1": {"label": "donator", "atom_type": "Cs"}, "7": {"label": "d_hydrogen", "atom_type": "H0"}}

>  <type>  (1) 
r1h

$$$$

     RDKit          3D

  7  6  0  0  0  0  0  0  0  0999 V2000
    1.8092   -0.3013   -0.2242 S   0  0  0  0  0  0  0  0  0  0  0  0
    0.1552   -0.6967   -0.1137 C   0  0  0  0  0  0  0  0  0  0  0  0
   -0.8921    0.1788    0.1148 C   0  0  0  0  0  0  0  0  0  0  0  0
   -0.7548    1.8245    0.3328 S   0  0  0  0  0  1  0  0  0  0  0  0
    1.6168    1.0210   -0.0187 H   0  0  0  0  0  0  0  0  0  0  0  0
   -0.0550   -1.7522   -0.2412 H   0  0  0  0  0  0  0  0  0  0  0  0
   -1.8791   -0.2740    0.1502 H   0  0  0  0  0  0  0  0  0  0  0  0
  1  2  1  0
  1  5  1  0
  2  3  2  3
  2  6  1  0
  3  4  1  0
  3  7  1  0
M  RAD  1   4   2
M  END
>  <reaction>  (2) 
rxn_984

>  <mol_properties>  (2) 
{"1": {"label": "acceptor", "atom_type": "Cs"}}

>  <type>  (2) 
r2

$$$$

     RDKit          3D

  8  7  0  0  0  0  0  0  0  0999 V2000
    1.7301   -0.0562    0.5281 S   0  0  0  0  0  0  0  0  0  0  0  0
    0.1858    0.6127   -0.1669 C   0  0  0  0  0  0  0  0  0  0  0  0
   -0.9621   -0.2567    0.2171 C   0  0  0  0  0  0  0  0  0  0  0  0
   -1.8663   -1.1002   -0.8086 S   0  0  0  0  0  0  0  0  0  0  0  0
    1.7025   -1.2092   -0.1540 H   0  0  0  0  0  0  0  0  0  0  0  0
    0.2619    0.7246   -1.2458 H   0  0  0  0  0  0  0  0  0  0  0  0
    0.0809    1.5982    0.2929 H   0  0  0  0  0  0  0  0  0  0  0  0
   -1.1456   -0.3126    1.2907 H   0  0  0  0  0  0  0  0  0  0  0  0
  1  2  1  0
  1  5  1  0
  2  3  1  0
  2  6  1  0
  2  7  1  0
  3  4  2  0
  3  8  1  0
M  END
>  <reaction>  (3) 
rxn_984

>  <mol_properties>  (3) 
{"1": {"label": "acceptor", "atom_type": "Cs"}, "7": {"label": "a_hydrogen", "atom_type": "H0"}}

>  <type>  (3) 
r2h

$$$$

     RDKit          3D

 21 19  0  0  0  0  0  0  0  0999 V2000
    1.8834    1.1263    0.0346 S   0  0  0  0  0  0  0  0  0  0  0  0
    0.6357    0.1037    0.7996 C   0  0  0  0  0  0  0  0  0  0  0  0
    0.5784   -1.3193    0.5134 C   0  0  0  0  0  0  0  0  0  0  0  0
    1.2009   -2.1020   -0.7681 S   0  0  0  0  0  0  0  0  0  0  0  0
    2.1018    0.2820   -0.9903 H   0  0  0  0  0  0  0  0  0  0  0  0
    0.5710    0.3256    1.8642 H   0  0  0  0  0  0  0  0  0  0  0  0
   -0.0261   -1.8773    1.2289 H   0  0  0  0  0  0  0  0  0  0  0  0
   -1.4314    1.0058   -1.6378 C   0  0  0  0  0  0  0  0  0  0  0  0
   -1.7389    1.0722   -0.1730 C   0  0  0  0  0  3  0  0  0  0  0  0
   -1.7871    2.4391    0.4383 C   0  0  0  0  0  0  0  0  0  0  0  0
   -2.7124    0.0579    0.3467 C   0  0  0  0  0  0  0  0  0  0  0  0
   -0.5773    1.6355   -1.8919 H   0  0  0  0  0  0  0  0  0  0  0  0
   -2.2910    1.3568   -2.2238 H   0  0  0  0  0  0  0  0  0  0  0  0
   -1.2137   -0.0163   -1.9535 H   0  0  0  0  0  0  0  0  0  0  0  0
   -0.4579    0.5140    0.3907 H   0  0  0  0  0  0  0  0  0  0  0  0
   -2.6673    2.9889    0.0803 H   0  0  0  0  0  0  0  0  0  0  0  0
   -1.8543    2.3916    1.5271 H   0  0  0  0  0  0  0  0  0  0  0  0
   -0.9052    3.0227    0.1675 H   0  0  0  0  0  0  0  0  0  0  0  0
   -2.4452   -0.9503    0.0207 H   0  0  0  0  0  0  0  0  0  0  0  0
   -3.7214    0.2629   -0.0326 H   0  0  0  0  0  0  0  0  0  0  0  0
   -2.7651    0.0705    1.4373 H   0  0  0  0  0  0  0  0  0  0  0  0
  1  2  1  0
  1  5  1  0
  2  3  1  0
  2  6  1  0
  2 15  1  0
  3  4  2  0
  3  7  1  0
  8  9  1  0
  8 12  1  0
  8 13  1  0
  8 14  1  0
  9 10  1  0
  9 11  1  0
 10 16  1  0
 10 17  1  0
 10 18  1  0
 11 19  1  0
 11 20  1  0
 11 21  1  0
M  RAD  1   9   2
M  END
>  <reaction>  (4) 
rxn_984

>  <mol_properties>  (4) 
{"1": {"label": "*1", "atom_type": "Cs"}, "2": {"label": "*0", "atom_type": "CS"}, "7": {"label": "*4", "atom_type": "Cs"}, "8": {"label": "*3", "atom_type": "Cs"}, "14": {"label": "*2", "atom_type": "H0"}}

>  <type>  (4) 
ts

$$$$

     RDKit          3D

 21 19  0  0  0  0  0  0  0  0999 V2000
    1.4273    0.7870    1.6017 S   0  0  0  0  0  0  0  0  0  0  0  0
    0.4193   -0.3448    0.5924 C   0  0  0  0  0  0  0  0  0  0  0  0
    1.2469   -1.5014    0.1472 C   0  0  0  0  0  0  0  0  0  0  0  0
    1.6198   -1.8379   -1.3789 S   0  0  0  0  0  0  0  0  0  0  0  0
    2.2899    1.1111    0.6289 H   0  0  0  0  0  0  0  0  0  0  0  0
   -0.3706   -0.6853    1.2661 H   0  0  0  0  0  0  0  0  0  0  0  0
    1.6274   -2.1223    0.9590 H   0  0  0  0  0  0  0  0  0  0  0  0
   -1.7799    0.8277   -1.7395 C   0  0  0  0  0  0  0  0  0  0  0  0
   -1.7799    0.8277   -0.2138 C   0  0  0  0  0  3  0  0  0  0  0  0
   -1.7799    2.2523    0.3323 C   0  0  0  0  0  0  0  0  0  0  0  0
   -2.9627    0.0336    0.3323 C   0  0  0  0  0  0  0  0  0  0  0  0
   -0.9193    1.3700   -2.1365 H   0  0  0  0  0  0  0  0  0  0  0  0
   -2.6839    1.3096   -2.1233 H   0  0  0  0  0  0  0  0  0  0  0  0
   -1.7504   -0.1892   -2.1365 H   0  0  0  0  0  0  0  0  0  0  0  0
   -0.6762    0.2393    0.1908 H   0  0  0  0  0  0  0  0  0  0  0  0
   -2.6839    2.7831    0.0197 H   0  0  0  0  0  0  0  0  0  0  0  0
   -1.7504    2.2591    1.4239 H   0  0  0  0  0  0  0  0  0  0  0  0
   -0.9193    2.8172   -0.0320 H   0  0  0  0  0  0  0  0  0  0  0  0
   -2.9520   -0.9958   -0.0321 H   0  0  0  0  0  0  0  0  0  0  0  0
   -3.9073    0.4883    0.0198 H   0  0  0  0  0  0  0  0  0  0  0  0
   -2.9519    0.0051    1.4239 H   0  0  0  0  0  0  0  0  0  0  0  0
  1  2  1  0
  1  5  1  0
  2  3  1  0
  2  6  1  0
  2 15  1  0
  3  4  2  0
  3  7  1  0
  8  9  1  0
  8 12  1  0
  8 13  1  0
  8 14  1  0
  9 10  1  0
  9 11  1  0
 10 16  1  0
 10 17  1  0
 10 18  1  0
 11 19  1  0
 11 20  1  0
 11 21  1  0
M  RAD  1   9   2
M  END
>  <reaction>  (5) 
rxn_984

>  <mol_properties>  (5) 
{"1": {"label": "*1", "atom_type": "Cs"}, "2": {"label": "*0", "atom_type": "CS"}, "7": {"label": "*4", "atom_type": "Cs"}, "8": {"label": "*3", "atom_type": "Cs"}, "14": {"label": "*2", "atom_type": "H0"}}

>  <type>  (5) 
unop_1

>  <geom_source>  (5) 
Heuristics

$$$$

     RDKit          3D

 21 19  0  0  0  0  0  0  0  0999 V2000
    2.2356    0.3344   -0.7111 S   0  0  0  0  0  0  0  0  0  0  0  0
    0.8896    0.0883    0.4901 C   0  0  0  0  0  0  0  0  0  0  0  0
    0.9624   -1.2869    1.0595 C   0  0  0  0  0  0  0  0  0  0  0  0
   -0.1513   -2.4284    0.8641 S   0  0  0  0  0  0  0  0  0  0  0  0
    1.8267   -0.6059   -1.5737 H   0  0  0  0  0  0  0  0  0  0  0  0
    1.0785    0.8287    1.2711 H   0  0  0  0  0  0  0  0  0  0  0  0
    1.8736   -1.4942    1.6218 H   0  0  0  0  0  0  0  0  0  0  0  0
   -1.3097    1.2607   -1.8418 C   0  0  0  0  0  0  0  0  0  0  0  0
   -1.3097    1.2607   -0.3161 C   0  0  0  0  0  3  0  0  0  0  0  0
   -1.3097    2.6854    0.2300 C   0  0  0  0  0  0  0  0  0  0  0  0
   -2.4925    0.4667    0.2300 C   0  0  0  0  0  0  0  0  0  0  0  0
   -0.4490    1.8031   -2.2388 H   0  0  0  0  0  0  0  0  0  0  0  0
   -2.2137    1.7426   -2.2256 H   0  0  0  0  0  0  0  0  0  0  0  0
   -1.2802    0.2439   -2.2388 H   0  0  0  0  0  0  0  0  0  0  0  0
   -0.2060    0.6724    0.0885 H   0  0  0  0  0  0  0  0  0  0  0  0
   -2.2137    3.2162   -0.0826 H   0  0  0  0  0  0  0  0  0  0  0  0
   -1.2801    2.6922    1.3216 H   0  0  0  0  0  0  0  0  0  0  0  0
   -0.4490    3.2503   -0.1343 H   0  0  0  0  0  0  0  0  0  0  0  0
   -2.4818   -0.5627   -0.1344 H   0  0  0  0  0  0  0  0  0  0  0  0
   -3.4371    0.9214   -0.0825 H   0  0  0  0  0  0  0  0  0  0  0  0
   -2.4816    0.4382    1.3216 H   0  0  0  0  0  0  0  0  0  0  0  0
  1  2  1  0
  1  5  1  0
  2  3  1  0
  2  6  1  0
  2 15  1  0
  3  4  2  0
  3  7  1  0
  8  9  1  0
  8 12  1  0
  8 13  1  0
  8 14  1  0
  9 10  1  0
  9 11  1  0
 10 16  1  0
 10 17  1  0
 10 18  1  0
 11 19  1  0
 11 20  1  0
 11 21  1  0
M  RAD  1   9   2
M  END
>  <reaction>  (6) 
rxn_984

>  <mol_properties>  (6) 
{"1": {"label": "*1", "atom_type": "Cs"}, "2": {"label": "*0", "atom_type": "CS"}, "7": {"label": "*4", "atom_type": "Cs"}, "8": {"label": "*3", "atom_type": "Cs"}, "14": {"label": "*2", "atom_type": "H0"}}

>  <type>  (6) 
unop_2

>  <geom_source>  (6) 
Heuristics

$$$$

     RDKit          3D

 21 19  0  0  0  0  0  0  0  0999 V2000
    0.9280    0.0377    2.1315 S   0  0  0  0  0  0  0  0  0  0  0  0
    0.3820   -0.6349    0.5300 C   0  0  0  0  0  0  0  0  0  0  0  0
    1.5549   -1.1530   -0.2294 C   0  0  0  0  0  0  0  0  0  0  0  0
    2.0876   -0.5605   -1.6246 S   0  0  0  0  0  0  0  0  0  0  0  0
    1.6877    1.0161    1.6205 H   0  0  0  0  0  0  0  0  0  0  0  0
   -0.2894   -1.4565    0.7907 H   0  0  0  0  0  0  0  0  0  0  0  0
    2.0744   -1.9813    0.2536 H   0  0  0  0  0  0  0  0  0  0  0  0
   -1.8172    0.5375   -1.8019 C   0  0  0  0  0  0  0  0  0  0  0  0
   -1.8172    0.5375   -0.2762 C   0  0  0  0  0  3  0  0  0  0  0  0
   -1.8172    1.9622    0.2698 C   0  0  0  0  0  0  0  0  0  0  0  0
   -3.0000   -0.2565    0.2698 C   0  0  0  0  0  0  0  0  0  0  0  0
   -0.9566    1.0799   -2.1990 H   0  0  0  0  0  0  0  0  0  0  0  0
   -2.7212    1.0194   -2.1857 H   0  0  0  0  0  0  0  0  0  0  0  0
   -1.7877   -0.4793   -2.1990 H   0  0  0  0  0  0  0  0  0  0  0  0
   -0.7135   -0.0508    0.1284 H   0  0  0  0  0  0  0  0  0  0  0  0
   -2.7212    2.4930   -0.0427 H   0  0  0  0  0  0  0  0  0  0  0  0
   -1.7877    1.9690    1.3615 H   0  0  0  0  0  0  0  0  0  0  0  0
   -0.9566    2.5270   -0.0944 H   0  0  0  0  0  0  0  0  0  0  0  0
   -2.9893   -1.2859   -0.0946 H   0  0  0  0  0  0  0  0  0  0  0  0
   -3.9446    0.1982   -0.0427 H   0  0  0  0  0  0  0  0  0  0  0  0
   -2.9892   -0.2850    1.3614 H   0  0  0  0  0  0  0  0  0  0  0  0
  1  2  1  0
  1  5  1  0
  2  3  1  0
  2  6  1  0
  2 15  1  0
  3  4  2  0
  3  7  1  0
  8  9  1  0
  8 12  1  0
  8 13  1  0
  8 14  1  0
  9 10  1  0
  9 11  1  0
 10 16  1  0
 10 17  1  0
 10 18  1  0
 11 19  1  0
 11 20  1  0
 11 21  1  0
M  RAD  1   9   2
M  END
>  <reaction>  (7) 
rxn_984

>  <mol_properties>  (7) 
{"1": {"label": "*1", "atom_type": "Cs"}, "2": {"label": "*0", "atom_type": "CS"}, "7": {"label": "*4", "atom_type": "Cs"}, "8": {"label": "*3", "atom_type": "Cs"}, "14": {"label": "*2", "atom_type": "H0"}}

>  <type>  (7) 
unop_3

>  <geom_source>  (7) 
Heuristics

$$$$

     RDKit          3D

 21 19  0  0  0  0  0  0  0  0999 V2000
    1.5302   -2.0127   -0.6038 S   0  0  0  0  0  0  0  0  0  0  0  0
    1.4461   -0.2987    0.0052 C   0  0  0  0  0  0  0  0  0  0  0  0
    0.8122   -0.2695    1.3535 C   0  0  0  0  0  0  0  0  0  0  0  0
   -0.5867    0.4396    1.7020 S   0  0  0  0  0  0  0  0  0  0  0  0
    0.2056   -2.2098   -0.6495 H   0  0  0  0  0  0  0  0  0  0  0  0
    2.4887    0.0209    0.0732 H   0  0  0  0  0  0  0  0  0  0  0  0
    1.3660   -0.8078    2.1236 H   0  0  0  0  0  0  0  0  0  0  0  0
   -0.7531    0.8737   -2.3267 C   0  0  0  0  0  0  0  0  0  0  0  0
   -0.7531    0.8737   -0.8010 C   0  0  0  0  0  3  0  0  0  0  0  0
   -0.7531    2.2983   -0.2549 C   0  0  0  0  0  0  0  0  0  0  0  0
   -1.9359    0.0796   -0.2550 C   0  0  0  0  0  0  0  0  0  0  0  0
    0.1075    1.4160   -2.7238 H   0  0  0  0  0  0  0  0  0  0  0  0
   -1.6571    1.3556   -2.7105 H   0  0  0  0  0  0  0  0  0  0  0  0
   -0.7236   -0.1432   -2.7238 H   0  0  0  0  0  0  0  0  0  0  0  0
    0.3506    0.2853   -0.3964 H   0  0  0  0  0  0  0  0  0  0  0  0
   -1.6572    2.8292   -0.5675 H   0  0  0  0  0  0  0  0  0  0  0  0
   -0.7236    2.3051    0.8367 H   0  0  0  0  0  0  0  0  0  0  0  0
    0.1075    2.8632   -0.6192 H   0  0  0  0  0  0  0  0  0  0  0  0
   -1.9253   -0.9498   -0.6193 H   0  0  0  0  0  0  0  0  0  0  0  0
   -2.8806    0.5344   -0.5675 H   0  0  0  0  0  0  0  0  0  0  0  0
   -1.9251    0.0512    0.8366 H   0  0  0  0  0  0  0  0  0  0  0  0
  1  2  1  0
  1  5  1  0
  2  3  1  0
  2  6  1  0
  2 15  1  0
  3  4  2  0
  3  7  1  0
  8  9  1  0
  8 12  1  0
  8 13  1  0
  8 14  1  0
  9 10  1  0
  9 11  1  0
 10 16  1  0
 10 17  1  0
 10 18  1  0
 11 19  1  0
 11 20  1  0
 11 21  1  0
M  RAD  1   9   2
M  END
>  <reaction>  (8) 
rxn_984

>  <mol_properties>  (8) 
{"1": {"label": "*1", "atom_type": "Cs"}, "2": {"label": "*0", "atom_type": "CS"}, "7": {"label": "*4", "atom_type": "Cs"}, "8": {"label": "*3", "atom_type": "Cs"}, "14": {"label": "*2", "atom_type": "H0"}}

>  <type>  (8) 
unop_4

>  <geom_source>  (8) 
Heuristics

$$$$

     RDKit          3D

 21 19  0  0  0  0  0  0  0  0999 V2000
    0.6675   -1.0519    2.1132 S   0  0  0  0  0  0  0  0  0  0  0  0
    0.5834   -1.0071    0.2949 C   0  0  0  0  0  0  0  0  0  0  0  0
    1.7971   -0.3382   -0.2531 C   0  0  0  0  0  0  0  0  0  0  0  0
    1.8008    1.0459   -1.0689 S   0  0  0  0  0  0  0  0  0  0  0  0
    0.6498    0.2766    2.2867 H   0  0  0  0  0  0  0  0  0  0  0  0
    0.5651   -2.0573   -0.0060 H   0  0  0  0  0  0  0  0  0  0  0  0
    2.7332   -0.8531   -0.0340 H   0  0  0  0  0  0  0  0  0  0  0  0
   -1.6158    0.1653   -2.0370 C   0  0  0  0  0  0  0  0  0  0  0  0
   -1.6158    0.1653   -0.5113 C   0  0  0  0  0  3  0  0  0  0  0  0
   -1.6158    1.5899    0.0347 C   0  0  0  0  0  0  0  0  0  0  0  0
   -2.7986   -0.6288    0.0347 C   0  0  0  0  0  0  0  0  0  0  0  0
   -0.7552    0.7076   -2.4341 H   0  0  0  0  0  0  0  0  0  0  0  0
   -2.5198    0.6472   -2.4208 H   0  0  0  0  0  0  0  0  0  0  0  0
   -1.5863   -0.8516   -2.4341 H   0  0  0  0  0  0  0  0  0  0  0  0
   -0.5121   -0.4231   -0.1067 H   0  0  0  0  0  0  0  0  0  0  0  0
   -2.5198    2.1208   -0.2779 H   0  0  0  0  0  0  0  0  0  0  0  0
   -1.5863    1.5967    1.1263 H   0  0  0  0  0  0  0  0  0  0  0  0
   -0.7552    2.1548   -0.3296 H   0  0  0  0  0  0  0  0  0  0  0  0
   -2.7879   -1.6582   -0.3297 H   0  0  0  0  0  0  0  0  0  0  0  0
   -3.7432   -0.1740   -0.2778 H   0  0  0  0  0  0  0  0  0  0  0  0
   -2.7878   -0.6572    1.1263 H   0  0  0  0  0  0  0  0  0  0  0  0
  1  2  1  0
  1  5  1  0
  2  3  1  0
  2  6  1  0
  2 15  1  0
  3  4  2  0
  3  7  1  0
  8  9  1  0
  8 12  1  0
  8 13  1  0
  8 14  1  0
  9 10  1  0
  9 11  1  0
 10 16  1  0
 10 17  1  0
 10 18  1  0
 11 19  1  0
 11 20  1  0
 11 21  1  0
M  RAD  1   9   2
M  END
>  <reaction>  (9) 
rxn_984

>  <mol_properties>  (9) 
{"1": {"label": "*1", "atom_type": "Cs"}, "2": {"label": "*0", "atom_type": "CS"}, "7": {"label": "*4", "atom_type": "Cs"}, "8": {"label": "*3", "atom_type": "Cs"}, "14": {"label": "*2", "atom_type": "H0"}}

>  <type>  (9) 
unop_5

>  <geom_source>  (9) 
Heuristics

$$$$

     RDKit          3D

 21 19  0  0  0  0  0  0  0  0999 V2000
    1.1669   -2.3545    0.1169 S   0  0  0  0  0  0  0  0  0  0  0  0
    1.4210   -0.5626   -0.0832 C   0  0  0  0  0  0  0  0  0  0  0  0
    0.9887    0.1524    1.1507 C   0  0  0  0  0  0  0  0  0  0  0  0
   -0.2292    1.1969    1.2351 S   0  0  0  0  0  0  0  0  0  0  0  0
   -0.1660   -2.2936    0.2405 H   0  0  0  0  0  0  0  0  0  0  0  0
    2.4988   -0.4512   -0.2239 H   0  0  0  0  0  0  0  0  0  0  0  0
    1.5569   -0.1074    2.0446 H   0  0  0  0  0  0  0  0  0  0  0  0
   -0.7783    0.6098   -2.4151 C   0  0  0  0  0  0  0  0  0  0  0  0
   -0.7783    0.6098   -0.8894 C   0  0  0  0  0  3  0  0  0  0  0  0
   -0.7783    2.0345   -0.3434 C   0  0  0  0  0  0  0  0  0  0  0  0
   -1.9611   -0.1843   -0.3434 C   0  0  0  0  0  0  0  0  0  0  0  0
    0.0824    1.1522   -2.8122 H   0  0  0  0  0  0  0  0  0  0  0  0
   -1.6823    1.0917   -2.7989 H   0  0  0  0  0  0  0  0  0  0  0  0
   -0.7487   -0.4070   -2.8122 H   0  0  0  0  0  0  0  0  0  0  0  0
    0.3254    0.0214   -0.4848 H   0  0  0  0  0  0  0  0  0  0  0  0
   -1.6823    2.5653   -0.6559 H   0  0  0  0  0  0  0  0  0  0  0  0
   -0.7487    2.0413    0.7482 H   0  0  0  0  0  0  0  0  0  0  0  0
    0.0824    2.5993   -0.7077 H   0  0  0  0  0  0  0  0  0  0  0  0
   -1.9504   -1.2136   -0.7078 H   0  0  0  0  0  0  0  0  0  0  0  0
   -2.9057    0.2705   -0.6559 H   0  0  0  0  0  0  0  0  0  0  0  0
   -1.9502   -0.2127    0.7482 H   0  0  0  0  0  0  0  0  0  0  0  0
  1  2  1  0
  1  5  1  0
  2  3  1  0
  2  6  1  0
  2 15  1  0
  3  4  2  0
  3  7  1  0
  8  9  1  0
  8 12  1  0
  8 13  1  0
  8 14  1  0
  9 10  1  0
  9 11  1  0
 10 16  1  0
 10 17  1  0
 10 18  1  0
 11 19  1  0
 11 20  1  0
 11 21  1  0
M  RAD  1   9   2
M  END
>  <reaction>  (10) 
rxn_984

>  <mol_properties>  (10) 
{"1": {"label": "*1", "atom_type": "Cs"}, "2": {"label": "*0", "atom_type": "CS"}, "7": {"label": "*4", "atom_type": "Cs"}, "8": {"label": "*3", "atom_type": "Cs"}, "14": {"label": "*2", "atom_type": "H0"}}

>  <type>  (10) 
unop_6

>  <geom_source>  (10) 
Heuristics

$$$$

     RDKit          3D

 21 18  0  0  0  0  0  0  0  0999 V2000
    0.9110   -2.2931    0.9161 S   0  0  0  0  0  0  0  0  0  0  0  0
    1.2889   -0.8254   -0.0931 C   0  0  0  0  0  0  0  0  0  0  0  0
    1.2568    0.3977    0.7576 C   0  0  0  0  0  2  0  0  0  0  0  0
    0.2131    1.6085    0.5966 S   0  0  0  0  0  1  0  0  0  0  0  0
   -0.3343   -1.9214    1.2425 H   0  0  0  0  0  0  0  0  0  0  0  0
    2.3021   -0.9991   -0.4633 H   0  0  0  0  0  0  0  0  0  0  0  0
    2.0020    0.4126    1.5538 H   0  0  0  0  0  0  0  0  0  0  0  0
   -0.9104    0.3471   -2.4250 C   0  0  0  0  0  0  0  0  0  0  0  0
   -0.9104    0.3471   -0.8993 C   0  0  0  0  0  2  0  0  0  0  0  0
   -0.9104    1.7717   -0.3533 C   0  0  0  0  0  0  0  0  0  0  0  0
   -2.0932   -0.4470   -0.3533 C   0  0  0  0  0  0  0  0  0  0  0  0
   -0.0497    0.8894   -2.8221 H   0  0  0  0  0  0  0  0  0  0  0  0
   -1.8144    0.8289   -2.8088 H   0  0  0  0  0  0  0  0  0  0  0  0
   -0.8808   -0.6698   -2.8221 H   0  0  0  0  0  0  0  0  0  0  0  0
    0.1933   -0.2413   -0.4947 H   0  0  0  0  0  0  0  0  0  0  0  0
   -1.8144    2.3025   -0.6659 H   0  0  0  0  0  0  0  0  0  0  0  0
   -0.8808    1.7785    0.7383 H   0  0  0  0  0  0  0  0  0  0  0  0
   -0.0497    2.3366   -0.7176 H   0  0  0  0  0  0  0  0  0  0  0  0
   -2.0825   -1.4764   -0.7177 H   0  0  0  0  0  0  0  0  0  0  0  0
   -3.0378    0.0077   -0.6658 H   0  0  0  0  0  0  0  0  0  0  0  0
   -2.0823   -0.4755    0.7383 H   0  0  0  0  0  0  0  0  0  0  0  0
  1  2  1  0
  1  5  1  0
  2  3  1  0
  2  6  1  0
  2 15  1  0
  3  7  1  0
  4 10  1  0
  8  9  1  0
  8 12  1  0
  8 13  1  0
  8 14  1  0
  9 11  1  0
 10 16  1  0
 10 17  1  0
 10 18  1  0
 11 19  1  0
 11 20  1  0
 11 21  1  0
M  RAD  3   3   3   4   2   9   3
M  END
>  <reaction>  (11) 
rxn_984

>  <mol_properties>  (11) 
{"1": {"label": "*1", "atom_type": "Cs"}, "2": {"label": "*0", "atom_type": "CS"}, "7": {"label": "*4", "atom_type": "Cs"}, "8": {"label": "*3", "atom_type": "Cs"}, "14": {"label": "*2", "atom_type": "H0"}}

>  <type>  (11) 
unop_7

>  <geom_source>  (11) 
Heuristics

$$$$

     RDKit          3D

 21 19  0  0  0  0  0  0  0  0999 V2000
    1.8671    1.0524    0.7966 S   0  0  0  0  0  0  0  0  0  0  0  0
    0.5210   -0.1573    0.5964 C   0  0  0  0  0  0  0  0  0  0  0  0
    1.0818   -1.5370    0.5455 C   0  0  0  0  0  0  0  0  0  0  0  0
    1.0056   -2.5195   -0.7234 S   0  0  0  0  0  0  0  0  0  0  0  0
    2.4725    0.7818   -0.3678 H   0  0  0  0  0  0  0  0  0  0  0  0
   -0.0947   -0.0348    1.4907 H   0  0  0  0  0  0  0  0  0  0  0  0
    1.5974   -1.8478    1.4550 H   0  0  0  0  0  0  0  0  0  0  0  0
   -1.6783    1.0151   -1.7355 C   0  0  0  0  0  0  0  0  0  0  0  0
   -1.6783    1.0151   -0.2098 C   0  0  0  0  0  3  0  0  0  0  0  0
   -1.6783    2.4398    0.3363 C   0  0  0  0  0  0  0  0  0  0  0  0
   -2.8611    0.2210    0.3363 C   0  0  0  0  0  0  0  0  0  0  0  0
   -0.8176    1.5574   -2.1325 H   0  0  0  0  0  0  0  0  0  0  0  0
   -2.5823    1.4970   -2.1193 H   0  0  0  0  0  0  0  0  0  0  0  0
   -1.6487   -0.0017   -2.1325 H   0  0  0  0  0  0  0  0  0  0  0  0
   -0.5746    0.4267    0.1948 H   0  0  0  0  0  0  0  0  0  0  0  0
   -2.5823    2.9706    0.0237 H   0  0  0  0  0  0  0  0  0  0  0  0
   -1.6487    2.4465    1.4279 H   0  0  0  0  0  0  0  0  0  0  0  0
   -0.8176    3.0046   -0.0280 H   0  0  0  0  0  0  0  0  0  0  0  0
   -2.8504   -0.8083   -0.0281 H   0  0  0  0  0  0  0  0  0  0  0  0
   -3.8057    0.6758    0.0238 H   0  0  0  0  0  0  0  0  0  0  0  0
   -2.8502    0.1926    1.4279 H   0  0  0  0  0  0  0  0  0  0  0  0
  1  2  1  0
  1  5  1  0
  2  3  1  0
  2  6  1  0
  2 15  1  0
  3  4  2  0
  3  7  1  0
  8  9  1  0
  8 12  1  0
  8 13  1  0
  8 14  1  0
  9 10  1  0
  9 11  1  0
 10 16  1  0
 10 17  1  0
 10 18  1  0
 11 19  1  0
 11 20  1  0
 11 21  1  0
M  RAD  1   9   2
M  END
>  <reaction>  (12) 
rxn_984

>  <mol_properties>  (12) 
{"1": {"label": "*1", "atom_type": "Cs"}, "2": {"label": "*0", "atom_type": "CS"}, "7": {"label": "*4", "atom_type": "Cs"}, "8": {"label": "*3", "atom_type": "Cs"}, "14": {"label": "*2", "atom_type": "H0"}}

>  <type>  (12) 
unop_8

>  <geom_source>  (12) 
Heuristics

$$$$

     RDKit          3D

 21 19  0  0  0  0  0  0  0  0999 V2000
    1.9024   -1.3172   -1.0443 S   0  0  0  0  0  0  0  0  0  0  0  0
    1.3564   -0.0624    0.1569 C   0  0  0  0  0  0  0  0  0  0  0  0
    0.7733   -0.7276    1.3562 C   0  0  0  0  0  0  0  0  0  0  0  0
   -0.7592   -0.6111    1.8242 S   0  0  0  0  0  0  0  0  0  0  0  0
    0.6854   -1.8281   -1.2755 H   0  0  0  0  0  0  0  0  0  0  0  0
    2.2690    0.4725    0.4305 H   0  0  0  0  0  0  0  0  0  0  0  0
    1.4747   -1.3520    1.9109 H   0  0  0  0  0  0  0  0  0  0  0  0
   -0.8429    1.1100   -2.1750 C   0  0  0  0  0  0  0  0  0  0  0  0
   -0.8429    1.1100   -0.6493 C   0  0  0  0  0  3  0  0  0  0  0  0
   -0.8429    2.5347   -0.1032 C   0  0  0  0  0  0  0  0  0  0  0  0
   -2.0257    0.3159   -0.1032 C   0  0  0  0  0  0  0  0  0  0  0  0
    0.0178    1.6523   -2.5721 H   0  0  0  0  0  0  0  0  0  0  0  0
   -1.7469    1.5919   -2.5588 H   0  0  0  0  0  0  0  0  0  0  0  0
   -0.8133    0.0932   -2.5721 H   0  0  0  0  0  0  0  0  0  0  0  0
    0.2608    0.5216   -0.2447 H   0  0  0  0  0  0  0  0  0  0  0  0
   -1.7469    3.0655   -0.4158 H   0  0  0  0  0  0  0  0  0  0  0  0
   -0.8133    2.5414    0.9884 H   0  0  0  0  0  0  0  0  0  0  0  0
    0.0178    3.0995   -0.4675 H   0  0  0  0  0  0  0  0  0  0  0  0
   -2.0150   -0.7135   -0.4676 H   0  0  0  0  0  0  0  0  0  0  0  0
   -2.9703    0.7707   -0.4157 H   0  0  0  0  0  0  0  0  0  0  0  0
   -2.0148    0.2875    0.9884 H   0  0  0  0  0  0  0  0  0  0  0  0
  1  2  1  0
  1  5  1  0
  2  3  1  0
  2  6  1  0
  2 15  1  0
  3  4  2  0
  3  7  1  0
  8  9  1  0
  8 12  1  0
  8 13  1  0
  8 14  1  0
  9 10  1  0
  9 11  1  0
 10 16  1  0
 10 17  1  0
 10 18  1  0
 11 19  1  0
 11 20  1  0
 11 21  1  0
M  RAD  1   9   2
M  END
>  <reaction>  (13) 
rxn_984

>  <mol_properties>  (13) 
{"1": {"label": "*1", "atom_type": "Cs"}, "2": {"label": "*0", "atom_type": "CS"}, "7": {"label": "*4", "atom_type": "Cs"}, "8": {"label": "*3", "atom_type": "Cs"}, "14": {"label": "*2", "atom_type": "H0"}}

>  <type>  (13) 
unop_9

>  <geom_source>  (13) 
Heuristics

$$$$

     RDKit          3D

 21 19  0  0  0  0  0  0  0  0999 V2000
    2.1419    0.8736   -0.0393 S   0  0  0  0  0  0  0  0  0  0  0  0
    0.6721   -0.0120    0.5696 C   0  0  0  0  0  0  0  0  0  0  0  0
    1.0166   -1.4343    0.8509 C   0  0  0  0  0  0  0  0  0  0  0  0
    0.4087   -2.7033    0.0755 S   0  0  0  0  0  0  0  0  0  0  0  0
    2.2912    0.1462   -1.1547 H   0  0  0  0  0  0  0  0  0  0  0  0
    0.4062    0.5007    1.4972 H   0  0  0  0  0  0  0  0  0  0  0  0
    1.7635   -1.5707    1.6339 H   0  0  0  0  0  0  0  0  0  0  0  0
   -1.5272    1.1604   -1.7623 C   0  0  0  0  0  0  0  0  0  0  0  0
   -1.5272    1.1604   -0.2366 C   0  0  0  0  0  3  0  0  0  0  0  0
   -1.5272    2.5851    0.3095 C   0  0  0  0  0  0  0  0  0  0  0  0
   -2.7100    0.3664    0.3095 C   0  0  0  0  0  0  0  0  0  0  0  0
   -0.6665    1.7028   -2.1593 H   0  0  0  0  0  0  0  0  0  0  0  0
   -2.4312    1.6423   -2.1460 H   0  0  0  0  0  0  0  0  0  0  0  0
   -1.4976    0.1436   -2.1593 H   0  0  0  0  0  0  0  0  0  0  0  0
   -0.4235    0.5721    0.1680 H   0  0  0  0  0  0  0  0  0  0  0  0
   -2.4312    3.1159   -0.0031 H   0  0  0  0  0  0  0  0  0  0  0  0
   -1.4976    2.5919    1.4011 H   0  0  0  0  0  0  0  0  0  0  0  0
   -0.6665    3.1500   -0.0548 H   0  0  0  0  0  0  0  0  0  0  0  0
   -2.6993   -0.6630   -0.0549 H   0  0  0  0  0  0  0  0  0  0  0  0
   -3.6546    0.8211   -0.0030 H   0  0  0  0  0  0  0  0  0  0  0  0
   -2.6991    0.3379    1.4011 H   0  0  0  0  0  0  0  0  0  0  0  0
  1  2  1  0
  1  5  1  0
  2  3  1  0
  2  6  1  0
  2 15  1  0
  3  4  2  0
  3  7  1  0
  8  9  1  0
  8 12  1  0
  8 13  1  0
  8 14  1  0
  9 10  1  0
  9 11  1  0
 10 16  1  0
 10 17  1  0
 10 18  1  0
 11 19  1  0
 11 20  1  0
 11 21  1  0
M  RAD  1   9   2
M  END
>  <reaction>  (14) 
rxn_984

>  <mol_properties>  (14) 
{"1": {"label": "*1", "atom_type": "Cs"}, "2": {"label": "*0", "atom_type": "CS"}, "7": {"label": "*4", "atom_type": "Cs"}, "8": {"label": "*3", "atom_type": "Cs"}, "14": {"label": "*2", "atom_type": "H0"}}

>  <type>  (14) 
unop_10

>  <geom_source>  (14) 
Heuristics

$$$$

     RDKit          3D

 21 19  0  0  0  0  0  0  0  0999 V2000
    0.7571   -1.8729    1.6154 S   0  0  0  0  0  0  0  0  0  0  0  0
    1.0112   -1.0447    0.0138 C   0  0  0  0  0  0  0  0  0  0  0  0
    1.5825    0.3146    0.2302 C   0  0  0  0  0  0  0  0  0  0  0  0
    0.8476    1.6953   -0.1372 S   0  0  0  0  0  0  0  0  0  0  0  0
   -0.1456   -0.9997    2.0825 H   0  0  0  0  0  0  0  0  0  0  0  0
    1.7320   -1.6759   -0.5114 H   0  0  0  0  0  0  0  0  0  0  0  0
    2.5660    0.3203    0.7014 H   0  0  0  0  0  0  0  0  0  0  0  0
   -1.1880    0.1278   -2.3181 C   0  0  0  0  0  0  0  0  0  0  0  0
   -1.1880    0.1278   -0.7924 C   0  0  0  0  0  3  0  0  0  0  0  0
   -1.1880    1.5524   -0.2463 C   0  0  0  0  0  0  0  0  0  0  0  0
   -2.3709   -0.6663   -0.2463 C   0  0  0  0  0  0  0  0  0  0  0  0
   -0.3274    0.6701   -2.7152 H   0  0  0  0  0  0  0  0  0  0  0  0
   -2.0921    0.6097   -2.7019 H   0  0  0  0  0  0  0  0  0  0  0  0
   -1.1585   -0.8891   -2.7152 H   0  0  0  0  0  0  0  0  0  0  0  0
   -0.0844   -0.4606   -0.3878 H   0  0  0  0  0  0  0  0  0  0  0  0
   -2.0921    2.0832   -0.5589 H   0  0  0  0  0  0  0  0  0  0  0  0
   -1.1585    1.5592    0.8453 H   0  0  0  0  0  0  0  0  0  0  0  0
   -0.3274    2.1173   -0.6106 H   0  0  0  0  0  0  0  0  0  0  0  0
   -2.3602   -1.6957   -0.6107 H   0  0  0  0  0  0  0  0  0  0  0  0
   -3.3155   -0.2116   -0.5588 H   0  0  0  0  0  0  0  0  0  0  0  0
   -2.3600   -0.6947    0.8453 H   0  0  0  0  0  0  0  0  0  0  0  0
  1  2  1  0
  1  5  1  0
  2  3  1  0
  2  6  1  0
  2 15  1  0
  3  4  2  0
  3  7  1  0
  8  9  1  0
  8 12  1  0
  8 13  1  0
  8 14  1  0
  9 10  1  0
  9 11  1  0
 10 16  1  0
 10 17  1  0
 10 18  1  0
 11 19  1  0
 11 20  1  0
 11 21  1  0
M  RAD  1   9   2
M  END
>  <reaction>  (15) 
rxn_984

>  <mol_properties>  (15) 
{"1": {"label": "*1", "atom_type": "Cs"}, "2": {"label": "*0", "atom_type": "CS"}, "7": {"label": "*4", "atom_type": "Cs"}, "8": {"label": "*3", "atom_type": "Cs"}, "14": {"label": "*2", "atom_type": "H0"}}

>  <type>  (15) 
unop_11

>  <geom_source>  (15) 
Heuristics

$$$$

     RDKit          3D

 21 19  0  0  0  0  0  0  0  0999 V2000
    2.1564   -0.4535   -1.0780 S   0  0  0  0  0  0  0  0  0  0  0  0
    1.1485    0.0838    0.3400 C   0  0  0  0  0  0  0  0  0  0  0  0
    0.8599   -1.0783    1.2271 C   0  0  0  0  0  0  0  0  0  0  0  0
   -0.6005   -1.6858    1.5089 S   0  0  0  0  0  0  0  0  0  0  0  0
    1.2403   -1.2842   -1.5938 H   0  0  0  0  0  0  0  0  0  0  0  0
    1.7748    0.8099    0.8638 H   0  0  0  0  0  0  0  0  0  0  0  0
    1.7438   -1.5336    1.6752 H   0  0  0  0  0  0  0  0  0  0  0  0
   -1.0508    1.2563   -1.9919 C   0  0  0  0  0  0  0  0  0  0  0  0
   -1.0508    1.2563   -0.4662 C   0  0  0  0  0  3  0  0  0  0  0  0
   -1.0508    2.6809    0.0799 C   0  0  0  0  0  0  0  0  0  0  0  0
   -2.2336    0.4622    0.0799 C   0  0  0  0  0  0  0  0  0  0  0  0
   -0.1901    1.7986   -2.3890 H   0  0  0  0  0  0  0  0  0  0  0  0
   -1.9548    1.7382   -2.3757 H   0  0  0  0  0  0  0  0  0  0  0  0
   -1.0212    0.2394   -2.3890 H   0  0  0  0  0  0  0  0  0  0  0  0
    0.0529    0.6679   -0.0616 H   0  0  0  0  0  0  0  0  0  0  0  0
   -1.9548    3.2117   -0.2327 H   0  0  0  0  0  0  0  0  0  0  0  0
   -1.0212    2.6877    1.1715 H   0  0  0  0  0  0  0  0  0  0  0  0
   -0.1901    3.2458   -0.2844 H   0  0  0  0  0  0  0  0  0  0  0  0
   -2.2229   -0.5672   -0.2845 H   0  0  0  0  0  0  0  0  0  0  0  0
   -3.1782    0.9169   -0.2327 H   0  0  0  0  0  0  0  0  0  0  0  0
   -2.2227    0.4338    1.1715 H   0  0  0  0  0  0  0  0  0  0  0  0
  1  2  1  0
  1  5  1  0
  2  3  1  0
  2  6  1  0
  2 15  1  0
  3  4  2  0
  3  7  1  0
  8  9  1  0
  8 12  1  0
  8 13  1  0
  8 14  1  0
  9 10  1  0
  9 11  1  0
 10 16  1  0
 10 17  1  0
 10 18  1  0
 11 19  1  0
 11 20  1  0
 11 21  1  0
M  RAD  1   9   2
M  END
>  <reaction>  (16) 
rxn_984

>  <mol_properties>  (16) 
{"1": {"label": "*1", "atom_type": "Cs"}, "2": {"label": "*0", "atom_type": "CS"}, "7": {"label": "*4", "atom_type": "Cs"}, "8": {"label": "*3", "atom_type": "Cs"}, "14": {"label": "*2", "atom_type": "H0"}}

>  <type>  (16) 
unop_12

>  <geom_source>  (16) 
Heuristics

$$$$

     RDKit          3D

 21 19  0  0  0  0  0  0  0  0999 V2000
    2.3308   -1.8256    0.6924 S   0  0  0  0  0  0  0  0  0  0  0  0
    2.7410    1.5532    0.8857 S   0  0  0  0  0  1  0  0  0  0  0  0
    1.6489   -0.4424   -0.2766 C   0  0  0  0  0  0  0  0  0  0  0  0
   -1.3498   -0.6992    1.3042 C   0  0  0  0  0  0  0  0  0  0  0  0
   -1.3949   -0.4735   -1.2121 C   0  0  0  0  0  0  0  0  0  0  0  0
   -1.2305    1.5888    0.2386 C   0  0  0  0  0  0  0  0  0  0  0  0
   -0.8650    0.1097    0.0994 C   0  0  0  0  0  0  0  0  0  0  0  0
    2.5910    0.7243   -0.2780 C   0  0  0  0  0  0  0  0  0  0  0  0
    1.4881   -0.7862   -1.3201 H   0  0  0  0  0  0  0  0  0  0  0  0
    0.4494   -0.0754    0.2397 H   0  0  0  0  0  0  0  0  0  0  0  0
   -2.4579   -0.6641    1.3798 H   0  0  0  0  0  0  0  0  0  0  0  0
   -0.9091   -0.2896    2.2374 H   0  0  0  0  0  0  0  0  0  0  0  0
   -1.0261   -1.7568    1.2053 H   0  0  0  0  0  0  0  0  0  0  0  0
   -1.0713   -1.5307   -1.3146 H   0  0  0  0  0  0  0  0  0  0  0  0
   -0.9865    0.0971   -2.0727 H   0  0  0  0  0  0  0  0  0  0  0  0
   -2.5050   -0.4290   -1.2408 H   0  0  0  0  0  0  0  0  0  0  0  0
   -2.3337    1.7188    0.2701 H   0  0  0  0  0  0  0  0  0  0  0  0
   -0.7896    2.0018    1.1703 H   0  0  0  0  0  0  0  0  0  0  0  0
   -0.8218    2.1624   -0.6199 H   0  0  0  0  0  0  0  0  0  0  0  0
    3.0734    1.0199   -1.2039 H   0  0  0  0  0  0  0  0  0  0  0  0
    3.4187   -2.0034   -0.1842 H   0  0  0  0  0  0  0  0  0  0  0  0
  1  3  1  0
  1 21  1  0
  2  8  1  0
  3  8  2  3
  3  9  1  0
  4  7  1  0
  4 11  1  0
  4 12  1  0
  4 13  1  0
  5  7  1  0
  5 14  1  0
  5 15  1  0
  5 16  1  0
  6  7  1  0
  6 17  1  0
  6 18  1  0
  6 19  1  0
  7 10  1  0
  8 20  1  0
M  RAD  1   2   2
M  END
>  <reaction>  (17) 
rxn_984

>  <mol_properties>  (17) 
{"1": {"label": "*1", "atom_type": "Cs"}, "2": {"label": "*0", "atom_type": "CS"}, "7": {"label": "*4", "atom_type": "Cs"}, "8": {"label": "*3", "atom_type": "Cs"}, "14": {"label": "*2", "atom_type": "H0"}}

>  <type>  (17) 
unop_13

>  <geom_source>  (17) 
AutoTST

$$$$

     RDKit          3D

 21 19  0  0  0  0  0  0  0  0999 V2000
    2.2356    0.3344   -0.7111 S   0  0  0  0  0  0  0  0  0  0  0  0
    0.8896    0.0883    0.4901 C   0  0  0  0  0  0  0  0  0  0  0  0
    0.9624   -1.2869    1.0595 C   0  0  0  0  0  0  0  0  0  0  0  0
   -0.1513   -2.4284    0.8641 S   0  0  0  0  0  0  0  0  0  0  0  0
    1.8267   -0.6059   -1.5737 H   0  0  0  0  0  0  0  0  0  0  0  0
    1.0785    0.8287    1.2711 H   0  0  0  0  0  0  0  0  0  0  0  0
    1.8736   -1.4942    1.6218 H   0  0  0  0  0  0  0  0  0  0  0  0
   -1.3097    1.2608   -1.8418 C   0  0  0  0  0  0  0  0  0  0  0  0
   -1.3097    1.2608   -0.3161 C   0  0  0  0  0  3  0  0  0  0  0  0
   -1.3097    2.6854    0.2300 C   0  0  0  0  0  0  0  0  0  0  0  0
   -2.4925    0.4667    0.2300 C   0  0  0  0  0  0  0  0  0  0  0  0
   -0.4490    1.8031   -2.2388 H   0  0  0  0  0  0  0  0  0  0  0  0
   -2.2137    1.7426   -2.2256 H   0  0  0  0  0  0  0  0  0  0  0  0
   -1.2802    0.2439   -2.2388 H   0  0  0  0  0  0  0  0  0  0  0  0
   -0.2060    0.6724    0.0885 H   0  0  0  0  0  0  0  0  0  0  0  0
   -2.2137    3.2162   -0.0826 H   0  0  0  0  0  0  0  0  0  0  0  0
   -1.2801    2.6922    1.3216 H   0  0  0  0  0  0  0  0  0  0  0  0
   -0.4490    3.2503   -0.1343 H   0  0  0  0  0  0  0  0  0  0  0  0
   -2.4818   -0.5627   -0.1344 H   0  0  0  0  0  0  0  0  0  0  0  0
   -3.4371    0.9214   -0.0825 H   0  0  0  0  0  0  0  0  0  0  0  0
   -2.4816    0.4382    1.3216 H   0  0  0  0  0  0  0  0  0  0  0  0
  1  2  1  0
  1  5  1  0
  2  3  1  0
  2  6  1  0
  2 15  1  0
  3  4  2  0
  3  7  1  0
  8  9  1  0
  8 12  1  0
  8 13  1  0
  8 14  1  0
  9 10  1  0
  9 11  1  0
 10 16  1  0
 10 17  1  0
 10 18  1  0
 11 19  1  0
 11 20  1  0
 11 21  1  0
M  RAD  1   9   2
M  END
>  <reaction>  (18) 
rxn_984

>  <mol_properties>  (18) 
{"1": {"label": "*1", "atom_type": "Cs"}, "2": {"label": "*0", "atom_type": "CS"}, "7": {"label": "*4", "atom_type": "Cs"}, "8": {"label": "*3", "atom_type": "Cs"}, "14": {"label": "*2", "atom_type": "H0"}}

>  <type>  (18) 
unop_14

>  <geom_source>  (18) 
gaussian_log

$$$$
