
     RDKit          3D

  9  8  0  0  0  0  0  0  0  0999 V2000
    1.1303   -0.2933   -0.7510 C   0  0  0  0  0  0  0  0  0  0  0  0
    0.2866    0.4560   -0.0588 C   0  0  0  0  0  0  0  0  0  0  0  0
   -0.9719   -0.0331    0.5823 C   0  0  0  0  0  0  0  0  0  0  0  0
    2.0274    0.1230   -1.1916 H   0  0  0  0  0  0  0  0  0  0  0  0
    0.9532   -1.3530   -0.9023 H   0  0  0  0  0  0  0  0  0  0  0  0
    0.5065    1.5132    0.0659 H   0  0  0  0  0  0  0  0  0  0  0  0
   -0.9526    0.1426    1.6610 H   0  0  0  0  0  0  0  0  0  0  0  0
   -1.1182   -1.1002    0.4106 H   0  0  0  0  0  0  0  0  0  0  0  0
   -1.8412    0.5010    0.1901 H   0  0  0  0  0  0  0  0  0  0  0  0
  1  2  2  3
  1  4  1  0
  1  5  1  0
  2  3  1  0
  2  6  1  0
  3  7  1  0
  3  8  1  0
  3  9  1  0
M  END
>  <reaction>  (1) 
rxn_740

>  <mol_properties>  (1) 
{"2": {"label": "donator", "atom_type": "Cs"}, "6": {"label": "d_hydrogen", "atom_type": "H0"}}

>  <type>  (1) 
r1h

$$$$

     RDKit          3D

 24 25  0  0  0  0  0  0  0  0999 V2000
   -2.3462    0.0587    0.4026 C   0  0  0  0  0  3  0  0  0  0  0  0
   -1.9216   -0.8977   -0.6619 C   0  0  0  0  0  0  0  0  0  0  0  0
   -0.4224   -0.6048   -0.8347 C   0  0  0  0  0  0  0  0  0  0  0  0
    0.4246   -1.4411    0.1277 C   0  0  0  0  0  0  0  0  0  0  0  0
    1.8615   -0.9403    0.2199 C   0  0  0  0  0  0  0  0  0  0  0  0
    1.8962    0.5175    0.6671 C   0  0  0  0  0  0  0  0  0  0  0  0
    1.1011    1.4007   -0.2911 C   0  0  0  0  0  0  0  0  0  0  0  0
   -0.3231    0.9028   -0.5260 C   0  0  0  0  0  0  0  0  0  0  0  0
   -1.3110    1.1041    0.6384 C   0  0  0  0  0  0  0  0  0  0  0  0
   -3.2900    0.0057    0.9268 H   0  0  0  0  0  0  0  0  0  0  0  0
   -2.1170   -1.9442   -0.4050 H   0  0  0  0  0  0  0  0  0  0  0  0
   -2.4616   -0.7093   -1.6016 H   0  0  0  0  0  0  0  0  0  0  0  0
   -0.0868   -0.8050   -1.8562 H   0  0  0  0  0  0  0  0  0  0  0  0
   -0.0273   -1.4106    1.1258 H   0  0  0  0  0  0  0  0  0  0  0  0
    0.4005   -2.4873   -0.1884 H   0  0  0  0  0  0  0  0  0  0  0  0
    2.4341   -1.5641    0.9101 H   0  0  0  0  0  0  0  0  0  0  0  0
    2.3441   -1.0297   -0.7603 H   0  0  0  0  0  0  0  0  0  0  0  0
    1.4821    0.5910    1.6781 H   0  0  0  0  0  0  0  0  0  0  0  0
    2.9265    0.8752    0.7283 H   0  0  0  0  0  0  0  0  0  0  0  0
    1.0758    2.4318    0.0723 H   0  0  0  0  0  0  0  0  0  0  0  0
    1.6246    1.4246   -1.2529 H   0  0  0  0  0  0  0  0  0  0  0  0
   -0.7335    1.4393   -1.3877 H   0  0  0  0  0  0  0  0  0  0  0  0
   -0.8124    0.9625    1.6085 H   0  0  0  0  0  0  0  0  0  0  0  0
   -1.7184    2.1202    0.6602 H   0  0  0  0  0  0  0  0  0  0  0  0
  1  2  1  0
  1  9  1  0
  1 10  1  0
  2  3  1  0
  2 11  1  0
  2 12  1  0
  3  4  1  0
  3  8  1  0
  3 13  1  0
  4  5  1  0
  4 14  1  0
  4 15  1  0
  5  6  1  0
  5 16  1  0
  5 17  1  0
  6  7  1  0
  6 18  1  0
  6 19  1  0
  7  8  1  0
  7 20  1  0
  7 21  1  0
  8  9  1  0
  8 22  1  0
  9 23  1  0
  9 24  1  0
M  RAD  1   1   2
M  END
>  <reaction>  (2) 
rxn_740

>  <mol_properties>  (2) 
{"0": {"label": "acceptor", "atom_type": "Cs"}}

>  <type>  (2) 
r2

$$$$

     RDKit          3D

 25 26  0  0  0  0  0  0  0  0999 V2000
    2.0298   -1.1515    0.0571 C   0  0  0  0  0  0  0  0  0  0  0  0
    2.2278    0.2445    0.6528 C   0  0  0  0  0  0  0  0  0  0  0  0
    1.2292    1.2625    0.0947 C   0  0  0  0  0  0  0  0  0  0  0  0
   -0.1869    0.7454    0.2762 C   0  0  0  0  0  0  0  0  0  0  0  0
   -1.3415    1.5501   -0.3122 C   0  0  0  0  0  0  0  0  0  0  0  0
   -2.5060    0.5338   -0.4178 C   0  0  0  0  0  0  0  0  0  0  0  0
   -1.8709   -0.8658   -0.2234 C   0  0  0  0  0  0  0  0  0  0  0  0
   -0.3715   -0.6265   -0.3693 C   0  0  0  0  0  0  0  0  0  0  0  0
    0.5898   -1.6500    0.2086 C   0  0  0  0  0  0  0  0  0  0  0  0
    2.2820   -1.1226   -1.0088 H   0  0  0  0  0  0  0  0  0  0  0  0
    2.7243   -1.8549    0.5221 H   0  0  0  0  0  0  0  0  0  0  0  0
    2.1030    0.1885    1.7400 H   0  0  0  0  0  0  0  0  0  0  0  0
    3.2514    0.5819    0.4743 H   0  0  0  0  0  0  0  0  0  0  0  0
    1.3611    2.2304    0.5855 H   0  0  0  0  0  0  0  0  0  0  0  0
    1.4198    1.4194   -0.9737 H   0  0  0  0  0  0  0  0  0  0  0  0
   -0.3675    0.6209    1.3539 H   0  0  0  0  0  0  0  0  0  0  0  0
   -1.5992    2.4249    0.2862 H   0  0  0  0  0  0  0  0  0  0  0  0
   -1.0595    1.9116   -1.3055 H   0  0  0  0  0  0  0  0  0  0  0  0
   -3.2666    0.7244    0.3399 H   0  0  0  0  0  0  0  0  0  0  0  0
   -3.0030    0.6112   -1.3853 H   0  0  0  0  0  0  0  0  0  0  0  0
   -2.2549   -1.6039   -0.9288 H   0  0  0  0  0  0  0  0  0  0  0  0
   -2.0796   -1.2429    0.7821 H   0  0  0  0  0  0  0  0  0  0  0  0
   -0.1432   -0.5121   -1.4391 H   0  0  0  0  0  0  0  0  0  0  0  0
    0.4720   -2.6209   -0.2799 H   0  0  0  0  0  0  0  0  0  0  0  0
    0.3601   -1.7986    1.2704 H   0  0  0  0  0  0  0  0  0  0  0  0
  1  2  1  0
  1  9  1  0
  1 10  1  0
  1 11  1  0
  2  3  1  0
  2 12  1  0
  2 13  1  0
  3  4  1  0
  3 14  1  0
  3 15  1  0
  4  5  1  0
  4  8  1  0
  4 16  1  0
  5  6  1  0
  5 17  1  0
  5 18  1  0
  6  7  1  0
  6 19  1  0
  6 20  1  0
  7  8  1  0
  7 21  1  0
  7 22  1  0
  8  9  1  0
  8 23  1  0
  9 24  1  0
  9 25  1  0
M  END
>  <reaction>  (3) 
rxn_740

>  <mol_properties>  (3) 
{"0": {"label": "a_hydrogen", "atom_type": "H0"}, "1": {"label": "acceptor", "atom_type": "Cs"}}

>  <type>  (3) 
r2h

$$$$

     RDKit          3D

 33 33  0  0  0  0  0  0  0  0999 V2000
    1.6014   -0.8909   -2.5072 C   0  0  0  0  0  0  0  0  0  0  0  0
    2.5957   -0.4963   -1.7046 C   0  0  0  0  0  0  0  0  0  0  0  0
    2.7900    0.8582   -1.2085 C   0  0  0  0  0  0  0  0  0  0  0  0
    1.4937   -1.9244   -2.8092 H   0  0  0  0  0  0  0  0  0  0  0  0
    0.8741   -0.1846   -2.8934 H   0  0  0  0  0  0  0  0  0  0  0  0
    3.2995   -1.2462   -1.3528 H   0  0  0  0  0  0  0  0  0  0  0  0
    2.2360    0.9503   -0.0242 H   0  0  0  0  0  0  0  0  0  0  0  0
    2.2594    1.6306   -1.7633 H   0  0  0  0  0  0  0  0  0  0  0  0
    3.8207    1.1349   -0.9992 H   0  0  0  0  0  0  0  0  0  0  0  0
    1.5218    1.0367    1.1589 C   0  0  0  0  0  3  0  0  0  0  0  0
    1.1020   -0.4002    1.4338 C   0  0  0  0  0  0  0  0  0  0  0  0
   -0.4170   -0.3967    1.2254 C   0  0  2  0  0  0  0  0  0  0  0  0
   -1.0860   -1.6689    0.7366 C   0  0  0  0  0  0  0  0  0  0  0  0
   -2.5807   -1.4124    0.5220 C   0  0  0  0  0  0  0  0  0  0  0  0
   -2.8444   -0.2131   -0.3927 C   0  0  0  0  0  0  0  0  0  0  0  0
   -2.1225    1.0534    0.0787 C   0  0  0  0  0  0  0  0  0  0  0  0
   -0.6444    0.7559    0.2459 C   0  0  1  0  0  0  0  0  0  0  0  0
    0.2883    1.8358    0.7828 C   0  0  0  0  0  0  0  0  0  0  0  0
    2.2405    1.4980    1.8315 H   0  0  0  0  0  0  0  0  0  0  0  0
    1.5753   -1.0849    0.7187 H   0  0  0  0  0  0  0  0  0  0  0  0
    1.3898   -0.7392    2.4310 H   0  0  0  0  0  0  0  0  0  0  0  0
   -0.8899   -0.1069    2.1744 H   0  0  0  0  0  0  0  0  0  0  0  0
   -0.6194   -1.9752   -0.2070 H   0  0  0  0  0  0  0  0  0  0  0  0
   -0.9418   -2.4887    1.4455 H   0  0  0  0  0  0  0  0  0  0  0  0
   -3.0620   -2.3028    0.1110 H   0  0  0  0  0  0  0  0  0  0  0  0
   -3.0485   -1.2266    1.4954 H   0  0  0  0  0  0  0  0  0  0  0  0
   -2.4999   -0.4554   -1.4042 H   0  0  0  0  0  0  0  0  0  0  0  0
   -3.9193   -0.0319   -0.4646 H   0  0  0  0  0  0  0  0  0  0  0  0
   -2.2835    1.8668   -0.6337 H   0  0  0  0  0  0  0  0  0  0  0  0
   -2.5380    1.3829    1.0384 H   0  0  0  0  0  0  0  0  0  0  0  0
   -0.2493    0.4331   -0.7269 H   0  0  0  0  0  0  0  0  0  0  0  0
    0.4994    2.6299    0.0620 H   0  0  0  0  0  0  0  0  0  0  0  0
   -0.1546    2.3117    1.6672 H   0  0  0  0  0  0  0  0  0  0  0  0
  1  2  2  3
  1  4  1  0
  1  5  1  0
  2  3  1  0
  2  6  1  0
  3  7  1  0
  3  8  1  0
  3  9  1  0
 10 11  1  0
 10 18  1  0
 10 19  1  0
 11 12  1  0
 11 20  1  0
 11 21  1  0
 12 13  1  0
 12 17  1  0
 12 22  1  1
 13 14  1  0
 13 23  1  0
 13 24  1  0
 14 15  1  0
 14 25  1  0
 14 26  1  0
 15 16  1  0
 15 27  1  0
 15 28  1  0
 16 17  1  0
 16 29  1  0
 16 30  1  0
 17 18  1  0
 17 31  1  6
 18 32  1  0
 18 33  1  0
M  RAD  1  10   2
M  END
>  <reaction>  (4) 
rxn_740

>  <mol_properties>  (4) 
{"1": {"label": "*0", "atom_type": "Cd"}, "2": {"label": "*1", "atom_type": "Cs"}, "6": {"label": "*2", "atom_type": "H0"}, "9": {"label": "*3", "atom_type": "Cs"}, "17": {"label": "*4", "atom_type": "Cs"}}

>  <type>  (4) 
ts

$$$$

     RDKit          3D

 33 33  0  0  0  0  0  0  0  0999 V2000
    2.6673   -0.5728   -4.6234 C   0  0  0  0  0  0  0  0  0  0  0  0
    2.6673   -0.5728   -3.2996 C   0  0  0  0  0  0  0  0  0  0  0  0
    2.6673    0.6494   -2.4391 C   0  0  0  0  0  3  0  0  0  0  0  0
    2.6673   -1.4955   -5.1898 H   0  0  0  0  0  0  0  0  0  0  0  0
    2.6673    0.3528   -5.1894 H   0  0  0  0  0  0  0  0  0  0  0  0
    2.6673   -1.5254   -2.7761 H   0  0  0  0  0  0  0  0  0  0  0  0
    1.6140    0.6700   -1.6576 H   0  0  0  0  0  0  0  0  0  0  0  0
    2.6673    1.5599   -3.0397 H   0  0  0  0  0  0  0  0  0  0  0  0
    3.5450    0.6665   -1.7879 H   0  0  0  0  0  0  0  0  0  0  0  0
    0.5633    0.6904   -0.8781 C   0  0  0  0  0  0  0  0  0  0  0  0
    0.9823    0.7079    0.6133 C   0  0  0  0  0  0  0  0  0  0  0  0
   -0.3314    0.5843    1.3787 C   0  0  0  0  0  0  0  0  0  0  0  0
   -0.2939    0.1049    2.8189 C   0  0  0  0  0  0  0  0  0  0  0  0
   -1.7217   -0.0596    3.3475 C   0  0  0  0  0  0  0  0  0  0  0  0
   -2.5744   -0.9591    2.4495 C   0  0  0  0  0  0  0  0  0  0  0  0
   -2.5756   -0.4923    0.9910 C   0  0  0  0  0  0  0  0  0  0  0  0
   -1.1473   -0.3563    0.4941 C   0  0  0  0  0  0  0  0  0  0  0  0
   -0.9083    0.2072   -0.9031 C   0  0  0  0  0  0  0  0  0  0  0  0
    0.6552    1.6804   -1.3258 H   0  0  0  0  0  0  0  0  0  0  0  0
    1.6150   -0.1548    0.8418 H   0  0  0  0  0  0  0  0  0  0  0  0
    1.5486    1.6009    0.8810 H   0  0  0  0  0  0  0  0  0  0  0  0
   -0.8350    1.5619    1.3591 H   0  0  0  0  0  0  0  0  0  0  0  0
    0.2296   -0.8576    2.8632 H   0  0  0  0  0  0  0  0  0  0  0  0
    0.2660    0.7994    3.4508 H   0  0  0  0  0  0  0  0  0  0  0  0
   -1.7049   -0.4595    4.3639 H   0  0  0  0  0  0  0  0  0  0  0  0
   -2.1904    0.9290    3.4089 H   0  0  0  0  0  0  0  0  0  0  0  0
   -2.1802   -1.9806    2.4918 H   0  0  0  0  0  0  0  0  0  0  0  0
   -3.5963   -1.0040    2.8329 H   0  0  0  0  0  0  0  0  0  0  0  0
   -3.1438   -1.1905    0.3706 H   0  0  0  0  0  0  0  0  0  0  0  0
   -3.0762    0.4803    0.9148 H   0  0  0  0  0  0  0  0  0  0  0  0
   -0.6716   -1.3463    0.5525 H   0  0  0  0  0  0  0  0  0  0  0  0
   -1.0993   -0.5197   -1.6938 H   0  0  0  0  0  0  0  0  0  0  0  0
   -1.5840    1.0508   -1.0719 H   0  0  0  0  0  0  0  0  0  0  0  0
  1  2  2  3
  1  4  1  0
  1  5  1  0
  2  3  1  0
  2  6  1  0
  3  8  1  0
  3  9  1  0
  7 10  1  0
 10 11  1  0
 10 18  1  0
 10 19  1  0
 11 12  1  0
 11 20  1  0
 11 21  1  0
 12 13  1  0
 12 17  1  0
 12 22  1  0
 13 14  1  0
 13 23  1  0
 13 24  1  0
 14 15  1  0
 14 25  1  0
 14 26  1  0
 15 16  1  0
 15 27  1  0
 15 28  1  0
 16 17  1  0
 16 29  1  0
 16 30  1  0
 17 18  1  0
 17 31  1  0
 18 32  1  0
 18 33  1  0
M  RAD  1   3   2
M  END
>  <reaction>  (5) 
rxn_740

>  <mol_properties>  (5) 
{"1": {"label": "*0", "atom_type": "Cd"}, "2": {"label": "*1", "atom_type": "Cs"}, "6": {"label": "*2", "atom_type": "H0"}, "9": {"label": "*3", "atom_type": "Cs"}, "17": {"label": "*4", "atom_type": "Cs"}}

>  <type>  (5) 
unop_1

>  <geom_source>  (5) 
Heuristics

$$$$

     RDKit          3D

 33 33  0  0  0  0  0  0  0  0999 V2000
    3.3941   -0.3974   -3.1922 C   0  0  0  0  0  0  0  0  0  0  0  0
    3.3941   -0.3974   -1.8685 C   0  0  0  0  0  0  0  0  0  0  0  0
    3.3941    0.8247   -1.0080 C   0  0  0  0  0  3  0  0  0  0  0  0
    3.3941   -1.3202   -3.7587 H   0  0  0  0  0  0  0  0  0  0  0  0
    3.3941    0.5282   -3.7582 H   0  0  0  0  0  0  0  0  0  0  0  0
    3.3941   -1.3501   -1.3450 H   0  0  0  0  0  0  0  0  0  0  0  0
    2.3408    0.8453   -0.2265 H   0  0  0  0  0  0  0  0  0  0  0  0
    3.3941    1.7352   -1.6086 H   0  0  0  0  0  0  0  0  0  0  0  0
    4.2718    0.8418   -0.3568 H   0  0  0  0  0  0  0  0  0  0  0  0
    1.2901    0.8658    0.5531 C   0  0  0  0  0  0  0  0  0  0  0  0
    0.8336   -0.5727    0.9028 C   0  0  0  0  0  0  0  0  0  0  0  0
   -0.6627   -0.4425    1.1693 C   0  0  0  0  0  0  0  0  0  0  0  0
   -1.5294   -1.6863    1.0845 C   0  0  0  0  0  0  0  0  0  0  0  0
   -3.0015   -1.3052    1.2657 C   0  0  0  0  0  0  0  0  0  0  0  0
   -3.4437   -0.2118    0.2903 C   0  0  0  0  0  0  0  0  0  0  0  0
   -2.5414    1.0239    0.3532 C   0  0  0  0  0  0  0  0  0  0  0  0
   -1.0933    0.6132    0.1530 C   0  0  0  0  0  0  0  0  0  0  0  0
   -0.0054    1.6736    0.2907 C   0  0  0  0  0  0  0  0  0  0  0  0
    1.8651    1.3068    1.3678 H   0  0  0  0  0  0  0  0  0  0  0  0
    0.9911   -1.2406    0.0507 H   0  0  0  0  0  0  0  0  0  0  0  0
    1.3812   -0.9948    1.7464 H   0  0  0  0  0  0  0  0  0  0  0  0
   -0.7978   -0.0018    2.1679 H   0  0  0  0  0  0  0  0  0  0  0  0
   -1.3875   -2.1564    0.1040 H   0  0  0  0  0  0  0  0  0  0  0  0
   -1.2342   -2.4241    1.8352 H   0  0  0  0  0  0  0  0  0  0  0  0
   -3.6372   -2.1859    1.1485 H   0  0  0  0  0  0  0  0  0  0  0  0
   -3.1490   -0.9483    2.2912 H   0  0  0  0  0  0  0  0  0  0  0  0
   -3.4201   -0.6133   -0.7290 H   0  0  0  0  0  0  0  0  0  0  0  0
   -4.4807    0.0667    0.4909 H   0  0  0  0  0  0  0  0  0  0  0  0
   -2.8503    1.7568   -0.3968 H   0  0  0  0  0  0  0  0  0  0  0  0
   -2.6451    1.5077    1.3318 H   0  0  0  0  0  0  0  0  0  0  0  0
   -1.0046    0.1559   -0.8433 H   0  0  0  0  0  0  0  0  0  0  0  0
    0.0718    2.3205   -0.5841 H   0  0  0  0  0  0  0  0  0  0  0  0
   -0.2343    2.3157    1.1463 H   0  0  0  0  0  0  0  0  0  0  0  0
  1  2  2  3
  1  4  1  0
  1  5  1  0
  2  3  1  0
  2  6  1  0
  3  8  1  0
  3  9  1  0
  7 10  1  0
 10 11  1  0
 10 18  1  0
 10 19  1  0
 11 12  1  0
 11 20  1  0
 11 21  1  0
 12 13  1  0
 12 17  1  0
 12 22  1  0
 13 14  1  0
 13 23  1  0
 13 24  1  0
 14 15  1  0
 14 25  1  0
 14 26  1  0
 15 16  1  0
 15 27  1  0
 15 28  1  0
 16 17  1  0
 16 29  1  0
 16 30  1  0
 17 18  1  0
 17 31  1  0
 18 32  1  0
 18 33  1  0
M  RAD  1   3   2
M  END
>  <reaction>  (6) 
rxn_740

>  <mol_properties>  (6) 
{"1": {"label": "*0", "atom_type": "Cd"}, "2": {"label": "*1", "atom_type": "Cs"}, "6": {"label": "*2", "atom_type": "H0"}, "9": {"label": "*3", "atom_type": "Cs"}, "17": {"label": "*4", "atom_type": "Cs"}}

>  <type>  (6) 
unop_2

>  <geom_source>  (6) 
Heuristics

$$$$

     RDKit          3D

 33 33  0  0  0  0  0  0  0  0999 V2000
    2.3627   -0.7150   -4.8353 C   0  0  0  0  0  0  0  0  0  0  0  0
    2.3627   -0.7150   -3.5116 C   0  0  0  0  0  0  0  0  0  0  0  0
    2.3627    0.5072   -2.6511 C   0  0  0  0  0  3  0  0  0  0  0  0
    2.3627   -1.6377   -5.4018 H   0  0  0  0  0  0  0  0  0  0  0  0
    2.3627    0.2106   -5.4013 H   0  0  0  0  0  0  0  0  0  0  0  0
    2.3627   -1.6676   -2.9880 H   0  0  0  0  0  0  0  0  0  0  0  0
    1.3094    0.5277   -1.8696 H   0  0  0  0  0  0  0  0  0  0  0  0
    2.3627    1.4176   -3.2516 H   0  0  0  0  0  0  0  0  0  0  0  0
    3.2404    0.5243   -1.9998 H   0  0  0  0  0  0  0  0  0  0  0  0
    0.2587    0.5482   -1.0900 C   0  0  0  0  0  0  0  0  0  0  0  0
    0.5686    1.2881    0.2353 C   0  0  0  0  0  0  0  0  0  0  0  0
   -0.5569    0.8699    1.1763 C   0  0  0  0  0  0  0  0  0  0  0  0
   -0.3470    1.0135    2.6732 C   0  0  0  0  0  0  0  0  0  0  0  0
   -1.5456    0.4253    3.4231 C   0  0  0  0  0  0  0  0  0  0  0  0
   -1.8420   -1.0172    3.0057 C   0  0  0  0  0  0  0  0  0  0  0  0
   -2.0133   -1.1613    1.4908 C   0  0  0  0  0  0  0  0  0  0  0  0
   -0.8018   -0.5847    0.7799 C   0  0  0  0  0  0  0  0  0  0  0  0
   -0.8092   -0.5194   -0.7441 C   0  0  0  0  0  0  0  0  0  0  0  0
   -0.1119    1.2371   -1.8497 H   0  0  0  0  0  0  0  0  0  0  0  0
    1.5251    0.9512    0.6456 H   0  0  0  0  0  0  0  0  0  0  0  0
    0.6373    2.3692    0.1078 H   0  0  0  0  0  0  0  0  0  0  0  0
   -1.4610    1.4341    0.9043 H   0  0  0  0  0  0  0  0  0  0  0  0
    0.5667    0.4795    2.9603 H   0  0  0  0  0  0  0  0  0  0  0  0
   -0.2028    2.0607    2.9521 H   0  0  0  0  0  0  0  0  0  0  0  0
   -1.3770    0.4720    4.5014 H   0  0  0  0  0  0  0  0  0  0  0  0
   -2.4269    1.0433    3.2181 H   0  0  0  0  0  0  0  0  0  0  0  0
   -1.0144   -1.6585    3.3290 H   0  0  0  0  0  0  0  0  0  0  0  0
   -2.7344   -1.3769    3.5230 H   0  0  0  0  0  0  0  0  0  0  0  0
   -2.1634   -2.2110    1.2250 H   0  0  0  0  0  0  0  0  0  0  0  0
   -2.9105   -0.6201    1.1674 H   0  0  0  0  0  0  0  0  0  0  0  0
    0.0822   -1.1576    1.0960 H   0  0  0  0  0  0  0  0  0  0  0  0
   -0.6076   -1.4836   -1.2126 H   0  0  0  0  0  0  0  0  0  0  0  0
   -1.7967   -0.1959   -1.0862 H   0  0  0  0  0  0  0  0  0  0  0  0
  1  2  2  3
  1  4  1  0
  1  5  1  0
  2  3  1  0
  2  6  1  0
  3  8  1  0
  3  9  1  0
  7 10  1  0
 10 11  1  0
 10 18  1  0
 10 19  1  0
 11 12  1  0
 11 20  1  0
 11 21  1  0
 12 13  1  0
 12 17  1  0
 12 22  1  0
 13 14  1  0
 13 23  1  0
 13 24  1  0
 14 15  1  0
 14 25  1  0
 14 26  1  0
 15 16  1  0
 15 27  1  0
 15 28  1  0
 16 17  1  0
 16 29  1  0
 16 30  1  0
 17 18  1  0
 17 31  1  0
 18 32  1  0
 18 33  1  0
M  RAD  1   3   2
M  END
>  <reaction>  (7) 
rxn_740

>  <mol_properties>  (7) 
{"1": {"label": "*0", "atom_type": "Cd"}, "2": {"label": "*1", "atom_type": "Cs"}, "6": {"label": "*2", "atom_type": "H0"}, "9": {"label": "*3", "atom_type": "Cs"}, "17": {"label": "*4", "atom_type": "Cs"}}

>  <type>  (7) 
unop_3

>  <geom_source>  (7) 
Heuristics

$$$$

     RDKit          3D

 33 33  0  0  0  0  0  0  0  0999 V2000
    2.5306   -2.6026   -2.4309 C   0  0  0  0  0  0  0  0  0  0  0  0
    2.5306   -2.6026   -1.1072 C   0  0  0  0  0  0  0  0  0  0  0  0
    2.5306   -1.3804   -0.2467 C   0  0  0  0  0  3  0  0  0  0  0  0
    2.5306   -3.5253   -2.9974 H   0  0  0  0  0  0  0  0  0  0  0  0
    2.5306   -1.6770   -2.9969 H   0  0  0  0  0  0  0  0  0  0  0  0
    2.5306   -3.5552   -0.5836 H   0  0  0  0  0  0  0  0  0  0  0  0
    1.4773   -1.3598    0.5348 H   0  0  0  0  0  0  0  0  0  0  0  0
    2.5306   -0.4699   -0.8472 H   0  0  0  0  0  0  0  0  0  0  0  0
    3.4083   -1.3633    0.4046 H   0  0  0  0  0  0  0  0  0  0  0  0
    0.4266   -1.3394    1.3144 C   0  0  0  0  0  0  0  0  0  0  0  0
   -0.8794   -1.3395    0.4812 C   0  0  0  0  0  0  0  0  0  0  0  0
   -1.3647    0.1056    0.5348 C   0  0  0  0  0  0  0  0  0  0  0  0
   -2.3382    0.5877   -0.5261 C   0  0  0  0  0  0  0  0  0  0  0  0
   -2.5926    2.0878   -0.3525 C   0  0  0  0  0  0  0  0  0  0  0  0
   -1.2949    2.8992   -0.3318 C   0  0  0  0  0  0  0  0  0  0  0  0
   -0.3021    2.3826    0.7134 C   0  0  0  0  0  0  0  0  0  0  0  0
   -0.0597    0.8986    0.5022 C   0  0  0  0  0  0  0  0  0  0  0  0
    0.8124    0.1489    1.5044 C   0  0  0  0  0  0  0  0  0  0  0  0
    0.2809   -1.8293    2.2776 H   0  0  0  0  0  0  0  0  0  0  0  0
   -0.6692   -1.6108   -0.5575 H   0  0  0  0  0  0  0  0  0  0  0  0
   -1.6173   -2.0505    0.8553 H   0  0  0  0  0  0  0  0  0  0  0  0
   -1.8223    0.2793    1.5197 H   0  0  0  0  0  0  0  0  0  0  0  0
   -1.9111    0.3978   -1.5180 H   0  0  0  0  0  0  0  0  0  0  0  0
   -3.2806    0.0357   -0.4760 H   0  0  0  0  0  0  0  0  0  0  0  0
   -3.2467    2.4548   -1.1467 H   0  0  0  0  0  0  0  0  0  0  0  0
   -3.1272    2.2473    0.5906 H   0  0  0  0  0  0  0  0  0  0  0  0
   -0.8254    2.8449   -1.3204 H   0  0  0  0  0  0  0  0  0  0  0  0
   -1.5195    3.9530   -0.1516 H   0  0  0  0  0  0  0  0  0  0  0  0
    0.6331    2.9462    0.6583 H   0  0  0  0  0  0  0  0  0  0  0  0
   -0.7092    2.5402    1.7193 H   0  0  0  0  0  0  0  0  0  0  0  0
    0.3735    0.7644   -0.4998 H   0  0  0  0  0  0  0  0  0  0  0  0
    1.8784    0.3293    1.3597 H   0  0  0  0  0  0  0  0  0  0  0  0
    0.5646    0.4809    2.5169 H   0  0  0  0  0  0  0  0  0  0  0  0
  1  2  2  3
  1  4  1  0
  1  5  1  0
  2  3  1  0
  2  6  1  0
  3  8  1  0
  3  9  1  0
  7 10  1  0
 10 11  1  0
 10 18  1  0
 10 19  1  0
 11 12  1  0
 11 20  1  0
 11 21  1  0
 12 13  1  0
 12 17  1  0
 12 22  1  0
 13 14  1  0
 13 23  1  0
 13 24  1  0
 14 15  1  0
 14 25  1  0
 14 26  1  0
 15 16  1  0
 15 27  1  0
 15 28  1  0
 16 17  1  0
 16 29  1  0
 16 30  1  0
 17 18  1  0
 17 31  1  0
 18 32  1  0
 18 33  1  0
M  RAD  1   3   2
M  END
>  <reaction>  (8) 
rxn_740

>  <mol_properties>  (8) 
{"1": {"label": "*0", "atom_type": "Cd"}, "2": {"label": "*1", "atom_type": "Cs"}, "6": {"label": "*2", "atom_type": "H0"}, "9": {"label": "*3", "atom_type": "Cs"}, "17": {"label": "*4", "atom_type": "Cs"}}

>  <type>  (8) 
unop_4

>  <geom_source>  (8) 
Heuristics

$$$$

     RDKit          3D

 33 33  0  0  0  0  0  0  0  0999 V2000
    1.5782   -1.1143   -5.0363 C   0  0  0  0  0  0  0  0  0  0  0  0
    1.5782   -1.1143   -3.7126 C   0  0  0  0  0  0  0  0  0  0  0  0
    1.5782    0.1079   -2.8520 C   0  0  0  0  0  3  0  0  0  0  0  0
    1.5782   -2.0370   -5.6028 H   0  0  0  0  0  0  0  0  0  0  0  0
    1.5782   -0.1887   -5.6023 H   0  0  0  0  0  0  0  0  0  0  0  0
    1.5782   -2.0669   -3.1890 H   0  0  0  0  0  0  0  0  0  0  0  0
    0.5250    0.1284   -2.0706 H   0  0  0  0  0  0  0  0  0  0  0  0
    1.5782    1.0183   -3.4526 H   0  0  0  0  0  0  0  0  0  0  0  0
    2.4560    0.1250   -2.2008 H   0  0  0  0  0  0  0  0  0  0  0  0
   -0.5257    0.1489   -1.2910 C   0  0  0  0  0  0  0  0  0  0  0  0
   -0.5268    1.4152   -0.3986 C   0  0  0  0  0  0  0  0  0  0  0  0
   -0.8814    0.8997    0.9925 C   0  0  0  0  0  0  0  0  0  0  0  0
   -0.5280    1.7523    2.1982 C   0  0  0  0  0  0  0  0  0  0  0  0
   -0.8612    0.9927    3.4854 C   0  0  0  0  0  0  0  0  0  0  0  0
   -0.2075   -0.3905    3.5305 C   0  0  0  0  0  0  0  0  0  0  0  0
   -0.5362   -1.2302    2.2927 C   0  0  0  0  0  0  0  0  0  0  0  0
   -0.1783   -0.4556    1.0368 C   0  0  0  0  0  0  0  0  0  0  0  0
   -0.5280   -1.0583   -0.3202 C   0  0  0  0  0  0  0  0  0  0  0  0
   -1.3990    0.1247   -1.9436 H   0  0  0  0  0  0  0  0  0  0  0  0
    0.4703    1.8647   -0.3730 H   0  0  0  0  0  0  0  0  0  0  0  0
   -1.2151    2.1820   -0.7567 H   0  0  0  0  0  0  0  0  0  0  0  0
   -1.9630    0.7021    1.0215 H   0  0  0  0  0  0  0  0  0  0  0  0
    0.5437    1.9834    2.1725 H   0  0  0  0  0  0  0  0  0  0  0  0
   -1.0587    2.7077    2.1742 H   0  0  0  0  0  0  0  0  0  0  0  0
   -0.5565    1.5753    4.3579 H   0  0  0  0  0  0  0  0  0  0  0  0
   -1.9485    0.8749    3.5532 H   0  0  0  0  0  0  0  0  0  0  0  0
    0.8795   -0.2686    3.5946 H   0  0  0  0  0  0  0  0  0  0  0  0
   -0.5154   -0.9167    4.4369 H   0  0  0  0  0  0  0  0  0  0  0  0
   -0.0055   -2.1851    2.3313 H   0  0  0  0  0  0  0  0  0  0  0  0
   -1.6078   -1.4626    2.2779 H   0  0  0  0  0  0  0  0  0  0  0  0
    0.9032   -0.2565    1.0571 H   0  0  0  0  0  0  0  0  0  0  0  0
    0.1615   -1.8461   -0.6265 H   0  0  0  0  0  0  0  0  0  0  0  0
   -1.5252   -1.5053   -0.2698 H   0  0  0  0  0  0  0  0  0  0  0  0
  1  2  2  3
  1  4  1  0
  1  5  1  0
  2  3  1  0
  2  6  1  0
  3  8  1  0
  3  9  1  0
  7 10  1  0
 10 11  1  0
 10 18  1  0
 10 19  1  0
 11 12  1  0
 11 20  1  0
 11 21  1  0
 12 13  1  0
 12 17  1  0
 12 22  1  0
 13 14  1  0
 13 23  1  0
 13 24  1  0
 14 15  1  0
 14 25  1  0
 14 26  1  0
 15 16  1  0
 15 27  1  0
 15 28  1  0
 16 17  1  0
 16 29  1  0
 16 30  1  0
 17 18  1  0
 17 31  1  0
 18 32  1  0
 18 33  1  0
M  RAD  1   3   2
M  END
>  <reaction>  (9) 
rxn_740

>  <mol_properties>  (9) 
{"1": {"label": "*0", "atom_type": "Cd"}, "2": {"label": "*1", "atom_type": "Cs"}, "6": {"label": "*2", "atom_type": "H0"}, "9": {"label": "*3", "atom_type": "Cs"}, "17": {"label": "*4", "atom_type": "Cs"}}

>  <type>  (9) 
unop_5

>  <geom_source>  (9) 
Heuristics

$$$$

     RDKit          3D

 33 33  0  0  0  0  0  0  0  0999 V2000
    1.8671   -2.9684   -2.9961 C   0  0  0  0  0  0  0  0  0  0  0  0
    1.8671   -2.9684   -1.6723 C   0  0  0  0  0  0  0  0  0  0  0  0
    1.8671   -1.7462   -0.8118 C   0  0  0  0  0  3  0  0  0  0  0  0
    1.8671   -3.8911   -3.5625 H   0  0  0  0  0  0  0  0  0  0  0  0
    1.8671   -2.0428   -3.5621 H   0  0  0  0  0  0  0  0  0  0  0  0
    1.8671   -3.9210   -1.1488 H   0  0  0  0  0  0  0  0  0  0  0  0
    0.8138   -1.7257   -0.0303 H   0  0  0  0  0  0  0  0  0  0  0  0
    1.8671   -0.8358   -1.4124 H   0  0  0  0  0  0  0  0  0  0  0  0
    2.7448   -1.7291   -0.1606 H   0  0  0  0  0  0  0  0  0  0  0  0
   -0.2369   -1.7052    0.7492 C   0  0  0  0  0  0  0  0  0  0  0  0
   -1.4209   -0.9806    0.0615 C   0  0  0  0  0  0  0  0  0  0  0  0
   -1.3403    0.4529    0.5767 C   0  0  0  0  0  0  0  0  0  0  0  0
   -2.0296    1.5514   -0.2131 C   0  0  0  0  0  0  0  0  0  0  0  0
   -1.7184    2.9134    0.4138 C   0  0  0  0  0  0  0  0  0  0  0  0
   -0.2144    3.1533    0.5670 C   0  0  0  0  0  0  0  0  0  0  0  0
    0.4806    2.0222    1.3300 C   0  0  0  0  0  0  0  0  0  0  0  0
    0.1655    0.6900    0.6731 C   0  0  0  0  0  0  0  0  0  0  0  0
    0.6639   -0.5900    1.3365 C   0  0  0  0  0  0  0  0  0  0  0  0
   -0.5866   -2.3762    1.5344 H   0  0  0  0  0  0  0  0  0  0  0  0
   -1.2894   -0.9812   -1.0245 H   0  0  0  0  0  0  0  0  0  0  0  0
   -2.3816   -1.4540    0.2685 H   0  0  0  0  0  0  0  0  0  0  0  0
   -1.7355    0.4731    1.6028 H   0  0  0  0  0  0  0  0  0  0  0  0
   -1.6683    1.5299   -1.2482 H   0  0  0  0  0  0  0  0  0  0  0  0
   -3.1102    1.3903   -0.2514 H   0  0  0  0  0  0  0  0  0  0  0  0
   -2.1627    3.7142   -0.1817 H   0  0  0  0  0  0  0  0  0  0  0  0
   -2.1889    2.9618    1.4022 H   0  0  0  0  0  0  0  0  0  0  0  0
    0.2361    3.2352   -0.4285 H   0  0  0  0  0  0  0  0  0  0  0  0
   -0.0405    4.1091    1.0666 H   0  0  0  0  0  0  0  0  0  0  0  0
    1.5590    2.1976    1.3675 H   0  0  0  0  0  0  0  0  0  0  0  0
    0.1255    2.0036    2.3673 H   0  0  0  0  0  0  0  0  0  0  0  0
    0.5533    0.7185   -0.3557 H   0  0  0  0  0  0  0  0  0  0  0  0
    1.7256   -0.7727    1.1653 H   0  0  0  0  0  0  0  0  0  0  0  0
    0.5209   -0.5144    2.4184 H   0  0  0  0  0  0  0  0  0  0  0  0
  1  2  2  3
  1  4  1  0
  1  5  1  0
  2  3  1  0
  2  6  1  0
  3  8  1  0
  3  9  1  0
  7 10  1  0
 10 11  1  0
 10 18  1  0
 10 19  1  0
 11 12  1  0
 11 20  1  0
 11 21  1  0
 12 13  1  0
 12 17  1  0
 12 22  1  0
 13 14  1  0
 13 23  1  0
 13 24  1  0
 14 15  1  0
 14 25  1  0
 14 26  1  0
 15 16  1  0
 15 27  1  0
 15 28  1  0
 16 17  1  0
 16 29  1  0
 16 30  1  0
 17 18  1  0
 17 31  1  0
 18 32  1  0
 18 33  1  0
M  RAD  1   3   2
M  END
>  <reaction>  (10) 
rxn_740

>  <mol_properties>  (10) 
{"1": {"label": "*0", "atom_type": "Cd"}, "2": {"label": "*1", "atom_type": "Cs"}, "6": {"label": "*2", "atom_type": "H0"}, "9": {"label": "*3", "atom_type": "Cs"}, "17": {"label": "*4", "atom_type": "Cs"}}

>  <type>  (10) 
unop_6

>  <geom_source>  (10) 
Heuristics

$$$$

     RDKit          3D

 33 33  0  0  0  0  0  0  0  0999 V2000
    1.2724   -2.8433   -3.7846 C   0  0  0  0  0  0  0  0  0  0  0  0
    1.2724   -2.8433   -2.4608 C   0  0  0  0  0  0  0  0  0  0  0  0
    1.2724   -1.6211   -1.6003 C   0  0  0  0  0  3  0  0  0  0  0  0
    1.2724   -3.7660   -4.3511 H   0  0  0  0  0  0  0  0  0  0  0  0
    1.2724   -1.9177   -4.3506 H   0  0  0  0  0  0  0  0  0  0  0  0
    1.2724   -3.7959   -1.9373 H   0  0  0  0  0  0  0  0  0  0  0  0
    0.2192   -1.6006   -0.8189 H   0  0  0  0  0  0  0  0  0  0  0  0
    1.2724   -0.7107   -2.2009 H   0  0  0  0  0  0  0  0  0  0  0  0
    2.1501   -1.6040   -0.9491 H   0  0  0  0  0  0  0  0  0  0  0  0
   -0.8316   -1.5801   -0.0393 C   0  0  0  0  0  0  0  0  0  0  0  0
   -1.6952   -0.3226   -0.3091 C   0  0  0  0  0  0  0  0  0  0  0  0
   -1.2239    0.6919    0.7279 C   0  0  0  0  0  0  0  0  0  0  0  0
   -1.4978    2.1653    0.4836 C   0  0  0  0  0  0  0  0  0  0  0  0
   -0.8360    3.0041    1.5805 C   0  0  0  0  0  0  0  0  0  0  0  0
    0.6568    2.6989    1.7254 C   0  0  0  0  0  0  0  0  0  0  0  0
    0.9282    1.2060    1.9320 C   0  0  0  0  0  0  0  0  0  0  0  0
    0.2737    0.4062    0.8196 C   0  0  0  0  0  0  0  0  0  0  0  0
    0.3201   -1.1170    0.8876 C   0  0  0  0  0  0  0  0  0  0  0  0
   -1.4182   -2.3683    0.4336 H   0  0  0  0  0  0  0  0  0  0  0  0
   -1.4971    0.0682   -1.3115 H   0  0  0  0  0  0  0  0  0  0  0  0
   -2.7652   -0.5262   -0.2500 H   0  0  0  0  0  0  0  0  0  0  0  0
   -1.6632    0.4213    1.6992 H   0  0  0  0  0  0  0  0  0  0  0  0
   -1.0907    2.4486   -0.4944 H   0  0  0  0  0  0  0  0  0  0  0  0
   -2.5719    2.3660    0.4497 H   0  0  0  0  0  0  0  0  0  0  0  0
   -0.9791    4.0685    1.3807 H   0  0  0  0  0  0  0  0  0  0  0  0
   -1.3360    2.7956    2.5330 H   0  0  0  0  0  0  0  0  0  0  0  0
    1.1772    3.0292    0.8194 H   0  0  0  0  0  0  0  0  0  0  0  0
    1.0749    3.2772    2.5525 H   0  0  0  0  0  0  0  0  0  0  0  0
    2.0046    1.0188    1.9710 H   0  0  0  0  0  0  0  0  0  0  0  0
    0.5148    0.8852    2.8957 H   0  0  0  0  0  0  0  0  0  0  0  0
    0.7206    0.7223   -0.1343 H   0  0  0  0  0  0  0  0  0  0  0  0
    1.2874   -1.5270    0.5942 H   0  0  0  0  0  0  0  0  0  0  0  0
    0.1338   -1.4376    1.9168 H   0  0  0  0  0  0  0  0  0  0  0  0
  1  2  2  3
  1  4  1  0
  1  5  1  0
  2  3  1  0
  2  6  1  0
  3  8  1  0
  3  9  1  0
  7 10  1  0
 10 11  1  0
 10 18  1  0
 10 19  1  0
 11 12  1  0
 11 20  1  0
 11 21  1  0
 12 13  1  0
 12 17  1  0
 12 22  1  0
 13 14  1  0
 13 23  1  0
 13 24  1  0
 14 15  1  0
 14 25  1  0
 14 26  1  0
 15 16  1  0
 15 27  1  0
 15 28  1  0
 16 17  1  0
 16 29  1  0
 16 30  1  0
 17 18  1  0
 17 31  1  0
 18 32  1  0
 18 33  1  0
M  RAD  1   3   2
M  END
>  <reaction>  (11) 
rxn_740

>  <mol_properties>  (11) 
{"1": {"label": "*0", "atom_type": "Cd"}, "2": {"label": "*1", "atom_type": "Cs"}, "6": {"label": "*2", "atom_type": "H0"}, "9": {"label": "*3", "atom_type": "Cs"}, "17": {"label": "*4", "atom_type": "Cs"}}

>  <type>  (11) 
unop_7

>  <geom_source>  (11) 
Heuristics

$$$$

     RDKit          3D

 33 33  0  0  0  0  0  0  0  0999 V2000
    2.8669   -0.3454   -4.3549 C   0  0  0  0  0  0  0  0  0  0  0  0
    2.8669   -0.3454   -3.0311 C   0  0  0  0  0  0  0  0  0  0  0  0
    2.8669    0.8768   -2.1706 C   0  0  0  0  0  3  0  0  0  0  0  0
    2.8668   -1.2681   -4.9214 H   0  0  0  0  0  0  0  0  0  0  0  0
    2.8669    0.5802   -4.9209 H   0  0  0  0  0  0  0  0  0  0  0  0
    2.8668   -1.2980   -2.5076 H   0  0  0  0  0  0  0  0  0  0  0  0
    1.8136    0.8973   -1.3892 H   0  0  0  0  0  0  0  0  0  0  0  0
    2.8669    1.7872   -2.7712 H   0  0  0  0  0  0  0  0  0  0  0  0
    3.7446    0.8939   -1.5194 H   0  0  0  0  0  0  0  0  0  0  0  0
    0.7629    0.9178   -0.6096 C   0  0  0  0  0  0  0  0  0  0  0  0
    1.0598    0.2105    0.7363 C   0  0  0  0  0  0  0  0  0  0  0  0
   -0.2851    0.1819    1.4555 C   0  0  0  0  0  0  0  0  0  0  0  0
   -0.4926   -0.8237    2.5742 C   0  0  0  0  0  0  0  0  0  0  0  0
   -1.9411   -0.7592    3.0667 C   0  0  0  0  0  0  0  0  0  0  0  0
   -2.9506   -0.9278    1.9287 C   0  0  0  0  0  0  0  0  0  0  0  0
   -2.7108    0.0634    0.7864 C   0  0  0  0  0  0  0  0  0  0  0  0
   -1.2723   -0.0387    0.3111 C   0  0  0  0  0  0  0  0  0  0  0  0
   -0.7798    0.9412   -0.7491 C   0  0  0  0  0  0  0  0  0  0  0  0
    1.1699    1.9293   -0.6226 H   0  0  0  0  0  0  0  0  0  0  0  0
    1.3970   -0.8155    0.5618 H   0  0  0  0  0  0  0  0  0  0  0  0
    1.8397    0.7109    1.3118 H   0  0  0  0  0  0  0  0  0  0  0  0
   -0.4809    1.1855    1.8604 H   0  0  0  0  0  0  0  0  0  0  0  0
   -0.2751   -1.8301    2.1969 H   0  0  0  0  0  0  0  0  0  0  0  0
    0.1974   -0.6399    3.4020 H   0  0  0  0  0  0  0  0  0  0  0  0
   -2.1145   -1.5194    3.8318 H   0  0  0  0  0  0  0  0  0  0  0  0
   -2.1063    0.2112    3.5481 H   0  0  0  0  0  0  0  0  0  0  0  0
   -2.8736   -1.9466    1.5327 H   0  0  0  0  0  0  0  0  0  0  0  0
   -3.9666   -0.8205    2.3154 H   0  0  0  0  0  0  0  0  0  0  0  0
   -3.4105   -0.1257   -0.0321 H   0  0  0  0  0  0  0  0  0  0  0  0
   -2.9011    1.0847    1.1374 H   0  0  0  0  0  0  0  0  0  0  0  0
   -1.1096   -1.0605   -0.0619 H   0  0  0  0  0  0  0  0  0  0  0  0
   -1.1155    0.6847   -1.7547 H   0  0  0  0  0  0  0  0  0  0  0  0
   -1.1679    1.9393   -0.5253 H   0  0  0  0  0  0  0  0  0  0  0  0
  1  2  2  3
  1  4  1  0
  1  5  1  0
  2  3  1  0
  2  6  1  0
  3  8  1  0
  3  9  1  0
  7 10  1  0
 10 11  1  0
 10 18  1  0
 10 19  1  0
 11 12  1  0
 11 20  1  0
 11 21  1  0
 12 13  1  0
 12 17  1  0
 12 22  1  0
 13 14  1  0
 13 23  1  0
 13 24  1  0
 14 15  1  0
 14 25  1  0
 14 26  1  0
 15 16  1  0
 15 27  1  0
 15 28  1  0
 16 17  1  0
 16 29  1  0
 16 30  1  0
 17 18  1  0
 17 31  1  0
 18 32  1  0
 18 33  1  0
M  RAD  1   3   2
M  END
>  <reaction>  (12) 
rxn_740

>  <mol_properties>  (12) 
{"1": {"label": "*0", "atom_type": "Cd"}, "2": {"label": "*1", "atom_type": "Cs"}, "6": {"label": "*2", "atom_type": "H0"}, "9": {"label": "*3", "atom_type": "Cs"}, "17": {"label": "*4", "atom_type": "Cs"}}

>  <type>  (12) 
unop_8

>  <geom_source>  (12) 
Heuristics

$$$$

     RDKit          3D

 33 33  0  0  0  0  0  0  0  0999 V2000
    3.1070   -1.8796   -2.2473 C   0  0  0  0  0  0  0  0  0  0  0  0
    3.1070   -1.8796   -0.9236 C   0  0  0  0  0  0  0  0  0  0  0  0
    3.1070   -0.6574   -0.0631 C   0  0  0  0  0  3  0  0  0  0  0  0
    3.1070   -2.8023   -2.8138 H   0  0  0  0  0  0  0  0  0  0  0  0
    3.1070   -0.9540   -2.8133 H   0  0  0  0  0  0  0  0  0  0  0  0
    3.1070   -2.8322   -0.4001 H   0  0  0  0  0  0  0  0  0  0  0  0
    2.0537   -0.6369    0.7184 H   0  0  0  0  0  0  0  0  0  0  0  0
    3.1070    0.2530   -0.6637 H   0  0  0  0  0  0  0  0  0  0  0  0
    3.9847   -0.6403    0.5882 H   0  0  0  0  0  0  0  0  0  0  0  0
    1.0030   -0.6164    1.4980 C   0  0  0  0  0  0  0  0  0  0  0  0
   -0.1940   -1.3389    0.8308 C   0  0  0  0  0  0  0  0  0  0  0  0
   -1.2442   -0.2475    0.6502 C   0  0  0  0  0  0  0  0  0  0  0  0
   -2.3477   -0.4592   -0.3710 C   0  0  0  0  0  0  0  0  0  0  0  0
   -3.2100    0.8023   -0.4711 C   0  0  0  0  0  0  0  0  0  0  0  0
   -2.3774    2.0549   -0.7550 C   0  0  0  0  0  0  0  0  0  0  0  0
   -1.2420    2.2405    0.2556 C   0  0  0  0  0  0  0  0  0  0  0  0
   -0.3980    0.9798    0.3172 C   0  0  0  0  0  0  0  0  0  0  0  0
    0.7259    0.9002    1.3455 C   0  0  0  0  0  0  0  0  0  0  0  0
    1.0943   -0.8912    2.5492 H   0  0  0  0  0  0  0  0  0  0  0  0
    0.0940   -1.7278   -0.1503 H   0  0  0  0  0  0  0  0  0  0  0  0
   -0.5553   -2.1846    1.4175 H   0  0  0  0  0  0  0  0  0  0  0  0
   -1.7157   -0.0581    1.6256 H   0  0  0  0  0  0  0  0  0  0  0  0
   -1.8969   -0.6770   -1.3466 H   0  0  0  0  0  0  0  0  0  0  0  0
   -2.9670   -1.3212   -0.1088 H   0  0  0  0  0  0  0  0  0  0  0  0
   -3.9710    0.6797   -1.2451 H   0  0  0  0  0  0  0  0  0  0  0  0
   -3.7461    0.9382    0.4748 H   0  0  0  0  0  0  0  0  0  0  0  0
   -1.9456    1.9752   -1.7589 H   0  0  0  0  0  0  0  0  0  0  0  0
   -3.0237    2.9356   -0.7635 H   0  0  0  0  0  0  0  0  0  0  0  0
   -0.6342    3.1086   -0.0130 H   0  0  0  0  0  0  0  0  0  0  0  0
   -1.6607    2.4409    1.2490 H   0  0  0  0  0  0  0  0  0  0  0  0
    0.0345    0.8115   -0.6799 H   0  0  0  0  0  0  0  0  0  0  0  0
    1.6129    1.4627    1.0511 H   0  0  0  0  0  0  0  0  0  0  0  0
    0.3778    1.3214    2.2932 H   0  0  0  0  0  0  0  0  0  0  0  0
  1  2  2  3
  1  4  1  0
  1  5  1  0
  2  3  1  0
  2  6  1  0
  3  8  1  0
  3  9  1  0
  7 10  1  0
 10 11  1  0
 10 18  1  0
 10 19  1  0
 11 12  1  0
 11 20  1  0
 11 21  1  0
 12 13  1  0
 12 17  1  0
 12 22  1  0
 13 14  1  0
 13 23  1  0
 13 24  1  0
 14 15  1  0
 14 25  1  0
 14 26  1  0
 15 16  1  0
 15 27  1  0
 15 28  1  0
 16 17  1  0
 16 29  1  0
 16 30  1  0
 17 18  1  0
 17 31  1  0
 18 32  1  0
 18 33  1  0
M  RAD  1   3   2
M  END
>  <reaction>  (13) 
rxn_740

>  <mol_properties>  (13) 
{"1": {"label": "*0", "atom_type": "Cd"}, "2": {"label": "*1", "atom_type": "Cs"}, "6": {"label": "*2", "atom_type": "H0"}, "9": {"label": "*3", "atom_type": "Cs"}, "17": {"label": "*4", "atom_type": "Cs"}}

>  <type>  (13) 
unop_9

>  <geom_source>  (13) 
Heuristics

$$$$

     RDKit          3D

 33 33  0  0  0  0  0  0  0  0999 V2000
    3.1334   -0.2041   -3.8719 C   0  0  0  0  0  0  0  0  0  0  0  0
    3.1334   -0.2041   -2.5482 C   0  0  0  0  0  0  0  0  0  0  0  0
    3.1334    1.0181   -1.6876 C   0  0  0  0  0  3  0  0  0  0  0  0
    3.1334   -1.1268   -4.4384 H   0  0  0  0  0  0  0  0  0  0  0  0
    3.1334    0.7215   -4.4379 H   0  0  0  0  0  0  0  0  0  0  0  0
    3.1334   -1.1567   -2.0246 H   0  0  0  0  0  0  0  0  0  0  0  0
    2.0802    1.0386   -0.9062 H   0  0  0  0  0  0  0  0  0  0  0  0
    3.1334    1.9285   -2.2882 H   0  0  0  0  0  0  0  0  0  0  0  0
    4.0111    1.0352   -1.0364 H   0  0  0  0  0  0  0  0  0  0  0  0
    1.0295    1.0591   -0.1266 C   0  0  0  0  0  0  0  0  0  0  0  0
    1.0059   -0.1811    0.8014 C   0  0  0  0  0  0  0  0  0  0  0  0
   -0.4067   -0.1985    1.3770 C   0  0  0  0  0  0  0  0  0  0  0  0
   -0.9449   -1.4979    1.9492 C   0  0  0  0  0  0  0  0  0  0  0  0
   -2.4104   -1.3174    2.3550 C   0  0  0  0  0  0  0  0  0  0  0  0
   -3.2694   -0.7785    1.2084 C   0  0  0  0  0  0  0  0  0  0  0  0
   -2.6990    0.5105    0.6101 C   0  0  0  0  0  0  0  0  0  0  0  0
   -1.2525    0.2920    0.2035 C   0  0  0  0  0  0  0  0  0  0  0  0
   -0.4493    1.4812   -0.3138 C   0  0  0  0  0  0  0  0  0  0  0  0
    1.6126    1.8695    0.3117 H   0  0  0  0  0  0  0  0  0  0  0  0
    1.1702   -1.0943    0.2219 H   0  0  0  0  0  0  0  0  0  0  0  0
    1.7786   -0.1461    1.5706 H   0  0  0  0  0  0  0  0  0  0  0  0
   -0.4686    0.5697    2.1616 H   0  0  0  0  0  0  0  0  0  0  0  0
   -0.8661   -2.2845    1.1894 H   0  0  0  0  0  0  0  0  0  0  0  0
   -0.3522   -1.8258    2.8073 H   0  0  0  0  0  0  0  0  0  0  0  0
   -2.8225   -2.2632    2.7141 H   0  0  0  0  0  0  0  0  0  0  0  0
   -2.4591   -0.6167    3.1960 H   0  0  0  0  0  0  0  0  0  0  0  0
   -3.3270   -1.5372    0.4199 H   0  0  0  0  0  0  0  0  0  0  0  0
   -4.2916   -0.6138    1.5567 H   0  0  0  0  0  0  0  0  0  0  0  0
   -3.3035    0.8321   -0.2421 H   0  0  0  0  0  0  0  0  0  0  0  0
   -2.7451    1.3150    1.3539 H   0  0  0  0  0  0  0  0  0  0  0  0
   -1.2303   -0.4978   -0.5615 H   0  0  0  0  0  0  0  0  0  0  0  0
   -0.6863    1.7379   -1.3471 H   0  0  0  0  0  0  0  0  0  0  0  0
   -0.6749    2.3611    0.2960 H   0  0  0  0  0  0  0  0  0  0  0  0
  1  2  2  3
  1  4  1  0
  1  5  1  0
  2  3  1  0
  2  6  1  0
  3  8  1  0
  3  9  1  0
  7 10  1  0
 10 11  1  0
 10 18  1  0
 10 19  1  0
 11 12  1  0
 11 20  1  0
 11 21  1  0
 12 13  1  0
 12 17  1  0
 12 22  1  0
 13 14  1  0
 13 23  1  0
 13 24  1  0
 14 15  1  0
 14 25  1  0
 14 26  1  0
 15 16  1  0
 15 27  1  0
 15 28  1  0
 16 17  1  0
 16 29  1  0
 16 30  1  0
 17 18  1  0
 17 31  1  0
 18 32  1  0
 18 33  1  0
M  RAD  1   3   2
M  END
>  <reaction>  (14) 
rxn_740

>  <mol_properties>  (14) 
{"1": {"label": "*0", "atom_type": "Cd"}, "2": {"label": "*1", "atom_type": "Cs"}, "6": {"label": "*2", "atom_type": "H0"}, "9": {"label": "*3", "atom_type": "Cs"}, "17": {"label": "*4", "atom_type": "Cs"}}

>  <type>  (14) 
unop_10

>  <geom_source>  (14) 
Heuristics

$$$$

     RDKit          3D

 33 33  0  0  0  0  0  0  0  0999 V2000
    1.0193   -2.1378   -4.6089 C   0  0  0  0  0  0  0  0  0  0  0  0
    1.0193   -2.1378   -3.2851 C   0  0  0  0  0  0  0  0  0  0  0  0
    1.0193   -0.9156   -2.4246 C   0  0  0  0  0  3  0  0  0  0  0  0
    1.0193   -3.0605   -5.1754 H   0  0  0  0  0  0  0  0  0  0  0  0
    1.0193   -1.2122   -5.1749 H   0  0  0  0  0  0  0  0  0  0  0  0
    1.0193   -3.0904   -2.7616 H   0  0  0  0  0  0  0  0  0  0  0  0
   -0.0339   -0.8950   -1.6432 H   0  0  0  0  0  0  0  0  0  0  0  0
    1.0193   -0.0051   -3.0252 H   0  0  0  0  0  0  0  0  0  0  0  0
    1.8970   -0.8985   -1.7734 H   0  0  0  0  0  0  0  0  0  0  0  0
   -1.0846   -0.8745   -0.8636 C   0  0  0  0  0  0  0  0  0  0  0  0
   -1.5153    0.5812   -0.5551 C   0  0  0  0  0  0  0  0  0  0  0  0
   -1.0806    0.8083    0.8894 C   0  0  0  0  0  0  0  0  0  0  0  0
   -0.9119    2.2337    1.3846 C   0  0  0  0  0  0  0  0  0  0  0  0
   -0.3571    2.2239    2.8119 C   0  0  0  0  0  0  0  0  0  0  0  0
    0.9295    1.4033    2.9303 C   0  0  0  0  0  0  0  0  0  0  0  0
    0.7630   -0.0208    2.3926 C   0  0  0  0  0  0  0  0  0  0  0  0
    0.2285    0.0257    0.9721 C   0  0  0  0  0  0  0  0  0  0  0  0
   -0.1218   -1.2866    0.2779 C   0  0  0  0  0  0  0  0  0  0  0  0
   -1.9466   -1.5412   -0.9049 H   0  0  0  0  0  0  0  0  0  0  0  0
   -0.9840    1.2821   -1.2057 H   0  0  0  0  0  0  0  0  0  0  0  0
   -2.5824    0.7463   -0.7095 H   0  0  0  0  0  0  0  0  0  0  0  0
   -1.8002    0.3023    1.5494 H   0  0  0  0  0  0  0  0  0  0  0  0
   -0.2175    2.7640    0.7219 H   0  0  0  0  0  0  0  0  0  0  0  0
   -1.8597    2.7773    1.3506 H   0  0  0  0  0  0  0  0  0  0  0  0
   -0.1781    3.2455    3.1549 H   0  0  0  0  0  0  0  0  0  0  0  0
   -1.1136    1.7984    3.4807 H   0  0  0  0  0  0  0  0  0  0  0  0
    1.7236    1.9027    2.3642 H   0  0  0  0  0  0  0  0  0  0  0  0
    1.2586    1.3782    3.9717 H   0  0  0  0  0  0  0  0  0  0  0  0
    1.7150   -0.5563    2.4380 H   0  0  0  0  0  0  0  0  0  0  0  0
    0.0570   -0.5738    3.0237 H   0  0  0  0  0  0  0  0  0  0  0  0
    0.9623    0.5593    0.3504 H   0  0  0  0  0  0  0  0  0  0  0  0
    0.7555   -1.8239   -0.0847 H   0  0  0  0  0  0  0  0  0  0  0  0
   -0.6314   -1.9450    0.9877 H   0  0  0  0  0  0  0  0  0  0  0  0
  1  2  2  3
  1  4  1  0
  1  5  1  0
  2  3  1  0
  2  6  1  0
  3  8  1  0
  3  9  1  0
  7 10  1  0
 10 11  1  0
 10 18  1  0
 10 19  1  0
 11 12  1  0
 11 20  1  0
 11 21  1  0
 12 13  1  0
 12 17  1  0
 12 22  1  0
 13 14  1  0
 13 23  1  0
 13 24  1  0
 14 15  1  0
 14 25  1  0
 14 26  1  0
 15 16  1  0
 15 27  1  0
 15 28  1  0
 16 17  1  0
 16 29  1  0
 16 30  1  0
 17 18  1  0
 17 31  1  0
 18 32  1  0
 18 33  1  0
M  RAD  1   3   2
M  END
>  <reaction>  (15) 
rxn_740

>  <mol_properties>  (15) 
{"1": {"label": "*0", "atom_type": "Cd"}, "2": {"label": "*1", "atom_type": "Cs"}, "6": {"label": "*2", "atom_type": "H0"}, "9": {"label": "*3", "atom_type": "Cs"}, "17": {"label": "*4", "atom_type": "Cs"}}

>  <type>  (15) 
unop_11

>  <geom_source>  (15) 
Heuristics

$$$$

     RDKit          3D

 33 33  0  0  0  0  0  0  0  0999 V2000
    3.4299   -1.0277   -2.5429 C   0  0  0  0  0  0  0  0  0  0  0  0
    3.4299   -1.0277   -1.2191 C   0  0  0  0  0  0  0  0  0  0  0  0
    3.4299    0.1944   -0.3586 C   0  0  0  0  0  3  0  0  0  0  0  0
    3.4299   -1.9505   -3.1094 H   0  0  0  0  0  0  0  0  0  0  0  0
    3.4299   -0.1021   -3.1089 H   0  0  0  0  0  0  0  0  0  0  0  0
    3.4299   -1.9804   -0.6956 H   0  0  0  0  0  0  0  0  0  0  0  0
    2.3767    0.2150    0.4228 H   0  0  0  0  0  0  0  0  0  0  0  0
    3.4299    1.1049   -0.9592 H   0  0  0  0  0  0  0  0  0  0  0  0
    4.3076    0.2116    0.2926 H   0  0  0  0  0  0  0  0  0  0  0  0
    1.3260    0.2355    1.2024 C   0  0  0  0  0  0  0  0  0  0  0  0
    0.4399   -1.0135    0.9682 C   0  0  0  0  0  0  0  0  0  0  0  0
   -0.9809   -0.4633    0.8943 C   0  0  0  0  0  0  0  0  0  0  0  0
   -2.0535   -1.3019    0.2223 C   0  0  0  0  0  0  0  0  0  0  0  0
   -3.3626   -0.5104    0.1535 C   0  0  0  0  0  0  0  0  0  0  0  0
   -3.1816    0.8566   -0.5108 C   0  0  0  0  0  0  0  0  0  0  0  0
   -2.0714    1.6810    0.1471 C   0  0  0  0  0  0  0  0  0  0  0  0
   -0.7855    0.8744    0.1834 C   0  0  0  0  0  0  0  0  0  0  0  0
    0.4268    1.4603    0.9004 C   0  0  0  0  0  0  0  0  0  0  0  0
    1.6981    0.2695    2.2268 H   0  0  0  0  0  0  0  0  0  0  0  0
    0.6929   -1.4873    0.0152 H   0  0  0  0  0  0  0  0  0  0  0  0
    0.5640   -1.7693    1.7449 H   0  0  0  0  0  0  0  0  0  0  0  0
   -1.3169   -0.2382    1.9171 H   0  0  0  0  0  0  0  0  0  0  0  0
   -1.7244   -1.5604   -0.7913 H   0  0  0  0  0  0  0  0  0  0  0  0
   -2.2084   -2.2440    0.7549 H   0  0  0  0  0  0  0  0  0  0  0  0
   -4.1238   -1.0840   -0.3802 H   0  0  0  0  0  0  0  0  0  0  0  0
   -3.7394   -0.3640    1.1720 H   0  0  0  0  0  0  0  0  0  0  0  0
   -2.9312    0.7086   -1.5672 H   0  0  0  0  0  0  0  0  0  0  0  0
   -4.1249    1.4072   -0.4890 H   0  0  0  0  0  0  0  0  0  0  0  0
   -1.9306    2.6229   -0.3897 H   0  0  0  0  0  0  0  0  0  0  0  0
   -2.3616    1.9400    1.1723 H   0  0  0  0  0  0  0  0  0  0  0  0
   -0.4968    0.6486   -0.8535 H   0  0  0  0  0  0  0  0  0  0  0  0
    0.9393    2.2247    0.3149 H   0  0  0  0  0  0  0  0  0  0  0  0
    0.1010    1.9331    1.8316 H   0  0  0  0  0  0  0  0  0  0  0  0
  1  2  2  3
  1  4  1  0
  1  5  1  0
  2  3  1  0
  2  6  1  0
  3  8  1  0
  3  9  1  0
  7 10  1  0
 10 11  1  0
 10 18  1  0
 10 19  1  0
 11 12  1  0
 11 20  1  0
 11 21  1  0
 12 13  1  0
 12 17  1  0
 12 22  1  0
 13 14  1  0
 13 23  1  0
 13 24  1  0
 14 15  1  0
 14 25  1  0
 14 26  1  0
 15 16  1  0
 15 27  1  0
 15 28  1  0
 16 17  1  0
 16 29  1  0
 16 30  1  0
 17 18  1  0
 17 31  1  0
 18 32  1  0
 18 33  1  0
M  RAD  1   3   2
M  END
>  <reaction>  (16) 
rxn_740

>  <mol_properties>  (16) 
{"1": {"label": "*0", "atom_type": "Cd"}, "2": {"label": "*1", "atom_type": "Cs"}, "6": {"label": "*2", "atom_type": "H0"}, "9": {"label": "*3", "atom_type": "Cs"}, "17": {"label": "*4", "atom_type": "Cs"}}

>  <type>  (16) 
unop_12

>  <geom_source>  (16) 
Heuristics

$$$$

     RDKit          3D

 33 33  0  0  0  0  0  0  0  0999 V2000
   -1.2690    0.5561   -0.3218 C   0  0  0  0  0  0  0  0  0  0  0  0
   -0.7548   -0.8668   -0.3956 C   0  0  0  0  0  0  0  0  0  0  0  0
   -0.0822    1.3320    0.2222 C   0  0  0  0  0  0  0  0  0  0  0  0
    0.6414   -0.7066   -0.9706 C   0  0  0  0  0  0  0  0  0  0  0  0
   -2.5635    0.5994    0.4954 C   0  0  0  0  0  0  0  0  0  0  0  0
   -1.7384   -1.7347   -1.1860 C   0  0  0  0  0  0  0  0  0  0  0  0
    1.1410    0.6210   -0.3786 C   0  0  0  0  0  0  0  0  0  0  0  0
   -3.6195   -0.2891   -0.1964 C   0  0  0  0  0  0  0  0  0  0  0  0
   -3.1037   -1.7228   -0.4654 C   0  0  0  0  0  0  0  0  0  0  0  0
    4.3798    0.7238    1.1595 C   0  0  0  0  0  0  0  0  0  0  0  0
    3.2301   -0.1986    0.9242 C   0  0  0  0  0  0  0  0  0  0  0  0
    4.2015    2.0449    1.1613 C   0  0  0  0  0  3  0  0  0  0  0  0
   -1.4827    0.9382   -1.3492 H   0  0  0  0  0  0  0  0  0  0  0  0
   -0.6527   -1.2895    0.6330 H   0  0  0  0  0  0  0  0  0  0  0  0
    1.6051    1.2451   -1.1732 H   0  0  0  0  0  0  0  0  0  0  0  0
    2.0184    0.3952    0.5496 H   0  0  0  0  0  0  0  0  0  0  0  0
   -0.1246    2.3998   -0.0838 H   0  0  0  0  0  0  0  0  0  0  0  0
   -0.0465    1.2639    1.3317 H   0  0  0  0  0  0  0  0  0  0  0  0
    0.6006   -0.6365   -2.0805 H   0  0  0  0  0  0  0  0  0  0  0  0
    1.2986   -1.5523   -0.6746 H   0  0  0  0  0  0  0  0  0  0  0  0
   -2.9367    1.6446    0.5503 H   0  0  0  0  0  0  0  0  0  0  0  0
   -2.3847    0.2355    1.5314 H   0  0  0  0  0  0  0  0  0  0  0  0
   -1.3572   -2.7770   -1.2410 H   0  0  0  0  0  0  0  0  0  0  0  0
   -1.8558   -1.3486   -2.2226 H   0  0  0  0  0  0  0  0  0  0  0  0
   -3.9128    0.1769   -1.1627 H   0  0  0  0  0  0  0  0  0  0  0  0
   -4.5280   -0.3407    0.4412 H   0  0  0  0  0  0  0  0  0  0  0  0
   -3.8478   -2.2696   -1.0833 H   0  0  0  0  0  0  0  0  0  0  0  0
   -3.0103   -2.2613    0.5033 H   0  0  0  0  0  0  0  0  0  0  0  0
    5.3696    0.3114    1.3304 H   0  0  0  0  0  0  0  0  0  0  0  0
    3.0970   -0.8611    1.8044 H   0  0  0  0  0  0  0  0  0  0  0  0
    3.4243   -0.8145    0.0218 H   0  0  0  0  0  0  0  0  0  0  0  0
    3.2191    2.4758    0.9922 H   0  0  0  0  0  0  0  0  0  0  0  0
    5.0445    2.7063    1.3334 H   0  0  0  0  0  0  0  0  0  0  0  0
  1  5  1  0
  1  3  1  0
  1  2  1  0
  1 13  1  0
  2  6  1  0
  2  4  1  0
  2 14  1  0
  3  7  1  0
  3 17  1  0
  3 18  1  0
  4  7  1  0
  4 19  1  0
  4 20  1  0
  5  8  1  0
  5 21  1  0
  5 22  1  0
  6  9  1  0
  6 23  1  0
  6 24  1  0
  7 15  1  0
  7 16  1  0
  8  9  1  0
  8 25  1  0
  8 26  1  0
  9 27  1  0
  9 28  1  0
 10 11  2  3
 10 12  1  0
 10 29  1  0
 11 30  1  0
 11 31  1  0
 12 32  1  0
 12 33  1  0
M  RAD  1  12   2
M  END
>  <reaction>  (17) 
rxn_740

>  <mol_properties>  (17) 
{"1": {"label": "*0", "atom_type": "Cd"}, "2": {"label": "*1", "atom_type": "Cs"}, "6": {"label": "*2", "atom_type": "H0"}, "9": {"label": "*3", "atom_type": "Cs"}, "17": {"label": "*4", "atom_type": "Cs"}}

>  <type>  (17) 
unop_13

>  <geom_source>  (17) 
AutoTST

$$$$
