
     RDKit          3D

  4  3  0  0  0  0  0  0  0  0999 V2000
   -0.0057    0.0001   -0.0008 C   0  0  0  0  0  0  0  0  0  0  0  0
    1.1789   -0.0174    0.1563 O   0  0  0  0  0  0  0  0  0  0  0  0
   -0.5891    0.9399    0.0445 H   0  0  0  0  0  0  0  0  0  0  0  0
   -0.5841   -0.9226   -0.2001 H   0  0  0  0  0  0  0  0  0  0  0  0
  1  2  2  0
  1  3  1  0
  1  4  1  0
M  END
>  <reaction>  (1) 
rxn_3126

>  <mol_properties>  (1) 
{"0": {"label": "donator", "atom_type": "CO"}, "2": {"label": "d_hydrogen", "atom_type": "H0"}}

>  <type>  (1) 
r1h

$$$$

     RDKit          3D

  6  6  0  0  0  0  0  0  0  0999 V2000
    1.9594    0.0134   -0.3734 N   0  0  0  0  0  2  0  0  0  0  0  0
    0.7437    0.0051   -0.0788 C   0  0  0  0  0  0  0  0  0  0  0  0
   -0.0745    1.0868    0.0233 O   0  0  0  0  0  0  0  0  0  0  0  0
   -1.3223    0.5972    0.3682 N   0  0  0  0  0  0  0  0  0  0  0  0
   -1.2899   -0.6150    0.4676 N   0  0  0  0  0  0  0  0  0  0  0  0
   -0.0165   -1.0874    0.2015 O   0  0  0  0  0  0  0  0  0  0  0  0
  1  2  2  0
  2  3  1  0
  2  6  1  0
  3  4  1  0
  4  5  2  0
  5  6  1  0
M  RAD  1   1   2
M  END
>  <reaction>  (2) 
rxn_3126

>  <mol_properties>  (2) 
{"0": {"label": "acceptor", "atom_type": "N3d"}}

>  <type>  (2) 
r2

$$$$

     RDKit          3D

  7  7  0  0  0  0  0  0  0  0999 V2000
    1.6064   -0.4313    0.1905 N   0  0  0  0  0  0  0  0  0  0  0  0
    0.3982   -0.1725    0.0701 C   0  0  0  0  0  0  0  0  0  0  0  0
   -0.6051   -1.0481    0.3497 O   0  0  0  0  0  0  0  0  0  0  0  0
   -1.7906   -0.4044    0.0958 N   0  0  0  0  0  0  0  0  0  0  0  0
   -1.5819    0.7348   -0.2956 N   0  0  0  0  0  0  0  0  0  0  0  0
   -0.2229    0.9708   -0.3436 O   0  0  0  0  0  0  0  0  0  0  0  0
    2.1958    0.3506   -0.0669 H   0  0  0  0  0  0  0  0  0  0  0  0
  1  2  2  3
  1  7  1  0
  2  3  1  0
  2  6  1  0
  3  4  1  0
  4  5  2  0
  5  6  1  0
M  END
>  <reaction>  (3) 
rxn_3126

>  <mol_properties>  (3) 
{"0": {"label": "acceptor", "atom_type": "N3d"}, "6": {"label": "a_hydrogen", "atom_type": "H0"}}

>  <type>  (3) 
r2h

$$$$

     RDKit          3D

 10  9  0  0  0  0  0  0  0  0999 V2000
    1.4502   -0.0488    0.2304 N   0  0  0  0  0  2  0  0  0  0  0  0
    0.3263    0.3507    0.5966 C   0  0  0  0  0  0  0  0  0  0  0  0
    0.1004    1.2244    1.6233 O   0  0  0  0  0  0  0  0  0  0  0  0
   -1.2625    1.4052    1.7026 N   0  0  0  0  0  0  0  0  0  0  0  0
   -1.8303    0.7433    0.8498 N   0  0  0  0  0  0  0  0  0  0  0  0
   -0.9079    0.0416    0.1002 O   0  0  0  0  0  0  0  0  0  0  0  0
    1.1051   -1.7342   -1.8294 C   0  0  0  0  0  0  0  0  0  0  0  0
    0.0646   -2.0372   -2.2969 O   0  0  0  0  0  0  0  0  0  0  0  0
    1.2258   -0.9676   -0.8961 H   0  0  0  0  0  0  0  0  0  0  0  0
    2.0836   -2.1163   -2.1913 H   0  0  0  0  0  0  0  0  0  0  0  0
  1  2  2  0
  2  3  1  0
  2  6  1  0
  3  4  1  0
  4  5  2  0
  5  6  1  0
  7  8  2  0
  7  9  1  0
  7 10  1  0
M  RAD  1   1   2
M  END
>  <reaction>  (4) 
rxn_3126

>  <mol_properties>  (4) 
{"0": {"label": "*3", "atom_type": "N3d"}, "1": {"label": "*4", "atom_type": "Cd"}, "6": {"label": "*1", "atom_type": "CO"}, "7": {"label": "*0", "atom_type": "O2d"}, "8": {"label": "*2", "atom_type": "H0"}}

>  <type>  (4) 
ts

$$$$

     RDKit          3D

 10  9  0  0  0  0  0  0  0  0999 V2000
    1.1856    0.4253   -0.4225 N   0  0  0  0  0  0  0  0  0  0  0  0
    0.1915    0.5227    0.3148 C   0  0  0  0  0  0  0  0  0  0  0  0
    0.2317    0.9614    1.6021 O   0  0  0  0  0  0  0  0  0  0  0  0
   -1.0532    0.9290    2.0842 N   0  0  0  0  0  0  0  0  0  0  0  0
   -1.8212    0.5236    1.2239 N   0  0  0  0  0  0  0  0  0  0  0  0
   -1.1215    0.2411    0.0683 O   0  0  0  0  0  0  0  0  0  0  0  0
    1.1856   -1.7324   -1.7690 C   0  0  0  0  0  3  0  0  0  0  0  0
    1.1856   -1.7324   -2.9640 O   0  0  0  0  0  0  0  0  0  0  0  0
    1.1856   -0.6054   -1.0657 H   0  0  0  0  0  0  0  0  0  0  0  0
    1.1856   -2.6717   -1.1829 H   0  0  0  0  0  0  0  0  0  0  0  0
  1  2  2  3
  1  9  1  0
  2  3  1  0
  2  6  1  0
  3  4  1  0
  4  5  2  0
  5  6  1  0
  7  8  2  0
  7 10  1  0
M  RAD  1   7   2
M  END
>  <reaction>  (5) 
rxn_3126

>  <mol_properties>  (5) 
{"0": {"label": "*3", "atom_type": "N3d"}, "1": {"label": "*4", "atom_type": "Cd"}, "6": {"label": "*1", "atom_type": "CO"}, "7": {"label": "*0", "atom_type": "O2d"}, "8": {"label": "*2", "atom_type": "H0"}}

>  <type>  (5) 
unop_1

>  <geom_source>  (5) 
Heuristics

$$$$

     RDKit          3D

 10  9  0  0  0  0  0  0  0  0999 V2000
    0.7014   -0.5893    1.1892 N   0  0  0  0  0  0  0  0  0  0  0  0
    0.1274    0.3381    0.5962 C   0  0  0  0  0  0  0  0  0  0  0  0
   -0.3414    1.4623    1.2028 O   0  0  0  0  0  0  0  0  0  0  0  0
   -0.9073    2.2458    0.2281 N   0  0  0  0  0  0  0  0  0  0  0  0
   -0.8167    1.7013   -0.8626 N   0  0  0  0  0  0  0  0  0  0  0  0
   -0.1749    0.4869   -0.7268 O   0  0  0  0  0  0  0  0  0  0  0  0
    0.7014   -2.7471   -0.1572 C   0  0  0  0  0  3  0  0  0  0  0  0
    0.7014   -2.7471   -1.3523 O   0  0  0  0  0  0  0  0  0  0  0  0
    0.7014   -1.6200    0.5461 H   0  0  0  0  0  0  0  0  0  0  0  0
    0.7014   -3.6863    0.4288 H   0  0  0  0  0  0  0  0  0  0  0  0
  1  2  2  3
  1  9  1  0
  2  3  1  0
  2  6  1  0
  3  4  1  0
  4  5  2  0
  5  6  1  0
  7  8  2  0
  7 10  1  0
M  RAD  1   7   2
M  END
>  <reaction>  (6) 
rxn_3126

>  <mol_properties>  (6) 
{"0": {"label": "*3", "atom_type": "N3d"}, "1": {"label": "*4", "atom_type": "Cd"}, "6": {"label": "*1", "atom_type": "CO"}, "7": {"label": "*0", "atom_type": "O2d"}, "8": {"label": "*2", "atom_type": "H0"}}

>  <type>  (6) 
unop_2

>  <geom_source>  (6) 
Heuristics

$$$$

     RDKit          3D

 10  9  0  0  0  0  0  0  0  0999 V2000
    0.6735    0.6828   -0.8427 N   0  0  0  0  0  0  0  0  0  0  0  0
    0.0995    0.5577    0.2510 C   0  0  0  0  0  0  0  0  0  0  0  0
    0.4452    1.2339    1.3801 O   0  0  0  0  0  0  0  0  0  0  0  0
   -0.4119    0.8323    2.3743 N   0  0  0  0  0  0  0  0  0  0  0  0
   -1.2053    0.0071    1.9456 N   0  0  0  0  0  0  0  0  0  0  0  0
   -0.9572   -0.2293    0.6086 O   0  0  0  0  0  0  0  0  0  0  0  0
    0.6735   -1.4750   -2.1892 C   0  0  0  0  0  3  0  0  0  0  0  0
    0.6735   -1.4750   -3.3842 O   0  0  0  0  0  0  0  0  0  0  0  0
    0.6735   -0.3479   -1.4859 H   0  0  0  0  0  0  0  0  0  0  0  0
    0.6735   -2.4142   -1.6031 H   0  0  0  0  0  0  0  0  0  0  0  0
  1  2  2  3
  1  9  1  0
  2  3  1  0
  2  6  1  0
  3  4  1  0
  4  5  2  0
  5  6  1  0
  7  8  2  0
  7 10  1  0
M  RAD  1   7   2
M  END
>  <reaction>  (7) 
rxn_3126

>  <mol_properties>  (7) 
{"0": {"label": "*3", "atom_type": "N3d"}, "1": {"label": "*4", "atom_type": "Cd"}, "6": {"label": "*1", "atom_type": "CO"}, "7": {"label": "*0", "atom_type": "O2d"}, "8": {"label": "*2", "atom_type": "H0"}}

>  <type>  (7) 
unop_3

>  <geom_source>  (7) 
Heuristics

$$$$

     RDKit          3D

 10  9  0  0  0  0  0  0  0  0999 V2000
   -1.2080   -0.3124    0.7529 N   0  0  0  0  0  0  0  0  0  0  0  0
   -0.2139    0.3926    0.5163 C   0  0  0  0  0  0  0  0  0  0  0  0
    0.3998    1.1860    1.4358 O   0  0  0  0  0  0  0  0  0  0  0  0
    1.4510    1.8034    0.8048 N   0  0  0  0  0  0  0  0  0  0  0  0
    1.5091    1.4559   -0.3658 N   0  0  0  0  0  0  0  0  0  0  0  0
    0.4933    0.5624   -0.6391 O   0  0  0  0  0  0  0  0  0  0  0  0
   -1.2080   -2.4702   -0.5936 C   0  0  0  0  0  3  0  0  0  0  0  0
   -1.2080   -2.4702   -1.7886 O   0  0  0  0  0  0  0  0  0  0  0  0
   -1.2080   -1.3431    0.1097 H   0  0  0  0  0  0  0  0  0  0  0  0
   -1.2080   -3.4094   -0.0075 H   0  0  0  0  0  0  0  0  0  0  0  0
  1  2  2  3
  1  9  1  0
  2  3  1  0
  2  6  1  0
  3  4  1  0
  4  5  2  0
  5  6  1  0
  7  8  2  0
  7 10  1  0
M  RAD  1   7   2
M  END
>  <reaction>  (8) 
rxn_3126

>  <mol_properties>  (8) 
{"0": {"label": "*3", "atom_type": "N3d"}, "1": {"label": "*4", "atom_type": "Cd"}, "6": {"label": "*1", "atom_type": "CO"}, "7": {"label": "*0", "atom_type": "O2d"}, "8": {"label": "*2", "atom_type": "H0"}}

>  <type>  (8) 
unop_4

>  <geom_source>  (8) 
Heuristics

$$$$

     RDKit          3D

 10  9  0  0  0  0  0  0  0  0999 V2000
    0.0000    0.7696   -0.9921 N   0  0  0  0  0  0  0  0  0  0  0  0
    0.0000    0.5630    0.2321 C   0  0  0  0  0  0  0  0  0  0  0  0
   -0.0000    1.5439    1.1751 O   0  0  0  0  0  0  0  0  0  0  0  0
   -0.0000    0.9294    2.4026 N   0  0  0  0  0  0  0  0  0  0  0  0
   -0.0000   -0.2859    2.2709 N   0  0  0  0  0  0  0  0  0  0  0  0
    0.0000   -0.6107    0.9294 O   0  0  0  0  0  0  0  0  0  0  0  0
    0.0000   -1.3882   -2.3386 C   0  0  0  0  0  3  0  0  0  0  0  0
    0.0000   -1.3882   -3.5337 O   0  0  0  0  0  0  0  0  0  0  0  0
    0.0000   -0.2611   -1.6353 H   0  0  0  0  0  0  0  0  0  0  0  0
   -0.0000   -2.3274   -1.7525 H   0  0  0  0  0  0  0  0  0  0  0  0
  1  2  2  3
  1  9  1  0
  2  3  1  0
  2  6  1  0
  3  4  1  0
  4  5  2  0
  5  6  1  0
  7  8  2  0
  7 10  1  0
M  RAD  1   7   2
M  END
>  <reaction>  (9) 
rxn_3126

>  <mol_properties>  (9) 
{"0": {"label": "*3", "atom_type": "N3d"}, "1": {"label": "*4", "atom_type": "Cd"}, "6": {"label": "*1", "atom_type": "CO"}, "7": {"label": "*0", "atom_type": "O2d"}, "8": {"label": "*2", "atom_type": "H0"}}

>  <type>  (9) 
unop_5

>  <geom_source>  (9) 
Heuristics

$$$$

     RDKit          3D

 10  9  0  0  0  0  0  0  0  0999 V2000
   -1.3840    0.0601    0.1619 N   0  0  0  0  0  0  0  0  0  0  0  0
   -0.2360    0.4612    0.4122 C   0  0  0  0  0  0  0  0  0  0  0  0
    0.1531    0.9719    1.6119 O   0  0  0  0  0  0  0  0  0  0  0  0
    1.4810    1.3021    1.5031 N   0  0  0  0  0  0  0  0  0  0  0  0
    1.8951    1.0400    0.3831 N   0  0  0  0  0  0  0  0  0  0  0  0
    0.8766    0.5030   -0.3779 O   0  0  0  0  0  0  0  0  0  0  0  0
   -1.3840   -2.0977   -1.1846 C   0  0  0  0  0  3  0  0  0  0  0  0
   -1.3840   -2.0977   -2.3796 O   0  0  0  0  0  0  0  0  0  0  0  0
   -1.3840   -0.9706   -0.4813 H   0  0  0  0  0  0  0  0  0  0  0  0
   -1.3840   -3.0369   -0.5985 H   0  0  0  0  0  0  0  0  0  0  0  0
  1  2  2  3
  1  9  1  0
  2  3  1  0
  2  6  1  0
  3  4  1  0
  4  5  2  0
  5  6  1  0
  7  8  2  0
  7 10  1  0
M  RAD  1   7   2
M  END
>  <reaction>  (10) 
rxn_3126

>  <mol_properties>  (10) 
{"0": {"label": "*3", "atom_type": "N3d"}, "1": {"label": "*4", "atom_type": "Cd"}, "6": {"label": "*1", "atom_type": "CO"}, "7": {"label": "*0", "atom_type": "O2d"}, "8": {"label": "*2", "atom_type": "H0"}}

>  <type>  (10) 
unop_6

>  <geom_source>  (10) 
Heuristics

$$$$

     RDKit          3D

 10  9  0  0  0  0  0  0  0  0999 V2000
   -1.1856    0.4253   -0.4225 N   0  0  0  0  0  0  0  0  0  0  0  0
   -0.1915    0.5227    0.3148 C   0  0  0  0  0  0  0  0  0  0  0  0
   -0.2317    0.9614    1.6021 O   0  0  0  0  0  0  0  0  0  0  0  0
    1.0532    0.9290    2.0842 N   0  0  0  0  0  0  0  0  0  0  0  0
    1.8212    0.5236    1.2239 N   0  0  0  0  0  0  0  0  0  0  0  0
    1.1215    0.2411    0.0683 O   0  0  0  0  0  0  0  0  0  0  0  0
   -1.1856   -1.7324   -1.7690 C   0  0  0  0  0  3  0  0  0  0  0  0
   -1.1856   -1.7324   -2.9640 O   0  0  0  0  0  0  0  0  0  0  0  0
   -1.1856   -0.6054   -1.0657 H   0  0  0  0  0  0  0  0  0  0  0  0
   -1.1856   -2.6717   -1.1829 H   0  0  0  0  0  0  0  0  0  0  0  0
  1  2  2  3
  1  9  1  0
  2  3  1  0
  2  6  1  0
  3  4  1  0
  4  5  2  0
  5  6  1  0
  7  8  2  0
  7 10  1  0
M  RAD  1   7   2
M  END
>  <reaction>  (11) 
rxn_3126

>  <mol_properties>  (11) 
{"0": {"label": "*3", "atom_type": "N3d"}, "1": {"label": "*4", "atom_type": "Cd"}, "6": {"label": "*1", "atom_type": "CO"}, "7": {"label": "*0", "atom_type": "O2d"}, "8": {"label": "*2", "atom_type": "H0"}}

>  <type>  (11) 
unop_7

>  <geom_source>  (11) 
Heuristics

$$$$

     RDKit          3D

 10  9  0  0  0  0  0  0  0  0999 V2000
    1.3840    0.0601    0.1619 N   0  0  0  0  0  0  0  0  0  0  0  0
    0.2360    0.4612    0.4122 C   0  0  0  0  0  0  0  0  0  0  0  0
   -0.1531    0.9719    1.6119 O   0  0  0  0  0  0  0  0  0  0  0  0
   -1.4810    1.3021    1.5031 N   0  0  0  0  0  0  0  0  0  0  0  0
   -1.8951    1.0400    0.3831 N   0  0  0  0  0  0  0  0  0  0  0  0
   -0.8766    0.5030   -0.3779 O   0  0  0  0  0  0  0  0  0  0  0  0
    1.3840   -2.0977   -1.1846 C   0  0  0  0  0  3  0  0  0  0  0  0
    1.3840   -2.0977   -2.3796 O   0  0  0  0  0  0  0  0  0  0  0  0
    1.3840   -0.9706   -0.4813 H   0  0  0  0  0  0  0  0  0  0  0  0
    1.3840   -3.0369   -0.5985 H   0  0  0  0  0  0  0  0  0  0  0  0
  1  2  2  3
  1  9  1  0
  2  3  1  0
  2  6  1  0
  3  4  1  0
  4  5  2  0
  5  6  1  0
  7  8  2  0
  7 10  1  0
M  RAD  1   7   2
M  END
>  <reaction>  (12) 
rxn_3126

>  <mol_properties>  (12) 
{"0": {"label": "*3", "atom_type": "N3d"}, "1": {"label": "*4", "atom_type": "Cd"}, "6": {"label": "*1", "atom_type": "CO"}, "7": {"label": "*0", "atom_type": "O2d"}, "8": {"label": "*2", "atom_type": "H0"}}

>  <type>  (12) 
unop_8

>  <geom_source>  (12) 
Heuristics

$$$$

     RDKit          3D

 10  9  0  0  0  0  0  0  0  0999 V2000
   -0.7014   -0.5893    1.1892 N   0  0  0  0  0  0  0  0  0  0  0  0
   -0.1274    0.3381    0.5962 C   0  0  0  0  0  0  0  0  0  0  0  0
    0.3414    1.4623    1.2028 O   0  0  0  0  0  0  0  0  0  0  0  0
    0.9073    2.2458    0.2281 N   0  0  0  0  0  0  0  0  0  0  0  0
    0.8167    1.7013   -0.8626 N   0  0  0  0  0  0  0  0  0  0  0  0
    0.1749    0.4869   -0.7268 O   0  0  0  0  0  0  0  0  0  0  0  0
   -0.7014   -2.7471   -0.1572 C   0  0  0  0  0  3  0  0  0  0  0  0
   -0.7014   -2.7471   -1.3523 O   0  0  0  0  0  0  0  0  0  0  0  0
   -0.7014   -1.6200    0.5461 H   0  0  0  0  0  0  0  0  0  0  0  0
   -0.7014   -3.6863    0.4288 H   0  0  0  0  0  0  0  0  0  0  0  0
  1  2  2  3
  1  9  1  0
  2  3  1  0
  2  6  1  0
  3  4  1  0
  4  5  2  0
  5  6  1  0
  7  8  2  0
  7 10  1  0
M  RAD  1   7   2
M  END
>  <reaction>  (13) 
rxn_3126

>  <mol_properties>  (13) 
{"0": {"label": "*3", "atom_type": "N3d"}, "1": {"label": "*4", "atom_type": "Cd"}, "6": {"label": "*1", "atom_type": "CO"}, "7": {"label": "*0", "atom_type": "O2d"}, "8": {"label": "*2", "atom_type": "H0"}}

>  <type>  (13) 
unop_9

>  <geom_source>  (13) 
Heuristics

$$$$

     RDKit          3D

 10  9  0  0  0  0  0  0  0  0999 V2000
    1.2080   -0.3124    0.7529 N   0  0  0  0  0  0  0  0  0  0  0  0
    0.2139    0.3926    0.5163 C   0  0  0  0  0  0  0  0  0  0  0  0
   -0.3998    1.1860    1.4358 O   0  0  0  0  0  0  0  0  0  0  0  0
   -1.4510    1.8034    0.8048 N   0  0  0  0  0  0  0  0  0  0  0  0
   -1.5091    1.4559   -0.3658 N   0  0  0  0  0  0  0  0  0  0  0  0
   -0.4933    0.5624   -0.6391 O   0  0  0  0  0  0  0  0  0  0  0  0
    1.2080   -2.4702   -0.5936 C   0  0  0  0  0  3  0  0  0  0  0  0
    1.2080   -2.4702   -1.7886 O   0  0  0  0  0  0  0  0  0  0  0  0
    1.2080   -1.3431    0.1097 H   0  0  0  0  0  0  0  0  0  0  0  0
    1.2080   -3.4094   -0.0075 H   0  0  0  0  0  0  0  0  0  0  0  0
  1  2  2  3
  1  9  1  0
  2  3  1  0
  2  6  1  0
  3  4  1  0
  4  5  2  0
  5  6  1  0
  7  8  2  0
  7 10  1  0
M  RAD  1   7   2
M  END
>  <reaction>  (14) 
rxn_3126

>  <mol_properties>  (14) 
{"0": {"label": "*3", "atom_type": "N3d"}, "1": {"label": "*4", "atom_type": "Cd"}, "6": {"label": "*1", "atom_type": "CO"}, "7": {"label": "*0", "atom_type": "O2d"}, "8": {"label": "*2", "atom_type": "H0"}}

>  <type>  (14) 
unop_10

>  <geom_source>  (14) 
Heuristics

$$$$

     RDKit          3D

 10  9  0  0  0  0  0  0  0  0999 V2000
   -0.6735    0.6828   -0.8427 N   0  0  0  0  0  0  0  0  0  0  0  0
   -0.0995    0.5577    0.2510 C   0  0  0  0  0  0  0  0  0  0  0  0
   -0.4452    1.2339    1.3801 O   0  0  0  0  0  0  0  0  0  0  0  0
    0.4119    0.8323    2.3743 N   0  0  0  0  0  0  0  0  0  0  0  0
    1.2053    0.0071    1.9456 N   0  0  0  0  0  0  0  0  0  0  0  0
    0.9572   -0.2293    0.6086 O   0  0  0  0  0  0  0  0  0  0  0  0
   -0.6735   -1.4750   -2.1892 C   0  0  0  0  0  3  0  0  0  0  0  0
   -0.6735   -1.4750   -3.3842 O   0  0  0  0  0  0  0  0  0  0  0  0
   -0.6735   -0.3479   -1.4859 H   0  0  0  0  0  0  0  0  0  0  0  0
   -0.6735   -2.4142   -1.6031 H   0  0  0  0  0  0  0  0  0  0  0  0
  1  2  2  3
  1  9  1  0
  2  3  1  0
  2  6  1  0
  3  4  1  0
  4  5  2  0
  5  6  1  0
  7  8  2  0
  7 10  1  0
M  RAD  1   7   2
M  END
>  <reaction>  (15) 
rxn_3126

>  <mol_properties>  (15) 
{"0": {"label": "*3", "atom_type": "N3d"}, "1": {"label": "*4", "atom_type": "Cd"}, "6": {"label": "*1", "atom_type": "CO"}, "7": {"label": "*0", "atom_type": "O2d"}, "8": {"label": "*2", "atom_type": "H0"}}

>  <type>  (15) 
unop_11

>  <geom_source>  (15) 
Heuristics

$$$$

     RDKit          3D

 10  9  0  0  0  0  0  0  0  0999 V2000
   -0.0000   -0.6918    1.3498 N   0  0  0  0  0  0  0  0  0  0  0  0
   -0.0000    0.3170    0.6263 C   0  0  0  0  0  0  0  0  0  0  0  0
    0.0000    1.5952    1.0929 O   0  0  0  0  0  0  0  0  0  0  0  0
    0.0000    2.4277    0.0015 N   0  0  0  0  0  0  0  0  0  0  0  0
    0.0000    1.7753   -1.0323 N   0  0  0  0  0  0  0  0  0  0  0  0
   -0.0000    0.4276   -0.7345 O   0  0  0  0  0  0  0  0  0  0  0  0
   -0.0000   -2.8496    0.0033 C   0  0  0  0  0  3  0  0  0  0  0  0
   -0.0000   -2.8496   -1.1917 O   0  0  0  0  0  0  0  0  0  0  0  0
   -0.0000   -1.7225    0.7066 H   0  0  0  0  0  0  0  0  0  0  0  0
   -0.0000   -3.7888    0.5894 H   0  0  0  0  0  0  0  0  0  0  0  0
  1  2  2  3
  1  9  1  0
  2  3  1  0
  2  6  1  0
  3  4  1  0
  4  5  2  0
  5  6  1  0
  7  8  2  0
  7 10  1  0
M  RAD  1   7   2
M  END
>  <reaction>  (16) 
rxn_3126

>  <mol_properties>  (16) 
{"0": {"label": "*3", "atom_type": "N3d"}, "1": {"label": "*4", "atom_type": "Cd"}, "6": {"label": "*1", "atom_type": "CO"}, "7": {"label": "*0", "atom_type": "O2d"}, "8": {"label": "*2", "atom_type": "H0"}}

>  <type>  (16) 
unop_12

>  <geom_source>  (16) 
Heuristics

$$$$

     RDKit          3D

 10  9  0  0  0  0  0  0  0  0999 V2000
    1.2080   -0.3124    0.7529 N   0  0  0  0  0  0  0  0  0  0  0  0
    0.2139    0.3926    0.5163 C   0  0  0  0  0  0  0  0  0  0  0  0
   -0.3998    1.1860    1.4358 O   0  0  0  0  0  0  0  0  0  0  0  0
   -1.4509    1.8034    0.8048 N   0  0  0  0  0  0  0  0  0  0  0  0
   -1.5091    1.4559   -0.3658 N   0  0  0  0  0  0  0  0  0  0  0  0
   -0.4933    0.5624   -0.6391 O   0  0  0  0  0  0  0  0  0  0  0  0
    1.2080   -2.4702   -0.5936 C   0  0  0  0  0  3  0  0  0  0  0  0
    1.2080   -2.4702   -1.7886 O   0  0  0  0  0  0  0  0  0  0  0  0
    1.2080   -1.3431    0.1097 H   0  0  0  0  0  0  0  0  0  0  0  0
    1.2080   -3.4094   -0.0075 H   0  0  0  0  0  0  0  0  0  0  0  0
  1  2  2  3
  1  9  1  0
  2  3  1  0
  2  6  1  0
  3  4  1  0
  4  5  2  0
  5  6  1  0
  7  8  2  0
  7 10  1  0
M  RAD  1   7   2
M  END
>  <reaction>  (17) 
rxn_3126

>  <mol_properties>  (17) 
{"0": {"label": "*3", "atom_type": "N3d"}, "1": {"label": "*4", "atom_type": "Cd"}, "6": {"label": "*1", "atom_type": "CO"}, "7": {"label": "*0", "atom_type": "O2d"}, "8": {"label": "*2", "atom_type": "H0"}}

>  <type>  (17) 
unop_13

>  <geom_source>  (17) 
gaussian_log

$$$$
