
     RDKit          3D

 15 14  0  0  0  0  0  0  0  0999 V2000
   -0.6986    1.3249   -0.1641 C   0  0  0  0  0  0  0  0  0  0  0  0
   -0.2590   -0.0344    0.3671 C   0  0  0  0  0  0  0  0  0  0  0  0
   -0.4734   -0.1429    1.8733 C   0  0  0  0  0  0  0  0  0  0  0  0
   -0.9841   -1.1722   -0.3462 C   0  0  0  0  0  0  0  0  0  0  0  0
   -0.7805   -1.1911   -1.7444 O   0  0  0  0  0  0  0  0  0  0  0  0
   -0.1246    2.1306    0.2976 H   0  0  0  0  0  0  0  0  0  0  0  0
   -1.7557    1.4964    0.0581 H   0  0  0  0  0  0  0  0  0  0  0  0
   -0.5709    1.3852   -1.2449 H   0  0  0  0  0  0  0  0  0  0  0  0
    0.8141   -0.1541    0.1667 H   0  0  0  0  0  0  0  0  0  0  0  0
   -1.5346   -0.0466    2.1192 H   0  0  0  0  0  0  0  0  0  0  0  0
    0.0611    0.6480    2.4019 H   0  0  0  0  0  0  0  0  0  0  0  0
   -0.1249   -1.1023    2.2618 H   0  0  0  0  0  0  0  0  0  0  0  0
   -0.6918   -2.1316    0.1011 H   0  0  0  0  0  0  0  0  0  0  0  0
   -2.0629   -1.0627   -0.2056 H   0  0  0  0  0  0  0  0  0  0  0  0
    0.1528   -1.3298   -1.9125 H   0  0  0  0  0  0  0  0  0  0  0  0
  1  2  1  0
  1  6  1  0
  1  7  1  0
  1  8  1  0
  2  3  1  0
  2  4  1  0
  2  9  1  0
  3 10  1  0
  3 11  1  0
  3 12  1  0
  4  5  1  0
  4 13  1  0
  4 14  1  0
  5 15  1  0
M  END
>  <reaction>  (1) 
rxn_418

>  <mol_properties>  (1) 
{"3": {"label": "donator", "atom_type": "Cs"}, "12": {"label": "d_hydrogen", "atom_type": "H0"}}

>  <type>  (1) 
r1h

$$$$

     RDKit          3D

  7  6  0  0  0  0  0  0  0  0999 V2000
   -0.6201    0.0189   -0.0017 C   0  0  0  0  0  0  0  0  0  0  0  0
    0.8589   -0.0553    0.0500 C   0  0  0  0  0  3  0  0  0  0  0  0
   -1.0738   -0.9730   -0.0559 H   0  0  0  0  0  0  0  0  0  0  0  0
   -0.9680    0.5706   -0.8872 H   0  0  0  0  0  0  0  0  0  0  0  0
   -1.0303    0.5369    0.8678 H   0  0  0  0  0  0  0  0  0  0  0  0
    1.3939   -0.8386   -0.4695 H   0  0  0  0  0  0  0  0  0  0  0  0
    1.4394    0.7404    0.4965 H   0  0  0  0  0  0  0  0  0  0  0  0
  1  2  1  0
  1  3  1  0
  1  4  1  0
  1  5  1  0
  2  6  1  0
  2  7  1  0
M  RAD  1   2   2
M  END
>  <reaction>  (2) 
rxn_418

>  <mol_properties>  (2) 
{"1": {"label": "acceptor", "atom_type": "Cs"}}

>  <type>  (2) 
r2

$$$$

     RDKit          3D

  8  7  0  0  0  0  0  0  0  0999 V2000
    0.7610    0.0250    0.0051 C   0  0  0  0  0  0  0  0  0  0  0  0
   -0.7610   -0.0250   -0.0051 C   0  0  0  0  0  0  0  0  0  0  0  0
    1.1904   -0.9237   -0.3217 H   0  0  0  0  0  0  0  0  0  0  0  0
    1.1359    0.8041   -0.6609 H   0  0  0  0  0  0  0  0  0  0  0  0
    1.1435    0.2336    1.0058 H   0  0  0  0  0  0  0  0  0  0  0  0
   -1.1435   -0.2336   -1.0058 H   0  0  0  0  0  0  0  0  0  0  0  0
   -1.1904    0.9237    0.3216 H   0  0  0  0  0  0  0  0  0  0  0  0
   -1.1359   -0.8041    0.6609 H   0  0  0  0  0  0  0  0  0  0  0  0
  1  2  1  0
  1  3  1  0
  1  4  1  0
  1  5  1  0
  2  6  1  0
  2  7  1  0
  2  8  1  0
M  END
>  <reaction>  (3) 
rxn_418

>  <mol_properties>  (3) 
{"0": {"label": "a_hydrogen", "atom_type": "H0"}, "2": {"label": "acceptor", "atom_type": "Cs"}}

>  <type>  (3) 
r2h

$$$$

     RDKit          3D

 22 20  0  0  0  0  0  0  0  0999 V2000
   -0.0993   -0.0038   -2.4234 C   0  0  0  0  0  0  0  0  0  0  0  0
    0.2574    0.0719   -0.9386 C   0  0  0  0  0  0  0  0  0  0  0  0
    1.7140    0.4765   -0.7369 C   0  0  0  0  0  0  0  0  0  0  0  0
   -0.6578    1.0213   -0.1935 C   0  0  0  0  0  0  0  0  0  0  0  0
   -2.0113    0.6968   -0.2170 O   0  0  0  0  0  0  0  0  0  0  0  0
    0.5183   -0.7451   -2.9351 H   0  0  0  0  0  0  0  0  0  0  0  0
    0.0675    0.9637   -2.9042 H   0  0  0  0  0  0  0  0  0  0  0  0
   -1.1467   -0.2709   -2.5660 H   0  0  0  0  0  0  0  0  0  0  0  0
    0.1185   -0.9263   -0.5009 H   0  0  0  0  0  0  0  0  0  0  0  0
    1.8926    1.4790   -1.1349 H   0  0  0  0  0  0  0  0  0  0  0  0
    2.3833   -0.2108   -1.2567 H   0  0  0  0  0  0  0  0  0  0  0  0
    1.9858    0.4821    0.3198 H   0  0  0  0  0  0  0  0  0  0  0  0
   -0.2687    1.0137    1.0581 H   0  0  0  0  0  0  0  0  0  0  0  0
   -0.5564    2.0589   -0.5176 H   0  0  0  0  0  0  0  0  0  0  0  0
   -2.1088   -0.2267    0.0250 H   0  0  0  0  0  0  0  0  0  0  0  0
    0.0568   -0.6862    2.5987 C   0  0  0  0  0  0  0  0  0  0  0  0
    0.0185    0.8061    2.4114 C   0  0  0  0  0  3  0  0  0  0  0  0
    0.2429   -0.9665    3.6407 H   0  0  0  0  0  0  0  0  0  0  0  0
    0.8448   -1.1437    1.9957 H   0  0  0  0  0  0  0  0  0  0  0  0
   -0.8922   -1.1468    2.3115 H   0  0  0  0  0  0  0  0  0  0  0  0
    0.9661    1.3172    2.5698 H   0  0  0  0  0  0  0  0  0  0  0  0
   -0.8065    1.3141    2.9061 H   0  0  0  0  0  0  0  0  0  0  0  0
  1  2  1  0
  1  6  1  0
  1  7  1  0
  1  8  1  0
  2  3  1  0
  2  4  1  0
  2  9  1  0
  3 10  1  0
  3 11  1  0
  3 12  1  0
  4  5  1  0
  4 13  1  0
  4 14  1  0
  5 15  1  0
 16 17  1  0
 16 18  1  0
 16 19  1  0
 16 20  1  0
 17 21  1  0
 17 22  1  0
M  RAD  1  17   2
M  END
>  <reaction>  (4) 
rxn_418

>  <mol_properties>  (4) 
{"1": {"label": "*0", "atom_type": "Cs"}, "3": {"label": "*1", "atom_type": "Cs"}, "12": {"label": "*2", "atom_type": "H0"}, "15": {"label": "*4", "atom_type": "Cs"}, "16": {"label": "*3", "atom_type": "Cs"}}

>  <type>  (4) 
ts

$$$$

     RDKit          3D

 22 20  0  0  0  0  0  0  0  0999 V2000
    0.8849    0.3264   -2.4697 C   0  0  0  0  0  0  0  0  0  0  0  0
    0.8849    0.3264   -0.9455 C   0  0  0  0  0  0  0  0  0  0  0  0
    0.8849    1.7451   -0.3857 C   0  0  0  0  0  0  0  0  0  0  0  0
   -0.3026   -0.4540   -0.3886 C   0  0  0  0  0  3  0  0  0  0  0  0
   -0.3414   -1.8052   -0.8003 O   0  0  0  0  0  0  0  0  0  0  0  0
    1.7746    0.8229   -2.8617 H   0  0  0  0  0  0  0  0  0  0  0  0
    0.0087    0.8591   -2.8502 H   0  0  0  0  0  0  0  0  0  0  0  0
    0.8545   -0.6896   -2.8633 H   0  0  0  0  0  0  0  0  0  0  0  0
    1.7978   -0.1761   -0.5991 H   0  0  0  0  0  0  0  0  0  0  0  0
   -0.0184    2.2802   -0.6919 H   0  0  0  0  0  0  0  0  0  0  0  0
    1.7435    2.3098   -0.7526 H   0  0  0  0  0  0  0  0  0  0  0  0
    0.9222    1.7476    0.7059 H   0  0  0  0  0  0  0  0  0  0  0  0
   -0.3088   -0.3681    0.9264 H   0  0  0  0  0  0  0  0  0  0  0  0
   -1.2338   -0.0080   -0.7483 H   0  0  0  0  0  0  0  0  0  0  0  0
    0.4413   -2.2461   -0.4660 H   0  0  0  0  0  0  0  0  0  0  0  0
   -1.5985    0.3621    2.7386 C   0  0  0  0  0  0  0  0  0  0  0  0
   -0.3149   -0.2827    2.2333 C   0  0  0  0  0  0  0  0  0  0  0  0
   -1.9600   -0.1310    3.6427 H   0  0  0  0  0  0  0  0  0  0  0  0
   -2.3916    0.3040    1.9910 H   0  0  0  0  0  0  0  0  0  0  0  0
   -1.4450    1.4163    2.9761 H   0  0  0  0  0  0  0  0  0  0  0  0
   -0.4684   -1.3369    1.9957 H   0  0  0  0  0  0  0  0  0  0  0  0
    0.4782   -0.2246    2.9808 H   0  0  0  0  0  0  0  0  0  0  0  0
  1  2  1  0
  1  6  1  0
  1  7  1  0
  1  8  1  0
  2  3  1  0
  2  4  1  0
  2  9  1  0
  3 10  1  0
  3 11  1  0
  3 12  1  0
  4  5  1  0
  4 14  1  0
  5 15  1  0
 13 17  1  0
 16 17  1  0
 16 18  1  0
 16 19  1  0
 16 20  1  0
 17 21  1  0
 17 22  1  0
M  RAD  1   4   2
M  END
>  <reaction>  (5) 
rxn_418

>  <mol_properties>  (5) 
{"1": {"label": "*0", "atom_type": "Cs"}, "3": {"label": "*1", "atom_type": "Cs"}, "12": {"label": "*2", "atom_type": "H0"}, "15": {"label": "*4", "atom_type": "Cs"}, "16": {"label": "*3", "atom_type": "Cs"}}

>  <type>  (5) 
unop_1

>  <geom_source>  (5) 
Heuristics

$$$$

     RDKit          3D

 22 20  0  0  0  0  0  0  0  0999 V2000
    0.6085    0.2219   -2.4658 C   0  0  0  0  0  0  0  0  0  0  0  0
    0.6085    0.2219   -0.9417 C   0  0  0  0  0  0  0  0  0  0  0  0
    0.6085    1.6406   -0.3818 C   0  0  0  0  0  0  0  0  0  0  0  0
   -0.5790   -0.5585   -0.3848 C   0  0  0  0  0  3  0  0  0  0  0  0
   -0.6178   -1.9098   -0.7965 O   0  0  0  0  0  0  0  0  0  0  0  0
    1.4982    0.7184   -2.8579 H   0  0  0  0  0  0  0  0  0  0  0  0
   -0.2677    0.7546   -2.8463 H   0  0  0  0  0  0  0  0  0  0  0  0
    0.5781   -0.7941   -2.8595 H   0  0  0  0  0  0  0  0  0  0  0  0
    1.5214   -0.2806   -0.5952 H   0  0  0  0  0  0  0  0  0  0  0  0
   -0.2947    2.1756   -0.6880 H   0  0  0  0  0  0  0  0  0  0  0  0
    1.4671    2.2053   -0.7488 H   0  0  0  0  0  0  0  0  0  0  0  0
    0.6458    1.6430    0.7097 H   0  0  0  0  0  0  0  0  0  0  0  0
   -0.5852   -0.4726    0.9302 H   0  0  0  0  0  0  0  0  0  0  0  0
   -1.5102   -0.1126   -0.7445 H   0  0  0  0  0  0  0  0  0  0  0  0
    0.1649   -2.3506   -0.4622 H   0  0  0  0  0  0  0  0  0  0  0  0
    0.0167    0.9272    2.7076 C   0  0  0  0  0  0  0  0  0  0  0  0
   -0.5913   -0.3873    2.2371 C   0  0  0  0  0  0  0  0  0  0  0  0
   -0.2649    1.1469    3.7390 H   0  0  0  0  0  0  0  0  0  0  0  0
   -0.3178    1.7619    2.0890 H   0  0  0  0  0  0  0  0  0  0  0  0
    1.1067    0.8980    2.6617 H   0  0  0  0  0  0  0  0  0  0  0  0
   -1.6814   -0.3581    2.2830 H   0  0  0  0  0  0  0  0  0  0  0  0
   -0.2569   -1.2219    2.8557 H   0  0  0  0  0  0  0  0  0  0  0  0
  1  2  1  0
  1  6  1  0
  1  7  1  0
  1  8  1  0
  2  3  1  0
  2  4  1  0
  2  9  1  0
  3 10  1  0
  3 11  1  0
  3 12  1  0
  4  5  1  0
  4 14  1  0
  5 15  1  0
 13 17  1  0
 16 17  1  0
 16 18  1  0
 16 19  1  0
 16 20  1  0
 17 21  1  0
 17 22  1  0
M  RAD  1   4   2
M  END
>  <reaction>  (6) 
rxn_418

>  <mol_properties>  (6) 
{"1": {"label": "*0", "atom_type": "Cs"}, "3": {"label": "*1", "atom_type": "Cs"}, "12": {"label": "*2", "atom_type": "H0"}, "15": {"label": "*4", "atom_type": "Cs"}, "16": {"label": "*3", "atom_type": "Cs"}}

>  <type>  (6) 
unop_2

>  <geom_source>  (6) 
Heuristics

$$$$

     RDKit          3D

 22 20  0  0  0  0  0  0  0  0999 V2000
    0.9010    0.4308   -2.4774 C   0  0  0  0  0  0  0  0  0  0  0  0
    0.9010    0.4308   -0.9533 C   0  0  0  0  0  0  0  0  0  0  0  0
    0.9010    1.8495   -0.3934 C   0  0  0  0  0  0  0  0  0  0  0  0
   -0.2865   -0.3496   -0.3963 C   0  0  0  0  0  3  0  0  0  0  0  0
   -0.3253   -1.7008   -0.8081 O   0  0  0  0  0  0  0  0  0  0  0  0
    1.7907    0.9273   -2.8695 H   0  0  0  0  0  0  0  0  0  0  0  0
    0.0247    0.9635   -2.8579 H   0  0  0  0  0  0  0  0  0  0  0  0
    0.8706   -0.5852   -2.8711 H   0  0  0  0  0  0  0  0  0  0  0  0
    1.8138   -0.0717   -0.6068 H   0  0  0  0  0  0  0  0  0  0  0  0
   -0.0023    2.3846   -0.6996 H   0  0  0  0  0  0  0  0  0  0  0  0
    1.7595    2.4142   -0.7604 H   0  0  0  0  0  0  0  0  0  0  0  0
    0.9383    1.8520    0.6981 H   0  0  0  0  0  0  0  0  0  0  0  0
   -0.2927   -0.2637    0.9186 H   0  0  0  0  0  0  0  0  0  0  0  0
   -1.2177    0.0964   -0.7561 H   0  0  0  0  0  0  0  0  0  0  0  0
    0.4573   -2.1417   -0.4738 H   0  0  0  0  0  0  0  0  0  0  0  0
   -1.7161   -0.2543    2.7773 C   0  0  0  0  0  0  0  0  0  0  0  0
   -0.2989   -0.1783    2.2255 C   0  0  0  0  0  0  0  0  0  0  0  0
   -1.7277   -0.6832    3.7809 H   0  0  0  0  0  0  0  0  0  0  0  0
   -2.3542   -0.8747    2.1455 H   0  0  0  0  0  0  0  0  0  0  0  0
   -2.1717    0.7358    2.8358 H   0  0  0  0  0  0  0  0  0  0  0  0
    0.1567   -1.1684    2.1670 H   0  0  0  0  0  0  0  0  0  0  0  0
    0.3392    0.4421    2.8573 H   0  0  0  0  0  0  0  0  0  0  0  0
  1  2  1  0
  1  6  1  0
  1  7  1  0
  1  8  1  0
  2  3  1  0
  2  4  1  0
  2  9  1  0
  3 10  1  0
  3 11  1  0
  3 12  1  0
  4  5  1  0
  4 14  1  0
  5 15  1  0
 13 17  1  0
 16 17  1  0
 16 18  1  0
 16 19  1  0
 16 20  1  0
 17 21  1  0
 17 22  1  0
M  RAD  1   4   2
M  END
>  <reaction>  (7) 
rxn_418

>  <mol_properties>  (7) 
{"1": {"label": "*0", "atom_type": "Cs"}, "3": {"label": "*1", "atom_type": "Cs"}, "12": {"label": "*2", "atom_type": "H0"}, "15": {"label": "*4", "atom_type": "Cs"}, "16": {"label": "*3", "atom_type": "Cs"}}

>  <type>  (7) 
unop_3

>  <geom_source>  (7) 
Heuristics

$$$$

     RDKit          3D

 22 20  0  0  0  0  0  0  0  0999 V2000
    0.5099    0.5033   -2.4837 C   0  0  0  0  0  0  0  0  0  0  0  0
    0.5099    0.5033   -0.9596 C   0  0  0  0  0  0  0  0  0  0  0  0
    0.5099    1.9221   -0.3997 C   0  0  0  0  0  0  0  0  0  0  0  0
   -0.6776   -0.2771   -0.4027 C   0  0  0  0  0  3  0  0  0  0  0  0
   -0.7164   -1.6283   -0.8144 O   0  0  0  0  0  0  0  0  0  0  0  0
    1.3996    0.9999   -2.8758 H   0  0  0  0  0  0  0  0  0  0  0  0
   -0.3664    1.0360   -2.8642 H   0  0  0  0  0  0  0  0  0  0  0  0
    0.4795   -0.5126   -2.8774 H   0  0  0  0  0  0  0  0  0  0  0  0
    1.4228    0.0008   -0.6132 H   0  0  0  0  0  0  0  0  0  0  0  0
   -0.3934    2.4571   -0.7060 H   0  0  0  0  0  0  0  0  0  0  0  0
    1.3685    2.4868   -0.7667 H   0  0  0  0  0  0  0  0  0  0  0  0
    0.5472    1.9245    0.6918 H   0  0  0  0  0  0  0  0  0  0  0  0
   -0.6838   -0.1912    0.9123 H   0  0  0  0  0  0  0  0  0  0  0  0
   -1.6088    0.1689   -0.7624 H   0  0  0  0  0  0  0  0  0  0  0  0
    0.0663   -2.0692   -0.4801 H   0  0  0  0  0  0  0  0  0  0  0  0
    0.5885   -0.6787    2.8161 C   0  0  0  0  0  0  0  0  0  0  0  0
   -0.6899   -0.1058    2.2192 C   0  0  0  0  0  0  0  0  0  0  0  0
    0.4038   -1.1220    3.7962 H   0  0  0  0  0  0  0  0  0  0  0  0
    1.3482    0.0949    2.9413 H   0  0  0  0  0  0  0  0  0  0  0  0
    1.0105   -1.4557    2.1763 H   0  0  0  0  0  0  0  0  0  0  0  0
   -1.1120    0.6712    2.8590 H   0  0  0  0  0  0  0  0  0  0  0  0
   -1.4496   -0.8794    2.0940 H   0  0  0  0  0  0  0  0  0  0  0  0
  1  2  1  0
  1  6  1  0
  1  7  1  0
  1  8  1  0
  2  3  1  0
  2  4  1  0
  2  9  1  0
  3 10  1  0
  3 11  1  0
  3 12  1  0
  4  5  1  0
  4 14  1  0
  5 15  1  0
 13 17  1  0
 16 17  1  0
 16 18  1  0
 16 19  1  0
 16 20  1  0
 17 21  1  0
 17 22  1  0
M  RAD  1   4   2
M  END
>  <reaction>  (8) 
rxn_418

>  <mol_properties>  (8) 
{"1": {"label": "*0", "atom_type": "Cs"}, "3": {"label": "*1", "atom_type": "Cs"}, "12": {"label": "*2", "atom_type": "H0"}, "15": {"label": "*4", "atom_type": "Cs"}, "16": {"label": "*3", "atom_type": "Cs"}}

>  <type>  (8) 
unop_4

>  <geom_source>  (8) 
Heuristics

$$$$

     RDKit          3D

 22 20  0  0  0  0  0  0  0  0999 V2000
    0.8651    0.5265   -2.4850 C   0  0  0  0  0  0  0  0  0  0  0  0
    0.8651    0.5265   -0.9609 C   0  0  0  0  0  0  0  0  0  0  0  0
    0.8651    1.9453   -0.4010 C   0  0  0  0  0  0  0  0  0  0  0  0
   -0.3224   -0.2538   -0.4039 C   0  0  0  0  0  3  0  0  0  0  0  0
   -0.3612   -1.6051   -0.8156 O   0  0  0  0  0  0  0  0  0  0  0  0
    1.7549    1.0231   -2.8770 H   0  0  0  0  0  0  0  0  0  0  0  0
   -0.0111    1.0592   -2.8655 H   0  0  0  0  0  0  0  0  0  0  0  0
    0.8347   -0.4894   -2.8787 H   0  0  0  0  0  0  0  0  0  0  0  0
    1.7780    0.0241   -0.6144 H   0  0  0  0  0  0  0  0  0  0  0  0
   -0.0381    2.4803   -0.7072 H   0  0  0  0  0  0  0  0  0  0  0  0
    1.7237    2.5100   -0.7679 H   0  0  0  0  0  0  0  0  0  0  0  0
    0.9024    1.9477    0.6905 H   0  0  0  0  0  0  0  0  0  0  0  0
   -0.3285   -0.1679    0.9110 H   0  0  0  0  0  0  0  0  0  0  0  0
   -1.2536    0.1921   -0.7637 H   0  0  0  0  0  0  0  0  0  0  0  0
    0.4215   -2.0459   -0.4813 H   0  0  0  0  0  0  0  0  0  0  0  0
   -1.5065   -0.8494    2.8160 C   0  0  0  0  0  0  0  0  0  0  0  0
   -0.3347   -0.0826    2.2180 C   0  0  0  0  0  0  0  0  0  0  0  0
   -1.5117   -0.7782    3.9051 H   0  0  0  0  0  0  0  0  0  0  0  0
   -1.4618   -1.9080    2.5543 H   0  0  0  0  0  0  0  0  0  0  0  0
   -2.4600   -0.4598    2.4550 H   0  0  0  0  0  0  0  0  0  0  0  0
    0.6188   -0.4721    2.5790 H   0  0  0  0  0  0  0  0  0  0  0  0
   -0.3794    0.9761    2.4797 H   0  0  0  0  0  0  0  0  0  0  0  0
  1  2  1  0
  1  6  1  0
  1  7  1  0
  1  8  1  0
  2  3  1  0
  2  4  1  0
  2  9  1  0
  3 10  1  0
  3 11  1  0
  3 12  1  0
  4  5  1  0
  4 14  1  0
  5 15  1  0
 13 17  1  0
 16 17  1  0
 16 18  1  0
 16 19  1  0
 16 20  1  0
 17 21  1  0
 17 22  1  0
M  RAD  1   4   2
M  END
>  <reaction>  (9) 
rxn_418

>  <mol_properties>  (9) 
{"1": {"label": "*0", "atom_type": "Cs"}, "3": {"label": "*1", "atom_type": "Cs"}, "12": {"label": "*2", "atom_type": "H0"}, "15": {"label": "*4", "atom_type": "Cs"}, "16": {"label": "*3", "atom_type": "Cs"}}

>  <type>  (9) 
unop_5

>  <geom_source>  (9) 
Heuristics

$$$$

     RDKit          3D

 22 20  0  0  0  0  0  0  0  0999 V2000
    0.5823    0.5839   -2.4880 C   0  0  0  0  0  0  0  0  0  0  0  0
    0.5823    0.5839   -0.9638 C   0  0  0  0  0  0  0  0  0  0  0  0
    0.5823    2.0027   -0.4039 C   0  0  0  0  0  0  0  0  0  0  0  0
   -0.6052   -0.1965   -0.4069 C   0  0  0  0  0  3  0  0  0  0  0  0
   -0.6440   -1.5477   -0.8186 O   0  0  0  0  0  0  0  0  0  0  0  0
    1.4720    1.0805   -2.8800 H   0  0  0  0  0  0  0  0  0  0  0  0
   -0.2939    1.1166   -2.8684 H   0  0  0  0  0  0  0  0  0  0  0  0
    0.5519   -0.4320   -2.8816 H   0  0  0  0  0  0  0  0  0  0  0  0
    1.4952    0.0814   -0.6174 H   0  0  0  0  0  0  0  0  0  0  0  0
   -0.3209    2.5377   -0.7102 H   0  0  0  0  0  0  0  0  0  0  0  0
    1.4409    2.5674   -0.7709 H   0  0  0  0  0  0  0  0  0  0  0  0
    0.6196    2.0051    0.6876 H   0  0  0  0  0  0  0  0  0  0  0  0
   -0.6113   -0.1106    0.9081 H   0  0  0  0  0  0  0  0  0  0  0  0
   -1.5364    0.2495   -0.7666 H   0  0  0  0  0  0  0  0  0  0  0  0
    0.1387   -1.9886   -0.4843 H   0  0  0  0  0  0  0  0  0  0  0  0
    0.1841   -1.1558    2.8461 C   0  0  0  0  0  0  0  0  0  0  0  0
   -0.6175   -0.0252    2.2150 C   0  0  0  0  0  0  0  0  0  0  0  0
   -0.3038   -1.5319    3.7470 H   0  0  0  0  0  0  0  0  0  0  0  0
    1.1848   -0.8227    3.1269 H   0  0  0  0  0  0  0  0  0  0  0  0
    0.2963   -1.9943    2.1565 H   0  0  0  0  0  0  0  0  0  0  0  0
   -0.7297    0.8133    2.9045 H   0  0  0  0  0  0  0  0  0  0  0  0
   -1.6182   -0.3583    1.9342 H   0  0  0  0  0  0  0  0  0  0  0  0
  1  2  1  0
  1  6  1  0
  1  7  1  0
  1  8  1  0
  2  3  1  0
  2  4  1  0
  2  9  1  0
  3 10  1  0
  3 11  1  0
  3 12  1  0
  4  5  1  0
  4 14  1  0
  5 15  1  0
 13 17  1  0
 16 17  1  0
 16 18  1  0
 16 19  1  0
 16 20  1  0
 17 21  1  0
 17 22  1  0
M  RAD  1   4   2
M  END
>  <reaction>  (10) 
rxn_418

>  <mol_properties>  (10) 
{"1": {"label": "*0", "atom_type": "Cs"}, "3": {"label": "*1", "atom_type": "Cs"}, "12": {"label": "*2", "atom_type": "H0"}, "15": {"label": "*4", "atom_type": "Cs"}, "16": {"label": "*3", "atom_type": "Cs"}}

>  <type>  (10) 
unop_6

>  <geom_source>  (10) 
Heuristics

$$$$

     RDKit          3D

 22 20  0  0  0  0  0  0  0  0999 V2000
    0.6848    0.6167   -2.4896 C   0  0  0  0  0  0  0  0  0  0  0  0
    0.6848    0.6167   -0.9654 C   0  0  0  0  0  0  0  0  0  0  0  0
    0.6848    2.0355   -0.4056 C   0  0  0  0  0  0  0  0  0  0  0  0
   -0.5027   -0.1637   -0.4085 C   0  0  0  0  0  3  0  0  0  0  0  0
   -0.5415   -1.5149   -0.8202 O   0  0  0  0  0  0  0  0  0  0  0  0
    1.5745    1.1133   -2.8816 H   0  0  0  0  0  0  0  0  0  0  0  0
   -0.1915    1.1494   -2.8701 H   0  0  0  0  0  0  0  0  0  0  0  0
    0.6544   -0.3992   -2.8832 H   0  0  0  0  0  0  0  0  0  0  0  0
    1.5976    0.1142   -0.6190 H   0  0  0  0  0  0  0  0  0  0  0  0
   -0.2185    2.5705   -0.7118 H   0  0  0  0  0  0  0  0  0  0  0  0
    1.5433    2.6002   -0.7725 H   0  0  0  0  0  0  0  0  0  0  0  0
    0.7221    2.0379    0.6860 H   0  0  0  0  0  0  0  0  0  0  0  0
   -0.5089   -0.0778    0.9065 H   0  0  0  0  0  0  0  0  0  0  0  0
   -1.4339    0.2823   -0.7682 H   0  0  0  0  0  0  0  0  0  0  0  0
    0.2411   -1.9557   -0.4859 H   0  0  0  0  0  0  0  0  0  0  0  0
   -0.4059   -1.3680    2.8572 C   0  0  0  0  0  0  0  0  0  0  0  0
   -0.5151    0.0076    2.2134 C   0  0  0  0  0  0  0  0  0  0  0  0
   -1.0524   -1.4477    3.7330 H   0  0  0  0  0  0  0  0  0  0  0  0
    0.6159   -1.5736    3.1811 H   0  0  0  0  0  0  0  0  0  0  0  0
   -0.6961   -2.1557    2.1597 H   0  0  0  0  0  0  0  0  0  0  0  0
   -0.2249    0.7953    2.9109 H   0  0  0  0  0  0  0  0  0  0  0  0
   -1.5369    0.2131    1.8895 H   0  0  0  0  0  0  0  0  0  0  0  0
  1  2  1  0
  1  6  1  0
  1  7  1  0
  1  8  1  0
  2  3  1  0
  2  4  1  0
  2  9  1  0
  3 10  1  0
  3 11  1  0
  3 12  1  0
  4  5  1  0
  4 14  1  0
  5 15  1  0
 13 17  1  0
 16 17  1  0
 16 18  1  0
 16 19  1  0
 16 20  1  0
 17 21  1  0
 17 22  1  0
M  RAD  1   4   2
M  END
>  <reaction>  (11) 
rxn_418

>  <mol_properties>  (11) 
{"1": {"label": "*0", "atom_type": "Cs"}, "3": {"label": "*1", "atom_type": "Cs"}, "12": {"label": "*2", "atom_type": "H0"}, "15": {"label": "*4", "atom_type": "Cs"}, "16": {"label": "*3", "atom_type": "Cs"}}

>  <type>  (11) 
unop_7

>  <geom_source>  (11) 
Heuristics

$$$$

     RDKit          3D

 22 20  0  0  0  0  0  0  0  0999 V2000
    0.8176    0.2426   -2.4646 C   0  0  0  0  0  0  0  0  0  0  0  0
    0.8176    0.2426   -0.9404 C   0  0  0  0  0  0  0  0  0  0  0  0
    0.8176    1.6614   -0.3805 C   0  0  0  0  0  0  0  0  0  0  0  0
   -0.3699   -0.5377   -0.3835 C   0  0  0  0  0  3  0  0  0  0  0  0
   -0.4087   -1.8890   -0.7952 O   0  0  0  0  0  0  0  0  0  0  0  0
    1.7073    0.7392   -2.8566 H   0  0  0  0  0  0  0  0  0  0  0  0
   -0.0587    0.7753   -2.8450 H   0  0  0  0  0  0  0  0  0  0  0  0
    0.7872   -0.7733   -2.8582 H   0  0  0  0  0  0  0  0  0  0  0  0
    1.7305   -0.2598   -0.5940 H   0  0  0  0  0  0  0  0  0  0  0  0
   -0.0857    2.1964   -0.6868 H   0  0  0  0  0  0  0  0  0  0  0  0
    1.6762    2.2261   -0.7475 H   0  0  0  0  0  0  0  0  0  0  0  0
    0.8549    1.6638    0.7110 H   0  0  0  0  0  0  0  0  0  0  0  0
   -0.3761   -0.4518    0.9315 H   0  0  0  0  0  0  0  0  0  0  0  0
   -1.3011   -0.0918   -0.7432 H   0  0  0  0  0  0  0  0  0  0  0  0
    0.3740   -2.3298   -0.4609 H   0  0  0  0  0  0  0  0  0  0  0  0
   -1.1890    0.8361    2.7095 C   0  0  0  0  0  0  0  0  0  0  0  0
   -0.3822   -0.3665    2.2384 C   0  0  0  0  0  0  0  0  0  0  0  0
   -1.7715    0.5972    3.6010 H   0  0  0  0  0  0  0  0  0  0  0  0
   -1.8859    1.1715    1.9395 H   0  0  0  0  0  0  0  0  0  0  0  0
   -0.5385    1.6773    2.9555 H   0  0  0  0  0  0  0  0  0  0  0  0
   -1.0327   -1.2077    1.9924 H   0  0  0  0  0  0  0  0  0  0  0  0
    0.3147   -0.7019    3.0084 H   0  0  0  0  0  0  0  0  0  0  0  0
  1  2  1  0
  1  6  1  0
  1  7  1  0
  1  8  1  0
  2  3  1  0
  2  4  1  0
  2  9  1  0
  3 10  1  0
  3 11  1  0
  3 12  1  0
  4  5  1  0
  4 14  1  0
  5 15  1  0
 13 17  1  0
 16 17  1  0
 16 18  1  0
 16 19  1  0
 16 20  1  0
 17 21  1  0
 17 22  1  0
M  RAD  1   4   2
M  END
>  <reaction>  (12) 
rxn_418

>  <mol_properties>  (12) 
{"1": {"label": "*0", "atom_type": "Cs"}, "3": {"label": "*1", "atom_type": "Cs"}, "12": {"label": "*2", "atom_type": "H0"}, "15": {"label": "*4", "atom_type": "Cs"}, "16": {"label": "*3", "atom_type": "Cs"}}

>  <type>  (12) 
unop_8

>  <geom_source>  (12) 
Heuristics

$$$$

     RDKit          3D

 22 20  0  0  0  0  0  0  0  0999 V2000
    0.4882    0.3964   -2.4778 C   0  0  0  0  0  0  0  0  0  0  0  0
    0.4882    0.3964   -0.9537 C   0  0  0  0  0  0  0  0  0  0  0  0
    0.4882    1.8151   -0.3938 C   0  0  0  0  0  0  0  0  0  0  0  0
   -0.6993   -0.3840   -0.3967 C   0  0  0  0  0  3  0  0  0  0  0  0
   -0.7381   -1.7353   -0.8085 O   0  0  0  0  0  0  0  0  0  0  0  0
    1.3779    0.8929   -2.8699 H   0  0  0  0  0  0  0  0  0  0  0  0
   -0.3880    0.9291   -2.8583 H   0  0  0  0  0  0  0  0  0  0  0  0
    0.4578   -0.6196   -2.8715 H   0  0  0  0  0  0  0  0  0  0  0  0
    1.4011   -0.1061   -0.6072 H   0  0  0  0  0  0  0  0  0  0  0  0
   -0.4150    2.3501   -0.7000 H   0  0  0  0  0  0  0  0  0  0  0  0
    1.3468    2.3798   -0.7607 H   0  0  0  0  0  0  0  0  0  0  0  0
    0.5255    1.8175    0.6977 H   0  0  0  0  0  0  0  0  0  0  0  0
   -0.7054   -0.2981    0.9182 H   0  0  0  0  0  0  0  0  0  0  0  0
   -1.6305    0.0619   -0.7565 H   0  0  0  0  0  0  0  0  0  0  0  0
    0.0446   -2.1761   -0.4741 H   0  0  0  0  0  0  0  0  0  0  0  0
    0.7005   -0.0648    2.7756 C   0  0  0  0  0  0  0  0  0  0  0  0
   -0.7116   -0.2128    2.2252 C   0  0  0  0  0  0  0  0  0  0  0  0
    0.7385   -0.3087    3.8387 H   0  0  0  0  0  0  0  0  0  0  0  0
    1.0663    0.9567    2.6577 H   0  0  0  0  0  0  0  0  0  0  0  0
    1.3979   -0.7271    2.2596 H   0  0  0  0  0  0  0  0  0  0  0  0
   -1.4090    0.4495    2.7412 H   0  0  0  0  0  0  0  0  0  0  0  0
   -1.0774   -1.2343    2.3430 H   0  0  0  0  0  0  0  0  0  0  0  0
  1  2  1  0
  1  6  1  0
  1  7  1  0
  1  8  1  0
  2  3  1  0
  2  4  1  0
  2  9  1  0
  3 10  1  0
  3 11  1  0
  3 12  1  0
  4  5  1  0
  4 14  1  0
  5 15  1  0
 13 17  1  0
 16 17  1  0
 16 18  1  0
 16 19  1  0
 16 20  1  0
 17 21  1  0
 17 22  1  0
M  RAD  1   4   2
M  END
>  <reaction>  (13) 
rxn_418

>  <mol_properties>  (13) 
{"1": {"label": "*0", "atom_type": "Cs"}, "3": {"label": "*1", "atom_type": "Cs"}, "12": {"label": "*2", "atom_type": "H0"}, "15": {"label": "*4", "atom_type": "Cs"}, "16": {"label": "*3", "atom_type": "Cs"}}

>  <type>  (13) 
unop_9

>  <geom_source>  (13) 
Heuristics

$$$$

     RDKit          3D

 22 20  0  0  0  0  0  0  0  0999 V2000
    0.7163    0.2039   -2.4632 C   0  0  0  0  0  0  0  0  0  0  0  0
    0.7163    0.2039   -0.9391 C   0  0  0  0  0  0  0  0  0  0  0  0
    0.7163    1.6226   -0.3792 C   0  0  0  0  0  0  0  0  0  0  0  0
   -0.4712   -0.5765   -0.3822 C   0  0  0  0  0  3  0  0  0  0  0  0
   -0.5100   -1.9277   -0.7939 O   0  0  0  0  0  0  0  0  0  0  0  0
    1.6060    0.7004   -2.8553 H   0  0  0  0  0  0  0  0  0  0  0  0
   -0.1599    0.7366   -2.8437 H   0  0  0  0  0  0  0  0  0  0  0  0
    0.6859   -0.8121   -2.8569 H   0  0  0  0  0  0  0  0  0  0  0  0
    1.6292   -0.2986   -0.5926 H   0  0  0  0  0  0  0  0  0  0  0  0
   -0.1870    2.1576   -0.6854 H   0  0  0  0  0  0  0  0  0  0  0  0
    1.5749    2.1873   -0.7462 H   0  0  0  0  0  0  0  0  0  0  0  0
    0.7536    1.6251    0.7123 H   0  0  0  0  0  0  0  0  0  0  0  0
   -0.4774   -0.4906    0.9328 H   0  0  0  0  0  0  0  0  0  0  0  0
   -1.4024   -0.1305   -0.7419 H   0  0  0  0  0  0  0  0  0  0  0  0
    0.2727   -2.3686   -0.4596 H   0  0  0  0  0  0  0  0  0  0  0  0
   -0.5979    1.0424    2.6981 C   0  0  0  0  0  0  0  0  0  0  0  0
   -0.4835   -0.4053    2.2397 C   0  0  0  0  0  0  0  0  0  0  0  0
   -1.1395    1.1169    3.6427 H   0  0  0  0  0  0  0  0  0  0  0  0
   -1.1299    1.6494    1.9634 H   0  0  0  0  0  0  0  0  0  0  0  0
    0.3866    1.4898    2.8457 H   0  0  0  0  0  0  0  0  0  0  0  0
   -1.4680   -0.8527    2.0922 H   0  0  0  0  0  0  0  0  0  0  0  0
    0.0485   -1.0123    2.9744 H   0  0  0  0  0  0  0  0  0  0  0  0
  1  2  1  0
  1  6  1  0
  1  7  1  0
  1  8  1  0
  2  3  1  0
  2  4  1  0
  2  9  1  0
  3 10  1  0
  3 11  1  0
  3 12  1  0
  4  5  1  0
  4 14  1  0
  5 15  1  0
 13 17  1  0
 16 17  1  0
 16 18  1  0
 16 19  1  0
 16 20  1  0
 17 21  1  0
 17 22  1  0
M  RAD  1   4   2
M  END
>  <reaction>  (14) 
rxn_418

>  <mol_properties>  (14) 
{"1": {"label": "*0", "atom_type": "Cs"}, "3": {"label": "*1", "atom_type": "Cs"}, "12": {"label": "*2", "atom_type": "H0"}, "15": {"label": "*4", "atom_type": "Cs"}, "16": {"label": "*3", "atom_type": "Cs"}}

>  <type>  (14) 
unop_10

>  <geom_source>  (14) 
Heuristics

$$$$

     RDKit          3D

 22 20  0  0  0  0  0  0  0  0999 V2000
    0.7883    0.5943   -2.4886 C   0  0  0  0  0  0  0  0  0  0  0  0
    0.7883    0.5943   -0.9645 C   0  0  0  0  0  0  0  0  0  0  0  0
    0.7883    2.0130   -0.4046 C   0  0  0  0  0  0  0  0  0  0  0  0
   -0.3992   -0.1861   -0.4076 C   0  0  0  0  0  3  0  0  0  0  0  0
   -0.4380   -1.5373   -0.8193 O   0  0  0  0  0  0  0  0  0  0  0  0
    1.6780    1.0908   -2.8807 H   0  0  0  0  0  0  0  0  0  0  0  0
   -0.0880    1.1270   -2.8691 H   0  0  0  0  0  0  0  0  0  0  0  0
    0.7579   -0.4217   -2.8823 H   0  0  0  0  0  0  0  0  0  0  0  0
    1.7011    0.0918   -0.6180 H   0  0  0  0  0  0  0  0  0  0  0  0
   -0.1150    2.5481   -0.7108 H   0  0  0  0  0  0  0  0  0  0  0  0
    1.6468    2.5777   -0.7716 H   0  0  0  0  0  0  0  0  0  0  0  0
    0.8256    2.0155    0.6869 H   0  0  0  0  0  0  0  0  0  0  0  0
   -0.4054   -0.1002    0.9074 H   0  0  0  0  0  0  0  0  0  0  0  0
   -1.3304    0.2599   -0.7673 H   0  0  0  0  0  0  0  0  0  0  0  0
    0.3446   -1.9782   -0.4850 H   0  0  0  0  0  0  0  0  0  0  0  0
   -1.0247   -1.2574    2.8461 C   0  0  0  0  0  0  0  0  0  0  0  0
   -0.4116   -0.0148    2.2143 C   0  0  0  0  0  0  0  0  0  0  0  0
   -1.4925   -1.0245    3.8043 H   0  0  0  0  0  0  0  0  0  0  0  0
   -0.2691   -2.0243    3.0251 H   0  0  0  0  0  0  0  0  0  0  0  0
   -1.7907   -1.6922    2.2016 H   0  0  0  0  0  0  0  0  0  0  0  0
    0.3544    0.4200    2.8588 H   0  0  0  0  0  0  0  0  0  0  0  0
   -1.1671    0.7521    2.0353 H   0  0  0  0  0  0  0  0  0  0  0  0
  1  2  1  0
  1  6  1  0
  1  7  1  0
  1  8  1  0
  2  3  1  0
  2  4  1  0
  2  9  1  0
  3 10  1  0
  3 11  1  0
  3 12  1  0
  4  5  1  0
  4 14  1  0
  5 15  1  0
 13 17  1  0
 16 17  1  0
 16 18  1  0
 16 19  1  0
 16 20  1  0
 17 21  1  0
 17 22  1  0
M  RAD  1   4   2
M  END
>  <reaction>  (15) 
rxn_418

>  <mol_properties>  (15) 
{"1": {"label": "*0", "atom_type": "Cs"}, "3": {"label": "*1", "atom_type": "Cs"}, "12": {"label": "*2", "atom_type": "H0"}, "15": {"label": "*4", "atom_type": "Cs"}, "16": {"label": "*3", "atom_type": "Cs"}}

>  <type>  (15) 
unop_11

>  <geom_source>  (15) 
Heuristics

$$$$

     RDKit          3D

 22 20  0  0  0  0  0  0  0  0999 V2000
    0.5244    0.2926   -2.4713 C   0  0  0  0  0  0  0  0  0  0  0  0
    0.5244    0.2926   -0.9472 C   0  0  0  0  0  0  0  0  0  0  0  0
    0.5244    1.7114   -0.3873 C   0  0  0  0  0  0  0  0  0  0  0  0
   -0.6631   -0.4878   -0.3902 C   0  0  0  0  0  3  0  0  0  0  0  0
   -0.7019   -1.8390   -0.8020 O   0  0  0  0  0  0  0  0  0  0  0  0
    1.4141    0.7892   -2.8634 H   0  0  0  0  0  0  0  0  0  0  0  0
   -0.3518    0.8253   -2.8518 H   0  0  0  0  0  0  0  0  0  0  0  0
    0.4940   -0.7233   -2.8650 H   0  0  0  0  0  0  0  0  0  0  0  0
    1.4373   -0.2099   -0.6007 H   0  0  0  0  0  0  0  0  0  0  0  0
   -0.3789    2.2464   -0.6935 H   0  0  0  0  0  0  0  0  0  0  0  0
    1.3830    2.2760   -0.7543 H   0  0  0  0  0  0  0  0  0  0  0  0
    0.5617    1.7138    0.7042 H   0  0  0  0  0  0  0  0  0  0  0  0
   -0.6693   -0.4019    0.9247 H   0  0  0  0  0  0  0  0  0  0  0  0
   -1.5943   -0.0418   -0.7500 H   0  0  0  0  0  0  0  0  0  0  0  0
    0.0808   -2.2799   -0.4677 H   0  0  0  0  0  0  0  0  0  0  0  0
    0.4913    0.5223    2.7358 C   0  0  0  0  0  0  0  0  0  0  0  0
   -0.6754   -0.3165    2.2316 C   0  0  0  0  0  0  0  0  0  0  0  0
    0.4862    0.5934    3.8249 H   0  0  0  0  0  0  0  0  0  0  0  0
    0.4496    1.5378    2.3382 H   0  0  0  0  0  0  0  0  0  0  0  0
    1.4479    0.0897    2.4375 H   0  0  0  0  0  0  0  0  0  0  0  0
   -1.6320    0.1161    2.5300 H   0  0  0  0  0  0  0  0  0  0  0  0
   -0.6338   -1.3321    2.6292 H   0  0  0  0  0  0  0  0  0  0  0  0
  1  2  1  0
  1  6  1  0
  1  7  1  0
  1  8  1  0
  2  3  1  0
  2  4  1  0
  2  9  1  0
  3 10  1  0
  3 11  1  0
  3 12  1  0
  4  5  1  0
  4 14  1  0
  5 15  1  0
 13 17  1  0
 16 17  1  0
 16 18  1  0
 16 19  1  0
 16 20  1  0
 17 21  1  0
 17 22  1  0
M  RAD  1   4   2
M  END
>  <reaction>  (16) 
rxn_418

>  <mol_properties>  (16) 
{"1": {"label": "*0", "atom_type": "Cs"}, "3": {"label": "*1", "atom_type": "Cs"}, "12": {"label": "*2", "atom_type": "H0"}, "15": {"label": "*4", "atom_type": "Cs"}, "16": {"label": "*3", "atom_type": "Cs"}}

>  <type>  (16) 
unop_12

>  <geom_source>  (16) 
Heuristics

$$$$

     RDKit          3D

 22 20  0  0  0  0  0  0  0  0999 V2000
    0.1660    1.0987   -1.5855 O   0  0  0  0  0  0  0  0  0  0  0  0
   -1.5554   -0.1799   -0.4859 C   0  0  0  0  0  0  0  0  0  0  0  0
   -2.6158    0.9279   -0.4927 C   0  0  0  0  0  0  0  0  0  0  0  0
   -1.7806   -1.1350    0.6885 C   0  0  0  0  0  0  0  0  0  0  0  0
    1.9774   -0.5967    0.6985 C   0  0  0  0  0  0  0  0  0  0  0  0
    3.2190    0.1321    0.2162 C   0  0  0  0  0  0  0  0  0  0  0  0
   -0.1425    0.4067   -0.4122 C   0  0  0  0  0  3  0  0  0  0  0  0
   -1.6464   -0.7645   -1.4280 H   0  0  0  0  0  0  0  0  0  0  0  0
    2.1711   -1.6895    0.7328 H   0  0  0  0  0  0  0  0  0  0  0  0
    1.7035   -0.2429    1.7148 H   0  0  0  0  0  0  0  0  0  0  0  0
    1.0000   -0.3654   -0.1075 H   0  0  0  0  0  0  0  0  0  0  0  0
    3.0221    1.2241    0.1807 H   0  0  0  0  0  0  0  0  0  0  0  0
    3.4894   -0.2217   -0.8007 H   0  0  0  0  0  0  0  0  0  0  0  0
    4.0647   -0.0644    0.9083 H   0  0  0  0  0  0  0  0  0  0  0  0
   -2.4707    1.5944   -1.3692 H   0  0  0  0  0  0  0  0  0  0  0  0
   -3.6317    0.4837   -0.5633 H   0  0  0  0  0  0  0  0  0  0  0  0
   -2.5547    1.5364    0.4353 H   0  0  0  0  0  0  0  0  0  0  0  0
   -2.7864   -1.6012    0.6154 H   0  0  0  0  0  0  0  0  0  0  0  0
   -1.7055   -0.5931    1.6561 H   0  0  0  0  0  0  0  0  0  0  0  0
   -1.0209   -1.9456    0.6715 H   0  0  0  0  0  0  0  0  0  0  0  0
   -0.0300    1.0797    0.4659 H   0  0  0  0  0  0  0  0  0  0  0  0
    1.1274    0.9161   -1.7390 H   0  0  0  0  0  0  0  0  0  0  0  0
  1  7  1  0
  1 22  1  0
  2  3  1  0
  2  4  1  0
  2  7  1  0
  2  8  1  0
  3 15  1  0
  3 16  1  0
  3 17  1  0
  4 18  1  0
  4 19  1  0
  4 20  1  0
  5  6  1  0
  5  9  1  0
  5 10  1  0
  5 11  1  0
  6 12  1  0
  6 13  1  0
  6 14  1  0
  7 21  1  0
M  RAD  1   7   2
M  END
>  <reaction>  (17) 
rxn_418

>  <mol_properties>  (17) 
{"1": {"label": "*0", "atom_type": "Cs"}, "3": {"label": "*1", "atom_type": "Cs"}, "12": {"label": "*2", "atom_type": "H0"}, "15": {"label": "*4", "atom_type": "Cs"}, "16": {"label": "*3", "atom_type": "Cs"}}

>  <type>  (17) 
unop_13

>  <geom_source>  (17) 
AutoTST

$$$$
