
     RDKit          3D

  6  5  0  0  0  0  0  0  0  0999 V2000
    1.5050   -0.1493    0.2580 C   0  0  0  0  0  0  0  0  0  0  0  0
    0.3282   -0.0584    0.0516 C   0  0  0  0  0  0  0  0  0  0  0  0
   -1.0939    0.1069   -0.1804 C   0  0  0  0  0  0  0  0  0  0  0  0
   -1.8068   -0.7644   -0.5961 O   0  0  0  0  0  0  0  0  0  0  0  0
    2.5502   -0.2472    0.4359 H   0  0  0  0  0  0  0  0  0  0  0  0
   -1.4827    1.1125    0.0574 H   0  0  0  0  0  0  0  0  0  0  0  0
  1  2  3  0
  1  5  1  0
  2  3  1  0
  3  4  2  0
  3  6  1  0
M  END
>  <reaction>  (1) 
rxn_3223

>  <mol_properties>  (1) 
{"2": {"label": "donator", "atom_type": "CO"}, "5": {"label": "d_hydrogen", "atom_type": "H0"}}

>  <type>  (1) 
r1h

$$$$

     RDKit          3D

  7  6  0  0  0  0  0  0  0  0999 V2000
   -1.3059    0.5497   -0.1304 N   0  0  0  0  0  2  0  0  0  0  0  0
   -0.2700   -0.4288    0.0448 C   0  0  0  0  0  0  0  0  0  0  0  0
    1.1109    0.0669    0.0401 C   0  0  0  0  0  0  0  0  0  0  0  0
    2.1758    0.4925    0.0308 N   0  0  0  0  0  0  0  0  0  0  0  0
   -0.8815    1.4733   -0.2339 H   0  0  0  0  0  0  0  0  0  0  0  0
   -0.3767   -1.1909   -0.7373 H   0  0  0  0  0  0  0  0  0  0  0  0
   -0.4527   -0.9628    0.9858 H   0  0  0  0  0  0  0  0  0  0  0  0
  1  2  1  0
  1  5  1  0
  2  3  1  0
  2  6  1  0
  2  7  1  0
  3  4  3  0
M  RAD  1   1   2
M  END
>  <reaction>  (2) 
rxn_3223

>  <mol_properties>  (2) 
{"0": {"label": "acceptor", "atom_type": "N3s"}}

>  <type>  (2) 
r2

$$$$

     RDKit          3D

  8  7  0  0  0  0  0  0  0  0999 V2000
   -1.0805    0.5317    0.0204 N   0  0  0  0  0  0  0  0  0  0  0  0
   -0.1080   -0.5393    0.0956 C   0  0  0  0  0  0  0  0  0  0  0  0
    1.2945   -0.1247   -0.1005 C   0  0  0  0  0  0  0  0  0  0  0  0
    2.3714    0.2386   -0.2580 N   0  0  0  0  0  0  0  0  0  0  0  0
   -1.0516    0.9857   -0.8822 H   0  0  0  0  0  0  0  0  0  0  0  0
   -0.9009    1.2352    0.7235 H   0  0  0  0  0  0  0  0  0  0  0  0
   -0.3427   -1.2965   -0.6542 H   0  0  0  0  0  0  0  0  0  0  0  0
   -0.1810   -1.0288    1.0680 H   0  0  0  0  0  0  0  0  0  0  0  0
  1  2  1  0
  1  5  1  0
  1  6  1  0
  2  3  1  0
  2  7  1  0
  2  8  1  0
  3  4  3  0
M  END
>  <reaction>  (3) 
rxn_3223

>  <mol_properties>  (3) 
{"0": {"label": "acceptor", "atom_type": "N3s"}, "7": {"label": "a_hydrogen", "atom_type": "H0"}}

>  <type>  (3) 
r2h

$$$$

     RDKit          3D

 13 11  0  0  0  0  0  0  0  0999 V2000
    1.0147    1.0629    0.8681 N   0  0  0  0  0  2  0  0  0  0  0  0
   -0.1447    1.1522    1.7349 C   0  0  0  0  0  0  0  0  0  0  0  0
   -1.3882    1.5668    1.0727 C   0  0  0  0  0  0  0  0  0  0  0  0
   -2.3299    1.9020    0.5097 N   0  0  0  0  0  0  0  0  0  0  0  0
    0.9195    1.7496    0.1189 H   0  0  0  0  0  0  0  0  0  0  0  0
    0.0714    1.8677    2.5367 H   0  0  0  0  0  0  0  0  0  0  0  0
   -0.3101    0.1854    2.2169 H   0  0  0  0  0  0  0  0  0  0  0  0
    1.0368   -1.3957   -2.8563 C   0  0  0  0  0  0  0  0  0  0  0  0
    0.6838   -1.3519   -1.7112 C   0  0  0  0  0  0  0  0  0  0  0  0
    0.3397   -1.1625   -0.3315 C   0  0  0  0  0  0  0  0  0  0  0  0
   -0.3268   -1.8739    0.3538 O   0  0  0  0  0  0  0  0  0  0  0  0
    1.3343   -1.4602   -3.8770 H   0  0  0  0  0  0  0  0  0  0  0  0
    0.8124   -0.1170    0.1669 H   0  0  0  0  0  0  0  0  0  0  0  0
  1  2  1  0
  1  5  1  0
  2  3  1  0
  2  6  1  0
  2  7  1  0
  3  4  3  0
  8  9  3  0
  8 12  1  0
  9 10  1  0
 10 11  2  0
 10 13  1  0
M  RAD  1   1   2
M  END
>  <reaction>  (4) 
rxn_3223

>  <mol_properties>  (4) 
{"0": {"label": "*3", "atom_type": "N3s"}, "1": {"label": "*4", "atom_type": "Cs"}, "8": {"label": "*0", "atom_type": "Ct"}, "9": {"label": "*1", "atom_type": "CO"}, "12": {"label": "*2", "atom_type": "H0"}}

>  <type>  (4) 
ts

$$$$

     RDKit          3D

 13 11  0  0  0  0  0  0  0  0999 V2000
    0.7860    0.9543    0.7627 N   0  0  0  0  0  0  0  0  0  0  0  0
   -0.3848    1.1806    1.5852 C   0  0  0  0  0  0  0  0  0  0  0  0
   -1.4554    1.9687    0.9447 C   0  0  0  0  0  0  0  0  0  0  0  0
   -2.2633    2.5844    0.4110 N   0  0  0  0  0  0  0  0  0  0  0  0
    1.2135    1.8289    0.4910 H   0  0  0  0  0  0  0  0  0  0  0  0
   -0.0912    1.6949    2.5016 H   0  0  0  0  0  0  0  0  0  0  0  0
   -0.8081    0.2212    1.8867 H   0  0  0  0  0  0  0  0  0  0  0  0
    0.7860   -1.4533   -2.8437 C   0  0  0  0  0  0  0  0  0  0  0  0
    0.7860   -1.4533   -1.6455 C   0  0  0  0  0  0  0  0  0  0  0  0
    0.7860   -1.3953   -0.1963 C   0  0  0  0  0  3  0  0  0  0  0  0
    0.7860   -2.3660    0.5093 O   0  0  0  0  0  0  0  0  0  0  0  0
    0.7860   -1.4712   -3.9083 H   0  0  0  0  0  0  0  0  0  0  0  0
    0.7860   -0.1686    0.3043 H   0  0  0  0  0  0  0  0  0  0  0  0
  1  2  1  0
  1  5  1  0
  1 13  1  0
  2  3  1  0
  2  6  1  0
  2  7  1  0
  3  4  3  0
  8  9  3  0
  8 12  1  0
  9 10  1  0
 10 11  2  0
M  RAD  1  10   2
M  END
>  <reaction>  (5) 
rxn_3223

>  <mol_properties>  (5) 
{"0": {"label": "*3", "atom_type": "N3s"}, "1": {"label": "*4", "atom_type": "Cs"}, "8": {"label": "*0", "atom_type": "Ct"}, "9": {"label": "*1", "atom_type": "CO"}, "12": {"label": "*2", "atom_type": "H0"}}

>  <type>  (5) 
unop_1

>  <geom_source>  (5) 
Heuristics

$$$$

     RDKit          3D

 13 11  0  0  0  0  0  0  0  0999 V2000
   -0.0229    0.8102    1.5609 N   0  0  0  0  0  0  0  0  0  0  0  0
   -0.6989    1.7345    0.6736 C   0  0  0  0  0  0  0  0  0  0  0  0
    0.1003    2.1907   -0.4800 C   0  0  0  0  0  0  0  0  0  0  0  0
    0.7546    2.5209   -1.3628 N   0  0  0  0  0  0  0  0  0  0  0  0
    0.8112    1.2263    1.9516 H   0  0  0  0  0  0  0  0  0  0  0  0
   -1.0108    2.6159    1.2360 H   0  0  0  0  0  0  0  0  0  0  0  0
   -1.6086    1.2702    0.2897 H   0  0  0  0  0  0  0  0  0  0  0  0
   -0.0230   -1.5973   -2.0455 C   0  0  0  0  0  0  0  0  0  0  0  0
   -0.0230   -1.5973   -0.8473 C   0  0  0  0  0  0  0  0  0  0  0  0
   -0.0230   -1.5393    0.6019 C   0  0  0  0  0  3  0  0  0  0  0  0
   -0.0230   -2.5101    1.3075 O   0  0  0  0  0  0  0  0  0  0  0  0
   -0.0230   -1.6153   -3.1102 H   0  0  0  0  0  0  0  0  0  0  0  0
   -0.0229   -0.3127    1.1025 H   0  0  0  0  0  0  0  0  0  0  0  0
  1  2  1  0
  1  5  1  0
  1 13  1  0
  2  3  1  0
  2  6  1  0
  2  7  1  0
  3  4  3  0
  8  9  3  0
  8 12  1  0
  9 10  1  0
 10 11  2  0
M  RAD  1  10   2
M  END
>  <reaction>  (6) 
rxn_3223

>  <mol_properties>  (6) 
{"0": {"label": "*3", "atom_type": "N3s"}, "1": {"label": "*4", "atom_type": "Cs"}, "8": {"label": "*0", "atom_type": "Ct"}, "9": {"label": "*1", "atom_type": "CO"}, "12": {"label": "*2", "atom_type": "H0"}}

>  <type>  (6) 
unop_2

>  <geom_source>  (6) 
Heuristics

$$$$

     RDKit          3D

 13 11  0  0  0  0  0  0  0  0999 V2000
    0.7314    1.1865    0.4033 N   0  0  0  0  0  0  0  0  0  0  0  0
    0.0554    1.2258    1.6839 C   0  0  0  0  0  0  0  0  0  0  0  0
   -1.3884    1.5237    1.6194 C   0  0  0  0  0  0  0  0  0  0  0  0
   -2.5077    1.7580    1.5260 N   0  0  0  0  0  0  0  0  0  0  0  0
    0.6548    2.0735   -0.0751 H   0  0  0  0  0  0  0  0  0  0  0  0
    0.5256    1.9773    2.3200 H   0  0  0  0  0  0  0  0  0  0  0  0
    0.1784    0.2667    2.1894 H   0  0  0  0  0  0  0  0  0  0  0  0
    0.7313   -1.2211   -3.2031 C   0  0  0  0  0  0  0  0  0  0  0  0
    0.7313   -1.2211   -2.0049 C   0  0  0  0  0  0  0  0  0  0  0  0
    0.7313   -1.1631   -0.5558 C   0  0  0  0  0  3  0  0  0  0  0  0
    0.7313   -2.1338    0.1499 O   0  0  0  0  0  0  0  0  0  0  0  0
    0.7314   -1.2390   -4.2678 H   0  0  0  0  0  0  0  0  0  0  0  0
    0.7314    0.0636   -0.0551 H   0  0  0  0  0  0  0  0  0  0  0  0
  1  2  1  0
  1  5  1  0
  1 13  1  0
  2  3  1  0
  2  6  1  0
  2  7  1  0
  3  4  3  0
  8  9  3  0
  8 12  1  0
  9 10  1  0
 10 11  2  0
M  RAD  1  10   2
M  END
>  <reaction>  (7) 
rxn_3223

>  <mol_properties>  (7) 
{"0": {"label": "*3", "atom_type": "N3s"}, "1": {"label": "*4", "atom_type": "Cs"}, "8": {"label": "*0", "atom_type": "Ct"}, "9": {"label": "*1", "atom_type": "CO"}, "12": {"label": "*2", "atom_type": "H0"}}

>  <type>  (7) 
unop_3

>  <geom_source>  (7) 
Heuristics

$$$$

     RDKit          3D

 13 11  0  0  0  0  0  0  0  0999 V2000
   -0.8265    1.3161    1.1127 N   0  0  0  0  0  0  0  0  0  0  0  0
    0.3443    2.0533    0.6835 C   0  0  0  0  0  0  0  0  0  0  0  0
    1.5194    1.2234    0.3548 C   0  0  0  0  0  0  0  0  0  0  0  0
    2.4098    0.5428    0.1091 N   0  0  0  0  0  0  0  0  0  0  0  0
   -0.6306    0.7754    1.9439 H   0  0  0  0  0  0  0  0  0  0  0  0
    0.6374    2.7566    1.4646 H   0  0  0  0  0  0  0  0  0  0  0  0
    0.0964    2.6486   -0.1966 H   0  0  0  0  0  0  0  0  0  0  0  0
   -0.8265   -1.0915   -2.4937 C   0  0  0  0  0  0  0  0  0  0  0  0
   -0.8265   -1.0915   -1.2954 C   0  0  0  0  0  0  0  0  0  0  0  0
   -0.8265   -1.0335    0.1537 C   0  0  0  0  0  3  0  0  0  0  0  0
   -0.8265   -2.0042    0.8593 O   0  0  0  0  0  0  0  0  0  0  0  0
   -0.8265   -1.1095   -3.5583 H   0  0  0  0  0  0  0  0  0  0  0  0
   -0.8265    0.1931    0.6544 H   0  0  0  0  0  0  0  0  0  0  0  0
  1  2  1  0
  1  5  1  0
  1 13  1  0
  2  3  1  0
  2  6  1  0
  2  7  1  0
  3  4  3  0
  8  9  3  0
  8 12  1  0
  9 10  1  0
 10 11  2  0
M  RAD  1  10   2
M  END
>  <reaction>  (8) 
rxn_3223

>  <mol_properties>  (8) 
{"0": {"label": "*3", "atom_type": "N3s"}, "1": {"label": "*4", "atom_type": "Cs"}, "8": {"label": "*0", "atom_type": "Ct"}, "9": {"label": "*1", "atom_type": "CO"}, "12": {"label": "*2", "atom_type": "H0"}}

>  <type>  (8) 
unop_4

>  <geom_source>  (8) 
Heuristics

$$$$

     RDKit          3D

 13 11  0  0  0  0  0  0  0  0999 V2000
    0.3922    1.5419    0.1153 N   0  0  0  0  0  0  0  0  0  0  0  0
    0.3922    1.5127    1.5636 C   0  0  0  0  0  0  0  0  0  0  0  0
   -0.7643    0.8297    2.1748 C   0  0  0  0  0  0  0  0  0  0  0  0
   -1.6788    0.2906    2.6101 N   0  0  0  0  0  0  0  0  0  0  0  0
   -0.4265    2.0176   -0.2383 H   0  0  0  0  0  0  0  0  0  0  0  0
    0.4210    2.5336    1.9476 H   0  0  0  0  0  0  0  0  0  0  0  0
    1.2990    1.0197    1.9171 H   0  0  0  0  0  0  0  0  0  0  0  0
    0.3921   -0.8657   -3.4911 C   0  0  0  0  0  0  0  0  0  0  0  0
    0.3921   -0.8657   -2.2929 C   0  0  0  0  0  0  0  0  0  0  0  0
    0.3921   -0.8077   -0.8438 C   0  0  0  0  0  3  0  0  0  0  0  0
    0.3921   -1.7784   -0.1381 O   0  0  0  0  0  0  0  0  0  0  0  0
    0.3921   -0.8837   -4.5558 H   0  0  0  0  0  0  0  0  0  0  0  0
    0.3922    0.4189   -0.3431 H   0  0  0  0  0  0  0  0  0  0  0  0
  1  2  1  0
  1  5  1  0
  1 13  1  0
  2  3  1  0
  2  6  1  0
  2  7  1  0
  3  4  3  0
  8  9  3  0
  8 12  1  0
  9 10  1  0
 10 11  2  0
M  RAD  1  10   2
M  END
>  <reaction>  (9) 
rxn_3223

>  <mol_properties>  (9) 
{"0": {"label": "*3", "atom_type": "N3s"}, "1": {"label": "*4", "atom_type": "Cs"}, "8": {"label": "*0", "atom_type": "Ct"}, "9": {"label": "*1", "atom_type": "CO"}, "12": {"label": "*2", "atom_type": "H0"}}

>  <type>  (9) 
unop_5

>  <geom_source>  (9) 
Heuristics

$$$$

     RDKit          3D

 13 11  0  0  0  0  0  0  0  0999 V2000
   -0.8439    1.4841    0.7627 N   0  0  0  0  0  0  0  0  0  0  0  0
    0.5080    1.9658    0.9594 C   0  0  0  0  0  0  0  0  0  0  0  0
    1.5466    0.9181    0.9883 C   0  0  0  0  0  0  0  0  0  0  0  0
    2.3232    0.0735    1.0046 N   0  0  0  0  0  0  0  0  0  0  0  0
   -1.1142    0.8493    1.5014 H   0  0  0  0  0  0  0  0  0  0  0  0
    0.5634    2.5200    1.8976 H   0  0  0  0  0  0  0  0  0  0  0  0
    0.7622    2.6693    0.1650 H   0  0  0  0  0  0  0  0  0  0  0  0
   -0.8440   -0.9235   -2.8437 C   0  0  0  0  0  0  0  0  0  0  0  0
   -0.8440   -0.9235   -1.6454 C   0  0  0  0  0  0  0  0  0  0  0  0
   -0.8440   -0.8655   -0.1963 C   0  0  0  0  0  3  0  0  0  0  0  0
   -0.8440   -1.8362    0.5093 O   0  0  0  0  0  0  0  0  0  0  0  0
   -0.8440   -0.9414   -3.9083 H   0  0  0  0  0  0  0  0  0  0  0  0
   -0.8439    0.3612    0.3044 H   0  0  0  0  0  0  0  0  0  0  0  0
  1  2  1  0
  1  5  1  0
  1 13  1  0
  2  3  1  0
  2  6  1  0
  2  7  1  0
  3  4  3  0
  8  9  3  0
  8 12  1  0
  9 10  1  0
 10 11  2  0
M  RAD  1  10   2
M  END
>  <reaction>  (10) 
rxn_3223

>  <mol_properties>  (10) 
{"0": {"label": "*3", "atom_type": "N3s"}, "1": {"label": "*4", "atom_type": "Cs"}, "8": {"label": "*0", "atom_type": "Ct"}, "9": {"label": "*1", "atom_type": "CO"}, "12": {"label": "*2", "atom_type": "H0"}}

>  <type>  (10) 
unop_6

>  <geom_source>  (10) 
Heuristics

$$$$

     RDKit          3D

 13 11  0  0  0  0  0  0  0  0999 V2000
   -0.6600    1.6360    0.3958 N   0  0  0  0  0  0  0  0  0  0  0  0
    0.5108    1.8623    1.2183 C   0  0  0  0  0  0  0  0  0  0  0  0
    1.2099    0.6401    1.6598 C   0  0  0  0  0  0  0  0  0  0  0  0
    1.7240   -0.3339    1.9817 N   0  0  0  0  0  0  0  0  0  0  0  0
   -1.3504    1.0876    0.8900 H   0  0  0  0  0  0  0  0  0  0  0  0
    0.2265    2.4267    2.1077 H   0  0  0  0  0  0  0  0  0  0  0  0
    1.2254    2.4793    0.6713 H   0  0  0  0  0  0  0  0  0  0  0  0
   -0.6600   -0.7716   -3.2106 C   0  0  0  0  0  0  0  0  0  0  0  0
   -0.6600   -0.7716   -2.0123 C   0  0  0  0  0  0  0  0  0  0  0  0
   -0.6600   -0.7136   -0.5632 C   0  0  0  0  0  3  0  0  0  0  0  0
   -0.6601   -1.6843    0.1424 O   0  0  0  0  0  0  0  0  0  0  0  0
   -0.6600   -0.7896   -4.2752 H   0  0  0  0  0  0  0  0  0  0  0  0
   -0.6600    0.5130   -0.0625 H   0  0  0  0  0  0  0  0  0  0  0  0
  1  2  1  0
  1  5  1  0
  1 13  1  0
  2  3  1  0
  2  6  1  0
  2  7  1  0
  3  4  3  0
  8  9  3  0
  8 12  1  0
  9 10  1  0
 10 11  2  0
M  RAD  1  10   2
M  END
>  <reaction>  (11) 
rxn_3223

>  <mol_properties>  (11) 
{"0": {"label": "*3", "atom_type": "N3s"}, "1": {"label": "*4", "atom_type": "Cs"}, "8": {"label": "*0", "atom_type": "Ct"}, "9": {"label": "*1", "atom_type": "CO"}, "12": {"label": "*2", "atom_type": "H0"}}

>  <type>  (11) 
unop_7

>  <geom_source>  (11) 
Heuristics

$$$$

     RDKit          3D

 13 11  0  0  0  0  0  0  0  0999 V2000
    0.6574    0.8133    1.1238 N   0  0  0  0  0  0  0  0  0  0  0  0
   -0.6945    1.2951    1.3204 C   0  0  0  0  0  0  0  0  0  0  0  0
   -1.1830    2.2255    0.2846 C   0  0  0  0  0  0  0  0  0  0  0  0
   -1.5246    2.9454   -0.5411 N   0  0  0  0  0  0  0  0  0  0  0  0
    1.3171    1.5789    1.1087 H   0  0  0  0  0  0  0  0  0  0  0  0
   -0.7636    1.7999    2.2852 H   0  0  0  0  0  0  0  0  0  0  0  0
   -1.3801    0.4472    1.3610 H   0  0  0  0  0  0  0  0  0  0  0  0
    0.6574   -1.5943   -2.4827 C   0  0  0  0  0  0  0  0  0  0  0  0
    0.6574   -1.5943   -1.2844 C   0  0  0  0  0  0  0  0  0  0  0  0
    0.6574   -1.5363    0.1647 C   0  0  0  0  0  3  0  0  0  0  0  0
    0.6574   -2.5070    0.8704 O   0  0  0  0  0  0  0  0  0  0  0  0
    0.6574   -1.6123   -3.5473 H   0  0  0  0  0  0  0  0  0  0  0  0
    0.6574   -0.3097    0.6654 H   0  0  0  0  0  0  0  0  0  0  0  0
  1  2  1  0
  1  5  1  0
  1 13  1  0
  2  3  1  0
  2  6  1  0
  2  7  1  0
  3  4  3  0
  8  9  3  0
  8 12  1  0
  9 10  1  0
 10 11  2  0
M  RAD  1  10   2
M  END
>  <reaction>  (12) 
rxn_3223

>  <mol_properties>  (12) 
{"0": {"label": "*3", "atom_type": "N3s"}, "1": {"label": "*4", "atom_type": "Cs"}, "8": {"label": "*0", "atom_type": "Ct"}, "9": {"label": "*1", "atom_type": "CO"}, "12": {"label": "*2", "atom_type": "H0"}}

>  <type>  (12) 
unop_8

>  <geom_source>  (12) 
Heuristics

$$$$

     RDKit          3D

 13 11  0  0  0  0  0  0  0  0999 V2000
   -0.6650    1.1419    1.3824 N   0  0  0  0  0  0  0  0  0  0  0  0
    0.0110    2.0662    0.4950 C   0  0  0  0  0  0  0  0  0  0  0  0
    1.2405    1.5442   -0.1320 C   0  0  0  0  0  0  0  0  0  0  0  0
    2.1905    1.1008   -0.5985 N   0  0  0  0  0  0  0  0  0  0  0  0
   -0.0630    0.8656    2.1458 H   0  0  0  0  0  0  0  0  0  0  0  0
    0.2723    2.9720    1.0443 H   0  0  0  0  0  0  0  0  0  0  0  0
   -0.6701    2.3690   -0.3017 H   0  0  0  0  0  0  0  0  0  0  0  0
   -0.6650   -1.2656   -2.2241 C   0  0  0  0  0  0  0  0  0  0  0  0
   -0.6650   -1.2656   -1.0258 C   0  0  0  0  0  0  0  0  0  0  0  0
   -0.6650   -1.2076    0.4233 C   0  0  0  0  0  3  0  0  0  0  0  0
   -0.6650   -2.1784    1.1290 O   0  0  0  0  0  0  0  0  0  0  0  0
   -0.6650   -1.2836   -3.2887 H   0  0  0  0  0  0  0  0  0  0  0  0
   -0.6650    0.0190    0.9240 H   0  0  0  0  0  0  0  0  0  0  0  0
  1  2  1  0
  1  5  1  0
  1 13  1  0
  2  3  1  0
  2  6  1  0
  2  7  1  0
  3  4  3  0
  8  9  3  0
  8 12  1  0
  9 10  1  0
 10 11  2  0
M  RAD  1  10   2
M  END
>  <reaction>  (13) 
rxn_3223

>  <mol_properties>  (13) 
{"0": {"label": "*3", "atom_type": "N3s"}, "1": {"label": "*4", "atom_type": "Cs"}, "8": {"label": "*0", "atom_type": "Ct"}, "9": {"label": "*1", "atom_type": "CO"}, "12": {"label": "*2", "atom_type": "H0"}}

>  <type>  (13) 
unop_9

>  <geom_source>  (13) 
Heuristics

$$$$

     RDKit          3D

 13 11  0  0  0  0  0  0  0  0999 V2000
    0.3648    0.7578    1.4132 N   0  0  0  0  0  0  0  0  0  0  0  0
   -0.8060    1.4950    0.9840 C   0  0  0  0  0  0  0  0  0  0  0  0
   -0.6195    2.3116   -0.2308 C   0  0  0  0  0  0  0  0  0  0  0  0
   -0.4332    2.9329   -1.1773 N   0  0  0  0  0  0  0  0  0  0  0  0
    1.1327    1.3825    1.6171 H   0  0  0  0  0  0  0  0  0  0  0  0
   -1.1330    2.1572    1.7872 H   0  0  0  0  0  0  0  0  0  0  0  0
   -1.6258    0.7993    0.7988 H   0  0  0  0  0  0  0  0  0  0  0  0
    0.3648   -1.6498   -2.1932 C   0  0  0  0  0  0  0  0  0  0  0  0
    0.3648   -1.6498   -0.9949 C   0  0  0  0  0  0  0  0  0  0  0  0
    0.3648   -1.5918    0.4542 C   0  0  0  0  0  3  0  0  0  0  0  0
    0.3648   -2.5625    1.1598 O   0  0  0  0  0  0  0  0  0  0  0  0
    0.3648   -1.6677   -3.2578 H   0  0  0  0  0  0  0  0  0  0  0  0
    0.3648   -0.3652    0.9549 H   0  0  0  0  0  0  0  0  0  0  0  0
  1  2  1  0
  1  5  1  0
  1 13  1  0
  2  3  1  0
  2  6  1  0
  2  7  1  0
  3  4  3  0
  8  9  3  0
  8 12  1  0
  9 10  1  0
 10 11  2  0
M  RAD  1  10   2
M  END
>  <reaction>  (14) 
rxn_3223

>  <mol_properties>  (14) 
{"0": {"label": "*3", "atom_type": "N3s"}, "1": {"label": "*4", "atom_type": "Cs"}, "8": {"label": "*0", "atom_type": "Ct"}, "9": {"label": "*1", "atom_type": "CO"}, "12": {"label": "*2", "atom_type": "H0"}}

>  <type>  (14) 
unop_10

>  <geom_source>  (14) 
Heuristics

$$$$

     RDKit          3D

 13 11  0  0  0  0  0  0  0  0999 V2000
   -0.2246    1.7136    0.1196 N   0  0  0  0  0  0  0  0  0  0  0  0
    0.4514    1.7529    1.4002 C   0  0  0  0  0  0  0  0  0  0  0  0
    0.4006    0.4964    2.1723 C   0  0  0  0  0  0  0  0  0  0  0  0
    0.3381   -0.4985    2.7405 N   0  0  0  0  0  0  0  0  0  0  0  0
   -1.2059    1.5003    0.2334 H   0  0  0  0  0  0  0  0  0  0  0  0
    0.0185    2.5432    2.0155 H   0  0  0  0  0  0  0  0  0  0  0  0
    1.5004    2.0127    1.2496 H   0  0  0  0  0  0  0  0  0  0  0  0
   -0.2246   -0.6940   -3.4868 C   0  0  0  0  0  0  0  0  0  0  0  0
   -0.2246   -0.6940   -2.2886 C   0  0  0  0  0  0  0  0  0  0  0  0
   -0.2246   -0.6360   -0.8395 C   0  0  0  0  0  3  0  0  0  0  0  0
   -0.2246   -1.6067   -0.1338 O   0  0  0  0  0  0  0  0  0  0  0  0
   -0.2246   -0.7120   -4.5515 H   0  0  0  0  0  0  0  0  0  0  0  0
   -0.2246    0.5906   -0.3388 H   0  0  0  0  0  0  0  0  0  0  0  0
  1  2  1  0
  1  5  1  0
  1 13  1  0
  2  3  1  0
  2  6  1  0
  2  7  1  0
  3  4  3  0
  8  9  3  0
  8 12  1  0
  9 10  1  0
 10 11  2  0
M  RAD  1  10   2
M  END
>  <reaction>  (15) 
rxn_3223

>  <mol_properties>  (15) 
{"0": {"label": "*3", "atom_type": "N3s"}, "1": {"label": "*4", "atom_type": "Cs"}, "8": {"label": "*0", "atom_type": "Ct"}, "9": {"label": "*1", "atom_type": "CO"}, "12": {"label": "*2", "atom_type": "H0"}}

>  <type>  (15) 
unop_11

>  <geom_source>  (15) 
Heuristics

$$$$

     RDKit          3D

 13 11  0  0  0  0  0  0  0  0999 V2000
   -0.3921    0.9596    1.5418 N   0  0  0  0  0  0  0  0  0  0  0  0
   -0.3921    1.9523    0.4867 C   0  0  0  0  0  0  0  0  0  0  0  0
    0.7643    1.8920   -0.4278 C   0  0  0  0  0  0  0  0  0  0  0  0
    1.6789    1.8115   -1.1161 N   0  0  0  0  0  0  0  0  0  0  0  0
    0.4265    1.0520    2.1273 H   0  0  0  0  0  0  0  0  0  0  0  0
   -0.4210    2.9503    0.9268 H   0  0  0  0  0  0  0  0  0  0  0  0
   -1.2990    1.8475   -0.1108 H   0  0  0  0  0  0  0  0  0  0  0  0
   -0.3922   -1.4480   -2.0647 C   0  0  0  0  0  0  0  0  0  0  0  0
   -0.3922   -1.4480   -0.8664 C   0  0  0  0  0  0  0  0  0  0  0  0
   -0.3922   -1.3900    0.5827 C   0  0  0  0  0  3  0  0  0  0  0  0
   -0.3922   -2.3607    1.2884 O   0  0  0  0  0  0  0  0  0  0  0  0
   -0.3922   -1.4659   -3.1293 H   0  0  0  0  0  0  0  0  0  0  0  0
   -0.3921   -0.1633    1.0834 H   0  0  0  0  0  0  0  0  0  0  0  0
  1  2  1  0
  1  5  1  0
  1 13  1  0
  2  3  1  0
  2  6  1  0
  2  7  1  0
  3  4  3  0
  8  9  3  0
  8 12  1  0
  9 10  1  0
 10 11  2  0
M  RAD  1  10   2
M  END
>  <reaction>  (16) 
rxn_3223

>  <mol_properties>  (16) 
{"0": {"label": "*3", "atom_type": "N3s"}, "1": {"label": "*4", "atom_type": "Cs"}, "8": {"label": "*0", "atom_type": "Ct"}, "9": {"label": "*1", "atom_type": "CO"}, "12": {"label": "*2", "atom_type": "H0"}}

>  <type>  (16) 
unop_12

>  <geom_source>  (16) 
Heuristics

$$$$

     RDKit          3D

 13 11  0  0  0  0  0  0  0  0999 V2000
   -0.0229    0.8102    1.5609 N   0  0  0  0  0  0  0  0  0  0  0  0
   -0.6989    1.7345    0.6736 C   0  0  0  0  0  0  0  0  0  0  0  0
    0.1003    2.1907   -0.4800 C   0  0  0  0  0  0  0  0  0  0  0  0
    0.7546    2.5209   -1.3628 N   0  0  0  0  0  0  0  0  0  0  0  0
    0.8112    1.2263    1.9516 H   0  0  0  0  0  0  0  0  0  0  0  0
   -1.0108    2.6159    1.2360 H   0  0  0  0  0  0  0  0  0  0  0  0
   -1.6086    1.2702    0.2897 H   0  0  0  0  0  0  0  0  0  0  0  0
   -0.0230   -1.5973   -2.0455 C   0  0  0  0  0  0  0  0  0  0  0  0
   -0.0230   -1.5973   -0.8473 C   0  0  0  0  0  0  0  0  0  0  0  0
   -0.0230   -1.5393    0.6018 C   0  0  0  0  0  3  0  0  0  0  0  0
   -0.0230   -2.5101    1.3075 O   0  0  0  0  0  0  0  0  0  0  0  0
   -0.0230   -1.6153   -3.1101 H   0  0  0  0  0  0  0  0  0  0  0  0
   -0.0229   -0.3127    1.1025 H   0  0  0  0  0  0  0  0  0  0  0  0
  1  2  1  0
  1  5  1  0
  1 13  1  0
  2  3  1  0
  2  6  1  0
  2  7  1  0
  3  4  3  0
  8  9  3  0
  8 12  1  0
  9 10  1  0
 10 11  2  0
M  RAD  1  10   2
M  END
>  <reaction>  (17) 
rxn_3223

>  <mol_properties>  (17) 
{"0": {"label": "*3", "atom_type": "N3s"}, "1": {"label": "*4", "atom_type": "Cs"}, "8": {"label": "*0", "atom_type": "Ct"}, "9": {"label": "*1", "atom_type": "CO"}, "12": {"label": "*2", "atom_type": "H0"}}

>  <type>  (17) 
unop_13

>  <geom_source>  (17) 
gaussian_log

$$$$
