
     RDKit          3D

  4  3  0  0  0  0  0  0  0  0999 V2000
   -0.0057    0.0001   -0.0008 C   0  0  0  0  0  0  0  0  0  0  0  0
    1.1789   -0.0174    0.1563 O   0  0  0  0  0  0  0  0  0  0  0  0
   -0.5891    0.9399    0.0445 H   0  0  0  0  0  0  0  0  0  0  0  0
   -0.5841   -0.9226   -0.2001 H   0  0  0  0  0  0  0  0  0  0  0  0
  1  2  2  0
  1  3  1  0
  1  4  1  0
M  END
>  <reaction>  (1) 
rxn_363

>  <mol_properties>  (1) 
{"0": {"label": "donator", "atom_type": "CO"}, "2": {"label": "d_hydrogen", "atom_type": "H0"}}

>  <type>  (1) 
r1h

$$$$

     RDKit          3D

 10  9  0  0  0  0  0  0  0  0999 V2000
    1.2930    0.1441    0.3288 C   0  0  0  0  0  0  0  0  0  0  0  0
   -0.0374   -0.1647    0.9100 C   0  0  0  0  0  3  0  0  0  0  0  0
   -1.2664    0.4569    0.3567 C   0  0  0  0  0  0  0  0  0  0  0  0
    1.4384    1.2242    0.2174 H   0  0  0  0  0  0  0  0  0  0  0  0
    2.1077   -0.2477    0.9385 H   0  0  0  0  0  0  0  0  0  0  0  0
    1.4057   -0.2836   -0.6789 H   0  0  0  0  0  0  0  0  0  0  0  0
   -0.1309   -0.9912    1.6030 H   0  0  0  0  0  0  0  0  0  0  0  0
   -1.5005    0.0716   -0.6471 H   0  0  0  0  0  0  0  0  0  0  0  0
   -2.1382    0.2713    0.9849 H   0  0  0  0  0  0  0  0  0  0  0  0
   -1.1497    1.5406    0.2456 H   0  0  0  0  0  0  0  0  0  0  0  0
  1  2  1  0
  1  4  1  0
  1  5  1  0
  1  6  1  0
  2  3  1  0
  2  7  1  0
  3  8  1  0
  3  9  1  0
  3 10  1  0
M  RAD  1   2   2
M  END
>  <reaction>  (2) 
rxn_363

>  <mol_properties>  (2) 
{"1": {"label": "acceptor", "atom_type": "Cs"}}

>  <type>  (2) 
r2

$$$$

     RDKit          3D

 11 10  0  0  0  0  0  0  0  0999 V2000
   -1.2710    0.1907   -0.2084 C   0  0  0  0  0  0  0  0  0  0  0  0
    0.0202   -0.6130   -0.2928 C   0  0  0  0  0  0  0  0  0  0  0  0
    0.1086   -1.6953    0.7756 C   0  0  0  0  0  0  0  0  0  0  0  0
   -1.3607    0.6851    0.7620 H   0  0  0  0  0  0  0  0  0  0  0  0
   -2.1429   -0.4567   -0.3299 H   0  0  0  0  0  0  0  0  0  0  0  0
   -1.3158    0.9602   -0.9809 H   0  0  0  0  0  0  0  0  0  0  0  0
    0.8757    0.0616   -0.1992 H   0  0  0  0  0  0  0  0  0  0  0  0
    0.0997   -1.0712   -1.2825 H   0  0  0  0  0  0  0  0  0  0  0  0
   -0.7198   -2.4022    0.6850 H   0  0  0  0  0  0  0  0  0  0  0  0
    1.0395   -2.2596    0.6989 H   0  0  0  0  0  0  0  0  0  0  0  0
    0.0624   -1.2603    1.7770 H   0  0  0  0  0  0  0  0  0  0  0  0
  1  2  1  0
  1  4  1  0
  1  5  1  0
  1  6  1  0
  2  3  1  0
  2  7  1  0
  2  8  1  0
  3  9  1  0
  3 10  1  0
  3 11  1  0
M  END
>  <reaction>  (3) 
rxn_363

>  <mol_properties>  (3) 
{"0": {"label": "a_hydrogen", "atom_type": "H0"}, "2": {"label": "acceptor", "atom_type": "Cs"}}

>  <type>  (3) 
r2h

$$$$

     RDKit          3D

 14 12  0  0  0  0  0  0  0  0999 V2000
   -0.0868   -1.3739   -0.7652 C   0  0  0  0  0  0  0  0  0  0  0  0
   -1.1781   -1.3506   -1.2285 O   0  0  0  0  0  0  0  0  0  0  0  0
    0.3005   -0.4290    0.0777 H   0  0  0  0  0  0  0  0  0  0  0  0
    0.6528   -2.1750   -1.0102 H   0  0  0  0  0  0  0  0  0  0  0  0
   -0.5903    0.4643    1.9878 C   0  0  0  0  0  0  0  0  0  0  0  0
    0.4619    0.6752    0.9347 C   0  0  0  0  0  3  0  0  0  0  0  0
    0.2718    1.8594    0.0280 C   0  0  0  0  0  0  0  0  0  0  0  0
   -1.5831    0.3923    1.5361 H   0  0  0  0  0  0  0  0  0  0  0  0
   -0.4123   -0.4470    2.5615 H   0  0  0  0  0  0  0  0  0  0  0  0
   -0.6150    1.3005    2.6964 H   0  0  0  0  0  0  0  0  0  0  0  0
    1.4834    0.5501    1.2950 H   0  0  0  0  0  0  0  0  0  0  0  0
    0.3113    2.7995    0.5905 H   0  0  0  0  0  0  0  0  0  0  0  0
    1.0417    1.9061   -0.7441 H   0  0  0  0  0  0  0  0  0  0  0  0
   -0.7023    1.8177   -0.4663 H   0  0  0  0  0  0  0  0  0  0  0  0
  1  2  2  0
  1  3  1  0
  1  4  1  0
  5  6  1  0
  5  8  1  0
  5  9  1  0
  5 10  1  0
  6  7  1  0
  6 11  1  0
  7 12  1  0
  7 13  1  0
  7 14  1  0
M  RAD  1   6   2
M  END
>  <reaction>  (4) 
rxn_363

>  <mol_properties>  (4) 
{"0": {"label": "*1", "atom_type": "CO"}, "1": {"label": "*0", "atom_type": "O2d"}, "2": {"label": "*2", "atom_type": "H0"}, "4": {"label": "*4", "atom_type": "Cs"}, "5": {"label": "*3", "atom_type": "Cs"}}

>  <type>  (4) 
ts

$$$$

     RDKit          3D

 14 12  0  0  0  0  0  0  0  0999 V2000
    0.1222   -1.6211   -0.7330 C   0  0  0  0  0  3  0  0  0  0  0  0
    0.1222   -1.6211   -1.9280 O   0  0  0  0  0  0  0  0  0  0  0  0
    0.1222   -0.4940   -0.0297 H   0  0  0  0  0  0  0  0  0  0  0  0
    0.1222   -2.5603   -0.1469 H   0  0  0  0  0  0  0  0  0  0  0  0
   -1.1218    0.6692    1.5428 C   0  0  0  0  0  0  0  0  0  0  0  0
    0.1222    0.6192    0.6650 C   0  0  0  0  0  0  0  0  0  0  0  0
    0.7551    1.9905    0.4656 C   0  0  0  0  0  0  0  0  0  0  0  0
   -1.8841    1.3172    1.1035 H   0  0  0  0  0  0  0  0  0  0  0  0
   -1.5604   -0.3215    1.6738 H   0  0  0  0  0  0  0  0  0  0  0  0
   -0.8851    1.0641    2.5337 H   0  0  0  0  0  0  0  0  0  0  0  0
    0.8553   -0.0586    1.1109 H   0  0  0  0  0  0  0  0  0  0  0  0
    1.0509    2.4270    1.4226 H   0  0  0  0  0  0  0  0  0  0  0  0
    1.6438    1.9342   -0.1651 H   0  0  0  0  0  0  0  0  0  0  0  0
    0.0519    2.6801   -0.0076 H   0  0  0  0  0  0  0  0  0  0  0  0
  1  2  2  0
  1  4  1  0
  3  6  1  0
  5  6  1  0
  5  8  1  0
  5  9  1  0
  5 10  1  0
  6  7  1  0
  6 11  1  0
  7 12  1  0
  7 13  1  0
  7 14  1  0
M  RAD  1   1   2
M  END
>  <reaction>  (5) 
rxn_363

>  <mol_properties>  (5) 
{"0": {"label": "*1", "atom_type": "CO"}, "1": {"label": "*0", "atom_type": "O2d"}, "2": {"label": "*2", "atom_type": "H0"}, "4": {"label": "*4", "atom_type": "Cs"}, "5": {"label": "*3", "atom_type": "Cs"}}

>  <type>  (5) 
unop_1

>  <geom_source>  (5) 
Heuristics

$$$$

     RDKit          3D

 14 12  0  0  0  0  0  0  0  0999 V2000
   -0.1027   -1.6645   -0.5762 C   0  0  0  0  0  3  0  0  0  0  0  0
   -0.1027   -1.6645   -1.7713 O   0  0  0  0  0  0  0  0  0  0  0  0
   -0.1027   -0.5374    0.1271 H   0  0  0  0  0  0  0  0  0  0  0  0
   -0.1027   -2.6037    0.0098 H   0  0  0  0  0  0  0  0  0  0  0  0
   -0.8209    1.6646    0.0348 C   0  0  0  0  0  0  0  0  0  0  0  0
   -0.1027    0.5758    0.8218 C   0  0  0  0  0  0  0  0  0  0  0  0
    1.1338    1.0936    1.5453 C   0  0  0  0  0  0  0  0  0  0  0  0
   -0.1620    2.0999   -0.7204 H   0  0  0  0  0  0  0  0  0  0  0  0
   -1.7031    1.2748   -0.4759 H   0  0  0  0  0  0  0  0  0  0  0  0
   -1.1459    2.4732    0.6940 H   0  0  0  0  0  0  0  0  0  0  0  0
   -0.7922    0.1366    1.5481 H   0  0  0  0  0  0  0  0  0  0  0  0
    0.8705    1.8842    2.2520 H   0  0  0  0  0  0  0  0  0  0  0  0
    1.6341    0.3000    2.1027 H   0  0  0  0  0  0  0  0  0  0  0  0
    1.8543    1.5109    0.8377 H   0  0  0  0  0  0  0  0  0  0  0  0
  1  2  2  0
  1  4  1  0
  3  6  1  0
  5  6  1  0
  5  8  1  0
  5  9  1  0
  5 10  1  0
  6  7  1  0
  6 11  1  0
  7 12  1  0
  7 13  1  0
  7 14  1  0
M  RAD  1   1   2
M  END
>  <reaction>  (6) 
rxn_363

>  <mol_properties>  (6) 
{"0": {"label": "*1", "atom_type": "CO"}, "1": {"label": "*0", "atom_type": "O2d"}, "2": {"label": "*2", "atom_type": "H0"}, "4": {"label": "*4", "atom_type": "Cs"}, "5": {"label": "*3", "atom_type": "Cs"}}

>  <type>  (6) 
unop_2

>  <geom_source>  (6) 
Heuristics

$$$$

     RDKit          3D

 14 12  0  0  0  0  0  0  0  0999 V2000
    0.1699   -1.5800   -0.7597 C   0  0  0  0  0  3  0  0  0  0  0  0
    0.1699   -1.5800   -1.9548 O   0  0  0  0  0  0  0  0  0  0  0  0
    0.1699   -0.4529   -0.0564 H   0  0  0  0  0  0  0  0  0  0  0  0
    0.1699   -2.5192   -0.1736 H   0  0  0  0  0  0  0  0  0  0  0  0
   -0.5483    0.4320    1.9621 C   0  0  0  0  0  0  0  0  0  0  0  0
    0.1699    0.6603    0.6383 C   0  0  0  0  0  0  0  0  0  0  0  0
    0.0358    2.0928    0.1375 C   0  0  0  0  0  0  0  0  0  0  0  0
   -1.6162    0.6441    1.8689 H   0  0  0  0  0  0  0  0  0  0  0  0
   -0.4409   -0.5988    2.3041 H   0  0  0  0  0  0  0  0  0  0  0  0
   -0.1493    1.0863    2.7410 H   0  0  0  0  0  0  0  0  0  0  0  0
    1.2288    0.4118    0.7510 H   0  0  0  0  0  0  0  0  0  0  0  0
    0.4533    2.7994    0.8589 H   0  0  0  0  0  0  0  0  0  0  0  0
    0.5563    2.2366   -0.8108 H   0  0  0  0  0  0  0  0  0  0  0  0
   -1.0136    2.3572   -0.0132 H   0  0  0  0  0  0  0  0  0  0  0  0
  1  2  2  0
  1  4  1  0
  3  6  1  0
  5  6  1  0
  5  8  1  0
  5  9  1  0
  5 10  1  0
  6  7  1  0
  6 11  1  0
  7 12  1  0
  7 13  1  0
  7 14  1  0
M  RAD  1   1   2
M  END
>  <reaction>  (7) 
rxn_363

>  <mol_properties>  (7) 
{"0": {"label": "*1", "atom_type": "CO"}, "1": {"label": "*0", "atom_type": "O2d"}, "2": {"label": "*2", "atom_type": "H0"}, "4": {"label": "*4", "atom_type": "Cs"}, "5": {"label": "*3", "atom_type": "Cs"}}

>  <type>  (7) 
unop_3

>  <geom_source>  (7) 
Heuristics

$$$$

     RDKit          3D

 14 12  0  0  0  0  0  0  0  0999 V2000
   -0.3059   -1.3017   -0.7625 C   0  0  0  0  0  3  0  0  0  0  0  0
   -0.3059   -1.3017   -1.9576 O   0  0  0  0  0  0  0  0  0  0  0  0
   -0.3059   -0.1746   -0.0592 H   0  0  0  0  0  0  0  0  0  0  0  0
   -0.3059   -2.2409   -0.1765 H   0  0  0  0  0  0  0  0  0  0  0  0
    0.9381    1.7491    0.2946 C   0  0  0  0  0  0  0  0  0  0  0  0
   -0.3059    0.9387    0.6355 C   0  0  0  0  0  0  0  0  0  0  0  0
   -0.0845   -0.0123    1.8047 C   0  0  0  0  0  0  0  0  0  0  0  0
    1.7700    1.0934    0.0260 H   0  0  0  0  0  0  0  0  0  0  0  0
    0.7599    2.4237   -0.5445 H   0  0  0  0  0  0  0  0  0  0  0  0
    1.2568    2.3530    1.1477 H   0  0  0  0  0  0  0  0  0  0  0  0
   -1.1300    1.6181    0.8699 H   0  0  0  0  0  0  0  0  0  0  0  0
    0.2020    0.5360    2.7054 H   0  0  0  0  0  0  0  0  0  0  0  0
   -0.9858   -0.5834    2.0336 H   0  0  0  0  0  0  0  0  0  0  0  0
    0.7152   -0.7235    1.5837 H   0  0  0  0  0  0  0  0  0  0  0  0
  1  2  2  0
  1  4  1  0
  3  6  1  0
  5  6  1  0
  5  8  1  0
  5  9  1  0
  5 10  1  0
  6  7  1  0
  6 11  1  0
  7 12  1  0
  7 13  1  0
  7 14  1  0
M  RAD  1   1   2
M  END
>  <reaction>  (8) 
rxn_363

>  <mol_properties>  (8) 
{"0": {"label": "*1", "atom_type": "CO"}, "1": {"label": "*0", "atom_type": "O2d"}, "2": {"label": "*2", "atom_type": "H0"}, "4": {"label": "*4", "atom_type": "Cs"}, "5": {"label": "*3", "atom_type": "Cs"}}

>  <type>  (8) 
unop_4

>  <geom_source>  (8) 
Heuristics

$$$$

     RDKit          3D

 14 12  0  0  0  0  0  0  0  0999 V2000
    0.2454   -1.4434   -0.8093 C   0  0  0  0  0  3  0  0  0  0  0  0
    0.2454   -1.4434   -2.0044 O   0  0  0  0  0  0  0  0  0  0  0  0
    0.2454   -0.3163   -0.1060 H   0  0  0  0  0  0  0  0  0  0  0  0
    0.2454   -2.3826   -0.2232 H   0  0  0  0  0  0  0  0  0  0  0  0
    0.2454    0.4667    2.0758 C   0  0  0  0  0  0  0  0  0  0  0  0
    0.2454    0.7969    0.5887 C   0  0  0  0  0  0  0  0  0  0  0  0
   -0.9469    1.6513    0.1774 C   0  0  0  0  0  0  0  0  0  0  0  0
   -0.6578   -0.0818    2.3541 H   0  0  0  0  0  0  0  0  0  0  0  0
    1.1061   -0.1452    2.3508 H   0  0  0  0  0  0  0  0  0  0  0  0
    0.2762    1.3778    2.6782 H   0  0  0  0  0  0  0  0  0  0  0  0
    1.1721    1.3173    0.3314 H   0  0  0  0  0  0  0  0  0  0  0  0
   -0.9536    2.5997    0.7201 H   0  0  0  0  0  0  0  0  0  0  0  0
   -0.9294    1.8771   -0.8901 H   0  0  0  0  0  0  0  0  0  0  0  0
   -1.8877    1.1401    0.3959 H   0  0  0  0  0  0  0  0  0  0  0  0
  1  2  2  0
  1  4  1  0
  3  6  1  0
  5  6  1  0
  5  8  1  0
  5  9  1  0
  5 10  1  0
  6  7  1  0
  6 11  1  0
  7 12  1  0
  7 13  1  0
  7 14  1  0
M  RAD  1   1   2
M  END
>  <reaction>  (9) 
rxn_363

>  <mol_properties>  (9) 
{"0": {"label": "*1", "atom_type": "CO"}, "1": {"label": "*0", "atom_type": "O2d"}, "2": {"label": "*2", "atom_type": "H0"}, "4": {"label": "*4", "atom_type": "Cs"}, "5": {"label": "*3", "atom_type": "Cs"}}

>  <type>  (9) 
unop_5

>  <geom_source>  (9) 
Heuristics

$$$$

     RDKit          3D

 14 12  0  0  0  0  0  0  0  0999 V2000
   -0.1945   -1.2027   -0.8541 C   0  0  0  0  0  3  0  0  0  0  0  0
   -0.1945   -1.2027   -2.0491 O   0  0  0  0  0  0  0  0  0  0  0  0
   -0.1945   -0.0756   -0.1508 H   0  0  0  0  0  0  0  0  0  0  0  0
   -0.1945   -2.1419   -0.2680 H   0  0  0  0  0  0  0  0  0  0  0  0
    1.2420    1.4678    0.8124 C   0  0  0  0  0  0  0  0  0  0  0  0
   -0.1945    1.0377    0.5439 C   0  0  0  0  0  0  0  0  0  0  0  0
   -0.6911   -0.0029    1.5395 C   0  0  0  0  0  0  0  0  0  0  0  0
    1.9223    0.6146    0.7560 H   0  0  0  0  0  0  0  0  0  0  0  0
    1.5794    2.2127    0.0897 H   0  0  0  0  0  0  0  0  0  0  0  0
    1.3398    1.9017    1.8105 H   0  0  0  0  0  0  0  0  0  0  0  0
   -0.8487    1.9133    0.5758 H   0  0  0  0  0  0  0  0  0  0  0  0
   -0.6542    0.3846    2.5606 H   0  0  0  0  0  0  0  0  0  0  0  0
   -1.7208   -0.2981    1.3311 H   0  0  0  0  0  0  0  0  0  0  0  0
   -0.0717   -0.9024    1.5060 H   0  0  0  0  0  0  0  0  0  0  0  0
  1  2  2  0
  1  4  1  0
  3  6  1  0
  5  6  1  0
  5  8  1  0
  5  9  1  0
  5 10  1  0
  6  7  1  0
  6 11  1  0
  7 12  1  0
  7 13  1  0
  7 14  1  0
M  RAD  1   1   2
M  END
>  <reaction>  (10) 
rxn_363

>  <mol_properties>  (10) 
{"0": {"label": "*1", "atom_type": "CO"}, "1": {"label": "*0", "atom_type": "O2d"}, "2": {"label": "*2", "atom_type": "H0"}, "4": {"label": "*4", "atom_type": "Cs"}, "5": {"label": "*3", "atom_type": "Cs"}}

>  <type>  (10) 
unop_6

>  <geom_source>  (10) 
Heuristics

$$$$

     RDKit          3D

 14 12  0  0  0  0  0  0  0  0999 V2000
   -0.0204   -1.1721   -0.9029 C   0  0  0  0  0  3  0  0  0  0  0  0
   -0.0204   -1.1721   -2.0979 O   0  0  0  0  0  0  0  0  0  0  0  0
   -0.0204   -0.0451   -0.1996 H   0  0  0  0  0  0  0  0  0  0  0  0
   -0.0204   -2.1113   -0.3168 H   0  0  0  0  0  0  0  0  0  0  0  0
    1.2236    1.1182    1.3729 C   0  0  0  0  0  0  0  0  0  0  0  0
   -0.0204    1.0682    0.4951 C   0  0  0  0  0  0  0  0  0  0  0  0
   -1.1481    0.2578    1.1213 C   0  0  0  0  0  0  0  0  0  0  0  0
    1.6111    0.1135    1.5589 H   0  0  0  0  0  0  0  0  0  0  0  0
    2.0195    1.7025    0.9080 H   0  0  0  0  0  0  0  0  0  0  0  0
    0.9997    1.5696    2.3425 H   0  0  0  0  0  0  0  0  0  0  0  0
   -0.3689    2.0861    0.2994 H   0  0  0  0  0  0  0  0  0  0  0  0
   -1.4467    0.6821    2.0829 H   0  0  0  0  0  0  0  0  0  0  0  0
   -2.0296    0.2336    0.4784 H   0  0  0  0  0  0  0  0  0  0  0  0
   -0.8354   -0.7740    1.2994 H   0  0  0  0  0  0  0  0  0  0  0  0
  1  2  2  0
  1  4  1  0
  3  6  1  0
  5  6  1  0
  5  8  1  0
  5  9  1  0
  5 10  1  0
  6  7  1  0
  6 11  1  0
  7 12  1  0
  7 13  1  0
  7 14  1  0
M  RAD  1   1   2
M  END
>  <reaction>  (11) 
rxn_363

>  <mol_properties>  (11) 
{"0": {"label": "*1", "atom_type": "CO"}, "1": {"label": "*0", "atom_type": "O2d"}, "2": {"label": "*2", "atom_type": "H0"}, "4": {"label": "*4", "atom_type": "Cs"}, "5": {"label": "*3", "atom_type": "Cs"}}

>  <type>  (11) 
unop_7

>  <geom_source>  (11) 
Heuristics

$$$$

     RDKit          3D

 14 12  0  0  0  0  0  0  0  0999 V2000
    0.0918   -1.6515   -0.6843 C   0  0  0  0  0  3  0  0  0  0  0  0
    0.0918   -1.6515   -1.8793 O   0  0  0  0  0  0  0  0  0  0  0  0
    0.0918   -0.5244    0.0190 H   0  0  0  0  0  0  0  0  0  0  0  0
    0.0918   -2.5907   -0.0982 H   0  0  0  0  0  0  0  0  0  0  0  0
   -1.3447    1.0190    0.9822 C   0  0  0  0  0  0  0  0  0  0  0  0
    0.0918    0.5889    0.7137 C   0  0  0  0  0  0  0  0  0  0  0  0
    1.0873    1.7292    0.8841 C   0  0  0  0  0  0  0  0  0  0  0  0
   -1.6471    1.8179    0.3007 H   0  0  0  0  0  0  0  0  0  0  0  0
   -2.0423    0.1895    0.8552 H   0  0  0  0  0  0  0  0  0  0  0  0
   -1.4554    1.3964    2.0017 H   0  0  0  0  0  0  0  0  0  0  0  0
    0.3582   -0.2306    1.3870 H   0  0  0  0  0  0  0  0  0  0  0  0
    1.0532    2.1289    1.9005 H   0  0  0  0  0  0  0  0  0  0  0  0
    2.1097    1.4019    0.6878 H   0  0  0  0  0  0  0  0  0  0  0  0
    0.8616    2.5504    0.1995 H   0  0  0  0  0  0  0  0  0  0  0  0
  1  2  2  0
  1  4  1  0
  3  6  1  0
  5  6  1  0
  5  8  1  0
  5  9  1  0
  5 10  1  0
  6  7  1  0
  6 11  1  0
  7 12  1  0
  7 13  1  0
  7 14  1  0
M  RAD  1   1   2
M  END
>  <reaction>  (12) 
rxn_363

>  <mol_properties>  (12) 
{"0": {"label": "*1", "atom_type": "CO"}, "1": {"label": "*0", "atom_type": "O2d"}, "2": {"label": "*2", "atom_type": "H0"}, "4": {"label": "*4", "atom_type": "Cs"}, "5": {"label": "*3", "atom_type": "Cs"}}

>  <type>  (12) 
unop_8

>  <geom_source>  (12) 
Heuristics

$$$$

     RDKit          3D

 14 12  0  0  0  0  0  0  0  0999 V2000
   -0.3266   -1.4421   -0.6604 C   0  0  0  0  0  3  0  0  0  0  0  0
   -0.3266   -1.4421   -1.8554 O   0  0  0  0  0  0  0  0  0  0  0  0
   -0.3266   -0.3151    0.0429 H   0  0  0  0  0  0  0  0  0  0  0  0
   -0.3266   -2.3814   -0.0743 H   0  0  0  0  0  0  0  0  0  0  0  0
    0.3917    1.8869   -0.0493 C   0  0  0  0  0  0  0  0  0  0  0  0
   -0.3266    0.7982    0.7376 C   0  0  0  0  0  0  0  0  0  0  0  0
    0.5229    0.2354    1.8700 C   0  0  0  0  0  0  0  0  0  0  0  0
    1.3129    1.5038   -0.4948 H   0  0  0  0  0  0  0  0  0  0  0  0
   -0.2321    2.2772   -0.8553 H   0  0  0  0  0  0  0  0  0  0  0  0
    0.6626    2.7236    0.5993 H   0  0  0  0  0  0  0  0  0  0  0  0
   -1.2584    1.1989    1.1461 H   0  0  0  0  0  0  0  0  0  0  0  0
    0.7980    1.0200    2.5791 H   0  0  0  0  0  0  0  0  0  0  0  0
   -0.0081   -0.5423    2.4214 H   0  0  0  0  0  0  0  0  0  0  0  0
    1.4483   -0.1998    1.4850 H   0  0  0  0  0  0  0  0  0  0  0  0
  1  2  2  0
  1  4  1  0
  3  6  1  0
  5  6  1  0
  5  8  1  0
  5  9  1  0
  5 10  1  0
  6  7  1  0
  6 11  1  0
  7 12  1  0
  7 13  1  0
  7 14  1  0
M  RAD  1   1   2
M  END
>  <reaction>  (13) 
rxn_363

>  <mol_properties>  (13) 
{"0": {"label": "*1", "atom_type": "CO"}, "1": {"label": "*0", "atom_type": "O2d"}, "2": {"label": "*2", "atom_type": "H0"}, "4": {"label": "*4", "atom_type": "Cs"}, "5": {"label": "*3", "atom_type": "Cs"}}

>  <type>  (13) 
unop_9

>  <geom_source>  (13) 
Heuristics

$$$$

     RDKit          3D

 14 12  0  0  0  0  0  0  0  0999 V2000
    0.0228   -1.6766   -0.6207 C   0  0  0  0  0  3  0  0  0  0  0  0
    0.0228   -1.6766   -1.8157 O   0  0  0  0  0  0  0  0  0  0  0  0
    0.0228   -0.5495    0.0826 H   0  0  0  0  0  0  0  0  0  0  0  0
    0.0228   -2.6158   -0.0346 H   0  0  0  0  0  0  0  0  0  0  0  0
   -1.2212    1.3742    0.4364 C   0  0  0  0  0  0  0  0  0  0  0  0
    0.0228    0.5638    0.7773 C   0  0  0  0  0  0  0  0  0  0  0  0
    1.1770    1.4345    1.2572 C   0  0  0  0  0  0  0  0  0  0  0  0
   -1.0110    2.0985   -0.3543 H   0  0  0  0  0  0  0  0  0  0  0  0
   -2.0361    0.7337    0.0949 H   0  0  0  0  0  0  0  0  0  0  0  0
   -1.5755    1.9309    1.3074 H   0  0  0  0  0  0  0  0  0  0  0  0
   -0.2223   -0.1727    1.5476 H   0  0  0  0  0  0  0  0  0  0  0  0
    0.8982    1.9931    2.1541 H   0  0  0  0  0  0  0  0  0  0  0  0
    2.0581    0.8366    1.4963 H   0  0  0  0  0  0  0  0  0  0  0  0
    1.4628    2.1607    0.4924 H   0  0  0  0  0  0  0  0  0  0  0  0
  1  2  2  0
  1  4  1  0
  3  6  1  0
  5  6  1  0
  5  8  1  0
  5  9  1  0
  5 10  1  0
  6  7  1  0
  6 11  1  0
  7 12  1  0
  7 13  1  0
  7 14  1  0
M  RAD  1   1   2
M  END
>  <reaction>  (14) 
rxn_363

>  <mol_properties>  (14) 
{"0": {"label": "*1", "atom_type": "CO"}, "1": {"label": "*0", "atom_type": "O2d"}, "2": {"label": "*2", "atom_type": "H0"}, "4": {"label": "*4", "atom_type": "Cs"}, "5": {"label": "*3", "atom_type": "Cs"}}

>  <type>  (14) 
unop_10

>  <geom_source>  (14) 
Heuristics

$$$$

     RDKit          3D

 14 12  0  0  0  0  0  0  0  0999 V2000
    0.1680   -1.2472   -0.8856 C   0  0  0  0  0  3  0  0  0  0  0  0
    0.1680   -1.2472   -2.0807 O   0  0  0  0  0  0  0  0  0  0  0  0
    0.1680   -0.1201   -0.1823 H   0  0  0  0  0  0  0  0  0  0  0  0
    0.1680   -2.1864   -0.2996 H   0  0  0  0  0  0  0  0  0  0  0  0
    0.8862    0.7647    1.8362 C   0  0  0  0  0  0  0  0  0  0  0  0
    0.1680    0.9931    0.5124 C   0  0  0  0  0  0  0  0  0  0  0  0
   -1.3400    0.8084    0.6235 C   0  0  0  0  0  0  0  0  0  0  0  0
    0.7102   -0.2481    2.2065 H   0  0  0  0  0  0  0  0  0  0  0  0
    1.9643    0.9015    1.7365 H   0  0  0  0  0  0  0  0  0  0  0  0
    0.5297    1.4610    2.5992 H   0  0  0  0  0  0  0  0  0  0  0  0
    0.3854    2.0015    0.1495 H   0  0  0  0  0  0  0  0  0  0  0  0
   -1.7667    1.5060    1.3483 H   0  0  0  0  0  0  0  0  0  0  0  0
   -1.8363    0.9760   -0.3338 H   0  0  0  0  0  0  0  0  0  0  0  0
   -1.5862   -0.2031    0.9556 H   0  0  0  0  0  0  0  0  0  0  0  0
  1  2  2  0
  1  4  1  0
  3  6  1  0
  5  6  1  0
  5  8  1  0
  5  9  1  0
  5 10  1  0
  6  7  1  0
  6 11  1  0
  7 12  1  0
  7 13  1  0
  7 14  1  0
M  RAD  1   1   2
M  END
>  <reaction>  (15) 
rxn_363

>  <mol_properties>  (15) 
{"0": {"label": "*1", "atom_type": "CO"}, "1": {"label": "*0", "atom_type": "O2d"}, "2": {"label": "*2", "atom_type": "H0"}, "4": {"label": "*4", "atom_type": "Cs"}, "5": {"label": "*3", "atom_type": "Cs"}}

>  <type>  (15) 
unop_11

>  <geom_source>  (15) 
Heuristics

$$$$

     RDKit          3D

 14 12  0  0  0  0  0  0  0  0999 V2000
   -0.2454   -1.5818   -0.5875 C   0  0  0  0  0  3  0  0  0  0  0  0
   -0.2454   -1.5818   -1.7826 O   0  0  0  0  0  0  0  0  0  0  0  0
   -0.2454   -0.4547    0.1158 H   0  0  0  0  0  0  0  0  0  0  0  0
   -0.2454   -2.5210   -0.0014 H   0  0  0  0  0  0  0  0  0  0  0  0
   -0.2454    1.8492   -0.1397 C   0  0  0  0  0  0  0  0  0  0  0  0
   -0.2454    0.6585    0.8105 C   0  0  0  0  0  0  0  0  0  0  0  0
    0.9469    0.6646    1.7586 C   0  0  0  0  0  0  0  0  0  0  0  0
    0.6578    1.8582   -0.7547 H   0  0  0  0  0  0  0  0  0  0  0  0
   -1.1061    1.8273   -0.8103 H   0  0  0  0  0  0  0  0  0  0  0  0
   -0.2762    2.7908    0.4139 H   0  0  0  0  0  0  0  0  0  0  0  0
   -1.1721    0.6561    1.3910 H   0  0  0  0  0  0  0  0  0  0  0  0
    0.9536    1.5688    2.3720 H   0  0  0  0  0  0  0  0  0  0  0  0
    0.9294   -0.1951    2.4307 H   0  0  0  0  0  0  0  0  0  0  0  0
    1.8877    0.6362    1.2035 H   0  0  0  0  0  0  0  0  0  0  0  0
  1  2  2  0
  1  4  1  0
  3  6  1  0
  5  6  1  0
  5  8  1  0
  5  9  1  0
  5 10  1  0
  6  7  1  0
  6 11  1  0
  7 12  1  0
  7 13  1  0
  7 14  1  0
M  RAD  1   1   2
M  END
>  <reaction>  (16) 
rxn_363

>  <mol_properties>  (16) 
{"0": {"label": "*1", "atom_type": "CO"}, "1": {"label": "*0", "atom_type": "O2d"}, "2": {"label": "*2", "atom_type": "H0"}, "4": {"label": "*4", "atom_type": "Cs"}, "5": {"label": "*3", "atom_type": "Cs"}}

>  <type>  (16) 
unop_12

>  <geom_source>  (16) 
Heuristics

$$$$

     RDKit          3D

 14 12  0  0  0  0  0  0  0  0999 V2000
    2.6833    1.1909   -0.2098 O   0  0  0  0  0  0  0  0  0  0  0  0
   -0.2374   -0.3377   -0.1032 C   0  0  0  0  0  0  0  0  0  0  0  0
   -1.2185    0.4674   -0.9480 C   0  0  0  0  0  0  0  0  0  0  0  0
   -0.6591   -0.3663    1.3617 C   0  0  0  0  0  0  0  0  0  0  0  0
    2.3151    0.0339   -0.3237 C   0  0  0  0  0  3  0  0  0  0  0  0
   -0.1842   -1.3777   -0.4914 H   0  0  0  0  0  0  0  0  0  0  0  0
    0.9820    0.2168   -0.1984 H   0  0  0  0  0  0  0  0  0  0  0  0
   -2.2323    0.0158   -0.8993 H   0  0  0  0  0  0  0  0  0  0  0  0
   -0.8792    0.4701   -2.0049 H   0  0  0  0  0  0  0  0  0  0  0  0
   -1.2643    1.5168   -0.5873 H   0  0  0  0  0  0  0  0  0  0  0  0
   -1.6591   -0.8385    1.4672 H   0  0  0  0  0  0  0  0  0  0  0  0
   -0.6930    0.6654    1.7715 H   0  0  0  0  0  0  0  0  0  0  0  0
    0.0777   -0.9561    1.9460 H   0  0  0  0  0  0  0  0  0  0  0  0
    2.9690   -0.7008   -0.7804 H   0  0  0  0  0  0  0  0  0  0  0  0
  1  5  2  0
  2  3  1  0
  2  4  1  0
  2  6  1  0
  2  7  1  0
  3  8  1  0
  3  9  1  0
  3 10  1  0
  4 11  1  0
  4 12  1  0
  4 13  1  0
  5 14  1  0
M  RAD  1   5   2
M  END
>  <reaction>  (17) 
rxn_363

>  <mol_properties>  (17) 
{"0": {"label": "*1", "atom_type": "CO"}, "1": {"label": "*0", "atom_type": "O2d"}, "2": {"label": "*2", "atom_type": "H0"}, "4": {"label": "*4", "atom_type": "Cs"}, "5": {"label": "*3", "atom_type": "Cs"}}

>  <type>  (17) 
unop_13

>  <geom_source>  (17) 
AutoTST

$$$$
