
     RDKit          3D

  8  7  0  0  0  0  0  0  0  0999 V2000
    0.7610    0.0250    0.0051 C   0  0  0  0  0  0  0  0  0  0  0  0
   -0.7610   -0.0250   -0.0051 C   0  0  0  0  0  0  0  0  0  0  0  0
    1.1904   -0.9237   -0.3217 H   0  0  0  0  0  0  0  0  0  0  0  0
    1.1359    0.8041   -0.6609 H   0  0  0  0  0  0  0  0  0  0  0  0
    1.1435    0.2336    1.0058 H   0  0  0  0  0  0  0  0  0  0  0  0
   -1.1435   -0.2336   -1.0058 H   0  0  0  0  0  0  0  0  0  0  0  0
   -1.1904    0.9237    0.3216 H   0  0  0  0  0  0  0  0  0  0  0  0
   -1.1359   -0.8041    0.6609 H   0  0  0  0  0  0  0  0  0  0  0  0
  1  2  1  0
  1  3  1  0
  1  4  1  0
  1  5  1  0
  2  6  1  0
  2  7  1  0
  2  8  1  0
M  END
>  <reaction>  (1) 
rxn_869

>  <mol_properties>  (1) 
{"1": {"label": "donator", "atom_type": "Cs"}, "5": {"label": "d_hydrogen", "atom_type": "H0"}}

>  <type>  (1) 
r1h

$$$$

     RDKit          3D

 13 12  0  0  0  0  0  0  0  0999 V2000
   -1.3649   -0.5967   -0.3477 C   0  0  0  0  0  0  0  0  0  0  0  0
   -0.1601   -0.2776    0.4669 C   0  0  0  0  0  3  0  0  0  0  0  0
    1.1241   -0.9571    0.1414 C   0  0  0  0  0  0  0  0  0  0  0  0
   -0.1188    1.0130    1.2081 C   0  0  0  0  0  0  0  0  0  0  0  0
   -1.4266   -1.6632   -0.5770 H   0  0  0  0  0  0  0  0  0  0  0  0
   -2.2858   -0.3004    0.1602 H   0  0  0  0  0  0  0  0  0  0  0  0
   -1.3532   -0.0668   -1.3138 H   0  0  0  0  0  0  0  0  0  0  0  0
    1.6174   -0.4963   -0.7297 H   0  0  0  0  0  0  0  0  0  0  0  0
    0.9723   -2.0104   -0.1064 H   0  0  0  0  0  0  0  0  0  0  0  0
    1.8338   -0.8977    0.9701 H   0  0  0  0  0  0  0  0  0  0  0  0
   -1.0852    1.2507    1.6593 H   0  0  0  0  0  0  0  0  0  0  0  0
    0.6358    1.0009    1.9983 H   0  0  0  0  0  0  0  0  0  0  0  0
    0.1343    1.8546    0.5434 H   0  0  0  0  0  0  0  0  0  0  0  0
  1  2  1  0
  1  5  1  0
  1  6  1  0
  1  7  1  0
  2  3  1  0
  2  4  1  0
  3  8  1  0
  3  9  1  0
  3 10  1  0
  4 11  1  0
  4 12  1  0
  4 13  1  0
M  RAD  1   2   2
M  END
>  <reaction>  (2) 
rxn_869

>  <mol_properties>  (2) 
{"1": {"label": "acceptor", "atom_type": "Cs"}}

>  <type>  (2) 
r2

$$$$

     RDKit          3D

 14 13  0  0  0  0  0  0  0  0999 V2000
   -0.7647   -1.2352   -0.0349 C   0  0  0  0  0  0  0  0  0  0  0  0
    0.0570   -0.0126    0.3624 C   0  0  0  0  0  0  0  0  0  0  0  0
    1.4161   -0.0194   -0.3307 C   0  0  0  0  0  0  0  0  0  0  0  0
   -0.7022    1.2765    0.0629 C   0  0  0  0  0  0  0  0  0  0  0  0
   -0.2387   -2.1618    0.2039 H   0  0  0  0  0  0  0  0  0  0  0  0
   -0.9625   -1.2315   -1.1108 H   0  0  0  0  0  0  0  0  0  0  0  0
   -1.7273   -1.2512    0.4806 H   0  0  0  0  0  0  0  0  0  0  0  0
    0.2295   -0.0590    1.4432 H   0  0  0  0  0  0  0  0  0  0  0  0
    1.2933    0.0260   -1.4168 H   0  0  0  0  0  0  0  0  0  0  0  0
    2.0206    0.8382   -0.0278 H   0  0  0  0  0  0  0  0  0  0  0  0
    1.9767   -0.9268   -0.0966 H   0  0  0  0  0  0  0  0  0  0  0  0
   -1.6638    1.3002    0.5800 H   0  0  0  0  0  0  0  0  0  0  0  0
   -0.8978    1.3663   -1.0096 H   0  0  0  0  0  0  0  0  0  0  0  0
   -0.1313    2.1545    0.3720 H   0  0  0  0  0  0  0  0  0  0  0  0
  1  2  1  0
  1  5  1  0
  1  6  1  0
  1  7  1  0
  2  3  1  0
  2  4  1  0
  2  8  1  0
  3  9  1  0
  3 10  1  0
  3 11  1  0
  4 12  1  0
  4 13  1  0
  4 14  1  0
M  END
>  <reaction>  (3) 
rxn_869

>  <mol_properties>  (3) 
{"1": {"label": "acceptor", "atom_type": "Cs"}, "13": {"label": "a_hydrogen", "atom_type": "H0"}}

>  <type>  (3) 
r2h

$$$$

     RDKit          3D

 21 19  0  0  0  0  0  0  0  0999 V2000
    0.5639    0.5409    1.9357 C   0  0  0  0  0  0  0  0  0  0  0  0
   -0.0596    0.5961    0.5609 C   0  0  0  0  0  0  0  0  0  0  0  0
   -1.5700    0.5825    0.5755 C   0  0  0  0  0  0  0  0  0  0  0  0
    0.5329    1.6579   -0.3353 C   0  0  0  0  0  0  0  0  0  0  0  0
    0.1804   -0.3049    2.5108 H   0  0  0  0  0  0  0  0  0  0  0  0
    1.6502    0.4438    1.8744 H   0  0  0  0  0  0  0  0  0  0  0  0
    0.3448    1.4533    2.5033 H   0  0  0  0  0  0  0  0  0  0  0  0
   -1.9668    1.4884    1.0497 H   0  0  0  0  0  0  0  0  0  0  0  0
   -1.9530   -0.2752    1.1334 H   0  0  0  0  0  0  0  0  0  0  0  0
   -1.9762    0.5371   -0.4374 H   0  0  0  0  0  0  0  0  0  0  0  0
    1.6182    1.5559   -0.4060 H   0  0  0  0  0  0  0  0  0  0  0  0
    0.1202    1.6003   -1.3450 H   0  0  0  0  0  0  0  0  0  0  0  0
    0.3201    2.6621    0.0509 H   0  0  0  0  0  0  0  0  0  0  0  0
   -0.1406   -1.6999   -1.9492 C   0  0  0  0  0  0  0  0  0  0  0  0
    0.6031   -1.7190   -0.6419 C   0  0  0  0  0  3  0  0  0  0  0  0
   -1.2200   -1.6531   -1.7898 H   0  0  0  0  0  0  0  0  0  0  0  0
    0.1444   -0.8360   -2.5538 H   0  0  0  0  0  0  0  0  0  0  0  0
    0.0605   -2.5947   -2.5478 H   0  0  0  0  0  0  0  0  0  0  0  0
    0.2782   -0.5339    0.0050 H   0  0  0  0  0  0  0  0  0  0  0  0
    1.6872   -1.6678   -0.7236 H   0  0  0  0  0  0  0  0  0  0  0  0
    0.2852   -2.4852    0.0626 H   0  0  0  0  0  0  0  0  0  0  0  0
  1  2  1  0
  1  5  1  0
  1  6  1  0
  1  7  1  0
  2  3  1  0
  2  4  1  0
  2 19  1  0
  3  8  1  0
  3  9  1  0
  3 10  1  0
  4 11  1  0
  4 12  1  0
  4 13  1  0
 14 15  1  0
 14 16  1  0
 14 17  1  0
 14 18  1  0
 15 20  1  0
 15 21  1  0
M  RAD  1  15   2
M  END
>  <reaction>  (4) 
rxn_869

>  <mol_properties>  (4) 
{"0": {"label": "*0", "atom_type": "Cs"}, "1": {"label": "*1", "atom_type": "Cs"}, "13": {"label": "*4", "atom_type": "Cs"}, "14": {"label": "*3", "atom_type": "Cs"}, "18": {"label": "*2", "atom_type": "H0"}}

>  <type>  (4) 
ts

$$$$

     RDKit          3D

 21 19  0  0  0  0  0  0  0  0999 V2000
   -1.3187    0.8737    1.2325 C   0  0  0  0  0  0  0  0  0  0  0  0
   -0.0615    0.6993    0.3858 C   0  0  0  0  0  3  0  0  0  0  0  0
    0.4506    2.0464   -0.1152 C   0  0  0  0  0  0  0  0  0  0  0  0
    1.0220   -0.0419    1.1633 C   0  0  0  0  0  0  0  0  0  0  0  0
   -2.1084    1.3779    0.6716 H   0  0  0  0  0  0  0  0  0  0  0  0
   -1.7069   -0.0896    1.5700 H   0  0  0  0  0  0  0  0  0  0  0  0
   -1.1032    1.4759    2.1200 H   0  0  0  0  0  0  0  0  0  0  0  0
    0.7269    2.6889    0.7260 H   0  0  0  0  0  0  0  0  0  0  0  0
   -0.3111    2.5691   -0.6974 H   0  0  0  0  0  0  0  0  0  0  0  0
    1.3337    1.9256   -0.7461 H   0  0  0  0  0  0  0  0  0  0  0  0
    0.6708   -1.0197    1.4996 H   0  0  0  0  0  0  0  0  0  0  0  0
    1.9141   -0.1957    0.5526 H   0  0  0  0  0  0  0  0  0  0  0  0
    1.3178    0.5289    2.0484 H   0  0  0  0  0  0  0  0  0  0  0  0
   -0.0615   -1.7462   -2.0887 C   0  0  0  0  0  0  0  0  0  0  0  0
   -0.0615   -1.7462   -0.5660 C   0  0  0  0  0  0  0  0  0  0  0  0
   -0.9424   -1.2377   -2.4846 H   0  0  0  0  0  0  0  0  0  0  0  0
    0.8193   -1.2377   -2.4846 H   0  0  0  0  0  0  0  0  0  0  0  0
   -0.0615   -2.7633   -2.4846 H   0  0  0  0  0  0  0  0  0  0  0  0
   -0.0615   -0.5257   -0.0909 H   0  0  0  0  0  0  0  0  0  0  0  0
    0.8193   -2.2548   -0.1701 H   0  0  0  0  0  0  0  0  0  0  0  0
   -0.9424   -2.2548   -0.1701 H   0  0  0  0  0  0  0  0  0  0  0  0
  1  2  1  0
  1  5  1  0
  1  6  1  0
  1  7  1  0
  2  3  1  0
  2  4  1  0
  3  8  1  0
  3  9  1  0
  3 10  1  0
  4 11  1  0
  4 12  1  0
  4 13  1  0
 14 15  1  0
 14 16  1  0
 14 17  1  0
 14 18  1  0
 15 19  1  0
 15 20  1  0
 15 21  1  0
M  RAD  1   2   2
M  END
>  <reaction>  (5) 
rxn_869

>  <mol_properties>  (5) 
{"0": {"label": "*0", "atom_type": "Cs"}, "1": {"label": "*1", "atom_type": "Cs"}, "13": {"label": "*4", "atom_type": "Cs"}, "14": {"label": "*3", "atom_type": "Cs"}, "18": {"label": "*2", "atom_type": "H0"}}

>  <type>  (5) 
unop_1

>  <geom_source>  (5) 
Heuristics

$$$$

     RDKit          3D

 21 19  0  0  0  0  0  0  0  0999 V2000
   -0.6579    1.5196   -0.5324 C   0  0  0  0  0  0  0  0  0  0  0  0
    0.0679    0.6260    0.4688 C   0  0  0  0  0  3  0  0  0  0  0  0
    1.3386    1.2984    0.9799 C   0  0  0  0  0  0  0  0  0  0  0  0
   -0.8506    0.2437    1.6255 C   0  0  0  0  0  0  0  0  0  0  0  0
   -0.0146    1.7729   -1.3777 H   0  0  0  0  0  0  0  0  0  0  0  0
   -1.5530    1.0317   -0.9240 H   0  0  0  0  0  0  0  0  0  0  0  0
   -0.9684    2.4548   -0.0574 H   0  0  0  0  0  0  0  0  0  0  0  0
    1.0966    2.2260    1.5068 H   0  0  0  0  0  0  0  0  0  0  0  0
    2.0135    1.5482    0.1585 H   0  0  0  0  0  0  0  0  0  0  0  0
    1.8780    0.6515    1.6749 H   0  0  0  0  0  0  0  0  0  0  0  0
   -1.7487   -0.2644    1.2681 H   0  0  0  0  0  0  0  0  0  0  0  0
   -0.3458   -0.4198    2.3308 H   0  0  0  0  0  0  0  0  0  0  0  0
   -1.1677    1.1351    2.1746 H   0  0  0  0  0  0  0  0  0  0  0  0
    0.0679   -1.8196   -2.0057 C   0  0  0  0  0  0  0  0  0  0  0  0
    0.0679   -1.8196   -0.4830 C   0  0  0  0  0  0  0  0  0  0  0  0
   -0.8129   -1.3110   -2.4016 H   0  0  0  0  0  0  0  0  0  0  0  0
    0.9488   -1.3110   -2.4016 H   0  0  0  0  0  0  0  0  0  0  0  0
    0.0679   -2.8367   -2.4016 H   0  0  0  0  0  0  0  0  0  0  0  0
    0.0679   -0.5990   -0.0079 H   0  0  0  0  0  0  0  0  0  0  0  0
    0.9488   -2.3281   -0.0871 H   0  0  0  0  0  0  0  0  0  0  0  0
   -0.8129   -2.3281   -0.0871 H   0  0  0  0  0  0  0  0  0  0  0  0
  1  2  1  0
  1  5  1  0
  1  6  1  0
  1  7  1  0
  2  3  1  0
  2  4  1  0
  3  8  1  0
  3  9  1  0
  3 10  1  0
  4 11  1  0
  4 12  1  0
  4 13  1  0
 14 15  1  0
 14 16  1  0
 14 17  1  0
 14 18  1  0
 15 19  1  0
 15 20  1  0
 15 21  1  0
M  RAD  1   2   2
M  END
>  <reaction>  (6) 
rxn_869

>  <mol_properties>  (6) 
{"0": {"label": "*0", "atom_type": "Cs"}, "1": {"label": "*1", "atom_type": "Cs"}, "13": {"label": "*4", "atom_type": "Cs"}, "14": {"label": "*3", "atom_type": "Cs"}, "18": {"label": "*2", "atom_type": "H0"}}

>  <type>  (6) 
unop_2

>  <geom_source>  (6) 
Heuristics

$$$$

     RDKit          3D

 21 19  0  0  0  0  0  0  0  0999 V2000
   -0.8173    0.6302    1.7901 C   0  0  0  0  0  0  0  0  0  0  0  0
   -0.0915    0.6485    0.4482 C   0  0  0  0  0  3  0  0  0  0  0  0
   -0.3599    1.9508   -0.3000 C   0  0  0  0  0  0  0  0  0  0  0  0
    1.4061    0.4244    0.6344 C   0  0  0  0  0  0  0  0  0  0  0  0
   -1.8938    0.7610    1.6611 H   0  0  0  0  0  0  0  0  0  0  0  0
   -0.6528   -0.3117    2.3177 H   0  0  0  0  0  0  0  0  0  0  0  0
   -0.4575    1.4395    2.4322 H   0  0  0  0  0  0  0  0  0  0  0  0
    0.0156    2.8055    0.2702 H   0  0  0  0  0  0  0  0  0  0  0  0
   -1.4291    2.1024   -0.4622 H   0  0  0  0  0  0  0  0  0  0  0  0
    0.1334    1.9578   -1.2743 H   0  0  0  0  0  0  0  0  0  0  0  0
    1.6059   -0.5207    1.1437 H   0  0  0  0  0  0  0  0  0  0  0  0
    1.9273    0.4073   -0.3251 H   0  0  0  0  0  0  0  0  0  0  0  0
    1.8423    1.2267    1.2368 H   0  0  0  0  0  0  0  0  0  0  0  0
   -0.0915   -1.7971   -2.0263 C   0  0  0  0  0  0  0  0  0  0  0  0
   -0.0915   -1.7971   -0.5035 C   0  0  0  0  0  0  0  0  0  0  0  0
   -0.9723   -1.2885   -2.4222 H   0  0  0  0  0  0  0  0  0  0  0  0
    0.7893   -1.2885   -2.4222 H   0  0  0  0  0  0  0  0  0  0  0  0
   -0.0915   -2.8142   -2.4222 H   0  0  0  0  0  0  0  0  0  0  0  0
   -0.0915   -0.5765   -0.0285 H   0  0  0  0  0  0  0  0  0  0  0  0
    0.7893   -2.3056   -0.1077 H   0  0  0  0  0  0  0  0  0  0  0  0
   -0.9723   -2.3056   -0.1077 H   0  0  0  0  0  0  0  0  0  0  0  0
  1  2  1  0
  1  5  1  0
  1  6  1  0
  1  7  1  0
  2  3  1  0
  2  4  1  0
  3  8  1  0
  3  9  1  0
  3 10  1  0
  4 11  1  0
  4 12  1  0
  4 13  1  0
 14 15  1  0
 14 16  1  0
 14 17  1  0
 14 18  1  0
 15 19  1  0
 15 20  1  0
 15 21  1  0
M  RAD  1   2   2
M  END
>  <reaction>  (7) 
rxn_869

>  <mol_properties>  (7) 
{"0": {"label": "*0", "atom_type": "Cs"}, "1": {"label": "*1", "atom_type": "Cs"}, "13": {"label": "*4", "atom_type": "Cs"}, "14": {"label": "*3", "atom_type": "Cs"}, "18": {"label": "*2", "atom_type": "H0"}}

>  <type>  (7) 
unop_3

>  <geom_source>  (7) 
Heuristics

$$$$

     RDKit          3D

 21 19  0  0  0  0  0  0  0  0999 V2000
    1.1836    1.3737   -0.0945 C   0  0  0  0  0  0  0  0  0  0  0  0
   -0.0736    0.6728    0.4116 C   0  0  0  0  0  3  0  0  0  0  0  0
    0.2112   -0.0988    1.6966 C   0  0  0  0  0  0  0  0  0  0  0  0
   -1.2106    1.6698    0.6140 C   0  0  0  0  0  0  0  0  0  0  0  0
    1.9924    0.6611   -0.2691 H   0  0  0  0  0  0  0  0  0  0  0  0
    0.9932    1.9039   -1.0300 H   0  0  0  0  0  0  0  0  0  0  0  0
    1.5362    2.1056    0.6381 H   0  0  0  0  0  0  0  0  0  0  0  0
    0.5304    0.5825    2.4907 H   0  0  0  0  0  0  0  0  0  0  0  0
    1.0046   -0.8348    1.5503 H   0  0  0  0  0  0  0  0  0  0  0  0
   -0.6779   -0.6266    2.0481 H   0  0  0  0  0  0  0  0  0  0  0  0
   -1.4389    2.2047   -0.3103 H   0  0  0  0  0  0  0  0  0  0  0  0
   -2.1222    1.1699    0.9483 H   0  0  0  0  0  0  0  0  0  0  0  0
   -0.9402    2.4119    1.3708 H   0  0  0  0  0  0  0  0  0  0  0  0
   -0.0736   -1.7728   -2.0630 C   0  0  0  0  0  0  0  0  0  0  0  0
   -0.0736   -1.7728   -0.5402 C   0  0  0  0  0  0  0  0  0  0  0  0
   -0.9544   -1.2642   -2.4588 H   0  0  0  0  0  0  0  0  0  0  0  0
    0.8073   -1.2642   -2.4588 H   0  0  0  0  0  0  0  0  0  0  0  0
   -0.0736   -2.7899   -2.4588 H   0  0  0  0  0  0  0  0  0  0  0  0
   -0.0736   -0.5522   -0.0652 H   0  0  0  0  0  0  0  0  0  0  0  0
    0.8073   -2.2813   -0.1443 H   0  0  0  0  0  0  0  0  0  0  0  0
   -0.9544   -2.2813   -0.1443 H   0  0  0  0  0  0  0  0  0  0  0  0
  1  2  1  0
  1  5  1  0
  1  6  1  0
  1  7  1  0
  2  3  1  0
  2  4  1  0
  3  8  1  0
  3  9  1  0
  3 10  1  0
  4 11  1  0
  4 12  1  0
  4 13  1  0
 14 15  1  0
 14 16  1  0
 14 17  1  0
 14 18  1  0
 15 19  1  0
 15 20  1  0
 15 21  1  0
M  RAD  1   2   2
M  END
>  <reaction>  (8) 
rxn_869

>  <mol_properties>  (8) 
{"0": {"label": "*0", "atom_type": "Cs"}, "1": {"label": "*1", "atom_type": "Cs"}, "13": {"label": "*4", "atom_type": "Cs"}, "14": {"label": "*3", "atom_type": "Cs"}, "18": {"label": "*2", "atom_type": "H0"}}

>  <type>  (8) 
unop_4

>  <geom_source>  (8) 
Heuristics

$$$$

     RDKit          3D

 21 19  0  0  0  0  0  0  0  0999 V2000
   -0.0000    0.5137    2.0202 C   0  0  0  0  0  0  0  0  0  0  0  0
   -0.0000    0.6025    0.4971 C   0  0  0  0  0  3  0  0  0  0  0  0
   -1.2572    1.3034   -0.0090 C   0  0  0  0  0  0  0  0  0  0  0  0
    1.2572    1.3034   -0.0090 C   0  0  0  0  0  0  0  0  0  0  0  0
   -0.8834   -0.0130    2.3872 H   0  0  0  0  0  0  0  0  0  0  0  0
    0.8834   -0.0130    2.3872 H   0  0  0  0  0  0  0  0  0  0  0  0
    0.0000    1.5140    2.4630 H   0  0  0  0  0  0  0  0  0  0  0  0
   -1.3003    2.3308    0.3641 H   0  0  0  0  0  0  0  0  0  0  0  0
   -2.1605    0.7892    0.3259 H   0  0  0  0  0  0  0  0  0  0  0  0
   -1.2770    1.3442   -1.1001 H   0  0  0  0  0  0  0  0  0  0  0  0
    2.1605    0.7892    0.3259 H   0  0  0  0  0  0  0  0  0  0  0  0
    1.2771    1.3442   -1.1001 H   0  0  0  0  0  0  0  0  0  0  0  0
    1.3003    2.3308    0.3642 H   0  0  0  0  0  0  0  0  0  0  0  0
   -0.0000   -1.8431   -1.9775 C   0  0  0  0  0  0  0  0  0  0  0  0
   -0.0000   -1.8431   -0.4547 C   0  0  0  0  0  0  0  0  0  0  0  0
   -0.8808   -1.3345   -2.3733 H   0  0  0  0  0  0  0  0  0  0  0  0
    0.8808   -1.3345   -2.3733 H   0  0  0  0  0  0  0  0  0  0  0  0
   -0.0000   -2.8602   -2.3733 H   0  0  0  0  0  0  0  0  0  0  0  0
   -0.0000   -0.6225    0.0203 H   0  0  0  0  0  0  0  0  0  0  0  0
    0.8808   -2.3516   -0.0588 H   0  0  0  0  0  0  0  0  0  0  0  0
   -0.8808   -2.3516   -0.0588 H   0  0  0  0  0  0  0  0  0  0  0  0
  1  2  1  0
  1  5  1  0
  1  6  1  0
  1  7  1  0
  2  3  1  0
  2  4  1  0
  3  8  1  0
  3  9  1  0
  3 10  1  0
  4 11  1  0
  4 12  1  0
  4 13  1  0
 14 15  1  0
 14 16  1  0
 14 17  1  0
 14 18  1  0
 15 19  1  0
 15 20  1  0
 15 21  1  0
M  RAD  1   2   2
M  END
>  <reaction>  (9) 
rxn_869

>  <mol_properties>  (9) 
{"0": {"label": "*0", "atom_type": "Cs"}, "1": {"label": "*1", "atom_type": "Cs"}, "13": {"label": "*4", "atom_type": "Cs"}, "14": {"label": "*3", "atom_type": "Cs"}, "18": {"label": "*2", "atom_type": "H0"}}

>  <type>  (9) 
unop_5

>  <geom_source>  (9) 
Heuristics

$$$$

     RDKit          3D

 21 19  0  0  0  0  0  0  0  0999 V2000
    1.4352    1.1426    0.5441 C   0  0  0  0  0  0  0  0  0  0  0  0
   -0.0164    0.7050    0.3737 C   0  0  0  0  0  3  0  0  0  0  0  0
   -0.4554   -0.1915    1.5276 C   0  0  0  0  0  0  0  0  0  0  0  0
   -0.9387    1.9129    0.2393 C   0  0  0  0  0  0  0  0  0  0  0  0
    2.1041    0.2820    0.6116 H   0  0  0  0  0  0  0  0  0  0  0  0
    1.7644    1.7608   -0.2938 H   0  0  0  0  0  0  0  0  0  0  0  0
    1.5541    1.7301    1.4592 H   0  0  0  0  0  0  0  0  0  0  0  0
   -0.4015    0.3502    2.4765 H   0  0  0  0  0  0  0  0  0  0  0  0
    0.1834   -1.0732    1.6106 H   0  0  0  0  0  0  0  0  0  0  0  0
   -1.4848   -0.5319    1.3964 H   0  0  0  0  0  0  0  0  0  0  0  0
   -0.6471    2.5433   -0.6033 H   0  0  0  0  0  0  0  0  0  0  0  0
   -1.9757    1.6058    0.0878 H   0  0  0  0  0  0  0  0  0  0  0  0
   -0.9013    2.5269    1.1440 H   0  0  0  0  0  0  0  0  0  0  0  0
   -0.0164   -1.7406   -2.1008 C   0  0  0  0  0  0  0  0  0  0  0  0
   -0.0164   -1.7406   -0.5781 C   0  0  0  0  0  0  0  0  0  0  0  0
   -0.8973   -1.2320   -2.4967 H   0  0  0  0  0  0  0  0  0  0  0  0
    0.8644   -1.2320   -2.4967 H   0  0  0  0  0  0  0  0  0  0  0  0
   -0.0164   -2.7577   -2.4967 H   0  0  0  0  0  0  0  0  0  0  0  0
   -0.0164   -0.5200   -0.1030 H   0  0  0  0  0  0  0  0  0  0  0  0
    0.8644   -2.2491   -0.1822 H   0  0  0  0  0  0  0  0  0  0  0  0
   -0.8973   -2.2491   -0.1822 H   0  0  0  0  0  0  0  0  0  0  0  0
  1  2  1  0
  1  5  1  0
  1  6  1  0
  1  7  1  0
  2  3  1  0
  2  4  1  0
  3  8  1  0
  3  9  1  0
  3 10  1  0
  4 11  1  0
  4 12  1  0
  4 13  1  0
 14 15  1  0
 14 16  1  0
 14 17  1  0
 14 18  1  0
 15 19  1  0
 15 20  1  0
 15 21  1  0
M  RAD  1   2   2
M  END
>  <reaction>  (10) 
rxn_869

>  <mol_properties>  (10) 
{"0": {"label": "*0", "atom_type": "Cs"}, "1": {"label": "*1", "atom_type": "Cs"}, "13": {"label": "*4", "atom_type": "Cs"}, "14": {"label": "*3", "atom_type": "Cs"}, "18": {"label": "*2", "atom_type": "H0"}}

>  <type>  (10) 
unop_6

>  <geom_source>  (10) 
Heuristics

$$$$

     RDKit          3D

 21 19  0  0  0  0  0  0  0  0999 V2000
    1.3187    0.8737    1.2325 C   0  0  0  0  0  0  0  0  0  0  0  0
    0.0615    0.6993    0.3858 C   0  0  0  0  0  3  0  0  0  0  0  0
   -1.0220   -0.0419    1.1632 C   0  0  0  0  0  0  0  0  0  0  0  0
   -0.4506    2.0464   -0.1151 C   0  0  0  0  0  0  0  0  0  0  0  0
    1.7069   -0.0896    1.5700 H   0  0  0  0  0  0  0  0  0  0  0  0
    2.1084    1.3779    0.6716 H   0  0  0  0  0  0  0  0  0  0  0  0
    1.1032    1.4760    2.1200 H   0  0  0  0  0  0  0  0  0  0  0  0
   -1.3178    0.5289    2.0483 H   0  0  0  0  0  0  0  0  0  0  0  0
   -0.6708   -1.0197    1.4996 H   0  0  0  0  0  0  0  0  0  0  0  0
   -1.9141   -0.1956    0.5525 H   0  0  0  0  0  0  0  0  0  0  0  0
    0.3111    2.5691   -0.6974 H   0  0  0  0  0  0  0  0  0  0  0  0
   -1.3337    1.9257   -0.7461 H   0  0  0  0  0  0  0  0  0  0  0  0
   -0.7269    2.6889    0.7261 H   0  0  0  0  0  0  0  0  0  0  0  0
    0.0615   -1.7462   -2.0887 C   0  0  0  0  0  0  0  0  0  0  0  0
    0.0615   -1.7462   -0.5660 C   0  0  0  0  0  0  0  0  0  0  0  0
   -0.8193   -1.2377   -2.4846 H   0  0  0  0  0  0  0  0  0  0  0  0
    0.9424   -1.2377   -2.4846 H   0  0  0  0  0  0  0  0  0  0  0  0
    0.0615   -2.7633   -2.4846 H   0  0  0  0  0  0  0  0  0  0  0  0
    0.0615   -0.5257   -0.0909 H   0  0  0  0  0  0  0  0  0  0  0  0
    0.9424   -2.2548   -0.1701 H   0  0  0  0  0  0  0  0  0  0  0  0
   -0.8193   -2.2548   -0.1701 H   0  0  0  0  0  0  0  0  0  0  0  0
  1  2  1  0
  1  5  1  0
  1  6  1  0
  1  7  1  0
  2  3  1  0
  2  4  1  0
  3  8  1  0
  3  9  1  0
  3 10  1  0
  4 11  1  0
  4 12  1  0
  4 13  1  0
 14 15  1  0
 14 16  1  0
 14 17  1  0
 14 18  1  0
 15 19  1  0
 15 20  1  0
 15 21  1  0
M  RAD  1   2   2
M  END
>  <reaction>  (11) 
rxn_869

>  <mol_properties>  (11) 
{"0": {"label": "*0", "atom_type": "Cs"}, "1": {"label": "*1", "atom_type": "Cs"}, "13": {"label": "*4", "atom_type": "Cs"}, "14": {"label": "*3", "atom_type": "Cs"}, "18": {"label": "*2", "atom_type": "H0"}}

>  <type>  (11) 
unop_7

>  <geom_source>  (11) 
Heuristics

$$$$

     RDKit          3D

 21 19  0  0  0  0  0  0  0  0999 V2000
   -1.4352    1.1426    0.5440 C   0  0  0  0  0  0  0  0  0  0  0  0
    0.0164    0.7050    0.3737 C   0  0  0  0  0  3  0  0  0  0  0  0
    0.9387    1.9129    0.2393 C   0  0  0  0  0  0  0  0  0  0  0  0
    0.4554   -0.1915    1.5276 C   0  0  0  0  0  0  0  0  0  0  0  0
   -1.7644    1.7609   -0.2937 H   0  0  0  0  0  0  0  0  0  0  0  0
   -2.1040    0.2820    0.6115 H   0  0  0  0  0  0  0  0  0  0  0  0
   -1.5541    1.7301    1.4592 H   0  0  0  0  0  0  0  0  0  0  0  0
    0.9014    2.5269    1.1440 H   0  0  0  0  0  0  0  0  0  0  0  0
    0.6471    2.5433   -0.6033 H   0  0  0  0  0  0  0  0  0  0  0  0
    1.9757    1.6058    0.0878 H   0  0  0  0  0  0  0  0  0  0  0  0
   -0.1835   -1.0732    1.6106 H   0  0  0  0  0  0  0  0  0  0  0  0
    1.4847   -0.5319    1.3965 H   0  0  0  0  0  0  0  0  0  0  0  0
    0.4014    0.3502    2.4765 H   0  0  0  0  0  0  0  0  0  0  0  0
    0.0164   -1.7406   -2.1008 C   0  0  0  0  0  0  0  0  0  0  0  0
    0.0164   -1.7406   -0.5781 C   0  0  0  0  0  0  0  0  0  0  0  0
   -0.8644   -1.2320   -2.4967 H   0  0  0  0  0  0  0  0  0  0  0  0
    0.8973   -1.2320   -2.4967 H   0  0  0  0  0  0  0  0  0  0  0  0
    0.0164   -2.7577   -2.4967 H   0  0  0  0  0  0  0  0  0  0  0  0
    0.0164   -0.5200   -0.1030 H   0  0  0  0  0  0  0  0  0  0  0  0
    0.8973   -2.2491   -0.1822 H   0  0  0  0  0  0  0  0  0  0  0  0
   -0.8644   -2.2491   -0.1822 H   0  0  0  0  0  0  0  0  0  0  0  0
  1  2  1  0
  1  5  1  0
  1  6  1  0
  1  7  1  0
  2  3  1  0
  2  4  1  0
  3  8  1  0
  3  9  1  0
  3 10  1  0
  4 11  1  0
  4 12  1  0
  4 13  1  0
 14 15  1  0
 14 16  1  0
 14 17  1  0
 14 18  1  0
 15 19  1  0
 15 20  1  0
 15 21  1  0
M  RAD  1   2   2
M  END
>  <reaction>  (12) 
rxn_869

>  <mol_properties>  (12) 
{"0": {"label": "*0", "atom_type": "Cs"}, "1": {"label": "*1", "atom_type": "Cs"}, "13": {"label": "*4", "atom_type": "Cs"}, "14": {"label": "*3", "atom_type": "Cs"}, "18": {"label": "*2", "atom_type": "H0"}}

>  <type>  (12) 
unop_8

>  <geom_source>  (12) 
Heuristics

$$$$

     RDKit          3D

 21 19  0  0  0  0  0  0  0  0999 V2000
    0.6579    1.5196   -0.5324 C   0  0  0  0  0  0  0  0  0  0  0  0
   -0.0679    0.6260    0.4688 C   0  0  0  0  0  3  0  0  0  0  0  0
    0.8506    0.2437    1.6255 C   0  0  0  0  0  0  0  0  0  0  0  0
   -1.3386    1.2984    0.9799 C   0  0  0  0  0  0  0  0  0  0  0  0
    1.5530    1.0317   -0.9240 H   0  0  0  0  0  0  0  0  0  0  0  0
    0.0146    1.7729   -1.3777 H   0  0  0  0  0  0  0  0  0  0  0  0
    0.9684    2.4549   -0.0574 H   0  0  0  0  0  0  0  0  0  0  0  0
    1.1677    1.1351    2.1746 H   0  0  0  0  0  0  0  0  0  0  0  0
    1.7487   -0.2644    1.2681 H   0  0  0  0  0  0  0  0  0  0  0  0
    0.3457   -0.4198    2.3308 H   0  0  0  0  0  0  0  0  0  0  0  0
   -2.0135    1.5482    0.1585 H   0  0  0  0  0  0  0  0  0  0  0  0
   -1.8780    0.6516    1.6749 H   0  0  0  0  0  0  0  0  0  0  0  0
   -1.0966    2.2261    1.5067 H   0  0  0  0  0  0  0  0  0  0  0  0
   -0.0679   -1.8196   -2.0057 C   0  0  0  0  0  0  0  0  0  0  0  0
   -0.0679   -1.8196   -0.4830 C   0  0  0  0  0  0  0  0  0  0  0  0
   -0.9488   -1.3110   -2.4016 H   0  0  0  0  0  0  0  0  0  0  0  0
    0.8129   -1.3110   -2.4016 H   0  0  0  0  0  0  0  0  0  0  0  0
   -0.0679   -2.8367   -2.4016 H   0  0  0  0  0  0  0  0  0  0  0  0
   -0.0679   -0.5990   -0.0079 H   0  0  0  0  0  0  0  0  0  0  0  0
    0.8129   -2.3281   -0.0871 H   0  0  0  0  0  0  0  0  0  0  0  0
   -0.9488   -2.3281   -0.0871 H   0  0  0  0  0  0  0  0  0  0  0  0
  1  2  1  0
  1  5  1  0
  1  6  1  0
  1  7  1  0
  2  3  1  0
  2  4  1  0
  3  8  1  0
  3  9  1  0
  3 10  1  0
  4 11  1  0
  4 12  1  0
  4 13  1  0
 14 15  1  0
 14 16  1  0
 14 17  1  0
 14 18  1  0
 15 19  1  0
 15 20  1  0
 15 21  1  0
M  RAD  1   2   2
M  END
>  <reaction>  (13) 
rxn_869

>  <mol_properties>  (13) 
{"0": {"label": "*0", "atom_type": "Cs"}, "1": {"label": "*1", "atom_type": "Cs"}, "13": {"label": "*4", "atom_type": "Cs"}, "14": {"label": "*3", "atom_type": "Cs"}, "18": {"label": "*2", "atom_type": "H0"}}

>  <type>  (13) 
unop_9

>  <geom_source>  (13) 
Heuristics

$$$$

     RDKit          3D

 21 19  0  0  0  0  0  0  0  0999 V2000
   -1.1836    1.3737   -0.0945 C   0  0  0  0  0  0  0  0  0  0  0  0
    0.0736    0.6728    0.4116 C   0  0  0  0  0  3  0  0  0  0  0  0
    1.2107    1.6697    0.6140 C   0  0  0  0  0  0  0  0  0  0  0  0
   -0.2112   -0.0988    1.6966 C   0  0  0  0  0  0  0  0  0  0  0  0
   -0.9932    1.9039   -1.0299 H   0  0  0  0  0  0  0  0  0  0  0  0
   -1.9924    0.6611   -0.2691 H   0  0  0  0  0  0  0  0  0  0  0  0
   -1.5362    2.1056    0.6381 H   0  0  0  0  0  0  0  0  0  0  0  0
    0.9403    2.4119    1.3709 H   0  0  0  0  0  0  0  0  0  0  0  0
    1.4389    2.2047   -0.3103 H   0  0  0  0  0  0  0  0  0  0  0  0
    2.1222    1.1699    0.9483 H   0  0  0  0  0  0  0  0  0  0  0  0
   -1.0046   -0.8347    1.5503 H   0  0  0  0  0  0  0  0  0  0  0  0
    0.6778   -0.6267    2.0481 H   0  0  0  0  0  0  0  0  0  0  0  0
   -0.5304    0.5825    2.4907 H   0  0  0  0  0  0  0  0  0  0  0  0
    0.0736   -1.7728   -2.0630 C   0  0  0  0  0  0  0  0  0  0  0  0
    0.0736   -1.7728   -0.5402 C   0  0  0  0  0  0  0  0  0  0  0  0
   -0.8073   -1.2642   -2.4588 H   0  0  0  0  0  0  0  0  0  0  0  0
    0.9544   -1.2642   -2.4588 H   0  0  0  0  0  0  0  0  0  0  0  0
    0.0736   -2.7899   -2.4588 H   0  0  0  0  0  0  0  0  0  0  0  0
    0.0736   -0.5522   -0.0652 H   0  0  0  0  0  0  0  0  0  0  0  0
    0.9544   -2.2813   -0.1443 H   0  0  0  0  0  0  0  0  0  0  0  0
   -0.8073   -2.2813   -0.1443 H   0  0  0  0  0  0  0  0  0  0  0  0
  1  2  1  0
  1  5  1  0
  1  6  1  0
  1  7  1  0
  2  3  1  0
  2  4  1  0
  3  8  1  0
  3  9  1  0
  3 10  1  0
  4 11  1  0
  4 12  1  0
  4 13  1  0
 14 15  1  0
 14 16  1  0
 14 17  1  0
 14 18  1  0
 15 19  1  0
 15 20  1  0
 15 21  1  0
M  RAD  1   2   2
M  END
>  <reaction>  (14) 
rxn_869

>  <mol_properties>  (14) 
{"0": {"label": "*0", "atom_type": "Cs"}, "1": {"label": "*1", "atom_type": "Cs"}, "13": {"label": "*4", "atom_type": "Cs"}, "14": {"label": "*3", "atom_type": "Cs"}, "18": {"label": "*2", "atom_type": "H0"}}

>  <type>  (14) 
unop_10

>  <geom_source>  (14) 
Heuristics

$$$$

     RDKit          3D

 21 19  0  0  0  0  0  0  0  0999 V2000
    0.8173    0.6302    1.7901 C   0  0  0  0  0  0  0  0  0  0  0  0
    0.0915    0.6485    0.4482 C   0  0  0  0  0  3  0  0  0  0  0  0
   -1.4061    0.4244    0.6344 C   0  0  0  0  0  0  0  0  0  0  0  0
    0.3599    1.9508   -0.3000 C   0  0  0  0  0  0  0  0  0  0  0  0
    0.6527   -0.3117    2.3177 H   0  0  0  0  0  0  0  0  0  0  0  0
    1.8938    0.7609    1.6611 H   0  0  0  0  0  0  0  0  0  0  0  0
    0.4575    1.4395    2.4321 H   0  0  0  0  0  0  0  0  0  0  0  0
   -1.8423    1.2267    1.2367 H   0  0  0  0  0  0  0  0  0  0  0  0
   -1.6059   -0.5207    1.1437 H   0  0  0  0  0  0  0  0  0  0  0  0
   -1.9273    0.4073   -0.3251 H   0  0  0  0  0  0  0  0  0  0  0  0
    1.4291    2.1024   -0.4621 H   0  0  0  0  0  0  0  0  0  0  0  0
   -0.1334    1.9578   -1.2743 H   0  0  0  0  0  0  0  0  0  0  0  0
   -0.0156    2.8055    0.2703 H   0  0  0  0  0  0  0  0  0  0  0  0
    0.0915   -1.7971   -2.0263 C   0  0  0  0  0  0  0  0  0  0  0  0
    0.0915   -1.7971   -0.5035 C   0  0  0  0  0  0  0  0  0  0  0  0
   -0.7893   -1.2885   -2.4222 H   0  0  0  0  0  0  0  0  0  0  0  0
    0.9723   -1.2885   -2.4222 H   0  0  0  0  0  0  0  0  0  0  0  0
    0.0915   -2.8142   -2.4222 H   0  0  0  0  0  0  0  0  0  0  0  0
    0.0915   -0.5765   -0.0285 H   0  0  0  0  0  0  0  0  0  0  0  0
    0.9723   -2.3056   -0.1077 H   0  0  0  0  0  0  0  0  0  0  0  0
   -0.7893   -2.3056   -0.1077 H   0  0  0  0  0  0  0  0  0  0  0  0
  1  2  1  0
  1  5  1  0
  1  6  1  0
  1  7  1  0
  2  3  1  0
  2  4  1  0
  3  8  1  0
  3  9  1  0
  3 10  1  0
  4 11  1  0
  4 12  1  0
  4 13  1  0
 14 15  1  0
 14 16  1  0
 14 17  1  0
 14 18  1  0
 15 19  1  0
 15 20  1  0
 15 21  1  0
M  RAD  1   2   2
M  END
>  <reaction>  (15) 
rxn_869

>  <mol_properties>  (15) 
{"0": {"label": "*0", "atom_type": "Cs"}, "1": {"label": "*1", "atom_type": "Cs"}, "13": {"label": "*4", "atom_type": "Cs"}, "14": {"label": "*3", "atom_type": "Cs"}, "18": {"label": "*2", "atom_type": "H0"}}

>  <type>  (15) 
unop_11

>  <geom_source>  (15) 
Heuristics

$$$$

     RDKit          3D

 21 19  0  0  0  0  0  0  0  0999 V2000
    0.0000    1.5666   -0.6854 C   0  0  0  0  0  0  0  0  0  0  0  0
    0.0000    0.6025    0.4971 C   0  0  0  0  0  3  0  0  0  0  0  0
    1.2572    0.7769    1.3438 C   0  0  0  0  0  0  0  0  0  0  0  0
   -1.2572    0.7769    1.3438 C   0  0  0  0  0  0  0  0  0  0  0  0
    0.8834    1.4266   -1.3118 H   0  0  0  0  0  0  0  0  0  0  0  0
   -0.8834    1.4266   -1.3118 H   0  0  0  0  0  0  0  0  0  0  0  0
   -0.0000    2.6031   -0.3355 H   0  0  0  0  0  0  0  0  0  0  0  0
    1.3003    1.7862    1.7634 H   0  0  0  0  0  0  0  0  0  0  0  0
    2.1605    0.6243    0.7495 H   0  0  0  0  0  0  0  0  0  0  0  0
    1.2770    0.0694    2.1754 H   0  0  0  0  0  0  0  0  0  0  0  0
   -2.1605    0.6244    0.7495 H   0  0  0  0  0  0  0  0  0  0  0  0
   -1.2771    0.0694    2.1754 H   0  0  0  0  0  0  0  0  0  0  0  0
   -1.3003    1.7863    1.7634 H   0  0  0  0  0  0  0  0  0  0  0  0
    0.0000   -1.8431   -1.9775 C   0  0  0  0  0  0  0  0  0  0  0  0
    0.0000   -1.8431   -0.4547 C   0  0  0  0  0  0  0  0  0  0  0  0
   -0.8808   -1.3345   -2.3733 H   0  0  0  0  0  0  0  0  0  0  0  0
    0.8808   -1.3345   -2.3733 H   0  0  0  0  0  0  0  0  0  0  0  0
   -0.0000   -2.8602   -2.3733 H   0  0  0  0  0  0  0  0  0  0  0  0
    0.0000   -0.6225    0.0203 H   0  0  0  0  0  0  0  0  0  0  0  0
    0.8808   -2.3516   -0.0588 H   0  0  0  0  0  0  0  0  0  0  0  0
   -0.8808   -2.3516   -0.0588 H   0  0  0  0  0  0  0  0  0  0  0  0
  1  2  1  0
  1  5  1  0
  1  6  1  0
  1  7  1  0
  2  3  1  0
  2  4  1  0
  3  8  1  0
  3  9  1  0
  3 10  1  0
  4 11  1  0
  4 12  1  0
  4 13  1  0
 14 15  1  0
 14 16  1  0
 14 17  1  0
 14 18  1  0
 15 19  1  0
 15 20  1  0
 15 21  1  0
M  RAD  1   2   2
M  END
>  <reaction>  (16) 
rxn_869

>  <mol_properties>  (16) 
{"0": {"label": "*0", "atom_type": "Cs"}, "1": {"label": "*1", "atom_type": "Cs"}, "13": {"label": "*4", "atom_type": "Cs"}, "14": {"label": "*3", "atom_type": "Cs"}, "18": {"label": "*2", "atom_type": "H0"}}

>  <type>  (16) 
unop_12

>  <geom_source>  (16) 
Heuristics

$$$$

     RDKit          3D

 21 19  0  0  0  0  0  0  0  0999 V2000
   -0.8443   -0.1539   -0.1548 C   0  0  0  0  0  3  0  0  0  0  0  0
   -1.6816   -0.2091   -1.4358 C   0  0  0  0  0  0  0  0  0  0  0  0
   -0.9650    1.2193    0.5122 C   0  0  0  0  0  0  0  0  0  0  0  0
   -1.2617   -1.2646    0.8132 C   0  0  0  0  0  0  0  0  0  0  0  0
    2.6815    0.5631    0.5443 C   0  0  0  0  0  0  0  0  0  0  0  0
    1.7434   -0.2487   -0.3296 C   0  0  0  0  0  0  0  0  0  0  0  0
    0.4779   -0.3532   -0.4952 H   0  0  0  0  0  0  0  0  0  0  0  0
   -1.3441    0.5764   -2.1446 H   0  0  0  0  0  0  0  0  0  0  0  0
   -1.5559   -1.1958   -1.9298 H   0  0  0  0  0  0  0  0  0  0  0  0
   -2.7585   -0.0530   -1.2094 H   0  0  0  0  0  0  0  0  0  0  0  0
   -0.3241    1.2593    1.4183 H   0  0  0  0  0  0  0  0  0  0  0  0
   -2.0174    1.4239    0.8047 H   0  0  0  0  0  0  0  0  0  0  0  0
   -0.6237    2.0124   -0.1864 H   0  0  0  0  0  0  0  0  0  0  0  0
   -0.6225   -1.2377    1.7210 H   0  0  0  0  0  0  0  0  0  0  0  0
   -2.3243   -1.1444    1.1160 H   0  0  0  0  0  0  0  0  0  0  0  0
   -1.1338   -2.2569    0.3311 H   0  0  0  0  0  0  0  0  0  0  0  0
    2.4035    1.6363    0.4917 H   0  0  0  0  0  0  0  0  0  0  0  0
    3.7280    0.4372    0.1951 H   0  0  0  0  0  0  0  0  0  0  0  0
    2.6015    0.2186    1.5963 H   0  0  0  0  0  0  0  0  0  0  0  0
    1.8112    0.0961   -1.3829 H   0  0  0  0  0  0  0  0  0  0  0  0
    2.0097   -1.3253   -0.2755 H   0  0  0  0  0  0  0  0  0  0  0  0
  1  2  1  0
  1  3  1  0
  1  4  1  0
  2  8  1  0
  2  9  1  0
  2 10  1  0
  3 11  1  0
  3 12  1  0
  3 13  1  0
  4 14  1  0
  4 15  1  0
  4 16  1  0
  5  6  1  0
  5 17  1  0
  5 18  1  0
  5 19  1  0
  6  7  1  0
  6 20  1  0
  6 21  1  0
M  RAD  1   1   2
M  END
>  <reaction>  (17) 
rxn_869

>  <mol_properties>  (17) 
{"0": {"label": "*0", "atom_type": "Cs"}, "1": {"label": "*1", "atom_type": "Cs"}, "13": {"label": "*4", "atom_type": "Cs"}, "14": {"label": "*3", "atom_type": "Cs"}, "18": {"label": "*2", "atom_type": "H0"}}

>  <type>  (17) 
unop_13

>  <geom_source>  (17) 
AutoTST

$$$$
