
     RDKit          3D

  7  6  0  0  0  0  0  0  0  0999 V2000
   -0.6468   -0.0443   -0.0231 C   0  0  0  0  0  0  0  0  0  0  0  0
    0.8470    0.0371    0.0688 C   0  0  0  0  0  0  0  0  0  0  0  0
    1.4866   -0.2280    1.0479 O   0  0  0  0  0  0  0  0  0  0  0  0
   -1.0466    0.9363   -0.2943 H   0  0  0  0  0  0  0  0  0  0  0  0
   -0.9229   -0.7318   -0.8269 H   0  0  0  0  0  0  0  0  0  0  0  0
   -1.0759   -0.3772    0.9198 H   0  0  0  0  0  0  0  0  0  0  0  0
    1.3584    0.3712   -0.8589 H   0  0  0  0  0  0  0  0  0  0  0  0
  1  2  1  0
  1  4  1  0
  1  5  1  0
  1  6  1  0
  2  3  2  0
  2  7  1  0
M  END
>  <reaction>  (1) 
rxn_377

>  <mol_properties>  (1) 
{"1": {"label": "donator", "atom_type": "CO"}, "6": {"label": "d_hydrogen", "atom_type": "H0"}}

>  <type>  (1) 
r1h

$$$$

     RDKit          3D

  3  2  0  0  0  0  0  0  0  0999 V2000
    0.9943   -0.1797    0.0000 O   0  0  0  0  0  1  0  0  0  0  0  0
   -0.1595    0.4394    0.0000 O   0  0  0  0  0  0  0  0  0  0  0  0
   -0.8348   -0.2597    0.0000 H   0  0  0  0  0  0  0  0  0  0  0  0
  1  2  1  0
  2  3  1  0
M  RAD  1   1   2
M  END
>  <reaction>  (2) 
rxn_377

>  <mol_properties>  (2) 
{"0": {"label": "acceptor", "atom_type": "O2s"}}

>  <type>  (2) 
r2

$$$$

     RDKit          3D

  4  3  0  0  0  0  0  0  0  0999 V2000
    0.5949   -0.3853    0.2659 O   0  0  0  0  0  0  0  0  0  0  0  0
   -0.5918    0.4028    0.2462 O   0  0  0  0  0  0  0  0  0  0  0  0
    1.1865    0.1539   -0.2689 H   0  0  0  0  0  0  0  0  0  0  0  0
   -1.1896   -0.1714   -0.2432 H   0  0  0  0  0  0  0  0  0  0  0  0
  1  2  1  0
  1  3  1  0
  2  4  1  0
M  END
>  <reaction>  (3) 
rxn_377

>  <mol_properties>  (3) 
{"0": {"label": "acceptor", "atom_type": "O2s"}, "3": {"label": "a_hydrogen", "atom_type": "H0"}}

>  <type>  (3) 
r2h

$$$$

     RDKit          3D

 10  8  0  0  0  0  0  0  0  0999 V2000
    0.0279   -1.5525    0.5358 O   0  0  0  0  0  0  0  0  0  0  0  0
    0.8840   -1.2629    1.5771 O   0  0  0  0  0  0  0  0  0  0  0  0
    0.2907   -1.0107    2.2952 H   0  0  0  0  0  0  0  0  0  0  0  0
   -0.3376    0.7975   -2.0252 C   0  0  0  0  0  0  0  0  0  0  0  0
   -0.1191    0.7329   -0.5426 C   0  0  0  0  0  3  0  0  0  0  0  0
    0.0288    1.6317    0.2110 O   0  0  0  0  0  0  0  0  0  0  0  0
    0.4639    0.2412   -2.5139 H   0  0  0  0  0  0  0  0  0  0  0  0
   -1.2736    0.2888   -2.2615 H   0  0  0  0  0  0  0  0  0  0  0  0
   -0.3599    1.8296   -2.3724 H   0  0  0  0  0  0  0  0  0  0  0  0
   -0.0762   -0.4795   -0.0625 H   0  0  0  0  0  0  0  0  0  0  0  0
  1  2  1  0
  1 10  1  0
  2  3  1  0
  4  5  1  0
  4  7  1  0
  4  8  1  0
  4  9  1  0
  5  6  2  0
M  RAD  1   5   2
M  END
>  <reaction>  (4) 
rxn_377

>  <mol_properties>  (4) 
{"0": {"label": "*1", "atom_type": "O2s"}, "1": {"label": "*0", "atom_type": "O2s"}, "4": {"label": "*3", "atom_type": "CO"}, "5": {"label": "*4", "atom_type": "O2d"}, "9": {"label": "*2", "atom_type": "H0"}}

>  <type>  (4) 
ts

$$$$

     RDKit          3D

 10  8  0  0  0  0  0  0  0  0999 V2000
   -0.2639   -1.4936    0.5854 O   0  0  0  0  0  0  0  0  0  0  0  0
    0.9464   -1.4481    1.3356 O   0  0  0  0  0  0  0  0  0  0  0  0
    0.6934   -0.8720    2.0641 H   0  0  0  0  0  0  0  0  0  0  0  0
   -0.2639    0.7598   -1.9682 C   0  0  0  0  0  0  0  0  0  0  0  0
   -0.2639    0.7598   -0.4694 C   0  0  0  0  0  3  0  0  0  0  0  0
   -0.2639    1.7454    0.2137 O   0  0  0  0  0  0  0  0  0  0  0  0
    0.6139    0.2178   -2.3300 H   0  0  0  0  0  0  0  0  0  0  0  0
   -1.1415    0.2178   -2.3300 H   0  0  0  0  0  0  0  0  0  0  0  0
   -0.2639    1.7763   -2.3561 H   0  0  0  0  0  0  0  0  0  0  0  0
   -0.2639   -0.4474    0.0957 H   0  0  0  0  0  0  0  0  0  0  0  0
  1  2  1  0
  1 10  1  0
  2  3  1  0
  4  5  1  0
  4  7  1  0
  4  8  1  0
  4  9  1  0
  5  6  2  0
M  RAD  1   5   2
M  END
>  <reaction>  (5) 
rxn_377

>  <mol_properties>  (5) 
{"0": {"label": "*1", "atom_type": "O2s"}, "1": {"label": "*0", "atom_type": "O2s"}, "4": {"label": "*3", "atom_type": "CO"}, "5": {"label": "*4", "atom_type": "O2d"}, "9": {"label": "*2", "atom_type": "H0"}}

>  <type>  (5) 
unop_1

>  <geom_source>  (5) 
Heuristics

$$$$

     RDKit          3D

 10  8  0  0  0  0  0  0  0  0999 V2000
   -0.1661   -1.3081    0.9723 O   0  0  0  0  0  0  0  0  0  0  0  0
    0.5327   -2.0719   -0.0065 O   0  0  0  0  0  0  0  0  0  0  0  0
    1.4356   -2.0163    0.3225 H   0  0  0  0  0  0  0  0  0  0  0  0
   -0.1661    0.9452   -1.5813 C   0  0  0  0  0  0  0  0  0  0  0  0
   -0.1661    0.9452   -0.0825 C   0  0  0  0  0  3  0  0  0  0  0  0
   -0.1661    1.9309    0.6006 O   0  0  0  0  0  0  0  0  0  0  0  0
    0.7117    0.4033   -1.9431 H   0  0  0  0  0  0  0  0  0  0  0  0
   -1.0438    0.4033   -1.9431 H   0  0  0  0  0  0  0  0  0  0  0  0
   -0.1661    1.9618   -1.9692 H   0  0  0  0  0  0  0  0  0  0  0  0
   -0.1661   -0.2619    0.4826 H   0  0  0  0  0  0  0  0  0  0  0  0
  1  2  1  0
  1 10  1  0
  2  3  1  0
  4  5  1  0
  4  7  1  0
  4  8  1  0
  4  9  1  0
  5  6  2  0
M  RAD  1   5   2
M  END
>  <reaction>  (6) 
rxn_377

>  <mol_properties>  (6) 
{"0": {"label": "*1", "atom_type": "O2s"}, "1": {"label": "*0", "atom_type": "O2s"}, "4": {"label": "*3", "atom_type": "CO"}, "5": {"label": "*4", "atom_type": "O2d"}, "9": {"label": "*2", "atom_type": "H0"}}

>  <type>  (6) 
unop_2

>  <geom_source>  (6) 
Heuristics

$$$$

     RDKit          3D

 10  8  0  0  0  0  0  0  0  0999 V2000
   -0.1448   -1.5376    0.4852 O   0  0  0  0  0  0  0  0  0  0  0  0
    0.5539   -1.2753    1.6987 O   0  0  0  0  0  0  0  0  0  0  0  0
   -0.1659   -0.9917    2.2715 H   0  0  0  0  0  0  0  0  0  0  0  0
   -0.1448    0.7157   -2.0684 C   0  0  0  0  0  0  0  0  0  0  0  0
   -0.1448    0.7157   -0.5696 C   0  0  0  0  0  3  0  0  0  0  0  0
   -0.1448    1.7014    0.1135 O   0  0  0  0  0  0  0  0  0  0  0  0
    0.7329    0.1738   -2.4303 H   0  0  0  0  0  0  0  0  0  0  0  0
   -1.0225    0.1738   -2.4303 H   0  0  0  0  0  0  0  0  0  0  0  0
   -0.1449    1.7323   -2.4563 H   0  0  0  0  0  0  0  0  0  0  0  0
   -0.1448   -0.4914   -0.0045 H   0  0  0  0  0  0  0  0  0  0  0  0
  1  2  1  0
  1 10  1  0
  2  3  1  0
  4  5  1  0
  4  7  1  0
  4  8  1  0
  4  9  1  0
  5  6  2  0
M  RAD  1   5   2
M  END
>  <reaction>  (7) 
rxn_377

>  <mol_properties>  (7) 
{"0": {"label": "*1", "atom_type": "O2s"}, "1": {"label": "*0", "atom_type": "O2s"}, "4": {"label": "*3", "atom_type": "CO"}, "5": {"label": "*4", "atom_type": "O2d"}, "9": {"label": "*2", "atom_type": "H0"}}

>  <type>  (7) 
unop_3

>  <geom_source>  (7) 
Heuristics

$$$$

     RDKit          3D

 10  8  0  0  0  0  0  0  0  0999 V2000
    0.2643   -1.3430    0.8748 O   0  0  0  0  0  0  0  0  0  0  0  0
   -0.9460   -1.8900    0.3593 O   0  0  0  0  0  0  0  0  0  0  0  0
   -0.7279   -2.8269    0.3245 H   0  0  0  0  0  0  0  0  0  0  0  0
    0.2643    0.9104   -1.6788 C   0  0  0  0  0  0  0  0  0  0  0  0
    0.2643    0.9104   -0.1800 C   0  0  0  0  0  3  0  0  0  0  0  0
    0.2643    1.8960    0.5031 O   0  0  0  0  0  0  0  0  0  0  0  0
    1.1420    0.3684   -2.0406 H   0  0  0  0  0  0  0  0  0  0  0  0
   -0.6134    0.3684   -2.0406 H   0  0  0  0  0  0  0  0  0  0  0  0
    0.2643    1.9269   -2.0667 H   0  0  0  0  0  0  0  0  0  0  0  0
    0.2643   -0.2968    0.3851 H   0  0  0  0  0  0  0  0  0  0  0  0
  1  2  1  0
  1 10  1  0
  2  3  1  0
  4  5  1  0
  4  7  1  0
  4  8  1  0
  4  9  1  0
  5  6  2  0
M  RAD  1   5   2
M  END
>  <reaction>  (8) 
rxn_377

>  <mol_properties>  (8) 
{"0": {"label": "*1", "atom_type": "O2s"}, "1": {"label": "*0", "atom_type": "O2s"}, "4": {"label": "*3", "atom_type": "CO"}, "5": {"label": "*4", "atom_type": "O2d"}, "9": {"label": "*2", "atom_type": "H0"}}

>  <type>  (8) 
unop_4

>  <geom_source>  (8) 
Heuristics

$$$$

     RDKit          3D

 10  8  0  0  0  0  0  0  0  0999 V2000
    0.0113   -1.5471    0.4516 O   0  0  0  0  0  0  0  0  0  0  0  0
    0.0113   -1.2054    1.8347 O   0  0  0  0  0  0  0  0  0  0  0  0
   -0.8495   -1.5375    2.1094 H   0  0  0  0  0  0  0  0  0  0  0  0
    0.0113    0.7063   -2.1019 C   0  0  0  0  0  0  0  0  0  0  0  0
    0.0113    0.7063   -0.6031 C   0  0  0  0  0  3  0  0  0  0  0  0
    0.0113    1.6919    0.0799 O   0  0  0  0  0  0  0  0  0  0  0  0
    0.8890    0.1643   -2.4638 H   0  0  0  0  0  0  0  0  0  0  0  0
   -0.8664    0.1643   -2.4638 H   0  0  0  0  0  0  0  0  0  0  0  0
    0.0112    1.7228   -2.4899 H   0  0  0  0  0  0  0  0  0  0  0  0
    0.0113   -0.5009   -0.0381 H   0  0  0  0  0  0  0  0  0  0  0  0
  1  2  1  0
  1 10  1  0
  2  3  1  0
  4  5  1  0
  4  7  1  0
  4  8  1  0
  4  9  1  0
  5  6  2  0
M  RAD  1   5   2
M  END
>  <reaction>  (9) 
rxn_377

>  <mol_properties>  (9) 
{"0": {"label": "*1", "atom_type": "O2s"}, "1": {"label": "*0", "atom_type": "O2s"}, "4": {"label": "*3", "atom_type": "CO"}, "5": {"label": "*4", "atom_type": "O2d"}, "9": {"label": "*2", "atom_type": "H0"}}

>  <type>  (9) 
unop_5

>  <geom_source>  (9) 
Heuristics

$$$$

     RDKit          3D

 10  8  0  0  0  0  0  0  0  0999 V2000
    0.3087   -1.4081    0.7344 O   0  0  0  0  0  0  0  0  0  0  0  0
   -1.0888   -1.6588    0.8517 O   0  0  0  0  0  0  0  0  0  0  0  0
   -1.1050   -2.6210    0.8733 H   0  0  0  0  0  0  0  0  0  0  0  0
    0.3087    0.8453   -1.8192 C   0  0  0  0  0  0  0  0  0  0  0  0
    0.3087    0.8453   -0.3204 C   0  0  0  0  0  3  0  0  0  0  0  0
    0.3087    1.8309    0.3626 O   0  0  0  0  0  0  0  0  0  0  0  0
    1.1864    0.3034   -2.1811 H   0  0  0  0  0  0  0  0  0  0  0  0
   -0.5690    0.3033   -2.1811 H   0  0  0  0  0  0  0  0  0  0  0  0
    0.3087    1.8619   -2.2071 H   0  0  0  0  0  0  0  0  0  0  0  0
    0.3087   -0.3619    0.2446 H   0  0  0  0  0  0  0  0  0  0  0  0
  1  2  1  0
  1 10  1  0
  2  3  1  0
  4  5  1  0
  4  7  1  0
  4  8  1  0
  4  9  1  0
  5  6  2  0
M  RAD  1   5   2
M  END
>  <reaction>  (10) 
rxn_377

>  <mol_properties>  (10) 
{"0": {"label": "*1", "atom_type": "O2s"}, "1": {"label": "*0", "atom_type": "O2s"}, "4": {"label": "*3", "atom_type": "CO"}, "5": {"label": "*4", "atom_type": "O2d"}, "9": {"label": "*2", "atom_type": "H0"}}

>  <type>  (10) 
unop_6

>  <geom_source>  (10) 
Heuristics

$$$$

     RDKit          3D

 10  8  0  0  0  0  0  0  0  0999 V2000
    0.2701   -1.4738    0.5942 O   0  0  0  0  0  0  0  0  0  0  0  0
   -0.9402   -1.4283    1.3444 O   0  0  0  0  0  0  0  0  0  0  0  0
   -1.1617   -2.3635    1.3990 H   0  0  0  0  0  0  0  0  0  0  0  0
    0.2701    0.7796   -1.9593 C   0  0  0  0  0  0  0  0  0  0  0  0
    0.2701    0.7796   -0.4605 C   0  0  0  0  0  3  0  0  0  0  0  0
    0.2701    1.7652    0.2225 O   0  0  0  0  0  0  0  0  0  0  0  0
    1.1478    0.2376   -2.3212 H   0  0  0  0  0  0  0  0  0  0  0  0
   -0.6076    0.2376   -2.3212 H   0  0  0  0  0  0  0  0  0  0  0  0
    0.2700    1.7961   -2.3473 H   0  0  0  0  0  0  0  0  0  0  0  0
    0.2701   -0.4276    0.1045 H   0  0  0  0  0  0  0  0  0  0  0  0
  1  2  1  0
  1 10  1  0
  2  3  1  0
  4  5  1  0
  4  7  1  0
  4  8  1  0
  4  9  1  0
  5  6  2  0
M  RAD  1   5   2
M  END
>  <reaction>  (11) 
rxn_377

>  <mol_properties>  (11) 
{"0": {"label": "*1", "atom_type": "O2s"}, "1": {"label": "*0", "atom_type": "O2s"}, "4": {"label": "*3", "atom_type": "CO"}, "5": {"label": "*4", "atom_type": "O2d"}, "9": {"label": "*2", "atom_type": "H0"}}

>  <type>  (11) 
unop_7

>  <geom_source>  (11) 
Heuristics

$$$$

     RDKit          3D

 10  8  0  0  0  0  0  0  0  0999 V2000
   -0.3116   -1.4285    0.7253 O   0  0  0  0  0  0  0  0  0  0  0  0
    1.0859   -1.6792    0.8426 O   0  0  0  0  0  0  0  0  0  0  0  0
    1.3235   -1.0823    1.5595 H   0  0  0  0  0  0  0  0  0  0  0  0
   -0.3116    0.8249   -1.8283 C   0  0  0  0  0  0  0  0  0  0  0  0
   -0.3116    0.8249   -0.3295 C   0  0  0  0  0  3  0  0  0  0  0  0
   -0.3116    1.8105    0.3535 O   0  0  0  0  0  0  0  0  0  0  0  0
    0.5661    0.2830   -2.1902 H   0  0  0  0  0  0  0  0  0  0  0  0
   -1.1893    0.2829   -2.1902 H   0  0  0  0  0  0  0  0  0  0  0  0
   -0.3116    1.8415   -2.2162 H   0  0  0  0  0  0  0  0  0  0  0  0
   -0.3116   -0.3823    0.2356 H   0  0  0  0  0  0  0  0  0  0  0  0
  1  2  1  0
  1 10  1  0
  2  3  1  0
  4  5  1  0
  4  7  1  0
  4  8  1  0
  4  9  1  0
  5  6  2  0
M  RAD  1   5   2
M  END
>  <reaction>  (12) 
rxn_377

>  <mol_properties>  (12) 
{"0": {"label": "*1", "atom_type": "O2s"}, "1": {"label": "*0", "atom_type": "O2s"}, "4": {"label": "*3", "atom_type": "CO"}, "5": {"label": "*4", "atom_type": "O2d"}, "9": {"label": "*2", "atom_type": "H0"}}

>  <type>  (12) 
unop_8

>  <geom_source>  (12) 
Heuristics

$$$$

     RDKit          3D

 10  8  0  0  0  0  0  0  0  0999 V2000
    0.1471   -1.2971    0.9772 O   0  0  0  0  0  0  0  0  0  0  0  0
   -0.5517   -2.0609   -0.0015 O   0  0  0  0  0  0  0  0  0  0  0  0
   -0.0030   -2.8504   -0.0494 H   0  0  0  0  0  0  0  0  0  0  0  0
    0.1471    0.9563   -1.5763 C   0  0  0  0  0  0  0  0  0  0  0  0
    0.1471    0.9563   -0.0775 C   0  0  0  0  0  3  0  0  0  0  0  0
    0.1471    1.9419    0.6055 O   0  0  0  0  0  0  0  0  0  0  0  0
    1.0248    0.4144   -1.9382 H   0  0  0  0  0  0  0  0  0  0  0  0
   -0.7306    0.4143   -1.9382 H   0  0  0  0  0  0  0  0  0  0  0  0
    0.1470    1.9729   -1.9643 H   0  0  0  0  0  0  0  0  0  0  0  0
    0.1471   -0.2509    0.4875 H   0  0  0  0  0  0  0  0  0  0  0  0
  1  2  1  0
  1 10  1  0
  2  3  1  0
  4  5  1  0
  4  7  1  0
  4  8  1  0
  4  9  1  0
  5  6  2  0
M  RAD  1   5   2
M  END
>  <reaction>  (13) 
rxn_377

>  <mol_properties>  (13) 
{"0": {"label": "*1", "atom_type": "O2s"}, "1": {"label": "*0", "atom_type": "O2s"}, "4": {"label": "*3", "atom_type": "CO"}, "5": {"label": "*4", "atom_type": "O2d"}, "9": {"label": "*2", "atom_type": "H0"}}

>  <type>  (13) 
unop_9

>  <geom_source>  (13) 
Heuristics

$$$$

     RDKit          3D

 10  8  0  0  0  0  0  0  0  0999 V2000
   -0.2757   -1.3607    0.8669 O   0  0  0  0  0  0  0  0  0  0  0  0
    0.9346   -1.9077    0.3514 O   0  0  0  0  0  0  0  0  0  0  0  0
    1.5871   -1.4883    0.9214 H   0  0  0  0  0  0  0  0  0  0  0  0
   -0.2757    0.8926   -1.6867 C   0  0  0  0  0  0  0  0  0  0  0  0
   -0.2757    0.8926   -0.1879 C   0  0  0  0  0  3  0  0  0  0  0  0
   -0.2757    1.8782    0.4952 O   0  0  0  0  0  0  0  0  0  0  0  0
    0.6020    0.3507   -2.0486 H   0  0  0  0  0  0  0  0  0  0  0  0
   -1.1534    0.3506   -2.0486 H   0  0  0  0  0  0  0  0  0  0  0  0
   -0.2757    1.9092   -2.0746 H   0  0  0  0  0  0  0  0  0  0  0  0
   -0.2757   -0.3146    0.3772 H   0  0  0  0  0  0  0  0  0  0  0  0
  1  2  1  0
  1 10  1  0
  2  3  1  0
  4  5  1  0
  4  7  1  0
  4  8  1  0
  4  9  1  0
  5  6  2  0
M  RAD  1   5   2
M  END
>  <reaction>  (14) 
rxn_377

>  <mol_properties>  (14) 
{"0": {"label": "*1", "atom_type": "O2s"}, "1": {"label": "*0", "atom_type": "O2s"}, "4": {"label": "*3", "atom_type": "CO"}, "5": {"label": "*4", "atom_type": "O2d"}, "9": {"label": "*2", "atom_type": "H0"}}

>  <type>  (14) 
unop_10

>  <geom_source>  (14) 
Heuristics

$$$$

     RDKit          3D

 10  8  0  0  0  0  0  0  0  0999 V2000
    0.1611   -1.5234    0.4915 O   0  0  0  0  0  0  0  0  0  0  0  0
   -0.5376   -1.2611    1.7050 O   0  0  0  0  0  0  0  0  0  0  0  0
   -1.0645   -2.0618    1.7943 H   0  0  0  0  0  0  0  0  0  0  0  0
    0.1611    0.7299   -2.0621 C   0  0  0  0  0  0  0  0  0  0  0  0
    0.1611    0.7299   -0.5633 C   0  0  0  0  0  3  0  0  0  0  0  0
    0.1611    1.7155    0.1198 O   0  0  0  0  0  0  0  0  0  0  0  0
    1.0389    0.1880   -2.4239 H   0  0  0  0  0  0  0  0  0  0  0  0
   -0.7166    0.1879   -2.4239 H   0  0  0  0  0  0  0  0  0  0  0  0
    0.1611    1.7465   -2.4500 H   0  0  0  0  0  0  0  0  0  0  0  0
    0.1611   -0.4772    0.0018 H   0  0  0  0  0  0  0  0  0  0  0  0
  1  2  1  0
  1 10  1  0
  2  3  1  0
  4  5  1  0
  4  7  1  0
  4  8  1  0
  4  9  1  0
  5  6  2  0
M  RAD  1   5   2
M  END
>  <reaction>  (15) 
rxn_377

>  <mol_properties>  (15) 
{"0": {"label": "*1", "atom_type": "O2s"}, "1": {"label": "*0", "atom_type": "O2s"}, "4": {"label": "*3", "atom_type": "CO"}, "5": {"label": "*4", "atom_type": "O2d"}, "9": {"label": "*2", "atom_type": "H0"}}

>  <type>  (15) 
unop_11

>  <geom_source>  (15) 
Heuristics

$$$$

     RDKit          3D

 10  8  0  0  0  0  0  0  0  0999 V2000
   -0.0113   -1.2843    1.0130 O   0  0  0  0  0  0  0  0  0  0  0  0
   -0.0113   -2.1275   -0.1353 O   0  0  0  0  0  0  0  0  0  0  0  0
    0.8495   -2.5512   -0.0563 H   0  0  0  0  0  0  0  0  0  0  0  0
   -0.0113    0.9690   -1.5406 C   0  0  0  0  0  0  0  0  0  0  0  0
   -0.0113    0.9690   -0.0418 C   0  0  0  0  0  3  0  0  0  0  0  0
   -0.0113    1.9547    0.6413 O   0  0  0  0  0  0  0  0  0  0  0  0
    0.8665    0.4271   -1.9024 H   0  0  0  0  0  0  0  0  0  0  0  0
   -0.8890    0.4271   -1.9024 H   0  0  0  0  0  0  0  0  0  0  0  0
   -0.0113    1.9856   -1.9285 H   0  0  0  0  0  0  0  0  0  0  0  0
   -0.0113   -0.2381    0.5233 H   0  0  0  0  0  0  0  0  0  0  0  0
  1  2  1  0
  1 10  1  0
  2  3  1  0
  4  5  1  0
  4  7  1  0
  4  8  1  0
  4  9  1  0
  5  6  2  0
M  RAD  1   5   2
M  END
>  <reaction>  (16) 
rxn_377

>  <mol_properties>  (16) 
{"0": {"label": "*1", "atom_type": "O2s"}, "1": {"label": "*0", "atom_type": "O2s"}, "4": {"label": "*3", "atom_type": "CO"}, "5": {"label": "*4", "atom_type": "O2d"}, "9": {"label": "*2", "atom_type": "H0"}}

>  <type>  (16) 
unop_12

>  <geom_source>  (16) 
Heuristics

$$$$

     RDKit          3D

 10  8  0  0  0  0  0  0  0  0999 V2000
    1.6640   -0.3576   -0.9122 O   0  0  0  0  0  1  0  0  0  0  0  0
    2.2991   -0.7683    0.1651 O   0  0  0  0  0  0  0  0  0  0  0  0
   -0.7245    1.8527   -0.4440 O   0  0  0  0  0  0  0  0  0  0  0  0
   -1.4553   -0.2577    0.3078 C   0  0  0  0  0  0  0  0  0  0  0  0
   -0.4587    0.6704   -0.3006 C   0  0  0  0  0  0  0  0  0  0  0  0
   -2.3788   -0.2748   -0.3080 H   0  0  0  0  0  0  0  0  0  0  0  0
   -1.0261   -1.2799    0.3498 H   0  0  0  0  0  0  0  0  0  0  0  0
   -1.7021    0.0769    1.3371 H   0  0  0  0  0  0  0  0  0  0  0  0
    0.7143    0.4886   -0.4471 H   0  0  0  0  0  0  0  0  0  0  0  0
    3.0682   -0.1503    0.2522 H   0  0  0  0  0  0  0  0  0  0  0  0
  1  2  1  0
  2 10  1  0
  3  5  2  0
  4  5  1  0
  4  6  1  0
  4  7  1  0
  4  8  1  0
  5  9  1  0
M  RAD  1   1   2
M  END
>  <reaction>  (17) 
rxn_377

>  <mol_properties>  (17) 
{"0": {"label": "*1", "atom_type": "O2s"}, "1": {"label": "*0", "atom_type": "O2s"}, "4": {"label": "*3", "atom_type": "CO"}, "5": {"label": "*4", "atom_type": "O2d"}, "9": {"label": "*2", "atom_type": "H0"}}

>  <type>  (17) 
unop_13

>  <geom_source>  (17) 
AutoTST

$$$$
