
     RDKit          3D

 10  9  0  0  0  0  0  0  0  0999 V2000
   -1.1906   -0.0419   -0.0385 C   0  0  0  0  0  0  0  0  0  0  0  0
    0.2513    0.4500    0.0348 C   0  0  0  0  0  0  0  0  0  0  0  0
    1.2500   -0.5694    0.3278 N   0  0  0  0  0  0  0  0  0  0  0  0
   -1.4965   -0.4905    0.9100 H   0  0  0  0  0  0  0  0  0  0  0  0
   -1.3035   -0.7985   -0.8190 H   0  0  0  0  0  0  0  0  0  0  0  0
   -1.8789    0.7769   -0.2612 H   0  0  0  0  0  0  0  0  0  0  0  0
    0.3352    1.2278    0.7979 H   0  0  0  0  0  0  0  0  0  0  0  0
    0.5259    0.9233   -0.9113 H   0  0  0  0  0  0  0  0  0  0  0  0
    1.2298   -1.2971   -0.3752 H   0  0  0  0  0  0  0  0  0  0  0  0
    1.0523   -1.0138    1.2153 H   0  0  0  0  0  0  0  0  0  0  0  0
  1  2  1  0
  1  4  1  0
  1  5  1  0
  1  6  1  0
  2  3  1  0
  2  7  1  0
  2  8  1  0
  3  9  1  0
  3 10  1  0
M  END
>  <reaction>  (1) 
rxn_116

>  <mol_properties>  (1) 
{"2": {"label": "donator", "atom_type": "N3s"}, "8": {"label": "d_hydrogen", "atom_type": "H0"}}

>  <type>  (1) 
r1h

$$$$

     RDKit          3D

  4  3  0  0  0  0  0  0  0  0999 V2000
    0.0000    0.0000    0.0000 C   0  0  0  0  0  3  0  0  0  0  0  0
    1.0638   -0.1747    0.0540 H   0  0  0  0  0  0  0  0  0  0  0  0
   -0.6833   -0.8351   -0.0280 H   0  0  0  0  0  0  0  0  0  0  0  0
   -0.3805    1.0098   -0.0260 H   0  0  0  0  0  0  0  0  0  0  0  0
  1  2  1  0
  1  3  1  0
  1  4  1  0
M  RAD  1   1   2
M  END
>  <reaction>  (2) 
rxn_116

>  <mol_properties>  (2) 
{"0": {"label": "acceptor", "atom_type": "Cs"}}

>  <type>  (2) 
r2

$$$$

     RDKit          3D

  5  4  0  0  0  0  0  0  0  0999 V2000
    0.0000    0.0000    0.0000 C   0  0  0  0  0  0  0  0  0  0  0  0
   -0.6486   -0.7720   -0.4113 H   0  0  0  0  0  0  0  0  0  0  0  0
   -0.3482    0.9787   -0.3267 H   0  0  0  0  0  0  0  0  0  0  0  0
   -0.0223   -0.0487    1.0876 H   0  0  0  0  0  0  0  0  0  0  0  0
    1.0191   -0.1580   -0.3496 H   0  0  0  0  0  0  0  0  0  0  0  0
  1  2  1  0
  1  3  1  0
  1  4  1  0
  1  5  1  0
M  END
>  <reaction>  (3) 
rxn_116

>  <mol_properties>  (3) 
{"0": {"label": "a_hydrogen", "atom_type": "H0"}, "1": {"label": "acceptor", "atom_type": "Cs"}}

>  <type>  (3) 
r2h

$$$$

     RDKit          3D

 14 12  0  0  0  0  0  0  0  0999 V2000
    0.5460   -0.9196   -1.2793 C   0  0  0  0  0  0  0  0  0  0  0  0
    0.4977   -1.0195    0.2409 C   0  0  0  0  0  0  0  0  0  0  0  0
    0.6032    0.2333    0.9710 N   0  0  0  0  0  0  0  0  0  0  0  0
    1.4780   -0.4524   -1.6075 H   0  0  0  0  0  0  0  0  0  0  0  0
   -0.2834   -0.3176   -1.6549 H   0  0  0  0  0  0  0  0  0  0  0  0
    0.4856   -1.9078   -1.7400 H   0  0  0  0  0  0  0  0  0  0  0  0
    1.3170   -1.6601    0.5889 H   0  0  0  0  0  0  0  0  0  0  0  0
   -0.4261   -1.5113    0.5560 H   0  0  0  0  0  0  0  0  0  0  0  0
   -0.4015    0.8941    0.7025 H   0  0  0  0  0  0  0  0  0  0  0  0
    1.3352    0.7969    0.5374 H   0  0  0  0  0  0  0  0  0  0  0  0
   -1.4492    1.5800    0.1936 C   0  0  0  0  0  3  0  0  0  0  0  0
   -2.1917    0.8188   -0.0309 H   0  0  0  0  0  0  0  0  0  0  0  0
   -1.1006    2.1145   -0.6849 H   0  0  0  0  0  0  0  0  0  0  0  0
   -1.7304    2.2310    1.0166 H   0  0  0  0  0  0  0  0  0  0  0  0
  1  2  1  0
  1  4  1  0
  1  5  1  0
  1  6  1  0
  2  3  1  0
  2  7  1  0
  2  8  1  0
  3  9  1  0
  3 10  1  0
 11 12  1  0
 11 13  1  0
 11 14  1  0
M  RAD  1  11   2
M  END
>  <reaction>  (4) 
rxn_116

>  <mol_properties>  (4) 
{"1": {"label": "*0", "atom_type": "Cs"}, "2": {"label": "*1", "atom_type": "N3s"}, "8": {"label": "*2", "atom_type": "H0"}, "10": {"label": "*3", "atom_type": "Cs"}, "11": {"label": "*4", "atom_type": "H0"}}

>  <type>  (4) 
ts

$$$$

     RDKit          3D

 14 12  0  0  0  0  0  0  0  0999 V2000
    0.5168   -1.0291   -1.2725 C   0  0  0  0  0  0  0  0  0  0  0  0
    0.5168   -1.0291    0.2528 C   0  0  0  0  0  0  0  0  0  0  0  0
    0.5168    0.2848    0.8822 N   0  0  0  0  0  0  0  0  0  0  0  0
    1.4002   -0.5159   -1.6607 H   0  0  0  0  0  0  0  0  0  0  0  0
   -0.3666   -0.5159   -1.6607 H   0  0  0  0  0  0  0  0  0  0  0  0
    0.5168   -2.0468   -1.6698 H   0  0  0  0  0  0  0  0  0  0  0  0
    1.3901   -1.5743    0.6195 H   0  0  0  0  0  0  0  0  0  0  0  0
   -0.3565   -1.5743    0.6195 H   0  0  0  0  0  0  0  0  0  0  0  0
   -0.4583    0.9211    0.5371 H   0  0  0  0  0  0  0  0  0  0  0  0
    1.3294    0.8151    0.5946 H   0  0  0  0  0  0  0  0  0  0  0  0
   -1.5075    1.6058    0.1657 C   0  0  0  0  0  3  0  0  0  0  0  0
   -2.1032    1.8605    1.0410 H   0  0  0  0  0  0  0  0  0  0  0  0
   -2.1297    1.6637   -0.7261 H   0  0  0  0  0  0  0  0  0  0  0  0
   -0.7602    2.3963    0.2157 H   0  0  0  0  0  0  0  0  0  0  0  0
  1  2  1  0
  1  4  1  0
  1  5  1  0
  1  6  1  0
  2  3  1  0
  2  7  1  0
  2  8  1  0
  3  9  1  0
  3 10  1  0
 11 12  1  0
 11 13  1  0
 11 14  1  0
M  RAD  1  11   2
M  END
>  <reaction>  (5) 
rxn_116

>  <mol_properties>  (5) 
{"1": {"label": "*0", "atom_type": "Cs"}, "2": {"label": "*1", "atom_type": "N3s"}, "8": {"label": "*2", "atom_type": "H0"}, "10": {"label": "*3", "atom_type": "Cs"}, "11": {"label": "*4", "atom_type": "H0"}}

>  <type>  (5) 
unop_1

>  <geom_source>  (5) 
Heuristics

$$$$

     RDKit          3D

 14 12  0  0  0  0  0  0  0  0999 V2000
    0.5154   -1.0207   -1.2703 C   0  0  0  0  0  0  0  0  0  0  0  0
    0.5154   -1.0207    0.2549 C   0  0  0  0  0  0  0  0  0  0  0  0
    0.5154    0.2932    0.8844 N   0  0  0  0  0  0  0  0  0  0  0  0
    1.3988   -0.5075   -1.6586 H   0  0  0  0  0  0  0  0  0  0  0  0
   -0.3680   -0.5075   -1.6586 H   0  0  0  0  0  0  0  0  0  0  0  0
    0.5154   -2.0384   -1.6676 H   0  0  0  0  0  0  0  0  0  0  0  0
    1.3887   -1.5659    0.6217 H   0  0  0  0  0  0  0  0  0  0  0  0
   -0.3579   -1.5659    0.6217 H   0  0  0  0  0  0  0  0  0  0  0  0
   -0.4598    0.9295    0.5393 H   0  0  0  0  0  0  0  0  0  0  0  0
    1.3280    0.8235    0.5968 H   0  0  0  0  0  0  0  0  0  0  0  0
   -1.5090    1.6142    0.1679 C   0  0  0  0  0  3  0  0  0  0  0  0
   -2.3314    0.9323   -0.0428 H   0  0  0  0  0  0  0  0  0  0  0  0
   -1.4795    2.3933   -0.5923 H   0  0  0  0  0  0  0  0  0  0  0  0
   -1.1008    2.1183    1.0426 H   0  0  0  0  0  0  0  0  0  0  0  0
  1  2  1  0
  1  4  1  0
  1  5  1  0
  1  6  1  0
  2  3  1  0
  2  7  1  0
  2  8  1  0
  3  9  1  0
  3 10  1  0
 11 12  1  0
 11 13  1  0
 11 14  1  0
M  RAD  1  11   2
M  END
>  <reaction>  (6) 
rxn_116

>  <mol_properties>  (6) 
{"1": {"label": "*0", "atom_type": "Cs"}, "2": {"label": "*1", "atom_type": "N3s"}, "8": {"label": "*2", "atom_type": "H0"}, "10": {"label": "*3", "atom_type": "Cs"}, "11": {"label": "*4", "atom_type": "H0"}}

>  <type>  (6) 
unop_2

>  <geom_source>  (6) 
Heuristics

$$$$

     RDKit          3D

 14 12  0  0  0  0  0  0  0  0999 V2000
    0.5186   -1.0298   -1.2685 C   0  0  0  0  0  0  0  0  0  0  0  0
    0.5186   -1.0298    0.2567 C   0  0  0  0  0  0  0  0  0  0  0  0
    0.5186    0.2841    0.8862 N   0  0  0  0  0  0  0  0  0  0  0  0
    1.4019   -0.5167   -1.6568 H   0  0  0  0  0  0  0  0  0  0  0  0
   -0.3648   -0.5167   -1.6568 H   0  0  0  0  0  0  0  0  0  0  0  0
    0.5186   -2.0476   -1.6658 H   0  0  0  0  0  0  0  0  0  0  0  0
    1.3918   -1.5750    0.6235 H   0  0  0  0  0  0  0  0  0  0  0  0
   -0.3547   -1.5750    0.6235 H   0  0  0  0  0  0  0  0  0  0  0  0
   -0.4566    0.9204    0.5410 H   0  0  0  0  0  0  0  0  0  0  0  0
    1.3312    0.8144    0.5986 H   0  0  0  0  0  0  0  0  0  0  0  0
   -1.5058    1.6051    0.1697 C   0  0  0  0  0  3  0  0  0  0  0  0
   -1.7952    2.2872    0.9677 H   0  0  0  0  0  0  0  0  0  0  0  0
   -2.3934    1.2846   -0.3736 H   0  0  0  0  0  0  0  0  0  0  0  0
   -0.9036    2.3890   -0.2870 H   0  0  0  0  0  0  0  0  0  0  0  0
  1  2  1  0
  1  4  1  0
  1  5  1  0
  1  6  1  0
  2  3  1  0
  2  7  1  0
  2  8  1  0
  3  9  1  0
  3 10  1  0
 11 12  1  0
 11 13  1  0
 11 14  1  0
M  RAD  1  11   2
M  END
>  <reaction>  (7) 
rxn_116

>  <mol_properties>  (7) 
{"1": {"label": "*0", "atom_type": "Cs"}, "2": {"label": "*1", "atom_type": "N3s"}, "8": {"label": "*2", "atom_type": "H0"}, "10": {"label": "*3", "atom_type": "Cs"}, "11": {"label": "*4", "atom_type": "H0"}}

>  <type>  (7) 
unop_3

>  <geom_source>  (7) 
Heuristics

$$$$

     RDKit          3D

 14 12  0  0  0  0  0  0  0  0999 V2000
    0.5142   -1.0242   -1.2721 C   0  0  0  0  0  0  0  0  0  0  0  0
    0.5142   -1.0242    0.2532 C   0  0  0  0  0  0  0  0  0  0  0  0
    0.5142    0.2897    0.8826 N   0  0  0  0  0  0  0  0  0  0  0  0
    1.3976   -0.5110   -1.6603 H   0  0  0  0  0  0  0  0  0  0  0  0
   -0.3692   -0.5110   -1.6603 H   0  0  0  0  0  0  0  0  0  0  0  0
    0.5142   -2.0419   -1.6694 H   0  0  0  0  0  0  0  0  0  0  0  0
    1.3875   -1.5694    0.6199 H   0  0  0  0  0  0  0  0  0  0  0  0
   -0.3591   -1.5694    0.6199 H   0  0  0  0  0  0  0  0  0  0  0  0
   -0.4609    0.9260    0.5375 H   0  0  0  0  0  0  0  0  0  0  0  0
    1.3268    0.8200    0.5950 H   0  0  0  0  0  0  0  0  0  0  0  0
   -1.5101    1.6107    0.1661 C   0  0  0  0  0  3  0  0  0  0  0  0
   -1.4973    1.7364   -0.9154 H   0  0  0  0  0  0  0  0  0  0  0  0
   -0.9566    2.4242    0.6326 H   0  0  0  0  0  0  0  0  0  0  0  0
   -2.3927    1.4822    0.7909 H   0  0  0  0  0  0  0  0  0  0  0  0
  1  2  1  0
  1  4  1  0
  1  5  1  0
  1  6  1  0
  2  3  1  0
  2  7  1  0
  2  8  1  0
  3  9  1  0
  3 10  1  0
 11 12  1  0
 11 13  1  0
 11 14  1  0
M  RAD  1  11   2
M  END
>  <reaction>  (8) 
rxn_116

>  <mol_properties>  (8) 
{"1": {"label": "*0", "atom_type": "Cs"}, "2": {"label": "*1", "atom_type": "N3s"}, "8": {"label": "*2", "atom_type": "H0"}, "10": {"label": "*3", "atom_type": "Cs"}, "11": {"label": "*4", "atom_type": "H0"}}

>  <type>  (8) 
unop_4

>  <geom_source>  (8) 
Heuristics

$$$$

     RDKit          3D

 14 12  0  0  0  0  0  0  0  0999 V2000
    0.5237   -1.0271   -1.2690 C   0  0  0  0  0  0  0  0  0  0  0  0
    0.5237   -1.0271    0.2562 C   0  0  0  0  0  0  0  0  0  0  0  0
    0.5237    0.2868    0.8857 N   0  0  0  0  0  0  0  0  0  0  0  0
    1.4071   -0.5140   -1.6573 H   0  0  0  0  0  0  0  0  0  0  0  0
   -0.3596   -0.5140   -1.6573 H   0  0  0  0  0  0  0  0  0  0  0  0
    0.5237   -2.0449   -1.6663 H   0  0  0  0  0  0  0  0  0  0  0  0
    1.3970   -1.5723    0.6230 H   0  0  0  0  0  0  0  0  0  0  0  0
   -0.3495   -1.5723    0.6230 H   0  0  0  0  0  0  0  0  0  0  0  0
   -0.4514    0.9231    0.5406 H   0  0  0  0  0  0  0  0  0  0  0  0
    1.3363    0.8170    0.5981 H   0  0  0  0  0  0  0  0  0  0  0  0
   -1.5006    1.6078    0.1692 C   0  0  0  0  0  3  0  0  0  0  0  0
   -1.4843    2.5854    0.6485 H   0  0  0  0  0  0  0  0  0  0  0  0
   -2.4040    1.0750    0.4621 H   0  0  0  0  0  0  0  0  0  0  0  0
   -1.4977    2.1483   -0.7761 H   0  0  0  0  0  0  0  0  0  0  0  0
  1  2  1  0
  1  4  1  0
  1  5  1  0
  1  6  1  0
  2  3  1  0
  2  7  1  0
  2  8  1  0
  3  9  1  0
  3 10  1  0
 11 12  1  0
 11 13  1  0
 11 14  1  0
M  RAD  1  11   2
M  END
>  <reaction>  (9) 
rxn_116

>  <mol_properties>  (9) 
{"1": {"label": "*0", "atom_type": "Cs"}, "2": {"label": "*1", "atom_type": "N3s"}, "8": {"label": "*2", "atom_type": "H0"}, "10": {"label": "*3", "atom_type": "Cs"}, "11": {"label": "*4", "atom_type": "H0"}}

>  <type>  (9) 
unop_5

>  <geom_source>  (9) 
Heuristics

$$$$

     RDKit          3D

 14 12  0  0  0  0  0  0  0  0999 V2000
    0.5166   -1.0264   -1.2737 C   0  0  0  0  0  0  0  0  0  0  0  0
    0.5166   -1.0264    0.2516 C   0  0  0  0  0  0  0  0  0  0  0  0
    0.5166    0.2875    0.8810 N   0  0  0  0  0  0  0  0  0  0  0  0
    1.4000   -0.5132   -1.6619 H   0  0  0  0  0  0  0  0  0  0  0  0
   -0.3668   -0.5132   -1.6619 H   0  0  0  0  0  0  0  0  0  0  0  0
    0.5166   -2.0441   -1.6710 H   0  0  0  0  0  0  0  0  0  0  0  0
    1.3899   -1.5715    0.6184 H   0  0  0  0  0  0  0  0  0  0  0  0
   -0.3567   -1.5715    0.6184 H   0  0  0  0  0  0  0  0  0  0  0  0
   -0.4585    0.9239    0.5359 H   0  0  0  0  0  0  0  0  0  0  0  0
    1.3292    0.8178    0.5934 H   0  0  0  0  0  0  0  0  0  0  0  0
   -1.5077    1.6085    0.1646 C   0  0  0  0  0  3  0  0  0  0  0  0
   -1.2702    2.1789   -0.7321 H   0  0  0  0  0  0  0  0  0  0  0  0
   -1.1328    2.1361    1.0402 H   0  0  0  0  0  0  0  0  0  0  0  0
   -2.5779    1.4506    0.2894 H   0  0  0  0  0  0  0  0  0  0  0  0
  1  2  1  0
  1  4  1  0
  1  5  1  0
  1  6  1  0
  2  3  1  0
  2  7  1  0
  2  8  1  0
  3  9  1  0
  3 10  1  0
 11 12  1  0
 11 13  1  0
 11 14  1  0
M  RAD  1  11   2
M  END
>  <reaction>  (10) 
rxn_116

>  <mol_properties>  (10) 
{"1": {"label": "*0", "atom_type": "Cs"}, "2": {"label": "*1", "atom_type": "N3s"}, "8": {"label": "*2", "atom_type": "H0"}, "10": {"label": "*3", "atom_type": "Cs"}, "11": {"label": "*4", "atom_type": "H0"}}

>  <type>  (10) 
unop_6

>  <geom_source>  (10) 
Heuristics

$$$$

     RDKit          3D

 14 12  0  0  0  0  0  0  0  0999 V2000
    0.5198   -1.0272   -1.2754 C   0  0  0  0  0  0  0  0  0  0  0  0
    0.5198   -1.0272    0.2499 C   0  0  0  0  0  0  0  0  0  0  0  0
    0.5198    0.2867    0.8793 N   0  0  0  0  0  0  0  0  0  0  0  0
    1.4032   -0.5140   -1.6636 H   0  0  0  0  0  0  0  0  0  0  0  0
   -0.3636   -0.5140   -1.6636 H   0  0  0  0  0  0  0  0  0  0  0  0
    0.5198   -2.0449   -1.6727 H   0  0  0  0  0  0  0  0  0  0  0  0
    1.3931   -1.5723    0.6166 H   0  0  0  0  0  0  0  0  0  0  0  0
   -0.3535   -1.5723    0.6166 H   0  0  0  0  0  0  0  0  0  0  0  0
   -0.4553    0.9231    0.5342 H   0  0  0  0  0  0  0  0  0  0  0  0
    1.3324    0.8170    0.5917 H   0  0  0  0  0  0  0  0  0  0  0  0
   -1.5045    1.6077    0.1629 C   0  0  0  0  0  3  0  0  0  0  0  0
   -1.1840    2.5209   -0.3363 H   0  0  0  0  0  0  0  0  0  0  0  0
   -1.4540    1.7469    1.2417 H   0  0  0  0  0  0  0  0  0  0  0  0
   -2.5253    1.5426   -0.2108 H   0  0  0  0  0  0  0  0  0  0  0  0
  1  2  1  0
  1  4  1  0
  1  5  1  0
  1  6  1  0
  2  3  1  0
  2  7  1  0
  2  8  1  0
  3  9  1  0
  3 10  1  0
 11 12  1  0
 11 13  1  0
 11 14  1  0
M  RAD  1  11   2
M  END
>  <reaction>  (11) 
rxn_116

>  <mol_properties>  (11) 
{"1": {"label": "*0", "atom_type": "Cs"}, "2": {"label": "*1", "atom_type": "N3s"}, "8": {"label": "*2", "atom_type": "H0"}, "10": {"label": "*3", "atom_type": "Cs"}, "11": {"label": "*4", "atom_type": "H0"}}

>  <type>  (11) 
unop_7

>  <geom_source>  (11) 
Heuristics

$$$$

     RDKit          3D

 14 12  0  0  0  0  0  0  0  0999 V2000
    0.5174   -1.0259   -1.2742 C   0  0  0  0  0  0  0  0  0  0  0  0
    0.5174   -1.0259    0.2511 C   0  0  0  0  0  0  0  0  0  0  0  0
    0.5174    0.2880    0.8805 N   0  0  0  0  0  0  0  0  0  0  0  0
    1.4008   -0.5127   -1.6624 H   0  0  0  0  0  0  0  0  0  0  0  0
   -0.3660   -0.5127   -1.6624 H   0  0  0  0  0  0  0  0  0  0  0  0
    0.5174   -2.0436   -1.6715 H   0  0  0  0  0  0  0  0  0  0  0  0
    1.3907   -1.5711    0.6178 H   0  0  0  0  0  0  0  0  0  0  0  0
   -0.3559   -1.5711    0.6178 H   0  0  0  0  0  0  0  0  0  0  0  0
   -0.4577    0.9243    0.5354 H   0  0  0  0  0  0  0  0  0  0  0  0
    1.3300    0.8183    0.5929 H   0  0  0  0  0  0  0  0  0  0  0  0
   -1.5069    1.6090    0.1641 C   0  0  0  0  0  3  0  0  0  0  0  0
   -2.3273    1.4190    0.8544 H   0  0  0  0  0  0  0  0  0  0  0  0
   -1.9046    1.9830   -0.7781 H   0  0  0  0  0  0  0  0  0  0  0  0
   -0.7943    2.3362    0.5503 H   0  0  0  0  0  0  0  0  0  0  0  0
  1  2  1  0
  1  4  1  0
  1  5  1  0
  1  6  1  0
  2  3  1  0
  2  7  1  0
  2  8  1  0
  3  9  1  0
  3 10  1  0
 11 12  1  0
 11 13  1  0
 11 14  1  0
M  RAD  1  11   2
M  END
>  <reaction>  (12) 
rxn_116

>  <mol_properties>  (12) 
{"1": {"label": "*0", "atom_type": "Cs"}, "2": {"label": "*1", "atom_type": "N3s"}, "8": {"label": "*2", "atom_type": "H0"}, "10": {"label": "*3", "atom_type": "Cs"}, "11": {"label": "*4", "atom_type": "H0"}}

>  <type>  (12) 
unop_8

>  <geom_source>  (12) 
Heuristics

$$$$

     RDKit          3D

 14 12  0  0  0  0  0  0  0  0999 V2000
    0.5126   -1.0220   -1.2708 C   0  0  0  0  0  0  0  0  0  0  0  0
    0.5126   -1.0220    0.2545 C   0  0  0  0  0  0  0  0  0  0  0  0
    0.5126    0.2919    0.8839 N   0  0  0  0  0  0  0  0  0  0  0  0
    1.3960   -0.5089   -1.6590 H   0  0  0  0  0  0  0  0  0  0  0  0
   -0.3708   -0.5089   -1.6590 H   0  0  0  0  0  0  0  0  0  0  0  0
    0.5126   -2.0398   -1.6681 H   0  0  0  0  0  0  0  0  0  0  0  0
    1.3859   -1.5672    0.6212 H   0  0  0  0  0  0  0  0  0  0  0  0
   -0.3607   -1.5672    0.6212 H   0  0  0  0  0  0  0  0  0  0  0  0
   -0.4625    0.9282    0.5388 H   0  0  0  0  0  0  0  0  0  0  0  0
    1.3252    0.8221    0.5963 H   0  0  0  0  0  0  0  0  0  0  0  0
   -1.5117    1.6128    0.1674 C   0  0  0  0  0  3  0  0  0  0  0  0
   -1.8052    1.3111   -0.8368 H   0  0  0  0  0  0  0  0  0  0  0  0
   -0.9736    2.5583    0.1197 H   0  0  0  0  0  0  0  0  0  0  0  0
   -1.9762    1.6517    1.1516 H   0  0  0  0  0  0  0  0  0  0  0  0
  1  2  1  0
  1  4  1  0
  1  5  1  0
  1  6  1  0
  2  3  1  0
  2  7  1  0
  2  8  1  0
  3  9  1  0
  3 10  1  0
 11 12  1  0
 11 13  1  0
 11 14  1  0
M  RAD  1  11   2
M  END
>  <reaction>  (13) 
rxn_116

>  <mol_properties>  (13) 
{"1": {"label": "*0", "atom_type": "Cs"}, "2": {"label": "*1", "atom_type": "N3s"}, "8": {"label": "*2", "atom_type": "H0"}, "10": {"label": "*3", "atom_type": "Cs"}, "11": {"label": "*4", "atom_type": "H0"}}

>  <type>  (13) 
unop_9

>  <geom_source>  (13) 
Heuristics

$$$$

     RDKit          3D

 14 12  0  0  0  0  0  0  0  0999 V2000
    0.5173   -1.0225   -1.2728 C   0  0  0  0  0  0  0  0  0  0  0  0
    0.5173   -1.0225    0.2525 C   0  0  0  0  0  0  0  0  0  0  0  0
    0.5173    0.2914    0.8820 N   0  0  0  0  0  0  0  0  0  0  0  0
    1.4007   -0.5094   -1.6610 H   0  0  0  0  0  0  0  0  0  0  0  0
   -0.3661   -0.5094   -1.6610 H   0  0  0  0  0  0  0  0  0  0  0  0
    0.5173   -2.0403   -1.6700 H   0  0  0  0  0  0  0  0  0  0  0  0
    1.3906   -1.5677    0.6193 H   0  0  0  0  0  0  0  0  0  0  0  0
   -0.3560   -1.5677    0.6193 H   0  0  0  0  0  0  0  0  0  0  0  0
   -0.4578    0.9277    0.5368 H   0  0  0  0  0  0  0  0  0  0  0  0
    1.3299    0.8217    0.5944 H   0  0  0  0  0  0  0  0  0  0  0  0
   -1.5070    1.6124    0.1655 C   0  0  0  0  0  3  0  0  0  0  0  0
   -2.4104    1.0796    0.4584 H   0  0  0  0  0  0  0  0  0  0  0  0
   -1.7119    2.2164   -0.7171 H   0  0  0  0  0  0  0  0  0  0  0  0
   -0.8988    2.2517    0.8036 H   0  0  0  0  0  0  0  0  0  0  0  0
  1  2  1  0
  1  4  1  0
  1  5  1  0
  1  6  1  0
  2  3  1  0
  2  7  1  0
  2  8  1  0
  3  9  1  0
  3 10  1  0
 11 12  1  0
 11 13  1  0
 11 14  1  0
M  RAD  1  11   2
M  END
>  <reaction>  (14) 
rxn_116

>  <mol_properties>  (14) 
{"1": {"label": "*0", "atom_type": "Cs"}, "2": {"label": "*1", "atom_type": "N3s"}, "8": {"label": "*2", "atom_type": "H0"}, "10": {"label": "*3", "atom_type": "Cs"}, "11": {"label": "*4", "atom_type": "H0"}}

>  <type>  (14) 
unop_10

>  <geom_source>  (14) 
Heuristics

$$$$

     RDKit          3D

 14 12  0  0  0  0  0  0  0  0999 V2000
    0.5237   -1.0263   -1.2745 C   0  0  0  0  0  0  0  0  0  0  0  0
    0.5237   -1.0263    0.2508 C   0  0  0  0  0  0  0  0  0  0  0  0
    0.5237    0.2876    0.8802 N   0  0  0  0  0  0  0  0  0  0  0  0
    1.4071   -0.5132   -1.6627 H   0  0  0  0  0  0  0  0  0  0  0  0
   -0.3597   -0.5132   -1.6627 H   0  0  0  0  0  0  0  0  0  0  0  0
    0.5237   -2.0441   -1.6718 H   0  0  0  0  0  0  0  0  0  0  0  0
    1.3970   -1.5715    0.6175 H   0  0  0  0  0  0  0  0  0  0  0  0
   -0.3496   -1.5715    0.6175 H   0  0  0  0  0  0  0  0  0  0  0  0
   -0.4514    0.9239    0.5351 H   0  0  0  0  0  0  0  0  0  0  0  0
    1.3363    0.8178    0.5926 H   0  0  0  0  0  0  0  0  0  0  0  0
   -1.5006    1.6086    0.1637 C   0  0  0  0  0  3  0  0  0  0  0  0
   -1.2611    2.6708    0.1682 H   0  0  0  0  0  0  0  0  0  0  0  0
   -1.9190    1.3268    1.1288 H   0  0  0  0  0  0  0  0  0  0  0  0
   -2.2042    1.7668   -0.6521 H   0  0  0  0  0  0  0  0  0  0  0  0
  1  2  1  0
  1  4  1  0
  1  5  1  0
  1  6  1  0
  2  3  1  0
  2  7  1  0
  2  8  1  0
  3  9  1  0
  3 10  1  0
 11 12  1  0
 11 13  1  0
 11 14  1  0
M  RAD  1  11   2
M  END
>  <reaction>  (15) 
rxn_116

>  <mol_properties>  (15) 
{"1": {"label": "*0", "atom_type": "Cs"}, "2": {"label": "*1", "atom_type": "N3s"}, "8": {"label": "*2", "atom_type": "H0"}, "10": {"label": "*3", "atom_type": "Cs"}, "11": {"label": "*4", "atom_type": "H0"}}

>  <type>  (15) 
unop_11

>  <geom_source>  (15) 
Heuristics

$$$$

     RDKit          3D

 14 12  0  0  0  0  0  0  0  0999 V2000
    0.5130   -1.0207   -1.2697 C   0  0  0  0  0  0  0  0  0  0  0  0
    0.5130   -1.0207    0.2556 C   0  0  0  0  0  0  0  0  0  0  0  0
    0.5130    0.2932    0.8851 N   0  0  0  0  0  0  0  0  0  0  0  0
    1.3964   -0.5076   -1.6579 H   0  0  0  0  0  0  0  0  0  0  0  0
   -0.3704   -0.5076   -1.6579 H   0  0  0  0  0  0  0  0  0  0  0  0
    0.5130   -2.0385   -1.6669 H   0  0  0  0  0  0  0  0  0  0  0  0
    1.3863   -1.5659    0.6224 H   0  0  0  0  0  0  0  0  0  0  0  0
   -0.3603   -1.5659    0.6224 H   0  0  0  0  0  0  0  0  0  0  0  0
   -0.4621    0.9295    0.5399 H   0  0  0  0  0  0  0  0  0  0  0  0
    1.3256    0.8234    0.5975 H   0  0  0  0  0  0  0  0  0  0  0  0
   -1.5113    1.6142    0.1686 C   0  0  0  0  0  3  0  0  0  0  0  0
   -2.1105    1.0169   -0.5170 H   0  0  0  0  0  0  0  0  0  0  0  0
   -1.1908    2.5273   -0.3306 H   0  0  0  0  0  0  0  0  0  0  0  0
   -1.4748    1.9028    1.2179 H   0  0  0  0  0  0  0  0  0  0  0  0
  1  2  1  0
  1  4  1  0
  1  5  1  0
  1  6  1  0
  2  3  1  0
  2  7  1  0
  2  8  1  0
  3  9  1  0
  3 10  1  0
 11 12  1  0
 11 13  1  0
 11 14  1  0
M  RAD  1  11   2
M  END
>  <reaction>  (16) 
rxn_116

>  <mol_properties>  (16) 
{"1": {"label": "*0", "atom_type": "Cs"}, "2": {"label": "*1", "atom_type": "N3s"}, "8": {"label": "*2", "atom_type": "H0"}, "10": {"label": "*3", "atom_type": "Cs"}, "11": {"label": "*4", "atom_type": "H0"}}

>  <type>  (16) 
unop_12

>  <geom_source>  (16) 
Heuristics

$$$$
