
     RDKit          3D

  7  6  0  0  0  0  0  0  0  0999 V2000
   -0.6782    0.0507    0.0301 C   0  0  0  0  0  0  0  0  0  0  0  0
    0.8092    0.0996    0.0213 C   0  0  0  0  0  0  0  0  0  0  0  0
    1.7473    0.7521    1.1507 S   0  0  0  0  0  0  0  0  0  0  0  0
   -1.0667    0.5456   -0.8653 H   0  0  0  0  0  0  0  0  0  0  0  0
   -1.0112   -0.9904   -0.0239 H   0  0  0  0  0  0  0  0  0  0  0  0
   -1.0920    0.5225    0.9188 H   0  0  0  0  0  0  0  0  0  0  0  0
    1.2740   -0.3620   -0.8520 H   0  0  0  0  0  0  0  0  0  0  0  0
  1  2  1  0
  1  4  1  0
  1  5  1  0
  1  6  1  0
  2  3  2  0
  2  7  1  0
M  END
>  <reaction>  (1) 
rxn_1991

>  <mol_properties>  (1) 
{"0": {"label": "donator", "atom_type": "Cs"}, "3": {"label": "d_hydrogen", "atom_type": "H0"}}

>  <type>  (1) 
r1h

$$$$

     RDKit          3D

  4  3  0  0  0  0  0  0  0  0999 V2000
   -0.7528   -0.8706   -0.3839 S   0  0  0  0  0  0  0  0  0  0  0  0
    0.7502   -0.2564   -0.0649 C   0  0  0  0  0  3  0  0  0  0  0  0
    1.5655    0.9691    0.4633 S   0  0  0  0  0  0  0  0  0  0  0  0
   -1.5629    0.1579   -0.0146 H   0  0  0  0  0  0  0  0  0  0  0  0
  1  2  1  0
  1  4  1  0
  2  3  2  0
M  RAD  1   2   2
M  END
>  <reaction>  (2) 
rxn_1991

>  <mol_properties>  (2) 
{"1": {"label": "acceptor", "atom_type": "CS"}}

>  <type>  (2) 
r2

$$$$

     RDKit          3D

  5  4  0  0  0  0  0  0  0  0999 V2000
    1.2280   -0.4626    0.1225 S   0  0  0  0  0  0  0  0  0  0  0  0
   -0.4732   -0.2566   -0.0746 C   0  0  0  0  0  0  0  0  0  0  0  0
   -1.3314    1.1074   -0.0947 S   0  0  0  0  0  0  0  0  0  0  0  0
    1.5289    0.8405    0.2416 H   0  0  0  0  0  0  0  0  0  0  0  0
   -0.9523   -1.2286   -0.1949 H   0  0  0  0  0  0  0  0  0  0  0  0
  1  2  1  0
  1  4  1  0
  2  3  2  0
  2  5  1  0
M  END
>  <reaction>  (3) 
rxn_1991

>  <mol_properties>  (3) 
{"1": {"label": "acceptor", "atom_type": "CS"}, "4": {"label": "a_hydrogen", "atom_type": "H0"}}

>  <type>  (3) 
r2h

$$$$

     RDKit          3D

 11  9  0  0  0  0  0  0  0  0999 V2000
   -1.8757    1.1685    1.0474 S   0  0  0  0  0  0  0  0  0  0  0  0
   -0.7277   -0.0728    0.9608 C   0  0  0  0  0  3  0  0  0  0  0  0
   -0.5510   -1.5282    1.5485 S   0  0  0  0  0  0  0  0  0  0  0  0
   -2.7746    0.5794    1.8615 H   0  0  0  0  0  0  0  0  0  0  0  0
    1.2437    0.5852   -0.7951 C   0  0  0  0  0  0  0  0  0  0  0  0
    2.0247   -0.6105   -0.7279 C   0  0  0  0  0  0  0  0  0  0  0  0
    1.7576   -1.9593   -1.6144 S   0  0  0  0  0  0  0  0  0  0  0  0
    0.3037    0.3417    0.0817 H   0  0  0  0  0  0  0  0  0  0  0  0
    1.7020    1.4910   -0.4033 H   0  0  0  0  0  0  0  0  0  0  0  0
    0.6590    0.7233   -1.7009 H   0  0  0  0  0  0  0  0  0  0  0  0
    2.8121   -0.6260    0.0252 H   0  0  0  0  0  0  0  0  0  0  0  0
  1  2  1  0
  1  4  1  0
  2  3  2  0
  5  6  1  0
  5  8  1  0
  5  9  1  0
  5 10  1  0
  6  7  2  0
  6 11  1  0
M  RAD  1   2   2
M  END
>  <reaction>  (4) 
rxn_1991

>  <mol_properties>  (4) 
{"0": {"label": "*4", "atom_type": "S2s"}, "1": {"label": "*3", "atom_type": "CS"}, "4": {"label": "*1", "atom_type": "Cs"}, "5": {"label": "*0", "atom_type": "CS"}, "7": {"label": "*2", "atom_type": "H0"}}

>  <type>  (4) 
ts

$$$$

     RDKit          3D

 11  9  0  0  0  0  0  0  0  0999 V2000
   -0.2404    0.1603    2.7477 S   0  0  0  0  0  0  0  0  0  0  0  0
   -0.7433    0.1820    1.0979 C   0  0  0  0  0  0  0  0  0  0  0  0
   -1.9813    0.9669    0.4280 S   0  0  0  0  0  0  0  0  0  0  0  0
   -1.1977    0.9792    3.2121 H   0  0  0  0  0  0  0  0  0  0  0  0
    1.3555    0.2464   -0.4717 C   0  0  0  0  0  0  0  0  0  0  0  0
    1.3555   -0.9520   -1.3539 C   0  0  0  0  0  0  0  0  0  0  0  0
    1.3555   -0.9520   -2.9606 S   0  0  0  0  0  1  0  0  0  0  0  0
    0.3041    0.2142    0.3146 H   0  0  0  0  0  0  0  0  0  0  0  0
    2.2317    0.2195    0.1835 H   0  0  0  0  0  0  0  0  0  0  0  0
    1.3555    1.1702   -1.0464 H   0  0  0  0  0  0  0  0  0  0  0  0
    1.3555   -1.9065   -0.8240 H   0  0  0  0  0  0  0  0  0  0  0  0
  1  2  1  0
  1  4  1  0
  2  3  2  0
  2  8  1  0
  5  6  2  3
  5  9  1  0
  5 10  1  0
  6  7  1  0
  6 11  1  0
M  RAD  1   7   2
M  END
>  <reaction>  (5) 
rxn_1991

>  <mol_properties>  (5) 
{"0": {"label": "*4", "atom_type": "S2s"}, "1": {"label": "*3", "atom_type": "CS"}, "4": {"label": "*1", "atom_type": "Cs"}, "5": {"label": "*0", "atom_type": "CS"}, "7": {"label": "*2", "atom_type": "H0"}}

>  <type>  (5) 
unop_1

>  <geom_source>  (5) 
Heuristics

$$$$

     RDKit          3D

 11  9  0  0  0  0  0  0  0  0999 V2000
   -1.1517   -1.1897    1.3903 S   0  0  0  0  0  0  0  0  0  0  0  0
   -0.7103    0.4466    1.0694 C   0  0  0  0  0  0  0  0  0  0  0  0
   -1.1220    1.7816    1.8730 S   0  0  0  0  0  0  0  0  0  0  0  0
   -1.9039   -0.9375    2.4735 H   0  0  0  0  0  0  0  0  0  0  0  0
    1.3885    0.5110   -0.5003 C   0  0  0  0  0  0  0  0  0  0  0  0
    1.3885   -0.6875   -1.3825 C   0  0  0  0  0  0  0  0  0  0  0  0
    1.3885   -0.6875   -2.9892 S   0  0  0  0  0  1  0  0  0  0  0  0
    0.3371    0.4787    0.2860 H   0  0  0  0  0  0  0  0  0  0  0  0
    2.2646    0.4841    0.1549 H   0  0  0  0  0  0  0  0  0  0  0  0
    1.3884    1.4348   -1.0750 H   0  0  0  0  0  0  0  0  0  0  0  0
    1.3885   -1.6419   -0.8526 H   0  0  0  0  0  0  0  0  0  0  0  0
  1  2  1  0
  1  4  1  0
  2  3  2  0
  2  8  1  0
  5  6  2  3
  5  9  1  0
  5 10  1  0
  6  7  1  0
  6 11  1  0
M  RAD  1   7   2
M  END
>  <reaction>  (6) 
rxn_1991

>  <mol_properties>  (6) 
{"0": {"label": "*4", "atom_type": "S2s"}, "1": {"label": "*3", "atom_type": "CS"}, "4": {"label": "*1", "atom_type": "Cs"}, "5": {"label": "*0", "atom_type": "CS"}, "7": {"label": "*2", "atom_type": "H0"}}

>  <type>  (6) 
unop_2

>  <geom_source>  (6) 
Heuristics

$$$$

     RDKit          3D

 11  9  0  0  0  0  0  0  0  0999 V2000
   -0.3047    1.0011    2.6451 S   0  0  0  0  0  0  0  0  0  0  0  0
   -0.6636    0.2108    1.1545 C   0  0  0  0  0  0  0  0  0  0  0  0
   -2.0850    0.0483    0.4124 S   0  0  0  0  0  0  0  0  0  0  0  0
   -1.5596    1.3918    2.9192 H   0  0  0  0  0  0  0  0  0  0  0  0
    1.4352    0.2752   -0.4151 C   0  0  0  0  0  0  0  0  0  0  0  0
    1.4352   -0.9232   -1.2973 C   0  0  0  0  0  0  0  0  0  0  0  0
    1.4352   -0.9232   -2.9040 S   0  0  0  0  0  1  0  0  0  0  0  0
    0.3838    0.2430    0.3712 H   0  0  0  0  0  0  0  0  0  0  0  0
    2.3113    0.2484    0.2401 H   0  0  0  0  0  0  0  0  0  0  0  0
    1.4352    1.1990   -0.9898 H   0  0  0  0  0  0  0  0  0  0  0  0
    1.4352   -1.8777   -0.7674 H   0  0  0  0  0  0  0  0  0  0  0  0
  1  2  1  0
  1  4  1  0
  2  3  2  0
  2  8  1  0
  5  6  2  3
  5  9  1  0
  5 10  1  0
  6  7  1  0
  6 11  1  0
M  RAD  1   7   2
M  END
>  <reaction>  (7) 
rxn_1991

>  <mol_properties>  (7) 
{"0": {"label": "*4", "atom_type": "S2s"}, "1": {"label": "*3", "atom_type": "CS"}, "4": {"label": "*1", "atom_type": "Cs"}, "5": {"label": "*0", "atom_type": "CS"}, "7": {"label": "*2", "atom_type": "H0"}}

>  <type>  (7) 
unop_3

>  <geom_source>  (7) 
Heuristics

$$$$

     RDKit          3D

 11  9  0  0  0  0  0  0  0  0999 V2000
   -2.0641    0.2068    0.2750 S   0  0  0  0  0  0  0  0  0  0  0  0
   -0.6234    0.2140    1.2235 C   0  0  0  0  0  0  0  0  0  0  0  0
   -0.3762    0.8516    2.6829 S   0  0  0  0  0  0  0  0  0  0  0  0
   -2.8287    0.8795    1.1500 H   0  0  0  0  0  0  0  0  0  0  0  0
    1.4754    0.2784   -0.3462 C   0  0  0  0  0  0  0  0  0  0  0  0
    1.4754   -0.9201   -1.2284 C   0  0  0  0  0  0  0  0  0  0  0  0
    1.4754   -0.9201   -2.8350 S   0  0  0  0  0  1  0  0  0  0  0  0
    0.4241    0.2461    0.4401 H   0  0  0  0  0  0  0  0  0  0  0  0
    2.3516    0.2515    0.3091 H   0  0  0  0  0  0  0  0  0  0  0  0
    1.4754    1.2022   -0.9208 H   0  0  0  0  0  0  0  0  0  0  0  0
    1.4754   -1.8745   -0.6984 H   0  0  0  0  0  0  0  0  0  0  0  0
  1  2  1  0
  1  4  1  0
  2  3  2  0
  2  8  1  0
  5  6  2  3
  5  9  1  0
  5 10  1  0
  6  7  1  0
  6 11  1  0
M  RAD  1   7   2
M  END
>  <reaction>  (8) 
rxn_1991

>  <mol_properties>  (8) 
{"0": {"label": "*4", "atom_type": "S2s"}, "1": {"label": "*3", "atom_type": "CS"}, "4": {"label": "*1", "atom_type": "Cs"}, "5": {"label": "*0", "atom_type": "CS"}, "7": {"label": "*2", "atom_type": "H0"}}

>  <type>  (8) 
unop_4

>  <geom_source>  (8) 
Heuristics

$$$$

     RDKit          3D

 11  9  0  0  0  0  0  0  0  0999 V2000
   -0.6672    1.7034    2.1332 S   0  0  0  0  0  0  0  0  0  0  0  0
   -0.6603    0.3168    1.1073 C   0  0  0  0  0  0  0  0  0  0  0  0
   -1.7224   -0.8932    1.0348 S   0  0  0  0  0  0  0  0  0  0  0  0
   -1.8011    1.4059    2.7879 H   0  0  0  0  0  0  0  0  0  0  0  0
    1.4385    0.3812   -0.4624 C   0  0  0  0  0  0  0  0  0  0  0  0
    1.4385   -0.8172   -1.3446 C   0  0  0  0  0  0  0  0  0  0  0  0
    1.4385   -0.8172   -2.9512 S   0  0  0  0  0  1  0  0  0  0  0  0
    0.3871    0.3490    0.3239 H   0  0  0  0  0  0  0  0  0  0  0  0
    2.3146    0.3544    0.1928 H   0  0  0  0  0  0  0  0  0  0  0  0
    1.4385    1.3050   -1.0371 H   0  0  0  0  0  0  0  0  0  0  0  0
    1.4385   -1.7716   -0.8146 H   0  0  0  0  0  0  0  0  0  0  0  0
  1  2  1  0
  1  4  1  0
  2  3  2  0
  2  8  1  0
  5  6  2  3
  5  9  1  0
  5 10  1  0
  6  7  1  0
  6 11  1  0
M  RAD  1   7   2
M  END
>  <reaction>  (9) 
rxn_1991

>  <mol_properties>  (9) 
{"0": {"label": "*4", "atom_type": "S2s"}, "1": {"label": "*3", "atom_type": "CS"}, "4": {"label": "*1", "atom_type": "Cs"}, "5": {"label": "*0", "atom_type": "CS"}, "7": {"label": "*2", "atom_type": "H0"}}

>  <type>  (9) 
unop_5

>  <geom_source>  (9) 
Heuristics

$$$$

     RDKit          3D

 11  9  0  0  0  0  0  0  0  0999 V2000
   -2.0236    0.9657    0.3957 S   0  0  0  0  0  0  0  0  0  0  0  0
   -0.6993    0.1629    1.1553 C   0  0  0  0  0  0  0  0  0  0  0  0
   -0.2562    0.1862    2.7047 S   0  0  0  0  0  0  0  0  0  0  0  0
   -2.4970    1.5631    1.5011 H   0  0  0  0  0  0  0  0  0  0  0  0
    1.3995    0.2273   -0.4143 C   0  0  0  0  0  0  0  0  0  0  0  0
    1.3995   -0.9712   -1.2965 C   0  0  0  0  0  0  0  0  0  0  0  0
    1.3995   -0.9712   -2.9032 S   0  0  0  0  0  1  0  0  0  0  0  0
    0.3481    0.1950    0.3719 H   0  0  0  0  0  0  0  0  0  0  0  0
    2.2757    0.2004    0.2409 H   0  0  0  0  0  0  0  0  0  0  0  0
    1.3995    1.1511   -0.9890 H   0  0  0  0  0  0  0  0  0  0  0  0
    1.3995   -1.9256   -0.7666 H   0  0  0  0  0  0  0  0  0  0  0  0
  1  2  1  0
  1  4  1  0
  2  3  2  0
  2  8  1  0
  5  6  2  3
  5  9  1  0
  5 10  1  0
  6  7  1  0
  6 11  1  0
M  RAD  1   7   2
M  END
>  <reaction>  (10) 
rxn_1991

>  <mol_properties>  (10) 
{"0": {"label": "*4", "atom_type": "S2s"}, "1": {"label": "*3", "atom_type": "CS"}, "4": {"label": "*1", "atom_type": "Cs"}, "5": {"label": "*0", "atom_type": "CS"}, "7": {"label": "*2", "atom_type": "H0"}}

>  <type>  (10) 
unop_6

>  <geom_source>  (10) 
Heuristics

$$$$

     RDKit          3D

 11  9  0  0  0  0  0  0  0  0999 V2000
   -1.7407    1.5937    0.8004 S   0  0  0  0  0  0  0  0  0  0  0  0
   -0.7620    0.1999    1.0736 C   0  0  0  0  0  0  0  0  0  0  0  0
   -0.4114   -0.5330    2.4656 S   0  0  0  0  0  0  0  0  0  0  0  0
   -2.0659    1.8087    2.0853 H   0  0  0  0  0  0  0  0  0  0  0  0
    1.3368    0.2643   -0.4960 C   0  0  0  0  0  0  0  0  0  0  0  0
    1.3368   -0.9341   -1.3782 C   0  0  0  0  0  0  0  0  0  0  0  0
    1.3368   -0.9341   -2.9849 S   0  0  0  0  0  1  0  0  0  0  0  0
    0.2854    0.2320    0.2903 H   0  0  0  0  0  0  0  0  0  0  0  0
    2.2129    0.2374    0.1592 H   0  0  0  0  0  0  0  0  0  0  0  0
    1.3368    1.1881   -1.0707 H   0  0  0  0  0  0  0  0  0  0  0  0
    1.3368   -1.8886   -0.8483 H   0  0  0  0  0  0  0  0  0  0  0  0
  1  2  1  0
  1  4  1  0
  2  3  2  0
  2  8  1  0
  5  6  2  3
  5  9  1  0
  5 10  1  0
  6  7  1  0
  6 11  1  0
M  RAD  1   7   2
M  END
>  <reaction>  (11) 
rxn_1991

>  <mol_properties>  (11) 
{"0": {"label": "*4", "atom_type": "S2s"}, "1": {"label": "*3", "atom_type": "CS"}, "4": {"label": "*1", "atom_type": "Cs"}, "5": {"label": "*0", "atom_type": "CS"}, "7": {"label": "*2", "atom_type": "H0"}}

>  <type>  (11) 
unop_7

>  <geom_source>  (11) 
Heuristics

$$$$

     RDKit          3D

 11  9  0  0  0  0  0  0  0  0999 V2000
   -0.4075   -0.5782    2.4932 S   0  0  0  0  0  0  0  0  0  0  0  0
   -0.7941    0.2534    1.0323 C   0  0  0  0  0  0  0  0  0  0  0  0
   -1.7030    1.5684    0.8270 S   0  0  0  0  0  0  0  0  0  0  0  0
   -1.0981    0.2266    3.3168 H   0  0  0  0  0  0  0  0  0  0  0  0
    1.3047    0.3178   -0.5373 C   0  0  0  0  0  0  0  0  0  0  0  0
    1.3047   -0.8806   -1.4195 C   0  0  0  0  0  0  0  0  0  0  0  0
    1.3047   -0.8806   -3.0262 S   0  0  0  0  0  1  0  0  0  0  0  0
    0.2534    0.2856    0.2489 H   0  0  0  0  0  0  0  0  0  0  0  0
    2.1809    0.2909    0.1179 H   0  0  0  0  0  0  0  0  0  0  0  0
    1.3047    1.2416   -1.1120 H   0  0  0  0  0  0  0  0  0  0  0  0
    1.3047   -1.8351   -0.8896 H   0  0  0  0  0  0  0  0  0  0  0  0
  1  2  1  0
  1  4  1  0
  2  3  2  0
  2  8  1  0
  5  6  2  3
  5  9  1  0
  5 10  1  0
  6  7  1  0
  6 11  1  0
M  RAD  1   7   2
M  END
>  <reaction>  (12) 
rxn_1991

>  <mol_properties>  (12) 
{"0": {"label": "*4", "atom_type": "S2s"}, "1": {"label": "*3", "atom_type": "CS"}, "4": {"label": "*1", "atom_type": "Cs"}, "5": {"label": "*0", "atom_type": "CS"}, "7": {"label": "*2", "atom_type": "H0"}}

>  <type>  (12) 
unop_8

>  <geom_source>  (12) 
Heuristics

$$$$

     RDKit          3D

 11  9  0  0  0  0  0  0  0  0999 V2000
   -1.8830   -0.4910    0.4412 S   0  0  0  0  0  0  0  0  0  0  0  0
   -0.5863    0.3280    1.2304 C   0  0  0  0  0  0  0  0  0  0  0  0
   -0.6398    1.3209    2.4988 S   0  0  0  0  0  0  0  0  0  0  0  0
   -2.8646   -0.0197    1.2266 H   0  0  0  0  0  0  0  0  0  0  0  0
    1.5125    0.3924   -0.3392 C   0  0  0  0  0  0  0  0  0  0  0  0
    1.5125   -0.8060   -1.2214 C   0  0  0  0  0  0  0  0  0  0  0  0
    1.5125   -0.8060   -2.8281 S   0  0  0  0  0  1  0  0  0  0  0  0
    0.4612    0.3602    0.4471 H   0  0  0  0  0  0  0  0  0  0  0  0
    2.3887    0.3656    0.3160 H   0  0  0  0  0  0  0  0  0  0  0  0
    1.5125    1.3162   -0.9139 H   0  0  0  0  0  0  0  0  0  0  0  0
    1.5125   -1.7604   -0.6915 H   0  0  0  0  0  0  0  0  0  0  0  0
  1  2  1  0
  1  4  1  0
  2  3  2  0
  2  8  1  0
  5  6  2  3
  5  9  1  0
  5 10  1  0
  6  7  1  0
  6 11  1  0
M  RAD  1   7   2
M  END
>  <reaction>  (13) 
rxn_1991

>  <mol_properties>  (13) 
{"0": {"label": "*4", "atom_type": "S2s"}, "1": {"label": "*3", "atom_type": "CS"}, "4": {"label": "*1", "atom_type": "Cs"}, "5": {"label": "*0", "atom_type": "CS"}, "7": {"label": "*2", "atom_type": "H0"}}

>  <type>  (13) 
unop_9

>  <geom_source>  (13) 
Heuristics

$$$$

     RDKit          3D

 11  9  0  0  0  0  0  0  0  0999 V2000
   -0.7415   -1.0567    1.9916 S   0  0  0  0  0  0  0  0  0  0  0  0
   -0.7824    0.3659    1.0171 C   0  0  0  0  0  0  0  0  0  0  0  0
   -1.3871    1.8174    1.3709 S   0  0  0  0  0  0  0  0  0  0  0  0
   -1.3551   -0.5284    3.0626 H   0  0  0  0  0  0  0  0  0  0  0  0
    1.3164    0.4303   -0.5526 C   0  0  0  0  0  0  0  0  0  0  0  0
    1.3164   -0.7681   -1.4348 C   0  0  0  0  0  0  0  0  0  0  0  0
    1.3164   -0.7681   -3.0414 S   0  0  0  0  0  1  0  0  0  0  0  0
    0.2650    0.3981    0.2337 H   0  0  0  0  0  0  0  0  0  0  0  0
    2.1925    0.4034    0.1027 H   0  0  0  0  0  0  0  0  0  0  0  0
    1.3164    1.3541   -1.1272 H   0  0  0  0  0  0  0  0  0  0  0  0
    1.3164   -1.7226   -0.9048 H   0  0  0  0  0  0  0  0  0  0  0  0
  1  2  1  0
  1  4  1  0
  2  3  2  0
  2  8  1  0
  5  6  2  3
  5  9  1  0
  5 10  1  0
  6  7  1  0
  6 11  1  0
M  RAD  1   7   2
M  END
>  <reaction>  (14) 
rxn_1991

>  <mol_properties>  (14) 
{"0": {"label": "*4", "atom_type": "S2s"}, "1": {"label": "*3", "atom_type": "CS"}, "4": {"label": "*1", "atom_type": "Cs"}, "5": {"label": "*0", "atom_type": "CS"}, "7": {"label": "*2", "atom_type": "H0"}}

>  <type>  (14) 
unop_10

>  <geom_source>  (14) 
Heuristics

$$$$

     RDKit          3D

 11  9  0  0  0  0  0  0  0  0999 V2000
   -1.2487    1.9029    1.4199 S   0  0  0  0  0  0  0  0  0  0  0  0
   -0.7522    0.2954    1.0396 C   0  0  0  0  0  0  0  0  0  0  0  0
   -0.9341   -1.0513    1.9061 S   0  0  0  0  0  0  0  0  0  0  0  0
   -1.7961    1.6178    2.6123 H   0  0  0  0  0  0  0  0  0  0  0  0
    1.3466    0.3598   -0.5301 C   0  0  0  0  0  0  0  0  0  0  0  0
    1.3466   -0.8386   -1.4123 C   0  0  0  0  0  0  0  0  0  0  0  0
    1.3466   -0.8386   -3.0189 S   0  0  0  0  0  1  0  0  0  0  0  0
    0.2953    0.3276    0.2562 H   0  0  0  0  0  0  0  0  0  0  0  0
    2.2228    0.3330    0.1251 H   0  0  0  0  0  0  0  0  0  0  0  0
    1.3466    1.2836   -1.1048 H   0  0  0  0  0  0  0  0  0  0  0  0
    1.3466   -1.7930   -0.8823 H   0  0  0  0  0  0  0  0  0  0  0  0
  1  2  1  0
  1  4  1  0
  2  3  2  0
  2  8  1  0
  5  6  2  3
  5  9  1  0
  5 10  1  0
  6  7  1  0
  6 11  1  0
M  RAD  1   7   2
M  END
>  <reaction>  (15) 
rxn_1991

>  <mol_properties>  (15) 
{"0": {"label": "*4", "atom_type": "S2s"}, "1": {"label": "*3", "atom_type": "CS"}, "4": {"label": "*1", "atom_type": "Cs"}, "5": {"label": "*0", "atom_type": "CS"}, "7": {"label": "*2", "atom_type": "H0"}}

>  <type>  (15) 
unop_11

>  <geom_source>  (15) 
Heuristics

$$$$

     RDKit          3D

 11  9  0  0  0  0  0  0  0  0999 V2000
   -1.5531   -0.9831    0.8383 S   0  0  0  0  0  0  0  0  0  0  0  0
   -0.6222    0.4323    1.1629 C   0  0  0  0  0  0  0  0  0  0  0  0
   -0.8997    1.6012    2.2372 S   0  0  0  0  0  0  0  0  0  0  0  0
   -2.5120   -0.7499    1.7488 H   0  0  0  0  0  0  0  0  0  0  0  0
    1.4766    0.4967   -0.4067 C   0  0  0  0  0  0  0  0  0  0  0  0
    1.4766   -0.7018   -1.2889 C   0  0  0  0  0  0  0  0  0  0  0  0
    1.4766   -0.7018   -2.8956 S   0  0  0  0  0  1  0  0  0  0  0  0
    0.4252    0.4644    0.3796 H   0  0  0  0  0  0  0  0  0  0  0  0
    2.3527    0.4698    0.2485 H   0  0  0  0  0  0  0  0  0  0  0  0
    1.4766    1.4205   -0.9814 H   0  0  0  0  0  0  0  0  0  0  0  0
    1.4766   -1.6562   -0.7590 H   0  0  0  0  0  0  0  0  0  0  0  0
  1  2  1  0
  1  4  1  0
  2  3  2  0
  2  8  1  0
  5  6  2  3
  5  9  1  0
  5 10  1  0
  6  7  1  0
  6 11  1  0
M  RAD  1   7   2
M  END
>  <reaction>  (16) 
rxn_1991

>  <mol_properties>  (16) 
{"0": {"label": "*4", "atom_type": "S2s"}, "1": {"label": "*3", "atom_type": "CS"}, "4": {"label": "*1", "atom_type": "Cs"}, "5": {"label": "*0", "atom_type": "CS"}, "7": {"label": "*2", "atom_type": "H0"}}

>  <type>  (16) 
unop_12

>  <geom_source>  (16) 
Heuristics

$$$$

     RDKit          3D

 11  9  0  0  0  0  0  0  0  0999 V2000
    2.5358    0.9283    0.6033 S   0  0  0  0  0  0  0  0  0  0  0  0
   -1.4959    1.4401    1.3104 S   0  0  0  0  0  1  0  0  0  0  0  0
    2.2795   -1.7190   -0.2626 S   0  0  0  0  0  0  0  0  0  0  0  0
   -0.9152   -0.3007   -0.4428 C   0  0  0  0  0  0  0  0  0  0  0  0
   -1.8711    0.2893    0.5410 C   0  0  0  0  0  0  0  0  0  0  0  0
    1.5990   -0.5283    0.1537 C   0  0  0  0  0  0  0  0  0  0  0  0
   -2.8279   -0.1891    0.7237 H   0  0  0  0  0  0  0  0  0  0  0  0
   -0.7385    0.4089   -1.2791 H   0  0  0  0  0  0  0  0  0  0  0  0
   -1.3287   -1.2465   -0.8512 H   0  0  0  0  0  0  0  0  0  0  0  0
    0.2633   -0.5091    0.2164 H   0  0  0  0  0  0  0  0  0  0  0  0
    2.4996    1.4262   -0.7128 H   0  0  0  0  0  0  0  0  0  0  0  0
  1  6  1  0
  1 11  1  0
  2  5  1  0
  3  6  2  0
  4  5  2  3
  4  8  1  0
  4  9  1  0
  5  7  1  0
  6 10  1  0
M  RAD  1   2   2
M  END
>  <reaction>  (17) 
rxn_1991

>  <mol_properties>  (17) 
{"0": {"label": "*4", "atom_type": "S2s"}, "1": {"label": "*3", "atom_type": "CS"}, "4": {"label": "*1", "atom_type": "Cs"}, "5": {"label": "*0", "atom_type": "CS"}, "7": {"label": "*2", "atom_type": "H0"}}

>  <type>  (17) 
unop_13

>  <geom_source>  (17) 
AutoTST

$$$$
