
     RDKit          3D

  7  6  0  0  0  0  0  0  0  0999 V2000
   -0.6468   -0.0443   -0.0231 C   0  0  0  0  0  0  0  0  0  0  0  0
    0.8470    0.0371    0.0688 C   0  0  0  0  0  0  0  0  0  0  0  0
    1.4866   -0.2280    1.0479 O   0  0  0  0  0  0  0  0  0  0  0  0
   -1.0466    0.9363   -0.2943 H   0  0  0  0  0  0  0  0  0  0  0  0
   -0.9229   -0.7318   -0.8269 H   0  0  0  0  0  0  0  0  0  0  0  0
   -1.0759   -0.3772    0.9198 H   0  0  0  0  0  0  0  0  0  0  0  0
    1.3584    0.3712   -0.8589 H   0  0  0  0  0  0  0  0  0  0  0  0
  1  2  1  0
  1  4  1  0
  1  5  1  0
  1  6  1  0
  2  3  2  0
  2  7  1  0
M  END
>  <reaction>  (1) 
rxn_3216

>  <mol_properties>  (1) 
{"0": {"label": "donator", "atom_type": "Cs"}, "3": {"label": "d_hydrogen", "atom_type": "H0"}}

>  <type>  (1) 
r1h

$$$$

     RDKit          3D

  7  6  0  0  0  0  0  0  0  0999 V2000
   -1.3059    0.5497   -0.1304 N   0  0  0  0  0  2  0  0  0  0  0  0
   -0.2700   -0.4288    0.0448 C   0  0  0  0  0  0  0  0  0  0  0  0
    1.1109    0.0669    0.0401 C   0  0  0  0  0  0  0  0  0  0  0  0
    2.1758    0.4925    0.0308 N   0  0  0  0  0  0  0  0  0  0  0  0
   -0.8815    1.4733   -0.2339 H   0  0  0  0  0  0  0  0  0  0  0  0
   -0.3767   -1.1909   -0.7373 H   0  0  0  0  0  0  0  0  0  0  0  0
   -0.4527   -0.9628    0.9858 H   0  0  0  0  0  0  0  0  0  0  0  0
  1  2  1  0
  1  5  1  0
  2  3  1  0
  2  6  1  0
  2  7  1  0
  3  4  3  0
M  RAD  1   1   2
M  END
>  <reaction>  (2) 
rxn_3216

>  <mol_properties>  (2) 
{"0": {"label": "acceptor", "atom_type": "N3s"}}

>  <type>  (2) 
r2

$$$$

     RDKit          3D

  8  7  0  0  0  0  0  0  0  0999 V2000
   -1.0805    0.5317    0.0204 N   0  0  0  0  0  0  0  0  0  0  0  0
   -0.1080   -0.5393    0.0956 C   0  0  0  0  0  0  0  0  0  0  0  0
    1.2945   -0.1247   -0.1005 C   0  0  0  0  0  0  0  0  0  0  0  0
    2.3714    0.2386   -0.2580 N   0  0  0  0  0  0  0  0  0  0  0  0
   -1.0516    0.9857   -0.8822 H   0  0  0  0  0  0  0  0  0  0  0  0
   -0.9009    1.2352    0.7235 H   0  0  0  0  0  0  0  0  0  0  0  0
   -0.3427   -1.2965   -0.6542 H   0  0  0  0  0  0  0  0  0  0  0  0
   -0.1810   -1.0288    1.0680 H   0  0  0  0  0  0  0  0  0  0  0  0
  1  2  1  0
  1  5  1  0
  1  6  1  0
  2  3  1  0
  2  7  1  0
  2  8  1  0
  3  4  3  0
M  END
>  <reaction>  (3) 
rxn_3216

>  <mol_properties>  (3) 
{"0": {"label": "acceptor", "atom_type": "N3s"}, "7": {"label": "a_hydrogen", "atom_type": "H0"}}

>  <type>  (3) 
r2h

$$$$

     RDKit          3D

 14 12  0  0  0  0  0  0  0  0999 V2000
   -0.2691    0.4614    1.8367 N   0  0  0  0  0  2  0  0  0  0  0  0
   -1.2353   -0.3460    1.1106 C   0  0  0  0  0  0  0  0  0  0  0  0
   -1.9612    0.3663    0.0519 C   0  0  0  0  0  0  0  0  0  0  0  0
   -2.5016    0.9700   -0.7601 N   0  0  0  0  0  0  0  0  0  0  0  0
   -0.6358    1.4095    1.9286 H   0  0  0  0  0  0  0  0  0  0  0  0
   -1.9659   -0.7328    1.8291 H   0  0  0  0  0  0  0  0  0  0  0  0
   -0.7285   -1.2072    0.6707 H   0  0  0  0  0  0  0  0  0  0  0  0
    1.4615    0.8037   -0.0386 C   0  0  0  0  0  0  0  0  0  0  0  0
    2.0909   -0.5253   -0.1297 C   0  0  0  0  0  0  0  0  0  0  0  0
    1.5503   -1.4867   -0.6212 O   0  0  0  0  0  0  0  0  0  0  0  0
    0.7286    0.6469    1.0086 H   0  0  0  0  0  0  0  0  0  0  0  0
    2.1265    1.6265    0.2110 H   0  0  0  0  0  0  0  0  0  0  0  0
    0.7564    1.0195   -0.8376 H   0  0  0  0  0  0  0  0  0  0  0  0
    3.0928   -0.6235    0.3312 H   0  0  0  0  0  0  0  0  0  0  0  0
  1  2  1  0
  1  5  1  0
  2  3  1  0
  2  6  1  0
  2  7  1  0
  3  4  3  0
  8  9  1  0
  8 11  1  0
  8 12  1  0
  8 13  1  0
  9 10  2  0
  9 14  1  0
M  RAD  1   1   2
M  END
>  <reaction>  (4) 
rxn_3216

>  <mol_properties>  (4) 
{"0": {"label": "*3", "atom_type": "N3s"}, "1": {"label": "*4", "atom_type": "Cs"}, "7": {"label": "*1", "atom_type": "Cs"}, "8": {"label": "*0", "atom_type": "CO"}, "10": {"label": "*2", "atom_type": "H0"}}

>  <type>  (4) 
ts

$$$$

     RDKit          3D

 14 12  0  0  0  0  0  0  0  0999 V2000
   -1.0184    0.8226    0.2783 N   0  0  0  0  0  0  0  0  0  0  0  0
   -0.6307    0.8411    1.6739 C   0  0  0  0  0  0  0  0  0  0  0  0
   -0.7106   -0.4620    2.3618 C   0  0  0  0  0  0  0  0  0  0  0  0
   -0.7866   -1.4930    2.8596 N   0  0  0  0  0  0  0  0  0  0  0  0
   -1.9746    0.5134    0.1711 H   0  0  0  0  0  0  0  0  0  0  0  0
   -1.2611    1.5470    2.2169 H   0  0  0  0  0  0  0  0  0  0  0  0
    0.3941    1.2051    1.7616 H   0  0  0  0  0  0  0  0  0  0  0  0
    1.0087    0.8487   -1.2265 C   0  0  0  0  0  0  0  0  0  0  0  0
    1.0087   -0.3833   -2.0802 C   0  0  0  0  0  0  0  0  0  0  0  0
    1.0087   -0.3833   -3.2794 O   0  0  0  0  0  1  0  0  0  0  0  0
   -0.0445    0.8351   -0.4446 H   0  0  0  0  0  0  0  0  0  0  0  0
    1.8864    0.8374   -0.5749 H   0  0  0  0  0  0  0  0  0  0  0  0
    1.0088    1.7465   -1.8410 H   0  0  0  0  0  0  0  0  0  0  0  0
    1.0087   -1.3433   -1.5216 H   0  0  0  0  0  0  0  0  0  0  0  0
  1  2  1  0
  1  5  1  0
  1 11  1  0
  2  3  1  0
  2  6  1  0
  2  7  1  0
  3  4  3  0
  8  9  2  3
  8 12  1  0
  8 13  1  0
  9 10  1  0
  9 14  1  0
M  RAD  1  10   2
M  END
>  <reaction>  (5) 
rxn_3216

>  <mol_properties>  (5) 
{"0": {"label": "*3", "atom_type": "N3s"}, "1": {"label": "*4", "atom_type": "Cs"}, "7": {"label": "*1", "atom_type": "Cs"}, "8": {"label": "*0", "atom_type": "CO"}, "10": {"label": "*2", "atom_type": "H0"}}

>  <type>  (5) 
unop_1

>  <geom_source>  (5) 
Heuristics

$$$$

     RDKit          3D

 14 12  0  0  0  0  0  0  0  0999 V2000
   -0.4532    1.1531    1.3560 N   0  0  0  0  0  0  0  0  0  0  0  0
   -0.8457   -0.2039    1.6770 C   0  0  0  0  0  0  0  0  0  0  0  0
   -1.6040   -0.9014    0.6206 C   0  0  0  0  0  0  0  0  0  0  0  0
   -2.1907   -1.4080   -0.2254 N   0  0  0  0  0  0  0  0  0  0  0  0
   -1.2617    1.7307    1.1710 H   0  0  0  0  0  0  0  0  0  0  0  0
   -1.4548   -0.2016    2.5822 H   0  0  0  0  0  0  0  0  0  0  0  0
    0.0432   -0.7963    1.8995 H   0  0  0  0  0  0  0  0  0  0  0  0
    1.5739    1.1791   -0.1487 C   0  0  0  0  0  0  0  0  0  0  0  0
    1.5739   -0.0528   -1.0024 C   0  0  0  0  0  0  0  0  0  0  0  0
    1.5739   -0.0528   -2.2016 O   0  0  0  0  0  1  0  0  0  0  0  0
    0.5206    1.1656    0.6331 H   0  0  0  0  0  0  0  0  0  0  0  0
    2.4515    1.1678    0.5029 H   0  0  0  0  0  0  0  0  0  0  0  0
    1.5739    2.0770   -0.7633 H   0  0  0  0  0  0  0  0  0  0  0  0
    1.5738   -1.0128   -0.4438 H   0  0  0  0  0  0  0  0  0  0  0  0
  1  2  1  0
  1  5  1  0
  1 11  1  0
  2  3  1  0
  2  6  1  0
  2  7  1  0
  3  4  3  0
  8  9  2  3
  8 12  1  0
  8 13  1  0
  9 10  1  0
  9 14  1  0
M  RAD  1  10   2
M  END
>  <reaction>  (6) 
rxn_3216

>  <mol_properties>  (6) 
{"0": {"label": "*3", "atom_type": "N3s"}, "1": {"label": "*4", "atom_type": "Cs"}, "7": {"label": "*1", "atom_type": "Cs"}, "8": {"label": "*0", "atom_type": "CO"}, "10": {"label": "*2", "atom_type": "H0"}}

>  <type>  (6) 
unop_2

>  <geom_source>  (6) 
Heuristics

$$$$

     RDKit          3D

 14 12  0  0  0  0  0  0  0  0999 V2000
   -1.1871    0.3877    0.1896 N   0  0  0  0  0  0  0  0  0  0  0  0
   -0.9200    1.0788    1.4344 C   0  0  0  0  0  0  0  0  0  0  0  0
   -0.4119    0.2257    2.5260 C   0  0  0  0  0  0  0  0  0  0  0  0
   -0.0189   -0.4717    3.3481 N   0  0  0  0  0  0  0  0  0  0  0  0
   -1.8803   -0.3366    0.3179 H   0  0  0  0  0  0  0  0  0  0  0  0
   -1.8328    1.5637    1.7839 H   0  0  0  0  0  0  0  0  0  0  0  0
   -0.1911    1.8719    1.2606 H   0  0  0  0  0  0  0  0  0  0  0  0
    0.8400    0.4137   -1.3151 C   0  0  0  0  0  0  0  0  0  0  0  0
    0.8400   -0.8182   -2.1689 C   0  0  0  0  0  0  0  0  0  0  0  0
    0.8400   -0.8182   -3.3680 O   0  0  0  0  0  1  0  0  0  0  0  0
   -0.2133    0.4002   -0.5333 H   0  0  0  0  0  0  0  0  0  0  0  0
    1.7177    0.4024   -0.6636 H   0  0  0  0  0  0  0  0  0  0  0  0
    0.8400    1.3116   -1.9297 H   0  0  0  0  0  0  0  0  0  0  0  0
    0.8400   -1.7782   -1.6102 H   0  0  0  0  0  0  0  0  0  0  0  0
  1  2  1  0
  1  5  1  0
  1 11  1  0
  2  3  1  0
  2  6  1  0
  2  7  1  0
  3  4  3  0
  8  9  2  3
  8 12  1  0
  8 13  1  0
  9 10  1  0
  9 14  1  0
M  RAD  1  10   2
M  END
>  <reaction>  (7) 
rxn_3216

>  <mol_properties>  (7) 
{"0": {"label": "*3", "atom_type": "N3s"}, "1": {"label": "*4", "atom_type": "Cs"}, "7": {"label": "*1", "atom_type": "Cs"}, "8": {"label": "*0", "atom_type": "CO"}, "10": {"label": "*2", "atom_type": "H0"}}

>  <type>  (7) 
unop_3

>  <geom_source>  (7) 
Heuristics

$$$$

     RDKit          3D

 14 12  0  0  0  0  0  0  0  0999 V2000
   -0.4407    0.1374    1.9075 N   0  0  0  0  0  0  0  0  0  0  0  0
   -1.6640    0.1083    1.1322 C   0  0  0  0  0  0  0  0  0  0  0  0
   -1.5621    0.6951   -0.2179 C   0  0  0  0  0  0  0  0  0  0  0  0
   -1.4410    1.1601   -1.2599 N   0  0  0  0  0  0  0  0  0  0  0  0
   -0.1196    1.0861    2.0436 H   0  0  0  0  0  0  0  0  0  0  0  0
   -2.4489    0.6406    1.6717 H   0  0  0  0  0  0  0  0  0  0  0  0
   -2.0021   -0.9236    1.0255 H   0  0  0  0  0  0  0  0  0  0  0  0
    1.5864    0.1635    0.4028 C   0  0  0  0  0  0  0  0  0  0  0  0
    1.5864   -1.0684   -0.4509 C   0  0  0  0  0  0  0  0  0  0  0  0
    1.5864   -1.0684   -1.6501 O   0  0  0  0  0  1  0  0  0  0  0  0
    0.5332    0.1499    1.1847 H   0  0  0  0  0  0  0  0  0  0  0  0
    2.4641    0.1522    1.0544 H   0  0  0  0  0  0  0  0  0  0  0  0
    1.5864    1.0613   -0.2118 H   0  0  0  0  0  0  0  0  0  0  0  0
    1.5864   -2.0285    0.1077 H   0  0  0  0  0  0  0  0  0  0  0  0
  1  2  1  0
  1  5  1  0
  1 11  1  0
  2  3  1  0
  2  6  1  0
  2  7  1  0
  3  4  3  0
  8  9  2  3
  8 12  1  0
  8 13  1  0
  9 10  1  0
  9 14  1  0
M  RAD  1  10   2
M  END
>  <reaction>  (8) 
rxn_3216

>  <mol_properties>  (8) 
{"0": {"label": "*3", "atom_type": "N3s"}, "1": {"label": "*4", "atom_type": "Cs"}, "7": {"label": "*1", "atom_type": "Cs"}, "8": {"label": "*0", "atom_type": "CO"}, "10": {"label": "*2", "atom_type": "H0"}}

>  <type>  (8) 
unop_4

>  <geom_source>  (8) 
Heuristics

$$$$

     RDKit          3D

 14 12  0  0  0  0  0  0  0  0999 V2000
   -1.3098   -0.1818    0.4211 N   0  0  0  0  0  0  0  0  0  0  0  0
   -1.3468    0.9953    1.2646 C   0  0  0  0  0  0  0  0  0  0  0  0
   -0.1849    1.1596    2.1593 C   0  0  0  0  0  0  0  0  0  0  0  0
    0.7351    1.2506    2.8388 N   0  0  0  0  0  0  0  0  0  0  0  0
   -1.2690   -1.0253    0.9764 H   0  0  0  0  0  0  0  0  0  0  0  0
   -2.2460    0.9716    1.8823 H   0  0  0  0  0  0  0  0  0  0  0  0
   -1.4194    1.8874    0.6406 H   0  0  0  0  0  0  0  0  0  0  0  0
    0.7173   -0.1558   -1.0837 C   0  0  0  0  0  0  0  0  0  0  0  0
    0.7173   -1.3877   -1.9374 C   0  0  0  0  0  0  0  0  0  0  0  0
    0.7173   -1.3877   -3.1365 O   0  0  0  0  0  1  0  0  0  0  0  0
   -0.3360   -0.1693   -0.3018 H   0  0  0  0  0  0  0  0  0  0  0  0
    1.5950   -0.1670   -0.4321 H   0  0  0  0  0  0  0  0  0  0  0  0
    0.7173    0.7421   -1.6982 H   0  0  0  0  0  0  0  0  0  0  0  0
    0.7173   -2.3477   -1.3788 H   0  0  0  0  0  0  0  0  0  0  0  0
  1  2  1  0
  1  5  1  0
  1 11  1  0
  2  3  1  0
  2  6  1  0
  2  7  1  0
  3  4  3  0
  8  9  2  3
  8 12  1  0
  8 13  1  0
  9 10  1  0
  9 14  1  0
M  RAD  1  10   2
M  END
>  <reaction>  (9) 
rxn_3216

>  <mol_properties>  (9) 
{"0": {"label": "*3", "atom_type": "N3s"}, "1": {"label": "*4", "atom_type": "Cs"}, "7": {"label": "*1", "atom_type": "Cs"}, "8": {"label": "*0", "atom_type": "CO"}, "10": {"label": "*2", "atom_type": "H0"}}

>  <type>  (9) 
unop_5

>  <geom_source>  (9) 
Heuristics

$$$$

     RDKit          3D

 14 12  0  0  0  0  0  0  0  0999 V2000
   -0.5713   -0.2453    1.7679 N   0  0  0  0  0  0  0  0  0  0  0  0
   -1.6994    0.4046    1.1326 C   0  0  0  0  0  0  0  0  0  0  0  0
   -1.3559    1.2876    0.0013 C   0  0  0  0  0  0  0  0  0  0  0  0
   -1.0469    1.9643   -0.8722 N   0  0  0  0  0  0  0  0  0  0  0  0
    0.0786    0.4349    2.1375 H   0  0  0  0  0  0  0  0  0  0  0  0
   -2.2394    0.9991    1.8711 H   0  0  0  0  0  0  0  0  0  0  0  0
   -2.3969   -0.3516    0.7690 H   0  0  0  0  0  0  0  0  0  0  0  0
    1.4558   -0.2192    0.2632 C   0  0  0  0  0  0  0  0  0  0  0  0
    1.4558   -1.4512   -0.5905 C   0  0  0  0  0  0  0  0  0  0  0  0
    1.4558   -1.4512   -1.7897 O   0  0  0  0  0  1  0  0  0  0  0  0
    0.4025   -0.2328    1.0451 H   0  0  0  0  0  0  0  0  0  0  0  0
    2.3335   -0.2305    0.9148 H   0  0  0  0  0  0  0  0  0  0  0  0
    1.4558    0.6786   -0.3514 H   0  0  0  0  0  0  0  0  0  0  0  0
    1.4558   -2.4112   -0.0319 H   0  0  0  0  0  0  0  0  0  0  0  0
  1  2  1  0
  1  5  1  0
  1 11  1  0
  2  3  1  0
  2  6  1  0
  2  7  1  0
  3  4  3  0
  8  9  2  3
  8 12  1  0
  8 13  1  0
  9 10  1  0
  9 14  1  0
M  RAD  1  10   2
M  END
>  <reaction>  (10) 
rxn_3216

>  <mol_properties>  (10) 
{"0": {"label": "*3", "atom_type": "N3s"}, "1": {"label": "*4", "atom_type": "Cs"}, "7": {"label": "*1", "atom_type": "Cs"}, "8": {"label": "*0", "atom_type": "CO"}, "10": {"label": "*2", "atom_type": "H0"}}

>  <type>  (10) 
unop_6

>  <geom_source>  (10) 
Heuristics

$$$$

     RDKit          3D

 14 12  0  0  0  0  0  0  0  0999 V2000
   -0.8025   -0.5295    1.4552 N   0  0  0  0  0  0  0  0  0  0  0  0
   -1.6450    0.6238    1.2132 C   0  0  0  0  0  0  0  0  0  0  0  0
   -0.9925    1.7341    0.4928 C   0  0  0  0  0  0  0  0  0  0  0  0
   -0.4487    2.5739   -0.0689 N   0  0  0  0  0  0  0  0  0  0  0  0
    0.0051   -0.2793    2.0090 H   0  0  0  0  0  0  0  0  0  0  0  0
   -2.0133    1.0108    2.1646 H   0  0  0  0  0  0  0  0  0  0  0  0
   -2.5214    0.3195    0.6389 H   0  0  0  0  0  0  0  0  0  0  0  0
    1.2246   -0.5035   -0.0496 C   0  0  0  0  0  0  0  0  0  0  0  0
    1.2246   -1.7354   -0.9033 C   0  0  0  0  0  0  0  0  0  0  0  0
    1.2246   -1.7354   -2.1024 O   0  0  0  0  0  1  0  0  0  0  0  0
    0.1713   -0.5170    0.7323 H   0  0  0  0  0  0  0  0  0  0  0  0
    2.1023   -0.5148    0.6020 H   0  0  0  0  0  0  0  0  0  0  0  0
    1.2246    0.3944   -0.6641 H   0  0  0  0  0  0  0  0  0  0  0  0
    1.2246   -2.6954   -0.3447 H   0  0  0  0  0  0  0  0  0  0  0  0
  1  2  1  0
  1  5  1  0
  1 11  1  0
  2  3  1  0
  2  6  1  0
  2  7  1  0
  3  4  3  0
  8  9  2  3
  8 12  1  0
  8 13  1  0
  9 10  1  0
  9 14  1  0
M  RAD  1  10   2
M  END
>  <reaction>  (11) 
rxn_3216

>  <mol_properties>  (11) 
{"0": {"label": "*3", "atom_type": "N3s"}, "1": {"label": "*4", "atom_type": "Cs"}, "7": {"label": "*1", "atom_type": "Cs"}, "8": {"label": "*0", "atom_type": "CO"}, "10": {"label": "*2", "atom_type": "H0"}}

>  <type>  (11) 
unop_7

>  <geom_source>  (11) 
Heuristics

$$$$

     RDKit          3D

 14 12  0  0  0  0  0  0  0  0999 V2000
   -0.8290    1.1271    0.5494 N   0  0  0  0  0  0  0  0  0  0  0  0
   -0.5366    0.4665    1.8051 C   0  0  0  0  0  0  0  0  0  0  0  0
   -1.0264   -0.9214    1.9097 C   0  0  0  0  0  0  0  0  0  0  0  0
   -1.4235   -1.9972    1.9509 N   0  0  0  0  0  0  0  0  0  0  0  0
   -1.8256    1.1743    0.3875 H   0  0  0  0  0  0  0  0  0  0  0  0
   -0.9704    1.0389    2.6265 H   0  0  0  0  0  0  0  0  0  0  0  0
    0.5424    0.4553    1.9671 H   0  0  0  0  0  0  0  0  0  0  0  0
    1.1981    1.1532   -0.9553 C   0  0  0  0  0  0  0  0  0  0  0  0
    1.1981   -0.0788   -1.8090 C   0  0  0  0  0  0  0  0  0  0  0  0
    1.1981   -0.0788   -3.0082 O   0  0  0  0  0  1  0  0  0  0  0  0
    0.1448    1.1396   -0.1734 H   0  0  0  0  0  0  0  0  0  0  0  0
    2.0758    1.1419   -0.3037 H   0  0  0  0  0  0  0  0  0  0  0  0
    1.1981    2.0510   -1.5699 H   0  0  0  0  0  0  0  0  0  0  0  0
    1.1981   -1.0388   -1.2504 H   0  0  0  0  0  0  0  0  0  0  0  0
  1  2  1  0
  1  5  1  0
  1 11  1  0
  2  3  1  0
  2  6  1  0
  2  7  1  0
  3  4  3  0
  8  9  2  3
  8 12  1  0
  8 13  1  0
  9 10  1  0
  9 14  1  0
M  RAD  1  10   2
M  END
>  <reaction>  (12) 
rxn_3216

>  <mol_properties>  (12) 
{"0": {"label": "*3", "atom_type": "N3s"}, "1": {"label": "*4", "atom_type": "Cs"}, "7": {"label": "*1", "atom_type": "Cs"}, "8": {"label": "*0", "atom_type": "CO"}, "10": {"label": "*2", "atom_type": "H0"}}

>  <type>  (12) 
unop_8

>  <geom_source>  (12) 
Heuristics

$$$$

     RDKit          3D

 14 12  0  0  0  0  0  0  0  0999 V2000
   -0.3838    0.5280    1.8813 N   0  0  0  0  0  0  0  0  0  0  0  0
   -1.4866   -0.1738    1.2567 C   0  0  0  0  0  0  0  0  0  0  0  0
   -1.6622    0.0943   -0.1836 C   0  0  0  0  0  0  0  0  0  0  0  0
   -1.7645    0.3296   -1.3020 N   0  0  0  0  0  0  0  0  0  0  0  0
   -0.4978    1.5290    1.7998 H   0  0  0  0  0  0  0  0  0  0  0  0
   -2.4170    0.0875    1.7632 H   0  0  0  0  0  0  0  0  0  0  0  0
   -1.3520   -1.2490    1.3845 H   0  0  0  0  0  0  0  0  0  0  0  0
    1.6432    0.5540    0.3765 C   0  0  0  0  0  0  0  0  0  0  0  0
    1.6432   -0.6779   -0.4772 C   0  0  0  0  0  0  0  0  0  0  0  0
    1.6432   -0.6779   -1.6763 O   0  0  0  0  0  1  0  0  0  0  0  0
    0.5900    0.5405    1.1584 H   0  0  0  0  0  0  0  0  0  0  0  0
    2.5209    0.5427    1.0281 H   0  0  0  0  0  0  0  0  0  0  0  0
    1.6433    1.4519   -0.2380 H   0  0  0  0  0  0  0  0  0  0  0  0
    1.6432   -1.6379    0.0814 H   0  0  0  0  0  0  0  0  0  0  0  0
  1  2  1  0
  1  5  1  0
  1 11  1  0
  2  3  1  0
  2  6  1  0
  2  7  1  0
  3  4  3  0
  8  9  2  3
  8 12  1  0
  8 13  1  0
  9 10  1  0
  9 14  1  0
M  RAD  1  10   2
M  END
>  <reaction>  (13) 
rxn_3216

>  <mol_properties>  (13) 
{"0": {"label": "*3", "atom_type": "N3s"}, "1": {"label": "*4", "atom_type": "Cs"}, "7": {"label": "*1", "atom_type": "Cs"}, "8": {"label": "*0", "atom_type": "CO"}, "10": {"label": "*2", "atom_type": "H0"}}

>  <type>  (13) 
unop_9

>  <geom_source>  (13) 
Heuristics

$$$$

     RDKit          3D

 14 12  0  0  0  0  0  0  0  0999 V2000
   -0.6215    1.2486    0.9383 N   0  0  0  0  0  0  0  0  0  0  0  0
   -0.6146    0.0845    1.8005 C   0  0  0  0  0  0  0  0  0  0  0  0
   -1.3546   -1.0818    1.2815 C   0  0  0  0  0  0  0  0  0  0  0  0
   -1.9401   -1.9656    0.8426 N   0  0  0  0  0  0  0  0  0  0  0  0
   -1.5645    1.5726    0.7732 H   0  0  0  0  0  0  0  0  0  0  0  0
   -1.0398    0.3481    2.7702 H   0  0  0  0  0  0  0  0  0  0  0  0
    0.4153   -0.2255    1.9843 H   0  0  0  0  0  0  0  0  0  0  0  0
    1.4056    1.2746   -0.5665 C   0  0  0  0  0  0  0  0  0  0  0  0
    1.4056    0.0427   -1.4202 C   0  0  0  0  0  0  0  0  0  0  0  0
    1.4056    0.0427   -2.6194 O   0  0  0  0  0  1  0  0  0  0  0  0
    0.3523    1.2611    0.2154 H   0  0  0  0  0  0  0  0  0  0  0  0
    2.2833    1.2633    0.0851 H   0  0  0  0  0  0  0  0  0  0  0  0
    1.4056    2.1725   -1.1810 H   0  0  0  0  0  0  0  0  0  0  0  0
    1.4056   -0.9173   -0.8616 H   0  0  0  0  0  0  0  0  0  0  0  0
  1  2  1  0
  1  5  1  0
  1 11  1  0
  2  3  1  0
  2  6  1  0
  2  7  1  0
  3  4  3  0
  8  9  2  3
  8 12  1  0
  8 13  1  0
  9 10  1  0
  9 14  1  0
M  RAD  1  10   2
M  END
>  <reaction>  (14) 
rxn_3216

>  <mol_properties>  (14) 
{"0": {"label": "*3", "atom_type": "N3s"}, "1": {"label": "*4", "atom_type": "Cs"}, "7": {"label": "*1", "atom_type": "Cs"}, "8": {"label": "*0", "atom_type": "CO"}, "10": {"label": "*2", "atom_type": "H0"}}

>  <type>  (14) 
unop_10

>  <geom_source>  (14) 
Heuristics

$$$$

     RDKit          3D

 14 12  0  0  0  0  0  0  0  0999 V2000
   -1.1140   -0.5713    0.9748 N   0  0  0  0  0  0  0  0  0  0  0  0
   -1.5572    0.7750    1.2741 C   0  0  0  0  0  0  0  0  0  0  0  0
   -0.4957    1.7999    1.2596 C   0  0  0  0  0  0  0  0  0  0  0  0
    0.3584    2.5659    1.2382 N   0  0  0  0  0  0  0  0  0  0  0  0
   -0.4220   -0.8826    1.6425 H   0  0  0  0  0  0  0  0  0  0  0  0
   -2.0276    0.7923    2.2585 H   0  0  0  0  0  0  0  0  0  0  0  0
   -2.3226    1.0737    0.5562 H   0  0  0  0  0  0  0  0  0  0  0  0
    0.9131   -0.5452   -0.5300 C   0  0  0  0  0  0  0  0  0  0  0  0
    0.9131   -1.7772   -1.3837 C   0  0  0  0  0  0  0  0  0  0  0  0
    0.9131   -1.7772   -2.5828 O   0  0  0  0  0  1  0  0  0  0  0  0
   -0.1402   -0.5588    0.2519 H   0  0  0  0  0  0  0  0  0  0  0  0
    1.7908   -0.5565    0.1216 H   0  0  0  0  0  0  0  0  0  0  0  0
    0.9131    0.3526   -1.1445 H   0  0  0  0  0  0  0  0  0  0  0  0
    0.9131   -2.7372   -0.8251 H   0  0  0  0  0  0  0  0  0  0  0  0
  1  2  1  0
  1  5  1  0
  1 11  1  0
  2  3  1  0
  2  6  1  0
  2  7  1  0
  3  4  3  0
  8  9  2  3
  8 12  1  0
  8 13  1  0
  9 10  1  0
  9 14  1  0
M  RAD  1  10   2
M  END
>  <reaction>  (15) 
rxn_3216

>  <mol_properties>  (15) 
{"0": {"label": "*3", "atom_type": "N3s"}, "1": {"label": "*4", "atom_type": "Cs"}, "7": {"label": "*1", "atom_type": "Cs"}, "8": {"label": "*0", "atom_type": "CO"}, "10": {"label": "*2", "atom_type": "H0"}}

>  <type>  (15) 
unop_11

>  <geom_source>  (15) 
Heuristics

$$$$

     RDKit          3D

 14 12  0  0  0  0  0  0  0  0999 V2000
   -0.3785    0.8832    1.6940 N   0  0  0  0  0  0  0  0  0  0  0  0
   -1.1771   -0.3046    1.4708 C   0  0  0  0  0  0  0  0  0  0  0  0
   -1.6945   -0.4606    0.0977 C   0  0  0  0  0  0  0  0  0  0  0  0
   -2.0772   -0.5447   -0.9808 N   0  0  0  0  0  0  0  0  0  0  0  0
   -0.9122    1.7204    1.5045 H   0  0  0  0  0  0  0  0  0  0  0  0
   -2.0289   -0.3033    2.1527 H   0  0  0  0  0  0  0  0  0  0  0  0
   -0.5861   -1.1901    1.7099 H   0  0  0  0  0  0  0  0  0  0  0  0
    1.6485    0.9092    0.1893 C   0  0  0  0  0  0  0  0  0  0  0  0
    1.6485   -0.3227   -0.6644 C   0  0  0  0  0  0  0  0  0  0  0  0
    1.6485   -0.3227   -1.8636 O   0  0  0  0  0  1  0  0  0  0  0  0
    0.5953    0.8957    0.9712 H   0  0  0  0  0  0  0  0  0  0  0  0
    2.5262    0.8980    0.8409 H   0  0  0  0  0  0  0  0  0  0  0  0
    1.6486    1.8071   -0.4253 H   0  0  0  0  0  0  0  0  0  0  0  0
    1.6485   -1.2827   -0.1058 H   0  0  0  0  0  0  0  0  0  0  0  0
  1  2  1  0
  1  5  1  0
  1 11  1  0
  2  3  1  0
  2  6  1  0
  2  7  1  0
  3  4  3  0
  8  9  2  3
  8 12  1  0
  8 13  1  0
  9 10  1  0
  9 14  1  0
M  RAD  1  10   2
M  END
>  <reaction>  (16) 
rxn_3216

>  <mol_properties>  (16) 
{"0": {"label": "*3", "atom_type": "N3s"}, "1": {"label": "*4", "atom_type": "Cs"}, "7": {"label": "*1", "atom_type": "Cs"}, "8": {"label": "*0", "atom_type": "CO"}, "10": {"label": "*2", "atom_type": "H0"}}

>  <type>  (16) 
unop_12

>  <geom_source>  (16) 
Heuristics

$$$$

     RDKit          3D

 14 12  0  0  0  0  0  0  0  0999 V2000
   -0.4532    1.1531    1.3560 N   0  0  0  0  0  0  0  0  0  0  0  0
   -0.8457   -0.2039    1.6770 C   0  0  0  0  0  0  0  0  0  0  0  0
   -1.6040   -0.9014    0.6206 C   0  0  0  0  0  0  0  0  0  0  0  0
   -2.1907   -1.4080   -0.2254 N   0  0  0  0  0  0  0  0  0  0  0  0
   -1.2617    1.7307    1.1710 H   0  0  0  0  0  0  0  0  0  0  0  0
   -1.4548   -0.2016    2.5822 H   0  0  0  0  0  0  0  0  0  0  0  0
    0.0432   -0.7963    1.8995 H   0  0  0  0  0  0  0  0  0  0  0  0
    1.5738    1.1791   -0.1487 C   0  0  0  0  0  0  0  0  0  0  0  0
    1.5738   -0.0528   -1.0024 C   0  0  0  0  0  0  0  0  0  0  0  0
    1.5738   -0.0528   -2.2016 O   0  0  0  0  0  1  0  0  0  0  0  0
    0.5206    1.1656    0.6331 H   0  0  0  0  0  0  0  0  0  0  0  0
    2.4515    1.1678    0.5029 H   0  0  0  0  0  0  0  0  0  0  0  0
    1.5739    2.0770   -0.7633 H   0  0  0  0  0  0  0  0  0  0  0  0
    1.5738   -1.0128   -0.4438 H   0  0  0  0  0  0  0  0  0  0  0  0
  1  2  1  0
  1  5  1  0
  1 11  1  0
  2  3  1  0
  2  6  1  0
  2  7  1  0
  3  4  3  0
  8  9  2  3
  8 12  1  0
  8 13  1  0
  9 10  1  0
  9 14  1  0
M  RAD  1  10   2
M  END
>  <reaction>  (17) 
rxn_3216

>  <mol_properties>  (17) 
{"0": {"label": "*3", "atom_type": "N3s"}, "1": {"label": "*4", "atom_type": "Cs"}, "7": {"label": "*1", "atom_type": "Cs"}, "8": {"label": "*0", "atom_type": "CO"}, "10": {"label": "*2", "atom_type": "H0"}}

>  <type>  (17) 
unop_13

>  <geom_source>  (17) 
gaussian_log

$$$$
