
     RDKit          3D

  8  7  0  0  0  0  0  0  0  0999 V2000
    0.7610    0.0250    0.0051 C   0  0  0  0  0  0  0  0  0  0  0  0
   -0.7610   -0.0250   -0.0051 C   0  0  0  0  0  0  0  0  0  0  0  0
    1.1904   -0.9237   -0.3217 H   0  0  0  0  0  0  0  0  0  0  0  0
    1.1359    0.8041   -0.6609 H   0  0  0  0  0  0  0  0  0  0  0  0
    1.1435    0.2336    1.0058 H   0  0  0  0  0  0  0  0  0  0  0  0
   -1.1435   -0.2336   -1.0058 H   0  0  0  0  0  0  0  0  0  0  0  0
   -1.1904    0.9237    0.3216 H   0  0  0  0  0  0  0  0  0  0  0  0
   -1.1359   -0.8041    0.6609 H   0  0  0  0  0  0  0  0  0  0  0  0
  1  2  1  0
  1  3  1  0
  1  4  1  0
  1  5  1  0
  2  6  1  0
  2  7  1  0
  2  8  1  0
M  END
>  <reaction>  (1) 
rxn_874

>  <mol_properties>  (1) 
{"1": {"label": "donator", "atom_type": "Cs"}, "5": {"label": "d_hydrogen", "atom_type": "H0"}}

>  <type>  (1) 
r1h

$$$$

     RDKit          3D

 15 14  0  0  0  0  0  0  0  0999 V2000
    2.4381    0.5770   -0.2356 C   0  0  0  0  0  0  0  0  0  0  0  0
    1.4430   -0.3367   -0.1409 C   0  0  0  0  0  0  0  0  0  0  0  0
    0.0521   -0.0957   -0.0045 C   0  0  0  0  0  3  0  0  0  0  0  0
   -0.5167    1.2867    0.0548 C   0  0  0  0  0  0  0  0  0  0  0  0
   -0.8226   -1.2147    0.0778 C   0  0  0  0  0  0  0  0  0  0  0  0
   -2.1666   -1.1669    0.2092 C   0  0  0  0  0  0  0  0  0  0  0  0
    3.4666    0.2585   -0.3369 H   0  0  0  0  0  0  0  0  0  0  0  0
    2.2594    1.6438   -0.2152 H   0  0  0  0  0  0  0  0  0  0  0  0
    1.7306   -1.3845   -0.1719 H   0  0  0  0  0  0  0  0  0  0  0  0
   -1.2300    1.4469   -0.7583 H   0  0  0  0  0  0  0  0  0  0  0  0
    0.2481    2.0557   -0.0178 H   0  0  0  0  0  0  0  0  0  0  0  0
   -1.0592    1.4421    0.9914 H   0  0  0  0  0  0  0  0  0  0  0  0
   -0.3519   -2.1929    0.0292 H   0  0  0  0  0  0  0  0  0  0  0  0
   -2.7080   -0.2310    0.2646 H   0  0  0  0  0  0  0  0  0  0  0  0
   -2.7513   -2.0751    0.2638 H   0  0  0  0  0  0  0  0  0  0  0  0
  1  2  2  3
  1  7  1  0
  1  8  1  0
  2  3  1  0
  2  9  1  0
  3  4  1  0
  3  5  1  0
  4 10  1  0
  4 11  1  0
  4 12  1  0
  5  6  2  3
  5 13  1  0
  6 14  1  0
  6 15  1  0
M  RAD  1   3   2
M  END
>  <reaction>  (2) 
rxn_874

>  <mol_properties>  (2) 
{"2": {"label": "acceptor", "atom_type": "Cs"}}

>  <type>  (2) 
r2

$$$$

     RDKit          3D

 16 15  0  0  0  0  0  0  0  0999 V2000
    1.7961   -0.3807    1.6176 C   0  0  0  0  0  0  0  0  0  0  0  0
    0.8562   -0.8708    0.8256 C   0  0  0  0  0  0  0  0  0  0  0  0
    0.0895   -0.0826   -0.2048 C   0  0  0  0  0  0  0  0  0  0  0  0
   -1.4061   -0.1111    0.0982 C   0  0  0  0  0  0  0  0  0  0  0  0
    0.4476   -0.5902   -1.5797 C   0  0  0  0  0  0  0  0  0  0  0  0
   -0.3793   -1.1113   -2.4728 C   0  0  0  0  0  0  0  0  0  0  0  0
    2.3110   -1.0032    2.3386 H   0  0  0  0  0  0  0  0  0  0  0  0
    2.0846    0.6643    1.5737 H   0  0  0  0  0  0  0  0  0  0  0  0
    0.5921   -1.9241    0.8925 H   0  0  0  0  0  0  0  0  0  0  0  0
    0.4358    0.9557   -0.1462 H   0  0  0  0  0  0  0  0  0  0  0  0
   -1.5968    0.3080    1.0865 H   0  0  0  0  0  0  0  0  0  0  0  0
   -1.9674    0.4693   -0.6359 H   0  0  0  0  0  0  0  0  0  0  0  0
   -1.7902   -1.1338    0.0883 H   0  0  0  0  0  0  0  0  0  0  0  0
    1.5049   -0.5197   -1.8214 H   0  0  0  0  0  0  0  0  0  0  0  0
   -1.4421   -1.2131   -2.2889 H   0  0  0  0  0  0  0  0  0  0  0  0
   -0.0162   -1.4558   -3.4328 H   0  0  0  0  0  0  0  0  0  0  0  0
  1  2  2  3
  1  7  1  0
  1  8  1  0
  2  3  1  0
  2  9  1  0
  3  4  1  0
  3  5  1  0
  3 10  1  0
  4 11  1  0
  4 12  1  0
  4 13  1  0
  5  6  2  3
  5 14  1  0
  6 15  1  0
  6 16  1  0
M  END
>  <reaction>  (3) 
rxn_874

>  <mol_properties>  (3) 
{"2": {"label": "acceptor", "atom_type": "Cs"}, "15": {"label": "a_hydrogen", "atom_type": "H0"}}

>  <type>  (3) 
r2h

$$$$

     RDKit          3D

 23 21  0  0  0  0  0  0  0  0999 V2000
    2.2818    0.9408    0.3471 C   0  0  0  0  0  0  0  0  0  0  0  0
    1.2778    0.2231    0.8396 C   0  0  0  0  0  0  0  0  0  0  0  0
   -0.1439    0.2664    0.4161 C   0  0  0  0  0  0  0  0  0  0  0  0
   -0.5123    1.3454   -0.5774 C   0  0  0  0  0  0  0  0  0  0  0  0
   -1.0808    0.0771    1.5520 C   0  0  0  0  0  0  0  0  0  0  0  0
   -2.2578    0.6685    1.7219 C   0  0  0  0  0  0  0  0  0  0  0  0
    3.2904    0.8101    0.7172 H   0  0  0  0  0  0  0  0  0  0  0  0
    2.1383    1.6861   -0.4254 H   0  0  0  0  0  0  0  0  0  0  0  0
    1.4985   -0.4987    1.6229 H   0  0  0  0  0  0  0  0  0  0  0  0
   -1.5272    1.1977   -0.9484 H   0  0  0  0  0  0  0  0  0  0  0  0
    0.1573    1.3254   -1.4377 H   0  0  0  0  0  0  0  0  0  0  0  0
   -0.4552    2.3388   -0.1247 H   0  0  0  0  0  0  0  0  0  0  0  0
   -0.7547   -0.6444    2.2977 H   0  0  0  0  0  0  0  0  0  0  0  0
   -2.6429    1.4048    1.0272 H   0  0  0  0  0  0  0  0  0  0  0  0
   -2.8757    0.4379    2.5801 H   0  0  0  0  0  0  0  0  0  0  0  0
    0.5743   -1.6428   -2.2768 C   0  0  0  0  0  0  0  0  0  0  0  0
   -0.3773   -1.9616   -1.1671 C   0  0  0  0  0  3  0  0  0  0  0  0
    0.2275   -0.7933   -2.8673 H   0  0  0  0  0  0  0  0  0  0  0  0
    1.5658   -1.4010   -1.8872 H   0  0  0  0  0  0  0  0  0  0  0  0
    0.6916   -2.4900   -2.9627 H   0  0  0  0  0  0  0  0  0  0  0  0
   -0.2738   -0.7859   -0.2336 H   0  0  0  0  0  0  0  0  0  0  0  0
   -0.0858   -2.7569   -0.4863 H   0  0  0  0  0  0  0  0  0  0  0  0
   -1.4382   -1.9548   -1.4002 H   0  0  0  0  0  0  0  0  0  0  0  0
  1  2  2  3
  1  7  1  0
  1  8  1  0
  2  3  1  0
  2  9  1  0
  3  4  1  0
  3  5  1  0
  3 21  1  0
  4 10  1  0
  4 11  1  0
  4 12  1  0
  5  6  2  3
  5 13  1  0
  6 14  1  0
  6 15  1  0
 16 17  1  0
 16 18  1  0
 16 19  1  0
 16 20  1  0
 17 22  1  0
 17 23  1  0
M  RAD  1  17   2
M  END
>  <reaction>  (4) 
rxn_874

>  <mol_properties>  (4) 
{"1": {"label": "*0", "atom_type": "Cd"}, "2": {"label": "*1", "atom_type": "Cs"}, "15": {"label": "*4", "atom_type": "Cs"}, "16": {"label": "*3", "atom_type": "Cs"}, "20": {"label": "*2", "atom_type": "H0"}}

>  <type>  (4) 
ts

$$$$

     RDKit          3D

 23 21  0  0  0  0  0  0  0  0999 V2000
   -2.3791    0.0393    0.8073 C   0  0  0  0  0  0  0  0  0  0  0  0
   -1.1880    0.5268    1.1150 C   0  0  0  0  0  0  0  0  0  0  0  0
    0.0577    0.3690    0.2818 C   0  0  0  0  0  3  0  0  0  0  0  0
    1.1434   -0.3599    1.0688 C   0  0  0  0  0  0  0  0  0  0  0  0
    0.4781    1.7221   -0.2365 C   0  0  0  0  0  0  0  0  0  0  0  0
    1.6278    2.3371   -0.0065 C   0  0  0  0  0  0  0  0  0  0  0  0
   -3.2365    0.1895    1.4513 H   0  0  0  0  0  0  0  0  0  0  0  0
   -2.5395   -0.5303   -0.1020 H   0  0  0  0  0  0  0  0  0  0  0  0
   -1.0610    1.0963    2.0332 H   0  0  0  0  0  0  0  0  0  0  0  0
    2.0445   -0.4907    0.4673 H   0  0  0  0  0  0  0  0  0  0  0  0
    0.7883   -1.3444    1.3745 H   0  0  0  0  0  0  0  0  0  0  0  0
    1.4144    0.1935    1.9708 H   0  0  0  0  0  0  0  0  0  0  0  0
   -0.2717    2.2211   -0.8448 H   0  0  0  0  0  0  0  0  0  0  0  0
    2.4120    1.8941    0.5956 H   0  0  0  0  0  0  0  0  0  0  0  0
    1.8273    3.3171   -0.4211 H   0  0  0  0  0  0  0  0  0  0  0  0
    0.0577   -2.0773   -2.1930 C   0  0  0  0  0  0  0  0  0  0  0  0
    0.0577   -2.0773   -0.6702 C   0  0  0  0  0  0  0  0  0  0  0  0
   -0.8232   -1.5687   -2.5889 H   0  0  0  0  0  0  0  0  0  0  0  0
    0.9385   -1.5687   -2.5889 H   0  0  0  0  0  0  0  0  0  0  0  0
    0.0577   -3.0944   -2.5889 H   0  0  0  0  0  0  0  0  0  0  0  0
    0.0577   -0.8567   -0.1952 H   0  0  0  0  0  0  0  0  0  0  0  0
    0.9385   -2.5858   -0.2744 H   0  0  0  0  0  0  0  0  0  0  0  0
   -0.8232   -2.5858   -0.2744 H   0  0  0  0  0  0  0  0  0  0  0  0
  1  2  2  3
  1  7  1  0
  1  8  1  0
  2  3  1  0
  2  9  1  0
  3  4  1  0
  3  5  1  0
  4 10  1  0
  4 11  1  0
  4 12  1  0
  5  6  2  3
  5 13  1  0
  6 14  1  0
  6 15  1  0
 16 17  1  0
 16 18  1  0
 16 19  1  0
 16 20  1  0
 17 21  1  0
 17 22  1  0
 17 23  1  0
M  RAD  1   3   2
M  END
>  <reaction>  (5) 
rxn_874

>  <mol_properties>  (5) 
{"1": {"label": "*0", "atom_type": "Cd"}, "2": {"label": "*1", "atom_type": "Cs"}, "15": {"label": "*4", "atom_type": "Cs"}, "16": {"label": "*3", "atom_type": "Cs"}, "20": {"label": "*2", "atom_type": "H0"}}

>  <type>  (5) 
unop_1

>  <geom_source>  (5) 
Heuristics

$$$$

     RDKit          3D

 23 21  0  0  0  0  0  0  0  0999 V2000
   -0.9395    0.8834   -1.8245 C   0  0  0  0  0  0  0  0  0  0  0  0
   -0.7431    1.1842   -0.5509 C   0  0  0  0  0  0  0  0  0  0  0  0
   -0.0239    0.3138    0.4470 C   0  0  0  0  0  3  0  0  0  0  0  0
   -0.9483   -0.0568    1.6035 C   0  0  0  0  0  0  0  0  0  0  0  0
    1.2487    1.0024    0.8741 C   0  0  0  0  0  0  0  0  0  0  0  0
    1.5778    1.3694    2.1029 C   0  0  0  0  0  0  0  0  0  0  0  0
   -1.4654    1.5556   -2.4909 H   0  0  0  0  0  0  0  0  0  0  0  0
   -0.5811   -0.0492   -2.2473 H   0  0  0  0  0  0  0  0  0  0  0  0
   -1.1126    2.1292   -0.1585 H   0  0  0  0  0  0  0  0  0  0  0  0
   -0.4390   -0.6990    2.3240 H   0  0  0  0  0  0  0  0  0  0  0  0
   -1.8239   -0.5875    1.2287 H   0  0  0  0  0  0  0  0  0  0  0  0
   -1.2969    0.8347    2.1300 H   0  0  0  0  0  0  0  0  0  0  0  0
    1.9358    1.2180    0.0600 H   0  0  0  0  0  0  0  0  0  0  0  0
    0.9334    1.1871    2.9545 H   0  0  0  0  0  0  0  0  0  0  0  0
    2.5175    1.8689    2.3016 H   0  0  0  0  0  0  0  0  0  0  0  0
   -0.0239   -2.1325   -2.0279 C   0  0  0  0  0  0  0  0  0  0  0  0
   -0.0239   -2.1325   -0.5051 C   0  0  0  0  0  0  0  0  0  0  0  0
   -0.9047   -1.6240   -2.4237 H   0  0  0  0  0  0  0  0  0  0  0  0
    0.8570   -1.6240   -2.4237 H   0  0  0  0  0  0  0  0  0  0  0  0
   -0.0239   -3.1497   -2.4237 H   0  0  0  0  0  0  0  0  0  0  0  0
   -0.0239   -0.9120   -0.0301 H   0  0  0  0  0  0  0  0  0  0  0  0
    0.8570   -2.6411   -0.1092 H   0  0  0  0  0  0  0  0  0  0  0  0
   -0.9047   -2.6411   -0.1092 H   0  0  0  0  0  0  0  0  0  0  0  0
  1  2  2  3
  1  7  1  0
  1  8  1  0
  2  3  1  0
  2  9  1  0
  3  4  1  0
  3  5  1  0
  4 10  1  0
  4 11  1  0
  4 12  1  0
  5  6  2  3
  5 13  1  0
  6 14  1  0
  6 15  1  0
 16 17  1  0
 16 18  1  0
 16 19  1  0
 16 20  1  0
 17 21  1  0
 17 22  1  0
 17 23  1  0
M  RAD  1   3   2
M  END
>  <reaction>  (6) 
rxn_874

>  <mol_properties>  (6) 
{"1": {"label": "*0", "atom_type": "Cd"}, "2": {"label": "*1", "atom_type": "Cs"}, "15": {"label": "*4", "atom_type": "Cs"}, "16": {"label": "*3", "atom_type": "Cs"}, "20": {"label": "*2", "atom_type": "H0"}}

>  <type>  (6) 
unop_2

>  <geom_source>  (6) 
Heuristics

$$$$

     RDKit          3D

 23 21  0  0  0  0  0  0  0  0999 V2000
   -1.5992   -0.5262    1.9458 C   0  0  0  0  0  0  0  0  0  0  0  0
   -0.6493    0.3333    1.6143 C   0  0  0  0  0  0  0  0  0  0  0  0
    0.0699    0.3664    0.2906 C   0  0  0  0  0  3  0  0  0  0  0  0
    1.5690    0.1579    0.4865 C   0  0  0  0  0  0  0  0  0  0  0  0
   -0.2837    1.6439   -0.4301 C   0  0  0  0  0  0  0  0  0  0  0  0
    0.5533    2.5947   -0.8154 C   0  0  0  0  0  0  0  0  0  0  0  0
   -2.0778   -0.4954    2.9165 H   0  0  0  0  0  0  0  0  0  0  0  0
   -1.9326   -1.2947    1.2562 H   0  0  0  0  0  0  0  0  0  0  0  0
   -0.3397    1.0940    2.3279 H   0  0  0  0  0  0  0  0  0  0  0  0
    2.0957    0.1665   -0.4692 H   0  0  0  0  0  0  0  0  0  0  0  0
    1.7542   -0.8005    0.9724 H   0  0  0  0  0  0  0  0  0  0  0  0
    1.9963    0.9411    1.1169 H   0  0  0  0  0  0  0  0  0  0  0  0
   -1.3460    1.7702   -0.6219 H   0  0  0  0  0  0  0  0  0  0  0  0
    1.6217    2.5292   -0.6483 H   0  0  0  0  0  0  0  0  0  0  0  0
    0.1931    3.4818   -1.3207 H   0  0  0  0  0  0  0  0  0  0  0  0
    0.0699   -2.0799   -2.1843 C   0  0  0  0  0  0  0  0  0  0  0  0
    0.0699   -2.0799   -0.6615 C   0  0  0  0  0  0  0  0  0  0  0  0
   -0.8110   -1.5713   -2.5801 H   0  0  0  0  0  0  0  0  0  0  0  0
    0.9507   -1.5713   -2.5801 H   0  0  0  0  0  0  0  0  0  0  0  0
    0.0699   -3.0970   -2.5801 H   0  0  0  0  0  0  0  0  0  0  0  0
    0.0699   -0.8593   -0.1865 H   0  0  0  0  0  0  0  0  0  0  0  0
    0.9507   -2.5884   -0.2657 H   0  0  0  0  0  0  0  0  0  0  0  0
   -0.8110   -2.5884   -0.2657 H   0  0  0  0  0  0  0  0  0  0  0  0
  1  2  2  3
  1  7  1  0
  1  8  1  0
  2  3  1  0
  2  9  1  0
  3  4  1  0
  3  5  1  0
  4 10  1  0
  4 11  1  0
  4 12  1  0
  5  6  2  3
  5 13  1  0
  6 14  1  0
  6 15  1  0
 16 17  1  0
 16 18  1  0
 16 19  1  0
 16 20  1  0
 17 21  1  0
 17 22  1  0
 17 23  1  0
M  RAD  1   3   2
M  END
>  <reaction>  (7) 
rxn_874

>  <mol_properties>  (7) 
{"1": {"label": "*0", "atom_type": "Cd"}, "2": {"label": "*1", "atom_type": "Cs"}, "15": {"label": "*4", "atom_type": "Cs"}, "16": {"label": "*3", "atom_type": "Cs"}, "20": {"label": "*2", "atom_type": "H0"}}

>  <type>  (7) 
unop_3

>  <geom_source>  (7) 
Heuristics

$$$$

     RDKit          3D

 23 21  0  0  0  0  0  0  0  0999 V2000
    1.5993    0.9691   -1.4109 C   0  0  0  0  0  0  0  0  0  0  0  0
    0.9966    1.2373   -0.2639 C   0  0  0  0  0  0  0  0  0  0  0  0
   -0.2491    0.5578    0.2434 C   0  0  0  0  0  3  0  0  0  0  0  0
   -1.3718    1.5718    0.4450 C   0  0  0  0  0  0  0  0  0  0  0  0
    0.0917   -0.2355    1.4807 C   0  0  0  0  0  0  0  0  0  0  0  0
   -0.4204   -0.0758    2.6911 C   0  0  0  0  0  0  0  0  0  0  0  0
    2.4947    1.4951   -1.7172 H   0  0  0  0  0  0  0  0  0  0  0  0
    1.2168    0.2120   -2.0875 H   0  0  0  0  0  0  0  0  0  0  0  0
    1.4073    2.0005    0.3937 H   0  0  0  0  0  0  0  0  0  0  0  0
   -2.2823    1.0855    0.7991 H   0  0  0  0  0  0  0  0  0  0  0  0
   -1.5951    2.0763   -0.4954 H   0  0  0  0  0  0  0  0  0  0  0  0
   -1.0878    2.3336    1.1747 H   0  0  0  0  0  0  0  0  0  0  0  0
    0.8516   -0.9976    1.3284 H   0  0  0  0  0  0  0  0  0  0  0  0
   -1.1765    0.6694    2.9069 H   0  0  0  0  0  0  0  0  0  0  0  0
   -0.0981   -0.6959    3.5179 H   0  0  0  0  0  0  0  0  0  0  0  0
   -0.2491   -1.8885   -2.2314 C   0  0  0  0  0  0  0  0  0  0  0  0
   -0.2491   -1.8885   -0.7086 C   0  0  0  0  0  0  0  0  0  0  0  0
   -1.1299   -1.3799   -2.6273 H   0  0  0  0  0  0  0  0  0  0  0  0
    0.6318   -1.3800   -2.6273 H   0  0  0  0  0  0  0  0  0  0  0  0
   -0.2491   -2.9056   -2.6273 H   0  0  0  0  0  0  0  0  0  0  0  0
   -0.2491   -0.6680   -0.2336 H   0  0  0  0  0  0  0  0  0  0  0  0
    0.6318   -2.3971   -0.3128 H   0  0  0  0  0  0  0  0  0  0  0  0
   -1.1299   -2.3971   -0.3128 H   0  0  0  0  0  0  0  0  0  0  0  0
  1  2  2  3
  1  7  1  0
  1  8  1  0
  2  3  1  0
  2  9  1  0
  3  4  1  0
  3  5  1  0
  4 10  1  0
  4 11  1  0
  4 12  1  0
  5  6  2  3
  5 13  1  0
  6 14  1  0
  6 15  1  0
 16 17  1  0
 16 18  1  0
 16 19  1  0
 16 20  1  0
 17 21  1  0
 17 22  1  0
 17 23  1  0
M  RAD  1   3   2
M  END
>  <reaction>  (8) 
rxn_874

>  <mol_properties>  (8) 
{"1": {"label": "*0", "atom_type": "Cd"}, "2": {"label": "*1", "atom_type": "Cs"}, "15": {"label": "*4", "atom_type": "Cs"}, "16": {"label": "*3", "atom_type": "Cs"}, "20": {"label": "*2", "atom_type": "H0"}}

>  <type>  (8) 
unop_4

>  <geom_source>  (8) 
Heuristics

$$$$

     RDKit          3D

 23 21  0  0  0  0  0  0  0  0999 V2000
    0.1311   -0.8103    2.4590 C   0  0  0  0  0  0  0  0  0  0  0  0
    0.1626    0.3197    1.7713 C   0  0  0  0  0  0  0  0  0  0  0  0
    0.1626    0.4228    0.2679 C   0  0  0  0  0  3  0  0  0  0  0  0
    1.4212    1.1327   -0.2234 C   0  0  0  0  0  0  0  0  0  0  0  0
   -1.1235    1.0711   -0.1813 C   0  0  0  0  0  0  0  0  0  0  0  0
   -1.2467    2.1984   -0.8646 C   0  0  0  0  0  0  0  0  0  0  0  0
    0.1324   -0.8149    3.5418 H   0  0  0  0  0  0  0  0  0  0  0  0
    0.1039   -1.7744    1.9622 H   0  0  0  0  0  0  0  0  0  0  0  0
    0.1866    1.2703    2.2999 H   0  0  0  0  0  0  0  0  0  0  0  0
    1.4356    1.1991   -1.3126 H   0  0  0  0  0  0  0  0  0  0  0  0
    2.3092    0.5888    0.0996 H   0  0  0  0  0  0  0  0  0  0  0  0
    1.4841    2.1462    0.1795 H   0  0  0  0  0  0  0  0  0  0  0  0
   -2.0219    0.5381    0.1187 H   0  0  0  0  0  0  0  0  0  0  0  0
   -0.3898    2.7773   -1.1875 H   0  0  0  0  0  0  0  0  0  0  0  0
   -2.2229    2.5841   -1.1304 H   0  0  0  0  0  0  0  0  0  0  0  0
    0.1626   -2.0235   -2.2069 C   0  0  0  0  0  0  0  0  0  0  0  0
    0.1626   -2.0235   -0.6841 C   0  0  0  0  0  0  0  0  0  0  0  0
   -0.7182   -1.5150   -2.6028 H   0  0  0  0  0  0  0  0  0  0  0  0
    1.0435   -1.5150   -2.6028 H   0  0  0  0  0  0  0  0  0  0  0  0
    0.1626   -3.0406   -2.6028 H   0  0  0  0  0  0  0  0  0  0  0  0
    0.1626   -0.8030   -0.2091 H   0  0  0  0  0  0  0  0  0  0  0  0
    1.0435   -2.5321   -0.2883 H   0  0  0  0  0  0  0  0  0  0  0  0
   -0.7182   -2.5321   -0.2883 H   0  0  0  0  0  0  0  0  0  0  0  0
  1  2  2  3
  1  7  1  0
  1  8  1  0
  2  3  1  0
  2  9  1  0
  3  4  1  0
  3  5  1  0
  4 10  1  0
  4 11  1  0
  4 12  1  0
  5  6  2  3
  5 13  1  0
  6 14  1  0
  6 15  1  0
 16 17  1  0
 16 18  1  0
 16 19  1  0
 16 20  1  0
 17 21  1  0
 17 22  1  0
 17 23  1  0
M  RAD  1   3   2
M  END
>  <reaction>  (9) 
rxn_874

>  <mol_properties>  (9) 
{"1": {"label": "*0", "atom_type": "Cd"}, "2": {"label": "*1", "atom_type": "Cs"}, "15": {"label": "*4", "atom_type": "Cs"}, "16": {"label": "*3", "atom_type": "Cs"}, "20": {"label": "*2", "atom_type": "H0"}}

>  <type>  (9) 
unop_5

>  <geom_source>  (9) 
Heuristics

$$$$

     RDKit          3D

 23 21  0  0  0  0  0  0  0  0999 V2000
    2.2829    0.7259   -0.5108 C   0  0  0  0  0  0  0  0  0  0  0  0
    1.2964    1.0478    0.3103 C   0  0  0  0  0  0  0  0  0  0  0  0
   -0.1419    0.6292    0.1474 C   0  0  0  0  0  3  0  0  0  0  0  0
   -1.0472    1.8510    0.0175 C   0  0  0  0  0  0  0  0  0  0  0  0
   -0.5168   -0.2958    1.2788 C   0  0  0  0  0  0  0  0  0  0  0  0
   -1.4696   -0.1034    2.1777 C   0  0  0  0  0  0  0  0  0  0  0  0
    3.2979    1.0598   -0.3355 H   0  0  0  0  0  0  0  0  0  0  0  0
    2.1100    0.1158   -1.3911 H   0  0  0  0  0  0  0  0  0  0  0  0
    1.5037    1.6589    1.1862 H   0  0  0  0  0  0  0  0  0  0  0  0
   -2.0895    1.5561   -0.1149 H   0  0  0  0  0  0  0  0  0  0  0  0
   -0.7476    2.4504   -0.8425 H   0  0  0  0  0  0  0  0  0  0  0  0
   -0.9836    2.4842    0.9056 H   0  0  0  0  0  0  0  0  0  0  0  0
    0.0897   -1.1955    1.3409 H   0  0  0  0  0  0  0  0  0  0  0  0
   -2.1035    0.7751    2.1717 H   0  0  0  0  0  0  0  0  0  0  0  0
   -1.6521   -0.8301    2.9593 H   0  0  0  0  0  0  0  0  0  0  0  0
   -0.1419   -1.8171   -2.3275 C   0  0  0  0  0  0  0  0  0  0  0  0
   -0.1419   -1.8171   -0.8047 C   0  0  0  0  0  0  0  0  0  0  0  0
   -1.0228   -1.3086   -2.7233 H   0  0  0  0  0  0  0  0  0  0  0  0
    0.7389   -1.3086   -2.7233 H   0  0  0  0  0  0  0  0  0  0  0  0
   -0.1419   -2.8342   -2.7233 H   0  0  0  0  0  0  0  0  0  0  0  0
   -0.1419   -0.5966   -0.3297 H   0  0  0  0  0  0  0  0  0  0  0  0
    0.7389   -2.3257   -0.4089 H   0  0  0  0  0  0  0  0  0  0  0  0
   -1.0228   -2.3257   -0.4089 H   0  0  0  0  0  0  0  0  0  0  0  0
  1  2  2  3
  1  7  1  0
  1  8  1  0
  2  3  1  0
  2  9  1  0
  3  4  1  0
  3  5  1  0
  4 10  1  0
  4 11  1  0
  4 12  1  0
  5  6  2  3
  5 13  1  0
  6 14  1  0
  6 15  1  0
 16 17  1  0
 16 18  1  0
 16 19  1  0
 16 20  1  0
 17 21  1  0
 17 22  1  0
 17 23  1  0
M  RAD  1   3   2
M  END
>  <reaction>  (10) 
rxn_874

>  <mol_properties>  (10) 
{"1": {"label": "*0", "atom_type": "Cd"}, "2": {"label": "*1", "atom_type": "Cs"}, "15": {"label": "*4", "atom_type": "Cs"}, "16": {"label": "*3", "atom_type": "Cs"}, "20": {"label": "*2", "atom_type": "H0"}}

>  <type>  (10) 
unop_6

>  <geom_source>  (10) 
Heuristics

$$$$

     RDKit          3D

 23 21  0  0  0  0  0  0  0  0999 V2000
    2.4406    0.2567    0.6742 C   0  0  0  0  0  0  0  0  0  0  0  0
    1.2643    0.7964    0.9498 C   0  0  0  0  0  0  0  0  0  0  0  0
    0.0187    0.6387    0.1167 C   0  0  0  0  0  3  0  0  0  0  0  0
   -0.4765    1.9962   -0.3745 C   0  0  0  0  0  0  0  0  0  0  0  0
   -1.0053   -0.1405    0.9045 C   0  0  0  0  0  0  0  0  0  0  0  0
   -2.2129    0.2702    1.2596 C   0  0  0  0  0  0  0  0  0  0  0  0
    3.2986    0.4090    1.3168 H   0  0  0  0  0  0  0  0  0  0  0  0
    2.5883   -0.3581   -0.2075 H   0  0  0  0  0  0  0  0  0  0  0  0
    1.1486    1.4057    1.8437 H   0  0  0  0  0  0  0  0  0  0  0  0
   -1.3708    1.8894   -0.9906 H   0  0  0  0  0  0  0  0  0  0  0  0
    0.2953    2.4839   -0.9705 H   0  0  0  0  0  0  0  0  0  0  0  0
   -0.7180    2.6539    0.4637 H   0  0  0  0  0  0  0  0  0  0  0  0
   -0.6770   -1.1310    1.2085 H   0  0  0  0  0  0  0  0  0  0  0  0
   -2.5949    1.2478    0.9915 H   0  0  0  0  0  0  0  0  0  0  0  0
   -2.8703   -0.3681    1.8363 H   0  0  0  0  0  0  0  0  0  0  0  0
    0.0187   -1.8076   -2.3582 C   0  0  0  0  0  0  0  0  0  0  0  0
    0.0187   -1.8076   -0.8354 C   0  0  0  0  0  0  0  0  0  0  0  0
   -0.8622   -1.2991   -2.7540 H   0  0  0  0  0  0  0  0  0  0  0  0
    0.8995   -1.2991   -2.7540 H   0  0  0  0  0  0  0  0  0  0  0  0
    0.0187   -2.8248   -2.7540 H   0  0  0  0  0  0  0  0  0  0  0  0
    0.0187   -0.5871   -0.3604 H   0  0  0  0  0  0  0  0  0  0  0  0
    0.8995   -2.3162   -0.4395 H   0  0  0  0  0  0  0  0  0  0  0  0
   -0.8622   -2.3162   -0.4395 H   0  0  0  0  0  0  0  0  0  0  0  0
  1  2  2  3
  1  7  1  0
  1  8  1  0
  2  3  1  0
  2  9  1  0
  3  4  1  0
  3  5  1  0
  4 10  1  0
  4 11  1  0
  4 12  1  0
  5  6  2  3
  5 13  1  0
  6 14  1  0
  6 15  1  0
 16 17  1  0
 16 18  1  0
 16 19  1  0
 16 20  1  0
 17 21  1  0
 17 22  1  0
 17 23  1  0
M  RAD  1   3   2
M  END
>  <reaction>  (11) 
rxn_874

>  <mol_properties>  (11) 
{"1": {"label": "*0", "atom_type": "Cd"}, "2": {"label": "*1", "atom_type": "Cs"}, "15": {"label": "*4", "atom_type": "Cs"}, "16": {"label": "*3", "atom_type": "Cs"}, "20": {"label": "*2", "atom_type": "H0"}}

>  <type>  (11) 
unop_7

>  <geom_source>  (11) 
Heuristics

$$$$

     RDKit          3D

 23 21  0  0  0  0  0  0  0  0999 V2000
   -2.3316    0.5062   -0.3762 C   0  0  0  0  0  0  0  0  0  0  0  0
   -1.3568    0.7753    0.4772 C   0  0  0  0  0  0  0  0  0  0  0  0
    0.0815    0.3566    0.3143 C   0  0  0  0  0  3  0  0  0  0  0  0
    0.5193   -0.5306    1.4764 C   0  0  0  0  0  0  0  0  0  0  0  0
    0.9341    1.5869    0.1255 C   0  0  0  0  0  0  0  0  0  0  0  0
    1.9327    1.9858    0.8979 C   0  0  0  0  0  0  0  0  0  0  0  0
   -3.3471    0.8379   -0.1996 H   0  0  0  0  0  0  0  0  0  0  0  0
   -2.1485   -0.0583   -1.2845 H   0  0  0  0  0  0  0  0  0  0  0  0
   -1.5730    1.3462    1.3778 H   0  0  0  0  0  0  0  0  0  0  0  0
    1.5563   -0.8497    1.3588 H   0  0  0  0  0  0  0  0  0  0  0  0
   -0.1101   -1.4193    1.5279 H   0  0  0  0  0  0  0  0  0  0  0  0
    0.4324   -0.0028    2.4290 H   0  0  0  0  0  0  0  0  0  0  0  0
    0.6613    2.1928   -0.7347 H   0  0  0  0  0  0  0  0  0  0  0  0
    2.2483    1.4283    1.7715 H   0  0  0  0  0  0  0  0  0  0  0  0
    2.4778    2.8950    0.6775 H   0  0  0  0  0  0  0  0  0  0  0  0
    0.0815   -2.0897   -2.1605 C   0  0  0  0  0  0  0  0  0  0  0  0
    0.0815   -2.0897   -0.6378 C   0  0  0  0  0  0  0  0  0  0  0  0
   -0.7993   -1.5811   -2.5564 H   0  0  0  0  0  0  0  0  0  0  0  0
    0.9624   -1.5811   -2.5564 H   0  0  0  0  0  0  0  0  0  0  0  0
    0.0815   -3.1068   -2.5564 H   0  0  0  0  0  0  0  0  0  0  0  0
    0.0815   -0.8691   -0.1627 H   0  0  0  0  0  0  0  0  0  0  0  0
    0.9624   -2.5982   -0.2419 H   0  0  0  0  0  0  0  0  0  0  0  0
   -0.7993   -2.5982   -0.2419 H   0  0  0  0  0  0  0  0  0  0  0  0
  1  2  2  3
  1  7  1  0
  1  8  1  0
  2  3  1  0
  2  9  1  0
  3  4  1  0
  3  5  1  0
  4 10  1  0
  4 11  1  0
  4 12  1  0
  5  6  2  3
  5 13  1  0
  6 14  1  0
  6 15  1  0
 16 17  1  0
 16 18  1  0
 16 19  1  0
 16 20  1  0
 17 21  1  0
 17 22  1  0
 17 23  1  0
M  RAD  1   3   2
M  END
>  <reaction>  (12) 
rxn_874

>  <mol_properties>  (12) 
{"1": {"label": "*0", "atom_type": "Cd"}, "2": {"label": "*1", "atom_type": "Cs"}, "15": {"label": "*4", "atom_type": "Cs"}, "16": {"label": "*3", "atom_type": "Cs"}, "20": {"label": "*2", "atom_type": "H0"}}

>  <type>  (12) 
unop_8

>  <geom_source>  (12) 
Heuristics

$$$$

     RDKit          3D

 23 21  0  0  0  0  0  0  0  0999 V2000
    0.7116    0.9941   -1.8923 C   0  0  0  0  0  0  0  0  0  0  0  0
    0.4604    1.3214   -0.6350 C   0  0  0  0  0  0  0  0  0  0  0  0
   -0.2588    0.4510    0.3629 C   0  0  0  0  0  3  0  0  0  0  0  0
   -1.5219    1.1422    0.8690 C   0  0  0  0  0  0  0  0  0  0  0  0
    0.7041    0.0545    1.4547 C   0  0  0  0  0  0  0  0  0  0  0  0
    0.5892    0.3175    2.7472 C   0  0  0  0  0  0  0  0  0  0  0  0
    1.2352    1.6673   -2.5593 H   0  0  0  0  0  0  0  0  0  0  0  0
    0.4006    0.0384   -2.3010 H   0  0  0  0  0  0  0  0  0  0  0  0
    0.7883    2.2866   -0.2549 H   0  0  0  0  0  0  0  0  0  0  0  0
   -2.0563    0.5122    1.5820 H   0  0  0  0  0  0  0  0  0  0  0  0
   -2.1898    1.3606    0.0354 H   0  0  0  0  0  0  0  0  0  0  0  0
   -1.2827    2.0867    1.3630 H   0  0  0  0  0  0  0  0  0  0  0  0
    1.5786   -0.4878    1.1049 H   0  0  0  0  0  0  0  0  0  0  0  0
   -0.2559    0.8583    3.1560 H   0  0  0  0  0  0  0  0  0  0  0  0
    1.3461   -0.0064    3.4503 H   0  0  0  0  0  0  0  0  0  0  0  0
   -0.2588   -1.9953   -2.1119 C   0  0  0  0  0  0  0  0  0  0  0  0
   -0.2588   -1.9953   -0.5891 C   0  0  0  0  0  0  0  0  0  0  0  0
   -1.1396   -1.4868   -2.5078 H   0  0  0  0  0  0  0  0  0  0  0  0
    0.6221   -1.4868   -2.5078 H   0  0  0  0  0  0  0  0  0  0  0  0
   -0.2588   -3.0124   -2.5078 H   0  0  0  0  0  0  0  0  0  0  0  0
   -0.2588   -0.7748   -0.1141 H   0  0  0  0  0  0  0  0  0  0  0  0
    0.6221   -2.5039   -0.1933 H   0  0  0  0  0  0  0  0  0  0  0  0
   -1.1396   -2.5039   -0.1933 H   0  0  0  0  0  0  0  0  0  0  0  0
  1  2  2  3
  1  7  1  0
  1  8  1  0
  2  3  1  0
  2  9  1  0
  3  4  1  0
  3  5  1  0
  4 10  1  0
  4 11  1  0
  4 12  1  0
  5  6  2  3
  5 13  1  0
  6 14  1  0
  6 15  1  0
 16 17  1  0
 16 18  1  0
 16 19  1  0
 16 20  1  0
 17 21  1  0
 17 22  1  0
 17 23  1  0
M  RAD  1   3   2
M  END
>  <reaction>  (13) 
rxn_874

>  <mol_properties>  (13) 
{"1": {"label": "*0", "atom_type": "Cd"}, "2": {"label": "*1", "atom_type": "Cs"}, "15": {"label": "*4", "atom_type": "Cs"}, "16": {"label": "*3", "atom_type": "Cs"}, "20": {"label": "*2", "atom_type": "H0"}}

>  <type>  (13) 
unop_9

>  <geom_source>  (13) 
Heuristics

$$$$

     RDKit          3D

 23 21  0  0  0  0  0  0  0  0999 V2000
   -1.7464    0.7839   -1.2975 C   0  0  0  0  0  0  0  0  0  0  0  0
   -1.1791    1.0077   -0.1232 C   0  0  0  0  0  0  0  0  0  0  0  0
    0.0666    0.3282    0.3841 C   0  0  0  0  0  3  0  0  0  0  0  0
   -0.2230   -0.4345    1.6739 C   0  0  0  0  0  0  0  0  0  0  0  0
    1.1690    1.3505    0.5091 C   0  0  0  0  0  0  0  0  0  0  0  0
    1.8195    1.6842    1.6130 C   0  0  0  0  0  0  0  0  0  0  0  0
   -2.6433    1.3082   -1.6027 H   0  0  0  0  0  0  0  0  0  0  0  0
   -1.3334    0.0654   -1.9977 H   0  0  0  0  0  0  0  0  0  0  0  0
   -1.6167    1.7371    0.5550 H   0  0  0  0  0  0  0  0  0  0  0  0
    0.6712   -0.9412    2.0406 H   0  0  0  0  0  0  0  0  0  0  0  0
   -0.9962   -1.1835    1.5014 H   0  0  0  0  0  0  0  0  0  0  0  0
   -0.5776    0.2386    2.4580 H   0  0  0  0  0  0  0  0  0  0  0  0
    1.4174    1.8568   -0.4201 H   0  0  0  0  0  0  0  0  0  0  0  0
    1.6140    1.2197    2.5699 H   0  0  0  0  0  0  0  0  0  0  0  0
    2.5925    2.4421    1.5957 H   0  0  0  0  0  0  0  0  0  0  0  0
    0.0666   -2.1181   -2.0908 C   0  0  0  0  0  0  0  0  0  0  0  0
    0.0666   -2.1181   -0.5680 C   0  0  0  0  0  0  0  0  0  0  0  0
   -0.8143   -1.6095   -2.4866 H   0  0  0  0  0  0  0  0  0  0  0  0
    0.9474   -1.6095   -2.4866 H   0  0  0  0  0  0  0  0  0  0  0  0
    0.0666   -3.1352   -2.4866 H   0  0  0  0  0  0  0  0  0  0  0  0
    0.0666   -0.8976   -0.0930 H   0  0  0  0  0  0  0  0  0  0  0  0
    0.9474   -2.6266   -0.1722 H   0  0  0  0  0  0  0  0  0  0  0  0
   -0.8143   -2.6266   -0.1722 H   0  0  0  0  0  0  0  0  0  0  0  0
  1  2  2  3
  1  7  1  0
  1  8  1  0
  2  3  1  0
  2  9  1  0
  3  4  1  0
  3  5  1  0
  4 10  1  0
  4 11  1  0
  4 12  1  0
  5  6  2  3
  5 13  1  0
  6 14  1  0
  6 15  1  0
 16 17  1  0
 16 18  1  0
 16 19  1  0
 16 20  1  0
 17 21  1  0
 17 22  1  0
 17 23  1  0
M  RAD  1   3   2
M  END
>  <reaction>  (14) 
rxn_874

>  <mol_properties>  (14) 
{"1": {"label": "*0", "atom_type": "Cd"}, "2": {"label": "*1", "atom_type": "Cs"}, "15": {"label": "*4", "atom_type": "Cs"}, "16": {"label": "*3", "atom_type": "Cs"}, "20": {"label": "*2", "atom_type": "H0"}}

>  <type>  (14) 
unop_10

>  <geom_source>  (14) 
Heuristics

$$$$

     RDKit          3D

 23 21  0  0  0  0  0  0  0  0999 V2000
    1.7847   -0.3682    1.8490 C   0  0  0  0  0  0  0  0  0  0  0  0
    0.8794    0.5293    1.4942 C   0  0  0  0  0  0  0  0  0  0  0  0
    0.1602    0.5625    0.1705 C   0  0  0  0  0  3  0  0  0  0  0  0
    0.4416    1.8711   -0.5629 C   0  0  0  0  0  0  0  0  0  0  0  0
   -1.3058    0.2896    0.3995 C   0  0  0  0  0  0  0  0  0  0  0  0
   -2.3172    1.0918    0.1052 C   0  0  0  0  0  0  0  0  0  0  0  0
    2.2651   -0.3358    2.8188 H   0  0  0  0  0  0  0  0  0  0  0  0
    2.0795   -1.1695    1.1795 H   0  0  0  0  0  0  0  0  0  0  0  0
    0.6037    1.3189    2.1901 H   0  0  0  0  0  0  0  0  0  0  0  0
   -0.0646    1.8972   -1.5293 H   0  0  0  0  0  0  0  0  0  0  0  0
    1.5128    1.9832   -0.7328 H   0  0  0  0  0  0  0  0  0  0  0  0
    0.1033    2.7302    0.0211 H   0  0  0  0  0  0  0  0  0  0  0  0
   -1.5146   -0.6672    0.8711 H   0  0  0  0  0  0  0  0  0  0  0  0
   -2.1732    2.0593   -0.3605 H   0  0  0  0  0  0  0  0  0  0  0  0
   -3.3379    0.8022    0.3207 H   0  0  0  0  0  0  0  0  0  0  0  0
    0.1602   -1.8838   -2.3044 C   0  0  0  0  0  0  0  0  0  0  0  0
    0.1602   -1.8838   -0.7816 C   0  0  0  0  0  0  0  0  0  0  0  0
   -0.7206   -1.3753   -2.7002 H   0  0  0  0  0  0  0  0  0  0  0  0
    1.0411   -1.3753   -2.7002 H   0  0  0  0  0  0  0  0  0  0  0  0
    0.1602   -2.9009   -2.7002 H   0  0  0  0  0  0  0  0  0  0  0  0
    0.1602   -0.6633   -0.3066 H   0  0  0  0  0  0  0  0  0  0  0  0
    1.0411   -2.3924   -0.3857 H   0  0  0  0  0  0  0  0  0  0  0  0
   -0.7206   -2.3924   -0.3857 H   0  0  0  0  0  0  0  0  0  0  0  0
  1  2  2  3
  1  7  1  0
  1  8  1  0
  2  3  1  0
  2  9  1  0
  3  4  1  0
  3  5  1  0
  4 10  1  0
  4 11  1  0
  4 12  1  0
  5  6  2  3
  5 13  1  0
  6 14  1  0
  6 15  1  0
 16 17  1  0
 16 18  1  0
 16 19  1  0
 16 20  1  0
 17 21  1  0
 17 22  1  0
 17 23  1  0
M  RAD  1   3   2
M  END
>  <reaction>  (15) 
rxn_874

>  <mol_properties>  (15) 
{"1": {"label": "*0", "atom_type": "Cd"}, "2": {"label": "*1", "atom_type": "Cs"}, "15": {"label": "*4", "atom_type": "Cs"}, "16": {"label": "*3", "atom_type": "Cs"}, "20": {"label": "*2", "atom_type": "H0"}}

>  <type>  (15) 
unop_11

>  <geom_source>  (15) 
Heuristics

$$$$

     RDKit          3D

 23 21  0  0  0  0  0  0  0  0999 V2000
   -0.1311    0.9260   -2.0022 C   0  0  0  0  0  0  0  0  0  0  0  0
   -0.1626    1.2938   -0.7315 C   0  0  0  0  0  0  0  0  0  0  0  0
   -0.1626    0.3535    0.4460 C   0  0  0  0  0  3  0  0  0  0  0  0
   -1.4212    0.5445    1.2879 C   0  0  0  0  0  0  0  0  0  0  0  0
    1.1235    0.5276    1.2152 C   0  0  0  0  0  0  0  0  0  0  0  0
    1.2467    0.8964    2.4809 C   0  0  0  0  0  0  0  0  0  0  0  0
   -0.1324    1.6545   -2.8033 H   0  0  0  0  0  0  0  0  0  0  0  0
   -0.1039   -0.1203   -2.2878 H   0  0  0  0  0  0  0  0  0  0  0  0
   -0.1866    2.3516   -0.4785 H   0  0  0  0  0  0  0  0  0  0  0  0
   -1.4356   -0.1428    2.1354 H   0  0  0  0  0  0  0  0  0  0  0  0
   -2.3092    0.3621    0.6822 H   0  0  0  0  0  0  0  0  0  0  0  0
   -1.4841    1.5637    1.6762 H   0  0  0  0  0  0  0  0  0  0  0  0
    2.0219    0.3376    0.6338 H   0  0  0  0  0  0  0  0  0  0  0  0
    0.3898    1.1047    3.1101 H   0  0  0  0  0  0  0  0  0  0  0  0
    2.2229    1.0009    2.9374 H   0  0  0  0  0  0  0  0  0  0  0  0
   -0.1626   -2.0928   -2.0289 C   0  0  0  0  0  0  0  0  0  0  0  0
   -0.1626   -2.0928   -0.5061 C   0  0  0  0  0  0  0  0  0  0  0  0
   -1.0435   -1.5842   -2.4247 H   0  0  0  0  0  0  0  0  0  0  0  0
    0.7182   -1.5843   -2.4247 H   0  0  0  0  0  0  0  0  0  0  0  0
   -0.1626   -3.1099   -2.4247 H   0  0  0  0  0  0  0  0  0  0  0  0
   -0.1626   -0.8723   -0.0311 H   0  0  0  0  0  0  0  0  0  0  0  0
    0.7182   -2.6014   -0.1102 H   0  0  0  0  0  0  0  0  0  0  0  0
   -1.0435   -2.6014   -0.1102 H   0  0  0  0  0  0  0  0  0  0  0  0
  1  2  2  3
  1  7  1  0
  1  8  1  0
  2  3  1  0
  2  9  1  0
  3  4  1  0
  3  5  1  0
  4 10  1  0
  4 11  1  0
  4 12  1  0
  5  6  2  3
  5 13  1  0
  6 14  1  0
  6 15  1  0
 16 17  1  0
 16 18  1  0
 16 19  1  0
 16 20  1  0
 17 21  1  0
 17 22  1  0
 17 23  1  0
M  RAD  1   3   2
M  END
>  <reaction>  (16) 
rxn_874

>  <mol_properties>  (16) 
{"1": {"label": "*0", "atom_type": "Cd"}, "2": {"label": "*1", "atom_type": "Cs"}, "15": {"label": "*4", "atom_type": "Cs"}, "16": {"label": "*3", "atom_type": "Cs"}, "20": {"label": "*2", "atom_type": "H0"}}

>  <type>  (16) 
unop_12

>  <geom_source>  (16) 
Heuristics

$$$$

     RDKit          3D

 23 21  0  0  0  0  0  0  0  0999 V2000
   -0.5309   -0.2910    0.0030 C   0  0  0  0  0  3  0  0  0  0  0  0
   -1.0424    0.0219   -1.4063 C   0  0  0  0  0  0  0  0  0  0  0  0
    2.4024    1.3030   -1.0448 C   0  0  0  0  0  0  0  0  0  0  0  0
   -0.8355    0.8425    0.9542 C   0  0  0  0  0  0  0  0  0  0  0  0
   -1.0968   -1.5956    0.5096 C   0  0  0  0  0  0  0  0  0  0  0  0
    1.9981   -0.0660   -0.5301 C   0  0  0  0  0  0  0  0  0  0  0  0
   -2.0837    1.1922    1.2871 C   0  0  0  0  0  0  0  0  0  0  0  0
   -0.5810   -2.2038    1.5812 C   0  0  0  0  0  0  0  0  0  0  0  0
    0.8427   -0.4217   -0.0831 H   0  0  0  0  0  0  0  0  0  0  0  0
   -0.7372   -0.7859   -2.1048 H   0  0  0  0  0  0  0  0  0  0  0  0
   -0.6014    0.9759   -1.7659 H   0  0  0  0  0  0  0  0  0  0  0  0
   -2.1501    0.1077   -1.4212 H   0  0  0  0  0  0  0  0  0  0  0  0
    1.9541    1.4713   -2.0461 H   0  0  0  0  0  0  0  0  0  0  0  0
    2.0370    2.0854   -0.3476 H   0  0  0  0  0  0  0  0  0  0  0  0
    3.5082    1.3670   -1.1219 H   0  0  0  0  0  0  0  0  0  0  0  0
   -0.0040    1.3887    1.3888 H   0  0  0  0  0  0  0  0  0  0  0  0
   -1.9327   -2.0617   -0.0055 H   0  0  0  0  0  0  0  0  0  0  0  0
    2.3526   -0.8542   -1.2272 H   0  0  0  0  0  0  0  0  0  0  0  0
    2.4357   -0.2384    0.4758 H   0  0  0  0  0  0  0  0  0  0  0  0
   -2.2512    2.0124    1.9775 H   0  0  0  0  0  0  0  0  0  0  0  0
   -2.9413    0.6645    0.8815 H   0  0  0  0  0  0  0  0  0  0  0  0
   -0.9997   -3.1433    1.9267 H   0  0  0  0  0  0  0  0  0  0  0  0
    0.2571   -1.7710    2.1191 H   0  0  0  0  0  0  0  0  0  0  0  0
  1  2  1  0
  1  4  1  0
  1  5  1  0
  2 10  1  0
  2 11  1  0
  2 12  1  0
  3  6  1  0
  3 13  1  0
  3 14  1  0
  3 15  1  0
  4  7  2  3
  4 16  1  0
  5  8  2  3
  5 17  1  0
  6  9  1  0
  6 18  1  0
  6 19  1  0
  7 20  1  0
  7 21  1  0
  8 22  1  0
  8 23  1  0
M  RAD  1   1   2
M  END
>  <reaction>  (17) 
rxn_874

>  <mol_properties>  (17) 
{"1": {"label": "*0", "atom_type": "Cd"}, "2": {"label": "*1", "atom_type": "Cs"}, "15": {"label": "*4", "atom_type": "Cs"}, "16": {"label": "*3", "atom_type": "Cs"}, "20": {"label": "*2", "atom_type": "H0"}}

>  <type>  (17) 
unop_13

>  <geom_source>  (17) 
AutoTST

$$$$

     RDKit          3D

 23 21  0  0  0  0  0  0  0  0999 V2000
   -0.9395    0.8834   -1.8245 C   0  0  0  0  0  0  0  0  0  0  0  0
   -0.7431    1.1842   -0.5510 C   0  0  0  0  0  0  0  0  0  0  0  0
   -0.0239    0.3138    0.4470 C   0  0  0  0  0  3  0  0  0  0  0  0
   -0.9483   -0.0568    1.6035 C   0  0  0  0  0  0  0  0  0  0  0  0
    1.2487    1.0024    0.8741 C   0  0  0  0  0  0  0  0  0  0  0  0
    1.5778    1.3694    2.1029 C   0  0  0  0  0  0  0  0  0  0  0  0
   -1.4654    1.5556   -2.4909 H   0  0  0  0  0  0  0  0  0  0  0  0
   -0.5811   -0.0493   -2.2473 H   0  0  0  0  0  0  0  0  0  0  0  0
   -1.1126    2.1292   -0.1585 H   0  0  0  0  0  0  0  0  0  0  0  0
   -0.4390   -0.6990    2.3240 H   0  0  0  0  0  0  0  0  0  0  0  0
   -1.8239   -0.5875    1.2287 H   0  0  0  0  0  0  0  0  0  0  0  0
   -1.2969    0.8347    2.1300 H   0  0  0  0  0  0  0  0  0  0  0  0
    1.9358    1.2180    0.0600 H   0  0  0  0  0  0  0  0  0  0  0  0
    0.9334    1.1871    2.9545 H   0  0  0  0  0  0  0  0  0  0  0  0
    2.5175    1.8689    2.3016 H   0  0  0  0  0  0  0  0  0  0  0  0
   -0.0239   -2.1325   -2.0279 C   0  0  0  0  0  0  0  0  0  0  0  0
   -0.0239   -2.1325   -0.5051 C   0  0  0  0  0  0  0  0  0  0  0  0
   -0.9047   -1.6240   -2.4237 H   0  0  0  0  0  0  0  0  0  0  0  0
    0.8570   -1.6240   -2.4237 H   0  0  0  0  0  0  0  0  0  0  0  0
   -0.0239   -3.1496   -2.4237 H   0  0  0  0  0  0  0  0  0  0  0  0
   -0.0239   -0.9120   -0.0301 H   0  0  0  0  0  0  0  0  0  0  0  0
    0.8570   -2.6411   -0.1092 H   0  0  0  0  0  0  0  0  0  0  0  0
   -0.9047   -2.6411   -0.1092 H   0  0  0  0  0  0  0  0  0  0  0  0
  1  2  2  3
  1  7  1  0
  1  8  1  0
  2  3  1  0
  2  9  1  0
  3  4  1  0
  3  5  1  0
  4 10  1  0
  4 11  1  0
  4 12  1  0
  5  6  2  3
  5 13  1  0
  6 14  1  0
  6 15  1  0
 16 17  1  0
 16 18  1  0
 16 19  1  0
 16 20  1  0
 17 21  1  0
 17 22  1  0
 17 23  1  0
M  RAD  1   3   2
M  END
>  <reaction>  (18) 
rxn_874

>  <mol_properties>  (18) 
{"1": {"label": "*0", "atom_type": "Cd"}, "2": {"label": "*1", "atom_type": "Cs"}, "15": {"label": "*4", "atom_type": "Cs"}, "16": {"label": "*3", "atom_type": "Cs"}, "20": {"label": "*2", "atom_type": "H0"}}

>  <type>  (18) 
unop_14

>  <geom_source>  (18) 
gaussian_log

$$$$
