
     RDKit          3D

 12 11  0  0  0  0  0  0  0  0999 V2000
    1.2394   -0.3763   -0.3020 C   0  0  0  0  0  0  0  0  0  0  0  0
    0.1007    0.3023    0.4464 C   0  0  0  0  0  0  0  0  0  0  0  0
   -0.1187    2.0399   -0.0725 S   0  0  0  0  0  0  0  0  0  0  0  0
   -1.1974   -0.4877    0.3552 C   0  0  0  0  0  0  0  0  0  0  0  0
    2.1681    0.1849   -0.2048 H   0  0  0  0  0  0  0  0  0  0  0  0
    1.0031   -0.4606   -1.3656 H   0  0  0  0  0  0  0  0  0  0  0  0
    1.3994   -1.3856    0.0860 H   0  0  0  0  0  0  0  0  0  0  0  0
    0.3796    0.4050    1.4981 H   0  0  0  0  0  0  0  0  0  0  0  0
   -0.4500    1.7779   -1.3452 H   0  0  0  0  0  0  0  0  0  0  0  0
   -1.0545   -1.4978    0.7479 H   0  0  0  0  0  0  0  0  0  0  0  0
   -1.5206   -0.5759   -0.6849 H   0  0  0  0  0  0  0  0  0  0  0  0
   -1.9957   -0.0054    0.9183 H   0  0  0  0  0  0  0  0  0  0  0  0
  1  2  1  0
  1  5  1  0
  1  6  1  0
  1  7  1  0
  2  4  1  0
  2  3  1  0
  2  8  1  0
  3  9  1  0
  4 10  1  0
  4 11  1  0
  4 12  1  0
M  END
>  <reaction>  (1) 
rxn_1930

>  <mol_properties>  (1) 
{"1": {"label": "donator", "atom_type": "Cs"}, "7": {"label": "d_hydrogen", "atom_type": "H0"}}

>  <type>  (1) 
r1h

$$$$

     RDKit          3D

  5  4  0  0  0  0  0  0  0  0999 V2000
   -0.5642    0.0794    0.0348 C   0  0  0  0  0  3  0  0  0  0  0  0
    1.0624    0.5420    0.2853 S   0  0  0  0  0  0  0  0  0  0  0  0
   -1.3257    0.7631    0.3741 H   0  0  0  0  0  0  0  0  0  0  0  0
   -0.8236   -0.8519   -0.4401 H   0  0  0  0  0  0  0  0  0  0  0  0
    1.6511   -0.5325   -0.2540 H   0  0  0  0  0  0  0  0  0  0  0  0
  1  2  1  0
  1  3  1  0
  1  4  1  0
  2  5  1  0
M  RAD  1   1   2
M  END
>  <reaction>  (2) 
rxn_1930

>  <mol_properties>  (2) 
{"0": {"label": "acceptor", "atom_type": "Cs"}}

>  <type>  (2) 
r2

$$$$

     RDKit          3D

  6  5  0  0  0  0  0  0  0  0999 V2000
   -0.5072   -0.0291   -0.0097 C   0  0  0  0  0  0  0  0  0  0  0  0
    1.1321   -0.1527   -0.7687 S   0  0  0  0  0  0  0  0  0  0  0  0
   -0.6174   -0.7330    0.8127 H   0  0  0  0  0  0  0  0  0  0  0  0
   -0.5863    0.9827    0.3845 H   0  0  0  0  0  0  0  0  0  0  0  0
   -1.2962   -0.1800   -0.7434 H   0  0  0  0  0  0  0  0  0  0  0  0
    1.0312   -1.4237   -1.1764 H   0  0  0  0  0  0  0  0  0  0  0  0
  1  2  1  0
  1  3  1  0
  1  4  1  0
  1  5  1  0
  2  6  1  0
M  END
>  <reaction>  (3) 
rxn_1930

>  <mol_properties>  (3) 
{"0": {"label": "acceptor", "atom_type": "Cs"}, "5": {"label": "a_hydrogen", "atom_type": "H0"}}

>  <type>  (3) 
r2h

$$$$

     RDKit          3D

 17 15  0  0  0  0  0  0  0  0999 V2000
   -1.5916   -0.5413    0.0997 C   0  0  0  0  0  3  0  0  0  0  0  0
   -1.1964   -0.8601    1.7926 S   0  0  0  0  0  0  0  0  0  0  0  0
   -2.3858    0.1983    0.0376 H   0  0  0  0  0  0  0  0  0  0  0  0
   -1.7954   -1.4275   -0.4955 H   0  0  0  0  0  0  0  0  0  0  0  0
   -0.2774   -1.8098    1.5721 H   0  0  0  0  0  0  0  0  0  0  0  0
    0.4138    0.5309   -2.4994 C   0  0  0  0  0  0  0  0  0  0  0  0
    0.5580    0.6479   -1.0002 C   0  0  0  0  0  0  0  0  0  0  0  0
    1.9644   -0.3045   -0.4281 S   0  0  0  0  0  0  0  0  0  0  0  0
    0.4797    2.0543   -0.4594 C   0  0  0  0  0  0  0  0  0  0  0  0
    0.4151   -0.5114   -2.8229 H   0  0  0  0  0  0  0  0  0  0  0  0
    1.2245    1.0494   -3.0210 H   0  0  0  0  0  0  0  0  0  0  0  0
   -0.5288    0.9834   -2.8147 H   0  0  0  0  0  0  0  0  0  0  0  0
   -0.4959    0.0474   -0.4963 H   0  0  0  0  0  0  0  0  0  0  0  0
    1.8786    0.0435    0.8632 H   0  0  0  0  0  0  0  0  0  0  0  0
   -0.4320    2.5398   -0.8169 H   0  0  0  0  0  0  0  0  0  0  0  0
    1.3353    2.6535   -0.7844 H   0  0  0  0  0  0  0  0  0  0  0  0
    0.4565    2.0565    0.6320 H   0  0  0  0  0  0  0  0  0  0  0  0
  1  2  1  0
  1  3  1  0
  1  4  1  0
  2  5  1  0
  6  7  1  0
  6 10  1  0
  6 11  1  0
  6 12  1  0
  7  9  1  0
  7  8  1  0
  7 13  1  0
  8 14  1  0
  9 15  1  0
  9 16  1  0
  9 17  1  0
M  RAD  1   1   2
M  END
>  <reaction>  (4) 
rxn_1930

>  <mol_properties>  (4) 
{"0": {"label": "*3", "atom_type": "Cs"}, "1": {"label": "*4", "atom_type": "S2s"}, "6": {"label": "*1", "atom_type": "Cs"}, "7": {"label": "*0", "atom_type": "S2s"}, "12": {"label": "*2", "atom_type": "H0"}}

>  <type>  (4) 
ts

$$$$

     RDKit          3D

 17 15  0  0  0  0  0  0  0  0999 V2000
   -1.7889   -0.3031    0.1973 C   0  0  0  0  0  0  0  0  0  0  0  0
   -1.3474   -1.7386    1.2087 S   0  0  0  0  0  0  0  0  0  0  0  0
   -1.6708    0.5699    0.8372 H   0  0  0  0  0  0  0  0  0  0  0  0
   -2.8239   -0.3548   -0.1341 H   0  0  0  0  0  0  0  0  0  0  0  0
   -1.5517   -2.6719    0.2711 H   0  0  0  0  0  0  0  0  0  0  0  0
    0.3420    0.9577   -2.1730 C   0  0  0  0  0  0  0  0  0  0  0  0
    0.3420    0.9577   -0.6507 C   0  0  0  0  0  3  0  0  0  0  0  0
    1.6971   -0.0587    0.0329 S   0  0  0  0  0  0  0  0  0  0  0  0
    0.3420    2.3677   -0.0766 C   0  0  0  0  0  0  0  0  0  0  0  0
    0.3134   -0.0565   -2.5697 H   0  0  0  0  0  0  0  0  0  0  0  0
    1.2405    1.4475   -2.5566 H   0  0  0  0  0  0  0  0  0  0  0  0
   -0.5249    1.5052   -2.5518 H   0  0  0  0  0  0  0  0  0  0  0  0
   -0.7259    0.3259   -0.2257 H   0  0  0  0  0  0  0  0  0  0  0  0
    2.7033    0.6768   -0.4617 H   0  0  0  0  0  0  0  0  0  0  0  0
   -0.5249    2.9250   -0.4408 H   0  0  0  0  0  0  0  0  0  0  0  0
    1.2405    2.9077   -0.3856 H   0  0  0  0  0  0  0  0  0  0  0  0
    0.3134    2.3526    1.0123 H   0  0  0  0  0  0  0  0  0  0  0  0
  1  2  1  0
  1  3  1  0
  1  4  1  0
  1 13  1  0
  2  5  1  0
  6  7  1  0
  6 10  1  0
  6 11  1  0
  6 12  1  0
  7  9  1  0
  7  8  1  0
  8 14  1  0
  9 15  1  0
  9 16  1  0
  9 17  1  0
M  RAD  1   7   2
M  END
>  <reaction>  (5) 
rxn_1930

>  <mol_properties>  (5) 
{"0": {"label": "*3", "atom_type": "Cs"}, "1": {"label": "*4", "atom_type": "S2s"}, "6": {"label": "*1", "atom_type": "Cs"}, "7": {"label": "*0", "atom_type": "S2s"}, "12": {"label": "*2", "atom_type": "H0"}}

>  <type>  (5) 
unop_1

>  <geom_source>  (5) 
Heuristics

$$$$

     RDKit          3D

 17 15  0  0  0  0  0  0  0  0999 V2000
   -1.5339   -0.3511    0.7733 C   0  0  0  0  0  0  0  0  0  0  0  0
   -2.0490   -1.6355   -0.3943 S   0  0  0  0  0  0  0  0  0  0  0  0
   -0.9902   -0.8600    1.5676 H   0  0  0  0  0  0  0  0  0  0  0  0
   -2.3923    0.1565    1.2084 H   0  0  0  0  0  0  0  0  0  0  0  0
   -2.6768   -0.8309   -1.2605 H   0  0  0  0  0  0  0  0  0  0  0  0
    0.5970    0.9097   -1.5970 C   0  0  0  0  0  0  0  0  0  0  0  0
    0.5970    0.9097   -0.0747 C   0  0  0  0  0  3  0  0  0  0  0  0
    1.9520   -0.1067    0.6089 S   0  0  0  0  0  0  0  0  0  0  0  0
    0.5970    2.3197    0.4993 C   0  0  0  0  0  0  0  0  0  0  0  0
    0.5684   -0.1045   -1.9937 H   0  0  0  0  0  0  0  0  0  0  0  0
    1.4954    1.3995   -1.9806 H   0  0  0  0  0  0  0  0  0  0  0  0
   -0.2700    1.4572   -1.9758 H   0  0  0  0  0  0  0  0  0  0  0  0
   -0.4709    0.2779    0.3503 H   0  0  0  0  0  0  0  0  0  0  0  0
    2.9583    0.6288    0.1142 H   0  0  0  0  0  0  0  0  0  0  0  0
   -0.2700    2.8770    0.1352 H   0  0  0  0  0  0  0  0  0  0  0  0
    1.4954    2.8597    0.1904 H   0  0  0  0  0  0  0  0  0  0  0  0
    0.5684    2.3046    1.5883 H   0  0  0  0  0  0  0  0  0  0  0  0
  1  2  1  0
  1  3  1  0
  1  4  1  0
  1 13  1  0
  2  5  1  0
  6  7  1  0
  6 10  1  0
  6 11  1  0
  6 12  1  0
  7  9  1  0
  7  8  1  0
  8 14  1  0
  9 15  1  0
  9 16  1  0
  9 17  1  0
M  RAD  1   7   2
M  END
>  <reaction>  (6) 
rxn_1930

>  <mol_properties>  (6) 
{"0": {"label": "*3", "atom_type": "Cs"}, "1": {"label": "*4", "atom_type": "S2s"}, "6": {"label": "*1", "atom_type": "Cs"}, "7": {"label": "*0", "atom_type": "S2s"}, "12": {"label": "*2", "atom_type": "H0"}}

>  <type>  (6) 
unop_2

>  <geom_source>  (6) 
Heuristics

$$$$

     RDKit          3D

 17 15  0  0  0  0  0  0  0  0999 V2000
   -1.7541   -0.4680    0.0424 C   0  0  0  0  0  0  0  0  0  0  0  0
   -1.4548   -1.2705    1.6377 S   0  0  0  0  0  0  0  0  0  0  0  0
   -2.1057    0.5376    0.2670 H   0  0  0  0  0  0  0  0  0  0  0  0
   -2.5237   -0.9876   -0.5246 H   0  0  0  0  0  0  0  0  0  0  0  0
   -1.0447   -2.4503    1.1561 H   0  0  0  0  0  0  0  0  0  0  0  0
    0.3768    0.7928   -2.3279 C   0  0  0  0  0  0  0  0  0  0  0  0
    0.3768    0.7928   -0.8056 C   0  0  0  0  0  3  0  0  0  0  0  0
    1.7318   -0.2236   -0.1220 S   0  0  0  0  0  0  0  0  0  0  0  0
    0.3768    2.2028   -0.2316 C   0  0  0  0  0  0  0  0  0  0  0  0
    0.3482   -0.2214   -2.7246 H   0  0  0  0  0  0  0  0  0  0  0  0
    1.2752    1.2826   -2.7116 H   0  0  0  0  0  0  0  0  0  0  0  0
   -0.4902    1.3402   -2.7067 H   0  0  0  0  0  0  0  0  0  0  0  0
   -0.6911    0.1610   -0.3806 H   0  0  0  0  0  0  0  0  0  0  0  0
    2.7381    0.5119   -0.6167 H   0  0  0  0  0  0  0  0  0  0  0  0
   -0.4902    2.7601   -0.5957 H   0  0  0  0  0  0  0  0  0  0  0  0
    1.2752    2.7427   -0.5405 H   0  0  0  0  0  0  0  0  0  0  0  0
    0.3482    2.1877    0.8574 H   0  0  0  0  0  0  0  0  0  0  0  0
  1  2  1  0
  1  3  1  0
  1  4  1  0
  1 13  1  0
  2  5  1  0
  6  7  1  0
  6 10  1  0
  6 11  1  0
  6 12  1  0
  7  9  1  0
  7  8  1  0
  8 14  1  0
  9 15  1  0
  9 16  1  0
  9 17  1  0
M  RAD  1   7   2
M  END
>  <reaction>  (7) 
rxn_1930

>  <mol_properties>  (7) 
{"0": {"label": "*3", "atom_type": "Cs"}, "1": {"label": "*4", "atom_type": "S2s"}, "6": {"label": "*1", "atom_type": "Cs"}, "7": {"label": "*0", "atom_type": "S2s"}, "12": {"label": "*2", "atom_type": "H0"}}

>  <type>  (7) 
unop_3

>  <geom_source>  (7) 
Heuristics

$$$$

     RDKit          3D

 17 15  0  0  0  0  0  0  0  0999 V2000
   -1.2779   -0.9079    0.6115 C   0  0  0  0  0  0  0  0  0  0  0  0
   -2.7938   -0.1082    0.0277 S   0  0  0  0  0  0  0  0  0  0  0  0
   -1.5095   -1.9671    0.7111 H   0  0  0  0  0  0  0  0  0  0  0  0
   -0.9764   -0.5242    1.5839 H   0  0  0  0  0  0  0  0  0  0  0  0
   -2.3130    1.1399   -0.0272 H   0  0  0  0  0  0  0  0  0  0  0  0
    0.8531    0.3530   -1.7589 C   0  0  0  0  0  0  0  0  0  0  0  0
    0.8531    0.3530   -0.2366 C   0  0  0  0  0  3  0  0  0  0  0  0
    2.2081   -0.6635    0.4471 S   0  0  0  0  0  0  0  0  0  0  0  0
    0.8531    1.7629    0.3375 C   0  0  0  0  0  0  0  0  0  0  0  0
    0.8245   -0.6613   -2.1556 H   0  0  0  0  0  0  0  0  0  0  0  0
    1.7515    0.8427   -2.1425 H   0  0  0  0  0  0  0  0  0  0  0  0
   -0.0139    0.9004   -2.1377 H   0  0  0  0  0  0  0  0  0  0  0  0
   -0.2148   -0.2789    0.1884 H   0  0  0  0  0  0  0  0  0  0  0  0
    3.2143    0.0720   -0.0476 H   0  0  0  0  0  0  0  0  0  0  0  0
   -0.0139    2.3202   -0.0267 H   0  0  0  0  0  0  0  0  0  0  0  0
    1.7515    2.3029    0.0286 H   0  0  0  0  0  0  0  0  0  0  0  0
    0.8245    1.7478    1.4264 H   0  0  0  0  0  0  0  0  0  0  0  0
  1  2  1  0
  1  3  1  0
  1  4  1  0
  1 13  1  0
  2  5  1  0
  6  7  1  0
  6 10  1  0
  6 11  1  0
  6 12  1  0
  7  9  1  0
  7  8  1  0
  8 14  1  0
  9 15  1  0
  9 16  1  0
  9 17  1  0
M  RAD  1   7   2
M  END
>  <reaction>  (8) 
rxn_1930

>  <mol_properties>  (8) 
{"0": {"label": "*3", "atom_type": "Cs"}, "1": {"label": "*4", "atom_type": "S2s"}, "6": {"label": "*1", "atom_type": "Cs"}, "7": {"label": "*0", "atom_type": "S2s"}, "12": {"label": "*2", "atom_type": "H0"}}

>  <type>  (8) 
unop_4

>  <geom_source>  (8) 
Heuristics

$$$$

     RDKit          3D

 17 15  0  0  0  0  0  0  0  0999 V2000
   -1.6635   -0.6688   -0.0171 C   0  0  0  0  0  0  0  0  0  0  0  0
   -1.7305   -0.7085    1.7919 S   0  0  0  0  0  0  0  0  0  0  0  0
   -2.5459   -0.1212   -0.3440 H   0  0  0  0  0  0  0  0  0  0  0  0
   -1.7003   -1.6717   -0.4373 H   0  0  0  0  0  0  0  0  0  0  0  0
   -0.6006   -1.3998    1.9851 H   0  0  0  0  0  0  0  0  0  0  0  0
    0.4674    0.5921   -2.3874 C   0  0  0  0  0  0  0  0  0  0  0  0
    0.4674    0.5921   -0.8651 C   0  0  0  0  0  3  0  0  0  0  0  0
    1.8225   -0.4244   -0.1815 S   0  0  0  0  0  0  0  0  0  0  0  0
    0.4674    2.0020   -0.2911 C   0  0  0  0  0  0  0  0  0  0  0  0
    0.4388   -0.4222   -2.7841 H   0  0  0  0  0  0  0  0  0  0  0  0
    1.3659    1.0818   -2.7711 H   0  0  0  0  0  0  0  0  0  0  0  0
   -0.3995    1.1395   -2.7663 H   0  0  0  0  0  0  0  0  0  0  0  0
   -0.6005   -0.0398   -0.4401 H   0  0  0  0  0  0  0  0  0  0  0  0
    2.8287    0.3111   -0.6762 H   0  0  0  0  0  0  0  0  0  0  0  0
   -0.3995    2.5593   -0.6552 H   0  0  0  0  0  0  0  0  0  0  0  0
    1.3659    2.5420   -0.6000 H   0  0  0  0  0  0  0  0  0  0  0  0
    0.4388    1.9869    0.7979 H   0  0  0  0  0  0  0  0  0  0  0  0
  1  2  1  0
  1  3  1  0
  1  4  1  0
  1 13  1  0
  2  5  1  0
  6  7  1  0
  6 10  1  0
  6 11  1  0
  6 12  1  0
  7  9  1  0
  7  8  1  0
  8 14  1  0
  9 15  1  0
  9 16  1  0
  9 17  1  0
M  RAD  1   7   2
M  END
>  <reaction>  (9) 
rxn_1930

>  <mol_properties>  (9) 
{"0": {"label": "*3", "atom_type": "Cs"}, "1": {"label": "*4", "atom_type": "S2s"}, "6": {"label": "*1", "atom_type": "Cs"}, "7": {"label": "*0", "atom_type": "S2s"}, "12": {"label": "*2", "atom_type": "H0"}}

>  <type>  (9) 
unop_5

>  <geom_source>  (9) 
Heuristics

$$$$

     RDKit          3D

 17 15  0  0  0  0  0  0  0  0999 V2000
   -1.3132   -0.9937    0.3988 C   0  0  0  0  0  0  0  0  0  0  0  0
   -2.7090    0.1396    0.6126 S   0  0  0  0  0  0  0  0  0  0  0  0
   -1.7415   -1.9874    0.2785 H   0  0  0  0  0  0  0  0  0  0  0  0
   -0.6670   -0.9964    1.2741 H   0  0  0  0  0  0  0  0  0  0  0  0
   -1.9930    1.2635    0.7391 H   0  0  0  0  0  0  0  0  0  0  0  0
    0.8177    0.2672   -1.9716 C   0  0  0  0  0  0  0  0  0  0  0  0
    0.8177    0.2672   -0.4493 C   0  0  0  0  0  3  0  0  0  0  0  0
    2.1727   -0.7492    0.2344 S   0  0  0  0  0  0  0  0  0  0  0  0
    0.8177    1.6772    0.1248 C   0  0  0  0  0  0  0  0  0  0  0  0
    0.7891   -0.7471   -2.3683 H   0  0  0  0  0  0  0  0  0  0  0  0
    1.7161    0.7569   -2.3552 H   0  0  0  0  0  0  0  0  0  0  0  0
   -0.0492    0.8146   -2.3504 H   0  0  0  0  0  0  0  0  0  0  0  0
   -0.2502   -0.3647   -0.0243 H   0  0  0  0  0  0  0  0  0  0  0  0
    3.1790   -0.0137   -0.2603 H   0  0  0  0  0  0  0  0  0  0  0  0
   -0.0492    2.2344   -0.2394 H   0  0  0  0  0  0  0  0  0  0  0  0
    1.7161    2.2171   -0.1841 H   0  0  0  0  0  0  0  0  0  0  0  0
    0.7891    1.6621    1.2137 H   0  0  0  0  0  0  0  0  0  0  0  0
  1  2  1  0
  1  3  1  0
  1  4  1  0
  1 13  1  0
  2  5  1  0
  6  7  1  0
  6 10  1  0
  6 11  1  0
  6 12  1  0
  7  9  1  0
  7  8  1  0
  8 14  1  0
  9 15  1  0
  9 16  1  0
  9 17  1  0
M  RAD  1   7   2
M  END
>  <reaction>  (10) 
rxn_1930

>  <mol_properties>  (10) 
{"0": {"label": "*3", "atom_type": "Cs"}, "1": {"label": "*4", "atom_type": "S2s"}, "6": {"label": "*1", "atom_type": "Cs"}, "7": {"label": "*0", "atom_type": "S2s"}, "12": {"label": "*2", "atom_type": "H0"}}

>  <type>  (10) 
unop_6

>  <geom_source>  (10) 
Heuristics

$$$$

     RDKit          3D

 17 15  0  0  0  0  0  0  0  0999 V2000
   -1.4084   -0.9749    0.1876 C   0  0  0  0  0  0  0  0  0  0  0  0
   -2.4542    0.1031    1.1990 S   0  0  0  0  0  0  0  0  0  0  0  0
   -2.0533   -1.7733   -0.1760 H   0  0  0  0  0  0  0  0  0  0  0  0
   -0.6066   -1.4155    0.7764 H   0  0  0  0  0  0  0  0  0  0  0  0
   -1.5060    0.9854    1.5368 H   0  0  0  0  0  0  0  0  0  0  0  0
    0.7225    0.2860   -2.1828 C   0  0  0  0  0  0  0  0  0  0  0  0
    0.7225    0.2860   -0.6605 C   0  0  0  0  0  3  0  0  0  0  0  0
    2.0775   -0.7304    0.0232 S   0  0  0  0  0  0  0  0  0  0  0  0
    0.7225    1.6960   -0.0864 C   0  0  0  0  0  0  0  0  0  0  0  0
    0.6939   -0.7283   -2.5794 H   0  0  0  0  0  0  0  0  0  0  0  0
    1.6209    0.7757   -2.5664 H   0  0  0  0  0  0  0  0  0  0  0  0
   -0.1445    0.8334   -2.5616 H   0  0  0  0  0  0  0  0  0  0  0  0
   -0.3454   -0.3459   -0.2355 H   0  0  0  0  0  0  0  0  0  0  0  0
    3.0838    0.0051   -0.4715 H   0  0  0  0  0  0  0  0  0  0  0  0
   -0.1445    2.2532   -0.4506 H   0  0  0  0  0  0  0  0  0  0  0  0
    1.6209    2.2359   -0.3953 H   0  0  0  0  0  0  0  0  0  0  0  0
    0.6939    1.6809    1.0025 H   0  0  0  0  0  0  0  0  0  0  0  0
  1  2  1  0
  1  3  1  0
  1  4  1  0
  1 13  1  0
  2  5  1  0
  6  7  1  0
  6 10  1  0
  6 11  1  0
  6 12  1  0
  7  9  1  0
  7  8  1  0
  8 14  1  0
  9 15  1  0
  9 16  1  0
  9 17  1  0
M  RAD  1   7   2
M  END
>  <reaction>  (11) 
rxn_1930

>  <mol_properties>  (11) 
{"0": {"label": "*3", "atom_type": "Cs"}, "1": {"label": "*4", "atom_type": "S2s"}, "6": {"label": "*1", "atom_type": "Cs"}, "7": {"label": "*0", "atom_type": "S2s"}, "12": {"label": "*2", "atom_type": "H0"}}

>  <type>  (11) 
unop_7

>  <geom_source>  (11) 
Heuristics

$$$$

     RDKit          3D

 17 15  0  0  0  0  0  0  0  0999 V2000
   -1.7559   -0.2170    0.4084 C   0  0  0  0  0  0  0  0  0  0  0  0
   -1.4344   -1.9860    0.6222 S   0  0  0  0  0  0  0  0  0  0  0  0
   -1.3326    0.2785    1.2807 H   0  0  0  0  0  0  0  0  0  0  0  0
   -2.8233   -0.0094    0.3736 H   0  0  0  0  0  0  0  0  0  0  0  0
   -2.0120   -2.3985   -0.5128 H   0  0  0  0  0  0  0  0  0  0  0  0
    0.3750    1.0439   -1.9619 C   0  0  0  0  0  0  0  0  0  0  0  0
    0.3750    1.0439   -0.4396 C   0  0  0  0  0  3  0  0  0  0  0  0
    1.7301    0.0274    0.2440 S   0  0  0  0  0  0  0  0  0  0  0  0
    0.3750    2.4538    0.1344 C   0  0  0  0  0  0  0  0  0  0  0  0
    0.3465    0.0296   -2.3586 H   0  0  0  0  0  0  0  0  0  0  0  0
    1.2735    1.5336   -2.3455 H   0  0  0  0  0  0  0  0  0  0  0  0
   -0.4919    1.5913   -2.3407 H   0  0  0  0  0  0  0  0  0  0  0  0
   -0.6928    0.4120   -0.0146 H   0  0  0  0  0  0  0  0  0  0  0  0
    2.7363    0.7629   -0.2507 H   0  0  0  0  0  0  0  0  0  0  0  0
   -0.4919    3.0111   -0.2297 H   0  0  0  0  0  0  0  0  0  0  0  0
    1.2735    2.9938   -0.1745 H   0  0  0  0  0  0  0  0  0  0  0  0
    0.3465    2.4387    1.2234 H   0  0  0  0  0  0  0  0  0  0  0  0
  1  2  1  0
  1  3  1  0
  1  4  1  0
  1 13  1  0
  2  5  1  0
  6  7  1  0
  6 10  1  0
  6 11  1  0
  6 12  1  0
  7  9  1  0
  7  8  1  0
  8 14  1  0
  9 15  1  0
  9 16  1  0
  9 17  1  0
M  RAD  1   7   2
M  END
>  <reaction>  (12) 
rxn_1930

>  <mol_properties>  (12) 
{"0": {"label": "*3", "atom_type": "Cs"}, "1": {"label": "*4", "atom_type": "S2s"}, "6": {"label": "*1", "atom_type": "Cs"}, "7": {"label": "*0", "atom_type": "S2s"}, "12": {"label": "*2", "atom_type": "H0"}}

>  <type>  (12) 
unop_8

>  <geom_source>  (12) 
Heuristics

$$$$

     RDKit          3D

 17 15  0  0  0  0  0  0  0  0999 V2000
   -1.3116   -0.7408    0.7686 C   0  0  0  0  0  0  0  0  0  0  0  0
   -2.6853   -0.5741   -0.3990 S   0  0  0  0  0  0  0  0  0  0  0  0
   -1.2980   -1.7846    1.0780 H   0  0  0  0  0  0  0  0  0  0  0  0
   -1.4613   -0.1185    1.6484 H   0  0  0  0  0  0  0  0  0  0  0  0
   -2.5338    0.7323   -0.6488 H   0  0  0  0  0  0  0  0  0  0  0  0
    0.8193    0.5201   -1.6018 C   0  0  0  0  0  0  0  0  0  0  0  0
    0.8193    0.5201   -0.0794 C   0  0  0  0  0  3  0  0  0  0  0  0
    2.1743   -0.4963    0.6042 S   0  0  0  0  0  0  0  0  0  0  0  0
    0.8193    1.9300    0.4946 C   0  0  0  0  0  0  0  0  0  0  0  0
    0.7907   -0.4942   -1.9984 H   0  0  0  0  0  0  0  0  0  0  0  0
    1.7177    1.0098   -1.9854 H   0  0  0  0  0  0  0  0  0  0  0  0
   -0.0476    1.0675   -1.9806 H   0  0  0  0  0  0  0  0  0  0  0  0
   -0.2486   -0.1118    0.3456 H   0  0  0  0  0  0  0  0  0  0  0  0
    3.1806    0.2391    0.1095 H   0  0  0  0  0  0  0  0  0  0  0  0
   -0.0476    2.4873    0.1305 H   0  0  0  0  0  0  0  0  0  0  0  0
    1.7177    2.4700    0.1857 H   0  0  0  0  0  0  0  0  0  0  0  0
    0.7907    1.9150    1.5836 H   0  0  0  0  0  0  0  0  0  0  0  0
  1  2  1  0
  1  3  1  0
  1  4  1  0
  1 13  1  0
  2  5  1  0
  6  7  1  0
  6 10  1  0
  6 11  1  0
  6 12  1  0
  7  9  1  0
  7  8  1  0
  8 14  1  0
  9 15  1  0
  9 16  1  0
  9 17  1  0
M  RAD  1   7   2
M  END
>  <reaction>  (13) 
rxn_1930

>  <mol_properties>  (13) 
{"0": {"label": "*3", "atom_type": "Cs"}, "1": {"label": "*4", "atom_type": "S2s"}, "6": {"label": "*1", "atom_type": "Cs"}, "7": {"label": "*0", "atom_type": "S2s"}, "12": {"label": "*2", "atom_type": "H0"}}

>  <type>  (13) 
unop_9

>  <geom_source>  (13) 
Heuristics

$$$$

     RDKit          3D

 17 15  0  0  0  0  0  0  0  0999 V2000
   -1.6625   -0.2342    0.6195 C   0  0  0  0  0  0  0  0  0  0  0  0
   -1.6912   -1.9479    0.0357 S   0  0  0  0  0  0  0  0  0  0  0  0
   -1.0841   -0.2348    1.5419 H   0  0  0  0  0  0  0  0  0  0  0  0
   -2.6653    0.1273    0.8373 H   0  0  0  0  0  0  0  0  0  0  0  0
   -2.4230   -1.7364   -1.0651 H   0  0  0  0  0  0  0  0  0  0  0  0
    0.4684    1.0267   -1.7509 C   0  0  0  0  0  0  0  0  0  0  0  0
    0.4684    1.0267   -0.2286 C   0  0  0  0  0  3  0  0  0  0  0  0
    1.8234    0.0103    0.4551 S   0  0  0  0  0  0  0  0  0  0  0  0
    0.4684    2.4367    0.3455 C   0  0  0  0  0  0  0  0  0  0  0  0
    0.4398    0.0125   -2.1476 H   0  0  0  0  0  0  0  0  0  0  0  0
    1.3668    1.5164   -2.1345 H   0  0  0  0  0  0  0  0  0  0  0  0
   -0.3986    1.5741   -2.1297 H   0  0  0  0  0  0  0  0  0  0  0  0
   -0.5995    0.3948    0.1964 H   0  0  0  0  0  0  0  0  0  0  0  0
    2.8296    0.7458   -0.0396 H   0  0  0  0  0  0  0  0  0  0  0  0
   -0.3986    2.9939   -0.0187 H   0  0  0  0  0  0  0  0  0  0  0  0
    1.3668    2.9766    0.0366 H   0  0  0  0  0  0  0  0  0  0  0  0
    0.4398    2.4216    1.4344 H   0  0  0  0  0  0  0  0  0  0  0  0
  1  2  1  0
  1  3  1  0
  1  4  1  0
  1 13  1  0
  2  5  1  0
  6  7  1  0
  6 10  1  0
  6 11  1  0
  6 12  1  0
  7  9  1  0
  7  8  1  0
  8 14  1  0
  9 15  1  0
  9 16  1  0
  9 17  1  0
M  RAD  1   7   2
M  END
>  <reaction>  (14) 
rxn_1930

>  <mol_properties>  (14) 
{"0": {"label": "*3", "atom_type": "Cs"}, "1": {"label": "*4", "atom_type": "S2s"}, "6": {"label": "*1", "atom_type": "Cs"}, "7": {"label": "*0", "atom_type": "S2s"}, "12": {"label": "*2", "atom_type": "H0"}}

>  <type>  (14) 
unop_10

>  <geom_source>  (14) 
Heuristics

$$$$

     RDKit          3D

 17 15  0  0  0  0  0  0  0  0999 V2000
   -1.5376   -0.8557    0.0350 C   0  0  0  0  0  0  0  0  0  0  0  0
   -2.0970   -0.2071    1.6303 S   0  0  0  0  0  0  0  0  0  0  0  0
   -2.4333   -1.1688   -0.4990 H   0  0  0  0  0  0  0  0  0  0  0  0
   -0.8888   -1.7195    0.1638 H   0  0  0  0  0  0  0  0  0  0  0  0
   -0.8897    0.1113    2.1130 H   0  0  0  0  0  0  0  0  0  0  0  0
    0.5933    0.4052   -2.3353 C   0  0  0  0  0  0  0  0  0  0  0  0
    0.5933    0.4052   -0.8130 C   0  0  0  0  0  3  0  0  0  0  0  0
    1.9483   -0.6112   -0.1294 S   0  0  0  0  0  0  0  0  0  0  0  0
    0.5933    1.8152   -0.2390 C   0  0  0  0  0  0  0  0  0  0  0  0
    0.5647   -0.6091   -2.7320 H   0  0  0  0  0  0  0  0  0  0  0  0
    1.4917    0.8949   -2.7189 H   0  0  0  0  0  0  0  0  0  0  0  0
   -0.2737    0.9526   -2.7141 H   0  0  0  0  0  0  0  0  0  0  0  0
   -0.4746   -0.2267   -0.3880 H   0  0  0  0  0  0  0  0  0  0  0  0
    2.9546    0.1243   -0.6240 H   0  0  0  0  0  0  0  0  0  0  0  0
   -0.2737    2.3724   -0.6031 H   0  0  0  0  0  0  0  0  0  0  0  0
    1.4917    2.3551   -0.5479 H   0  0  0  0  0  0  0  0  0  0  0  0
    0.5647    1.8001    0.8500 H   0  0  0  0  0  0  0  0  0  0  0  0
  1  2  1  0
  1  3  1  0
  1  4  1  0
  1 13  1  0
  2  5  1  0
  6  7  1  0
  6 10  1  0
  6 11  1  0
  6 12  1  0
  7  9  1  0
  7  8  1  0
  8 14  1  0
  9 15  1  0
  9 16  1  0
  9 17  1  0
M  RAD  1   7   2
M  END
>  <reaction>  (15) 
rxn_1930

>  <mol_properties>  (15) 
{"0": {"label": "*3", "atom_type": "Cs"}, "1": {"label": "*4", "atom_type": "S2s"}, "6": {"label": "*1", "atom_type": "Cs"}, "7": {"label": "*0", "atom_type": "S2s"}, "12": {"label": "*2", "atom_type": "H0"}}

>  <type>  (15) 
unop_11

>  <geom_source>  (15) 
Heuristics

$$$$

     RDKit          3D

 17 15  0  0  0  0  0  0  0  0999 V2000
   -1.4052   -0.5369    0.8280 C   0  0  0  0  0  0  0  0  0  0  0  0
   -2.4127   -1.1330   -0.5534 S   0  0  0  0  0  0  0  0  0  0  0  0
   -1.0906   -1.4205    1.3809 H   0  0  0  0  0  0  0  0  0  0  0  0
   -1.9823    0.1028    1.4925 H   0  0  0  0  0  0  0  0  0  0  0  0
   -2.6888    0.0635   -1.0864 H   0  0  0  0  0  0  0  0  0  0  0  0
    0.7257    0.7240   -1.5424 C   0  0  0  0  0  0  0  0  0  0  0  0
    0.7257    0.7240   -0.0200 C   0  0  0  0  0  3  0  0  0  0  0  0
    2.0807   -0.2924    0.6636 S   0  0  0  0  0  0  0  0  0  0  0  0
    0.7257    2.1340    0.5540 C   0  0  0  0  0  0  0  0  0  0  0  0
    0.6971   -0.2902   -1.9390 H   0  0  0  0  0  0  0  0  0  0  0  0
    1.6241    1.2137   -1.9260 H   0  0  0  0  0  0  0  0  0  0  0  0
   -0.1413    1.2714   -1.9212 H   0  0  0  0  0  0  0  0  0  0  0  0
   -0.3422    0.0921    0.4049 H   0  0  0  0  0  0  0  0  0  0  0  0
    3.0869    0.4431    0.1689 H   0  0  0  0  0  0  0  0  0  0  0  0
   -0.1413    2.6912    0.1898 H   0  0  0  0  0  0  0  0  0  0  0  0
    1.6241    2.6739    0.2451 H   0  0  0  0  0  0  0  0  0  0  0  0
    0.6971    2.1189    1.6430 H   0  0  0  0  0  0  0  0  0  0  0  0
  1  2  1  0
  1  3  1  0
  1  4  1  0
  1 13  1  0
  2  5  1  0
  6  7  1  0
  6 10  1  0
  6 11  1  0
  6 12  1  0
  7  9  1  0
  7  8  1  0
  8 14  1  0
  9 15  1  0
  9 16  1  0
  9 17  1  0
M  RAD  1   7   2
M  END
>  <reaction>  (16) 
rxn_1930

>  <mol_properties>  (16) 
{"0": {"label": "*3", "atom_type": "Cs"}, "1": {"label": "*4", "atom_type": "S2s"}, "6": {"label": "*1", "atom_type": "Cs"}, "7": {"label": "*0", "atom_type": "S2s"}, "12": {"label": "*2", "atom_type": "H0"}}

>  <type>  (16) 
unop_12

>  <geom_source>  (16) 
Heuristics

$$$$

     RDKit          3D

 17 15  0  0  0  0  0  0  0  0999 V2000
    3.1635   -0.6124    0.4813 S   0  0  0  0  0  0  0  0  0  0  0  0
   -1.1667    1.4728    1.4807 S   0  0  0  0  0  0  0  0  0  0  0  0
   -1.0300    0.4610   -1.0794 C   0  0  0  0  0  0  0  0  0  0  0  0
   -1.3342   -1.1878    0.8052 C   0  0  0  0  0  0  0  0  0  0  0  0
    1.8359    0.3909   -0.2422 C   0  0  0  0  0  0  0  0  0  0  0  0
   -0.6773    0.1173    0.3657 C   0  0  0  0  0  3  0  0  0  0  0  0
   -0.5058    1.3911   -1.3832 H   0  0  0  0  0  0  0  0  0  0  0  0
   -2.1256    0.6093   -1.1896 H   0  0  0  0  0  0  0  0  0  0  0  0
   -0.7030   -0.3576   -1.7546 H   0  0  0  0  0  0  0  0  0  0  0  0
   -1.0019   -2.0196    0.1490 H   0  0  0  0  0  0  0  0  0  0  0  0
   -2.4411   -1.1043    0.7572 H   0  0  0  0  0  0  0  0  0  0  0  0
   -1.0332   -1.4252    1.8471 H   0  0  0  0  0  0  0  0  0  0  0  0
    1.8896    0.3372   -1.3492 H   0  0  0  0  0  0  0  0  0  0  0  0
    1.9531    1.4456    0.0811 H   0  0  0  0  0  0  0  0  0  0  0  0
    0.6751   -0.0611    0.1617 H   0  0  0  0  0  0  0  0  0  0  0  0
    2.6760   -1.7933   -0.1099 H   0  0  0  0  0  0  0  0  0  0  0  0
   -0.1745    2.3362    0.9792 H   0  0  0  0  0  0  0  0  0  0  0  0
  1  5  1  0
  1 16  1  0
  2  6  1  0
  2 17  1  0
  3  6  1  0
  3  7  1  0
  3  8  1  0
  3  9  1  0
  4  6  1  0
  4 10  1  0
  4 11  1  0
  4 12  1  0
  5 13  1  0
  5 14  1  0
  5 15  1  0
M  RAD  1   6   2
M  END
>  <reaction>  (17) 
rxn_1930

>  <mol_properties>  (17) 
{"0": {"label": "*3", "atom_type": "Cs"}, "1": {"label": "*4", "atom_type": "S2s"}, "6": {"label": "*1", "atom_type": "Cs"}, "7": {"label": "*0", "atom_type": "S2s"}, "12": {"label": "*2", "atom_type": "H0"}}

>  <type>  (17) 
unop_13

>  <geom_source>  (17) 
AutoTST

$$$$
