
     RDKit          3D

 10  9  0  0  0  0  0  0  0  0999 V2000
    1.2734    0.0490    0.2233 C   0  0  0  0  0  0  0  0  0  0  0  0
    0.0091   -0.5167   -0.3796 C   0  0  0  0  0  0  0  0  0  0  0  0
   -1.2750    0.2005   -0.0353 C   0  0  0  0  0  0  0  0  0  0  0  0
    0.0241   -1.4856   -1.0949 O   0  0  0  0  0  0  0  0  0  0  0  0
    1.2000    0.0499    1.3134 H   0  0  0  0  0  0  0  0  0  0  0  0
    1.4040    1.0879   -0.0883 H   0  0  0  0  0  0  0  0  0  0  0  0
    2.1329   -0.5399   -0.0877 H   0  0  0  0  0  0  0  0  0  0  0  0
   -1.2178    1.2439   -0.3544 H   0  0  0  0  0  0  0  0  0  0  0  0
   -2.1179   -0.2871   -0.5191 H   0  0  0  0  0  0  0  0  0  0  0  0
   -1.4218    0.2058    1.0473 H   0  0  0  0  0  0  0  0  0  0  0  0
  1  2  1  0
  1  5  1  0
  1  6  1  0
  1  7  1  0
  2  3  1  0
  2  4  2  0
  3  8  1  0
  3  9  1  0
  3 10  1  0
M  END
>  <reaction>  (1) 
rxn_42

>  <mol_properties>  (1) 
{"0": {"label": "donator", "atom_type": "Cs"}, "4": {"label": "d_hydrogen", "atom_type": "H0"}}

>  <type>  (1) 
r1h

$$$$

     RDKit          3D

  2  1  0  0  0  0  0  0  0  0999 V2000
    0.0000    0.0000    0.4855 O   0  0  0  0  0  1  0  0  0  0  0  0
    0.0000    0.0000   -0.4855 H   0  0  0  0  0  0  0  0  0  0  0  0
  1  2  1  0
M  RAD  1   1   2
M  END
>  <reaction>  (2) 
rxn_42

>  <mol_properties>  (2) 
{"0": {"label": "acceptor", "atom_type": "O2s"}}

>  <type>  (2) 
r2

$$$$

     RDKit          3D

  3  2  0  0  0  0  0  0  0  0999 V2000
   -0.0003    0.3867    0.0000 O   0  0  0  0  0  0  0  0  0  0  0  0
   -0.7617   -0.1940    0.0000 H   0  0  0  0  0  0  0  0  0  0  0  0
    0.7620   -0.1927    0.0000 H   0  0  0  0  0  0  0  0  0  0  0  0
  1  2  1  0
  1  3  1  0
M  END
>  <reaction>  (3) 
rxn_42

>  <mol_properties>  (3) 
{"0": {"label": "a_hydrogen", "atom_type": "H0"}, "1": {"label": "acceptor", "atom_type": "O2s"}}

>  <type>  (3) 
r2h

$$$$

     RDKit          3D

 12 10  0  0  0  0  0  0  0  0999 V2000
    0.4714    0.7484    0.6132 C   0  0  0  0  0  0  0  0  0  0  0  0
    0.3162   -0.5882   -0.0503 C   0  0  0  0  0  0  0  0  0  0  0  0
    0.6651   -0.6565   -1.5135 C   0  0  0  0  0  0  0  0  0  0  0  0
   -0.1027   -1.5380    0.5647 O   0  0  0  0  0  0  0  0  0  0  0  0
   -0.4889    1.3675    0.2819 H   0  0  0  0  0  0  0  0  0  0  0  0
    1.2964    1.3526    0.2376 H   0  0  0  0  0  0  0  0  0  0  0  0
    0.4462    0.6833    1.6974 H   0  0  0  0  0  0  0  0  0  0  0  0
    1.7312   -0.4593   -1.6494 H   0  0  0  0  0  0  0  0  0  0  0  0
    0.4197   -1.6371   -1.9136 H   0  0  0  0  0  0  0  0  0  0  0  0
    0.1208    0.1199   -2.0561 H   0  0  0  0  0  0  0  0  0  0  0  0
   -1.7392    1.8174   -0.0633 O   0  0  0  0  0  1  0  0  0  0  0  0
   -2.2608    1.1619    0.4238 H   0  0  0  0  0  0  0  0  0  0  0  0
  1  2  1  0
  1  5  1  0
  1  6  1  0
  1  7  1  0
  2  3  1  0
  2  4  2  0
  3  8  1  0
  3  9  1  0
  3 10  1  0
 11 12  1  0
M  RAD  1  11   2
M  END
>  <reaction>  (4) 
rxn_42

>  <mol_properties>  (4) 
{"0": {"label": "*1", "atom_type": "Cs"}, "1": {"label": "*0", "atom_type": "CO"}, "4": {"label": "*2", "atom_type": "H0"}, "10": {"label": "*3", "atom_type": "O2s"}, "11": {"label": "*4", "atom_type": "H0"}}

>  <type>  (4) 
ts

$$$$

     RDKit          3D

 12 10  0  0  0  0  0  0  0  0999 V2000
    0.4568    0.6849    0.7079 C   0  0  0  0  0  0  0  0  0  0  0  0
    0.4568   -0.6696    0.0392 C   0  0  0  0  0  0  0  0  0  0  0  0
    0.4568   -0.6696   -1.4713 C   0  0  0  0  0  0  0  0  0  0  0  0
    0.4568   -1.6925    0.6750 O   0  0  0  0  0  1  0  0  0  0  0  0
   -0.5968    1.3699    0.3344 H   0  0  0  0  0  0  0  0  0  0  0  0
    1.3349    1.2557    0.3967 H   0  0  0  0  0  0  0  0  0  0  0  0
    0.4568    0.5691    1.7891 H   0  0  0  0  0  0  0  0  0  0  0  0
    1.3348   -0.1378   -1.8454 H   0  0  0  0  0  0  0  0  0  0  0  0
    0.4568   -1.6903   -1.8461 H   0  0  0  0  0  0  0  0  0  0  0  0
   -0.4212   -0.1378   -1.8454 H   0  0  0  0  0  0  0  0  0  0  0  0
   -1.5203    1.9702    0.0071 O   0  0  0  0  0  0  0  0  0  0  0  0
   -2.0040    2.1533    0.8130 H   0  0  0  0  0  0  0  0  0  0  0  0
  1  2  2  3
  1  6  1  0
  1  7  1  0
  2  3  1  0
  2  4  1  0
  3  8  1  0
  3  9  1  0
  3 10  1  0
  5 11  1  0
 11 12  1  0
M  RAD  1   4   2
M  END
>  <reaction>  (5) 
rxn_42

>  <mol_properties>  (5) 
{"0": {"label": "*1", "atom_type": "Cs"}, "1": {"label": "*0", "atom_type": "CO"}, "4": {"label": "*2", "atom_type": "H0"}, "10": {"label": "*3", "atom_type": "O2s"}, "11": {"label": "*4", "atom_type": "H0"}}

>  <type>  (5) 
unop_1

>  <geom_source>  (5) 
Heuristics

$$$$

     RDKit          3D

 12 10  0  0  0  0  0  0  0  0999 V2000
    0.4594    0.6961    0.7212 C   0  0  0  0  0  0  0  0  0  0  0  0
    0.4594   -0.6583    0.0525 C   0  0  0  0  0  0  0  0  0  0  0  0
    0.4594   -0.6583   -1.4581 C   0  0  0  0  0  0  0  0  0  0  0  0
    0.4594   -1.6813    0.6883 O   0  0  0  0  0  1  0  0  0  0  0  0
   -0.5942    1.3811    0.3477 H   0  0  0  0  0  0  0  0  0  0  0  0
    1.3375    1.2669    0.4099 H   0  0  0  0  0  0  0  0  0  0  0  0
    0.4594    0.5803    1.8023 H   0  0  0  0  0  0  0  0  0  0  0  0
    1.3374   -0.1266   -1.8321 H   0  0  0  0  0  0  0  0  0  0  0  0
    0.4594   -1.6790   -1.8329 H   0  0  0  0  0  0  0  0  0  0  0  0
   -0.4186   -0.1266   -1.8321 H   0  0  0  0  0  0  0  0  0  0  0  0
   -1.5177    1.9815    0.0203 O   0  0  0  0  0  0  0  0  0  0  0  0
   -2.1956    1.3291   -0.1579 H   0  0  0  0  0  0  0  0  0  0  0  0
  1  2  2  3
  1  6  1  0
  1  7  1  0
  2  3  1  0
  2  4  1  0
  3  8  1  0
  3  9  1  0
  3 10  1  0
  5 11  1  0
 11 12  1  0
M  RAD  1   4   2
M  END
>  <reaction>  (6) 
rxn_42

>  <mol_properties>  (6) 
{"0": {"label": "*1", "atom_type": "Cs"}, "1": {"label": "*0", "atom_type": "CO"}, "4": {"label": "*2", "atom_type": "H0"}, "10": {"label": "*3", "atom_type": "O2s"}, "11": {"label": "*4", "atom_type": "H0"}}

>  <type>  (6) 
unop_2

>  <geom_source>  (6) 
Heuristics

$$$$

     RDKit          3D

 12 10  0  0  0  0  0  0  0  0999 V2000
    0.4531    0.6797    0.7088 C   0  0  0  0  0  0  0  0  0  0  0  0
    0.4531   -0.6747    0.0401 C   0  0  0  0  0  0  0  0  0  0  0  0
    0.4531   -0.6747   -1.4705 C   0  0  0  0  0  0  0  0  0  0  0  0
    0.4531   -1.6977    0.6759 O   0  0  0  0  0  1  0  0  0  0  0  0
   -0.6005    1.3647    0.3353 H   0  0  0  0  0  0  0  0  0  0  0  0
    1.3312    1.2505    0.3976 H   0  0  0  0  0  0  0  0  0  0  0  0
    0.4531    0.5639    1.7900 H   0  0  0  0  0  0  0  0  0  0  0  0
    1.3311   -0.1430   -1.8445 H   0  0  0  0  0  0  0  0  0  0  0  0
    0.4531   -1.6955   -1.8452 H   0  0  0  0  0  0  0  0  0  0  0  0
   -0.4249   -0.1430   -1.8445 H   0  0  0  0  0  0  0  0  0  0  0  0
   -1.5240    1.9651    0.0080 O   0  0  0  0  0  0  0  0  0  0  0  0
   -1.7337    2.5341    0.7490 H   0  0  0  0  0  0  0  0  0  0  0  0
  1  2  2  3
  1  6  1  0
  1  7  1  0
  2  3  1  0
  2  4  1  0
  3  8  1  0
  3  9  1  0
  3 10  1  0
  5 11  1  0
 11 12  1  0
M  RAD  1   4   2
M  END
>  <reaction>  (7) 
rxn_42

>  <mol_properties>  (7) 
{"0": {"label": "*1", "atom_type": "Cs"}, "1": {"label": "*0", "atom_type": "CO"}, "4": {"label": "*2", "atom_type": "H0"}, "10": {"label": "*3", "atom_type": "O2s"}, "11": {"label": "*4", "atom_type": "H0"}}

>  <type>  (7) 
unop_3

>  <geom_source>  (7) 
Heuristics

$$$$

     RDKit          3D

 12 10  0  0  0  0  0  0  0  0999 V2000
    0.4493    0.6863    0.7315 C   0  0  0  0  0  0  0  0  0  0  0  0
    0.4493   -0.6682    0.0628 C   0  0  0  0  0  0  0  0  0  0  0  0
    0.4493   -0.6682   -1.4477 C   0  0  0  0  0  0  0  0  0  0  0  0
    0.4493   -1.6912    0.6986 O   0  0  0  0  0  1  0  0  0  0  0  0
   -0.6043    1.3712    0.3580 H   0  0  0  0  0  0  0  0  0  0  0  0
    1.3274    1.2570    0.4203 H   0  0  0  0  0  0  0  0  0  0  0  0
    0.4493    0.5704    1.8127 H   0  0  0  0  0  0  0  0  0  0  0  0
    1.3273   -0.1364   -1.8218 H   0  0  0  0  0  0  0  0  0  0  0  0
    0.4493   -1.6889   -1.8225 H   0  0  0  0  0  0  0  0  0  0  0  0
   -0.4287   -0.1365   -1.8218 H   0  0  0  0  0  0  0  0  0  0  0  0
   -1.5278    1.9716    0.0307 O   0  0  0  0  0  0  0  0  0  0  0  0
   -1.4536    2.0548   -0.9204 H   0  0  0  0  0  0  0  0  0  0  0  0
  1  2  2  3
  1  6  1  0
  1  7  1  0
  2  3  1  0
  2  4  1  0
  3  8  1  0
  3  9  1  0
  3 10  1  0
  5 11  1  0
 11 12  1  0
M  RAD  1   4   2
M  END
>  <reaction>  (8) 
rxn_42

>  <mol_properties>  (8) 
{"0": {"label": "*1", "atom_type": "Cs"}, "1": {"label": "*0", "atom_type": "CO"}, "4": {"label": "*2", "atom_type": "H0"}, "10": {"label": "*3", "atom_type": "O2s"}, "11": {"label": "*4", "atom_type": "H0"}}

>  <type>  (8) 
unop_4

>  <geom_source>  (8) 
Heuristics

$$$$

     RDKit          3D

 12 10  0  0  0  0  0  0  0  0999 V2000
    0.4494    0.6761    0.7126 C   0  0  0  0  0  0  0  0  0  0  0  0
    0.4494   -0.6784    0.0439 C   0  0  0  0  0  0  0  0  0  0  0  0
    0.4494   -0.6784   -1.4667 C   0  0  0  0  0  0  0  0  0  0  0  0
    0.4494   -1.7013    0.6797 O   0  0  0  0  0  1  0  0  0  0  0  0
   -0.6042    1.3611    0.3391 H   0  0  0  0  0  0  0  0  0  0  0  0
    1.3275    1.2469    0.4014 H   0  0  0  0  0  0  0  0  0  0  0  0
    0.4494    0.5603    1.7938 H   0  0  0  0  0  0  0  0  0  0  0  0
    1.3274   -0.1466   -1.8407 H   0  0  0  0  0  0  0  0  0  0  0  0
    0.4494   -1.6991   -1.8414 H   0  0  0  0  0  0  0  0  0  0  0  0
   -0.4286   -0.1466   -1.8407 H   0  0  0  0  0  0  0  0  0  0  0  0
   -1.5277    1.9614    0.0118 O   0  0  0  0  0  0  0  0  0  0  0  0
   -1.4621    2.7997    0.4699 H   0  0  0  0  0  0  0  0  0  0  0  0
  1  2  2  3
  1  6  1  0
  1  7  1  0
  2  3  1  0
  2  4  1  0
  3  8  1  0
  3  9  1  0
  3 10  1  0
  5 11  1  0
 11 12  1  0
M  RAD  1   4   2
M  END
>  <reaction>  (9) 
rxn_42

>  <mol_properties>  (9) 
{"0": {"label": "*1", "atom_type": "Cs"}, "1": {"label": "*0", "atom_type": "CO"}, "4": {"label": "*2", "atom_type": "H0"}, "10": {"label": "*3", "atom_type": "O2s"}, "11": {"label": "*4", "atom_type": "H0"}}

>  <type>  (9) 
unop_5

>  <geom_source>  (9) 
Heuristics

$$$$

     RDKit          3D

 12 10  0  0  0  0  0  0  0  0999 V2000
    0.4466    0.6809    0.7293 C   0  0  0  0  0  0  0  0  0  0  0  0
    0.4466   -0.6736    0.0605 C   0  0  0  0  0  0  0  0  0  0  0  0
    0.4466   -0.6736   -1.4500 C   0  0  0  0  0  0  0  0  0  0  0  0
    0.4466   -1.6966    0.6964 O   0  0  0  0  0  1  0  0  0  0  0  0
   -0.6070    1.3659    0.3558 H   0  0  0  0  0  0  0  0  0  0  0  0
    1.3247    1.2517    0.4180 H   0  0  0  0  0  0  0  0  0  0  0  0
    0.4466    0.5651    1.8104 H   0  0  0  0  0  0  0  0  0  0  0  0
    1.3247   -0.1418   -1.8241 H   0  0  0  0  0  0  0  0  0  0  0  0
    0.4467   -1.6943   -1.8248 H   0  0  0  0  0  0  0  0  0  0  0  0
   -0.4314   -0.1418   -1.8241 H   0  0  0  0  0  0  0  0  0  0  0  0
   -1.5305    1.9662    0.0284 O   0  0  0  0  0  0  0  0  0  0  0  0
   -1.2570    2.4489   -0.7522 H   0  0  0  0  0  0  0  0  0  0  0  0
  1  2  2  3
  1  6  1  0
  1  7  1  0
  2  3  1  0
  2  4  1  0
  3  8  1  0
  3  9  1  0
  3 10  1  0
  5 11  1  0
 11 12  1  0
M  RAD  1   4   2
M  END
>  <reaction>  (10) 
rxn_42

>  <mol_properties>  (10) 
{"0": {"label": "*1", "atom_type": "Cs"}, "1": {"label": "*0", "atom_type": "CO"}, "4": {"label": "*2", "atom_type": "H0"}, "10": {"label": "*3", "atom_type": "O2s"}, "11": {"label": "*4", "atom_type": "H0"}}

>  <type>  (10) 
unop_6

>  <geom_source>  (10) 
Heuristics

$$$$

     RDKit          3D

 12 10  0  0  0  0  0  0  0  0999 V2000
    0.4457    0.6768    0.7244 C   0  0  0  0  0  0  0  0  0  0  0  0
    0.4457   -0.6777    0.0557 C   0  0  0  0  0  0  0  0  0  0  0  0
    0.4457   -0.6777   -1.4549 C   0  0  0  0  0  0  0  0  0  0  0  0
    0.4457   -1.7007    0.6915 O   0  0  0  0  0  1  0  0  0  0  0  0
   -0.6079    1.3618    0.3509 H   0  0  0  0  0  0  0  0  0  0  0  0
    1.3237    1.2476    0.4132 H   0  0  0  0  0  0  0  0  0  0  0  0
    0.4457    0.5610    1.8056 H   0  0  0  0  0  0  0  0  0  0  0  0
    1.3237   -0.1459   -1.8289 H   0  0  0  0  0  0  0  0  0  0  0  0
    0.4457   -1.6984   -1.8296 H   0  0  0  0  0  0  0  0  0  0  0  0
   -0.4324   -0.1460   -1.8289 H   0  0  0  0  0  0  0  0  0  0  0  0
   -1.5314    1.9621    0.0236 O   0  0  0  0  0  0  0  0  0  0  0  0
   -1.1869    2.7505   -0.3968 H   0  0  0  0  0  0  0  0  0  0  0  0
  1  2  2  3
  1  6  1  0
  1  7  1  0
  2  3  1  0
  2  4  1  0
  3  8  1  0
  3  9  1  0
  3 10  1  0
  5 11  1  0
 11 12  1  0
M  RAD  1   4   2
M  END
>  <reaction>  (11) 
rxn_42

>  <mol_properties>  (11) 
{"0": {"label": "*1", "atom_type": "Cs"}, "1": {"label": "*0", "atom_type": "CO"}, "4": {"label": "*2", "atom_type": "H0"}, "10": {"label": "*3", "atom_type": "O2s"}, "11": {"label": "*4", "atom_type": "H0"}}

>  <type>  (11) 
unop_7

>  <geom_source>  (11) 
Heuristics

$$$$

     RDKit          3D

 12 10  0  0  0  0  0  0  0  0999 V2000
    0.4595    0.6903    0.7102 C   0  0  0  0  0  0  0  0  0  0  0  0
    0.4595   -0.6642    0.0415 C   0  0  0  0  0  0  0  0  0  0  0  0
    0.4595   -0.6642   -1.4690 C   0  0  0  0  0  0  0  0  0  0  0  0
    0.4595   -1.6872    0.6773 O   0  0  0  0  0  1  0  0  0  0  0  0
   -0.5941    1.3752    0.3367 H   0  0  0  0  0  0  0  0  0  0  0  0
    1.3375    1.2611    0.3990 H   0  0  0  0  0  0  0  0  0  0  0  0
    0.4595    0.5745    1.7914 H   0  0  0  0  0  0  0  0  0  0  0  0
    1.3375   -0.1324   -1.8431 H   0  0  0  0  0  0  0  0  0  0  0  0
    0.4595   -1.6849   -1.8438 H   0  0  0  0  0  0  0  0  0  0  0  0
   -0.4186   -0.1325   -1.8431 H   0  0  0  0  0  0  0  0  0  0  0  0
   -1.5176    1.9756    0.0094 O   0  0  0  0  0  0  0  0  0  0  0  0
   -2.2006    1.7592    0.6447 H   0  0  0  0  0  0  0  0  0  0  0  0
  1  2  2  3
  1  6  1  0
  1  7  1  0
  2  3  1  0
  2  4  1  0
  3  8  1  0
  3  9  1  0
  3 10  1  0
  5 11  1  0
 11 12  1  0
M  RAD  1   4   2
M  END
>  <reaction>  (12) 
rxn_42

>  <mol_properties>  (12) 
{"0": {"label": "*1", "atom_type": "Cs"}, "1": {"label": "*0", "atom_type": "CO"}, "4": {"label": "*2", "atom_type": "H0"}, "10": {"label": "*3", "atom_type": "O2s"}, "11": {"label": "*4", "atom_type": "H0"}}

>  <type>  (12) 
unop_8

>  <geom_source>  (12) 
Heuristics

$$$$

     RDKit          3D

 12 10  0  0  0  0  0  0  0  0999 V2000
    0.4530    0.6915    0.7307 C   0  0  0  0  0  0  0  0  0  0  0  0
    0.4530   -0.6630    0.0620 C   0  0  0  0  0  0  0  0  0  0  0  0
    0.4530   -0.6630   -1.4486 C   0  0  0  0  0  0  0  0  0  0  0  0
    0.4530   -1.6860    0.6978 O   0  0  0  0  0  1  0  0  0  0  0  0
   -0.6006    1.3764    0.3572 H   0  0  0  0  0  0  0  0  0  0  0  0
    1.3310    1.2622    0.4195 H   0  0  0  0  0  0  0  0  0  0  0  0
    0.4530    0.5756    1.8118 H   0  0  0  0  0  0  0  0  0  0  0  0
    1.3310   -0.1313   -1.8226 H   0  0  0  0  0  0  0  0  0  0  0  0
    0.4530   -1.6837   -1.8233 H   0  0  0  0  0  0  0  0  0  0  0  0
   -0.4251   -0.1313   -1.8226 H   0  0  0  0  0  0  0  0  0  0  0  0
   -1.5241    1.9768    0.0298 O   0  0  0  0  0  0  0  0  0  0  0  0
   -1.7239    1.6739   -0.8564 H   0  0  0  0  0  0  0  0  0  0  0  0
  1  2  2  3
  1  6  1  0
  1  7  1  0
  2  3  1  0
  2  4  1  0
  3  8  1  0
  3  9  1  0
  3 10  1  0
  5 11  1  0
 11 12  1  0
M  RAD  1   4   2
M  END
>  <reaction>  (13) 
rxn_42

>  <mol_properties>  (13) 
{"0": {"label": "*1", "atom_type": "Cs"}, "1": {"label": "*0", "atom_type": "CO"}, "4": {"label": "*2", "atom_type": "H0"}, "10": {"label": "*3", "atom_type": "O2s"}, "11": {"label": "*4", "atom_type": "H0"}}

>  <type>  (13) 
unop_9

>  <geom_source>  (13) 
Heuristics

$$$$

     RDKit          3D

 12 10  0  0  0  0  0  0  0  0999 V2000
    0.4604    0.6944    0.7151 C   0  0  0  0  0  0  0  0  0  0  0  0
    0.4604   -0.6601    0.0464 C   0  0  0  0  0  0  0  0  0  0  0  0
    0.4604   -0.6601   -1.4642 C   0  0  0  0  0  0  0  0  0  0  0  0
    0.4604   -1.6831    0.6822 O   0  0  0  0  0  1  0  0  0  0  0  0
   -0.5932    1.3794    0.3416 H   0  0  0  0  0  0  0  0  0  0  0  0
    1.3385    1.2652    0.4039 H   0  0  0  0  0  0  0  0  0  0  0  0
    0.4604    0.5786    1.7962 H   0  0  0  0  0  0  0  0  0  0  0  0
    1.3385   -0.1283   -1.8382 H   0  0  0  0  0  0  0  0  0  0  0  0
    0.4605   -1.6808   -1.8389 H   0  0  0  0  0  0  0  0  0  0  0  0
   -0.4176   -0.1284   -1.8382 H   0  0  0  0  0  0  0  0  0  0  0  0
   -1.5167    1.9797    0.0142 O   0  0  0  0  0  0  0  0  0  0  0  0
   -2.2707    1.4575    0.2894 H   0  0  0  0  0  0  0  0  0  0  0  0
  1  2  2  3
  1  6  1  0
  1  7  1  0
  2  3  1  0
  2  4  1  0
  3  8  1  0
  3  9  1  0
  3 10  1  0
  5 11  1  0
 11 12  1  0
M  RAD  1   4   2
M  END
>  <reaction>  (14) 
rxn_42

>  <mol_properties>  (14) 
{"0": {"label": "*1", "atom_type": "Cs"}, "1": {"label": "*0", "atom_type": "CO"}, "4": {"label": "*2", "atom_type": "H0"}, "10": {"label": "*3", "atom_type": "O2s"}, "11": {"label": "*4", "atom_type": "H0"}}

>  <type>  (14) 
unop_10

>  <geom_source>  (14) 
Heuristics

$$$$

     RDKit          3D

 12 10  0  0  0  0  0  0  0  0999 V2000
    0.4467    0.6751    0.7183 C   0  0  0  0  0  0  0  0  0  0  0  0
    0.4467   -0.6794    0.0496 C   0  0  0  0  0  0  0  0  0  0  0  0
    0.4467   -0.6794   -1.4610 C   0  0  0  0  0  0  0  0  0  0  0  0
    0.4467   -1.7024    0.6854 O   0  0  0  0  0  1  0  0  0  0  0  0
   -0.6069    1.3600    0.3448 H   0  0  0  0  0  0  0  0  0  0  0  0
    1.3248    1.2458    0.4071 H   0  0  0  0  0  0  0  0  0  0  0  0
    0.4467    0.5592    1.7995 H   0  0  0  0  0  0  0  0  0  0  0  0
    1.3247   -0.1477   -1.8350 H   0  0  0  0  0  0  0  0  0  0  0  0
    0.4467   -1.7001   -1.8357 H   0  0  0  0  0  0  0  0  0  0  0  0
   -0.4313   -0.1477   -1.8350 H   0  0  0  0  0  0  0  0  0  0  0  0
   -1.5304    1.9604    0.0175 O   0  0  0  0  0  0  0  0  0  0  0  0
   -1.2620    2.8790    0.0505 H   0  0  0  0  0  0  0  0  0  0  0  0
  1  2  2  3
  1  6  1  0
  1  7  1  0
  2  3  1  0
  2  4  1  0
  3  8  1  0
  3  9  1  0
  3 10  1  0
  5 11  1  0
 11 12  1  0
M  RAD  1   4   2
M  END
>  <reaction>  (15) 
rxn_42

>  <mol_properties>  (15) 
{"0": {"label": "*1", "atom_type": "Cs"}, "1": {"label": "*0", "atom_type": "CO"}, "4": {"label": "*2", "atom_type": "H0"}, "10": {"label": "*3", "atom_type": "O2s"}, "11": {"label": "*4", "atom_type": "H0"}}

>  <type>  (15) 
unop_11

>  <geom_source>  (15) 
Heuristics

$$$$

     RDKit          3D

 12 10  0  0  0  0  0  0  0  0999 V2000
    0.4567    0.6951    0.7269 C   0  0  0  0  0  0  0  0  0  0  0  0
    0.4567   -0.6594    0.0582 C   0  0  0  0  0  0  0  0  0  0  0  0
    0.4567   -0.6594   -1.4524 C   0  0  0  0  0  0  0  0  0  0  0  0
    0.4567   -1.6824    0.6940 O   0  0  0  0  0  1  0  0  0  0  0  0
   -0.5969    1.3800    0.3534 H   0  0  0  0  0  0  0  0  0  0  0  0
    1.3347    1.2658    0.4157 H   0  0  0  0  0  0  0  0  0  0  0  0
    0.4567    0.5792    1.8080 H   0  0  0  0  0  0  0  0  0  0  0  0
    1.3347   -0.1276   -1.8264 H   0  0  0  0  0  0  0  0  0  0  0  0
    0.4567   -1.6801   -1.8271 H   0  0  0  0  0  0  0  0  0  0  0  0
   -0.4214   -0.1277   -1.8264 H   0  0  0  0  0  0  0  0  0  0  0  0
   -1.5204    1.9804    0.0260 O   0  0  0  0  0  0  0  0  0  0  0  0
   -1.9955    1.4083   -0.5773 H   0  0  0  0  0  0  0  0  0  0  0  0
  1  2  2  3
  1  6  1  0
  1  7  1  0
  2  3  1  0
  2  4  1  0
  3  8  1  0
  3  9  1  0
  3 10  1  0
  5 11  1  0
 11 12  1  0
M  RAD  1   4   2
M  END
>  <reaction>  (16) 
rxn_42

>  <mol_properties>  (16) 
{"0": {"label": "*1", "atom_type": "Cs"}, "1": {"label": "*0", "atom_type": "CO"}, "4": {"label": "*2", "atom_type": "H0"}, "10": {"label": "*3", "atom_type": "O2s"}, "11": {"label": "*4", "atom_type": "H0"}}

>  <type>  (16) 
unop_12

>  <geom_source>  (16) 
Heuristics

$$$$

     RDKit          3D

 12 10  0  0  0  0  0  0  0  0999 V2000
    2.1794   -0.8886   -0.4921 O   0  0  0  0  0  0  0  0  0  0  0  0
   -0.1227    0.4405   -1.6406 O   0  0  0  0  0  1  0  0  0  0  0  0
   -1.7592   -0.2667   -0.1061 C   0  0  0  0  0  0  0  0  0  0  0  0
   -0.4080    0.2767   -0.4650 C   0  0  0  0  0  0  0  0  0  0  0  0
    0.6047    0.6192    0.5850 C   0  0  0  0  0  0  0  0  0  0  0  0
   -1.8891   -1.2700   -0.5632 H   0  0  0  0  0  0  0  0  0  0  0  0
   -2.5470    0.4128   -0.4934 H   0  0  0  0  0  0  0  0  0  0  0  0
   -1.8803   -0.3590    0.9935 H   0  0  0  0  0  0  0  0  0  0  0  0
    0.8431    1.7024    0.5388 H   0  0  0  0  0  0  0  0  0  0  0  0
    0.2449    0.3661    1.6041 H   0  0  0  0  0  0  0  0  0  0  0  0
    3.1297   -0.6671   -0.3235 H   0  0  0  0  0  0  0  0  0  0  0  0
    1.6045   -0.3662    0.3626 H   0  0  0  0  0  0  0  0  0  0  0  0
  1 11  1  0
  1 12  1  0
  2  4  1  0
  3  4  1  0
  3  6  1  0
  3  7  1  0
  3  8  1  0
  4  5  2  3
  5  9  1  0
  5 10  1  0
M  RAD  1   2   2
M  END
>  <reaction>  (17) 
rxn_42

>  <mol_properties>  (17) 
{"0": {"label": "*1", "atom_type": "Cs"}, "1": {"label": "*0", "atom_type": "CO"}, "4": {"label": "*2", "atom_type": "H0"}, "10": {"label": "*3", "atom_type": "O2s"}, "11": {"label": "*4", "atom_type": "H0"}}

>  <type>  (17) 
unop_13

>  <geom_source>  (17) 
AutoTST

$$$$
