
     RDKit          3D

  5  4  0  0  0  0  0  0  0  0999 V2000
    0.0000    0.0000    0.0000 C   0  0  0  0  0  0  0  0  0  0  0  0
   -0.6486   -0.7720   -0.4113 H   0  0  0  0  0  0  0  0  0  0  0  0
   -0.3482    0.9787   -0.3267 H   0  0  0  0  0  0  0  0  0  0  0  0
   -0.0223   -0.0487    1.0876 H   0  0  0  0  0  0  0  0  0  0  0  0
    1.0191   -0.1580   -0.3496 H   0  0  0  0  0  0  0  0  0  0  0  0
  1  2  1  0
  1  3  1  0
  1  4  1  0
  1  5  1  0
M  END
>  <reaction>  (1) 
rxn_841

>  <mol_properties>  (1) 
{"0": {"label": "donator", "atom_type": "Cs"}, "1": {"label": "d_hydrogen", "atom_type": "H0"}}

>  <type>  (1) 
r1h

$$$$

     RDKit          3D

 20 20  0  0  0  0  0  0  0  0999 V2000
   -2.4774    0.8083    0.1488 C   0  0  0  0  0  0  0  0  0  0  0  0
   -1.4172   -0.1696   -0.2476 C   0  0  0  0  0  3  0  0  0  0  0  0
   -0.2904    0.2932   -1.1156 C   0  0  0  0  0  0  0  0  0  0  0  0
   -1.4797   -1.5204    0.1947 C   0  0  0  0  0  0  0  0  0  0  0  0
   -0.4907   -2.4664   -0.1650 C   0  0  0  0  0  0  0  0  0  0  0  0
   -0.5559   -3.7750    0.2665 C   0  0  0  0  0  0  0  0  0  0  0  0
   -1.6038   -4.2041    1.0733 C   0  0  0  0  0  0  0  0  0  0  0  0
   -2.5899   -3.2959    1.4424 C   0  0  0  0  0  0  0  0  0  0  0  0
   -2.5339   -1.9852    1.0162 C   0  0  0  0  0  0  0  0  0  0  0  0
   -3.4697    0.4933   -0.1924 H   0  0  0  0  0  0  0  0  0  0  0  0
   -2.5434    0.9184    1.2368 H   0  0  0  0  0  0  0  0  0  0  0  0
   -2.2829    1.7944   -0.2706 H   0  0  0  0  0  0  0  0  0  0  0  0
   -0.2452   -0.2661   -2.0565 H   0  0  0  0  0  0  0  0  0  0  0  0
   -0.3905    1.3487   -1.3647 H   0  0  0  0  0  0  0  0  0  0  0  0
    0.6811    0.1589   -0.6274 H   0  0  0  0  0  0  0  0  0  0  0  0
    0.3373   -2.1635   -0.7918 H   0  0  0  0  0  0  0  0  0  0  0  0
    0.2187   -4.4725   -0.0281 H   0  0  0  0  0  0  0  0  0  0  0  0
   -1.6513   -5.2316    1.4097 H   0  0  0  0  0  0  0  0  0  0  0  0
   -3.4116   -3.6175    2.0706 H   0  0  0  0  0  0  0  0  0  0  0  0
   -3.3164   -1.3029    1.3205 H   0  0  0  0  0  0  0  0  0  0  0  0
  1  2  1  0
  1 10  1  0
  1 11  1  0
  1 12  1  0
  2  3  1  0
  2  4  1  0
  3 13  1  0
  3 14  1  0
  3 15  1  0
  4  5  2  0
  4  9  1  0
  5  6  1  0
  5 16  1  0
  6  7  2  0
  6 17  1  0
  7  8  1  0
  7 18  1  0
  8  9  2  0
  8 19  1  0
  9 20  1  0
M  RAD  1   2   2
M  END
>  <reaction>  (2) 
rxn_841

>  <mol_properties>  (2) 
{"1": {"label": "acceptor", "atom_type": "Cs"}}

>  <type>  (2) 
r2

$$$$

     RDKit          3D

 21 21  0  0  0  0  0  0  0  0999 V2000
   -1.3695    1.3367   -1.0719 C   0  0  0  0  0  0  0  0  0  0  0  0
   -1.4091   -0.0981   -0.5428 C   0  0  0  0  0  0  0  0  0  0  0  0
   -0.1819   -0.3999    0.3191 C   0  0  0  0  0  0  0  0  0  0  0  0
   -1.5636   -1.1028   -1.6652 C   0  0  0  0  0  0  0  0  0  0  0  0
   -0.5920   -1.2314   -2.6553 C   0  0  0  0  0  0  0  0  0  0  0  0
   -0.7353   -2.1509   -3.6809 C   0  0  0  0  0  0  0  0  0  0  0  0
   -1.8582   -2.9642   -3.7377 C   0  0  0  0  0  0  0  0  0  0  0  0
   -2.8325   -2.8475   -2.7602 C   0  0  0  0  0  0  0  0  0  0  0  0
   -2.6828   -1.9241   -1.7351 C   0  0  0  0  0  0  0  0  0  0  0  0
   -0.4920    1.4974   -1.7025 H   0  0  0  0  0  0  0  0  0  0  0  0
   -2.2553    1.5607   -1.6679 H   0  0  0  0  0  0  0  0  0  0  0  0
   -1.3211    2.0496   -0.2461 H   0  0  0  0  0  0  0  0  0  0  0  0
   -2.2930   -0.1918    0.0948 H   0  0  0  0  0  0  0  0  0  0  0  0
   -0.1215    0.2955    1.1588 H   0  0  0  0  0  0  0  0  0  0  0  0
   -0.2200   -1.4155    0.7159 H   0  0  0  0  0  0  0  0  0  0  0  0
    0.7383   -0.3016   -0.2615 H   0  0  0  0  0  0  0  0  0  0  0  0
    0.2915   -0.6040   -2.6263 H   0  0  0  0  0  0  0  0  0  0  0  0
    0.0326   -2.2338   -4.4401 H   0  0  0  0  0  0  0  0  0  0  0  0
   -1.9712   -3.6833   -4.5391 H   0  0  0  0  0  0  0  0  0  0  0  0
   -3.7135   -3.4765   -2.7932 H   0  0  0  0  0  0  0  0  0  0  0  0
   -3.4509   -1.8400   -0.9743 H   0  0  0  0  0  0  0  0  0  0  0  0
  1  2  1  0
  1 10  1  0
  1 11  1  0
  1 12  1  0
  2  3  1  0
  2  4  1  0
  2 13  1  0
  3 14  1  0
  3 15  1  0
  3 16  1  0
  4  5  2  0
  4  9  1  0
  5  6  1  0
  5 17  1  0
  6  7  2  0
  6 18  1  0
  7  8  1  0
  7 19  1  0
  8  9  2  0
  8 20  1  0
  9 21  1  0
M  END
>  <reaction>  (3) 
rxn_841

>  <mol_properties>  (3) 
{"1": {"label": "acceptor", "atom_type": "Cs"}, "20": {"label": "a_hydrogen", "atom_type": "H0"}}

>  <type>  (3) 
r2h

$$$$

     RDKit          3D

 25 24  0  0  0  0  0  0  0  0999 V2000
   -2.3844   -1.0031   -0.4659 C   0  0  0  0  0  0  0  0  0  0  0  0
   -1.1177   -0.9744    0.3619 C   0  0  0  0  0  0  0  0  0  0  0  0
   -1.3946   -1.1366    1.8468 C   0  0  0  0  0  0  0  0  0  0  0  0
   -0.1417    0.1131    0.0378 C   0  0  0  0  0  0  0  0  0  0  0  0
    1.1423    0.0756    0.5881 C   0  0  0  0  0  0  0  0  0  0  0  0
    2.0772    1.0533    0.3009 C   0  0  0  0  0  0  0  0  0  0  0  0
    1.7519    2.1022   -0.5484 C   0  0  0  0  0  0  0  0  0  0  0  0
    0.4861    2.1528   -1.1069 C   0  0  0  0  0  0  0  0  0  0  0  0
   -0.4478    1.1669   -0.8207 C   0  0  0  0  0  0  0  0  0  0  0  0
   -2.1691   -0.9947   -1.5356 H   0  0  0  0  0  0  0  0  0  0  0  0
   -2.9534   -1.9078   -0.2445 H   0  0  0  0  0  0  0  0  0  0  0  0
   -3.0305   -0.1481   -0.2423 H   0  0  0  0  0  0  0  0  0  0  0  0
   -1.9645   -0.2826    2.2259 H   0  0  0  0  0  0  0  0  0  0  0  0
   -1.9791   -2.0406    2.0307 H   0  0  0  0  0  0  0  0  0  0  0  0
   -0.4756   -1.2051    2.4290 H   0  0  0  0  0  0  0  0  0  0  0  0
    1.4163   -0.7443    1.2419 H   0  0  0  0  0  0  0  0  0  0  0  0
    3.0665    0.9958    0.7379 H   0  0  0  0  0  0  0  0  0  0  0  0
    2.4812    2.8697   -0.7740 H   0  0  0  0  0  0  0  0  0  0  0  0
    0.2190    2.9646   -1.7723 H   0  0  0  0  0  0  0  0  0  0  0  0
   -1.4300    1.2304   -1.2704 H   0  0  0  0  0  0  0  0  0  0  0  0
    0.1466   -3.2818   -0.2937 C   0  0  0  0  0  3  0  0  0  0  0  0
   -0.5197   -2.0321    0.0482 H   0  0  0  0  0  0  0  0  0  0  0  0
    0.5463   -3.6300    0.6530 H   0  0  0  0  0  0  0  0  0  0  0  0
   -0.6477   -3.8961   -0.7044 H   0  0  0  0  0  0  0  0  0  0  0  0
    0.8923   -2.9573   -1.0115 H   0  0  0  0  0  0  0  0  0  0  0  0
  1  2  1  0
  1 10  1  0
  1 11  1  0
  1 12  1  0
  2  3  1  0
  2  4  1  0
  2 22  1  0
  3 13  1  0
  3 14  1  0
  3 15  1  0
  4  5  2  0
  4  9  1  0
  5  6  1  0
  5 16  1  0
  6  7  2  0
  6 17  1  0
  7  8  1  0
  7 18  1  0
  8  9  2  0
  8 19  1  0
  9 20  1  0
 21 23  1  0
 21 24  1  0
 21 25  1  0
M  RAD  1  21   2
M  END
>  <reaction>  (4) 
rxn_841

>  <mol_properties>  (4) 
{"1": {"label": "*1", "atom_type": "Cs"}, "3": {"label": "*0", "atom_type": "Cd"}, "20": {"label": "*3", "atom_type": "Cs"}, "21": {"label": "*2", "atom_type": "H0"}, "22": {"label": "*4", "atom_type": "H0"}}

>  <type>  (4) 
ts

$$$$

     RDKit          3D

 25 24  0  0  0  0  0  0  0  0999 V2000
   -1.8009   -0.9115    1.3803 C   0  0  0  0  0  0  0  0  0  0  0  0
   -0.5384   -1.1054    0.5386 C   0  0  0  0  0  3  0  0  0  0  0  0
    0.5475   -1.8304    1.3357 C   0  0  0  0  0  0  0  0  0  0  0  0
   -0.0352    0.2076   -0.0236 C   0  0  0  0  0  0  0  0  0  0  0  0
    0.3836    1.2371    0.8164 C   0  0  0  0  0  0  0  0  0  0  0  0
    0.8434    2.4372    0.3002 C   0  0  0  0  0  0  0  0  0  0  0  0
    0.8940    2.6331   -1.0727 C   0  0  0  0  0  0  0  0  0  0  0  0
    0.4808    1.6184   -1.9200 C   0  0  0  0  0  0  0  0  0  0  0  0
    0.0211    0.4183   -1.3963 C   0  0  0  0  0  0  0  0  0  0  0  0
   -2.5842   -0.4149    0.8058 H   0  0  0  0  0  0  0  0  0  0  0  0
   -2.1846   -1.8740    1.7249 H   0  0  0  0  0  0  0  0  0  0  0  0
   -1.5938   -0.3006    2.2619 H   0  0  0  0  0  0  0  0  0  0  0  0
    0.8390   -1.2525    2.2157 H   0  0  0  0  0  0  0  0  0  0  0  0
    0.1874   -2.8022    1.6798 H   0  0  0  0  0  0  0  0  0  0  0  0
    1.4403   -1.9898    0.7294 H   0  0  0  0  0  0  0  0  0  0  0  0
    0.3508    1.1011    1.8913 H   0  0  0  0  0  0  0  0  0  0  0  0
    1.1640    3.2239    0.9719 H   0  0  0  0  0  0  0  0  0  0  0  0
    1.2532    3.5708   -1.4772 H   0  0  0  0  0  0  0  0  0  0  0  0
    0.5154    1.7588   -2.9933 H   0  0  0  0  0  0  0  0  0  0  0  0
   -0.3002   -0.3704   -2.0676 H   0  0  0  0  0  0  0  0  0  0  0  0
   -0.5384   -3.5750   -0.3345 C   0  0  0  0  0  0  0  0  0  0  0  0
   -0.5384   -2.3430    0.1010 H   0  0  0  0  0  0  0  0  0  0  0  0
    0.3508   -4.0884    0.0285 H   0  0  0  0  0  0  0  0  0  0  0  0
   -1.4275   -4.0884    0.0285 H   0  0  0  0  0  0  0  0  0  0  0  0
   -0.5384   -3.5750   -1.4235 H   0  0  0  0  0  0  0  0  0  0  0  0
  1  2  1  0
  1 10  1  0
  1 11  1  0
  1 12  1  0
  2  3  1  0
  2  4  1  0
  3 13  1  0
  3 14  1  0
  3 15  1  0
  4  5  2  0
  4  9  1  0
  5  6  1  0
  5 16  1  0
  6  7  2  0
  6 17  1  0
  7  8  1  0
  7 18  1  0
  8  9  2  0
  8 19  1  0
  9 20  1  0
 21 22  1  0
 21 23  1  0
 21 24  1  0
 21 25  1  0
M  RAD  1   2   2
M  END
>  <reaction>  (5) 
rxn_841

>  <mol_properties>  (5) 
{"1": {"label": "*1", "atom_type": "Cs"}, "3": {"label": "*0", "atom_type": "Cd"}, "20": {"label": "*3", "atom_type": "Cs"}, "21": {"label": "*2", "atom_type": "H0"}, "22": {"label": "*4", "atom_type": "H0"}}

>  <type>  (5) 
unop_1

>  <geom_source>  (5) 
Heuristics

$$$$

     RDKit          3D

 25 24  0  0  0  0  0  0  0  0999 V2000
   -1.9526    0.3528   -1.4797 C   0  0  0  0  0  0  0  0  0  0  0  0
   -1.2237   -0.5050   -0.4439 C   0  0  0  0  0  3  0  0  0  0  0  0
   -2.1471   -0.8609    0.7226 C   0  0  0  0  0  0  0  0  0  0  0  0
    0.0496    0.1602    0.0351 C   0  0  0  0  0  0  0  0  0  0  0  0
    0.0161    1.3813    0.7050 C   0  0  0  0  0  0  0  0  0  0  0  0
    1.1817    1.9879    1.1422 C   0  0  0  0  0  0  0  0  0  0  0  0
    2.4103    1.3831    0.9174 C   0  0  0  0  0  0  0  0  0  0  0  0
    2.4591    0.1690    0.2527 C   0  0  0  0  0  0  0  0  0  0  0  0
    1.2873   -0.4336   -0.1828 C   0  0  0  0  0  0  0  0  0  0  0  0
   -1.3022    0.5883   -2.3233 H   0  0  0  0  0  0  0  0  0  0  0  0
   -2.8333   -0.1691   -1.8597 H   0  0  0  0  0  0  0  0  0  0  0  0
   -2.2875    1.2958   -1.0416 H   0  0  0  0  0  0  0  0  0  0  0  0
   -2.4889    0.0385    1.2400 H   0  0  0  0  0  0  0  0  0  0  0  0
   -3.0298   -1.3950    0.3649 H   0  0  0  0  0  0  0  0  0  0  0  0
   -1.6354   -1.4916    1.4510 H   0  0  0  0  0  0  0  0  0  0  0  0
   -0.9351    1.8676    0.8891 H   0  0  0  0  0  0  0  0  0  0  0  0
    1.1320    2.9373    1.6610 H   0  0  0  0  0  0  0  0  0  0  0  0
    3.3221    1.8565    1.2588 H   0  0  0  0  0  0  0  0  0  0  0  0
    3.4117   -0.3132    0.0711 H   0  0  0  0  0  0  0  0  0  0  0  0
    1.3356   -1.3841   -0.7024 H   0  0  0  0  0  0  0  0  0  0  0  0
   -1.2237   -2.9746   -1.3170 C   0  0  0  0  0  0  0  0  0  0  0  0
   -1.2237   -1.7426   -0.8814 H   0  0  0  0  0  0  0  0  0  0  0  0
   -0.3346   -3.4879   -0.9540 H   0  0  0  0  0  0  0  0  0  0  0  0
   -2.1128   -3.4879   -0.9540 H   0  0  0  0  0  0  0  0  0  0  0  0
   -1.2237   -2.9746   -2.4059 H   0  0  0  0  0  0  0  0  0  0  0  0
  1  2  1  0
  1 10  1  0
  1 11  1  0
  1 12  1  0
  2  3  1  0
  2  4  1  0
  3 13  1  0
  3 14  1  0
  3 15  1  0
  4  5  2  0
  4  9  1  0
  5  6  1  0
  5 16  1  0
  6  7  2  0
  6 17  1  0
  7  8  1  0
  7 18  1  0
  8  9  2  0
  8 19  1  0
  9 20  1  0
 21 22  1  0
 21 23  1  0
 21 24  1  0
 21 25  1  0
M  RAD  1   2   2
M  END
>  <reaction>  (6) 
rxn_841

>  <mol_properties>  (6) 
{"1": {"label": "*1", "atom_type": "Cs"}, "3": {"label": "*0", "atom_type": "Cd"}, "20": {"label": "*3", "atom_type": "Cs"}, "21": {"label": "*2", "atom_type": "H0"}, "22": {"label": "*4", "atom_type": "H0"}}

>  <type>  (6) 
unop_2

>  <geom_source>  (6) 
Heuristics

$$$$

     RDKit          3D

 25 24  0  0  0  0  0  0  0  0999 V2000
   -0.5085   -1.0617    2.1602 C   0  0  0  0  0  0  0  0  0  0  0  0
    0.2204   -1.0778    0.8154 C   0  0  0  0  0  3  0  0  0  0  0  0
    1.7213   -1.3030    1.0066 C   0  0  0  0  0  0  0  0  0  0  0  0
   -0.0581    0.1769    0.0146 C   0  0  0  0  0  0  0  0  0  0  0  0
    0.3218    1.4315    0.4866 C   0  0  0  0  0  0  0  0  0  0  0  0
    0.0661    2.5777   -0.2474 C   0  0  0  0  0  0  0  0  0  0  0  0
   -0.5776    2.4925   -1.4738 C   0  0  0  0  0  0  0  0  0  0  0  0
   -0.9611    1.2520   -1.9557 C   0  0  0  0  0  0  0  0  0  0  0  0
   -0.7020    0.1072   -1.2153 C   0  0  0  0  0  0  0  0  0  0  0  0
   -1.5822   -0.9240    2.0241 H   0  0  0  0  0  0  0  0  0  0  0  0
   -0.3472   -1.9994    2.6960 H   0  0  0  0  0  0  0  0  0  0  0  0
   -0.1444   -0.2494    2.7934 H   0  0  0  0  0  0  0  0  0  0  0  0
    2.1657   -0.4994    1.5983 H   0  0  0  0  0  0  0  0  0  0  0  0
    1.9051   -2.2432    1.5308 H   0  0  0  0  0  0  0  0  0  0  0  0
    2.2392   -1.3375    0.0471 H   0  0  0  0  0  0  0  0  0  0  0  0
    0.8256    1.5164    1.4426 H   0  0  0  0  0  0  0  0  0  0  0  0
    0.3704    3.5427    0.1389 H   0  0  0  0  0  0  0  0  0  0  0  0
   -0.7779    3.3880   -2.0483 H   0  0  0  0  0  0  0  0  0  0  0  0
   -1.4642    1.1720   -2.9114 H   0  0  0  0  0  0  0  0  0  0  0  0
   -1.0060   -0.8596   -1.6007 H   0  0  0  0  0  0  0  0  0  0  0  0
    0.2204   -3.5474   -0.0577 C   0  0  0  0  0  0  0  0  0  0  0  0
    0.2204   -2.3154    0.3779 H   0  0  0  0  0  0  0  0  0  0  0  0
    1.1095   -4.0607    0.3053 H   0  0  0  0  0  0  0  0  0  0  0  0
   -0.6687   -4.0607    0.3053 H   0  0  0  0  0  0  0  0  0  0  0  0
    0.2204   -3.5474   -1.1466 H   0  0  0  0  0  0  0  0  0  0  0  0
  1  2  1  0
  1 10  1  0
  1 11  1  0
  1 12  1  0
  2  3  1  0
  2  4  1  0
  3 13  1  0
  3 14  1  0
  3 15  1  0
  4  5  2  0
  4  9  1  0
  5  6  1  0
  5 16  1  0
  6  7  2  0
  6 17  1  0
  7  8  1  0
  7 18  1  0
  8  9  2  0
  8 19  1  0
  9 20  1  0
 21 22  1  0
 21 23  1  0
 21 24  1  0
 21 25  1  0
M  RAD  1   2   2
M  END
>  <reaction>  (7) 
rxn_841

>  <mol_properties>  (7) 
{"1": {"label": "*1", "atom_type": "Cs"}, "3": {"label": "*0", "atom_type": "Cd"}, "20": {"label": "*3", "atom_type": "Cs"}, "21": {"label": "*2", "atom_type": "H0"}, "22": {"label": "*4", "atom_type": "H0"}}

>  <type>  (7) 
unop_3

>  <geom_source>  (7) 
Heuristics

$$$$

     RDKit          3D

 25 24  0  0  0  0  0  0  0  0999 V2000
    0.9483    1.6073   -1.8181 C   0  0  0  0  0  0  0  0  0  0  0  0
   -0.3142    0.9275   -1.2854 C   0  0  0  0  0  3  0  0  0  0  0  0
   -1.4544    1.9345   -1.1245 C   0  0  0  0  0  0  0  0  0  0  0  0
   -0.0440    0.1798    0.0035 C   0  0  0  0  0  0  0  0  0  0  0  0
    0.3782    0.8499    1.1497 C   0  0  0  0  0  0  0  0  0  0  0  0
    0.6248    0.1642    2.3274 C   0  0  0  0  0  0  0  0  0  0  0  0
    0.4535   -1.2118    2.3832 C   0  0  0  0  0  0  0  0  0  0  0  0
    0.0343   -1.8913    1.2515 C   0  0  0  0  0  0  0  0  0  0  0  0
   -0.2111   -1.1982    0.0745 C   0  0  0  0  0  0  0  0  0  0  0  0
    1.7555    0.8863   -1.9550 H   0  0  0  0  0  0  0  0  0  0  0  0
    0.7499    2.0880   -2.7783 H   0  0  0  0  0  0  0  0  0  0  0  0
    1.3002    2.3767   -1.1269 H   0  0  0  0  0  0  0  0  0  0  0  0
   -1.1889    2.7156   -0.4084 H   0  0  0  0  0  0  0  0  0  0  0  0
   -1.6770    2.4185   -2.0777 H   0  0  0  0  0  0  0  0  0  0  0  0
   -2.3622    1.4470   -0.7663 H   0  0  0  0  0  0  0  0  0  0  0  0
    0.5171    1.9246    1.1238 H   0  0  0  0  0  0  0  0  0  0  0  0
    0.9523    0.7055    3.2064 H   0  0  0  0  0  0  0  0  0  0  0  0
    0.6461   -1.7487    3.3034 H   0  0  0  0  0  0  0  0  0  0  0  0
   -0.1031   -2.9651    1.2821 H   0  0  0  0  0  0  0  0  0  0  0  0
   -0.5390   -1.7389   -0.8064 H   0  0  0  0  0  0  0  0  0  0  0  0
   -0.3142   -1.5421   -2.1585 C   0  0  0  0  0  0  0  0  0  0  0  0
   -0.3142   -0.3101   -1.7229 H   0  0  0  0  0  0  0  0  0  0  0  0
    0.5749   -2.0554   -1.7955 H   0  0  0  0  0  0  0  0  0  0  0  0
   -1.2033   -2.0554   -1.7955 H   0  0  0  0  0  0  0  0  0  0  0  0
   -0.3142   -1.5421   -3.2474 H   0  0  0  0  0  0  0  0  0  0  0  0
  1  2  1  0
  1 10  1  0
  1 11  1  0
  1 12  1  0
  2  3  1  0
  2  4  1  0
  3 13  1  0
  3 14  1  0
  3 15  1  0
  4  5  2  0
  4  9  1  0
  5  6  1  0
  5 16  1  0
  6  7  2  0
  6 17  1  0
  7  8  1  0
  7 18  1  0
  8  9  2  0
  8 19  1  0
  9 20  1  0
 21 22  1  0
 21 23  1  0
 21 24  1  0
 21 25  1  0
M  RAD  1   2   2
M  END
>  <reaction>  (8) 
rxn_841

>  <mol_properties>  (8) 
{"1": {"label": "*1", "atom_type": "Cs"}, "3": {"label": "*0", "atom_type": "Cd"}, "20": {"label": "*3", "atom_type": "Cs"}, "21": {"label": "*2", "atom_type": "H0"}, "22": {"label": "*4", "atom_type": "H0"}}

>  <type>  (8) 
unop_4

>  <geom_source>  (8) 
Heuristics

$$$$

     RDKit          3D

 25 24  0  0  0  0  0  0  0  0999 V2000
    1.2452   -0.5630    2.1133 C   0  0  0  0  0  0  0  0  0  0  0  0
    1.2452   -0.5139    0.5844 C   0  0  0  0  0  3  0  0  0  0  0  0
    2.5106    0.1643    0.0564 C   0  0  0  0  0  0  0  0  0  0  0  0
   -0.0073    0.1461    0.0471 C   0  0  0  0  0  0  0  0  0  0  0  0
   -0.3010    1.4768    0.3370 C   0  0  0  0  0  0  0  0  0  0  0  0
   -1.4470    2.0785   -0.1554 C   0  0  0  0  0  0  0  0  0  0  0  0
   -2.3269    1.3586   -0.9512 C   0  0  0  0  0  0  0  0  0  0  0  0
   -2.0480    0.0347   -1.2477 C   0  0  0  0  0  0  0  0  0  0  0  0
   -0.8978   -0.5623   -0.7511 C   0  0  0  0  0  0  0  0  0  0  0  0
    0.3542   -1.0667    2.4907 H   0  0  0  0  0  0  0  0  0  0  0  0
    2.1240   -1.0971    2.4806 H   0  0  0  0  0  0  0  0  0  0  0  0
    1.2658    0.4436    2.5374 H   0  0  0  0  0  0  0  0  0  0  0  0
    2.5767    1.1970    0.4065 H   0  0  0  0  0  0  0  0  0  0  0  0
    3.4021   -0.3625    0.4030 H   0  0  0  0  0  0  0  0  0  0  0  0
    2.5228    0.1796   -1.0344 H   0  0  0  0  0  0  0  0  0  0  0  0
    0.3754    2.0539    0.9571 H   0  0  0  0  0  0  0  0  0  0  0  0
   -1.6554    3.1143    0.0827 H   0  0  0  0  0  0  0  0  0  0  0  0
   -3.2231    1.8281   -1.3365 H   0  0  0  0  0  0  0  0  0  0  0  0
   -2.7267   -0.5379   -1.8676 H   0  0  0  0  0  0  0  0  0  0  0  0
   -0.6880   -1.5993   -0.9887 H   0  0  0  0  0  0  0  0  0  0  0  0
    1.2452   -2.9835   -0.2888 C   0  0  0  0  0  0  0  0  0  0  0  0
    1.2452   -1.7515    0.1468 H   0  0  0  0  0  0  0  0  0  0  0  0
    2.1343   -3.4968    0.0742 H   0  0  0  0  0  0  0  0  0  0  0  0
    0.3561   -3.4968    0.0742 H   0  0  0  0  0  0  0  0  0  0  0  0
    1.2452   -2.9835   -1.3777 H   0  0  0  0  0  0  0  0  0  0  0  0
  1  2  1  0
  1 10  1  0
  1 11  1  0
  1 12  1  0
  2  3  1  0
  2  4  1  0
  3 13  1  0
  3 14  1  0
  3 15  1  0
  4  5  2  0
  4  9  1  0
  5  6  1  0
  5 16  1  0
  6  7  2  0
  6 17  1  0
  7  8  1  0
  7 18  1  0
  8  9  2  0
  8 19  1  0
  9 20  1  0
 21 22  1  0
 21 23  1  0
 21 24  1  0
 21 25  1  0
M  RAD  1   2   2
M  END
>  <reaction>  (9) 
rxn_841

>  <mol_properties>  (9) 
{"1": {"label": "*1", "atom_type": "Cs"}, "3": {"label": "*0", "atom_type": "Cd"}, "20": {"label": "*3", "atom_type": "Cs"}, "21": {"label": "*2", "atom_type": "H0"}, "22": {"label": "*4", "atom_type": "H0"}}

>  <type>  (9) 
unop_5

>  <geom_source>  (9) 
Heuristics

$$$$

     RDKit          3D

 25 24  0  0  0  0  0  0  0  0999 V2000
    1.8922    1.5061   -1.0220 C   0  0  0  0  0  0  0  0  0  0  0  0
    0.4344    1.0693   -1.1765 C   0  0  0  0  0  3  0  0  0  0  0  0
   -0.4850    2.2780   -1.3599 C   0  0  0  0  0  0  0  0  0  0  0  0
   -0.0126    0.1982   -0.0213 C   0  0  0  0  0  0  0  0  0  0  0  0
   -0.0386    0.6888    1.2824 C   0  0  0  0  0  0  0  0  0  0  0  0
   -0.4477   -0.1095    2.3375 C   0  0  0  0  0  0  0  0  0  0  0  0
   -0.8410   -1.4206    2.1095 C   0  0  0  0  0  0  0  0  0  0  0  0
   -0.8204   -1.9220    0.8186 C   0  0  0  0  0  0  0  0  0  0  0  0
   -0.4093   -1.1168   -0.2343 C   0  0  0  0  0  0  0  0  0  0  0  0
    2.5519    0.6440   -0.9141 H   0  0  0  0  0  0  0  0  0  0  0  0
    2.2158    2.0800   -1.8929 H   0  0  0  0  0  0  0  0  0  0  0  0
    2.0203    2.1383   -0.1403 H   0  0  0  0  0  0  0  0  0  0  0  0
   -0.4424    2.9379   -0.4903 H   0  0  0  0  0  0  0  0  0  0  0  0
   -0.1854    2.8596   -2.2342 H   0  0  0  0  0  0  0  0  0  0  0  0
   -1.5221    1.9668   -1.4930 H   0  0  0  0  0  0  0  0  0  0  0  0
    0.2653    1.7106    1.4785 H   0  0  0  0  0  0  0  0  0  0  0  0
   -0.4600    0.2927    3.3430 H   0  0  0  0  0  0  0  0  0  0  0  0
   -1.1610   -2.0455    2.9337 H   0  0  0  0  0  0  0  0  0  0  0  0
   -1.1249   -2.9436    0.6275 H   0  0  0  0  0  0  0  0  0  0  0  0
   -0.3965   -1.5182   -1.2415 H   0  0  0  0  0  0  0  0  0  0  0  0
    0.4344   -1.4003   -2.0496 C   0  0  0  0  0  0  0  0  0  0  0  0
    0.4344   -0.1684   -1.6141 H   0  0  0  0  0  0  0  0  0  0  0  0
    1.3235   -1.9137   -1.6867 H   0  0  0  0  0  0  0  0  0  0  0  0
   -0.4547   -1.9137   -1.6867 H   0  0  0  0  0  0  0  0  0  0  0  0
    0.4344   -1.4003   -3.1386 H   0  0  0  0  0  0  0  0  0  0  0  0
  1  2  1  0
  1 10  1  0
  1 11  1  0
  1 12  1  0
  2  3  1  0
  2  4  1  0
  3 13  1  0
  3 14  1  0
  3 15  1  0
  4  5  2  0
  4  9  1  0
  5  6  1  0
  5 16  1  0
  6  7  2  0
  6 17  1  0
  7  8  1  0
  7 18  1  0
  8  9  2  0
  8 19  1  0
  9 20  1  0
 21 22  1  0
 21 23  1  0
 21 24  1  0
 21 25  1  0
M  RAD  1   2   2
M  END
>  <reaction>  (10) 
rxn_841

>  <mol_properties>  (10) 
{"1": {"label": "*1", "atom_type": "Cs"}, "3": {"label": "*0", "atom_type": "Cd"}, "20": {"label": "*3", "atom_type": "Cs"}, "21": {"label": "*2", "atom_type": "H0"}, "22": {"label": "*4", "atom_type": "H0"}}

>  <type>  (10) 
unop_6

>  <geom_source>  (10) 
Heuristics

$$$$

     RDKit          3D

 25 24  0  0  0  0  0  0  0  0999 V2000
    2.3748    1.1156    0.0523 C   0  0  0  0  0  0  0  0  0  0  0  0
    1.1123    0.9217   -0.7894 C   0  0  0  0  0  3  0  0  0  0  0  0
    0.6098    2.2567   -1.3418 C   0  0  0  0  0  0  0  0  0  0  0  0
    0.0319    0.1956   -0.0157 C   0  0  0  0  0  0  0  0  0  0  0  0
   -0.5223    0.7472    1.1373 C   0  0  0  0  0  0  0  0  0  0  0  0
   -1.5104    0.0815    1.8434 C   0  0  0  0  0  0  0  0  0  0  0  0
   -1.9665   -1.1550    1.4089 C   0  0  0  0  0  0  0  0  0  0  0  0
   -1.4248   -1.7157    0.2641 C   0  0  0  0  0  0  0  0  0  0  0  0
   -0.4350   -1.0434   -0.4388 C   0  0  0  0  0  0  0  0  0  0  0  0
    2.7474    0.1616    0.4281 H   0  0  0  0  0  0  0  0  0  0  0  0
    3.1636    1.5837   -0.5403 H   0  0  0  0  0  0  0  0  0  0  0  0
    2.1772    1.7600    0.9120 H   0  0  0  0  0  0  0  0  0  0  0  0
    0.3487    2.9422   -0.5322 H   0  0  0  0  0  0  0  0  0  0  0  0
    1.3808    2.7363   -1.9484 H   0  0  0  0  0  0  0  0  0  0  0  0
   -0.2775    2.1172   -1.9611 H   0  0  0  0  0  0  0  0  0  0  0  0
   -0.1777    1.7122    1.4910 H   0  0  0  0  0  0  0  0  0  0  0  0
   -1.9270    0.5291    2.7373 H   0  0  0  0  0  0  0  0  0  0  0  0
   -2.7389   -1.6761    1.9601 H   0  0  0  0  0  0  0  0  0  0  0  0
   -1.7722   -2.6800   -0.0854 H   0  0  0  0  0  0  0  0  0  0  0  0
   -0.0169   -1.4903   -1.3340 H   0  0  0  0  0  0  0  0  0  0  0  0
    1.1123   -1.5479   -1.6625 C   0  0  0  0  0  0  0  0  0  0  0  0
    1.1123   -0.3159   -1.2269 H   0  0  0  0  0  0  0  0  0  0  0  0
    2.0014   -2.0612   -1.2995 H   0  0  0  0  0  0  0  0  0  0  0  0
    0.2232   -2.0612   -1.2995 H   0  0  0  0  0  0  0  0  0  0  0  0
    1.1123   -1.5479   -2.7514 H   0  0  0  0  0  0  0  0  0  0  0  0
  1  2  1  0
  1 10  1  0
  1 11  1  0
  1 12  1  0
  2  3  1  0
  2  4  1  0
  3 13  1  0
  3 14  1  0
  3 15  1  0
  4  5  2  0
  4  9  1  0
  5  6  1  0
  5 16  1  0
  6  7  2  0
  6 17  1  0
  7  8  1  0
  7 18  1  0
  8  9  2  0
  8 19  1  0
  9 20  1  0
 21 22  1  0
 21 23  1  0
 21 24  1  0
 21 25  1  0
M  RAD  1   2   2
M  END
>  <reaction>  (11) 
rxn_841

>  <mol_properties>  (11) 
{"1": {"label": "*1", "atom_type": "Cs"}, "3": {"label": "*0", "atom_type": "Cd"}, "20": {"label": "*3", "atom_type": "Cs"}, "21": {"label": "*2", "atom_type": "H0"}, "22": {"label": "*4", "atom_type": "H0"}}

>  <type>  (11) 
unop_7

>  <geom_source>  (11) 
Heuristics

$$$$

     RDKit          3D

 25 24  0  0  0  0  0  0  0  0999 V2000
   -2.3632   -0.5395    0.3180 C   0  0  0  0  0  0  0  0  0  0  0  0
   -0.9054   -0.9764    0.1636 C   0  0  0  0  0  3  0  0  0  0  0  0
   -0.4647   -1.8464    1.3421 C   0  0  0  0  0  0  0  0  0  0  0  0
    0.0154    0.2102   -0.0292 C   0  0  0  0  0  0  0  0  0  0  0  0
    0.1525    1.1832    0.9585 C   0  0  0  0  0  0  0  0  0  0  0  0
    0.9951    2.2677    0.7802 C   0  0  0  0  0  0  0  0  0  0  0  0
    1.7213    2.4019   -0.3947 C   0  0  0  0  0  0  0  0  0  0  0  0
    1.5951    1.4424   -1.3854 C   0  0  0  0  0  0  0  0  0  0  0  0
    0.7490    0.3581   -1.2005 C   0  0  0  0  0  0  0  0  0  0  0  0
   -2.6859    0.0622   -0.5329 H   0  0  0  0  0  0  0  0  0  0  0  0
   -3.0192   -1.4093    0.3928 H   0  0  0  0  0  0  0  0  0  0  0  0
   -2.4991    0.0589    1.2219 H   0  0  0  0  0  0  0  0  0  0  0  0
   -0.5323   -1.2951    2.2827 H   0  0  0  0  0  0  0  0  0  0  0  0
   -1.1016   -2.7294    1.4272 H   0  0  0  0  0  0  0  0  0  0  0  0
    0.5678   -2.1776    1.2220 H   0  0  0  0  0  0  0  0  0  0  0  0
   -0.4073    1.0940    1.8825 H   0  0  0  0  0  0  0  0  0  0  0  0
    1.0862    3.0121    1.5615 H   0  0  0  0  0  0  0  0  0  0  0  0
    2.3803    3.2493   -0.5350 H   0  0  0  0  0  0  0  0  0  0  0  0
    2.1564    1.5357   -2.3069 H   0  0  0  0  0  0  0  0  0  0  0  0
    0.6568   -0.3880   -1.9819 H   0  0  0  0  0  0  0  0  0  0  0  0
   -0.9054   -3.4460   -0.7096 C   0  0  0  0  0  0  0  0  0  0  0  0
   -0.9054   -2.2140   -0.2740 H   0  0  0  0  0  0  0  0  0  0  0  0
   -0.0163   -3.9593   -0.3466 H   0  0  0  0  0  0  0  0  0  0  0  0
   -1.7945   -3.9593   -0.3466 H   0  0  0  0  0  0  0  0  0  0  0  0
   -0.9054   -3.4460   -1.7985 H   0  0  0  0  0  0  0  0  0  0  0  0
  1  2  1  0
  1 10  1  0
  1 11  1  0
  1 12  1  0
  2  3  1  0
  2  4  1  0
  3 13  1  0
  3 14  1  0
  3 15  1  0
  4  5  2  0
  4  9  1  0
  5  6  1  0
  5 16  1  0
  6  7  2  0
  6 17  1  0
  7  8  1  0
  7 18  1  0
  8  9  2  0
  8 19  1  0
  9 20  1  0
 21 22  1  0
 21 23  1  0
 21 24  1  0
 21 25  1  0
M  RAD  1   2   2
M  END
>  <reaction>  (12) 
rxn_841

>  <mol_properties>  (12) 
{"1": {"label": "*1", "atom_type": "Cs"}, "3": {"label": "*0", "atom_type": "Cd"}, "20": {"label": "*3", "atom_type": "Cs"}, "21": {"label": "*2", "atom_type": "H0"}, "22": {"label": "*4", "atom_type": "H0"}}

>  <type>  (12) 
unop_8

>  <geom_source>  (12) 
Heuristics

$$$$

     RDKit          3D

 25 24  0  0  0  0  0  0  0  0999 V2000
   -0.2136    1.3806   -2.1530 C   0  0  0  0  0  0  0  0  0  0  0  0
   -0.9425    0.5228   -1.1172 C   0  0  0  0  0  3  0  0  0  0  0  0
   -2.2205    1.2114   -0.6349 C   0  0  0  0  0  0  0  0  0  0  0  0
   -0.0368    0.1541    0.0391 C   0  0  0  0  0  0  0  0  0  0  0  0
    0.5075    1.1328    0.8678 C   0  0  0  0  0  0  0  0  0  0  0  0
    1.3356    0.7935    1.9247 C   0  0  0  0  0  0  0  0  0  0  0  0
    1.6376   -0.5375    2.1756 C   0  0  0  0  0  0  0  0  0  0  0  0
    1.1037   -1.5214    1.3601 C   0  0  0  0  0  0  0  0  0  0  0  0
    0.2746   -1.1746    0.3026 C   0  0  0  0  0  0  0  0  0  0  0  0
    0.6861    0.8806   -2.5148 H   0  0  0  0  0  0  0  0  0  0  0  0
   -0.8616    1.5840   -3.0081 H   0  0  0  0  0  0  0  0  0  0  0  0
    0.0855    2.3406   -1.7260 H   0  0  0  0  0  0  0  0  0  0  0  0
   -1.9936    2.1653   -0.1533 H   0  0  0  0  0  0  0  0  0  0  0  0
   -2.8888    1.4131   -1.4747 H   0  0  0  0  0  0  0  0  0  0  0  0
   -2.7534    0.5907    0.0869 H   0  0  0  0  0  0  0  0  0  0  0  0
    0.2820    2.1774    0.6861 H   0  0  0  0  0  0  0  0  0  0  0  0
    1.7477    1.5709    2.5561 H   0  0  0  0  0  0  0  0  0  0  0  0
    2.2849   -0.8037    3.0016 H   0  0  0  0  0  0  0  0  0  0  0  0
    1.3318   -2.5637    1.5454 H   0  0  0  0  0  0  0  0  0  0  0  0
   -0.1388   -1.9519   -0.3304 H   0  0  0  0  0  0  0  0  0  0  0  0
   -0.9425   -1.9468   -1.9903 C   0  0  0  0  0  0  0  0  0  0  0  0
   -0.9425   -0.7148   -1.5548 H   0  0  0  0  0  0  0  0  0  0  0  0
   -0.0534   -2.4601   -1.6273 H   0  0  0  0  0  0  0  0  0  0  0  0
   -1.8316   -2.4601   -1.6273 H   0  0  0  0  0  0  0  0  0  0  0  0
   -0.9425   -1.9468   -3.0793 H   0  0  0  0  0  0  0  0  0  0  0  0
  1  2  1  0
  1 10  1  0
  1 11  1  0
  1 12  1  0
  2  3  1  0
  2  4  1  0
  3 13  1  0
  3 14  1  0
  3 15  1  0
  4  5  2  0
  4  9  1  0
  5  6  1  0
  5 16  1  0
  6  7  2  0
  6 17  1  0
  7  8  1  0
  7 18  1  0
  8  9  2  0
  8 19  1  0
  9 20  1  0
 21 22  1  0
 21 23  1  0
 21 24  1  0
 21 25  1  0
M  RAD  1   2   2
M  END
>  <reaction>  (13) 
rxn_841

>  <mol_properties>  (13) 
{"1": {"label": "*1", "atom_type": "Cs"}, "3": {"label": "*0", "atom_type": "Cd"}, "20": {"label": "*3", "atom_type": "Cs"}, "21": {"label": "*2", "atom_type": "H0"}, "22": {"label": "*4", "atom_type": "H0"}}

>  <type>  (13) 
unop_9

>  <geom_source>  (13) 
Heuristics

$$$$

     RDKit          3D

 25 24  0  0  0  0  0  0  0  0999 V2000
   -2.3511   -0.1140   -0.6905 C   0  0  0  0  0  0  0  0  0  0  0  0
   -1.0886   -0.7938   -0.1577 C   0  0  0  0  0  3  0  0  0  0  0  0
   -1.3739   -1.5360    1.1491 C   0  0  0  0  0  0  0  0  0  0  0  0
    0.0522    0.1900   -0.0032 C   0  0  0  0  0  0  0  0  0  0  0  0
   -0.0391    1.2659    0.8771 C   0  0  0  0  0  0  0  0  0  0  0  0
    1.0053    2.1645    1.0170 C   0  0  0  0  0  0  0  0  0  0  0  0
    2.1678    2.0048    0.2760 C   0  0  0  0  0  0  0  0  0  0  0  0
    2.2728    0.9397   -0.6031 C   0  0  0  0  0  0  0  0  0  0  0  0
    1.2225    0.0429   -0.7385 C   0  0  0  0  0  0  0  0  0  0  0  0
   -2.1544    0.3967   -1.6343 H   0  0  0  0  0  0  0  0  0  0  0  0
   -3.1426   -0.8480   -0.8549 H   0  0  0  0  0  0  0  0  0  0  0  0
   -2.7261    0.6269    0.0193 H   0  0  0  0  0  0  0  0  0  0  0  0
   -1.7138   -0.8463    1.9250 H   0  0  0  0  0  0  0  0  0  0  0  0
   -2.1556   -2.2844    1.0032 H   0  0  0  0  0  0  0  0  0  0  0  0
   -0.4798   -2.0404    1.5183 H   0  0  0  0  0  0  0  0  0  0  0  0
   -0.9399    1.4057    1.4637 H   0  0  0  0  0  0  0  0  0  0  0  0
    0.9125    2.9938    1.7073 H   0  0  0  0  0  0  0  0  0  0  0  0
    2.9848    2.7067    0.3846 H   0  0  0  0  0  0  0  0  0  0  0  0
    3.1747    0.8041   -1.1871 H   0  0  0  0  0  0  0  0  0  0  0  0
    1.3140   -0.7879   -1.4294 H   0  0  0  0  0  0  0  0  0  0  0  0
   -1.0886   -3.2634   -1.0308 C   0  0  0  0  0  0  0  0  0  0  0  0
   -1.0886   -2.0315   -0.5953 H   0  0  0  0  0  0  0  0  0  0  0  0
   -0.1995   -3.7768   -0.6679 H   0  0  0  0  0  0  0  0  0  0  0  0
   -1.9777   -3.7768   -0.6679 H   0  0  0  0  0  0  0  0  0  0  0  0
   -1.0886   -3.2634   -2.1198 H   0  0  0  0  0  0  0  0  0  0  0  0
  1  2  1  0
  1 10  1  0
  1 11  1  0
  1 12  1  0
  2  3  1  0
  2  4  1  0
  3 13  1  0
  3 14  1  0
  3 15  1  0
  4  5  2  0
  4  9  1  0
  5  6  1  0
  5 16  1  0
  6  7  2  0
  6 17  1  0
  7  8  1  0
  7 18  1  0
  8  9  2  0
  8 19  1  0
  9 20  1  0
 21 22  1  0
 21 23  1  0
 21 24  1  0
 21 25  1  0
M  RAD  1   2   2
M  END
>  <reaction>  (14) 
rxn_841

>  <mol_properties>  (14) 
{"1": {"label": "*1", "atom_type": "Cs"}, "3": {"label": "*0", "atom_type": "Cd"}, "20": {"label": "*3", "atom_type": "Cs"}, "21": {"label": "*2", "atom_type": "H0"}, "22": {"label": "*4", "atom_type": "H0"}}

>  <type>  (14) 
unop_10

>  <geom_source>  (14) 
Heuristics

$$$$

     RDKit          3D

 25 24  0  0  0  0  0  0  0  0999 V2000
    2.2630    0.4168    1.1916 C   0  0  0  0  0  0  0  0  0  0  0  0
    1.5340    0.4008   -0.1532 C   0  0  0  0  0  3  0  0  0  0  0  0
    1.8160    1.6781   -0.9463 C   0  0  0  0  0  0  0  0  0  0  0  0
    0.0478    0.1682    0.0203 C   0  0  0  0  0  0  0  0  0  0  0  0
   -0.7458    1.0741    0.7207 C   0  0  0  0  0  0  0  0  0  0  0  0
   -2.1049    0.8595    0.8782 C   0  0  0  0  0  0  0  0  0  0  0  0
   -2.7008   -0.2704    0.3362 C   0  0  0  0  0  0  0  0  0  0  0  0
   -1.9244   -1.1798   -0.3626 C   0  0  0  0  0  0  0  0  0  0  0  0
   -0.5630   -0.9589   -0.5169 C   0  0  0  0  0  0  0  0  0  0  0  0
    2.0812   -0.5034    1.7486 H   0  0  0  0  0  0  0  0  0  0  0  0
    3.3397    0.5225    1.0439 H   0  0  0  0  0  0  0  0  0  0  0  0
    1.9277    1.2536    1.8088 H   0  0  0  0  0  0  0  0  0  0  0  0
    1.4647    2.5602   -0.4060 H   0  0  0  0  0  0  0  0  0  0  0  0
    2.8883    1.7965   -1.1156 H   0  0  0  0  0  0  0  0  0  0  0  0
    1.3152    1.6580   -1.9153 H   0  0  0  0  0  0  0  0  0  0  0  0
   -0.2967    1.9621    1.1506 H   0  0  0  0  0  0  0  0  0  0  0  0
   -2.7027    1.5771    1.4265 H   0  0  0  0  0  0  0  0  0  0  0  0
   -3.7632   -0.4390    0.4588 H   0  0  0  0  0  0  0  0  0  0  0  0
   -2.3774   -2.0656   -0.7904 H   0  0  0  0  0  0  0  0  0  0  0  0
    0.0367   -1.6765   -1.0656 H   0  0  0  0  0  0  0  0  0  0  0  0
    1.5340   -2.0688   -1.0263 C   0  0  0  0  0  0  0  0  0  0  0  0
    1.5340   -0.8368   -0.5907 H   0  0  0  0  0  0  0  0  0  0  0  0
    2.4232   -2.5821   -0.6633 H   0  0  0  0  0  0  0  0  0  0  0  0
    0.6449   -2.5821   -0.6633 H   0  0  0  0  0  0  0  0  0  0  0  0
    1.5340   -2.0688   -2.1152 H   0  0  0  0  0  0  0  0  0  0  0  0
  1  2  1  0
  1 10  1  0
  1 11  1  0
  1 12  1  0
  2  3  1  0
  2  4  1  0
  3 13  1  0
  3 14  1  0
  3 15  1  0
  4  5  2  0
  4  9  1  0
  5  6  1  0
  5 16  1  0
  6  7  2  0
  6 17  1  0
  7  8  1  0
  7 18  1  0
  8  9  2  0
  8 19  1  0
  9 20  1  0
 21 22  1  0
 21 23  1  0
 21 24  1  0
 21 25  1  0
M  RAD  1   2   2
M  END
>  <reaction>  (15) 
rxn_841

>  <mol_properties>  (15) 
{"1": {"label": "*1", "atom_type": "Cs"}, "3": {"label": "*0", "atom_type": "Cd"}, "20": {"label": "*3", "atom_type": "Cs"}, "21": {"label": "*2", "atom_type": "H0"}, "22": {"label": "*4", "atom_type": "H0"}}

>  <type>  (15) 
unop_11

>  <geom_source>  (15) 
Heuristics

$$$$

     RDKit          3D

 25 24  0  0  0  0  0  0  0  0999 V2000
   -1.2452    0.8904   -1.9975 C   0  0  0  0  0  0  0  0  0  0  0  0
   -1.2452   -0.0324   -0.7775 C   0  0  0  0  0  3  0  0  0  0  0  0
   -2.5106    0.1632    0.0594 C   0  0  0  0  0  0  0  0  0  0  0  0
    0.0073    0.1432    0.0552 C   0  0  0  0  0  0  0  0  0  0  0  0
    0.3010    1.3604    0.6661 C   0  0  0  0  0  0  0  0  0  0  0  0
    1.4470    1.5189    1.4273 C   0  0  0  0  0  0  0  0  0  0  0  0
    2.3269    0.4588    1.5937 C   0  0  0  0  0  0  0  0  0  0  0  0
    2.0480   -0.7572    0.9922 C   0  0  0  0  0  0  0  0  0  0  0  0
    0.8978   -0.9094    0.2308 C   0  0  0  0  0  0  0  0  0  0  0  0
   -0.3542    0.7358   -2.6077 H   0  0  0  0  0  0  0  0  0  0  0  0
   -2.1240    0.7059   -2.6189 H   0  0  0  0  0  0  0  0  0  0  0  0
   -1.2658    1.9399   -1.6947 H   0  0  0  0  0  0  0  0  0  0  0  0
   -2.5767    1.1865    0.4362 H   0  0  0  0  0  0  0  0  0  0  0  0
   -3.4021   -0.0286   -0.5413 H   0  0  0  0  0  0  0  0  0  0  0  0
   -2.5228   -0.5105    0.9174 H   0  0  0  0  0  0  0  0  0  0  0  0
   -0.3754    2.1990    0.5465 H   0  0  0  0  0  0  0  0  0  0  0  0
    1.6554    2.4742    1.8931 H   0  0  0  0  0  0  0  0  0  0  0  0
    3.2231    0.5818    2.1885 H   0  0  0  0  0  0  0  0  0  0  0  0
    2.7267   -1.5922    1.1145 H   0  0  0  0  0  0  0  0  0  0  0  0
    0.6880   -1.8653   -0.2362 H   0  0  0  0  0  0  0  0  0  0  0  0
   -1.2452   -2.5020   -1.6507 C   0  0  0  0  0  0  0  0  0  0  0  0
   -1.2452   -1.2700   -1.2151 H   0  0  0  0  0  0  0  0  0  0  0  0
   -0.3561   -3.0153   -1.2877 H   0  0  0  0  0  0  0  0  0  0  0  0
   -2.1343   -3.0153   -1.2877 H   0  0  0  0  0  0  0  0  0  0  0  0
   -1.2452   -2.5020   -2.7396 H   0  0  0  0  0  0  0  0  0  0  0  0
  1  2  1  0
  1 10  1  0
  1 11  1  0
  1 12  1  0
  2  3  1  0
  2  4  1  0
  3 13  1  0
  3 14  1  0
  3 15  1  0
  4  5  2  0
  4  9  1  0
  5  6  1  0
  5 16  1  0
  6  7  2  0
  6 17  1  0
  7  8  1  0
  7 18  1  0
  8  9  2  0
  8 19  1  0
  9 20  1  0
 21 22  1  0
 21 23  1  0
 21 24  1  0
 21 25  1  0
M  RAD  1   2   2
M  END
>  <reaction>  (16) 
rxn_841

>  <mol_properties>  (16) 
{"1": {"label": "*1", "atom_type": "Cs"}, "3": {"label": "*0", "atom_type": "Cd"}, "20": {"label": "*3", "atom_type": "Cs"}, "21": {"label": "*2", "atom_type": "H0"}, "22": {"label": "*4", "atom_type": "H0"}}

>  <type>  (16) 
unop_12

>  <geom_source>  (16) 
Heuristics

$$$$

     RDKit          3D

 25 24  0  0  0  0  0  0  0  0999 V2000
   -1.0296   -0.4070   -0.0256 C   0  0  0  0  0  3  0  0  0  0  0  0
   -1.7253   -0.3471    1.3379 C   0  0  0  0  0  0  0  0  0  0  0  0
   -1.3390   -1.7220   -0.7479 C   0  0  0  0  0  0  0  0  0  0  0  0
    0.4644   -0.1957    0.1118 C   0  0  0  0  0  0  0  0  0  0  0  0
    1.2626   -1.0916    0.8502 C   0  0  0  0  0  0  0  0  0  0  0  0
    1.0745    0.9108   -0.5045 C   0  0  0  0  0  0  0  0  0  0  0  0
    2.6398   -0.8809    0.9664 C   0  0  0  0  0  0  0  0  0  0  0  0
    3.2343    0.2220    0.3494 C   0  0  0  0  0  0  0  0  0  0  0  0
    2.4525    1.1166   -0.3851 C   0  0  0  0  0  0  0  0  0  0  0  0
   -1.7232    1.8545   -1.1166 C   0  0  0  0  0  0  0  0  0  0  0  0
   -1.5845    0.6323   -0.8134 H   0  0  0  0  0  0  0  0  0  0  0  0
   -1.4040   -1.1863    1.9907 H   0  0  0  0  0  0  0  0  0  0  0  0
   -1.4885    0.6143    1.8411 H   0  0  0  0  0  0  0  0  0  0  0  0
   -2.8259   -0.4043    1.2013 H   0  0  0  0  0  0  0  0  0  0  0  0
   -2.4321   -1.8057   -0.9247 H   0  0  0  0  0  0  0  0  0  0  0  0
   -1.0076   -2.5972   -0.1497 H   0  0  0  0  0  0  0  0  0  0  0  0
   -0.8266   -1.7417   -1.7331 H   0  0  0  0  0  0  0  0  0  0  0  0
    0.8218   -1.9524    1.3360 H   0  0  0  0  0  0  0  0  0  0  0  0
    3.2465   -1.5736    1.5353 H   0  0  0  0  0  0  0  0  0  0  0  0
    4.3007    0.3836    0.4404 H   0  0  0  0  0  0  0  0  0  0  0  0
    2.9146    1.9710   -0.8627 H   0  0  0  0  0  0  0  0  0  0  0  0
    0.4886    1.6170   -1.0786 H   0  0  0  0  0  0  0  0  0  0  0  0
   -2.7531    1.8012   -1.5254 H   0  0  0  0  0  0  0  0  0  0  0  0
   -1.7170    2.4973   -0.2124 H   0  0  0  0  0  0  0  0  0  0  0  0
   -1.0439    2.2850   -1.8809 H   0  0  0  0  0  0  0  0  0  0  0  0
  1  2  1  0
  1  3  1  0
  1  4  1  0
  2 12  1  0
  2 13  1  0
  2 14  1  0
  3 15  1  0
  3 16  1  0
  3 17  1  0
  4  5  2  0
  4  6  1  0
  5  7  1  0
  5 18  1  0
  6  9  2  0
  6 22  1  0
  7  8  2  0
  7 19  1  0
  8  9  1  0
  8 20  1  0
  9 21  1  0
 10 11  1  0
 10 23  1  0
 10 24  1  0
 10 25  1  0
M  RAD  1   1   2
M  END
>  <reaction>  (17) 
rxn_841

>  <mol_properties>  (17) 
{"1": {"label": "*1", "atom_type": "Cs"}, "3": {"label": "*0", "atom_type": "Cd"}, "20": {"label": "*3", "atom_type": "Cs"}, "21": {"label": "*2", "atom_type": "H0"}, "22": {"label": "*4", "atom_type": "H0"}}

>  <type>  (17) 
unop_13

>  <geom_source>  (17) 
AutoTST

$$$$
