
     RDKit          3D

 12 11  0  0  0  0  0  0  0  0999 V2000
    2.1696    0.6854    1.1310 C   0  0  0  0  0  0  0  0  0  0  0  0
    1.2518    0.4145    0.4134 C   0  0  0  0  0  0  0  0  0  0  0  0
    0.1391    0.0443   -0.4683 C   0  0  0  0  0  0  0  0  0  0  0  0
   -0.2054   -1.4492   -0.3339 C   0  0  0  0  0  0  0  0  0  0  0  0
   -1.0375    0.8853   -0.2222 C   0  0  0  0  0  0  0  0  0  0  0  0
   -2.0160    1.5463   -0.0311 C   0  0  0  0  0  0  0  0  0  0  0  0
    2.9819    0.9356    1.7702 H   0  0  0  0  0  0  0  0  0  0  0  0
    0.4629    0.2285   -1.4981 H   0  0  0  0  0  0  0  0  0  0  0  0
   -0.5327   -1.6703    0.6812 H   0  0  0  0  0  0  0  0  0  0  0  0
    0.6727   -2.0535   -0.5593 H   0  0  0  0  0  0  0  0  0  0  0  0
   -1.0064   -1.7081   -1.0256 H   0  0  0  0  0  0  0  0  0  0  0  0
   -2.8802    2.1413    0.1426 H   0  0  0  0  0  0  0  0  0  0  0  0
  1  2  3  0
  1  7  1  0
  2  3  1  0
  3  4  1  0
  3  5  1  0
  3  8  1  0
  4  9  1  0
  4 10  1  0
  4 11  1  0
  5  6  3  0
  6 12  1  0
M  END
>  <reaction>  (1) 
rxn_1418

>  <mol_properties>  (1) 
{"2": {"label": "donator", "atom_type": "Cs"}, "7": {"label": "d_hydrogen", "atom_type": "H0"}}

>  <type>  (1) 
r1h

$$$$

     RDKit          3D

  7  6  0  0  0  0  0  0  0  0999 V2000
   -1.3496    0.0255    0.0758 C   0  0  0  0  0  0  0  0  0  0  0  0
   -0.0636   -0.0704   -0.0033 C   0  0  0  0  0  0  0  0  0  0  0  0
    1.2597   -0.1602   -0.0839 C   0  0  0  0  0  0  0  0  0  0  0  0
    2.2616    1.2090   -0.0064 S   0  0  0  0  0  1  0  0  0  0  0  0
   -1.8547   -0.0180    1.0345 H   0  0  0  0  0  0  0  0  0  0  0  0
   -1.9552    0.1601   -0.8138 H   0  0  0  0  0  0  0  0  0  0  0  0
    1.7017   -1.1460   -0.2029 H   0  0  0  0  0  0  0  0  0  0  0  0
  1  2  2  0
  1  5  1  0
  1  6  1  0
  2  3  2  0
  3  4  1  0
  3  7  1  0
M  RAD  1   4   2
M  END
>  <reaction>  (2) 
rxn_1418

>  <mol_properties>  (2) 
{"1": {"label": "acceptor", "atom_type": "Cd"}}

>  <type>  (2) 
r2

$$$$

     RDKit          3D

  8  7  0  0  0  0  0  0  0  0999 V2000
   -1.1617    0.0338    0.5053 C   0  0  0  0  0  0  0  0  0  0  0  0
   -0.1023    0.4503   -0.1863 C   0  0  0  0  0  0  0  0  0  0  0  0
    1.0978   -0.3557   -0.3104 C   0  0  0  0  0  0  0  0  0  0  0  0
    2.4251    0.0667   -1.1256 S   0  0  0  0  0  0  0  0  0  0  0  0
   -1.1653   -0.9292    1.0039 H   0  0  0  0  0  0  0  0  0  0  0  0
   -2.0546    0.6389    0.5948 H   0  0  0  0  0  0  0  0  0  0  0  0
   -0.0991    1.4132   -0.6847 H   0  0  0  0  0  0  0  0  0  0  0  0
    1.0601   -1.3180    0.2032 H   0  0  0  0  0  0  0  0  0  0  0  0
  1  2  2  3
  1  5  1  0
  1  6  1  0
  2  3  1  0
  2  7  1  0
  3  4  2  0
  3  8  1  0
M  END
>  <reaction>  (3) 
rxn_1418

>  <mol_properties>  (3) 
{"0": {"label": "a_hydrogen", "atom_type": "H0"}, "2": {"label": "acceptor", "atom_type": "Cd"}}

>  <type>  (3) 
r2h

$$$$

     RDKit          3D

 19 17  0  0  0  0  0  0  0  0999 V2000
   -0.6046    0.2326   -3.4528 C   0  0  0  0  0  0  0  0  0  0  0  0
   -0.7732    0.2423   -2.2650 C   0  0  0  0  0  0  0  0  0  0  0  0
   -0.9277    0.2985   -0.8377 C   0  0  0  0  0  0  0  0  0  0  0  0
   -1.4554    1.6153   -0.2856 C   0  0  0  0  0  0  0  0  0  0  0  0
   -1.4569   -0.8850   -0.2206 C   0  0  0  0  0  0  0  0  0  0  0  0
   -1.8376   -1.8597    0.3655 C   0  0  0  0  0  0  0  0  0  0  0  0
   -0.4699    0.2114   -4.5077 H   0  0  0  0  0  0  0  0  0  0  0  0
    0.3036    0.2743   -0.3863 H   0  0  0  0  0  0  0  0  0  0  0  0
   -2.5093    1.7349   -0.5422 H   0  0  0  0  0  0  0  0  0  0  0  0
   -0.8931    2.4465   -0.7087 H   0  0  0  0  0  0  0  0  0  0  0  0
   -1.3489    1.6304    0.7984 H   0  0  0  0  0  0  0  0  0  0  0  0
   -2.1950   -2.7244    0.8717 H   0  0  0  0  0  0  0  0  0  0  0  0
    2.2893    1.0934   -0.7493 C   0  0  0  0  0  0  0  0  0  0  0  0
    1.5587    0.4320    0.1137 C   0  0  0  0  0  0  0  0  0  0  0  0
    1.5888   -0.1602    1.3909 C   0  0  0  0  0  0  0  0  0  0  0  0
    1.0697    0.5710    2.7617 S   0  0  0  0  0  1  0  0  0  0  0  0
    3.3148    1.3684   -0.5250 H   0  0  0  0  0  0  0  0  0  0  0  0
    1.8873    1.3879   -1.7124 H   0  0  0  0  0  0  0  0  0  0  0  0
    1.8998   -1.2047    1.4211 H   0  0  0  0  0  0  0  0  0  0  0  0
  1  2  3  0
  1  7  1  0
  2  3  1  0
  3  4  1  0
  3  5  1  0
  3  8  1  0
  4  9  1  0
  4 10  1  0
  4 11  1  0
  5  6  3  0
  6 12  1  0
 13 14  2  0
 13 17  1  0
 13 18  1  0
 14 15  2  0
 15 16  1  0
 15 19  1  0
M  RAD  1  16   2
M  END
>  <reaction>  (4) 
rxn_1418

>  <mol_properties>  (4) 
{"1": {"label": "*0", "atom_type": "Ct"}, "2": {"label": "*1", "atom_type": "Cs"}, "7": {"label": "*2", "atom_type": "H0"}, "13": {"label": "*3", "atom_type": "Cdd"}, "14": {"label": "*4", "atom_type": "Cd"}}

>  <type>  (4) 
ts

$$$$

     RDKit          3D

 19 17  0  0  0  0  0  0  0  0999 V2000
   -0.9639    0.7354   -2.8810 C   0  0  0  0  0  0  0  0  0  0  0  0
   -0.9639    0.7354   -1.6849 C   0  0  0  0  0  0  0  0  0  0  0  0
   -0.9639    0.7755   -0.2183 C   0  0  0  0  0  3  0  0  0  0  0  0
   -1.6019    2.0747    0.3037 C   0  0  0  0  0  0  0  0  0  0  0  0
   -1.6257   -0.4058    0.3465 C   0  0  0  0  0  0  0  0  0  0  0  0
   -2.1740   -1.3511    0.8330 C   0  0  0  0  0  0  0  0  0  0  0  0
   -0.9639    0.7354   -3.9445 H   0  0  0  0  0  0  0  0  0  0  0  0
    0.2897    0.7482    0.1748 H   0  0  0  0  0  0  0  0  0  0  0  0
   -2.6452    2.1319   -0.0041 H   0  0  0  0  0  0  0  0  0  0  0  0
   -1.0693    2.9361   -0.0980 H   0  0  0  0  0  0  0  0  0  0  0  0
   -1.5547    2.0991    1.3919 H   0  0  0  0  0  0  0  0  0  0  0  0
   -2.6614   -2.1915    1.2655 H   0  0  0  0  0  0  0  0  0  0  0  0
    2.0501    1.7122    1.2869 C   0  0  0  0  0  0  0  0  0  0  0  0
    1.5309    0.7212    0.5641 C   0  0  0  0  0  0  0  0  0  0  0  0
    1.7519   -0.6723    0.9025 C   0  0  0  0  0  0  0  0  0  0  0  0
    1.1644   -1.9350    0.0869 S   0  0  0  0  0  0  0  0  0  0  0  0
    2.6608    1.5118    2.1603 H   0  0  0  0  0  0  0  0  0  0  0  0
    1.8822    2.7501    1.0302 H   0  0  0  0  0  0  0  0  0  0  0  0
    2.3705   -0.8379    1.7865 H   0  0  0  0  0  0  0  0  0  0  0  0
  1  2  3  0
  1  7  1  0
  2  3  1  0
  3  4  1  0
  3  5  1  0
  4  9  1  0
  4 10  1  0
  4 11  1  0
  5  6  3  0
  6 12  1  0
  8 14  1  0
 13 14  2  3
 13 17  1  0
 13 18  1  0
 14 15  1  0
 15 16  2  0
 15 19  1  0
M  RAD  1   3   2
M  END
>  <reaction>  (5) 
rxn_1418

>  <mol_properties>  (5) 
{"1": {"label": "*0", "atom_type": "Ct"}, "2": {"label": "*1", "atom_type": "Cs"}, "7": {"label": "*2", "atom_type": "H0"}, "13": {"label": "*3", "atom_type": "Cdd"}, "14": {"label": "*4", "atom_type": "Cd"}}

>  <type>  (5) 
unop_1

>  <geom_source>  (5) 
Heuristics

$$$$

     RDKit          3D

 19 17  0  0  0  0  0  0  0  0999 V2000
   -0.8872    0.3053   -3.4408 C   0  0  0  0  0  0  0  0  0  0  0  0
   -0.8872    0.3053   -2.2447 C   0  0  0  0  0  0  0  0  0  0  0  0
   -0.8872    0.3454   -0.7781 C   0  0  0  0  0  3  0  0  0  0  0  0
   -1.5252    1.6446   -0.2561 C   0  0  0  0  0  0  0  0  0  0  0  0
   -1.5490   -0.8358   -0.2133 C   0  0  0  0  0  0  0  0  0  0  0  0
   -2.0973   -1.7811    0.2732 C   0  0  0  0  0  0  0  0  0  0  0  0
   -0.8872    0.3053   -4.5043 H   0  0  0  0  0  0  0  0  0  0  0  0
    0.3664    0.3182   -0.3850 H   0  0  0  0  0  0  0  0  0  0  0  0
   -2.5685    1.7019   -0.5639 H   0  0  0  0  0  0  0  0  0  0  0  0
   -0.9926    2.5061   -0.6578 H   0  0  0  0  0  0  0  0  0  0  0  0
   -1.4780    1.6691    0.8321 H   0  0  0  0  0  0  0  0  0  0  0  0
   -2.5847   -2.6215    0.7057 H   0  0  0  0  0  0  0  0  0  0  0  0
    2.5783    0.8111   -0.7451 C   0  0  0  0  0  0  0  0  0  0  0  0
    1.6076    0.2912    0.0043 C   0  0  0  0  0  0  0  0  0  0  0  0
    1.7927    0.0171    1.4170 C   0  0  0  0  0  0  0  0  0  0  0  0
    0.6766   -0.6098    2.3999 S   0  0  0  0  0  0  0  0  0  0  0  0
    3.5483    1.0499   -0.3234 H   0  0  0  0  0  0  0  0  0  0  0  0
    2.4350    1.0137   -1.7986 H   0  0  0  0  0  0  0  0  0  0  0  0
    2.7800    0.2691    1.8085 H   0  0  0  0  0  0  0  0  0  0  0  0
  1  2  3  0
  1  7  1  0
  2  3  1  0
  3  4  1  0
  3  5  1  0
  4  9  1  0
  4 10  1  0
  4 11  1  0
  5  6  3  0
  6 12  1  0
  8 14  1  0
 13 14  2  3
 13 17  1  0
 13 18  1  0
 14 15  1  0
 15 16  2  0
 15 19  1  0
M  RAD  1   3   2
M  END
>  <reaction>  (6) 
rxn_1418

>  <mol_properties>  (6) 
{"1": {"label": "*0", "atom_type": "Ct"}, "2": {"label": "*1", "atom_type": "Cs"}, "7": {"label": "*2", "atom_type": "H0"}, "13": {"label": "*3", "atom_type": "Cdd"}, "14": {"label": "*4", "atom_type": "Cd"}}

>  <type>  (6) 
unop_2

>  <geom_source>  (6) 
Heuristics

$$$$

     RDKit          3D

 19 17  0  0  0  0  0  0  0  0999 V2000
   -1.0985    0.6329   -2.5691 C   0  0  0  0  0  0  0  0  0  0  0  0
   -1.0985    0.6329   -1.3730 C   0  0  0  0  0  0  0  0  0  0  0  0
   -1.0985    0.6730    0.0936 C   0  0  0  0  0  3  0  0  0  0  0  0
   -1.7365    1.9722    0.6156 C   0  0  0  0  0  0  0  0  0  0  0  0
   -1.7603   -0.5083    0.6584 C   0  0  0  0  0  0  0  0  0  0  0  0
   -2.3086   -1.4536    1.1449 C   0  0  0  0  0  0  0  0  0  0  0  0
   -1.0985    0.6329   -3.6326 H   0  0  0  0  0  0  0  0  0  0  0  0
    0.1551    0.6457    0.4867 H   0  0  0  0  0  0  0  0  0  0  0  0
   -2.7798    2.0294    0.3078 H   0  0  0  0  0  0  0  0  0  0  0  0
   -1.2039    2.8336    0.2139 H   0  0  0  0  0  0  0  0  0  0  0  0
   -1.6893    1.9966    1.7038 H   0  0  0  0  0  0  0  0  0  0  0  0
   -2.7960   -2.2940    1.5774 H   0  0  0  0  0  0  0  0  0  0  0  0
    1.7785    1.2079    2.0077 C   0  0  0  0  0  0  0  0  0  0  0  0
    1.3963    0.6188    0.8760 C   0  0  0  0  0  0  0  0  0  0  0  0
    1.9723   -0.6370    0.4325 C   0  0  0  0  0  0  0  0  0  0  0  0
    1.5720   -1.4209   -0.9202 S   0  0  0  0  0  0  0  0  0  0  0  0
    2.5391    0.7672    2.6427 H   0  0  0  0  0  0  0  0  0  0  0  0
    1.3457    2.1447    2.3340 H   0  0  0  0  0  0  0  0  0  0  0  0
    2.7341   -1.0523    1.0948 H   0  0  0  0  0  0  0  0  0  0  0  0
  1  2  3  0
  1  7  1  0
  2  3  1  0
  3  4  1  0
  3  5  1  0
  4  9  1  0
  4 10  1  0
  4 11  1  0
  5  6  3  0
  6 12  1  0
  8 14  1  0
 13 14  2  3
 13 17  1  0
 13 18  1  0
 14 15  1  0
 15 16  2  0
 15 19  1  0
M  RAD  1   3   2
M  END
>  <reaction>  (7) 
rxn_1418

>  <mol_properties>  (7) 
{"1": {"label": "*0", "atom_type": "Ct"}, "2": {"label": "*1", "atom_type": "Cs"}, "7": {"label": "*2", "atom_type": "H0"}, "13": {"label": "*3", "atom_type": "Cdd"}, "14": {"label": "*4", "atom_type": "Cd"}}

>  <type>  (7) 
unop_3

>  <geom_source>  (7) 
Heuristics

$$$$

     RDKit          3D

 19 17  0  0  0  0  0  0  0  0999 V2000
   -0.8983   -0.2438   -3.3220 C   0  0  0  0  0  0  0  0  0  0  0  0
   -0.8983   -0.2438   -2.1258 C   0  0  0  0  0  0  0  0  0  0  0  0
   -0.8983   -0.2037   -0.6593 C   0  0  0  0  0  3  0  0  0  0  0  0
   -1.5363    1.0955   -0.1373 C   0  0  0  0  0  0  0  0  0  0  0  0
   -1.5601   -1.3849   -0.0945 C   0  0  0  0  0  0  0  0  0  0  0  0
   -2.1083   -2.3302    0.3920 C   0  0  0  0  0  0  0  0  0  0  0  0
   -0.8983   -0.2438   -4.3855 H   0  0  0  0  0  0  0  0  0  0  0  0
    0.3553   -0.2309   -0.2662 H   0  0  0  0  0  0  0  0  0  0  0  0
   -2.5796    1.1528   -0.4451 H   0  0  0  0  0  0  0  0  0  0  0  0
   -1.0037    1.9570   -0.5390 H   0  0  0  0  0  0  0  0  0  0  0  0
   -1.4891    1.1200    0.9509 H   0  0  0  0  0  0  0  0  0  0  0  0
   -2.5958   -3.1706    0.8245 H   0  0  0  0  0  0  0  0  0  0  0  0
    2.3957   -1.2775   -0.1863 C   0  0  0  0  0  0  0  0  0  0  0  0
    1.5966   -0.2579    0.1231 C   0  0  0  0  0  0  0  0  0  0  0  0
    1.7395    0.4793    1.3647 C   0  0  0  0  0  0  0  0  0  0  0  0
    0.8197    1.7242    1.8216 S   0  0  0  0  0  0  0  0  0  0  0  0
    3.1873   -1.5955    0.4832 H   0  0  0  0  0  0  0  0  0  0  0  0
    2.2849   -1.8242   -1.1138 H   0  0  0  0  0  0  0  0  0  0  0  0
    2.5453    0.1331    2.0144 H   0  0  0  0  0  0  0  0  0  0  0  0
  1  2  3  0
  1  7  1  0
  2  3  1  0
  3  4  1  0
  3  5  1  0
  4  9  1  0
  4 10  1  0
  4 11  1  0
  5  6  3  0
  6 12  1  0
  8 14  1  0
 13 14  2  3
 13 17  1  0
 13 18  1  0
 14 15  1  0
 15 16  2  0
 15 19  1  0
M  RAD  1   3   2
M  END
>  <reaction>  (8) 
rxn_1418

>  <mol_properties>  (8) 
{"1": {"label": "*0", "atom_type": "Ct"}, "2": {"label": "*1", "atom_type": "Cs"}, "7": {"label": "*2", "atom_type": "H0"}, "13": {"label": "*3", "atom_type": "Cdd"}, "14": {"label": "*4", "atom_type": "Cd"}}

>  <type>  (8) 
unop_4

>  <geom_source>  (8) 
Heuristics

$$$$

     RDKit          3D

 19 17  0  0  0  0  0  0  0  0999 V2000
   -1.2483    0.1645   -2.3533 C   0  0  0  0  0  0  0  0  0  0  0  0
   -1.2483    0.1645   -1.1571 C   0  0  0  0  0  0  0  0  0  0  0  0
   -1.2483    0.2046    0.3094 C   0  0  0  0  0  3  0  0  0  0  0  0
   -1.8864    1.5038    0.8314 C   0  0  0  0  0  0  0  0  0  0  0  0
   -1.9102   -0.9767    0.8742 C   0  0  0  0  0  0  0  0  0  0  0  0
   -2.4584   -1.9220    1.3607 C   0  0  0  0  0  0  0  0  0  0  0  0
   -1.2483    0.1645   -3.4167 H   0  0  0  0  0  0  0  0  0  0  0  0
    0.0053    0.1773    0.7026 H   0  0  0  0  0  0  0  0  0  0  0  0
   -2.9296    1.5610    0.5237 H   0  0  0  0  0  0  0  0  0  0  0  0
   -1.3538    2.3652    0.4298 H   0  0  0  0  0  0  0  0  0  0  0  0
   -1.8392    1.5282    1.9197 H   0  0  0  0  0  0  0  0  0  0  0  0
   -2.9458   -2.7624    1.7932 H   0  0  0  0  0  0  0  0  0  0  0  0
    1.5659    0.1760    2.3847 C   0  0  0  0  0  0  0  0  0  0  0  0
    1.2465    0.1504    1.0918 C   0  0  0  0  0  0  0  0  0  0  0  0
    2.2577    0.0913    0.0530 C   0  0  0  0  0  0  0  0  0  0  0  0
    1.9643    0.0569   -1.5337 S   0  0  0  0  0  0  0  0  0  0  0  0
    2.6003    0.1535    2.7094 H   0  0  0  0  0  0  0  0  0  0  0  0
    0.8077    0.2200    3.1557 H   0  0  0  0  0  0  0  0  0  0  0  0
    3.2873    0.0700    0.4147 H   0  0  0  0  0  0  0  0  0  0  0  0
  1  2  3  0
  1  7  1  0
  2  3  1  0
  3  4  1  0
  3  5  1  0
  4  9  1  0
  4 10  1  0
  4 11  1  0
  5  6  3  0
  6 12  1  0
  8 14  1  0
 13 14  2  3
 13 17  1  0
 13 18  1  0
 14 15  1  0
 15 16  2  0
 15 19  1  0
M  RAD  1   3   2
M  END
>  <reaction>  (9) 
rxn_1418

>  <mol_properties>  (9) 
{"1": {"label": "*0", "atom_type": "Ct"}, "2": {"label": "*1", "atom_type": "Cs"}, "7": {"label": "*2", "atom_type": "H0"}, "13": {"label": "*3", "atom_type": "Cdd"}, "14": {"label": "*4", "atom_type": "Cd"}}

>  <type>  (9) 
unop_5

>  <geom_source>  (9) 
Heuristics

$$$$

     RDKit          3D

 19 17  0  0  0  0  0  0  0  0999 V2000
   -0.9276   -0.3967   -3.1228 C   0  0  0  0  0  0  0  0  0  0  0  0
   -0.9276   -0.3967   -1.9267 C   0  0  0  0  0  0  0  0  0  0  0  0
   -0.9276   -0.3566   -0.4601 C   0  0  0  0  0  3  0  0  0  0  0  0
   -1.5657    0.9426    0.0619 C   0  0  0  0  0  0  0  0  0  0  0  0
   -1.5895   -1.5379    0.1046 C   0  0  0  0  0  0  0  0  0  0  0  0
   -2.1377   -2.4831    0.5911 C   0  0  0  0  0  0  0  0  0  0  0  0
   -0.9276   -0.3967   -4.1863 H   0  0  0  0  0  0  0  0  0  0  0  0
    0.3260   -0.3839   -0.0670 H   0  0  0  0  0  0  0  0  0  0  0  0
   -2.6089    0.9998   -0.2459 H   0  0  0  0  0  0  0  0  0  0  0  0
   -1.0331    1.8040   -0.3398 H   0  0  0  0  0  0  0  0  0  0  0  0
   -1.5185    0.9670    1.1501 H   0  0  0  0  0  0  0  0  0  0  0  0
   -2.6251   -3.3236    1.0236 H   0  0  0  0  0  0  0  0  0  0  0  0
    2.1919   -1.5629    0.5601 C   0  0  0  0  0  0  0  0  0  0  0  0
    1.5672   -0.4108    0.3223 C   0  0  0  0  0  0  0  0  0  0  0  0
    1.7232    0.7400    1.1920 C   0  0  0  0  0  0  0  0  0  0  0  0
    1.0077    2.1714    0.9827 S   0  0  0  0  0  0  0  0  0  0  0  0
    2.8439   -1.6830    1.4181 H   0  0  0  0  0  0  0  0  0  0  0  0
    2.0721   -2.4184   -0.0919 H   0  0  0  0  0  0  0  0  0  0  0  0
    2.3859    0.5846    2.0453 H   0  0  0  0  0  0  0  0  0  0  0  0
  1  2  3  0
  1  7  1  0
  2  3  1  0
  3  4  1  0
  3  5  1  0
  4  9  1  0
  4 10  1  0
  4 11  1  0
  5  6  3  0
  6 12  1  0
  8 14  1  0
 13 14  2  3
 13 17  1  0
 13 18  1  0
 14 15  1  0
 15 16  2  0
 15 19  1  0
M  RAD  1   3   2
M  END
>  <reaction>  (10) 
rxn_1418

>  <mol_properties>  (10) 
{"1": {"label": "*0", "atom_type": "Ct"}, "2": {"label": "*1", "atom_type": "Cs"}, "7": {"label": "*2", "atom_type": "H0"}, "13": {"label": "*3", "atom_type": "Cdd"}, "14": {"label": "*4", "atom_type": "Cd"}}

>  <type>  (10) 
unop_6

>  <geom_source>  (10) 
Heuristics

$$$$

     RDKit          3D

 19 17  0  0  0  0  0  0  0  0999 V2000
   -0.9998   -0.4505   -2.8486 C   0  0  0  0  0  0  0  0  0  0  0  0
   -0.9998   -0.4505   -1.6525 C   0  0  0  0  0  0  0  0  0  0  0  0
   -0.9998   -0.4104   -0.1859 C   0  0  0  0  0  3  0  0  0  0  0  0
   -1.6379    0.8888    0.3361 C   0  0  0  0  0  0  0  0  0  0  0  0
   -1.6617   -1.5917    0.3789 C   0  0  0  0  0  0  0  0  0  0  0  0
   -2.2099   -2.5370    0.8654 C   0  0  0  0  0  0  0  0  0  0  0  0
   -0.9998   -0.4505   -3.9121 H   0  0  0  0  0  0  0  0  0  0  0  0
    0.2538   -0.4377    0.2072 H   0  0  0  0  0  0  0  0  0  0  0  0
   -2.6811    0.9460    0.0283 H   0  0  0  0  0  0  0  0  0  0  0  0
   -1.1052    1.7502   -0.0656 H   0  0  0  0  0  0  0  0  0  0  0  0
   -1.5907    0.9132    1.4243 H   0  0  0  0  0  0  0  0  0  0  0  0
   -2.6973   -3.3774    1.2979 H   0  0  0  0  0  0  0  0  0  0  0  0
    1.9544   -1.4443    1.3732 C   0  0  0  0  0  0  0  0  0  0  0  0
    1.4950   -0.4646    0.5965 C   0  0  0  0  0  0  0  0  0  0  0  0
    1.8005    0.9293    0.8588 C   0  0  0  0  0  0  0  0  0  0  0  0
    1.2891    2.1789   -0.0255 S   0  0  0  0  0  0  0  0  0  0  0  0
    2.5776   -1.2338    2.2353 H   0  0  0  0  0  0  0  0  0  0  0  0
    1.7236   -2.4826    1.1731 H   0  0  0  0  0  0  0  0  0  0  0  0
    2.4293    1.1052    1.7334 H   0  0  0  0  0  0  0  0  0  0  0  0
  1  2  3  0
  1  7  1  0
  2  3  1  0
  3  4  1  0
  3  5  1  0
  4  9  1  0
  4 10  1  0
  4 11  1  0
  5  6  3  0
  6 12  1  0
  8 14  1  0
 13 14  2  3
 13 17  1  0
 13 18  1  0
 14 15  1  0
 15 16  2  0
 15 19  1  0
M  RAD  1   3   2
M  END
>  <reaction>  (11) 
rxn_1418

>  <mol_properties>  (11) 
{"1": {"label": "*0", "atom_type": "Ct"}, "2": {"label": "*1", "atom_type": "Cs"}, "7": {"label": "*2", "atom_type": "H0"}, "13": {"label": "*3", "atom_type": "Cdd"}, "14": {"label": "*4", "atom_type": "Cd"}}

>  <type>  (11) 
unop_7

>  <geom_source>  (11) 
Heuristics

$$$$

     RDKit          3D

 19 17  0  0  0  0  0  0  0  0999 V2000
   -0.8955    0.6624   -3.1518 C   0  0  0  0  0  0  0  0  0  0  0  0
   -0.8955    0.6624   -1.9556 C   0  0  0  0  0  0  0  0  0  0  0  0
   -0.8955    0.7025   -0.4891 C   0  0  0  0  0  3  0  0  0  0  0  0
   -1.5336    2.0017    0.0329 C   0  0  0  0  0  0  0  0  0  0  0  0
   -1.5574   -0.4787    0.0757 C   0  0  0  0  0  0  0  0  0  0  0  0
   -2.1056   -1.4240    0.5622 C   0  0  0  0  0  0  0  0  0  0  0  0
   -0.8955    0.6624   -4.2152 H   0  0  0  0  0  0  0  0  0  0  0  0
    0.3580    0.6753   -0.0959 H   0  0  0  0  0  0  0  0  0  0  0  0
   -2.5768    2.0590   -0.2748 H   0  0  0  0  0  0  0  0  0  0  0  0
   -1.0010    2.8632   -0.3687 H   0  0  0  0  0  0  0  0  0  0  0  0
   -1.4864    2.0262    1.1211 H   0  0  0  0  0  0  0  0  0  0  0  0
   -2.5931   -2.2644    0.9947 H   0  0  0  0  0  0  0  0  0  0  0  0
    2.2929    1.7717    0.4690 C   0  0  0  0  0  0  0  0  0  0  0  0
    1.5993    0.6483    0.2933 C   0  0  0  0  0  0  0  0  0  0  0  0
    1.6868   -0.4607    1.2248 C   0  0  0  0  0  0  0  0  0  0  0  0
    0.8856   -1.8555    1.0928 S   0  0  0  0  0  0  0  0  0  0  0  0
    2.9525    1.8987    1.3203 H   0  0  0  0  0  0  0  0  0  0  0  0
    2.2241    2.5961   -0.2289 H   0  0  0  0  0  0  0  0  0  0  0  0
    2.3591   -0.2994    2.0694 H   0  0  0  0  0  0  0  0  0  0  0  0
  1  2  3  0
  1  7  1  0
  2  3  1  0
  3  4  1  0
  3  5  1  0
  4  9  1  0
  4 10  1  0
  4 11  1  0
  5  6  3  0
  6 12  1  0
  8 14  1  0
 13 14  2  3
 13 17  1  0
 13 18  1  0
 14 15  1  0
 15 16  2  0
 15 19  1  0
M  RAD  1   3   2
M  END
>  <reaction>  (12) 
rxn_1418

>  <mol_properties>  (12) 
{"1": {"label": "*0", "atom_type": "Ct"}, "2": {"label": "*1", "atom_type": "Cs"}, "7": {"label": "*2", "atom_type": "H0"}, "13": {"label": "*3", "atom_type": "Cdd"}, "14": {"label": "*4", "atom_type": "Cd"}}

>  <type>  (12) 
unop_8

>  <geom_source>  (12) 
Heuristics

$$$$

     RDKit          3D

 19 17  0  0  0  0  0  0  0  0999 V2000
   -0.8982   -0.0570   -3.4309 C   0  0  0  0  0  0  0  0  0  0  0  0
   -0.8982   -0.0570   -2.2348 C   0  0  0  0  0  0  0  0  0  0  0  0
   -0.8982   -0.0170   -0.7682 C   0  0  0  0  0  3  0  0  0  0  0  0
   -1.5362    1.2822   -0.2462 C   0  0  0  0  0  0  0  0  0  0  0  0
   -1.5600   -1.1982   -0.2034 C   0  0  0  0  0  0  0  0  0  0  0  0
   -2.1083   -2.1435    0.2831 C   0  0  0  0  0  0  0  0  0  0  0  0
   -0.8982   -0.0570   -4.4944 H   0  0  0  0  0  0  0  0  0  0  0  0
    0.3554   -0.0442   -0.3751 H   0  0  0  0  0  0  0  0  0  0  0  0
   -2.5795    1.3395   -0.5540 H   0  0  0  0  0  0  0  0  0  0  0  0
   -1.0036    2.1437   -0.6479 H   0  0  0  0  0  0  0  0  0  0  0  0
   -1.4890    1.3067    0.8420 H   0  0  0  0  0  0  0  0  0  0  0  0
   -2.5957   -2.9839    0.7156 H   0  0  0  0  0  0  0  0  0  0  0  0
    2.5328   -0.6890   -0.7041 C   0  0  0  0  0  0  0  0  0  0  0  0
    1.5966   -0.0712    0.0142 C   0  0  0  0  0  0  0  0  0  0  0  0
    1.8003    0.2679    1.4102 C   0  0  0  0  0  0  0  0  0  0  0  0
    0.7258    1.0139    2.3555 S   0  0  0  0  0  0  0  0  0  0  0  0
    3.4873   -0.9626   -0.2684 H   0  0  0  0  0  0  0  0  0  0  0  0
    2.3758   -0.9397   -1.7452 H   0  0  0  0  0  0  0  0  0  0  0  0
    2.7712   -0.0217    1.8164 H   0  0  0  0  0  0  0  0  0  0  0  0
  1  2  3  0
  1  7  1  0
  2  3  1  0
  3  4  1  0
  3  5  1  0
  4  9  1  0
  4 10  1  0
  4 11  1  0
  5  6  3  0
  6 12  1  0
  8 14  1  0
 13 14  2  3
 13 17  1  0
 13 18  1  0
 14 15  1  0
 15 16  2  0
 15 19  1  0
M  RAD  1   3   2
M  END
>  <reaction>  (13) 
rxn_1418

>  <mol_properties>  (13) 
{"1": {"label": "*0", "atom_type": "Ct"}, "2": {"label": "*1", "atom_type": "Cs"}, "7": {"label": "*2", "atom_type": "H0"}, "13": {"label": "*3", "atom_type": "Cdd"}, "14": {"label": "*4", "atom_type": "Cd"}}

>  <type>  (13) 
unop_9

>  <geom_source>  (13) 
Heuristics

$$$$

     RDKit          3D

 19 17  0  0  0  0  0  0  0  0999 V2000
   -0.8758    0.4974   -3.3423 C   0  0  0  0  0  0  0  0  0  0  0  0
   -0.8758    0.4974   -2.1461 C   0  0  0  0  0  0  0  0  0  0  0  0
   -0.8758    0.5375   -0.6795 C   0  0  0  0  0  3  0  0  0  0  0  0
   -1.5138    1.8367   -0.1575 C   0  0  0  0  0  0  0  0  0  0  0  0
   -1.5376   -0.6438   -0.1148 C   0  0  0  0  0  0  0  0  0  0  0  0
   -2.0859   -1.5891    0.3717 C   0  0  0  0  0  0  0  0  0  0  0  0
   -0.8758    0.4974   -4.4057 H   0  0  0  0  0  0  0  0  0  0  0  0
    0.3778    0.5102   -0.2864 H   0  0  0  0  0  0  0  0  0  0  0  0
   -2.5571    1.8939   -0.4653 H   0  0  0  0  0  0  0  0  0  0  0  0
   -0.9812    2.6981   -0.5592 H   0  0  0  0  0  0  0  0  0  0  0  0
   -1.4666    1.8611    0.9307 H   0  0  0  0  0  0  0  0  0  0  0  0
   -2.5733   -2.4295    0.8042 H   0  0  0  0  0  0  0  0  0  0  0  0
    2.4779    1.4342   -0.2604 C   0  0  0  0  0  0  0  0  0  0  0  0
    1.6190    0.4832    0.1029 C   0  0  0  0  0  0  0  0  0  0  0  0
    1.7191   -0.1924    1.3830 C   0  0  0  0  0  0  0  0  0  0  0  0
    0.7265   -1.3527    1.9057 S   0  0  0  0  0  0  0  0  0  0  0  0
    3.2884    1.7398    0.3920 H   0  0  0  0  0  0  0  0  0  0  0  0
    2.3988    1.9352   -1.2165 H   0  0  0  0  0  0  0  0  0  0  0  0
    2.5455    0.1393    2.0143 H   0  0  0  0  0  0  0  0  0  0  0  0
  1  2  3  0
  1  7  1  0
  2  3  1  0
  3  4  1  0
  3  5  1  0
  4  9  1  0
  4 10  1  0
  4 11  1  0
  5  6  3  0
  6 12  1  0
  8 14  1  0
 13 14  2  3
 13 17  1  0
 13 18  1  0
 14 15  1  0
 15 16  2  0
 15 19  1  0
M  RAD  1   3   2
M  END
>  <reaction>  (14) 
rxn_1418

>  <mol_properties>  (14) 
{"1": {"label": "*0", "atom_type": "Ct"}, "2": {"label": "*1", "atom_type": "Cs"}, "7": {"label": "*2", "atom_type": "H0"}, "13": {"label": "*3", "atom_type": "Cdd"}, "14": {"label": "*4", "atom_type": "Cd"}}

>  <type>  (14) 
unop_10

>  <geom_source>  (14) 
Heuristics

$$$$

     RDKit          3D

 19 17  0  0  0  0  0  0  0  0999 V2000
   -1.1275   -0.3232   -2.5430 C   0  0  0  0  0  0  0  0  0  0  0  0
   -1.1275   -0.3232   -1.3468 C   0  0  0  0  0  0  0  0  0  0  0  0
   -1.1275   -0.2831    0.1197 C   0  0  0  0  0  3  0  0  0  0  0  0
   -1.7655    1.0161    0.6417 C   0  0  0  0  0  0  0  0  0  0  0  0
   -1.7893   -1.4644    0.6845 C   0  0  0  0  0  0  0  0  0  0  0  0
   -2.3375   -2.4096    1.1710 C   0  0  0  0  0  0  0  0  0  0  0  0
   -1.1275   -0.3232   -3.6065 H   0  0  0  0  0  0  0  0  0  0  0  0
    0.1261   -0.3104    0.5128 H   0  0  0  0  0  0  0  0  0  0  0  0
   -2.8087    1.0734    0.3339 H   0  0  0  0  0  0  0  0  0  0  0  0
   -1.2329    1.8775    0.2401 H   0  0  0  0  0  0  0  0  0  0  0  0
   -1.7183    1.0405    1.7299 H   0  0  0  0  0  0  0  0  0  0  0  0
   -2.8250   -3.2501    1.6035 H   0  0  0  0  0  0  0  0  0  0  0  0
    1.7151   -0.8859    2.0650 C   0  0  0  0  0  0  0  0  0  0  0  0
    1.3674   -0.3373    0.9021 C   0  0  0  0  0  0  0  0  0  0  0  0
    2.0175    0.8552    0.3918 C   0  0  0  0  0  0  0  0  0  0  0  0
    1.6631    1.5870   -1.0024 S   0  0  0  0  0  0  0  0  0  0  0  0
    2.5019   -0.4581    2.6762 H   0  0  0  0  0  0  0  0  0  0  0  0
    1.2269   -1.7756    2.4411 H   0  0  0  0  0  0  0  0  0  0  0  0
    2.8042    1.2592    1.0316 H   0  0  0  0  0  0  0  0  0  0  0  0
  1  2  3  0
  1  7  1  0
  2  3  1  0
  3  4  1  0
  3  5  1  0
  4  9  1  0
  4 10  1  0
  4 11  1  0
  5  6  3  0
  6 12  1  0
  8 14  1  0
 13 14  2  3
 13 17  1  0
 13 18  1  0
 14 15  1  0
 15 16  2  0
 15 19  1  0
M  RAD  1   3   2
M  END
>  <reaction>  (15) 
rxn_1418

>  <mol_properties>  (15) 
{"1": {"label": "*0", "atom_type": "Ct"}, "2": {"label": "*1", "atom_type": "Cs"}, "7": {"label": "*2", "atom_type": "H0"}, "13": {"label": "*3", "atom_type": "Cdd"}, "14": {"label": "*4", "atom_type": "Cd"}}

>  <type>  (15) 
unop_11

>  <geom_source>  (15) 
Heuristics

$$$$

     RDKit          3D

 19 17  0  0  0  0  0  0  0  0999 V2000
   -0.9004    0.1236   -3.4654 C   0  0  0  0  0  0  0  0  0  0  0  0
   -0.9004    0.1236   -2.2692 C   0  0  0  0  0  0  0  0  0  0  0  0
   -0.9004    0.1636   -0.8027 C   0  0  0  0  0  3  0  0  0  0  0  0
   -1.5385    1.4629   -0.2807 C   0  0  0  0  0  0  0  0  0  0  0  0
   -1.5623   -1.0176   -0.2379 C   0  0  0  0  0  0  0  0  0  0  0  0
   -2.1105   -1.9629    0.2486 C   0  0  0  0  0  0  0  0  0  0  0  0
   -0.9004    0.1236   -4.5289 H   0  0  0  0  0  0  0  0  0  0  0  0
    0.3531    0.1364   -0.4096 H   0  0  0  0  0  0  0  0  0  0  0  0
   -2.5817    1.5201   -0.5885 H   0  0  0  0  0  0  0  0  0  0  0  0
   -1.0059    2.3243   -0.6824 H   0  0  0  0  0  0  0  0  0  0  0  0
   -1.4913    1.4873    0.8075 H   0  0  0  0  0  0  0  0  0  0  0  0
   -2.5980   -2.8033    0.6811 H   0  0  0  0  0  0  0  0  0  0  0  0
    2.5933    0.0551   -0.8997 C   0  0  0  0  0  0  0  0  0  0  0  0
    1.5944    0.1094   -0.0203 C   0  0  0  0  0  0  0  0  0  0  0  0
    1.8330    0.1413    1.4106 C   0  0  0  0  0  0  0  0  0  0  0  0
    0.6881    0.2070    2.5461 S   0  0  0  0  0  0  0  0  0  0  0  0
    3.6279    0.0326   -0.5756 H   0  0  0  0  0  0  0  0  0  0  0  0
    2.4098    0.0315   -1.9660 H   0  0  0  0  0  0  0  0  0  0  0  0
    2.8847    0.1174    1.7016 H   0  0  0  0  0  0  0  0  0  0  0  0
  1  2  3  0
  1  7  1  0
  2  3  1  0
  3  4  1  0
  3  5  1  0
  4  9  1  0
  4 10  1  0
  4 11  1  0
  5  6  3  0
  6 12  1  0
  8 14  1  0
 13 14  2  3
 13 17  1  0
 13 18  1  0
 14 15  1  0
 15 16  2  0
 15 19  1  0
M  RAD  1   3   2
M  END
>  <reaction>  (16) 
rxn_1418

>  <mol_properties>  (16) 
{"1": {"label": "*0", "atom_type": "Ct"}, "2": {"label": "*1", "atom_type": "Cs"}, "7": {"label": "*2", "atom_type": "H0"}, "13": {"label": "*3", "atom_type": "Cdd"}, "14": {"label": "*4", "atom_type": "Cd"}}

>  <type>  (16) 
unop_12

>  <geom_source>  (16) 
Heuristics

$$$$

     RDKit          3D

 19 17  0  0  0  0  0  0  0  0999 V2000
    2.5233    2.1136    1.1864 S   0  0  0  0  0  0  0  0  0  0  0  0
   -1.2918   -1.7194    0.1061 C   0  0  0  0  0  0  0  0  0  0  0  0
   -0.7616   -0.3302    0.4490 C   0  0  0  0  0  3  0  0  0  0  0  0
    1.5619    0.2397   -0.4837 C   0  0  0  0  0  0  0  0  0  0  0  0
    2.6108    1.2176   -0.1766 C   0  0  0  0  0  0  0  0  0  0  0  0
    1.6109   -0.5008   -1.5862 C   0  0  0  0  0  0  0  0  0  0  0  0
   -1.1166    0.0360    1.8255 C   0  0  0  0  0  0  0  0  0  0  0  0
   -1.2928    0.6728   -0.4819 C   0  0  0  0  0  0  0  0  0  0  0  0
   -1.4068    0.3361    2.9568 C   0  0  0  0  0  0  0  0  0  0  0  0
   -1.7278    1.4964   -1.2478 C   0  0  0  0  0  0  0  0  0  0  0  0
   -0.8599   -2.4707    0.8011 H   0  0  0  0  0  0  0  0  0  0  0  0
   -0.9919   -1.9936   -0.9278 H   0  0  0  0  0  0  0  0  0  0  0  0
   -2.4010   -1.7509    0.1821 H   0  0  0  0  0  0  0  0  0  0  0  0
    0.6124    0.0980    0.2943 H   0  0  0  0  0  0  0  0  0  0  0  0
    3.4509    1.3566   -0.8457 H   0  0  0  0  0  0  0  0  0  0  0  0
    2.4272   -0.4046   -2.2916 H   0  0  0  0  0  0  0  0  0  0  0  0
    0.8244   -1.2152   -1.7896 H   0  0  0  0  0  0  0  0  0  0  0  0
   -1.6616    0.5994    3.9496 H   0  0  0  0  0  0  0  0  0  0  0  0
   -2.1098    2.2192   -1.9198 H   0  0  0  0  0  0  0  0  0  0  0  0
  1  5  2  0
  2  3  1  0
  2 11  1  0
  2 12  1  0
  2 13  1  0
  3  7  1  0
  3  8  1  0
  4  6  2  3
  4  5  1  0
  4 14  1  0
  5 15  1  0
  6 16  1  0
  6 17  1  0
  7  9  3  0
  8 10  3  0
  9 18  1  0
 10 19  1  0
M  RAD  1   3   2
M  END
>  <reaction>  (17) 
rxn_1418

>  <mol_properties>  (17) 
{"1": {"label": "*0", "atom_type": "Ct"}, "2": {"label": "*1", "atom_type": "Cs"}, "7": {"label": "*2", "atom_type": "H0"}, "13": {"label": "*3", "atom_type": "Cdd"}, "14": {"label": "*4", "atom_type": "Cd"}}

>  <type>  (17) 
unop_13

>  <geom_source>  (17) 
AutoTST

$$$$
