
     RDKit          3D

 18 18  0  0  0  0  0  0  0  0999 V2000
   -2.4852    0.3210   -0.3966 C   0  0  0  0  0  0  0  0  0  0  0  0
   -1.5917   -0.2708    0.6941 C   0  0  0  0  0  0  0  0  0  0  0  0
   -0.1292   -0.1692    0.3493 C   0  0  0  0  0  0  0  0  0  0  0  0
    0.6099    0.9558    0.7015 C   0  0  0  0  0  0  0  0  0  0  0  0
    1.9447    1.0728    0.3458 C   0  0  0  0  0  0  0  0  0  0  0  0
    2.5646    0.0613   -0.3720 C   0  0  0  0  0  0  0  0  0  0  0  0
    1.8399   -1.0657   -0.7287 C   0  0  0  0  0  0  0  0  0  0  0  0
    0.5055   -1.1769   -0.3700 C   0  0  0  0  0  0  0  0  0  0  0  0
   -2.3325   -0.1971   -1.3452 H   0  0  0  0  0  0  0  0  0  0  0  0
   -2.2554    1.3763   -0.5546 H   0  0  0  0  0  0  0  0  0  0  0  0
   -3.5397    0.2376   -0.1280 H   0  0  0  0  0  0  0  0  0  0  0  0
   -1.7801    0.2462    1.6380 H   0  0  0  0  0  0  0  0  0  0  0  0
   -1.8568   -1.3190    0.8516 H   0  0  0  0  0  0  0  0  0  0  0  0
    0.1327    1.7497    1.2656 H   0  0  0  0  0  0  0  0  0  0  0  0
    2.5033    1.9550    0.6330 H   0  0  0  0  0  0  0  0  0  0  0  0
    3.6077    0.1491   -0.6484 H   0  0  0  0  0  0  0  0  0  0  0  0
    2.3163   -1.8632   -1.2854 H   0  0  0  0  0  0  0  0  0  0  0  0
   -0.0540   -2.0629   -0.6500 H   0  0  0  0  0  0  0  0  0  0  0  0
  1  2  1  0
  1  9  1  0
  1 10  1  0
  1 11  1  0
  2  3  1  0
  2 12  1  0
  2 13  1  0
  3  4  2  0
  3  8  1  0
  4  5  1  0
  4 14  1  0
  5  6  2  0
  5 15  1  0
  6  7  1  0
  6 16  1  0
  7  8  2  0
  7 17  1  0
  8 18  1  0
M  END
>  <reaction>  (1) 
rxn_1502

>  <mol_properties>  (1) 
{"1": {"label": "donator", "atom_type": "Cs"}, "11": {"label": "d_hydrogen", "atom_type": "H0"}}

>  <type>  (1) 
r1h

$$$$

     RDKit          3D

  6  5  0  0  0  0  0  0  0  0999 V2000
   -0.7309   -0.0987    0.0327 C   0  0  0  0  0  0  0  0  0  0  0  0
    0.6208    0.0065   -0.0096 C   0  0  0  0  0  0  0  0  0  0  0  0
    1.6572   -1.2972    0.2837 S   0  0  0  0  0  1  0  0  0  0  0  0
   -1.3651    0.7588   -0.1608 H   0  0  0  0  0  0  0  0  0  0  0  0
   -1.2044   -1.0453    0.2616 H   0  0  0  0  0  0  0  0  0  0  0  0
    1.0609    0.9725   -0.2426 H   0  0  0  0  0  0  0  0  0  0  0  0
  1  2  2  3
  1  4  1  0
  1  5  1  0
  2  3  1  0
  2  6  1  0
M  RAD  1   3   2
M  END
>  <reaction>  (2) 
rxn_1502

>  <mol_properties>  (2) 
{"0": {"label": "acceptor", "atom_type": "Cs"}}

>  <type>  (2) 
r2

$$$$

     RDKit          3D

  7  6  0  0  0  0  0  0  0  0999 V2000
   -0.6782    0.0507    0.0301 C   0  0  0  0  0  0  0  0  0  0  0  0
    0.8092    0.0996    0.0213 C   0  0  0  0  0  0  0  0  0  0  0  0
    1.7473    0.7521    1.1507 S   0  0  0  0  0  0  0  0  0  0  0  0
   -1.0667    0.5456   -0.8653 H   0  0  0  0  0  0  0  0  0  0  0  0
   -1.0112   -0.9904   -0.0239 H   0  0  0  0  0  0  0  0  0  0  0  0
   -1.0920    0.5225    0.9188 H   0  0  0  0  0  0  0  0  0  0  0  0
    1.2740   -0.3620   -0.8520 H   0  0  0  0  0  0  0  0  0  0  0  0
  1  2  1  0
  1  4  1  0
  1  5  1  0
  1  6  1  0
  2  3  2  0
  2  7  1  0
M  END
>  <reaction>  (3) 
rxn_1502

>  <mol_properties>  (3) 
{"0": {"label": "acceptor", "atom_type": "Cs"}, "6": {"label": "a_hydrogen", "atom_type": "H0"}}

>  <type>  (3) 
r2h

$$$$

     RDKit          3D

 24 23  0  0  0  0  0  0  0  0999 V2000
   -0.2445   -2.1293    0.7932 C   0  0  0  0  0  0  0  0  0  0  0  0
   -1.4419   -2.1824    0.0134 C   0  0  0  0  0  0  0  0  0  0  0  0
   -2.6531   -1.0810    0.0527 S   0  0  0  0  0  0  0  0  0  0  0  0
    0.2929   -3.0670    0.9181 H   0  0  0  0  0  0  0  0  0  0  0  0
   -0.2804   -1.5011    1.6797 H   0  0  0  0  0  0  0  0  0  0  0  0
   -1.5079   -3.0054   -0.6988 H   0  0  0  0  0  0  0  0  0  0  0  0
    0.8750   -0.8558   -2.0377 C   0  0  0  0  0  0  0  0  0  0  0  0
    1.4338   -0.6105   -0.6659 C   0  0  0  0  0  0  0  0  0  0  0  0
    1.2921    0.6925   -0.0208 C   0  0  0  0  0  0  0  0  0  0  0  0
    0.2669    1.5810   -0.3612 C   0  0  0  0  0  3  0  0  0  0  0  0
    0.1282    2.7873    0.3021 C   0  0  0  0  0  0  0  0  0  0  0  0
    1.0041    3.1327    1.3209 C   0  0  0  0  0  0  0  0  0  0  0  0
    2.0244    2.2594    1.6745 C   0  0  0  0  0  0  0  0  0  0  0  0
    2.1640    1.0538    1.0134 C   0  0  0  0  0  0  0  0  0  0  0  0
    1.3147   -0.1695   -2.7667 H   0  0  0  0  0  0  0  0  0  0  0  0
   -0.2081   -0.7151   -2.0640 H   0  0  0  0  0  0  0  0  0  0  0  0
    1.0843   -1.8753   -2.3621 H   0  0  0  0  0  0  0  0  0  0  0  0
    0.6052   -1.4335    0.0877 H   0  0  0  0  0  0  0  0  0  0  0  0
    2.3899   -1.0926   -0.4711 H   0  0  0  0  0  0  0  0  0  0  0  0
   -0.4337    1.3226   -1.1442 H   0  0  0  0  0  0  0  0  0  0  0  0
   -0.6736    3.4602    0.0260 H   0  0  0  0  0  0  0  0  0  0  0  0
    0.8919    4.0766    1.8387 H   0  0  0  0  0  0  0  0  0  0  0  0
    2.7127    2.5217    2.4680 H   0  0  0  0  0  0  0  0  0  0  0  0
    2.9624    0.3754    1.2926 H   0  0  0  0  0  0  0  0  0  0  0  0
  1  2  1  0
  1  4  1  0
  1  5  1  0
  1 18  1  0
  2  3  2  0
  2  6  1  0
  7  8  1  0
  7 15  1  0
  7 16  1  0
  7 17  1  0
  8  9  2  3
  8 19  1  0
  9 10  1  0
  9 14  1  0
 10 11  1  0
 10 20  1  0
 11 12  2  0
 11 21  1  0
 12 13  1  0
 12 22  1  0
 13 14  2  0
 13 23  1  0
 14 24  1  0
M  RAD  1  10   2
M  END
>  <reaction>  (4) 
rxn_1502

>  <mol_properties>  (4) 
{"0": {"label": "*1", "atom_type": "Cs"}, "1": {"label": "*0", "atom_type": "CS"}, "7": {"label": "*3", "atom_type": "Cd"}, "8": {"label": "*4", "atom_type": "Cd"}, "17": {"label": "*2", "atom_type": "H0"}}

>  <type>  (4) 
ts

$$$$

     RDKit          3D

 24 23  0  0  0  0  0  0  0  0999 V2000
   -1.3008   -1.5481   -0.0976 C   0  0  0  0  0  0  0  0  0  0  0  0
   -0.8645   -2.7058    0.7294 C   0  0  0  0  0  0  0  0  0  0  0  0
   -1.7457   -3.9969    1.1008 S   0  0  0  0  0  1  0  0  0  0  0  0
   -1.2109   -0.6263    0.4855 H   0  0  0  0  0  0  0  0  0  0  0  0
   -2.3253   -1.6639   -0.4449 H   0  0  0  0  0  0  0  0  0  0  0  0
    0.1590   -2.6374    1.1031 H   0  0  0  0  0  0  0  0  0  0  0  0
    0.8048   -0.2470   -2.4989 C   0  0  0  0  0  0  0  0  0  0  0  0
    0.8048   -0.2470   -0.9698 C   0  0  0  0  0  0  0  0  0  0  0  0
    0.8048    1.1473   -0.4004 C   0  0  0  0  0  0  0  0  0  0  0  0
   -0.3897    1.8162   -0.1526 C   0  0  0  0  0  0  0  0  0  0  0  0
   -0.3930    3.1164    0.3283 C   0  0  0  0  0  0  0  0  0  0  0  0
    0.8048    3.7718    0.5701 C   0  0  0  0  0  0  0  0  0  0  0  0
    2.0026    3.1164    0.3283 C   0  0  0  0  0  0  0  0  0  0  0  0
    1.9994    1.8162   -0.1526 C   0  0  0  0  0  0  0  0  0  0  0  0
    1.6861    0.2680   -2.8857 H   0  0  0  0  0  0  0  0  0  0  0  0
   -0.0764    0.2680   -2.8857 H   0  0  0  0  0  0  0  0  0  0  0  0
    0.8048   -1.2654   -2.8912 H   0  0  0  0  0  0  0  0  0  0  0  0
   -0.2471   -0.8970   -0.5340 H   0  0  0  0  0  0  0  0  0  0  0  0
    1.6815   -0.7887   -0.6067 H   0  0  0  0  0  0  0  0  0  0  0  0
   -1.3306    1.3090   -0.3364 H   0  0  0  0  0  0  0  0  0  0  0  0
   -1.3337    3.6181    0.5182 H   0  0  0  0  0  0  0  0  0  0  0  0
    0.8048    4.7861    0.9485 H   0  0  0  0  0  0  0  0  0  0  0  0
    2.9434    3.6181    0.5182 H   0  0  0  0  0  0  0  0  0  0  0  0
    2.9403    1.3090   -0.3364 H   0  0  0  0  0  0  0  0  0  0  0  0
  1  2  2  3
  1  4  1  0
  1  5  1  0
  2  3  1  0
  2  6  1  0
  7  8  1  0
  7 15  1  0
  7 16  1  0
  7 17  1  0
  8  9  1  0
  8 18  1  0
  8 19  1  0
  9 10  2  0
  9 14  1  0
 10 11  1  0
 10 20  1  0
 11 12  2  0
 11 21  1  0
 12 13  1  0
 12 22  1  0
 13 14  2  0
 13 23  1  0
 14 24  1  0
M  RAD  1   3   2
M  END
>  <reaction>  (5) 
rxn_1502

>  <mol_properties>  (5) 
{"0": {"label": "*1", "atom_type": "Cs"}, "1": {"label": "*0", "atom_type": "CS"}, "7": {"label": "*3", "atom_type": "Cd"}, "8": {"label": "*4", "atom_type": "Cd"}, "17": {"label": "*2", "atom_type": "H0"}}

>  <type>  (5) 
unop_1

>  <geom_source>  (5) 
Heuristics

$$$$

     RDKit          3D

 24 23  0  0  0  0  0  0  0  0999 V2000
   -0.9644   -1.7390    0.5505 C   0  0  0  0  0  0  0  0  0  0  0  0
   -1.3394   -2.7948   -0.4290 C   0  0  0  0  0  0  0  0  0  0  0  0
   -2.8308   -3.2010   -0.8673 S   0  0  0  0  0  1  0  0  0  0  0  0
   -0.3758   -2.1820    1.3598 H   0  0  0  0  0  0  0  0  0  0  0  0
   -1.8401   -1.2424    0.9631 H   0  0  0  0  0  0  0  0  0  0  0  0
   -0.4939   -3.3240   -0.8727 H   0  0  0  0  0  0  0  0  0  0  0  0
    1.1412   -0.4380   -1.8509 C   0  0  0  0  0  0  0  0  0  0  0  0
    1.1412   -0.4380   -0.3218 C   0  0  0  0  0  0  0  0  0  0  0  0
    1.1412    0.9563    0.2476 C   0  0  0  0  0  0  0  0  0  0  0  0
   -0.0533    1.6253    0.4954 C   0  0  0  0  0  0  0  0  0  0  0  0
   -0.0566    2.9255    0.9763 C   0  0  0  0  0  0  0  0  0  0  0  0
    1.1412    3.5808    1.2181 C   0  0  0  0  0  0  0  0  0  0  0  0
    2.3390    2.9255    0.9763 C   0  0  0  0  0  0  0  0  0  0  0  0
    2.3357    1.6253    0.4954 C   0  0  0  0  0  0  0  0  0  0  0  0
    2.0225    0.0771   -2.2377 H   0  0  0  0  0  0  0  0  0  0  0  0
    0.2599    0.0771   -2.2377 H   0  0  0  0  0  0  0  0  0  0  0  0
    1.1412   -1.4564   -2.2432 H   0  0  0  0  0  0  0  0  0  0  0  0
    0.0893   -1.0880    0.1140 H   0  0  0  0  0  0  0  0  0  0  0  0
    2.0179   -0.9796    0.0414 H   0  0  0  0  0  0  0  0  0  0  0  0
   -0.9942    1.1181    0.3116 H   0  0  0  0  0  0  0  0  0  0  0  0
   -0.9974    3.4272    1.1662 H   0  0  0  0  0  0  0  0  0  0  0  0
    1.1412    4.5952    1.5965 H   0  0  0  0  0  0  0  0  0  0  0  0
    3.2798    3.4272    1.1662 H   0  0  0  0  0  0  0  0  0  0  0  0
    3.2766    1.1181    0.3116 H   0  0  0  0  0  0  0  0  0  0  0  0
  1  2  2  3
  1  4  1  0
  1  5  1  0
  2  3  1  0
  2  6  1  0
  7  8  1  0
  7 15  1  0
  7 16  1  0
  7 17  1  0
  8  9  1  0
  8 18  1  0
  8 19  1  0
  9 10  2  0
  9 14  1  0
 10 11  1  0
 10 20  1  0
 11 12  2  0
 11 21  1  0
 12 13  1  0
 12 22  1  0
 13 14  2  0
 13 23  1  0
 14 24  1  0
M  RAD  1   3   2
M  END
>  <reaction>  (6) 
rxn_1502

>  <mol_properties>  (6) 
{"0": {"label": "*1", "atom_type": "Cs"}, "1": {"label": "*0", "atom_type": "CS"}, "7": {"label": "*3", "atom_type": "Cd"}, "8": {"label": "*4", "atom_type": "Cd"}, "17": {"label": "*2", "atom_type": "H0"}}

>  <type>  (6) 
unop_2

>  <geom_source>  (6) 
Heuristics

$$$$

     RDKit          3D

 24 23  0  0  0  0  0  0  0  0999 V2000
   -1.3128   -1.6784   -0.2663 C   0  0  0  0  0  0  0  0  0  0  0  0
   -1.0011   -2.3099    1.0446 C   0  0  0  0  0  0  0  0  0  0  0  0
   -1.6305   -3.6719    1.6194 S   0  0  0  0  0  1  0  0  0  0  0  0
   -1.6886   -0.6634   -0.1044 H   0  0  0  0  0  0  0  0  0  0  0  0
   -2.0445   -2.2552   -0.8280 H   0  0  0  0  0  0  0  0  0  0  0  0
   -0.2701   -1.7681    1.6478 H   0  0  0  0  0  0  0  0  0  0  0  0
    0.7929   -0.3773   -2.6677 C   0  0  0  0  0  0  0  0  0  0  0  0
    0.7929   -0.3773   -1.1386 C   0  0  0  0  0  0  0  0  0  0  0  0
    0.7929    1.0170   -0.5692 C   0  0  0  0  0  0  0  0  0  0  0  0
   -0.4016    1.6859   -0.3214 C   0  0  0  0  0  0  0  0  0  0  0  0
   -0.4049    2.9861    0.1595 C   0  0  0  0  0  0  0  0  0  0  0  0
    0.7929    3.6415    0.4013 C   0  0  0  0  0  0  0  0  0  0  0  0
    1.9907    2.9861    0.1595 C   0  0  0  0  0  0  0  0  0  0  0  0
    1.9874    1.6859   -0.3214 C   0  0  0  0  0  0  0  0  0  0  0  0
    1.6742    0.1377   -3.0545 H   0  0  0  0  0  0  0  0  0  0  0  0
   -0.0884    0.1377   -3.0545 H   0  0  0  0  0  0  0  0  0  0  0  0
    0.7929   -1.3957   -3.0600 H   0  0  0  0  0  0  0  0  0  0  0  0
   -0.2591   -1.0273   -0.7028 H   0  0  0  0  0  0  0  0  0  0  0  0
    1.6695   -0.9190   -0.7754 H   0  0  0  0  0  0  0  0  0  0  0  0
   -1.3425    1.1787   -0.5052 H   0  0  0  0  0  0  0  0  0  0  0  0
   -1.3457    3.4878    0.3494 H   0  0  0  0  0  0  0  0  0  0  0  0
    0.7929    4.6558    0.7797 H   0  0  0  0  0  0  0  0  0  0  0  0
    2.9315    3.4878    0.3494 H   0  0  0  0  0  0  0  0  0  0  0  0
    2.9283    1.1787   -0.5052 H   0  0  0  0  0  0  0  0  0  0  0  0
  1  2  2  3
  1  4  1  0
  1  5  1  0
  2  3  1  0
  2  6  1  0
  7  8  1  0
  7 15  1  0
  7 16  1  0
  7 17  1  0
  8  9  1  0
  8 18  1  0
  8 19  1  0
  9 10  2  0
  9 14  1  0
 10 11  1  0
 10 20  1  0
 11 12  2  0
 11 21  1  0
 12 13  1  0
 12 22  1  0
 13 14  2  0
 13 23  1  0
 14 24  1  0
M  RAD  1   3   2
M  END
>  <reaction>  (7) 
rxn_1502

>  <mol_properties>  (7) 
{"0": {"label": "*1", "atom_type": "Cs"}, "1": {"label": "*0", "atom_type": "CS"}, "7": {"label": "*3", "atom_type": "Cd"}, "8": {"label": "*4", "atom_type": "Cd"}, "17": {"label": "*2", "atom_type": "H0"}}

>  <type>  (7) 
unop_3

>  <geom_source>  (7) 
Heuristics

$$$$

     RDKit          3D

 24 23  0  0  0  0  0  0  0  0999 V2000
   -0.8556   -2.5089    0.1943 C   0  0  0  0  0  0  0  0  0  0  0  0
   -2.0922   -1.8456   -0.3012 C   0  0  0  0  0  0  0  0  0  0  0  0
   -2.9090   -0.6776    0.4404 S   0  0  0  0  0  1  0  0  0  0  0  0
   -1.0272   -3.5861    0.2823 H   0  0  0  0  0  0  0  0  0  0  0  0
   -0.5402   -2.1079    1.1553 H   0  0  0  0  0  0  0  0  0  0  0  0
   -2.4504   -2.2135   -1.2645 H   0  0  0  0  0  0  0  0  0  0  0  0
    1.2501   -1.2078   -2.2071 C   0  0  0  0  0  0  0  0  0  0  0  0
    1.2501   -1.2078   -0.6780 C   0  0  0  0  0  0  0  0  0  0  0  0
    1.2501    0.1865   -0.1085 C   0  0  0  0  0  0  0  0  0  0  0  0
    0.0556    0.8554    0.1392 C   0  0  0  0  0  0  0  0  0  0  0  0
    0.0523    2.1557    0.6201 C   0  0  0  0  0  0  0  0  0  0  0  0
    1.2501    2.8110    0.8619 C   0  0  0  0  0  0  0  0  0  0  0  0
    2.4479    2.1557    0.6201 C   0  0  0  0  0  0  0  0  0  0  0  0
    2.4446    0.8554    0.1392 C   0  0  0  0  0  0  0  0  0  0  0  0
    2.1314   -0.6927   -2.5939 H   0  0  0  0  0  0  0  0  0  0  0  0
    0.3688   -0.6927   -2.5939 H   0  0  0  0  0  0  0  0  0  0  0  0
    1.2501   -2.2262   -2.5994 H   0  0  0  0  0  0  0  0  0  0  0  0
    0.1981   -1.8578   -0.2422 H   0  0  0  0  0  0  0  0  0  0  0  0
    2.1267   -1.7495   -0.3148 H   0  0  0  0  0  0  0  0  0  0  0  0
   -0.8853    0.3483   -0.0445 H   0  0  0  0  0  0  0  0  0  0  0  0
   -0.8885    2.6574    0.8100 H   0  0  0  0  0  0  0  0  0  0  0  0
    1.2501    3.8254    1.2403 H   0  0  0  0  0  0  0  0  0  0  0  0
    3.3887    2.6574    0.8100 H   0  0  0  0  0  0  0  0  0  0  0  0
    3.3855    0.3483   -0.0445 H   0  0  0  0  0  0  0  0  0  0  0  0
  1  2  2  3
  1  4  1  0
  1  5  1  0
  2  3  1  0
  2  6  1  0
  7  8  1  0
  7 15  1  0
  7 16  1  0
  7 17  1  0
  8  9  1  0
  8 18  1  0
  8 19  1  0
  9 10  2  0
  9 14  1  0
 10 11  1  0
 10 20  1  0
 11 12  2  0
 11 21  1  0
 12 13  1  0
 12 22  1  0
 13 14  2  0
 13 23  1  0
 14 24  1  0
M  RAD  1   3   2
M  END
>  <reaction>  (8) 
rxn_1502

>  <mol_properties>  (8) 
{"0": {"label": "*1", "atom_type": "Cs"}, "1": {"label": "*0", "atom_type": "CS"}, "7": {"label": "*3", "atom_type": "Cd"}, "8": {"label": "*4", "atom_type": "Cd"}, "17": {"label": "*2", "atom_type": "H0"}}

>  <type>  (8) 
unop_4

>  <geom_source>  (8) 
Heuristics

$$$$

     RDKit          3D

 24 23  0  0  0  0  0  0  0  0999 V2000
   -1.3448   -1.8600   -0.3842 C   0  0  0  0  0  0  0  0  0  0  0  0
   -1.3485   -1.8623    1.1039 C   0  0  0  0  0  0  0  0  0  0  0  0
   -1.3533   -3.1577    2.0544 S   0  0  0  0  0  1  0  0  0  0  0  0
   -2.2190   -1.3142   -0.7523 H   0  0  0  0  0  0  0  0  0  0  0  0
   -1.3456   -2.8698   -0.7891 H   0  0  0  0  0  0  0  0  0  0  0  0
   -1.3478   -0.8704    1.5600 H   0  0  0  0  0  0  0  0  0  0  0  0
    0.7609   -0.5589   -2.7856 C   0  0  0  0  0  0  0  0  0  0  0  0
    0.7609   -0.5589   -1.2564 C   0  0  0  0  0  0  0  0  0  0  0  0
    0.7609    0.8354   -0.6870 C   0  0  0  0  0  0  0  0  0  0  0  0
   -0.4336    1.5043   -0.4393 C   0  0  0  0  0  0  0  0  0  0  0  0
   -0.4369    2.8045    0.0416 C   0  0  0  0  0  0  0  0  0  0  0  0
    0.7609    3.4599    0.2834 C   0  0  0  0  0  0  0  0  0  0  0  0
    1.9587    2.8045    0.0416 C   0  0  0  0  0  0  0  0  0  0  0  0
    1.9554    1.5043   -0.4393 C   0  0  0  0  0  0  0  0  0  0  0  0
    1.6422   -0.0439   -3.1724 H   0  0  0  0  0  0  0  0  0  0  0  0
   -0.1204   -0.0439   -3.1724 H   0  0  0  0  0  0  0  0  0  0  0  0
    0.7609   -1.5773   -3.1779 H   0  0  0  0  0  0  0  0  0  0  0  0
   -0.2911   -1.2089   -0.8207 H   0  0  0  0  0  0  0  0  0  0  0  0
    1.6375   -1.1006   -0.8933 H   0  0  0  0  0  0  0  0  0  0  0  0
   -1.3745    0.9971   -0.6230 H   0  0  0  0  0  0  0  0  0  0  0  0
   -1.3777    3.3062    0.2315 H   0  0  0  0  0  0  0  0  0  0  0  0
    0.7609    4.4742    0.6618 H   0  0  0  0  0  0  0  0  0  0  0  0
    2.8995    3.3062    0.2315 H   0  0  0  0  0  0  0  0  0  0  0  0
    2.8963    0.9971   -0.6230 H   0  0  0  0  0  0  0  0  0  0  0  0
  1  2  2  3
  1  4  1  0
  1  5  1  0
  2  3  1  0
  2  6  1  0
  7  8  1  0
  7 15  1  0
  7 16  1  0
  7 17  1  0
  8  9  1  0
  8 18  1  0
  8 19  1  0
  9 10  2  0
  9 14  1  0
 10 11  1  0
 10 20  1  0
 11 12  2  0
 11 21  1  0
 12 13  1  0
 12 22  1  0
 13 14  2  0
 13 23  1  0
 14 24  1  0
M  RAD  1   3   2
M  END
>  <reaction>  (9) 
rxn_1502

>  <mol_properties>  (9) 
{"0": {"label": "*1", "atom_type": "Cs"}, "1": {"label": "*0", "atom_type": "CS"}, "7": {"label": "*3", "atom_type": "Cd"}, "8": {"label": "*4", "atom_type": "Cd"}, "17": {"label": "*2", "atom_type": "H0"}}

>  <type>  (9) 
unop_5

>  <geom_source>  (9) 
Heuristics

$$$$

     RDKit          3D

 24 23  0  0  0  0  0  0  0  0999 V2000
   -0.9870   -2.5440   -0.0863 C   0  0  0  0  0  0  0  0  0  0  0  0
   -2.1242   -1.5985    0.0795 C   0  0  0  0  0  0  0  0  0  0  0  0
   -2.3959   -0.6483    1.3462 S   0  0  0  0  0  1  0  0  0  0  0  0
   -1.3717   -3.5570   -0.2400 H   0  0  0  0  0  0  0  0  0  0  0  0
   -0.3227   -2.5308    0.7752 H   0  0  0  0  0  0  0  0  0  0  0  0
   -2.8213   -1.5745   -0.7602 H   0  0  0  0  0  0  0  0  0  0  0  0
    1.1186   -1.2429   -2.4876 C   0  0  0  0  0  0  0  0  0  0  0  0
    1.1186   -1.2429   -0.9585 C   0  0  0  0  0  0  0  0  0  0  0  0
    1.1186    0.1514   -0.3891 C   0  0  0  0  0  0  0  0  0  0  0  0
   -0.0759    0.8203   -0.1414 C   0  0  0  0  0  0  0  0  0  0  0  0
   -0.0792    2.1205    0.3396 C   0  0  0  0  0  0  0  0  0  0  0  0
    1.1186    2.7759    0.5814 C   0  0  0  0  0  0  0  0  0  0  0  0
    2.3164    2.1205    0.3396 C   0  0  0  0  0  0  0  0  0  0  0  0
    2.3132    0.8203   -0.1414 C   0  0  0  0  0  0  0  0  0  0  0  0
    1.9999   -0.7279   -2.8744 H   0  0  0  0  0  0  0  0  0  0  0  0
    0.2374   -0.7279   -2.8744 H   0  0  0  0  0  0  0  0  0  0  0  0
    1.1186   -2.2613   -2.8799 H   0  0  0  0  0  0  0  0  0  0  0  0
    0.0667   -1.8929   -0.5228 H   0  0  0  0  0  0  0  0  0  0  0  0
    1.9953   -1.7846   -0.5954 H   0  0  0  0  0  0  0  0  0  0  0  0
   -1.0168    0.3131   -0.3251 H   0  0  0  0  0  0  0  0  0  0  0  0
   -1.0200    2.6222    0.5295 H   0  0  0  0  0  0  0  0  0  0  0  0
    1.1186    3.7902    0.9597 H   0  0  0  0  0  0  0  0  0  0  0  0
    3.2572    2.6222    0.5295 H   0  0  0  0  0  0  0  0  0  0  0  0
    3.2541    0.3131   -0.3251 H   0  0  0  0  0  0  0  0  0  0  0  0
  1  2  2  3
  1  4  1  0
  1  5  1  0
  2  3  1  0
  2  6  1  0
  7  8  1  0
  7 15  1  0
  7 16  1  0
  7 17  1  0
  8  9  1  0
  8 18  1  0
  8 19  1  0
  9 10  2  0
  9 14  1  0
 10 11  1  0
 10 20  1  0
 11 12  2  0
 11 21  1  0
 12 13  1  0
 12 22  1  0
 13 14  2  0
 13 23  1  0
 14 24  1  0
M  RAD  1   3   2
M  END
>  <reaction>  (10) 
rxn_1502

>  <mol_properties>  (10) 
{"0": {"label": "*1", "atom_type": "Cs"}, "1": {"label": "*0", "atom_type": "CS"}, "7": {"label": "*3", "atom_type": "Cd"}, "8": {"label": "*4", "atom_type": "Cd"}, "17": {"label": "*2", "atom_type": "H0"}}

>  <type>  (10) 
unop_6

>  <geom_source>  (10) 
Heuristics

$$$$

     RDKit          3D

 24 23  0  0  0  0  0  0  0  0999 V2000
   -1.1616   -2.4187   -0.3204 C   0  0  0  0  0  0  0  0  0  0  0  0
   -2.0019   -1.5106    0.5065 C   0  0  0  0  0  0  0  0  0  0  0  0
   -1.7827   -1.1610    2.0593 S   0  0  0  0  0  1  0  0  0  0  0  0
   -1.7827   -3.2213   -0.7301 H   0  0  0  0  0  0  0  0  0  0  0  0
   -0.3428   -2.8458    0.2548 H   0  0  0  0  0  0  0  0  0  0  0  0
   -2.8391   -1.0555   -0.0261 H   0  0  0  0  0  0  0  0  0  0  0  0
    0.9440   -1.1176   -2.7218 C   0  0  0  0  0  0  0  0  0  0  0  0
    0.9440   -1.1176   -1.1926 C   0  0  0  0  0  0  0  0  0  0  0  0
    0.9440    0.2766   -0.6232 C   0  0  0  0  0  0  0  0  0  0  0  0
   -0.2505    0.9456   -0.3755 C   0  0  0  0  0  0  0  0  0  0  0  0
   -0.2538    2.2458    0.1054 C   0  0  0  0  0  0  0  0  0  0  0  0
    0.9440    2.9012    0.3472 C   0  0  0  0  0  0  0  0  0  0  0  0
    2.1418    2.2458    0.1054 C   0  0  0  0  0  0  0  0  0  0  0  0
    2.1385    0.9456   -0.3755 C   0  0  0  0  0  0  0  0  0  0  0  0
    1.8253   -0.6026   -3.1086 H   0  0  0  0  0  0  0  0  0  0  0  0
    0.0627   -0.6026   -3.1086 H   0  0  0  0  0  0  0  0  0  0  0  0
    0.9440   -2.1361   -3.1141 H   0  0  0  0  0  0  0  0  0  0  0  0
   -0.1080   -1.7677   -0.7569 H   0  0  0  0  0  0  0  0  0  0  0  0
    1.8206   -1.6593   -0.8295 H   0  0  0  0  0  0  0  0  0  0  0  0
   -1.1914    0.4384   -0.5592 H   0  0  0  0  0  0  0  0  0  0  0  0
   -1.1946    2.7475    0.2953 H   0  0  0  0  0  0  0  0  0  0  0  0
    0.9440    3.9155    0.7256 H   0  0  0  0  0  0  0  0  0  0  0  0
    3.0826    2.7475    0.2953 H   0  0  0  0  0  0  0  0  0  0  0  0
    3.0794    0.4384   -0.5592 H   0  0  0  0  0  0  0  0  0  0  0  0
  1  2  2  3
  1  4  1  0
  1  5  1  0
  2  3  1  0
  2  6  1  0
  7  8  1  0
  7 15  1  0
  7 16  1  0
  7 17  1  0
  8  9  1  0
  8 18  1  0
  8 19  1  0
  9 10  2  0
  9 14  1  0
 10 11  1  0
 10 20  1  0
 11 12  2  0
 11 21  1  0
 12 13  1  0
 12 22  1  0
 13 14  2  0
 13 23  1  0
 14 24  1  0
M  RAD  1   3   2
M  END
>  <reaction>  (11) 
rxn_1502

>  <mol_properties>  (11) 
{"0": {"label": "*1", "atom_type": "Cs"}, "1": {"label": "*0", "atom_type": "CS"}, "7": {"label": "*3", "atom_type": "Cd"}, "8": {"label": "*4", "atom_type": "Cd"}, "17": {"label": "*2", "atom_type": "H0"}}

>  <type>  (11) 
unop_7

>  <geom_source>  (11) 
Heuristics

$$$$

     RDKit          3D

 24 23  0  0  0  0  0  0  0  0999 V2000
   -1.2442   -1.4831    0.1364 C   0  0  0  0  0  0  0  0  0  0  0  0
   -0.9073   -2.9231    0.3021 C   0  0  0  0  0  0  0  0  0  0  0  0
   -1.9510   -4.1416    0.3887 S   0  0  0  0  0  1  0  0  0  0  0  0
   -0.8333   -0.9115    0.9743 H   0  0  0  0  0  0  0  0  0  0  0  0
   -2.3188   -1.3246    0.0762 H   0  0  0  0  0  0  0  0  0  0  0  0
    0.1616   -3.1352    0.3677 H   0  0  0  0  0  0  0  0  0  0  0  0
    0.8615   -0.1820   -2.2650 C   0  0  0  0  0  0  0  0  0  0  0  0
    0.8615   -0.1820   -0.7359 C   0  0  0  0  0  0  0  0  0  0  0  0
    0.8615    1.2123   -0.1665 C   0  0  0  0  0  0  0  0  0  0  0  0
   -0.3330    1.8812    0.0813 C   0  0  0  0  0  0  0  0  0  0  0  0
   -0.3363    3.1814    0.5622 C   0  0  0  0  0  0  0  0  0  0  0  0
    0.8615    3.8368    0.8040 C   0  0  0  0  0  0  0  0  0  0  0  0
    2.0593    3.1814    0.5622 C   0  0  0  0  0  0  0  0  0  0  0  0
    2.0560    1.8812    0.0813 C   0  0  0  0  0  0  0  0  0  0  0  0
    1.7428    0.3331   -2.6518 H   0  0  0  0  0  0  0  0  0  0  0  0
   -0.0198    0.3331   -2.6518 H   0  0  0  0  0  0  0  0  0  0  0  0
    0.8615   -1.2004   -2.6573 H   0  0  0  0  0  0  0  0  0  0  0  0
   -0.1905   -0.8320   -0.3001 H   0  0  0  0  0  0  0  0  0  0  0  0
    1.7381   -0.7237   -0.3727 H   0  0  0  0  0  0  0  0  0  0  0  0
   -1.2739    1.3741   -0.1025 H   0  0  0  0  0  0  0  0  0  0  0  0
   -1.2771    3.6831    0.7521 H   0  0  0  0  0  0  0  0  0  0  0  0
    0.8615    4.8511    1.1824 H   0  0  0  0  0  0  0  0  0  0  0  0
    3.0001    3.6831    0.7521 H   0  0  0  0  0  0  0  0  0  0  0  0
    2.9969    1.3741   -0.1025 H   0  0  0  0  0  0  0  0  0  0  0  0
  1  2  2  3
  1  4  1  0
  1  5  1  0
  2  3  1  0
  2  6  1  0
  7  8  1  0
  7 15  1  0
  7 16  1  0
  7 17  1  0
  8  9  1  0
  8 18  1  0
  8 19  1  0
  9 10  2  0
  9 14  1  0
 10 11  1  0
 10 20  1  0
 11 12  2  0
 11 21  1  0
 12 13  1  0
 12 22  1  0
 13 14  2  0
 13 23  1  0
 14 24  1  0
M  RAD  1   3   2
M  END
>  <reaction>  (12) 
rxn_1502

>  <mol_properties>  (12) 
{"0": {"label": "*1", "atom_type": "Cs"}, "1": {"label": "*0", "atom_type": "CS"}, "7": {"label": "*3", "atom_type": "Cd"}, "8": {"label": "*4", "atom_type": "Cd"}, "17": {"label": "*2", "atom_type": "H0"}}

>  <type>  (12) 
unop_8

>  <geom_source>  (12) 
Heuristics

$$$$

     RDKit          3D

 24 23  0  0  0  0  0  0  0  0999 V2000
   -0.8002   -2.3238    0.4403 C   0  0  0  0  0  0  0  0  0  0  0  0
   -1.9122   -2.1868   -0.5392 C   0  0  0  0  0  0  0  0  0  0  0  0
   -3.1979   -1.2344   -0.3935 S   0  0  0  0  0  1  0  0  0  0  0  0
   -0.7186   -3.3676    0.7588 H   0  0  0  0  0  0  0  0  0  0  0  0
   -0.9471   -1.6856    1.3091 H   0  0  0  0  0  0  0  0  0  0  0  0
   -1.8115   -2.8084   -1.4310 H   0  0  0  0  0  0  0  0  0  0  0  0
    1.3054   -1.0227   -1.9611 C   0  0  0  0  0  0  0  0  0  0  0  0
    1.3054   -1.0227   -0.4319 C   0  0  0  0  0  0  0  0  0  0  0  0
    1.3054    0.3715    0.1375 C   0  0  0  0  0  0  0  0  0  0  0  0
    0.1109    1.0405    0.3852 C   0  0  0  0  0  0  0  0  0  0  0  0
    0.1076    2.3407    0.8661 C   0  0  0  0  0  0  0  0  0  0  0  0
    1.3054    2.9961    1.1079 C   0  0  0  0  0  0  0  0  0  0  0  0
    2.5032    2.3407    0.8661 C   0  0  0  0  0  0  0  0  0  0  0  0
    2.4999    1.0405    0.3852 C   0  0  0  0  0  0  0  0  0  0  0  0
    2.1867   -0.5077   -2.3479 H   0  0  0  0  0  0  0  0  0  0  0  0
    0.4241   -0.5077   -2.3479 H   0  0  0  0  0  0  0  0  0  0  0  0
    1.3054   -2.0412   -2.3534 H   0  0  0  0  0  0  0  0  0  0  0  0
    0.2534   -1.6727    0.0038 H   0  0  0  0  0  0  0  0  0  0  0  0
    2.1820   -1.5644   -0.0688 H   0  0  0  0  0  0  0  0  0  0  0  0
   -0.8300    0.5333    0.2015 H   0  0  0  0  0  0  0  0  0  0  0  0
   -0.8332    2.8424    1.0560 H   0  0  0  0  0  0  0  0  0  0  0  0
    1.3054    4.0104    1.4863 H   0  0  0  0  0  0  0  0  0  0  0  0
    3.4440    2.8424    1.0560 H   0  0  0  0  0  0  0  0  0  0  0  0
    3.4408    0.5333    0.2015 H   0  0  0  0  0  0  0  0  0  0  0  0
  1  2  2  3
  1  4  1  0
  1  5  1  0
  2  3  1  0
  2  6  1  0
  7  8  1  0
  7 15  1  0
  7 16  1  0
  7 17  1  0
  8  9  1  0
  8 18  1  0
  8 19  1  0
  9 10  2  0
  9 14  1  0
 10 11  1  0
 10 20  1  0
 11 12  2  0
 11 21  1  0
 12 13  1  0
 12 22  1  0
 13 14  2  0
 13 23  1  0
 14 24  1  0
M  RAD  1   3   2
M  END
>  <reaction>  (13) 
rxn_1502

>  <mol_properties>  (13) 
{"0": {"label": "*1", "atom_type": "Cs"}, "1": {"label": "*0", "atom_type": "CS"}, "7": {"label": "*3", "atom_type": "Cd"}, "8": {"label": "*4", "atom_type": "Cd"}, "17": {"label": "*2", "atom_type": "H0"}}

>  <type>  (13) 
unop_9

>  <geom_source>  (13) 
Heuristics

$$$$

     RDKit          3D

 24 23  0  0  0  0  0  0  0  0999 V2000
   -1.1215   -1.5403    0.3801 C   0  0  0  0  0  0  0  0  0  0  0  0
   -1.0816   -2.9430   -0.1153 C   0  0  0  0  0  0  0  0  0  0  0  0
   -2.3463   -3.9034   -0.3590 S   0  0  0  0  0  1  0  0  0  0  0  0
   -0.5282   -1.4578    1.2961 H   0  0  0  0  0  0  0  0  0  0  0  0
   -2.1399   -1.2091    0.5717 H   0  0  0  0  0  0  0  0  0  0  0  0
   -0.0796   -3.3233   -0.3229 H   0  0  0  0  0  0  0  0  0  0  0  0
    0.9842   -0.2392   -2.0212 C   0  0  0  0  0  0  0  0  0  0  0  0
    0.9842   -0.2392   -0.4921 C   0  0  0  0  0  0  0  0  0  0  0  0
    0.9842    1.1551    0.0773 C   0  0  0  0  0  0  0  0  0  0  0  0
   -0.2103    1.8240    0.3251 C   0  0  0  0  0  0  0  0  0  0  0  0
   -0.2136    3.1242    0.8060 C   0  0  0  0  0  0  0  0  0  0  0  0
    0.9842    3.7796    1.0478 C   0  0  0  0  0  0  0  0  0  0  0  0
    2.1820    3.1242    0.8060 C   0  0  0  0  0  0  0  0  0  0  0  0
    2.1787    1.8240    0.3251 C   0  0  0  0  0  0  0  0  0  0  0  0
    1.8655    0.2759   -2.4080 H   0  0  0  0  0  0  0  0  0  0  0  0
    0.1029    0.2759   -2.4080 H   0  0  0  0  0  0  0  0  0  0  0  0
    0.9842   -1.2576   -2.4135 H   0  0  0  0  0  0  0  0  0  0  0  0
   -0.0678   -0.8892   -0.0563 H   0  0  0  0  0  0  0  0  0  0  0  0
    1.8608   -0.7809   -0.1290 H   0  0  0  0  0  0  0  0  0  0  0  0
   -1.1512    1.3169    0.1413 H   0  0  0  0  0  0  0  0  0  0  0  0
   -1.1544    3.6259    0.9959 H   0  0  0  0  0  0  0  0  0  0  0  0
    0.9842    4.7939    1.4261 H   0  0  0  0  0  0  0  0  0  0  0  0
    3.1228    3.6259    0.9959 H   0  0  0  0  0  0  0  0  0  0  0  0
    3.1196    1.3169    0.1413 H   0  0  0  0  0  0  0  0  0  0  0  0
  1  2  2  3
  1  4  1  0
  1  5  1  0
  2  3  1  0
  2  6  1  0
  7  8  1  0
  7 15  1  0
  7 16  1  0
  7 17  1  0
  8  9  1  0
  8 18  1  0
  8 19  1  0
  9 10  2  0
  9 14  1  0
 10 11  1  0
 10 20  1  0
 11 12  2  0
 11 21  1  0
 12 13  1  0
 12 22  1  0
 13 14  2  0
 13 23  1  0
 14 24  1  0
M  RAD  1   3   2
M  END
>  <reaction>  (14) 
rxn_1502

>  <mol_properties>  (14) 
{"0": {"label": "*1", "atom_type": "Cs"}, "1": {"label": "*0", "atom_type": "CS"}, "7": {"label": "*3", "atom_type": "Cd"}, "8": {"label": "*4", "atom_type": "Cd"}, "17": {"label": "*2", "atom_type": "H0"}}

>  <type>  (14) 
unop_10

>  <geom_source>  (14) 
Heuristics

$$$$

     RDKit          3D

 24 23  0  0  0  0  0  0  0  0999 V2000
   -1.3141   -2.1552   -0.4317 C   0  0  0  0  0  0  0  0  0  0  0  0
   -1.7394   -1.5939    0.8793 C   0  0  0  0  0  0  0  0  0  0  0  0
   -1.3090   -2.1323    2.3306 S   0  0  0  0  0  1  0  0  0  0  0  0
   -2.1962   -2.4540   -1.0063 H   0  0  0  0  0  0  0  0  0  0  0  0
   -0.6501   -3.0082   -0.3089 H   0  0  0  0  0  0  0  0  0  0  0  0
   -2.4083   -0.7340    0.8100 H   0  0  0  0  0  0  0  0  0  0  0  0
    0.7916   -0.8541   -2.8330 C   0  0  0  0  0  0  0  0  0  0  0  0
    0.7916   -0.8541   -1.3039 C   0  0  0  0  0  0  0  0  0  0  0  0
    0.7916    0.5402   -0.7345 C   0  0  0  0  0  0  0  0  0  0  0  0
   -0.4030    1.2091   -0.4868 C   0  0  0  0  0  0  0  0  0  0  0  0
   -0.4062    2.5094   -0.0058 C   0  0  0  0  0  0  0  0  0  0  0  0
    0.7916    3.1647    0.2359 C   0  0  0  0  0  0  0  0  0  0  0  0
    1.9894    2.5094   -0.0058 C   0  0  0  0  0  0  0  0  0  0  0  0
    1.9861    1.2091   -0.4868 C   0  0  0  0  0  0  0  0  0  0  0  0
    1.6728   -0.3390   -3.2199 H   0  0  0  0  0  0  0  0  0  0  0  0
   -0.0897   -0.3390   -3.2199 H   0  0  0  0  0  0  0  0  0  0  0  0
    0.7916   -1.8725   -3.2254 H   0  0  0  0  0  0  0  0  0  0  0  0
   -0.2604   -1.5041   -0.8682 H   0  0  0  0  0  0  0  0  0  0  0  0
    1.6682   -1.3958   -0.9408 H   0  0  0  0  0  0  0  0  0  0  0  0
   -1.3439    0.7020   -0.6705 H   0  0  0  0  0  0  0  0  0  0  0  0
   -1.3470    3.0111    0.1841 H   0  0  0  0  0  0  0  0  0  0  0  0
    0.7916    4.1791    0.6143 H   0  0  0  0  0  0  0  0  0  0  0  0
    2.9302    3.0111    0.1841 H   0  0  0  0  0  0  0  0  0  0  0  0
    2.9270    0.7020   -0.6705 H   0  0  0  0  0  0  0  0  0  0  0  0
  1  2  2  3
  1  4  1  0
  1  5  1  0
  2  3  1  0
  2  6  1  0
  7  8  1  0
  7 15  1  0
  7 16  1  0
  7 17  1  0
  8  9  1  0
  8 18  1  0
  8 19  1  0
  9 10  2  0
  9 14  1  0
 10 11  1  0
 10 20  1  0
 11 12  2  0
 11 21  1  0
 12 13  1  0
 12 22  1  0
 13 14  2  0
 13 23  1  0
 14 24  1  0
M  RAD  1   3   2
M  END
>  <reaction>  (15) 
rxn_1502

>  <mol_properties>  (15) 
{"0": {"label": "*1", "atom_type": "Cs"}, "1": {"label": "*0", "atom_type": "CS"}, "7": {"label": "*3", "atom_type": "Cd"}, "8": {"label": "*4", "atom_type": "Cd"}, "17": {"label": "*2", "atom_type": "H0"}}

>  <type>  (15) 
unop_11

>  <geom_source>  (15) 
Heuristics

$$$$

     RDKit          3D

 24 23  0  0  0  0  0  0  0  0999 V2000
   -0.8390   -2.0351    0.5755 C   0  0  0  0  0  0  0  0  0  0  0  0
   -1.6356   -2.5273   -0.5811 C   0  0  0  0  0  0  0  0  0  0  0  0
   -3.1744   -2.1857   -0.8921 S   0  0  0  0  0  1  0  0  0  0  0  0
   -0.4598   -2.8868    1.1487 H   0  0  0  0  0  0  0  0  0  0  0  0
   -1.4267   -1.3889    1.2242 H   0  0  0  0  0  0  0  0  0  0  0  0
   -1.0895   -3.1813   -1.2636 H   0  0  0  0  0  0  0  0  0  0  0  0
    1.2666   -0.7340   -1.8258 C   0  0  0  0  0  0  0  0  0  0  0  0
    1.2666   -0.7340   -0.2967 C   0  0  0  0  0  0  0  0  0  0  0  0
    1.2666    0.6603    0.2727 C   0  0  0  0  0  0  0  0  0  0  0  0
    0.0721    1.3292    0.5205 C   0  0  0  0  0  0  0  0  0  0  0  0
    0.0688    2.6294    1.0014 C   0  0  0  0  0  0  0  0  0  0  0  0
    1.2666    3.2848    1.2432 C   0  0  0  0  0  0  0  0  0  0  0  0
    2.4644    2.6294    1.0014 C   0  0  0  0  0  0  0  0  0  0  0  0
    2.4612    1.3292    0.5205 C   0  0  0  0  0  0  0  0  0  0  0  0
    2.1479   -0.2189   -2.2126 H   0  0  0  0  0  0  0  0  0  0  0  0
    0.3854   -0.2189   -2.2126 H   0  0  0  0  0  0  0  0  0  0  0  0
    1.2666   -1.7524   -2.2181 H   0  0  0  0  0  0  0  0  0  0  0  0
    0.2147   -1.3840    0.1391 H   0  0  0  0  0  0  0  0  0  0  0  0
    2.1433   -1.2757    0.0664 H   0  0  0  0  0  0  0  0  0  0  0  0
   -0.8688    0.8221    0.3367 H   0  0  0  0  0  0  0  0  0  0  0  0
   -0.8720    3.1311    1.1913 H   0  0  0  0  0  0  0  0  0  0  0  0
    1.2666    4.2991    1.6215 H   0  0  0  0  0  0  0  0  0  0  0  0
    3.4052    3.1311    1.1913 H   0  0  0  0  0  0  0  0  0  0  0  0
    3.4021    0.8221    0.3367 H   0  0  0  0  0  0  0  0  0  0  0  0
  1  2  2  3
  1  4  1  0
  1  5  1  0
  2  3  1  0
  2  6  1  0
  7  8  1  0
  7 15  1  0
  7 16  1  0
  7 17  1  0
  8  9  1  0
  8 18  1  0
  8 19  1  0
  9 10  2  0
  9 14  1  0
 10 11  1  0
 10 20  1  0
 11 12  2  0
 11 21  1  0
 12 13  1  0
 12 22  1  0
 13 14  2  0
 13 23  1  0
 14 24  1  0
M  RAD  1   3   2
M  END
>  <reaction>  (16) 
rxn_1502

>  <mol_properties>  (16) 
{"0": {"label": "*1", "atom_type": "Cs"}, "1": {"label": "*0", "atom_type": "CS"}, "7": {"label": "*3", "atom_type": "Cd"}, "8": {"label": "*4", "atom_type": "Cd"}, "17": {"label": "*2", "atom_type": "H0"}}

>  <type>  (16) 
unop_12

>  <geom_source>  (16) 
Heuristics

$$$$

     RDKit          3D

 24 23  0  0  0  0  0  0  0  0999 V2000
    4.6626    1.1846   -0.4160 S   0  0  0  0  0  0  0  0  0  0  0  0
    0.4928   -2.1362   -0.4262 C   0  0  0  0  0  0  0  0  0  0  0  0
    2.3433    0.5577    0.4353 C   0  0  0  0  0  0  0  0  0  0  0  0
   -0.8447   -0.1665    0.3230 C   0  0  0  0  0  0  0  0  0  0  0  0
    0.3000   -1.0769    0.6511 C   0  0  0  0  0  0  0  0  0  0  0  0
   -0.5939    1.0728   -0.2827 C   0  0  0  0  0  3  0  0  0  0  0  0
   -2.1681   -0.5548    0.5870 C   0  0  0  0  0  0  0  0  0  0  0  0
   -1.6561    1.9216   -0.6109 C   0  0  0  0  0  0  0  0  0  0  0  0
   -2.9719    1.5342   -0.3402 C   0  0  0  0  0  0  0  0  0  0  0  0
   -3.2278    0.2964    0.2575 C   0  0  0  0  0  0  0  0  0  0  0  0
    3.6200    0.2092   -0.2626 C   0  0  0  0  0  0  0  0  0  0  0  0
    2.5482    0.8619    1.4842 H   0  0  0  0  0  0  0  0  0  0  0  0
    1.8265    1.3847   -0.0971 H   0  0  0  0  0  0  0  0  0  0  0  0
    1.5679   -0.4729    0.4485 H   0  0  0  0  0  0  0  0  0  0  0  0
    1.3704   -2.7648   -0.1691 H   0  0  0  0  0  0  0  0  0  0  0  0
   -0.4061   -2.7852   -0.4962 H   0  0  0  0  0  0  0  0  0  0  0  0
    0.6777   -1.6523   -1.4086 H   0  0  0  0  0  0  0  0  0  0  0  0
    0.1517   -1.5545    1.6437 H   0  0  0  0  0  0  0  0  0  0  0  0
    0.4218    1.3797   -0.5003 H   0  0  0  0  0  0  0  0  0  0  0  0
   -1.4593    2.8787   -1.0765 H   0  0  0  0  0  0  0  0  0  0  0  0
   -2.3766   -1.5136    1.0454 H   0  0  0  0  0  0  0  0  0  0  0  0
   -3.7929    2.1917   -0.5953 H   0  0  0  0  0  0  0  0  0  0  0  0
   -4.2469   -0.0041    0.4637 H   0  0  0  0  0  0  0  0  0  0  0  0
    3.7614   -0.7911   -0.6578 H   0  0  0  0  0  0  0  0  0  0  0  0
  1 11  2  0
  2  5  1  0
  2 15  1  0
  2 16  1  0
  2 17  1  0
  3 11  1  0
  3 12  1  0
  3 13  1  0
  3 14  1  0
  4  5  2  3
  4  6  1  0
  4  7  1  0
  5 18  1  0
  6  8  1  0
  6 19  1  0
  7 10  2  0
  7 21  1  0
  8  9  2  0
  8 20  1  0
  9 10  1  0
  9 22  1  0
 10 23  1  0
 11 24  1  0
M  RAD  1   6   2
M  END
>  <reaction>  (17) 
rxn_1502

>  <mol_properties>  (17) 
{"0": {"label": "*1", "atom_type": "Cs"}, "1": {"label": "*0", "atom_type": "CS"}, "7": {"label": "*3", "atom_type": "Cd"}, "8": {"label": "*4", "atom_type": "Cd"}, "17": {"label": "*2", "atom_type": "H0"}}

>  <type>  (17) 
unop_13

>  <geom_source>  (17) 
AutoTST

$$$$

     RDKit          3D

 24 23  0  0  0  0  0  0  0  0999 V2000
   -0.9644   -1.7390    0.5505 C   0  0  0  0  0  0  0  0  0  0  0  0
   -1.3394   -2.7948   -0.4290 C   0  0  0  0  0  0  0  0  0  0  0  0
   -2.8308   -3.2010   -0.8673 S   0  0  0  0  0  1  0  0  0  0  0  0
   -0.3758   -2.1820    1.3598 H   0  0  0  0  0  0  0  0  0  0  0  0
   -1.8400   -1.2424    0.9631 H   0  0  0  0  0  0  0  0  0  0  0  0
   -0.4939   -3.3240   -0.8727 H   0  0  0  0  0  0  0  0  0  0  0  0
    1.1412   -0.4380   -1.8509 C   0  0  0  0  0  0  0  0  0  0  0  0
    1.1412   -0.4380   -0.3218 C   0  0  0  0  0  0  0  0  0  0  0  0
    1.1412    0.9563    0.2476 C   0  0  0  0  0  0  0  0  0  0  0  0
   -0.0533    1.6253    0.4954 C   0  0  0  0  0  0  0  0  0  0  0  0
   -0.0566    2.9255    0.9763 C   0  0  0  0  0  0  0  0  0  0  0  0
    1.1412    3.5808    1.2181 C   0  0  0  0  0  0  0  0  0  0  0  0
    2.3390    2.9255    0.9763 C   0  0  0  0  0  0  0  0  0  0  0  0
    2.3357    1.6253    0.4954 C   0  0  0  0  0  0  0  0  0  0  0  0
    2.0225    0.0771   -2.2377 H   0  0  0  0  0  0  0  0  0  0  0  0
    0.2599    0.0771   -2.2377 H   0  0  0  0  0  0  0  0  0  0  0  0
    1.1412   -1.4564   -2.2432 H   0  0  0  0  0  0  0  0  0  0  0  0
    0.0893   -1.0880    0.1140 H   0  0  0  0  0  0  0  0  0  0  0  0
    2.0179   -0.9796    0.0414 H   0  0  0  0  0  0  0  0  0  0  0  0
   -0.9942    1.1181    0.3116 H   0  0  0  0  0  0  0  0  0  0  0  0
   -0.9974    3.4272    1.1662 H   0  0  0  0  0  0  0  0  0  0  0  0
    1.1412    4.5952    1.5965 H   0  0  0  0  0  0  0  0  0  0  0  0
    3.2798    3.4272    1.1662 H   0  0  0  0  0  0  0  0  0  0  0  0
    3.2766    1.1181    0.3116 H   0  0  0  0  0  0  0  0  0  0  0  0
  1  2  2  3
  1  4  1  0
  1  5  1  0
  2  3  1  0
  2  6  1  0
  7  8  1  0
  7 15  1  0
  7 16  1  0
  7 17  1  0
  8  9  1  0
  8 18  1  0
  8 19  1  0
  9 10  2  0
  9 14  1  0
 10 11  1  0
 10 20  1  0
 11 12  2  0
 11 21  1  0
 12 13  1  0
 12 22  1  0
 13 14  2  0
 13 23  1  0
 14 24  1  0
M  RAD  1   3   2
M  END
>  <reaction>  (18) 
rxn_1502

>  <mol_properties>  (18) 
{"0": {"label": "*1", "atom_type": "Cs"}, "1": {"label": "*0", "atom_type": "CS"}, "7": {"label": "*3", "atom_type": "Cd"}, "8": {"label": "*4", "atom_type": "Cd"}, "17": {"label": "*2", "atom_type": "H0"}}

>  <type>  (18) 
unop_14

>  <geom_source>  (18) 
gaussian_log

$$$$
