
     RDKit          3D

  8  7  0  0  0  0  0  0  0  0999 V2000
    0.7610    0.0250    0.0051 C   0  0  0  0  0  0  0  0  0  0  0  0
   -0.7610   -0.0250   -0.0051 C   0  0  0  0  0  0  0  0  0  0  0  0
    1.1904   -0.9237   -0.3217 H   0  0  0  0  0  0  0  0  0  0  0  0
    1.1359    0.8041   -0.6609 H   0  0  0  0  0  0  0  0  0  0  0  0
    1.1435    0.2336    1.0058 H   0  0  0  0  0  0  0  0  0  0  0  0
   -1.1435   -0.2336   -1.0058 H   0  0  0  0  0  0  0  0  0  0  0  0
   -1.1904    0.9237    0.3216 H   0  0  0  0  0  0  0  0  0  0  0  0
   -1.1359   -0.8041    0.6609 H   0  0  0  0  0  0  0  0  0  0  0  0
  1  2  1  0
  1  3  1  0
  1  4  1  0
  1  5  1  0
  2  6  1  0
  2  7  1  0
  2  8  1  0
M  END
>  <reaction>  (1) 
rxn_889

>  <mol_properties>  (1) 
{"1": {"label": "donator", "atom_type": "Cs"}, "5": {"label": "d_hydrogen", "atom_type": "H0"}}

>  <type>  (1) 
r1h

$$$$

     RDKit          3D

  8  7  0  0  0  0  0  0  0  0999 V2000
   -1.0607    0.1793   -0.1423 C   0  0  0  0  0  0  0  0  0  0  0  0
    0.2796    0.0327    0.4820 C   0  0  0  0  0  3  0  0  0  0  0  0
    0.8817   -1.4663    1.0791 S   0  0  0  0  0  0  0  0  0  0  0  0
   -1.3043    1.2328   -0.2850 H   0  0  0  0  0  0  0  0  0  0  0  0
   -1.8444   -0.2641    0.4799 H   0  0  0  0  0  0  0  0  0  0  0  0
   -1.1164   -0.3100   -1.1237 H   0  0  0  0  0  0  0  0  0  0  0  0
    1.0449    0.7826    0.3391 H   0  0  0  0  0  0  0  0  0  0  0  0
   -0.2993   -2.0726    1.2718 H   0  0  0  0  0  0  0  0  0  0  0  0
  1  2  1  0
  1  4  1  0
  1  5  1  0
  1  6  1  0
  2  3  1  0
  2  7  1  0
  3  8  1  0
M  RAD  1   2   2
M  END
>  <reaction>  (2) 
rxn_889

>  <mol_properties>  (2) 
{"1": {"label": "acceptor", "atom_type": "Cs"}}

>  <type>  (2) 
r2

$$$$

     RDKit          3D

  9  8  0  0  0  0  0  0  0  0999 V2000
   -0.8818   -0.3578    0.1297 C   0  0  0  0  0  0  0  0  0  0  0  0
    0.6153   -0.3021   -0.1188 C   0  0  0  0  0  0  0  0  0  0  0  0
    1.5354   -1.7170    0.5545 S   0  0  0  0  0  0  0  0  0  0  0  0
   -1.1018   -0.3317    1.1984 H   0  0  0  0  0  0  0  0  0  0  0  0
   -1.3114   -1.2723   -0.2799 H   0  0  0  0  0  0  0  0  0  0  0  0
   -1.3767    0.4976   -0.3363 H   0  0  0  0  0  0  0  0  0  0  0  0
    1.0467    0.6194    0.2718 H   0  0  0  0  0  0  0  0  0  0  0  0
    0.8295   -0.3275   -1.1882 H   0  0  0  0  0  0  0  0  0  0  0  0
    1.2306   -1.5077    1.8423 H   0  0  0  0  0  0  0  0  0  0  0  0
  1  2  1  0
  1  4  1  0
  1  5  1  0
  1  6  1  0
  2  3  1  0
  2  7  1  0
  2  8  1  0
  3  9  1  0
M  END
>  <reaction>  (3) 
rxn_889

>  <mol_properties>  (3) 
{"1": {"label": "acceptor", "atom_type": "Cs"}, "8": {"label": "a_hydrogen", "atom_type": "H0"}}

>  <type>  (3) 
r2h

$$$$

     RDKit          3D

 16 14  0  0  0  0  0  0  0  0999 V2000
    1.0543    0.7965    1.6932 C   0  0  0  0  0  0  0  0  0  0  0  0
    0.4726    0.7881    0.3022 C   0  0  0  0  0  0  0  0  0  0  0  0
   -1.2797    1.0857    0.1555 S   0  0  0  0  0  0  0  0  0  0  0  0
    2.1253    0.5857    1.6552 H   0  0  0  0  0  0  0  0  0  0  0  0
    0.5843    0.0314    2.3153 H   0  0  0  0  0  0  0  0  0  0  0  0
    0.9105    1.7618    2.1846 H   0  0  0  0  0  0  0  0  0  0  0  0
    0.9722    1.4694   -0.3859 H   0  0  0  0  0  0  0  0  0  0  0  0
   -1.6774    0.1176    0.9940 H   0  0  0  0  0  0  0  0  0  0  0  0
    0.3906   -1.5922   -2.1246 C   0  0  0  0  0  0  0  0  0  0  0  0
    0.9428   -1.6509   -0.7281 C   0  0  0  0  0  3  0  0  0  0  0  0
   -0.6585   -1.2896   -2.1180 H   0  0  0  0  0  0  0  0  0  0  0  0
    0.9399   -0.8754   -2.7381 H   0  0  0  0  0  0  0  0  0  0  0  0
    0.4514   -2.5645   -2.6248 H   0  0  0  0  0  0  0  0  0  0  0  0
    0.7240   -0.3951   -0.1971 H   0  0  0  0  0  0  0  0  0  0  0  0
    2.0197   -1.7882   -0.6516 H   0  0  0  0  0  0  0  0  0  0  0  0
    0.3998   -2.2965   -0.0397 H   0  0  0  0  0  0  0  0  0  0  0  0
  1  2  1  0
  1  4  1  0
  1  5  1  0
  1  6  1  0
  2  3  1  0
  2  7  1  0
  2 14  1  0
  3  8  1  0
  9 10  1  0
  9 11  1  0
  9 12  1  0
  9 13  1  0
 10 15  1  0
 10 16  1  0
M  RAD  1  10   2
M  END
>  <reaction>  (4) 
rxn_889

>  <mol_properties>  (4) 
{"1": {"label": "*1", "atom_type": "Cs"}, "2": {"label": "*0", "atom_type": "S2s"}, "8": {"label": "*4", "atom_type": "Cs"}, "9": {"label": "*3", "atom_type": "Cs"}, "13": {"label": "*2", "atom_type": "H0"}}

>  <type>  (4) 
ts

$$$$

     RDKit          3D

 16 14  0  0  0  0  0  0  0  0999 V2000
   -1.3248    0.4694    1.4665 C   0  0  0  0  0  0  0  0  0  0  0  0
   -0.0991    0.2130    0.6073 C   0  0  0  0  0  0  0  0  0  0  0  0
    0.7695    1.7194    0.0800 S   0  0  0  0  0  0  0  0  0  0  0  0
   -1.7723   -0.4759    1.7823 H   0  0  0  0  0  0  0  0  0  0  0  0
   -2.0800    1.0298    0.9125 H   0  0  0  0  0  0  0  0  0  0  0  0
   -1.0646    1.0442    2.3557 H   0  0  0  0  0  0  0  0  0  0  0  0
    0.6519   -0.3481    1.1653 H   0  0  0  0  0  0  0  0  0  0  0  0
   -0.2393    2.2467   -0.6266 H   0  0  0  0  0  0  0  0  0  0  0  0
   -0.0991   -2.2263   -1.8648 C   0  0  0  0  0  0  0  0  0  0  0  0
   -0.0991   -2.2263   -0.3421 C   0  0  0  0  0  3  0  0  0  0  0  0
   -0.9799   -1.7177   -2.2607 H   0  0  0  0  0  0  0  0  0  0  0  0
    0.7818   -1.7177   -2.2607 H   0  0  0  0  0  0  0  0  0  0  0  0
   -0.0991   -3.2434   -2.2607 H   0  0  0  0  0  0  0  0  0  0  0  0
   -0.0991   -1.0057    0.1330 H   0  0  0  0  0  0  0  0  0  0  0  0
    0.7818   -2.7348    0.0538 H   0  0  0  0  0  0  0  0  0  0  0  0
   -0.9799   -2.7348    0.0538 H   0  0  0  0  0  0  0  0  0  0  0  0
  1  2  1  0
  1  4  1  0
  1  5  1  0
  1  6  1  0
  2  3  1  0
  2  7  1  0
  2 14  1  0
  3  8  1  0
  9 10  1  0
  9 11  1  0
  9 12  1  0
  9 13  1  0
 10 15  1  0
 10 16  1  0
M  RAD  1  10   2
M  END
>  <reaction>  (5) 
rxn_889

>  <mol_properties>  (5) 
{"1": {"label": "*1", "atom_type": "Cs"}, "2": {"label": "*0", "atom_type": "S2s"}, "8": {"label": "*4", "atom_type": "Cs"}, "9": {"label": "*3", "atom_type": "Cs"}, "13": {"label": "*2", "atom_type": "H0"}}

>  <type>  (5) 
unop_1

>  <geom_source>  (5) 
Heuristics

$$$$

     RDKit          3D

 16 14  0  0  0  0  0  0  0  0999 V2000
   -1.1174    1.3413   -0.5053 C   0  0  0  0  0  0  0  0  0  0  0  0
   -0.4097    0.3836    0.4373 C   0  0  0  0  0  0  0  0  0  0  0  0
    1.0588    1.0839    1.2465 S   0  0  0  0  0  0  0  0  0  0  0  0
   -2.0116    0.8725   -0.9229 H   0  0  0  0  0  0  0  0  0  0  0  0
   -0.4676    1.6240   -1.3355 H   0  0  0  0  0  0  0  0  0  0  0  0
   -1.4142    2.2524    0.0148 H   0  0  0  0  0  0  0  0  0  0  0  0
   -1.0637    0.1037    1.2644 H   0  0  0  0  0  0  0  0  0  0  0  0
    1.7658    1.3062    0.1304 H   0  0  0  0  0  0  0  0  0  0  0  0
   -0.4097   -2.0556   -2.0348 C   0  0  0  0  0  0  0  0  0  0  0  0
   -0.4097   -2.0556   -0.5120 C   0  0  0  0  0  3  0  0  0  0  0  0
   -1.2906   -1.5471   -2.4307 H   0  0  0  0  0  0  0  0  0  0  0  0
    0.4711   -1.5471   -2.4307 H   0  0  0  0  0  0  0  0  0  0  0  0
   -0.4097   -3.0727   -2.4307 H   0  0  0  0  0  0  0  0  0  0  0  0
   -0.4097   -0.8351   -0.0370 H   0  0  0  0  0  0  0  0  0  0  0  0
    0.4711   -2.5642   -0.1162 H   0  0  0  0  0  0  0  0  0  0  0  0
   -1.2906   -2.5642   -0.1162 H   0  0  0  0  0  0  0  0  0  0  0  0
  1  2  1  0
  1  4  1  0
  1  5  1  0
  1  6  1  0
  2  3  1  0
  2  7  1  0
  2 14  1  0
  3  8  1  0
  9 10  1  0
  9 11  1  0
  9 12  1  0
  9 13  1  0
 10 15  1  0
 10 16  1  0
M  RAD  1  10   2
M  END
>  <reaction>  (6) 
rxn_889

>  <mol_properties>  (6) 
{"1": {"label": "*1", "atom_type": "Cs"}, "2": {"label": "*0", "atom_type": "S2s"}, "8": {"label": "*4", "atom_type": "Cs"}, "9": {"label": "*3", "atom_type": "Cs"}, "13": {"label": "*2", "atom_type": "H0"}}

>  <type>  (6) 
unop_2

>  <geom_source>  (6) 
Heuristics

$$$$

     RDKit          3D

 16 14  0  0  0  0  0  0  0  0999 V2000
   -0.5668    0.2988    2.0149 C   0  0  0  0  0  0  0  0  0  0  0  0
    0.1409    0.2303    0.6729 C   0  0  0  0  0  0  0  0  0  0  0  0
    0.0992    1.7821   -0.2714 S   0  0  0  0  0  0  0  0  0  0  0  0
   -0.4672   -0.6506    2.5463 H   0  0  0  0  0  0  0  0  0  0  0  0
   -1.6316    0.5008    1.8853 H   0  0  0  0  0  0  0  0  0  0  0  0
   -0.1477    1.0900    2.6370 H   0  0  0  0  0  0  0  0  0  0  0  0
    1.2042    0.0273    0.8082 H   0  0  0  0  0  0  0  0  0  0  0  0
   -1.2320    1.8511   -0.4071 H   0  0  0  0  0  0  0  0  0  0  0  0
    0.1409   -2.2090   -1.7992 C   0  0  0  0  0  0  0  0  0  0  0  0
    0.1409   -2.2090   -0.2764 C   0  0  0  0  0  3  0  0  0  0  0  0
   -0.7400   -1.7004   -2.1950 H   0  0  0  0  0  0  0  0  0  0  0  0
    1.0217   -1.7004   -2.1950 H   0  0  0  0  0  0  0  0  0  0  0  0
    0.1409   -3.2261   -2.1950 H   0  0  0  0  0  0  0  0  0  0  0  0
    0.1409   -0.9885    0.1986 H   0  0  0  0  0  0  0  0  0  0  0  0
    1.0217   -2.7175    0.1194 H   0  0  0  0  0  0  0  0  0  0  0  0
   -0.7400   -2.7175    0.1194 H   0  0  0  0  0  0  0  0  0  0  0  0
  1  2  1  0
  1  4  1  0
  1  5  1  0
  1  6  1  0
  2  3  1  0
  2  7  1  0
  2 14  1  0
  3  8  1  0
  9 10  1  0
  9 11  1  0
  9 12  1  0
  9 13  1  0
 10 15  1  0
 10 16  1  0
M  RAD  1  10   2
M  END
>  <reaction>  (7) 
rxn_889

>  <mol_properties>  (7) 
{"1": {"label": "*1", "atom_type": "Cs"}, "2": {"label": "*0", "atom_type": "S2s"}, "8": {"label": "*4", "atom_type": "Cs"}, "9": {"label": "*3", "atom_type": "Cs"}, "13": {"label": "*2", "atom_type": "H0"}}

>  <type>  (7) 
unop_3

>  <geom_source>  (7) 
Heuristics

$$$$

     RDKit          3D

 16 14  0  0  0  0  0  0  0  0999 V2000
    0.9363    1.7477   -0.3911 C   0  0  0  0  0  0  0  0  0  0  0  0
   -0.2894    0.9779    0.0687 C   0  0  0  0  0  0  0  0  0  0  0  0
   -0.0820    0.1297    1.6622 S   0  0  0  0  0  0  0  0  0  0  0  0
    0.7296    2.2661   -1.3304 H   0  0  0  0  0  0  0  0  0  0  0  0
    1.7802    1.0757   -0.5572 H   0  0  0  0  0  0  0  0  0  0  0  0
    1.2356    2.4856    0.3537 H   0  0  0  0  0  0  0  0  0  0  0  0
   -1.1298    1.6540    0.2323 H   0  0  0  0  0  0  0  0  0  0  0  0
    0.9109   -0.6853    1.2815 H   0  0  0  0  0  0  0  0  0  0  0  0
   -0.2894   -1.4613   -2.4034 C   0  0  0  0  0  0  0  0  0  0  0  0
   -0.2894   -1.4613   -0.8806 C   0  0  0  0  0  3  0  0  0  0  0  0
   -1.1702   -0.9528   -2.7992 H   0  0  0  0  0  0  0  0  0  0  0  0
    0.5914   -0.9528   -2.7992 H   0  0  0  0  0  0  0  0  0  0  0  0
   -0.2894   -2.4784   -2.7992 H   0  0  0  0  0  0  0  0  0  0  0  0
   -0.2894   -0.2408   -0.4056 H   0  0  0  0  0  0  0  0  0  0  0  0
    0.5914   -1.9699   -0.4848 H   0  0  0  0  0  0  0  0  0  0  0  0
   -1.1702   -1.9699   -0.4848 H   0  0  0  0  0  0  0  0  0  0  0  0
  1  2  1  0
  1  4  1  0
  1  5  1  0
  1  6  1  0
  2  3  1  0
  2  7  1  0
  2 14  1  0
  3  8  1  0
  9 10  1  0
  9 11  1  0
  9 12  1  0
  9 13  1  0
 10 15  1  0
 10 16  1  0
M  RAD  1  10   2
M  END
>  <reaction>  (8) 
rxn_889

>  <mol_properties>  (8) 
{"1": {"label": "*1", "atom_type": "Cs"}, "2": {"label": "*0", "atom_type": "S2s"}, "8": {"label": "*4", "atom_type": "Cs"}, "9": {"label": "*3", "atom_type": "Cs"}, "13": {"label": "*2", "atom_type": "H0"}}

>  <type>  (8) 
unop_4

>  <geom_source>  (8) 
Heuristics

$$$$

     RDKit          3D

 16 14  0  0  0  0  0  0  0  0999 V2000
    0.4994    0.4708    2.0873 C   0  0  0  0  0  0  0  0  0  0  0  0
    0.4994    0.4710    0.5687 C   0  0  0  0  0  0  0  0  0  0  0  0
   -0.8766    1.3949   -0.1762 S   0  0  0  0  0  0  0  0  0  0  0  0
    1.3731   -0.0639    2.4675 H   0  0  0  0  0  0  0  0  0  0  0  0
   -0.3924   -0.0226    2.4780 H   0  0  0  0  0  0  0  0  0  0  0  0
    0.5189    1.4886    2.4776 H   0  0  0  0  0  0  0  0  0  0  0  0
    1.3931    0.9643    0.1836 H   0  0  0  0  0  0  0  0  0  0  0  0
   -1.8649    0.6434    0.3272 H   0  0  0  0  0  0  0  0  0  0  0  0
    0.4994   -1.9682   -1.9034 C   0  0  0  0  0  0  0  0  0  0  0  0
    0.4994   -1.9682   -0.3807 C   0  0  0  0  0  3  0  0  0  0  0  0
   -0.3814   -1.4597   -2.2993 H   0  0  0  0  0  0  0  0  0  0  0  0
    1.3803   -1.4597   -2.2993 H   0  0  0  0  0  0  0  0  0  0  0  0
    0.4994   -2.9853   -2.2993 H   0  0  0  0  0  0  0  0  0  0  0  0
    0.4994   -0.7477    0.0944 H   0  0  0  0  0  0  0  0  0  0  0  0
    1.3803   -2.4768    0.0152 H   0  0  0  0  0  0  0  0  0  0  0  0
   -0.3814   -2.4768    0.0152 H   0  0  0  0  0  0  0  0  0  0  0  0
  1  2  1  0
  1  4  1  0
  1  5  1  0
  1  6  1  0
  2  3  1  0
  2  7  1  0
  2 14  1  0
  3  8  1  0
  9 10  1  0
  9 11  1  0
  9 12  1  0
  9 13  1  0
 10 15  1  0
 10 16  1  0
M  RAD  1  10   2
M  END
>  <reaction>  (9) 
rxn_889

>  <mol_properties>  (9) 
{"1": {"label": "*1", "atom_type": "Cs"}, "2": {"label": "*0", "atom_type": "S2s"}, "8": {"label": "*4", "atom_type": "Cs"}, "9": {"label": "*3", "atom_type": "Cs"}, "13": {"label": "*2", "atom_type": "H0"}}

>  <type>  (9) 
unop_5

>  <geom_source>  (9) 
Heuristics

$$$$

     RDKit          3D

 16 14  0  0  0  0  0  0  0  0999 V2000
    1.3982    1.5863    0.2286 C   0  0  0  0  0  0  0  0  0  0  0  0
   -0.0171    1.0732    0.0289 C   0  0  0  0  0  0  0  0  0  0  0  0
   -0.6539    0.0853    1.4147 S   0  0  0  0  0  0  0  0  0  0  0  0
    1.7016    2.2050   -0.6193 H   0  0  0  0  0  0  0  0  0  0  0  0
    2.1057    0.7592    0.3107 H   0  0  0  0  0  0  0  0  0  0  0  0
    1.4720    2.1835    1.1377 H   0  0  0  0  0  0  0  0  0  0  0  0
   -0.7198    1.9036   -0.0536 H   0  0  0  0  0  0  0  0  0  0  0  0
    0.2533   -0.8978    1.3405 H   0  0  0  0  0  0  0  0  0  0  0  0
   -0.0171   -1.3661   -2.4432 C   0  0  0  0  0  0  0  0  0  0  0  0
   -0.0171   -1.3661   -0.9204 C   0  0  0  0  0  3  0  0  0  0  0  0
   -0.8980   -0.8576   -2.8391 H   0  0  0  0  0  0  0  0  0  0  0  0
    0.8637   -0.8576   -2.8391 H   0  0  0  0  0  0  0  0  0  0  0  0
   -0.0172   -2.3832   -2.8391 H   0  0  0  0  0  0  0  0  0  0  0  0
   -0.0171   -0.1456   -0.4454 H   0  0  0  0  0  0  0  0  0  0  0  0
    0.8637   -1.8747   -0.5246 H   0  0  0  0  0  0  0  0  0  0  0  0
   -0.8980   -1.8747   -0.5246 H   0  0  0  0  0  0  0  0  0  0  0  0
  1  2  1  0
  1  4  1  0
  1  5  1  0
  1  6  1  0
  2  3  1  0
  2  7  1  0
  2 14  1  0
  3  8  1  0
  9 10  1  0
  9 11  1  0
  9 12  1  0
  9 13  1  0
 10 15  1  0
 10 16  1  0
M  RAD  1  10   2
M  END
>  <reaction>  (10) 
rxn_889

>  <mol_properties>  (10) 
{"1": {"label": "*1", "atom_type": "Cs"}, "2": {"label": "*0", "atom_type": "S2s"}, "8": {"label": "*4", "atom_type": "Cs"}, "9": {"label": "*3", "atom_type": "Cs"}, "13": {"label": "*2", "atom_type": "H0"}}

>  <type>  (10) 
unop_6

>  <geom_source>  (10) 
Heuristics

$$$$

     RDKit          3D

 16 14  0  0  0  0  0  0  0  0999 V2000
    1.5072    1.3083    0.9558 C   0  0  0  0  0  0  0  0  0  0  0  0
    0.2815    1.0518    0.0966 C   0  0  0  0  0  0  0  0  0  0  0  0
   -1.0898    0.2471    0.9763 S   0  0  0  0  0  0  0  0  0  0  0  0
    2.2739    1.8303    0.3784 H   0  0  0  0  0  0  0  0  0  0  0  0
    1.9367    0.3708    1.3136 H   0  0  0  0  0  0  0  0  0  0  0  0
    1.2542    1.9157    1.8251 H   0  0  0  0  0  0  0  0  0  0  0  0
   -0.1430    1.9918   -0.2590 H   0  0  0  0  0  0  0  0  0  0  0  0
   -0.4420   -0.8857    1.2803 H   0  0  0  0  0  0  0  0  0  0  0  0
    0.2815   -1.3874   -2.3755 C   0  0  0  0  0  0  0  0  0  0  0  0
    0.2815   -1.3874   -0.8527 C   0  0  0  0  0  3  0  0  0  0  0  0
   -0.5993   -0.8789   -2.7713 H   0  0  0  0  0  0  0  0  0  0  0  0
    1.1624   -0.8789   -2.7713 H   0  0  0  0  0  0  0  0  0  0  0  0
    0.2815   -2.4046   -2.7713 H   0  0  0  0  0  0  0  0  0  0  0  0
    0.2815   -0.1669   -0.3777 H   0  0  0  0  0  0  0  0  0  0  0  0
    1.1624   -1.8960   -0.4568 H   0  0  0  0  0  0  0  0  0  0  0  0
   -0.5993   -1.8960   -0.4568 H   0  0  0  0  0  0  0  0  0  0  0  0
  1  2  1  0
  1  4  1  0
  1  5  1  0
  1  6  1  0
  2  3  1  0
  2  7  1  0
  2 14  1  0
  3  8  1  0
  9 10  1  0
  9 11  1  0
  9 12  1  0
  9 13  1  0
 10 15  1  0
 10 16  1  0
M  RAD  1  10   2
M  END
>  <reaction>  (11) 
rxn_889

>  <mol_properties>  (11) 
{"1": {"label": "*1", "atom_type": "Cs"}, "2": {"label": "*0", "atom_type": "S2s"}, "8": {"label": "*4", "atom_type": "Cs"}, "9": {"label": "*3", "atom_type": "Cs"}, "13": {"label": "*2", "atom_type": "H0"}}

>  <type>  (11) 
unop_7

>  <geom_source>  (11) 
Heuristics

$$$$

     RDKit          3D

 16 14  0  0  0  0  0  0  0  0999 V2000
   -1.6279    0.7560    0.7340 C   0  0  0  0  0  0  0  0  0  0  0  0
   -0.2125    0.2429    0.5343 C   0  0  0  0  0  0  0  0  0  0  0  0
    1.0571    1.5428    0.5275 S   0  0  0  0  0  0  0  0  0  0  0  0
   -2.3331   -0.0778    0.7704 H   0  0  0  0  0  0  0  0  0  0  0  0
   -1.9252    1.4115   -0.0864 H   0  0  0  0  0  0  0  0  0  0  0  0
   -1.7106    1.3209    1.6629 H   0  0  0  0  0  0  0  0  0  0  0  0
    0.0791   -0.4125    1.3564 H   0  0  0  0  0  0  0  0  0  0  0  0
    0.6045    2.2028   -0.5470 H   0  0  0  0  0  0  0  0  0  0  0  0
   -0.2125   -2.1964   -1.9378 C   0  0  0  0  0  0  0  0  0  0  0  0
   -0.2125   -2.1964   -0.4150 C   0  0  0  0  0  3  0  0  0  0  0  0
   -1.0934   -1.6879   -2.3336 H   0  0  0  0  0  0  0  0  0  0  0  0
    0.6683   -1.6879   -2.3336 H   0  0  0  0  0  0  0  0  0  0  0  0
   -0.2125   -3.2135   -2.3336 H   0  0  0  0  0  0  0  0  0  0  0  0
   -0.2125   -0.9759    0.0600 H   0  0  0  0  0  0  0  0  0  0  0  0
    0.6683   -2.7050   -0.0191 H   0  0  0  0  0  0  0  0  0  0  0  0
   -1.0934   -2.7050   -0.0191 H   0  0  0  0  0  0  0  0  0  0  0  0
  1  2  1  0
  1  4  1  0
  1  5  1  0
  1  6  1  0
  2  3  1  0
  2  7  1  0
  2 14  1  0
  3  8  1  0
  9 10  1  0
  9 11  1  0
  9 12  1  0
  9 13  1  0
 10 15  1  0
 10 16  1  0
M  RAD  1  10   2
M  END
>  <reaction>  (12) 
rxn_889

>  <mol_properties>  (12) 
{"1": {"label": "*1", "atom_type": "Cs"}, "2": {"label": "*0", "atom_type": "S2s"}, "8": {"label": "*4", "atom_type": "Cs"}, "9": {"label": "*3", "atom_type": "Cs"}, "13": {"label": "*2", "atom_type": "H0"}}

>  <type>  (12) 
unop_8

>  <geom_source>  (12) 
Heuristics

$$$$

     RDKit          3D

 16 14  0  0  0  0  0  0  0  0999 V2000
    0.2389    1.7472   -0.7524 C   0  0  0  0  0  0  0  0  0  0  0  0
   -0.4688    0.7896    0.1902 C   0  0  0  0  0  0  0  0  0  0  0  0
    0.4832    0.3713    1.6803 S   0  0  0  0  0  0  0  0  0  0  0  0
   -0.4038    1.9886   -1.6024 H   0  0  0  0  0  0  0  0  0  0  0  0
    1.1578    1.3050   -1.1413 H   0  0  0  0  0  0  0  0  0  0  0  0
    0.5015    2.6742   -0.2420 H   0  0  0  0  0  0  0  0  0  0  0  0
   -1.3868    1.2360    0.5751 H   0  0  0  0  0  0  0  0  0  0  0  0
    1.5148   -0.2097    1.0532 H   0  0  0  0  0  0  0  0  0  0  0  0
   -0.4688   -1.6497   -2.2820 C   0  0  0  0  0  0  0  0  0  0  0  0
   -0.4688   -1.6497   -0.7592 C   0  0  0  0  0  3  0  0  0  0  0  0
   -1.3496   -1.1411   -2.6778 H   0  0  0  0  0  0  0  0  0  0  0  0
    0.4121   -1.1411   -2.6778 H   0  0  0  0  0  0  0  0  0  0  0  0
   -0.4688   -2.6668   -2.6778 H   0  0  0  0  0  0  0  0  0  0  0  0
   -0.4688   -0.4291   -0.2841 H   0  0  0  0  0  0  0  0  0  0  0  0
    0.4121   -2.1582   -0.3633 H   0  0  0  0  0  0  0  0  0  0  0  0
   -1.3496   -2.1582   -0.3633 H   0  0  0  0  0  0  0  0  0  0  0  0
  1  2  1  0
  1  4  1  0
  1  5  1  0
  1  6  1  0
  2  3  1  0
  2  7  1  0
  2 14  1  0
  3  8  1  0
  9 10  1  0
  9 11  1  0
  9 12  1  0
  9 13  1  0
 10 15  1  0
 10 16  1  0
M  RAD  1  10   2
M  END
>  <reaction>  (13) 
rxn_889

>  <mol_properties>  (13) 
{"1": {"label": "*1", "atom_type": "Cs"}, "2": {"label": "*0", "atom_type": "S2s"}, "8": {"label": "*4", "atom_type": "Cs"}, "9": {"label": "*3", "atom_type": "Cs"}, "13": {"label": "*2", "atom_type": "H0"}}

>  <type>  (13) 
unop_9

>  <geom_source>  (13) 
Heuristics

$$$$

     RDKit          3D

 16 14  0  0  0  0  0  0  0  0999 V2000
   -1.5260    1.0591    0.0281 C   0  0  0  0  0  0  0  0  0  0  0  0
   -0.3003    0.2893    0.4879 C   0  0  0  0  0  0  0  0  0  0  0  0
    1.1171    1.3384    0.9264 S   0  0  0  0  0  0  0  0  0  0  0  0
   -2.3509    0.3729   -0.1778 H   0  0  0  0  0  0  0  0  0  0  0  0
   -1.3169    1.6167   -0.8866 H   0  0  0  0  0  0  0  0  0  0  0  0
   -1.8483    1.7701    0.7892 H   0  0  0  0  0  0  0  0  0  0  0  0
   -0.5151   -0.2668    1.4016 H   0  0  0  0  0  0  0  0  0  0  0  0
    1.2912    1.8861   -0.2838 H   0  0  0  0  0  0  0  0  0  0  0  0
   -0.3003   -2.1499   -1.9842 C   0  0  0  0  0  0  0  0  0  0  0  0
   -0.3003   -2.1499   -0.4614 C   0  0  0  0  0  3  0  0  0  0  0  0
   -1.1811   -1.6414   -2.3801 H   0  0  0  0  0  0  0  0  0  0  0  0
    0.5806   -1.6414   -2.3801 H   0  0  0  0  0  0  0  0  0  0  0  0
   -0.3003   -3.1670   -2.3801 H   0  0  0  0  0  0  0  0  0  0  0  0
   -0.3003   -0.9294    0.0136 H   0  0  0  0  0  0  0  0  0  0  0  0
    0.5806   -2.6585   -0.0656 H   0  0  0  0  0  0  0  0  0  0  0  0
   -1.1811   -2.6585   -0.0656 H   0  0  0  0  0  0  0  0  0  0  0  0
  1  2  1  0
  1  4  1  0
  1  5  1  0
  1  6  1  0
  2  3  1  0
  2  7  1  0
  2 14  1  0
  3  8  1  0
  9 10  1  0
  9 11  1  0
  9 12  1  0
  9 13  1  0
 10 15  1  0
 10 16  1  0
M  RAD  1  10   2
M  END
>  <reaction>  (14) 
rxn_889

>  <mol_properties>  (14) 
{"1": {"label": "*1", "atom_type": "Cs"}, "2": {"label": "*0", "atom_type": "S2s"}, "8": {"label": "*4", "atom_type": "Cs"}, "9": {"label": "*3", "atom_type": "Cs"}, "13": {"label": "*2", "atom_type": "H0"}}

>  <type>  (14) 
unop_10

>  <geom_source>  (14) 
Heuristics

$$$$

     RDKit          3D

 16 14  0  0  0  0  0  0  0  0999 V2000
    1.2363    0.9319    1.6295 C   0  0  0  0  0  0  0  0  0  0  0  0
    0.5287    0.8634    0.2875 C   0  0  0  0  0  0  0  0  0  0  0  0
   -1.2744    0.6708    0.4051 S   0  0  0  0  0  0  0  0  0  0  0  0
    2.3079    1.0901    1.4866 H   0  0  0  0  0  0  0  0  0  0  0  0
    1.1055    0.0034    2.1881 H   0  0  0  0  0  0  0  0  0  0  0  0
    0.8433    1.7478    2.2365 H   0  0  0  0  0  0  0  0  0  0  0  0
    0.6634    1.7933   -0.2669 H   0  0  0  0  0  0  0  0  0  0  0  0
   -1.2682   -0.5131    1.0321 H   0  0  0  0  0  0  0  0  0  0  0  0
    0.5287   -1.5759   -2.1846 C   0  0  0  0  0  0  0  0  0  0  0  0
    0.5287   -1.5759   -0.6618 C   0  0  0  0  0  3  0  0  0  0  0  0
   -0.3522   -1.0673   -2.5805 H   0  0  0  0  0  0  0  0  0  0  0  0
    1.4095   -1.0673   -2.5805 H   0  0  0  0  0  0  0  0  0  0  0  0
    0.5286   -2.5930   -2.5805 H   0  0  0  0  0  0  0  0  0  0  0  0
    0.5287   -0.3553   -0.1868 H   0  0  0  0  0  0  0  0  0  0  0  0
    1.4095   -2.0844   -0.2660 H   0  0  0  0  0  0  0  0  0  0  0  0
   -0.3522   -2.0844   -0.2660 H   0  0  0  0  0  0  0  0  0  0  0  0
  1  2  1  0
  1  4  1  0
  1  5  1  0
  1  6  1  0
  2  3  1  0
  2  7  1  0
  2 14  1  0
  3  8  1  0
  9 10  1  0
  9 11  1  0
  9 12  1  0
  9 13  1  0
 10 15  1  0
 10 16  1  0
M  RAD  1  10   2
M  END
>  <reaction>  (15) 
rxn_889

>  <mol_properties>  (15) 
{"1": {"label": "*1", "atom_type": "Cs"}, "2": {"label": "*0", "atom_type": "S2s"}, "8": {"label": "*4", "atom_type": "Cs"}, "9": {"label": "*3", "atom_type": "Cs"}, "13": {"label": "*2", "atom_type": "H0"}}

>  <type>  (15) 
unop_11

>  <geom_source>  (15) 
Heuristics

$$$$

     RDKit          3D

 16 14  0  0  0  0  0  0  0  0999 V2000
   -0.4994    1.5881   -0.7835 C   0  0  0  0  0  0  0  0  0  0  0  0
   -0.4994    0.5617    0.3357 C   0  0  0  0  0  0  0  0  0  0  0  0
    0.8766    0.7390    1.5092 S   0  0  0  0  0  0  0  0  0  0  0  0
   -1.3731    1.4511   -1.4252 H   0  0  0  0  0  0  0  0  0  0  0  0
    0.3924    1.4886   -1.4050 H   0  0  0  0  0  0  0  0  0  0  0  0
   -0.5189    2.6020   -0.3831 H   0  0  0  0  0  0  0  0  0  0  0  0
   -1.3931    0.6649    0.9529 H   0  0  0  0  0  0  0  0  0  0  0  0
    1.8649    0.5255    0.6301 H   0  0  0  0  0  0  0  0  0  0  0  0
   -0.4994   -1.8776   -2.1364 C   0  0  0  0  0  0  0  0  0  0  0  0
   -0.4994   -1.8776   -0.6136 C   0  0  0  0  0  3  0  0  0  0  0  0
   -1.3802   -1.3690   -2.5322 H   0  0  0  0  0  0  0  0  0  0  0  0
    0.3814   -1.3690   -2.5322 H   0  0  0  0  0  0  0  0  0  0  0  0
   -0.4994   -2.8947   -2.5322 H   0  0  0  0  0  0  0  0  0  0  0  0
   -0.4994   -0.6570   -0.1386 H   0  0  0  0  0  0  0  0  0  0  0  0
    0.3814   -2.3861   -0.2177 H   0  0  0  0  0  0  0  0  0  0  0  0
   -1.3803   -2.3861   -0.2177 H   0  0  0  0  0  0  0  0  0  0  0  0
  1  2  1  0
  1  4  1  0
  1  5  1  0
  1  6  1  0
  2  3  1  0
  2  7  1  0
  2 14  1  0
  3  8  1  0
  9 10  1  0
  9 11  1  0
  9 12  1  0
  9 13  1  0
 10 15  1  0
 10 16  1  0
M  RAD  1  10   2
M  END
>  <reaction>  (16) 
rxn_889

>  <mol_properties>  (16) 
{"1": {"label": "*1", "atom_type": "Cs"}, "2": {"label": "*0", "atom_type": "S2s"}, "8": {"label": "*4", "atom_type": "Cs"}, "9": {"label": "*3", "atom_type": "Cs"}, "13": {"label": "*2", "atom_type": "H0"}}

>  <type>  (16) 
unop_12

>  <geom_source>  (16) 
Heuristics

$$$$

     RDKit          3D

 16 14  0  0  0  0  0  0  0  0999 V2000
   -1.9197    0.7873   -1.8793 S   0  0  0  0  0  0  0  0  0  0  0  0
   -1.1999   -0.3445   -0.6503 C   0  0  0  0  0  3  0  0  0  0  0  0
   -2.0029   -0.3112    0.6410 C   0  0  0  0  0  0  0  0  0  0  0  0
    2.2735    0.2607    0.7516 C   0  0  0  0  0  0  0  0  0  0  0  0
    1.4006   -0.2050   -0.3990 C   0  0  0  0  0  0  0  0  0  0  0  0
   -1.2038   -1.3752   -1.0633 H   0  0  0  0  0  0  0  0  0  0  0  0
    0.1340    0.0383   -0.3865 H   0  0  0  0  0  0  0  0  0  0  0  0
   -1.9853    0.7105    1.0750 H   0  0  0  0  0  0  0  0  0  0  0  0
   -3.0542   -0.6122    0.4470 H   0  0  0  0  0  0  0  0  0  0  0  0
   -1.5557   -1.0165    1.3721 H   0  0  0  0  0  0  0  0  0  0  0  0
    3.3372    0.0219    0.5405 H   0  0  0  0  0  0  0  0  0  0  0  0
    1.9610   -0.2501    1.6861 H   0  0  0  0  0  0  0  0  0  0  0  0
    2.1624    1.3572    0.8828 H   0  0  0  0  0  0  0  0  0  0  0  0
    1.4996   -1.3030   -0.5310 H   0  0  0  0  0  0  0  0  0  0  0  0
    1.7015    0.3084   -1.3364 H   0  0  0  0  0  0  0  0  0  0  0  0
   -1.5483    1.9331   -1.1502 H   0  0  0  0  0  0  0  0  0  0  0  0
  1  2  1  0
  1 16  1  0
  2  3  1  0
  2  6  1  0
  3  8  1  0
  3  9  1  0
  3 10  1  0
  4  5  1  0
  4 11  1  0
  4 12  1  0
  4 13  1  0
  5  7  1  0
  5 14  1  0
  5 15  1  0
M  RAD  1   2   2
M  END
>  <reaction>  (17) 
rxn_889

>  <mol_properties>  (17) 
{"1": {"label": "*1", "atom_type": "Cs"}, "2": {"label": "*0", "atom_type": "S2s"}, "8": {"label": "*4", "atom_type": "Cs"}, "9": {"label": "*3", "atom_type": "Cs"}, "13": {"label": "*2", "atom_type": "H0"}}

>  <type>  (17) 
unop_13

>  <geom_source>  (17) 
AutoTST

$$$$

     RDKit          3D

 16 14  0  0  0  0  0  0  0  0999 V2000
   -1.1174    1.3413   -0.5053 C   0  0  0  0  0  0  0  0  0  0  0  0
   -0.4097    0.3836    0.4373 C   0  0  0  0  0  0  0  0  0  0  0  0
    1.0588    1.0839    1.2465 S   0  0  0  0  0  0  0  0  0  0  0  0
   -2.0116    0.8725   -0.9230 H   0  0  0  0  0  0  0  0  0  0  0  0
   -0.4676    1.6240   -1.3355 H   0  0  0  0  0  0  0  0  0  0  0  0
   -1.4142    2.2524    0.0147 H   0  0  0  0  0  0  0  0  0  0  0  0
   -1.0637    0.1037    1.2644 H   0  0  0  0  0  0  0  0  0  0  0  0
    1.7658    1.3062    0.1304 H   0  0  0  0  0  0  0  0  0  0  0  0
   -0.4097   -2.0556   -2.0348 C   0  0  0  0  0  0  0  0  0  0  0  0
   -0.4097   -2.0556   -0.5120 C   0  0  0  0  0  3  0  0  0  0  0  0
   -1.2906   -1.5471   -2.4307 H   0  0  0  0  0  0  0  0  0  0  0  0
    0.4711   -1.5471   -2.4307 H   0  0  0  0  0  0  0  0  0  0  0  0
   -0.4097   -3.0727   -2.4307 H   0  0  0  0  0  0  0  0  0  0  0  0
   -0.4097   -0.8351   -0.0370 H   0  0  0  0  0  0  0  0  0  0  0  0
    0.4711   -2.5642   -0.1162 H   0  0  0  0  0  0  0  0  0  0  0  0
   -1.2906   -2.5642   -0.1162 H   0  0  0  0  0  0  0  0  0  0  0  0
  1  2  1  0
  1  4  1  0
  1  5  1  0
  1  6  1  0
  2  3  1  0
  2  7  1  0
  2 14  1  0
  3  8  1  0
  9 10  1  0
  9 11  1  0
  9 12  1  0
  9 13  1  0
 10 15  1  0
 10 16  1  0
M  RAD  1  10   2
M  END
>  <reaction>  (18) 
rxn_889

>  <mol_properties>  (18) 
{"1": {"label": "*1", "atom_type": "Cs"}, "2": {"label": "*0", "atom_type": "S2s"}, "8": {"label": "*4", "atom_type": "Cs"}, "9": {"label": "*3", "atom_type": "Cs"}, "13": {"label": "*2", "atom_type": "H0"}}

>  <type>  (18) 
unop_14

>  <geom_source>  (18) 
gaussian_log

$$$$
