
     RDKit          3D

  6  5  0  0  0  0  0  0  0  0999 V2000
   -0.3669    0.0060    0.0609 C   0  0  0  0  0  0  0  0  0  0  0  0
    0.9818   -0.0507    0.4695 O   0  0  0  0  0  0  0  0  0  0  0  0
   -0.6066    0.9462   -0.4488 H   0  0  0  0  0  0  0  0  0  0  0  0
   -0.5221   -0.8115   -0.6420 H   0  0  0  0  0  0  0  0  0  0  0  0
   -1.0602   -0.1268    0.8992 H   0  0  0  0  0  0  0  0  0  0  0  0
    1.1451    0.6595    1.0897 H   0  0  0  0  0  0  0  0  0  0  0  0
  1  2  1  0
  1  3  1  0
  1  4  1  0
  1  5  1  0
  2  6  1  0
M  END
>  <reaction>  (1) 
rxn_328

>  <mol_properties>  (1) 
{"1": {"label": "donator", "atom_type": "O2s"}, "5": {"label": "d_hydrogen", "atom_type": "H0"}}

>  <type>  (1) 
r1h

$$$$

     RDKit          3D

  4  3  0  0  0  0  0  0  0  0999 V2000
    0.0000    0.0000    0.0000 C   0  0  0  0  0  3  0  0  0  0  0  0
    1.0638   -0.1747    0.0540 H   0  0  0  0  0  0  0  0  0  0  0  0
   -0.6833   -0.8351   -0.0280 H   0  0  0  0  0  0  0  0  0  0  0  0
   -0.3805    1.0098   -0.0260 H   0  0  0  0  0  0  0  0  0  0  0  0
  1  2  1  0
  1  3  1  0
  1  4  1  0
M  RAD  1   1   2
M  END
>  <reaction>  (2) 
rxn_328

>  <mol_properties>  (2) 
{"0": {"label": "acceptor", "atom_type": "Cs"}}

>  <type>  (2) 
r2

$$$$

     RDKit          3D

  5  4  0  0  0  0  0  0  0  0999 V2000
    0.0000    0.0000    0.0000 C   0  0  0  0  0  0  0  0  0  0  0  0
   -0.6486   -0.7720   -0.4113 H   0  0  0  0  0  0  0  0  0  0  0  0
   -0.3482    0.9787   -0.3267 H   0  0  0  0  0  0  0  0  0  0  0  0
   -0.0223   -0.0487    1.0876 H   0  0  0  0  0  0  0  0  0  0  0  0
    1.0191   -0.1580   -0.3496 H   0  0  0  0  0  0  0  0  0  0  0  0
  1  2  1  0
  1  3  1  0
  1  4  1  0
  1  5  1  0
M  END
>  <reaction>  (3) 
rxn_328

>  <mol_properties>  (3) 
{"0": {"label": "a_hydrogen", "atom_type": "H0"}, "1": {"label": "acceptor", "atom_type": "Cs"}}

>  <type>  (3) 
r2h

$$$$

     RDKit          3D

 10  8  0  0  0  0  0  0  0  0999 V2000
    0.0671   -0.7372   -1.2174 C   0  0  0  0  0  0  0  0  0  0  0  0
   -0.2132   -0.8843    0.1408 O   0  0  0  0  0  0  0  0  0  0  0  0
    1.0775   -0.3536   -1.4033 H   0  0  0  0  0  0  0  0  0  0  0  0
    0.0049   -1.7406   -1.6506 H   0  0  0  0  0  0  0  0  0  0  0  0
   -0.6621   -0.1025   -1.7351 H   0  0  0  0  0  0  0  0  0  0  0  0
   -0.1512    0.2115    0.6446 H   0  0  0  0  0  0  0  0  0  0  0  0
   -0.0493    1.4323    1.0341 C   0  0  0  0  0  3  0  0  0  0  0  0
   -0.7981    1.9771    0.4665 H   0  0  0  0  0  0  0  0  0  0  0  0
   -0.2603    1.3770    2.0980 H   0  0  0  0  0  0  0  0  0  0  0  0
    0.9721    1.7215    0.8043 H   0  0  0  0  0  0  0  0  0  0  0  0
  1  2  1  0
  1  3  1  0
  1  4  1  0
  1  5  1  0
  2  6  1  0
  7  8  1  0
  7  9  1  0
  7 10  1  0
M  RAD  1   7   2
M  END
>  <reaction>  (4) 
rxn_328

>  <mol_properties>  (4) 
{"0": {"label": "*0", "atom_type": "Cs"}, "1": {"label": "*1", "atom_type": "O2s"}, "5": {"label": "*2", "atom_type": "H0"}, "6": {"label": "*3", "atom_type": "Cs"}, "7": {"label": "*4", "atom_type": "H0"}}

>  <type>  (4) 
ts

$$$$

     RDKit          3D

 10  8  0  0  0  0  0  0  0  0999 V2000
   -0.0025   -0.7805   -1.2183 C   0  0  0  0  0  0  0  0  0  0  0  0
   -0.0025   -0.7805    0.1921 O   0  0  0  0  0  0  0  0  0  0  0  0
    0.8883   -0.2951   -1.6331 H   0  0  0  0  0  0  0  0  0  0  0  0
   -0.0025   -1.8219   -1.5375 H   0  0  0  0  0  0  0  0  0  0  0  0
   -0.8933   -0.2951   -1.6331 H   0  0  0  0  0  0  0  0  0  0  0  0
   -0.0025    0.3071    0.5608 H   0  0  0  0  0  0  0  0  0  0  0  0
   -0.0025    1.5447    0.9803 C   0  0  0  0  0  3  0  0  0  0  0  0
   -0.8916    1.7236    1.5830 H   0  0  0  0  0  0  0  0  0  0  0  0
    0.6829    1.1120    1.7075 H   0  0  0  0  0  0  0  0  0  0  0  0
    0.3168    2.5572    0.7383 H   0  0  0  0  0  0  0  0  0  0  0  0
  1  2  1  0
  1  3  1  0
  1  4  1  0
  1  5  1  0
  2  6  1  0
  7  8  1  0
  7  9  1  0
  7 10  1  0
M  RAD  1   7   2
M  END
>  <reaction>  (5) 
rxn_328

>  <mol_properties>  (5) 
{"0": {"label": "*0", "atom_type": "Cs"}, "1": {"label": "*1", "atom_type": "O2s"}, "5": {"label": "*2", "atom_type": "H0"}, "6": {"label": "*3", "atom_type": "Cs"}, "7": {"label": "*4", "atom_type": "H0"}}

>  <type>  (5) 
unop_1

>  <geom_source>  (5) 
Heuristics

$$$$

     RDKit          3D

 10  8  0  0  0  0  0  0  0  0999 V2000
    0.0003   -0.7704   -1.2031 C   0  0  0  0  0  0  0  0  0  0  0  0
    0.0003   -0.7704    0.2073 O   0  0  0  0  0  0  0  0  0  0  0  0
    0.8911   -0.2850   -1.6179 H   0  0  0  0  0  0  0  0  0  0  0  0
    0.0004   -1.8118   -1.5223 H   0  0  0  0  0  0  0  0  0  0  0  0
   -0.8905   -0.2850   -1.6179 H   0  0  0  0  0  0  0  0  0  0  0  0
    0.0003    0.3172    0.5760 H   0  0  0  0  0  0  0  0  0  0  0  0
    0.0003    1.5548    0.9955 C   0  0  0  0  0  3  0  0  0  0  0  0
   -0.5130    2.1840    0.2700 H   0  0  0  0  0  0  0  0  0  0  0  0
   -0.5287    1.0262    1.7870 H   0  0  0  0  0  0  0  0  0  0  0  0
    1.0268    1.7418    1.3071 H   0  0  0  0  0  0  0  0  0  0  0  0
  1  2  1  0
  1  3  1  0
  1  4  1  0
  1  5  1  0
  2  6  1  0
  7  8  1  0
  7  9  1  0
  7 10  1  0
M  RAD  1   7   2
M  END
>  <reaction>  (6) 
rxn_328

>  <mol_properties>  (6) 
{"0": {"label": "*0", "atom_type": "Cs"}, "1": {"label": "*1", "atom_type": "O2s"}, "5": {"label": "*2", "atom_type": "H0"}, "6": {"label": "*3", "atom_type": "Cs"}, "7": {"label": "*4", "atom_type": "H0"}}

>  <type>  (6) 
unop_2

>  <geom_source>  (6) 
Heuristics

$$$$

     RDKit          3D

 10  8  0  0  0  0  0  0  0  0999 V2000
   -0.0050   -0.7867   -1.2200 C   0  0  0  0  0  0  0  0  0  0  0  0
   -0.0050   -0.7867    0.1903 O   0  0  0  0  0  0  0  0  0  0  0  0
    0.8858   -0.3013   -1.6348 H   0  0  0  0  0  0  0  0  0  0  0  0
   -0.0050   -1.8281   -1.5392 H   0  0  0  0  0  0  0  0  0  0  0  0
   -0.8958   -0.3013   -1.6348 H   0  0  0  0  0  0  0  0  0  0  0  0
   -0.0050    0.3009    0.5590 H   0  0  0  0  0  0  0  0  0  0  0  0
   -0.0050    1.5385    0.9786 C   0  0  0  0  0  3  0  0  0  0  0  0
   -0.5183    1.5968    1.9371 H   0  0  0  0  0  0  0  0  0  0  0  0
    0.9789    1.4971    1.4434 H   0  0  0  0  0  0  0  0  0  0  0  0
   -0.2430    2.5701    0.7238 H   0  0  0  0  0  0  0  0  0  0  0  0
  1  2  1  0
  1  3  1  0
  1  4  1  0
  1  5  1  0
  2  6  1  0
  7  8  1  0
  7  9  1  0
  7 10  1  0
M  RAD  1   7   2
M  END
>  <reaction>  (7) 
rxn_328

>  <mol_properties>  (7) 
{"0": {"label": "*0", "atom_type": "Cs"}, "1": {"label": "*1", "atom_type": "O2s"}, "5": {"label": "*2", "atom_type": "H0"}, "6": {"label": "*3", "atom_type": "Cs"}, "7": {"label": "*4", "atom_type": "H0"}}

>  <type>  (7) 
unop_3

>  <geom_source>  (7) 
Heuristics

$$$$

     RDKit          3D

 10  8  0  0  0  0  0  0  0  0999 V2000
   -0.0011   -0.7733   -1.2071 C   0  0  0  0  0  0  0  0  0  0  0  0
   -0.0011   -0.7733    0.2033 O   0  0  0  0  0  0  0  0  0  0  0  0
    0.8897   -0.2879   -1.6218 H   0  0  0  0  0  0  0  0  0  0  0  0
   -0.0011   -1.8147   -1.5262 H   0  0  0  0  0  0  0  0  0  0  0  0
   -0.8919   -0.2879   -1.6218 H   0  0  0  0  0  0  0  0  0  0  0  0
   -0.0011    0.3144    0.5720 H   0  0  0  0  0  0  0  0  0  0  0  0
   -0.0011    1.5519    0.9915 C   0  0  0  0  0  3  0  0  0  0  0  0
    0.8880    2.0605    0.6219 H   0  0  0  0  0  0  0  0  0  0  0  0
   -0.9334    2.1111    1.0536 H   0  0  0  0  0  0  0  0  0  0  0  0
    0.0928    0.9050    1.8624 H   0  0  0  0  0  0  0  0  0  0  0  0
  1  2  1  0
  1  3  1  0
  1  4  1  0
  1  5  1  0
  2  6  1  0
  7  8  1  0
  7  9  1  0
  7 10  1  0
M  RAD  1   7   2
M  END
>  <reaction>  (8) 
rxn_328

>  <mol_properties>  (8) 
{"0": {"label": "*0", "atom_type": "Cs"}, "1": {"label": "*1", "atom_type": "O2s"}, "5": {"label": "*2", "atom_type": "H0"}, "6": {"label": "*3", "atom_type": "Cs"}, "7": {"label": "*4", "atom_type": "H0"}}

>  <type>  (8) 
unop_4

>  <geom_source>  (8) 
Heuristics

$$$$

     RDKit          3D

 10  8  0  0  0  0  0  0  0  0999 V2000
   -0.0000   -0.7915   -1.2190 C   0  0  0  0  0  0  0  0  0  0  0  0
   -0.0000   -0.7915    0.1914 O   0  0  0  0  0  0  0  0  0  0  0  0
    0.8908   -0.3061   -1.6338 H   0  0  0  0  0  0  0  0  0  0  0  0
    0.0000   -1.8329   -1.5382 H   0  0  0  0  0  0  0  0  0  0  0  0
   -0.8908   -0.3061   -1.6338 H   0  0  0  0  0  0  0  0  0  0  0  0
   -0.0000    0.2962    0.5601 H   0  0  0  0  0  0  0  0  0  0  0  0
   -0.0000    1.5337    0.9796 C   0  0  0  0  0  3  0  0  0  0  0  0
   -0.0000    1.5479    2.0684 H   0  0  0  0  0  0  0  0  0  0  0  0
    0.8891    2.1622    0.9952 H   0  0  0  0  0  0  0  0  0  0  0  0
   -0.8891    2.1622    0.9952 H   0  0  0  0  0  0  0  0  0  0  0  0
  1  2  1  0
  1  3  1  0
  1  4  1  0
  1  5  1  0
  2  6  1  0
  7  8  1  0
  7  9  1  0
  7 10  1  0
M  RAD  1   7   2
M  END
>  <reaction>  (9) 
rxn_328

>  <mol_properties>  (9) 
{"0": {"label": "*0", "atom_type": "Cs"}, "1": {"label": "*1", "atom_type": "O2s"}, "5": {"label": "*2", "atom_type": "H0"}, "6": {"label": "*3", "atom_type": "Cs"}, "7": {"label": "*4", "atom_type": "H0"}}

>  <type>  (9) 
unop_5

>  <geom_source>  (9) 
Heuristics

$$$$

     RDKit          3D

 10  8  0  0  0  0  0  0  0  0999 V2000
   -0.0005   -0.7764   -1.2130 C   0  0  0  0  0  0  0  0  0  0  0  0
   -0.0005   -0.7764    0.1974 O   0  0  0  0  0  0  0  0  0  0  0  0
    0.8903   -0.2910   -1.6278 H   0  0  0  0  0  0  0  0  0  0  0  0
   -0.0005   -1.8178   -1.5322 H   0  0  0  0  0  0  0  0  0  0  0  0
   -0.8913   -0.2911   -1.6278 H   0  0  0  0  0  0  0  0  0  0  0  0
   -0.0005    0.3112    0.5661 H   0  0  0  0  0  0  0  0  0  0  0  0
   -0.0005    1.5488    0.9856 C   0  0  0  0  0  3  0  0  0  0  0  0
    1.0262    1.8925    1.1022 H   0  0  0  0  0  0  0  0  0  0  0  0
   -0.6891    2.3833    0.8630 H   0  0  0  0  0  0  0  0  0  0  0  0
   -0.3156    0.9394    1.8313 H   0  0  0  0  0  0  0  0  0  0  0  0
  1  2  1  0
  1  3  1  0
  1  4  1  0
  1  5  1  0
  2  6  1  0
  7  8  1  0
  7  9  1  0
  7 10  1  0
M  RAD  1   7   2
M  END
>  <reaction>  (10) 
rxn_328

>  <mol_properties>  (10) 
{"0": {"label": "*0", "atom_type": "Cs"}, "1": {"label": "*1", "atom_type": "O2s"}, "5": {"label": "*2", "atom_type": "H0"}, "6": {"label": "*3", "atom_type": "Cs"}, "7": {"label": "*4", "atom_type": "H0"}}

>  <type>  (10) 
unop_6

>  <geom_source>  (10) 
Heuristics

$$$$

     RDKit          3D

 10  8  0  0  0  0  0  0  0  0999 V2000
    0.0025   -0.7805   -1.2183 C   0  0  0  0  0  0  0  0  0  0  0  0
    0.0025   -0.7805    0.1921 O   0  0  0  0  0  0  0  0  0  0  0  0
    0.8933   -0.2951   -1.6331 H   0  0  0  0  0  0  0  0  0  0  0  0
    0.0025   -1.8219   -1.5375 H   0  0  0  0  0  0  0  0  0  0  0  0
   -0.8883   -0.2951   -1.6331 H   0  0  0  0  0  0  0  0  0  0  0  0
    0.0025    0.3071    0.5608 H   0  0  0  0  0  0  0  0  0  0  0  0
    0.0025    1.5447    0.9803 C   0  0  0  0  0  3  0  0  0  0  0  0
    0.8916    1.7236    1.5830 H   0  0  0  0  0  0  0  0  0  0  0  0
   -0.3168    2.5572    0.7383 H   0  0  0  0  0  0  0  0  0  0  0  0
   -0.6829    1.1120    1.7075 H   0  0  0  0  0  0  0  0  0  0  0  0
  1  2  1  0
  1  3  1  0
  1  4  1  0
  1  5  1  0
  2  6  1  0
  7  8  1  0
  7  9  1  0
  7 10  1  0
M  RAD  1   7   2
M  END
>  <reaction>  (11) 
rxn_328

>  <mol_properties>  (11) 
{"0": {"label": "*0", "atom_type": "Cs"}, "1": {"label": "*1", "atom_type": "O2s"}, "5": {"label": "*2", "atom_type": "H0"}, "6": {"label": "*3", "atom_type": "Cs"}, "7": {"label": "*4", "atom_type": "H0"}}

>  <type>  (11) 
unop_7

>  <geom_source>  (11) 
Heuristics

$$$$

     RDKit          3D

 10  8  0  0  0  0  0  0  0  0999 V2000
    0.0005   -0.7764   -1.2130 C   0  0  0  0  0  0  0  0  0  0  0  0
    0.0005   -0.7764    0.1974 O   0  0  0  0  0  0  0  0  0  0  0  0
    0.8913   -0.2910   -1.6278 H   0  0  0  0  0  0  0  0  0  0  0  0
    0.0005   -1.8178   -1.5322 H   0  0  0  0  0  0  0  0  0  0  0  0
   -0.8903   -0.2911   -1.6278 H   0  0  0  0  0  0  0  0  0  0  0  0
    0.0005    0.3112    0.5661 H   0  0  0  0  0  0  0  0  0  0  0  0
    0.0005    1.5488    0.9856 C   0  0  0  0  0  3  0  0  0  0  0  0
   -1.0262    1.8925    1.1022 H   0  0  0  0  0  0  0  0  0  0  0  0
    0.3156    0.9394    1.8313 H   0  0  0  0  0  0  0  0  0  0  0  0
    0.6891    2.3833    0.8630 H   0  0  0  0  0  0  0  0  0  0  0  0
  1  2  1  0
  1  3  1  0
  1  4  1  0
  1  5  1  0
  2  6  1  0
  7  8  1  0
  7  9  1  0
  7 10  1  0
M  RAD  1   7   2
M  END
>  <reaction>  (12) 
rxn_328

>  <mol_properties>  (12) 
{"0": {"label": "*0", "atom_type": "Cs"}, "1": {"label": "*1", "atom_type": "O2s"}, "5": {"label": "*2", "atom_type": "H0"}, "6": {"label": "*3", "atom_type": "Cs"}, "7": {"label": "*4", "atom_type": "H0"}}

>  <type>  (12) 
unop_8

>  <geom_source>  (12) 
Heuristics

$$$$

     RDKit          3D

 10  8  0  0  0  0  0  0  0  0999 V2000
   -0.0003   -0.7704   -1.2031 C   0  0  0  0  0  0  0  0  0  0  0  0
   -0.0003   -0.7704    0.2073 O   0  0  0  0  0  0  0  0  0  0  0  0
    0.8905   -0.2850   -1.6179 H   0  0  0  0  0  0  0  0  0  0  0  0
   -0.0003   -1.8118   -1.5223 H   0  0  0  0  0  0  0  0  0  0  0  0
   -0.8911   -0.2850   -1.6179 H   0  0  0  0  0  0  0  0  0  0  0  0
   -0.0003    0.3172    0.5760 H   0  0  0  0  0  0  0  0  0  0  0  0
   -0.0003    1.5548    0.9955 C   0  0  0  0  0  3  0  0  0  0  0  0
    0.5130    2.1840    0.2700 H   0  0  0  0  0  0  0  0  0  0  0  0
   -1.0268    1.7418    1.3071 H   0  0  0  0  0  0  0  0  0  0  0  0
    0.5287    1.0262    1.7870 H   0  0  0  0  0  0  0  0  0  0  0  0
  1  2  1  0
  1  3  1  0
  1  4  1  0
  1  5  1  0
  2  6  1  0
  7  8  1  0
  7  9  1  0
  7 10  1  0
M  RAD  1   7   2
M  END
>  <reaction>  (13) 
rxn_328

>  <mol_properties>  (13) 
{"0": {"label": "*0", "atom_type": "Cs"}, "1": {"label": "*1", "atom_type": "O2s"}, "5": {"label": "*2", "atom_type": "H0"}, "6": {"label": "*3", "atom_type": "Cs"}, "7": {"label": "*4", "atom_type": "H0"}}

>  <type>  (13) 
unop_9

>  <geom_source>  (13) 
Heuristics

$$$$

     RDKit          3D

 10  8  0  0  0  0  0  0  0  0999 V2000
    0.0011   -0.7733   -1.2071 C   0  0  0  0  0  0  0  0  0  0  0  0
    0.0011   -0.7733    0.2033 O   0  0  0  0  0  0  0  0  0  0  0  0
    0.8919   -0.2879   -1.6218 H   0  0  0  0  0  0  0  0  0  0  0  0
    0.0011   -1.8147   -1.5262 H   0  0  0  0  0  0  0  0  0  0  0  0
   -0.8897   -0.2879   -1.6218 H   0  0  0  0  0  0  0  0  0  0  0  0
    0.0011    0.3144    0.5720 H   0  0  0  0  0  0  0  0  0  0  0  0
    0.0011    1.5519    0.9915 C   0  0  0  0  0  3  0  0  0  0  0  0
   -0.8880    2.0605    0.6219 H   0  0  0  0  0  0  0  0  0  0  0  0
   -0.0928    0.9050    1.8624 H   0  0  0  0  0  0  0  0  0  0  0  0
    0.9334    2.1111    1.0536 H   0  0  0  0  0  0  0  0  0  0  0  0
  1  2  1  0
  1  3  1  0
  1  4  1  0
  1  5  1  0
  2  6  1  0
  7  8  1  0
  7  9  1  0
  7 10  1  0
M  RAD  1   7   2
M  END
>  <reaction>  (14) 
rxn_328

>  <mol_properties>  (14) 
{"0": {"label": "*0", "atom_type": "Cs"}, "1": {"label": "*1", "atom_type": "O2s"}, "5": {"label": "*2", "atom_type": "H0"}, "6": {"label": "*3", "atom_type": "Cs"}, "7": {"label": "*4", "atom_type": "H0"}}

>  <type>  (14) 
unop_10

>  <geom_source>  (14) 
Heuristics

$$$$

     RDKit          3D

 10  8  0  0  0  0  0  0  0  0999 V2000
    0.0050   -0.7867   -1.2200 C   0  0  0  0  0  0  0  0  0  0  0  0
    0.0050   -0.7867    0.1903 O   0  0  0  0  0  0  0  0  0  0  0  0
    0.8958   -0.3013   -1.6348 H   0  0  0  0  0  0  0  0  0  0  0  0
    0.0050   -1.8281   -1.5392 H   0  0  0  0  0  0  0  0  0  0  0  0
   -0.8858   -0.3013   -1.6348 H   0  0  0  0  0  0  0  0  0  0  0  0
    0.0050    0.3009    0.5590 H   0  0  0  0  0  0  0  0  0  0  0  0
    0.0050    1.5385    0.9786 C   0  0  0  0  0  3  0  0  0  0  0  0
    0.5183    1.5968    1.9371 H   0  0  0  0  0  0  0  0  0  0  0  0
    0.2430    2.5701    0.7238 H   0  0  0  0  0  0  0  0  0  0  0  0
   -0.9789    1.4971    1.4434 H   0  0  0  0  0  0  0  0  0  0  0  0
  1  2  1  0
  1  3  1  0
  1  4  1  0
  1  5  1  0
  2  6  1  0
  7  8  1  0
  7  9  1  0
  7 10  1  0
M  RAD  1   7   2
M  END
>  <reaction>  (15) 
rxn_328

>  <mol_properties>  (15) 
{"0": {"label": "*0", "atom_type": "Cs"}, "1": {"label": "*1", "atom_type": "O2s"}, "5": {"label": "*2", "atom_type": "H0"}, "6": {"label": "*3", "atom_type": "Cs"}, "7": {"label": "*4", "atom_type": "H0"}}

>  <type>  (15) 
unop_11

>  <geom_source>  (15) 
Heuristics

$$$$

     RDKit          3D

 10  8  0  0  0  0  0  0  0  0999 V2000
   -0.0000   -0.7691   -1.2018 C   0  0  0  0  0  0  0  0  0  0  0  0
   -0.0000   -0.7691    0.2085 O   0  0  0  0  0  0  0  0  0  0  0  0
    0.8908   -0.2837   -1.6166 H   0  0  0  0  0  0  0  0  0  0  0  0
    0.0000   -1.8105   -1.5210 H   0  0  0  0  0  0  0  0  0  0  0  0
   -0.8908   -0.2837   -1.6166 H   0  0  0  0  0  0  0  0  0  0  0  0
   -0.0000    0.3186    0.5772 H   0  0  0  0  0  0  0  0  0  0  0  0
   -0.0000    1.5561    0.9968 C   0  0  0  0  0  3  0  0  0  0  0  0
   -0.0000    2.2295    0.1410 H   0  0  0  0  0  0  0  0  0  0  0  0
   -0.8891    1.3320    1.5841 H   0  0  0  0  0  0  0  0  0  0  0  0
    0.8891    1.3320    1.5841 H   0  0  0  0  0  0  0  0  0  0  0  0
  1  2  1  0
  1  3  1  0
  1  4  1  0
  1  5  1  0
  2  6  1  0
  7  8  1  0
  7  9  1  0
  7 10  1  0
M  RAD  1   7   2
M  END
>  <reaction>  (16) 
rxn_328

>  <mol_properties>  (16) 
{"0": {"label": "*0", "atom_type": "Cs"}, "1": {"label": "*1", "atom_type": "O2s"}, "5": {"label": "*2", "atom_type": "H0"}, "6": {"label": "*3", "atom_type": "Cs"}, "7": {"label": "*4", "atom_type": "H0"}}

>  <type>  (16) 
unop_12

>  <geom_source>  (16) 
Heuristics

$$$$

     RDKit          3D

 10  8  0  0  0  0  0  0  0  0999 V2000
   -0.5240   -0.1617   -0.7732 O   0  0  0  0  0  1  0  0  0  0  0  0
    1.6915    0.1078    0.1073 C   0  0  0  0  0  0  0  0  0  0  0  0
   -1.7219   -0.1039   -0.0631 C   0  0  0  0  0  0  0  0  0  0  0  0
    2.6415   -0.0396   -0.4464 H   0  0  0  0  0  0  0  0  0  0  0  0
    1.5918   -0.6764    0.8857 H   0  0  0  0  0  0  0  0  0  0  0  0
    1.6949    1.1076    0.5880 H   0  0  0  0  0  0  0  0  0  0  0  0
    0.7454    0.0320   -0.6745 H   0  0  0  0  0  0  0  0  0  0  0  0
   -2.4784    0.4478   -0.6582 H   0  0  0  0  0  0  0  0  0  0  0  0
   -1.5557    0.4200    0.9006 H   0  0  0  0  0  0  0  0  0  0  0  0
   -2.0852   -1.1335    0.1337 H   0  0  0  0  0  0  0  0  0  0  0  0
  1  3  1  0
  2  4  1  0
  2  5  1  0
  2  6  1  0
  2  7  1  0
  3  8  1  0
  3  9  1  0
  3 10  1  0
M  RAD  1   1   2
M  END
>  <reaction>  (17) 
rxn_328

>  <mol_properties>  (17) 
{"0": {"label": "*0", "atom_type": "Cs"}, "1": {"label": "*1", "atom_type": "O2s"}, "5": {"label": "*2", "atom_type": "H0"}, "6": {"label": "*3", "atom_type": "Cs"}, "7": {"label": "*4", "atom_type": "H0"}}

>  <type>  (17) 
unop_13

>  <geom_source>  (17) 
AutoTST

$$$$
