
     RDKit          3D

 10  9  0  0  0  0  0  0  0  0999 V2000
    2.2738    0.0217   -0.0992 C   0  0  0  0  0  0  0  0  0  0  0  0
    1.1083    0.2960   -0.0695 C   0  0  0  0  0  0  0  0  0  0  0  0
   -0.3173    0.6046   -0.0227 C   0  0  0  0  0  0  0  0  0  0  0  0
   -1.1561   -0.5495    0.5292 C   0  0  0  0  0  0  0  0  0  0  0  0
    3.3097   -0.2166   -0.1277 H   0  0  0  0  0  0  0  0  0  0  0  0
   -0.6542    0.8617   -1.0302 H   0  0  0  0  0  0  0  0  0  0  0  0
   -0.4633    1.4978    0.5900 H   0  0  0  0  0  0  0  0  0  0  0  0
   -0.8485   -0.7997    1.5447 H   0  0  0  0  0  0  0  0  0  0  0  0
   -2.2115   -0.2752    0.5459 H   0  0  0  0  0  0  0  0  0  0  0  0
   -1.0409   -1.4407   -0.0879 H   0  0  0  0  0  0  0  0  0  0  0  0
  1  2  3  0
  1  5  1  0
  2  3  1  0
  3  4  1  0
  3  6  1  0
  3  7  1  0
  4  8  1  0
  4  9  1  0
  4 10  1  0
M  END
>  <reaction>  (1) 
rxn_1286

>  <mol_properties>  (1) 
{"2": {"label": "donator", "atom_type": "Cs"}, "5": {"label": "d_hydrogen", "atom_type": "H0"}}

>  <type>  (1) 
r1h

$$$$

     RDKit          3D

  7  6  0  0  0  0  0  0  0  0999 V2000
   -1.3496    0.0255    0.0758 C   0  0  0  0  0  0  0  0  0  0  0  0
   -0.0636   -0.0704   -0.0033 C   0  0  0  0  0  0  0  0  0  0  0  0
    1.2597   -0.1602   -0.0839 C   0  0  0  0  0  0  0  0  0  0  0  0
    2.2616    1.2090   -0.0064 S   0  0  0  0  0  1  0  0  0  0  0  0
   -1.8547   -0.0180    1.0345 H   0  0  0  0  0  0  0  0  0  0  0  0
   -1.9552    0.1601   -0.8138 H   0  0  0  0  0  0  0  0  0  0  0  0
    1.7017   -1.1460   -0.2029 H   0  0  0  0  0  0  0  0  0  0  0  0
  1  2  2  0
  1  5  1  0
  1  6  1  0
  2  3  2  0
  3  4  1  0
  3  7  1  0
M  RAD  1   4   2
M  END
>  <reaction>  (2) 
rxn_1286

>  <mol_properties>  (2) 
{"1": {"label": "acceptor", "atom_type": "Cd"}}

>  <type>  (2) 
r2

$$$$

     RDKit          3D

  8  7  0  0  0  0  0  0  0  0999 V2000
   -1.1617    0.0338    0.5053 C   0  0  0  0  0  0  0  0  0  0  0  0
   -0.1023    0.4503   -0.1863 C   0  0  0  0  0  0  0  0  0  0  0  0
    1.0978   -0.3557   -0.3104 C   0  0  0  0  0  0  0  0  0  0  0  0
    2.4251    0.0667   -1.1256 S   0  0  0  0  0  0  0  0  0  0  0  0
   -1.1653   -0.9292    1.0039 H   0  0  0  0  0  0  0  0  0  0  0  0
   -2.0546    0.6389    0.5948 H   0  0  0  0  0  0  0  0  0  0  0  0
   -0.0991    1.4132   -0.6847 H   0  0  0  0  0  0  0  0  0  0  0  0
    1.0601   -1.3180    0.2032 H   0  0  0  0  0  0  0  0  0  0  0  0
  1  2  2  3
  1  5  1  0
  1  6  1  0
  2  3  1  0
  2  7  1  0
  3  4  2  0
  3  8  1  0
M  END
>  <reaction>  (3) 
rxn_1286

>  <mol_properties>  (3) 
{"0": {"label": "a_hydrogen", "atom_type": "H0"}, "2": {"label": "acceptor", "atom_type": "Cd"}}

>  <type>  (3) 
r2h

$$$$

     RDKit          3D

 17 15  0  0  0  0  0  0  0  0999 V2000
   -0.9415    0.3538   -3.4637 C   0  0  0  0  0  0  0  0  0  0  0  0
   -1.0377    0.4560   -2.2690 C   0  0  0  0  0  0  0  0  0  0  0  0
   -1.1006    0.5635   -0.8520 C   0  0  0  0  0  3  0  0  0  0  0  0
   -0.9311    1.9309   -0.2358 C   0  0  0  0  0  0  0  0  0  0  0  0
   -0.8760    0.2686   -4.5218 H   0  0  0  0  0  0  0  0  0  0  0  0
   -0.0430   -0.1008   -0.4064 H   0  0  0  0  0  0  0  0  0  0  0  0
   -1.8862   -0.0417   -0.4028 H   0  0  0  0  0  0  0  0  0  0  0  0
   -1.8148    2.5462   -0.4197 H   0  0  0  0  0  0  0  0  0  0  0  0
   -0.7991    1.8414    0.8432 H   0  0  0  0  0  0  0  0  0  0  0  0
   -0.0663    2.4436   -0.6567 H   0  0  0  0  0  0  0  0  0  0  0  0
    1.6199   -1.3942   -0.9288 C   0  0  0  0  0  0  0  0  0  0  0  0
    0.9944   -0.7849    0.0530 C   0  0  0  0  0  0  0  0  0  0  0  0
    1.0568   -0.6876    1.4654 C   0  0  0  0  0  0  0  0  0  0  0  0
   -0.1465   -1.1329    2.4755 S   0  0  0  0  0  0  0  0  0  0  0  0
    2.4077   -2.1173   -0.7429 H   0  0  0  0  0  0  0  0  0  0  0  0
    1.3376   -1.2131   -1.9604 H   0  0  0  0  0  0  0  0  0  0  0  0
    1.9492   -0.2069    1.8692 H   0  0  0  0  0  0  0  0  0  0  0  0
  1  2  3  0
  1  5  1  0
  2  3  1  0
  3  4  1  0
  3  7  1  0
  4  8  1  0
  4  9  1  0
  4 10  1  0
  6 12  1  0
 11 12  2  3
 11 15  1  0
 11 16  1  0
 12 13  1  0
 13 14  2  0
 13 17  1  0
M  RAD  1   3   2
M  END
>  <reaction>  (4) 
rxn_1286

>  <mol_properties>  (4) 
{"1": {"label": "*4", "atom_type": "Ct"}, "2": {"label": "*3", "atom_type": "Cs"}, "5": {"label": "*2", "atom_type": "H0"}, "11": {"label": "*1", "atom_type": "Cd"}, "12": {"label": "*0", "atom_type": "CS"}}

>  <type>  (4) 
ts

$$$$

     RDKit          3D

 17 15  0  0  0  0  0  0  0  0999 V2000
   -0.8275    1.1555   -2.7998 C   0  0  0  0  0  0  0  0  0  0  0  0
   -0.8275    1.1555   -1.6021 C   0  0  0  0  0  0  0  0  0  0  0  0
   -0.8275    1.1837   -0.1429 C   0  0  0  0  0  3  0  0  0  0  0  0
   -0.8274    2.6051    0.4227 C   0  0  0  0  0  0  0  0  0  0  0  0
   -0.8275    1.1555   -3.8631 H   0  0  0  0  0  0  0  0  0  0  0  0
    0.2231    0.5296    0.2911 H   0  0  0  0  0  0  0  0  0  0  0  0
   -1.7030    0.6386    0.2188 H   0  0  0  0  0  0  0  0  0  0  0  0
   -1.7097    3.1529    0.0912 H   0  0  0  0  0  0  0  0  0  0  0  0
   -0.8274    2.5778    1.5130 H   0  0  0  0  0  0  0  0  0  0  0  0
    0.0548    3.1529    0.0912 H   0  0  0  0  0  0  0  0  0  0  0  0
    2.1901    0.4780    1.4715 C   0  0  0  0  0  0  0  0  0  0  0  0
    1.2654   -0.1193    0.7217 C   0  0  0  0  0  0  0  0  0  0  0  0
    0.7381   -1.4297    1.0536 C   0  0  0  0  0  0  0  0  0  0  0  0
   -0.3800   -2.2275    0.2062 S   0  0  0  0  0  0  0  0  0  0  0  0
    2.5848    0.0032    2.3629 H   0  0  0  0  0  0  0  0  0  0  0  0
    2.5802    1.4556    1.2195 H   0  0  0  0  0  0  0  0  0  0  0  0
    1.1568   -1.8784    1.9562 H   0  0  0  0  0  0  0  0  0  0  0  0
  1  2  3  0
  1  5  1  0
  2  3  1  0
  3  4  1  0
  3  7  1  0
  4  8  1  0
  4  9  1  0
  4 10  1  0
  6 12  1  0
 11 12  2  3
 11 15  1  0
 11 16  1  0
 12 13  1  0
 13 14  2  0
 13 17  1  0
M  RAD  1   3   2
M  END
>  <reaction>  (5) 
rxn_1286

>  <mol_properties>  (5) 
{"1": {"label": "*4", "atom_type": "Ct"}, "2": {"label": "*3", "atom_type": "Cs"}, "5": {"label": "*2", "atom_type": "H0"}, "11": {"label": "*1", "atom_type": "Cd"}, "12": {"label": "*0", "atom_type": "CS"}}

>  <type>  (5) 
unop_1

>  <geom_source>  (5) 
Heuristics

$$$$

     RDKit          3D

 17 15  0  0  0  0  0  0  0  0999 V2000
   -0.9857    0.6616   -3.4686 C   0  0  0  0  0  0  0  0  0  0  0  0
   -0.9857    0.6616   -2.2709 C   0  0  0  0  0  0  0  0  0  0  0  0
   -0.9857    0.6898   -0.8117 C   0  0  0  0  0  3  0  0  0  0  0  0
   -0.9857    2.1112   -0.2461 C   0  0  0  0  0  0  0  0  0  0  0  0
   -0.9857    0.6616   -4.5319 H   0  0  0  0  0  0  0  0  0  0  0  0
    0.0649    0.0357   -0.3777 H   0  0  0  0  0  0  0  0  0  0  0  0
   -1.8612    0.1447   -0.4500 H   0  0  0  0  0  0  0  0  0  0  0  0
   -1.8679    2.6590   -0.5776 H   0  0  0  0  0  0  0  0  0  0  0  0
   -0.9857    2.0839    0.8441 H   0  0  0  0  0  0  0  0  0  0  0  0
   -0.1035    2.6590   -0.5776 H   0  0  0  0  0  0  0  0  0  0  0  0
    2.2323   -0.6633   -0.6581 C   0  0  0  0  0  0  0  0  0  0  0  0
    1.1071   -0.6133    0.0529 C   0  0  0  0  0  0  0  0  0  0  0  0
    1.0795   -0.9313    1.4683 C   0  0  0  0  0  0  0  0  0  0  0  0
   -0.2331   -0.8977    2.4067 S   0  0  0  0  0  0  0  0  0  0  0  0
    3.1746   -0.9455   -0.2016 H   0  0  0  0  0  0  0  0  0  0  0  0
    2.2475   -0.4251   -1.7138 H   0  0  0  0  0  0  0  0  0  0  0  0
    2.0443   -1.2110    1.8953 H   0  0  0  0  0  0  0  0  0  0  0  0
  1  2  3  0
  1  5  1  0
  2  3  1  0
  3  4  1  0
  3  7  1  0
  4  8  1  0
  4  9  1  0
  4 10  1  0
  6 12  1  0
 11 12  2  3
 11 15  1  0
 11 16  1  0
 12 13  1  0
 13 14  2  0
 13 17  1  0
M  RAD  1   3   2
M  END
>  <reaction>  (6) 
rxn_1286

>  <mol_properties>  (6) 
{"1": {"label": "*4", "atom_type": "Ct"}, "2": {"label": "*3", "atom_type": "Cs"}, "5": {"label": "*2", "atom_type": "H0"}, "11": {"label": "*1", "atom_type": "Cd"}, "12": {"label": "*0", "atom_type": "CS"}}

>  <type>  (6) 
unop_2

>  <geom_source>  (6) 
Heuristics

$$$$

     RDKit          3D

 17 15  0  0  0  0  0  0  0  0999 V2000
   -1.0402    1.1346   -2.4349 C   0  0  0  0  0  0  0  0  0  0  0  0
   -1.0402    1.1346   -1.2372 C   0  0  0  0  0  0  0  0  0  0  0  0
   -1.0402    1.1629    0.2220 C   0  0  0  0  0  3  0  0  0  0  0  0
   -1.0402    2.5842    0.7876 C   0  0  0  0  0  0  0  0  0  0  0  0
   -1.0402    1.1346   -3.4982 H   0  0  0  0  0  0  0  0  0  0  0  0
    0.0104    0.5088    0.6560 H   0  0  0  0  0  0  0  0  0  0  0  0
   -1.9157    0.6178    0.5837 H   0  0  0  0  0  0  0  0  0  0  0  0
   -1.9224    3.1321    0.4561 H   0  0  0  0  0  0  0  0  0  0  0  0
   -1.0402    2.5570    1.8779 H   0  0  0  0  0  0  0  0  0  0  0  0
   -0.1580    3.1321    0.4561 H   0  0  0  0  0  0  0  0  0  0  0  0
    1.6418    0.1837    2.2365 C   0  0  0  0  0  0  0  0  0  0  0  0
    1.0526   -0.1402    1.0867 C   0  0  0  0  0  0  0  0  0  0  0  0
    0.9276   -1.5184    0.6505 C   0  0  0  0  0  0  0  0  0  0  0  0
    0.2316   -2.0029   -0.7227 S   0  0  0  0  0  0  0  0  0  0  0  0
    2.0520   -0.5762    2.8923 H   0  0  0  0  0  0  0  0  0  0  0  0
    1.7325    1.2134    2.5572 H   0  0  0  0  0  0  0  0  0  0  0  0
    1.3508   -2.2568    1.3339 H   0  0  0  0  0  0  0  0  0  0  0  0
  1  2  3  0
  1  5  1  0
  2  3  1  0
  3  4  1  0
  3  7  1  0
  4  8  1  0
  4  9  1  0
  4 10  1  0
  6 12  1  0
 11 12  2  3
 11 15  1  0
 11 16  1  0
 12 13  1  0
 13 14  2  0
 13 17  1  0
M  RAD  1   3   2
M  END
>  <reaction>  (7) 
rxn_1286

>  <mol_properties>  (7) 
{"1": {"label": "*4", "atom_type": "Ct"}, "2": {"label": "*3", "atom_type": "Cs"}, "5": {"label": "*2", "atom_type": "H0"}, "11": {"label": "*1", "atom_type": "Cd"}, "12": {"label": "*0", "atom_type": "CS"}}

>  <type>  (7) 
unop_3

>  <geom_source>  (7) 
Heuristics

$$$$

     RDKit          3D

 17 15  0  0  0  0  0  0  0  0999 V2000
   -1.3336    0.1052   -3.3340 C   0  0  0  0  0  0  0  0  0  0  0  0
   -1.3336    0.1052   -2.1363 C   0  0  0  0  0  0  0  0  0  0  0  0
   -1.3336    0.1335   -0.6771 C   0  0  0  0  0  3  0  0  0  0  0  0
   -1.3335    1.5549   -0.1115 C   0  0  0  0  0  0  0  0  0  0  0  0
   -1.3336    0.1052   -4.3973 H   0  0  0  0  0  0  0  0  0  0  0  0
   -0.2830   -0.5206   -0.2431 H   0  0  0  0  0  0  0  0  0  0  0  0
   -2.2091   -0.4116   -0.3154 H   0  0  0  0  0  0  0  0  0  0  0  0
   -2.2158    2.1027   -0.4430 H   0  0  0  0  0  0  0  0  0  0  0  0
   -1.3335    1.5276    0.9787 H   0  0  0  0  0  0  0  0  0  0  0  0
   -0.4513    2.1027   -0.4430 H   0  0  0  0  0  0  0  0  0  0  0  0
    0.9416   -2.4562   -0.1048 C   0  0  0  0  0  0  0  0  0  0  0  0
    0.7593   -1.1696    0.1875 C   0  0  0  0  0  0  0  0  0  0  0  0
    1.2136   -0.5959    1.4404 C   0  0  0  0  0  0  0  0  0  0  0  0
    1.0366    0.9473    1.8785 S   0  0  0  0  0  0  0  0  0  0  0  0
    1.4395   -3.1257    0.5878 H   0  0  0  0  0  0  0  0  0  0  0  0
    0.6008   -2.8792   -1.0409 H   0  0  0  0  0  0  0  0  0  0  0  0
    1.7102   -1.2971    2.1136 H   0  0  0  0  0  0  0  0  0  0  0  0
  1  2  3  0
  1  5  1  0
  2  3  1  0
  3  4  1  0
  3  7  1  0
  4  8  1  0
  4  9  1  0
  4 10  1  0
  6 12  1  0
 11 12  2  3
 11 15  1  0
 11 16  1  0
 12 13  1  0
 13 14  2  0
 13 17  1  0
M  RAD  1   3   2
M  END
>  <reaction>  (8) 
rxn_1286

>  <mol_properties>  (8) 
{"1": {"label": "*4", "atom_type": "Ct"}, "2": {"label": "*3", "atom_type": "Cs"}, "5": {"label": "*2", "atom_type": "H0"}, "11": {"label": "*1", "atom_type": "Cd"}, "12": {"label": "*0", "atom_type": "CS"}}

>  <type>  (8) 
unop_4

>  <geom_source>  (8) 
Heuristics

$$$$

     RDKit          3D

 17 15  0  0  0  0  0  0  0  0999 V2000
   -1.4858    0.7461   -2.1893 C   0  0  0  0  0  0  0  0  0  0  0  0
   -1.4858    0.7461   -0.9916 C   0  0  0  0  0  0  0  0  0  0  0  0
   -1.4858    0.7743    0.4676 C   0  0  0  0  0  3  0  0  0  0  0  0
   -1.4858    2.1957    1.0332 C   0  0  0  0  0  0  0  0  0  0  0  0
   -1.4858    0.7461   -3.2526 H   0  0  0  0  0  0  0  0  0  0  0  0
   -0.4352    0.1202    0.9016 H   0  0  0  0  0  0  0  0  0  0  0  0
   -2.3613    0.2292    0.8293 H   0  0  0  0  0  0  0  0  0  0  0  0
   -2.3680    2.7435    0.7017 H   0  0  0  0  0  0  0  0  0  0  0  0
   -1.4858    2.1684    2.1234 H   0  0  0  0  0  0  0  0  0  0  0  0
   -0.6035    2.7435    0.7017 H   0  0  0  0  0  0  0  0  0  0  0  0
    0.8512   -0.6575    2.6353 C   0  0  0  0  0  0  0  0  0  0  0  0
    0.6071   -0.5287    1.3322 C   0  0  0  0  0  0  0  0  0  0  0  0
    1.4837   -1.1010    0.3275 C   0  0  0  0  0  0  0  0  0  0  0  0
    1.2676   -0.9956   -1.2684 S   0  0  0  0  0  0  0  0  0  0  0  0
    1.7197   -1.1982    2.9945 H   0  0  0  0  0  0  0  0  0  0  0  0
    0.1940   -0.2287    3.3807 H   0  0  0  0  0  0  0  0  0  0  0  0
    2.3475   -1.6380    0.7235 H   0  0  0  0  0  0  0  0  0  0  0  0
  1  2  3  0
  1  5  1  0
  2  3  1  0
  3  4  1  0
  3  7  1  0
  4  8  1  0
  4  9  1  0
  4 10  1  0
  6 12  1  0
 11 12  2  3
 11 15  1  0
 11 16  1  0
 12 13  1  0
 13 14  2  0
 13 17  1  0
M  RAD  1   3   2
M  END
>  <reaction>  (9) 
rxn_1286

>  <mol_properties>  (9) 
{"1": {"label": "*4", "atom_type": "Ct"}, "2": {"label": "*3", "atom_type": "Cs"}, "5": {"label": "*2", "atom_type": "H0"}, "11": {"label": "*1", "atom_type": "Cd"}, "12": {"label": "*0", "atom_type": "CS"}}

>  <type>  (9) 
unop_5

>  <geom_source>  (9) 
Heuristics

$$$$

     RDKit          3D

 17 15  0  0  0  0  0  0  0  0999 V2000
   -1.4642   -0.0321   -3.0998 C   0  0  0  0  0  0  0  0  0  0  0  0
   -1.4642   -0.0321   -1.9021 C   0  0  0  0  0  0  0  0  0  0  0  0
   -1.4642   -0.0039   -0.4429 C   0  0  0  0  0  3  0  0  0  0  0  0
   -1.4642    1.4175    0.1227 C   0  0  0  0  0  0  0  0  0  0  0  0
   -1.4642   -0.0321   -4.1631 H   0  0  0  0  0  0  0  0  0  0  0  0
   -0.4136   -0.6580   -0.0088 H   0  0  0  0  0  0  0  0  0  0  0  0
   -2.3397   -0.5489   -0.0812 H   0  0  0  0  0  0  0  0  0  0  0  0
   -2.3464    1.9654   -0.2088 H   0  0  0  0  0  0  0  0  0  0  0  0
   -1.4642    1.3902    1.2130 H   0  0  0  0  0  0  0  0  0  0  0  0
   -0.5819    1.9653   -0.2088 H   0  0  0  0  0  0  0  0  0  0  0  0
    0.5749   -2.6146    0.6691 C   0  0  0  0  0  0  0  0  0  0  0  0
    0.6287   -1.3069    0.4218 C   0  0  0  0  0  0  0  0  0  0  0  0
    1.3166   -0.3864    1.3077 C   0  0  0  0  0  0  0  0  0  0  0  0
    1.4327    1.2083    1.0886 S   0  0  0  0  0  0  0  0  0  0  0  0
    1.0465   -3.0412    1.5474 H   0  0  0  0  0  0  0  0  0  0  0  0
    0.0604   -3.2970    0.0050 H   0  0  0  0  0  0  0  0  0  0  0  0
    1.7796   -0.8489    2.1812 H   0  0  0  0  0  0  0  0  0  0  0  0
  1  2  3  0
  1  5  1  0
  2  3  1  0
  3  4  1  0
  3  7  1  0
  4  8  1  0
  4  9  1  0
  4 10  1  0
  6 12  1  0
 11 12  2  3
 11 15  1  0
 11 16  1  0
 12 13  1  0
 13 14  2  0
 13 17  1  0
M  RAD  1   3   2
M  END
>  <reaction>  (10) 
rxn_1286

>  <mol_properties>  (10) 
{"1": {"label": "*4", "atom_type": "Ct"}, "2": {"label": "*3", "atom_type": "Cs"}, "5": {"label": "*2", "atom_type": "H0"}, "11": {"label": "*1", "atom_type": "Cd"}, "12": {"label": "*0", "atom_type": "CS"}}

>  <type>  (10) 
unop_6

>  <geom_source>  (10) 
Heuristics

$$$$

     RDKit          3D

 17 15  0  0  0  0  0  0  0  0999 V2000
   -1.5820   -0.0410   -2.7766 C   0  0  0  0  0  0  0  0  0  0  0  0
   -1.5820   -0.0410   -1.5789 C   0  0  0  0  0  0  0  0  0  0  0  0
   -1.5820   -0.0128   -0.1198 C   0  0  0  0  0  3  0  0  0  0  0  0
   -1.5819    1.4086    0.4458 C   0  0  0  0  0  0  0  0  0  0  0  0
   -1.5820   -0.0410   -3.8399 H   0  0  0  0  0  0  0  0  0  0  0  0
   -0.5314   -0.6669    0.3143 H   0  0  0  0  0  0  0  0  0  0  0  0
   -2.4575   -0.5578    0.2419 H   0  0  0  0  0  0  0  0  0  0  0  0
   -2.4642    1.9565    0.1144 H   0  0  0  0  0  0  0  0  0  0  0  0
   -1.5819    1.3813    1.5361 H   0  0  0  0  0  0  0  0  0  0  0  0
   -0.6997    1.9565    0.1144 H   0  0  0  0  0  0  0  0  0  0  0  0
    0.3838   -2.3865    1.5269 C   0  0  0  0  0  0  0  0  0  0  0  0
    0.5109   -1.3158    0.7449 C   0  0  0  0  0  0  0  0  0  0  0  0
    1.4715   -0.2667    1.0311 C   0  0  0  0  0  0  0  0  0  0  0  0
    1.6943    1.0620    0.1426 S   0  0  0  0  0  0  0  0  0  0  0  0
    0.9978   -2.5135    2.4116 H   0  0  0  0  0  0  0  0  0  0  0  0
   -0.3344   -3.1663    1.3089 H   0  0  0  0  0  0  0  0  0  0  0  0
    2.0725   -0.4263    1.9282 H   0  0  0  0  0  0  0  0  0  0  0  0
  1  2  3  0
  1  5  1  0
  2  3  1  0
  3  4  1  0
  3  7  1  0
  4  8  1  0
  4  9  1  0
  4 10  1  0
  6 12  1  0
 11 12  2  3
 11 15  1  0
 11 16  1  0
 12 13  1  0
 13 14  2  0
 13 17  1  0
M  RAD  1   3   2
M  END
>  <reaction>  (11) 
rxn_1286

>  <mol_properties>  (11) 
{"1": {"label": "*4", "atom_type": "Ct"}, "2": {"label": "*3", "atom_type": "Cs"}, "5": {"label": "*2", "atom_type": "H0"}, "11": {"label": "*1", "atom_type": "Cd"}, "12": {"label": "*0", "atom_type": "CS"}}

>  <type>  (11) 
unop_7

>  <geom_source>  (11) 
Heuristics

$$$$

     RDKit          3D

 17 15  0  0  0  0  0  0  0  0999 V2000
   -0.7904    1.0365   -3.1204 C   0  0  0  0  0  0  0  0  0  0  0  0
   -0.7904    1.0365   -1.9227 C   0  0  0  0  0  0  0  0  0  0  0  0
   -0.7904    1.0647   -0.4636 C   0  0  0  0  0  3  0  0  0  0  0  0
   -0.7903    2.4861    0.1020 C   0  0  0  0  0  0  0  0  0  0  0  0
   -0.7904    1.0365   -4.1837 H   0  0  0  0  0  0  0  0  0  0  0  0
    0.2602    0.4106   -0.0295 H   0  0  0  0  0  0  0  0  0  0  0  0
   -1.6659    0.5196   -0.1019 H   0  0  0  0  0  0  0  0  0  0  0  0
   -1.6726    3.0339   -0.2294 H   0  0  0  0  0  0  0  0  0  0  0  0
   -0.7903    2.4588    1.1923 H   0  0  0  0  0  0  0  0  0  0  0  0
    0.0919    3.0339   -0.2294 H   0  0  0  0  0  0  0  0  0  0  0  0
    2.4633    0.3801    0.6112 C   0  0  0  0  0  0  0  0  0  0  0  0
    1.3025   -0.2383    0.4011 C   0  0  0  0  0  0  0  0  0  0  0  0
    0.7842   -1.2307    1.3240 C   0  0  0  0  0  0  0  0  0  0  0  0
   -0.6082   -2.0283    1.1512 S   0  0  0  0  0  0  0  0  0  0  0  0
    3.0668    0.1626    1.4854 H   0  0  0  0  0  0  0  0  0  0  0  0
    2.8455    1.1196   -0.0805 H   0  0  0  0  0  0  0  0  0  0  0  0
    1.4163   -1.4251    2.1924 H   0  0  0  0  0  0  0  0  0  0  0  0
  1  2  3  0
  1  5  1  0
  2  3  1  0
  3  4  1  0
  3  7  1  0
  4  8  1  0
  4  9  1  0
  4 10  1  0
  6 12  1  0
 11 12  2  3
 11 15  1  0
 11 16  1  0
 12 13  1  0
 13 14  2  0
 13 17  1  0
M  RAD  1   3   2
M  END
>  <reaction>  (12) 
rxn_1286

>  <mol_properties>  (12) 
{"1": {"label": "*4", "atom_type": "Ct"}, "2": {"label": "*3", "atom_type": "Cs"}, "5": {"label": "*2", "atom_type": "H0"}, "11": {"label": "*1", "atom_type": "Cd"}, "12": {"label": "*0", "atom_type": "CS"}}

>  <type>  (12) 
unop_8

>  <geom_source>  (12) 
Heuristics

$$$$

     RDKit          3D

 17 15  0  0  0  0  0  0  0  0999 V2000
   -1.2163    0.2959   -3.4615 C   0  0  0  0  0  0  0  0  0  0  0  0
   -1.2163    0.2959   -2.2638 C   0  0  0  0  0  0  0  0  0  0  0  0
   -1.2163    0.3242   -0.8047 C   0  0  0  0  0  3  0  0  0  0  0  0
   -1.2163    1.7455   -0.2391 C   0  0  0  0  0  0  0  0  0  0  0  0
   -1.2163    0.2959   -4.5248 H   0  0  0  0  0  0  0  0  0  0  0  0
   -0.1657   -0.3299   -0.3706 H   0  0  0  0  0  0  0  0  0  0  0  0
   -2.0918   -0.2209   -0.4430 H   0  0  0  0  0  0  0  0  0  0  0  0
   -2.0985    2.2934   -0.5705 H   0  0  0  0  0  0  0  0  0  0  0  0
   -1.2163    1.7183    0.8512 H   0  0  0  0  0  0  0  0  0  0  0  0
   -0.3340    2.2934   -0.5705 H   0  0  0  0  0  0  0  0  0  0  0  0
    1.3945   -1.9920   -0.6324 C   0  0  0  0  0  0  0  0  0  0  0  0
    0.8766   -0.9789    0.0600 C   0  0  0  0  0  0  0  0  0  0  0  0
    1.1763   -0.7779    1.4654 C   0  0  0  0  0  0  0  0  0  0  0  0
    0.5964    0.4178    2.3812 S   0  0  0  0  0  0  0  0  0  0  0  0
    2.0632   -2.7079   -0.1675 H   0  0  0  0  0  0  0  0  0  0  0  0
    1.1677   -2.1375   -1.6807 H   0  0  0  0  0  0  0  0  0  0  0  0
    1.8520   -1.5160    1.9012 H   0  0  0  0  0  0  0  0  0  0  0  0
  1  2  3  0
  1  5  1  0
  2  3  1  0
  3  4  1  0
  3  7  1  0
  4  8  1  0
  4  9  1  0
  4 10  1  0
  6 12  1  0
 11 12  2  3
 11 15  1  0
 11 16  1  0
 12 13  1  0
 13 14  2  0
 13 17  1  0
M  RAD  1   3   2
M  END
>  <reaction>  (13) 
rxn_1286

>  <mol_properties>  (13) 
{"1": {"label": "*4", "atom_type": "Ct"}, "2": {"label": "*3", "atom_type": "Cs"}, "5": {"label": "*2", "atom_type": "H0"}, "11": {"label": "*1", "atom_type": "Cd"}, "12": {"label": "*0", "atom_type": "CS"}}

>  <type>  (13) 
unop_9

>  <geom_source>  (13) 
Heuristics

$$$$

     RDKit          3D

 17 15  0  0  0  0  0  0  0  0999 V2000
   -0.8620    0.8530   -3.3485 C   0  0  0  0  0  0  0  0  0  0  0  0
   -0.8620    0.8530   -2.1508 C   0  0  0  0  0  0  0  0  0  0  0  0
   -0.8620    0.8812   -0.6916 C   0  0  0  0  0  3  0  0  0  0  0  0
   -0.8620    2.3026   -0.1260 C   0  0  0  0  0  0  0  0  0  0  0  0
   -0.8620    0.8530   -4.4118 H   0  0  0  0  0  0  0  0  0  0  0  0
    0.1886    0.2271   -0.2576 H   0  0  0  0  0  0  0  0  0  0  0  0
   -1.7375    0.3362   -0.3299 H   0  0  0  0  0  0  0  0  0  0  0  0
   -1.7442    2.8505   -0.4575 H   0  0  0  0  0  0  0  0  0  0  0  0
   -0.8620    2.2753    0.9643 H   0  0  0  0  0  0  0  0  0  0  0  0
    0.0202    2.8504   -0.4575 H   0  0  0  0  0  0  0  0  0  0  0  0
    2.4650   -0.0404   -0.1516 C   0  0  0  0  0  0  0  0  0  0  0  0
    1.2308   -0.4218    0.1731 C   0  0  0  0  0  0  0  0  0  0  0  0
    0.9310   -1.0440    1.4491 C   0  0  0  0  0  0  0  0  0  0  0  0
   -0.5298   -1.5367    1.9265 S   0  0  0  0  0  0  0  0  0  0  0  0
    3.2958   -0.1821    0.5308 H   0  0  0  0  0  0  0  0  0  0  0  0
    2.6833    0.4233   -1.1048 H   0  0  0  0  0  0  0  0  0  0  0  0
    1.7895   -1.1714    2.1111 H   0  0  0  0  0  0  0  0  0  0  0  0
  1  2  3  0
  1  5  1  0
  2  3  1  0
  3  4  1  0
  3  7  1  0
  4  8  1  0
  4  9  1  0
  4 10  1  0
  6 12  1  0
 11 12  2  3
 11 15  1  0
 11 16  1  0
 12 13  1  0
 13 14  2  0
 13 17  1  0
M  RAD  1   3   2
M  END
>  <reaction>  (14) 
rxn_1286

>  <mol_properties>  (14) 
{"1": {"label": "*4", "atom_type": "Ct"}, "2": {"label": "*3", "atom_type": "Cs"}, "5": {"label": "*2", "atom_type": "H0"}, "11": {"label": "*1", "atom_type": "Cd"}, "12": {"label": "*0", "atom_type": "CS"}}

>  <type>  (14) 
unop_10

>  <geom_source>  (14) 
Heuristics

$$$$

     RDKit          3D

 17 15  0  0  0  0  0  0  0  0999 V2000
   -1.6485    0.1700   -2.4162 C   0  0  0  0  0  0  0  0  0  0  0  0
   -1.6485    0.1700   -1.2185 C   0  0  0  0  0  0  0  0  0  0  0  0
   -1.6485    0.1982    0.2406 C   0  0  0  0  0  3  0  0  0  0  0  0
   -1.6485    1.6196    0.8063 C   0  0  0  0  0  0  0  0  0  0  0  0
   -1.6485    0.1700   -3.4795 H   0  0  0  0  0  0  0  0  0  0  0  0
   -0.5979   -0.4559    0.6747 H   0  0  0  0  0  0  0  0  0  0  0  0
   -2.5240   -0.3468    0.6024 H   0  0  0  0  0  0  0  0  0  0  0  0
   -2.5307    2.1675    0.4748 H   0  0  0  0  0  0  0  0  0  0  0  0
   -1.6485    1.5923    1.8965 H   0  0  0  0  0  0  0  0  0  0  0  0
   -0.7663    2.1675    0.4748 H   0  0  0  0  0  0  0  0  0  0  0  0
    0.4262   -1.7440    2.2737 C   0  0  0  0  0  0  0  0  0  0  0  0
    0.4444   -1.1048    1.1053 C   0  0  0  0  0  0  0  0  0  0  0  0
    1.6261   -0.4106    0.6291 C   0  0  0  0  0  0  0  0  0  0  0  0
    1.7392    0.3879   -0.7689 S   0  0  0  0  0  0  0  0  0  0  0  0
    1.3000   -1.7687    2.9154 H   0  0  0  0  0  0  0  0  0  0  0  0
   -0.4580   -2.2603    2.6244 H   0  0  0  0  0  0  0  0  0  0  0  0
    2.4866   -0.4555    1.2990 H   0  0  0  0  0  0  0  0  0  0  0  0
  1  2  3  0
  1  5  1  0
  2  3  1  0
  3  4  1  0
  3  7  1  0
  4  8  1  0
  4  9  1  0
  4 10  1  0
  6 12  1  0
 11 12  2  3
 11 15  1  0
 11 16  1  0
 12 13  1  0
 13 14  2  0
 13 17  1  0
M  RAD  1   3   2
M  END
>  <reaction>  (15) 
rxn_1286

>  <mol_properties>  (15) 
{"1": {"label": "*4", "atom_type": "Ct"}, "2": {"label": "*3", "atom_type": "Cs"}, "5": {"label": "*2", "atom_type": "H0"}, "11": {"label": "*1", "atom_type": "Cd"}, "12": {"label": "*0", "atom_type": "CS"}}

>  <type>  (15) 
unop_11

>  <geom_source>  (15) 
Heuristics

$$$$

     RDKit          3D

 17 15  0  0  0  0  0  0  0  0999 V2000
   -1.1081    0.4825   -3.5006 C   0  0  0  0  0  0  0  0  0  0  0  0
   -1.1081    0.4825   -2.3029 C   0  0  0  0  0  0  0  0  0  0  0  0
   -1.1081    0.5108   -0.8437 C   0  0  0  0  0  3  0  0  0  0  0  0
   -1.1081    1.9321   -0.2781 C   0  0  0  0  0  0  0  0  0  0  0  0
   -1.1081    0.4825   -4.5639 H   0  0  0  0  0  0  0  0  0  0  0  0
   -0.0575   -0.1433   -0.4097 H   0  0  0  0  0  0  0  0  0  0  0  0
   -1.9836   -0.0343   -0.4820 H   0  0  0  0  0  0  0  0  0  0  0  0
   -1.9903    2.4800   -0.6096 H   0  0  0  0  0  0  0  0  0  0  0  0
   -1.1081    1.9049    0.8122 H   0  0  0  0  0  0  0  0  0  0  0  0
   -0.2259    2.4800   -0.6096 H   0  0  0  0  0  0  0  0  0  0  0  0
    1.8477   -1.3528   -0.8247 C   0  0  0  0  0  0  0  0  0  0  0  0
    0.9848   -0.7923    0.0210 C   0  0  0  0  0  0  0  0  0  0  0  0
    1.1577   -0.8735    1.4593 C   0  0  0  0  0  0  0  0  0  0  0  0
    0.1660   -0.2269    2.5562 S   0  0  0  0  0  0  0  0  0  0  0  0
    2.7165   -1.8937   -0.4662 H   0  0  0  0  0  0  0  0  0  0  0  0
    1.7141   -1.2893   -1.8968 H   0  0  0  0  0  0  0  0  0  0  0  0
    2.0416   -1.4246    1.7854 H   0  0  0  0  0  0  0  0  0  0  0  0
  1  2  3  0
  1  5  1  0
  2  3  1  0
  3  4  1  0
  3  7  1  0
  4  8  1  0
  4  9  1  0
  4 10  1  0
  6 12  1  0
 11 12  2  3
 11 15  1  0
 11 16  1  0
 12 13  1  0
 13 14  2  0
 13 17  1  0
M  RAD  1   3   2
M  END
>  <reaction>  (16) 
rxn_1286

>  <mol_properties>  (16) 
{"1": {"label": "*4", "atom_type": "Ct"}, "2": {"label": "*3", "atom_type": "Cs"}, "5": {"label": "*2", "atom_type": "H0"}, "11": {"label": "*1", "atom_type": "Cd"}, "12": {"label": "*0", "atom_type": "CS"}}

>  <type>  (16) 
unop_12

>  <geom_source>  (16) 
Heuristics

$$$$

     RDKit          3D

 17 15  0  0  0  0  0  0  0  0999 V2000
    0.1236    2.4992    0.3924 S   0  0  0  0  0  0  0  0  0  0  0  0
   -1.5216   -1.6368    0.1241 C   0  0  0  0  0  0  0  0  0  0  0  0
   -0.7847   -0.5163   -0.5951 C   0  0  0  0  0  3  0  0  0  0  0  0
    1.5616    0.2352    0.2110 C   0  0  0  0  0  0  0  0  0  0  0  0
    1.4555    1.6094    0.7125 C   0  0  0  0  0  0  0  0  0  0  0  0
    2.6352   -0.5081    0.4585 C   0  0  0  0  0  0  0  0  0  0  0  0
   -1.6466    0.6613   -0.7440 C   0  0  0  0  0  0  0  0  0  0  0  0
   -2.3542    1.6296   -0.8667 C   0  0  0  0  0  0  0  0  0  0  0  0
   -0.8446   -2.5095    0.2329 H   0  0  0  0  0  0  0  0  0  0  0  0
   -1.8334   -1.3022    1.1365 H   0  0  0  0  0  0  0  0  0  0  0  0
   -2.4171   -1.9477   -0.4560 H   0  0  0  0  0  0  0  0  0  0  0  0
    0.6481   -0.2397   -0.4472 H   0  0  0  0  0  0  0  0  0  0  0  0
   -0.4541   -0.8615   -1.5974 H   0  0  0  0  0  0  0  0  0  0  0  0
    2.2543    2.0481    1.2976 H   0  0  0  0  0  0  0  0  0  0  0  0
    2.6891   -1.5191    0.0773 H   0  0  0  0  0  0  0  0  0  0  0  0
    3.4645   -0.1215    1.0381 H   0  0  0  0  0  0  0  0  0  0  0  0
   -2.9755    2.4796   -0.9743 H   0  0  0  0  0  0  0  0  0  0  0  0
  1  5  2  0
  2  3  1  0
  2  9  1  0
  2 10  1  0
  2 11  1  0
  3  7  1  0
  3 13  1  0
  4  6  2  3
  4  5  1  0
  4 12  1  0
  5 14  1  0
  6 15  1  0
  6 16  1  0
  7  8  3  0
  8 17  1  0
M  RAD  1   3   2
M  END
>  <reaction>  (17) 
rxn_1286

>  <mol_properties>  (17) 
{"1": {"label": "*4", "atom_type": "Ct"}, "2": {"label": "*3", "atom_type": "Cs"}, "5": {"label": "*2", "atom_type": "H0"}, "11": {"label": "*1", "atom_type": "Cd"}, "12": {"label": "*0", "atom_type": "CS"}}

>  <type>  (17) 
unop_13

>  <geom_source>  (17) 
AutoTST

$$$$
