
     RDKit          3D

 10  9  0  0  0  0  0  0  0  0999 V2000
    2.2738    0.0217   -0.0992 C   0  0  0  0  0  0  0  0  0  0  0  0
    1.1083    0.2960   -0.0695 C   0  0  0  0  0  0  0  0  0  0  0  0
   -0.3173    0.6046   -0.0227 C   0  0  0  0  0  0  0  0  0  0  0  0
   -1.1561   -0.5495    0.5292 C   0  0  0  0  0  0  0  0  0  0  0  0
    3.3097   -0.2166   -0.1277 H   0  0  0  0  0  0  0  0  0  0  0  0
   -0.6542    0.8617   -1.0302 H   0  0  0  0  0  0  0  0  0  0  0  0
   -0.4633    1.4978    0.5900 H   0  0  0  0  0  0  0  0  0  0  0  0
   -0.8485   -0.7997    1.5447 H   0  0  0  0  0  0  0  0  0  0  0  0
   -2.2115   -0.2752    0.5459 H   0  0  0  0  0  0  0  0  0  0  0  0
   -1.0409   -1.4407   -0.0879 H   0  0  0  0  0  0  0  0  0  0  0  0
  1  2  3  0
  1  5  1  0
  2  3  1  0
  3  4  1  0
  3  6  1  0
  3  7  1  0
  4  8  1  0
  4  9  1  0
  4 10  1  0
M  END
>  <reaction>  (1) 
rxn_1283

>  <mol_properties>  (1) 
{"2": {"label": "donator", "atom_type": "Cs"}, "5": {"label": "d_hydrogen", "atom_type": "H0"}}

>  <type>  (1) 
r1h

$$$$

     RDKit          3D

  9  8  0  0  0  0  0  0  0  0999 V2000
   -1.2704   -0.1236    0.1096 C   0  0  0  0  0  0  0  0  0  0  0  0
    0.0713   -0.5323    0.5887 C   0  0  0  0  0  0  0  0  0  0  0  0
    0.9521   -1.3639   -0.0464 C   0  0  0  0  0  0  0  0  0  0  0  0
    0.6900   -2.1109   -1.5335 S   0  0  0  0  0  1  0  0  0  0  0  0
   -1.3201    0.9657    0.0241 H   0  0  0  0  0  0  0  0  0  0  0  0
   -1.5103   -0.5706   -0.8526 H   0  0  0  0  0  0  0  0  0  0  0  0
   -2.0312   -0.4112    0.8411 H   0  0  0  0  0  0  0  0  0  0  0  0
    0.3863   -0.1265    1.5468 H   0  0  0  0  0  0  0  0  0  0  0  0
    1.8971   -1.5543    0.4552 H   0  0  0  0  0  0  0  0  0  0  0  0
  1  2  1  0
  1  5  1  0
  1  6  1  0
  1  7  1  0
  2  3  2  3
  2  8  1  0
  3  4  1  0
  3  9  1  0
M  RAD  1   4   2
M  END
>  <reaction>  (2) 
rxn_1283

>  <mol_properties>  (2) 
{"1": {"label": "acceptor", "atom_type": "Cs"}}

>  <type>  (2) 
r2

$$$$

     RDKit          3D

 10  9  0  0  0  0  0  0  0  0999 V2000
   -1.1508    0.0666    0.2839 C   0  0  0  0  0  0  0  0  0  0  0  0
    0.1022   -0.3749   -0.4771 C   0  0  0  0  0  0  0  0  0  0  0  0
    1.3428    0.1620    0.1542 C   0  0  0  0  0  0  0  0  0  0  0  0
    2.5613   -0.6971    0.7526 S   0  0  0  0  0  0  0  0  0  0  0  0
   -1.2137    1.1546    0.3481 H   0  0  0  0  0  0  0  0  0  0  0  0
   -2.0472   -0.2935   -0.2212 H   0  0  0  0  0  0  0  0  0  0  0  0
   -1.1467   -0.3334    1.2987 H   0  0  0  0  0  0  0  0  0  0  0  0
    0.1602   -1.4616   -0.5369 H   0  0  0  0  0  0  0  0  0  0  0  0
    0.0536    0.0174   -1.4997 H   0  0  0  0  0  0  0  0  0  0  0  0
    1.3824    1.2528    0.2110 H   0  0  0  0  0  0  0  0  0  0  0  0
  1  2  1  0
  1  5  1  0
  1  6  1  0
  1  7  1  0
  2  3  1  0
  2  8  1  0
  2  9  1  0
  3  4  2  0
  3 10  1  0
M  END
>  <reaction>  (3) 
rxn_1283

>  <mol_properties>  (3) 
{"0": {"label": "a_hydrogen", "atom_type": "H0"}, "2": {"label": "acceptor", "atom_type": "Cs"}}

>  <type>  (3) 
r2h

$$$$

     RDKit          3D

 19 17  0  0  0  0  0  0  0  0999 V2000
   -0.9965    1.0154   -2.2909 C   0  0  0  0  0  0  0  0  0  0  0  0
   -1.4011    0.9144   -1.1612 C   0  0  0  0  0  0  0  0  0  0  0  0
   -1.7610    0.7603    0.1962 C   0  0  0  0  0  3  0  0  0  0  0  0
   -1.9704    1.9905    1.0405 C   0  0  0  0  0  0  0  0  0  0  0  0
   -0.6646    1.1005   -3.2978 H   0  0  0  0  0  0  0  0  0  0  0  0
   -0.5772    0.1877    0.7231 H   0  0  0  0  0  0  0  0  0  0  0  0
   -2.4454   -0.0635    0.3886 H   0  0  0  0  0  0  0  0  0  0  0  0
   -2.9020    2.4934    0.7681 H   0  0  0  0  0  0  0  0  0  0  0  0
   -2.0289    1.7240    2.0966 H   0  0  0  0  0  0  0  0  0  0  0  0
   -1.1551    2.7011    0.9027 H   0  0  0  0  0  0  0  0  0  0  0  0
   -0.2046   -1.4638    2.1419 C   0  0  0  0  0  0  0  0  0  0  0  0
    0.4204   -0.3652    1.3213 C   0  0  0  0  0  0  0  0  0  0  0  0
    1.2900   -0.6825    0.2135 C   0  0  0  0  0  0  0  0  0  0  0  0
    1.4227   -2.1257   -0.5335 S   0  0  0  0  0  0  0  0  0  0  0  0
   -0.6787   -2.2068    1.5011 H   0  0  0  0  0  0  0  0  0  0  0  0
    0.5531   -1.9809    2.7346 H   0  0  0  0  0  0  0  0  0  0  0  0
   -0.9503   -1.0543    2.8251 H   0  0  0  0  0  0  0  0  0  0  0  0
    0.7693    0.4907    1.9014 H   0  0  0  0  0  0  0  0  0  0  0  0
    1.8649    0.1597   -0.1705 H   0  0  0  0  0  0  0  0  0  0  0  0
  1  2  3  0
  1  5  1  0
  2  3  1  0
  3  4  1  0
  3  7  1  0
  4  8  1  0
  4  9  1  0
  4 10  1  0
  6 12  1  0
 11 12  1  0
 11 15  1  0
 11 16  1  0
 11 17  1  0
 12 13  1  0
 12 18  1  0
 13 14  2  0
 13 19  1  0
M  RAD  1   3   2
M  END
>  <reaction>  (4) 
rxn_1283

>  <mol_properties>  (4) 
{"1": {"label": "*4", "atom_type": "Ct"}, "2": {"label": "*3", "atom_type": "Cs"}, "5": {"label": "*2", "atom_type": "H0"}, "11": {"label": "*1", "atom_type": "Cs"}, "12": {"label": "*0", "atom_type": "CS"}}

>  <type>  (4) 
ts

$$$$

     RDKit          3D

 19 17  0  0  0  0  0  0  0  0999 V2000
   -0.5344    0.6009   -3.1422 C   0  0  0  0  0  0  0  0  0  0  0  0
   -0.5344    0.6009   -1.9445 C   0  0  0  0  0  0  0  0  0  0  0  0
   -0.5344    0.6292   -0.4853 C   0  0  0  0  0  3  0  0  0  0  0  0
   -0.5344    2.0505    0.0803 C   0  0  0  0  0  0  0  0  0  0  0  0
   -0.5344    0.6009   -4.2055 H   0  0  0  0  0  0  0  0  0  0  0  0
    0.5162   -0.0249   -0.0512 H   0  0  0  0  0  0  0  0  0  0  0  0
   -1.4100    0.0841   -0.1236 H   0  0  0  0  0  0  0  0  0  0  0  0
   -1.4166    2.5984   -0.2512 H   0  0  0  0  0  0  0  0  0  0  0  0
   -0.5344    2.0233    1.1706 H   0  0  0  0  0  0  0  0  0  0  0  0
    0.3478    2.5984   -0.2512 H   0  0  0  0  0  0  0  0  0  0  0  0
    2.4693    0.2316    1.2173 C   0  0  0  0  0  0  0  0  0  0  0  0
    1.5638   -0.6772    0.3816 C   0  0  0  0  0  0  0  0  0  0  0  0
    0.4414   -1.2283    1.1955 C   0  0  0  0  0  0  0  0  0  0  0  0
   -1.1286   -1.0154    0.9292 S   0  0  0  0  0  0  0  0  0  0  0  0
    1.9177    1.1018    1.5752 H   0  0  0  0  0  0  0  0  0  0  0  0
    2.8704   -0.2964    2.0845 H   0  0  0  0  0  0  0  0  0  0  0  0
    3.3097    0.5829    0.6184 H   0  0  0  0  0  0  0  0  0  0  0  0
    2.1536   -1.5246    0.0129 H   0  0  0  0  0  0  0  0  0  0  0  0
    0.7595   -1.8169    2.0596 H   0  0  0  0  0  0  0  0  0  0  0  0
  1  2  3  0
  1  5  1  0
  2  3  1  0
  3  4  1  0
  3  7  1  0
  4  8  1  0
  4  9  1  0
  4 10  1  0
  6 12  1  0
 11 12  1  0
 11 15  1  0
 11 16  1  0
 11 17  1  0
 12 13  1  0
 12 18  1  0
 13 14  2  0
 13 19  1  0
M  RAD  1   3   2
M  END
>  <reaction>  (5) 
rxn_1283

>  <mol_properties>  (5) 
{"1": {"label": "*4", "atom_type": "Ct"}, "2": {"label": "*3", "atom_type": "Cs"}, "5": {"label": "*2", "atom_type": "H0"}, "11": {"label": "*1", "atom_type": "Cs"}, "12": {"label": "*0", "atom_type": "CS"}}

>  <type>  (5) 
unop_1

>  <geom_source>  (5) 
Heuristics

$$$$

     RDKit          3D

 19 17  0  0  0  0  0  0  0  0999 V2000
   -1.2005   -0.0579   -3.2366 C   0  0  0  0  0  0  0  0  0  0  0  0
   -1.2005   -0.0579   -2.0389 C   0  0  0  0  0  0  0  0  0  0  0  0
   -1.2005   -0.0297   -0.5797 C   0  0  0  0  0  3  0  0  0  0  0  0
   -1.2005    1.3917   -0.0141 C   0  0  0  0  0  0  0  0  0  0  0  0
   -1.2005   -0.0579   -4.2999 H   0  0  0  0  0  0  0  0  0  0  0  0
   -0.1499   -0.6838   -0.1457 H   0  0  0  0  0  0  0  0  0  0  0  0
   -2.0760   -0.5748   -0.2180 H   0  0  0  0  0  0  0  0  0  0  0  0
   -2.0827    1.9396   -0.3456 H   0  0  0  0  0  0  0  0  0  0  0  0
   -1.2005    1.3644    1.0762 H   0  0  0  0  0  0  0  0  0  0  0  0
   -0.3182    1.9395   -0.3456 H   0  0  0  0  0  0  0  0  0  0  0  0
    2.0549   -1.2400   -0.7109 C   0  0  0  0  0  0  0  0  0  0  0  0
    0.8978   -1.3361    0.2872 C   0  0  0  0  0  0  0  0  0  0  0  0
    1.1214   -0.4545    1.4699 C   0  0  0  0  0  0  0  0  0  0  0  0
    0.1827    0.7570    1.9519 S   0  0  0  0  0  0  0  0  0  0  0  0
    2.1333   -0.2297   -1.1143 H   0  0  0  0  0  0  0  0  0  0  0  0
    3.0071   -1.4925   -0.2405 H   0  0  0  0  0  0  0  0  0  0  0  0
    1.8965   -1.9279   -1.5415 H   0  0  0  0  0  0  0  0  0  0  0  0
    0.8269   -2.3678    0.6509 H   0  0  0  0  0  0  0  0  0  0  0  0
    2.0334   -0.6763    2.0298 H   0  0  0  0  0  0  0  0  0  0  0  0
  1  2  3  0
  1  5  1  0
  2  3  1  0
  3  4  1  0
  3  7  1  0
  4  8  1  0
  4  9  1  0
  4 10  1  0
  6 12  1  0
 11 12  1  0
 11 15  1  0
 11 16  1  0
 11 17  1  0
 12 13  1  0
 12 18  1  0
 13 14  2  0
 13 19  1  0
M  RAD  1   3   2
M  END
>  <reaction>  (6) 
rxn_1283

>  <mol_properties>  (6) 
{"1": {"label": "*4", "atom_type": "Ct"}, "2": {"label": "*3", "atom_type": "Cs"}, "5": {"label": "*2", "atom_type": "H0"}, "11": {"label": "*1", "atom_type": "Cs"}, "12": {"label": "*0", "atom_type": "CS"}}

>  <type>  (6) 
unop_2

>  <geom_source>  (6) 
Heuristics

$$$$

     RDKit          3D

 19 17  0  0  0  0  0  0  0  0999 V2000
   -0.5640    0.9299   -2.9251 C   0  0  0  0  0  0  0  0  0  0  0  0
   -0.5640    0.9299   -1.7274 C   0  0  0  0  0  0  0  0  0  0  0  0
   -0.5640    0.9582   -0.2682 C   0  0  0  0  0  3  0  0  0  0  0  0
   -0.5640    2.3795    0.2974 C   0  0  0  0  0  0  0  0  0  0  0  0
   -0.5640    0.9299   -3.9884 H   0  0  0  0  0  0  0  0  0  0  0  0
    0.4866    0.3041    0.1658 H   0  0  0  0  0  0  0  0  0  0  0  0
   -1.4395    0.4131    0.0935 H   0  0  0  0  0  0  0  0  0  0  0  0
   -1.4462    2.9274   -0.0341 H   0  0  0  0  0  0  0  0  0  0  0  0
   -0.5640    2.3523    1.3877 H   0  0  0  0  0  0  0  0  0  0  0  0
    0.3183    2.9274   -0.0341 H   0  0  0  0  0  0  0  0  0  0  0  0
    2.0186    0.2173    1.9365 C   0  0  0  0  0  0  0  0  0  0  0  0
    1.5343   -0.3482    0.5987 C   0  0  0  0  0  0  0  0  0  0  0  0
    0.6034   -1.4974    0.7958 C   0  0  0  0  0  0  0  0  0  0  0  0
   -0.9229   -1.5884    0.3024 S   0  0  0  0  0  0  0  0  0  0  0  0
    1.1825    0.6180    2.5111 H   0  0  0  0  0  0  0  0  0  0  0  0
    2.5072   -0.5509    2.5389 H   0  0  0  0  0  0  0  0  0  0  0  0
    2.7352    1.0217    1.7704 H   0  0  0  0  0  0  0  0  0  0  0  0
    2.3993   -0.7149    0.0338 H   0  0  0  0  0  0  0  0  0  0  0  0
    1.0346   -2.3354    1.3491 H   0  0  0  0  0  0  0  0  0  0  0  0
  1  2  3  0
  1  5  1  0
  2  3  1  0
  3  4  1  0
  3  7  1  0
  4  8  1  0
  4  9  1  0
  4 10  1  0
  6 12  1  0
 11 12  1  0
 11 15  1  0
 11 16  1  0
 11 17  1  0
 12 13  1  0
 12 18  1  0
 13 14  2  0
 13 19  1  0
M  RAD  1   3   2
M  END
>  <reaction>  (7) 
rxn_1283

>  <mol_properties>  (7) 
{"1": {"label": "*4", "atom_type": "Ct"}, "2": {"label": "*3", "atom_type": "Cs"}, "5": {"label": "*2", "atom_type": "H0"}, "11": {"label": "*1", "atom_type": "Cs"}, "12": {"label": "*0", "atom_type": "CS"}}

>  <type>  (7) 
unop_3

>  <geom_source>  (7) 
Heuristics

$$$$

     RDKit          3D

 19 17  0  0  0  0  0  0  0  0999 V2000
   -1.8876    0.2757   -2.6803 C   0  0  0  0  0  0  0  0  0  0  0  0
   -1.8876    0.2757   -1.4826 C   0  0  0  0  0  0  0  0  0  0  0  0
   -1.8876    0.3039   -0.0234 C   0  0  0  0  0  3  0  0  0  0  0  0
   -1.8876    1.7253    0.5422 C   0  0  0  0  0  0  0  0  0  0  0  0
   -1.8876    0.2757   -3.7436 H   0  0  0  0  0  0  0  0  0  0  0  0
   -0.8370   -0.3502    0.4106 H   0  0  0  0  0  0  0  0  0  0  0  0
   -2.7631   -0.2412    0.3383 H   0  0  0  0  0  0  0  0  0  0  0  0
   -2.7698    2.2731    0.2107 H   0  0  0  0  0  0  0  0  0  0  0  0
   -1.8876    1.6980    1.6325 H   0  0  0  0  0  0  0  0  0  0  0  0
   -1.0054    2.2731    0.2107 H   0  0  0  0  0  0  0  0  0  0  0  0
    0.1842   -2.4586    0.3710 C   0  0  0  0  0  0  0  0  0  0  0  0
    0.2106   -1.0025    0.8435 C   0  0  0  0  0  0  0  0  0  0  0  0
    1.6037   -0.5394    1.1098 C   0  0  0  0  0  0  0  0  0  0  0  0
    2.3626    0.6778    0.3863 S   0  0  0  0  0  0  0  0  0  0  0  0
    0.7106   -2.5657   -0.5782 H   0  0  0  0  0  0  0  0  0  0  0  0
    0.6577   -3.1208    1.0984 H   0  0  0  0  0  0  0  0  0  0  0  0
   -0.8440   -2.7925    0.2306 H   0  0  0  0  0  0  0  0  0  0  0  0
   -0.3506   -0.9231    1.7818 H   0  0  0  0  0  0  0  0  0  0  0  0
    2.1336   -1.1214    1.8680 H   0  0  0  0  0  0  0  0  0  0  0  0
  1  2  3  0
  1  5  1  0
  2  3  1  0
  3  4  1  0
  3  7  1  0
  4  8  1  0
  4  9  1  0
  4 10  1  0
  6 12  1  0
 11 12  1  0
 11 15  1  0
 11 16  1  0
 11 17  1  0
 12 13  1  0
 12 18  1  0
 13 14  2  0
 13 19  1  0
M  RAD  1   3   2
M  END
>  <reaction>  (8) 
rxn_1283

>  <mol_properties>  (8) 
{"1": {"label": "*4", "atom_type": "Ct"}, "2": {"label": "*3", "atom_type": "Cs"}, "5": {"label": "*2", "atom_type": "H0"}, "11": {"label": "*1", "atom_type": "Cs"}, "12": {"label": "*0", "atom_type": "CS"}}

>  <type>  (8) 
unop_4

>  <geom_source>  (8) 
Heuristics

$$$$

     RDKit          3D

 19 17  0  0  0  0  0  0  0  0999 V2000
   -0.9364    1.2198   -2.5790 C   0  0  0  0  0  0  0  0  0  0  0  0
   -0.9364    1.2198   -1.3813 C   0  0  0  0  0  0  0  0  0  0  0  0
   -0.9364    1.2481    0.0778 C   0  0  0  0  0  3  0  0  0  0  0  0
   -0.9364    2.6694    0.6434 C   0  0  0  0  0  0  0  0  0  0  0  0
   -0.9364    1.2198   -3.6423 H   0  0  0  0  0  0  0  0  0  0  0  0
    0.1141    0.5939    0.5119 H   0  0  0  0  0  0  0  0  0  0  0  0
   -1.8120    0.7030    0.4395 H   0  0  0  0  0  0  0  0  0  0  0  0
   -1.8187    3.2173    0.3120 H   0  0  0  0  0  0  0  0  0  0  0  0
   -0.9364    2.6421    1.7337 H   0  0  0  0  0  0  0  0  0  0  0  0
   -0.0542    3.2173    0.3120 H   0  0  0  0  0  0  0  0  0  0  0  0
    1.2129   -0.0609    2.4749 C   0  0  0  0  0  0  0  0  0  0  0  0
    1.1618   -0.0583    0.9447 C   0  0  0  0  0  0  0  0  0  0  0  0
    1.1541   -1.4456    0.3956 C   0  0  0  0  0  0  0  0  0  0  0  0
    0.0086   -2.1082   -0.5153 S   0  0  0  0  0  0  0  0  0  0  0  0
    0.3203   -0.5309    2.8898 H   0  0  0  0  0  0  0  0  0  0  0  0
    2.0850   -0.6052    2.8422 H   0  0  0  0  0  0  0  0  0  0  0  0
    1.2686    0.9597    2.8537 H   0  0  0  0  0  0  0  0  0  0  0  0
    2.0560    0.4459    0.5601 H   0  0  0  0  0  0  0  0  0  0  0  0
    2.0240   -2.0448    0.6761 H   0  0  0  0  0  0  0  0  0  0  0  0
  1  2  3  0
  1  5  1  0
  2  3  1  0
  3  4  1  0
  3  7  1  0
  4  8  1  0
  4  9  1  0
  4 10  1  0
  6 12  1  0
 11 12  1  0
 11 15  1  0
 11 16  1  0
 11 17  1  0
 12 13  1  0
 12 18  1  0
 13 14  2  0
 13 19  1  0
M  RAD  1   3   2
M  END
>  <reaction>  (9) 
rxn_1283

>  <mol_properties>  (9) 
{"1": {"label": "*4", "atom_type": "Ct"}, "2": {"label": "*3", "atom_type": "Cs"}, "5": {"label": "*2", "atom_type": "H0"}, "11": {"label": "*1", "atom_type": "Cs"}, "12": {"label": "*0", "atom_type": "CS"}}

>  <type>  (9) 
unop_5

>  <geom_source>  (9) 
Heuristics

$$$$

     RDKit          3D

 19 17  0  0  0  0  0  0  0  0999 V2000
   -1.8918    0.5016   -2.5135 C   0  0  0  0  0  0  0  0  0  0  0  0
   -1.8918    0.5016   -1.3158 C   0  0  0  0  0  0  0  0  0  0  0  0
   -1.8918    0.5298    0.1434 C   0  0  0  0  0  3  0  0  0  0  0  0
   -1.8918    1.9512    0.7090 C   0  0  0  0  0  0  0  0  0  0  0  0
   -1.8918    0.5016   -3.5768 H   0  0  0  0  0  0  0  0  0  0  0  0
   -0.8412   -0.1243    0.5774 H   0  0  0  0  0  0  0  0  0  0  0  0
   -2.7673   -0.0153    0.5051 H   0  0  0  0  0  0  0  0  0  0  0  0
   -2.7740    2.4990    0.3775 H   0  0  0  0  0  0  0  0  0  0  0  0
   -1.8918    1.9239    1.7993 H   0  0  0  0  0  0  0  0  0  0  0  0
   -1.0095    2.4990    0.3775 H   0  0  0  0  0  0  0  0  0  0  0  0
   -0.1163   -2.2592    1.2152 C   0  0  0  0  0  0  0  0  0  0  0  0
    0.2065   -0.7766    1.0103 C   0  0  0  0  0  0  0  0  0  0  0  0
    1.6780   -0.5432    0.9326 C   0  0  0  0  0  0  0  0  0  0  0  0
    2.4830    0.0888   -0.3058 S   0  0  0  0  0  0  0  0  0  0  0  0
    0.2253   -2.8495    0.3641 H   0  0  0  0  0  0  0  0  0  0  0  0
    0.3645   -2.6497    2.1141 H   0  0  0  0  0  0  0  0  0  0  0  0
   -1.1920   -2.4016    1.3196 H   0  0  0  0  0  0  0  0  0  0  0  0
   -0.1750   -0.2081    1.8665 H   0  0  0  0  0  0  0  0  0  0  0  0
    2.2310   -0.8615    1.8199 H   0  0  0  0  0  0  0  0  0  0  0  0
  1  2  3  0
  1  5  1  0
  2  3  1  0
  3  4  1  0
  3  7  1  0
  4  8  1  0
  4  9  1  0
  4 10  1  0
  6 12  1  0
 11 12  1  0
 11 15  1  0
 11 16  1  0
 11 17  1  0
 12 13  1  0
 12 18  1  0
 13 14  2  0
 13 19  1  0
M  RAD  1   3   2
M  END
>  <reaction>  (10) 
rxn_1283

>  <mol_properties>  (10) 
{"1": {"label": "*4", "atom_type": "Ct"}, "2": {"label": "*3", "atom_type": "Cs"}, "5": {"label": "*2", "atom_type": "H0"}, "11": {"label": "*1", "atom_type": "Cs"}, "12": {"label": "*0", "atom_type": "CS"}}

>  <type>  (10) 
unop_6

>  <geom_source>  (10) 
Heuristics

$$$$

     RDKit          3D

 19 17  0  0  0  0  0  0  0  0999 V2000
   -1.7835    0.7694   -2.3814 C   0  0  0  0  0  0  0  0  0  0  0  0
   -1.7835    0.7694   -1.1837 C   0  0  0  0  0  0  0  0  0  0  0  0
   -1.7835    0.7976    0.2755 C   0  0  0  0  0  3  0  0  0  0  0  0
   -1.7835    2.2190    0.8411 C   0  0  0  0  0  0  0  0  0  0  0  0
   -1.7835    0.7694   -3.4447 H   0  0  0  0  0  0  0  0  0  0  0  0
   -0.7329    0.1435    0.7095 H   0  0  0  0  0  0  0  0  0  0  0  0
   -2.6590    0.2526    0.6372 H   0  0  0  0  0  0  0  0  0  0  0  0
   -2.6657    2.7669    0.5096 H   0  0  0  0  0  0  0  0  0  0  0  0
   -1.7835    2.1917    1.9314 H   0  0  0  0  0  0  0  0  0  0  0  0
   -0.9012    2.7669    0.5096 H   0  0  0  0  0  0  0  0  0  0  0  0
   -0.1001   -1.6938    2.0185 C   0  0  0  0  0  0  0  0  0  0  0  0
    0.3148   -0.5088    1.1424 C   0  0  0  0  0  0  0  0  0  0  0  0
    1.7230   -0.6456    0.6689 C   0  0  0  0  0  0  0  0  0  0  0  0
    2.2162   -0.7231   -0.8582 S   0  0  0  0  0  0  0  0  0  0  0  0
   -0.0764   -2.6227    1.4473 H   0  0  0  0  0  0  0  0  0  0  0  0
    0.5657   -1.8058    2.8764 H   0  0  0  0  0  0  0  0  0  0  0  0
   -1.1131   -1.5503    2.3947 H   0  0  0  0  0  0  0  0  0  0  0  0
    0.2520    0.4110    1.7356 H   0  0  0  0  0  0  0  0  0  0  0  0
    2.4624   -0.7125    1.4709 H   0  0  0  0  0  0  0  0  0  0  0  0
  1  2  3  0
  1  5  1  0
  2  3  1  0
  3  4  1  0
  3  7  1  0
  4  8  1  0
  4  9  1  0
  4 10  1  0
  6 12  1  0
 11 12  1  0
 11 15  1  0
 11 16  1  0
 11 17  1  0
 12 13  1  0
 12 18  1  0
 13 14  2  0
 13 19  1  0
M  RAD  1   3   2
M  END
>  <reaction>  (11) 
rxn_1283

>  <mol_properties>  (11) 
{"1": {"label": "*4", "atom_type": "Ct"}, "2": {"label": "*3", "atom_type": "Cs"}, "5": {"label": "*2", "atom_type": "H0"}, "11": {"label": "*1", "atom_type": "Cs"}, "12": {"label": "*0", "atom_type": "CS"}}

>  <type>  (11) 
unop_7

>  <geom_source>  (11) 
Heuristics

$$$$

     RDKit          3D

 19 17  0  0  0  0  0  0  0  0999 V2000
   -0.6578    0.3282   -3.2675 C   0  0  0  0  0  0  0  0  0  0  0  0
   -0.6578    0.3282   -2.0698 C   0  0  0  0  0  0  0  0  0  0  0  0
   -0.6578    0.3564   -0.6106 C   0  0  0  0  0  3  0  0  0  0  0  0
   -0.6578    1.7778   -0.0450 C   0  0  0  0  0  0  0  0  0  0  0  0
   -0.6578    0.3282   -4.3308 H   0  0  0  0  0  0  0  0  0  0  0  0
    0.3928   -0.2977   -0.1765 H   0  0  0  0  0  0  0  0  0  0  0  0
   -1.5333   -0.1887   -0.2489 H   0  0  0  0  0  0  0  0  0  0  0  0
   -1.5400    2.3256   -0.3765 H   0  0  0  0  0  0  0  0  0  0  0  0
   -0.6578    1.7505    1.0453 H   0  0  0  0  0  0  0  0  0  0  0  0
    0.2245    2.3256   -0.3765 H   0  0  0  0  0  0  0  0  0  0  0  0
    2.6423   -0.0147    0.4145 C   0  0  0  0  0  0  0  0  0  0  0  0
    1.4405   -0.9500    0.2563 C   0  0  0  0  0  0  0  0  0  0  0  0
    0.5474   -0.8992    1.4503 C   0  0  0  0  0  0  0  0  0  0  0  0
   -0.9995   -0.4660    1.4710 S   0  0  0  0  0  0  0  0  0  0  0  0
    2.3161    1.0235    0.4873 H   0  0  0  0  0  0  0  0  0  0  0  0
    3.2163   -0.2539    1.3118 H   0  0  0  0  0  0  0  0  0  0  0  0
    3.3073   -0.1041   -0.4446 H   0  0  0  0  0  0  0  0  0  0  0  0
    1.8024   -1.9799    0.1560 H   0  0  0  0  0  0  0  0  0  0  0  0
    1.0349   -1.1764    2.3884 H   0  0  0  0  0  0  0  0  0  0  0  0
  1  2  3  0
  1  5  1  0
  2  3  1  0
  3  4  1  0
  3  7  1  0
  4  8  1  0
  4  9  1  0
  4 10  1  0
  6 12  1  0
 11 12  1  0
 11 15  1  0
 11 16  1  0
 11 17  1  0
 12 13  1  0
 12 18  1  0
 13 14  2  0
 13 19  1  0
M  RAD  1   3   2
M  END
>  <reaction>  (12) 
rxn_1283

>  <mol_properties>  (12) 
{"1": {"label": "*4", "atom_type": "Ct"}, "2": {"label": "*3", "atom_type": "Cs"}, "5": {"label": "*2", "atom_type": "H0"}, "11": {"label": "*1", "atom_type": "Cs"}, "12": {"label": "*0", "atom_type": "CS"}}

>  <type>  (12) 
unop_8

>  <geom_source>  (12) 
Heuristics

$$$$

     RDKit          3D

 19 17  0  0  0  0  0  0  0  0999 V2000
   -1.7750    0.0745   -2.8681 C   0  0  0  0  0  0  0  0  0  0  0  0
   -1.7750    0.0745   -1.6704 C   0  0  0  0  0  0  0  0  0  0  0  0
   -1.7750    0.1027   -0.2113 C   0  0  0  0  0  3  0  0  0  0  0  0
   -1.7750    1.5241    0.3543 C   0  0  0  0  0  0  0  0  0  0  0  0
   -1.7750    0.0745   -3.9314 H   0  0  0  0  0  0  0  0  0  0  0  0
   -0.7244   -0.5514    0.2228 H   0  0  0  0  0  0  0  0  0  0  0  0
   -2.6506   -0.4424    0.1504 H   0  0  0  0  0  0  0  0  0  0  0  0
   -2.6572    2.0720    0.0229 H   0  0  0  0  0  0  0  0  0  0  0  0
   -1.7750    1.4968    1.4446 H   0  0  0  0  0  0  0  0  0  0  0  0
   -0.8928    2.0719    0.0229 H   0  0  0  0  0  0  0  0  0  0  0  0
    0.7180   -2.3165   -0.3191 C   0  0  0  0  0  0  0  0  0  0  0  0
    0.3232   -1.2037    0.6556 C   0  0  0  0  0  0  0  0  0  0  0  0
    1.5233   -0.5210    1.2209 C   0  0  0  0  0  0  0  0  0  0  0  0
    1.8933    1.0362    1.0814 S   0  0  0  0  0  0  0  0  0  0  0  0
    1.2485   -1.9057   -1.1790 H   0  0  0  0  0  0  0  0  0  0  0  0
    1.3665   -3.0525    0.1600 H   0  0  0  0  0  0  0  0  0  0  0  0
   -0.1698   -2.8349   -0.6815 H   0  0  0  0  0  0  0  0  0  0  0  0
   -0.2327   -1.6441    1.4916 H   0  0  0  0  0  0  0  0  0  0  0  0
    2.2027   -1.1827    1.7641 H   0  0  0  0  0  0  0  0  0  0  0  0
  1  2  3  0
  1  5  1  0
  2  3  1  0
  3  4  1  0
  3  7  1  0
  4  8  1  0
  4  9  1  0
  4 10  1  0
  6 12  1  0
 11 12  1  0
 11 15  1  0
 11 16  1  0
 11 17  1  0
 12 13  1  0
 12 18  1  0
 13 14  2  0
 13 19  1  0
M  RAD  1   3   2
M  END
>  <reaction>  (13) 
rxn_1283

>  <mol_properties>  (13) 
{"1": {"label": "*4", "atom_type": "Ct"}, "2": {"label": "*3", "atom_type": "Cs"}, "5": {"label": "*2", "atom_type": "H0"}, "11": {"label": "*1", "atom_type": "Cs"}, "12": {"label": "*0", "atom_type": "CS"}}

>  <type>  (13) 
unop_9

>  <geom_source>  (13) 
Heuristics

$$$$

     RDKit          3D

 19 17  0  0  0  0  0  0  0  0999 V2000
   -0.8862    0.0952   -3.3055 C   0  0  0  0  0  0  0  0  0  0  0  0
   -0.8862    0.0952   -2.1078 C   0  0  0  0  0  0  0  0  0  0  0  0
   -0.8862    0.1234   -0.6487 C   0  0  0  0  0  3  0  0  0  0  0  0
   -0.8862    1.5448   -0.0831 C   0  0  0  0  0  0  0  0  0  0  0  0
   -0.8862    0.0952   -4.3688 H   0  0  0  0  0  0  0  0  0  0  0  0
    0.1644   -0.5307   -0.2146 H   0  0  0  0  0  0  0  0  0  0  0  0
   -1.7617   -0.4217   -0.2869 H   0  0  0  0  0  0  0  0  0  0  0  0
   -1.7684    2.0926   -0.4145 H   0  0  0  0  0  0  0  0  0  0  0  0
   -0.8862    1.5175    1.0072 H   0  0  0  0  0  0  0  0  0  0  0  0
   -0.0039    2.0926   -0.4145 H   0  0  0  0  0  0  0  0  0  0  0  0
    2.5060   -0.5452   -0.2947 C   0  0  0  0  0  0  0  0  0  0  0  0
    1.2121   -1.1830    0.2182 C   0  0  0  0  0  0  0  0  0  0  0  0
    0.8058   -0.6118    1.5353 C   0  0  0  0  0  0  0  0  0  0  0  0
   -0.5655    0.1587    1.8625 S   0  0  0  0  0  0  0  0  0  0  0  0
    2.3656    0.5216   -0.4734 H   0  0  0  0  0  0  0  0  0  0  0  0
    3.3196   -0.6650    0.4232 H   0  0  0  0  0  0  0  0  0  0  0  0
    2.8121   -1.0108   -1.2316 H   0  0  0  0  0  0  0  0  0  0  0  0
    1.3771   -2.2576    0.3592 H   0  0  0  0  0  0  0  0  0  0  0  0
    1.5484   -0.7362    2.3274 H   0  0  0  0  0  0  0  0  0  0  0  0
  1  2  3  0
  1  5  1  0
  2  3  1  0
  3  4  1  0
  3  7  1  0
  4  8  1  0
  4  9  1  0
  4 10  1  0
  6 12  1  0
 11 12  1  0
 11 15  1  0
 11 16  1  0
 11 17  1  0
 12 13  1  0
 12 18  1  0
 13 14  2  0
 13 19  1  0
M  RAD  1   3   2
M  END
>  <reaction>  (14) 
rxn_1283

>  <mol_properties>  (14) 
{"1": {"label": "*4", "atom_type": "Ct"}, "2": {"label": "*3", "atom_type": "Cs"}, "5": {"label": "*2", "atom_type": "H0"}, "11": {"label": "*1", "atom_type": "Cs"}, "12": {"label": "*0", "atom_type": "CS"}}

>  <type>  (14) 
unop_10

>  <geom_source>  (14) 
Heuristics

$$$$

     RDKit          3D

 19 17  0  0  0  0  0  0  0  0999 V2000
   -1.4889    1.0812   -2.3527 C   0  0  0  0  0  0  0  0  0  0  0  0
   -1.4889    1.0812   -1.1550 C   0  0  0  0  0  0  0  0  0  0  0  0
   -1.4889    1.1095    0.3041 C   0  0  0  0  0  3  0  0  0  0  0  0
   -1.4889    2.5308    0.8697 C   0  0  0  0  0  0  0  0  0  0  0  0
   -1.4889    1.0812   -3.4161 H   0  0  0  0  0  0  0  0  0  0  0  0
   -0.4383    0.4554    0.7382 H   0  0  0  0  0  0  0  0  0  0  0  0
   -2.3645    0.5644    0.6658 H   0  0  0  0  0  0  0  0  0  0  0  0
   -2.3712    3.0787    0.5383 H   0  0  0  0  0  0  0  0  0  0  0  0
   -1.4889    2.5036    1.9600 H   0  0  0  0  0  0  0  0  0  0  0  0
   -0.6067    3.0787    0.5383 H   0  0  0  0  0  0  0  0  0  0  0  0
    0.3313   -0.8403    2.5322 C   0  0  0  0  0  0  0  0  0  0  0  0
    0.6093   -0.1969    1.1710 C   0  0  0  0  0  0  0  0  0  0  0  0
    1.6237   -0.9708    0.3976 C   0  0  0  0  0  0  0  0  0  0  0  0
    1.4111   -1.6606   -1.0377 S   0  0  0  0  0  0  0  0  0  0  0  0
   -0.0977   -1.8354    2.4080 H   0  0  0  0  0  0  0  0  0  0  0  0
    1.2459   -0.9359    3.1206 H   0  0  0  0  0  0  0  0  0  0  0  0
   -0.3734   -0.2335    3.1010 H   0  0  0  0  0  0  0  0  0  0  0  0
    1.0108    0.8108    1.3295 H   0  0  0  0  0  0  0  0  0  0  0  0
    2.5906   -1.0695    0.8975 H   0  0  0  0  0  0  0  0  0  0  0  0
  1  2  3  0
  1  5  1  0
  2  3  1  0
  3  4  1  0
  3  7  1  0
  4  8  1  0
  4  9  1  0
  4 10  1  0
  6 12  1  0
 11 12  1  0
 11 15  1  0
 11 16  1  0
 11 17  1  0
 12 13  1  0
 12 18  1  0
 13 14  2  0
 13 19  1  0
M  RAD  1   3   2
M  END
>  <reaction>  (15) 
rxn_1283

>  <mol_properties>  (15) 
{"1": {"label": "*4", "atom_type": "Ct"}, "2": {"label": "*3", "atom_type": "Cs"}, "5": {"label": "*2", "atom_type": "H0"}, "11": {"label": "*1", "atom_type": "Cs"}, "12": {"label": "*0", "atom_type": "CS"}}

>  <type>  (15) 
unop_11

>  <geom_source>  (15) 
Heuristics

$$$$

     RDKit          3D

 19 17  0  0  0  0  0  0  0  0999 V2000
   -1.5326   -0.0637   -3.0703 C   0  0  0  0  0  0  0  0  0  0  0  0
   -1.5326   -0.0637   -1.8726 C   0  0  0  0  0  0  0  0  0  0  0  0
   -1.5326   -0.0355   -0.4134 C   0  0  0  0  0  3  0  0  0  0  0  0
   -1.5326    1.3859    0.1522 C   0  0  0  0  0  0  0  0  0  0  0  0
   -1.5326   -0.0637   -4.1336 H   0  0  0  0  0  0  0  0  0  0  0  0
   -0.4820   -0.6896    0.0206 H   0  0  0  0  0  0  0  0  0  0  0  0
   -2.4081   -0.5805   -0.0517 H   0  0  0  0  0  0  0  0  0  0  0  0
   -2.4148    1.9338   -0.1793 H   0  0  0  0  0  0  0  0  0  0  0  0
   -1.5326    1.3586    1.2425 H   0  0  0  0  0  0  0  0  0  0  0  0
   -0.6504    1.9338   -0.1793 H   0  0  0  0  0  0  0  0  0  0  0  0
    1.3936   -1.8865   -0.7136 C   0  0  0  0  0  0  0  0  0  0  0  0
    0.5657   -1.3419    0.4535 C   0  0  0  0  0  0  0  0  0  0  0  0
    1.3808   -0.4574    1.3361 C   0  0  0  0  0  0  0  0  0  0  0  0
    1.1026    1.0917    1.6589 S   0  0  0  0  0  0  0  0  0  0  0  0
    1.7361   -1.0741   -1.3557 H   0  0  0  0  0  0  0  0  0  0  0  0
    2.2705   -2.4312   -0.3583 H   0  0  0  0  0  0  0  0  0  0  0  0
    0.7947   -2.5690   -1.3168 H   0  0  0  0  0  0  0  0  0  0  0  0
    0.2122   -2.1828    1.0615 H   0  0  0  0  0  0  0  0  0  0  0  0
    2.2549   -0.9439    1.7762 H   0  0  0  0  0  0  0  0  0  0  0  0
  1  2  3  0
  1  5  1  0
  2  3  1  0
  3  4  1  0
  3  7  1  0
  4  8  1  0
  4  9  1  0
  4 10  1  0
  6 12  1  0
 11 12  1  0
 11 15  1  0
 11 16  1  0
 11 17  1  0
 12 13  1  0
 12 18  1  0
 13 14  2  0
 13 19  1  0
M  RAD  1   3   2
M  END
>  <reaction>  (16) 
rxn_1283

>  <mol_properties>  (16) 
{"1": {"label": "*4", "atom_type": "Ct"}, "2": {"label": "*3", "atom_type": "Cs"}, "5": {"label": "*2", "atom_type": "H0"}, "11": {"label": "*1", "atom_type": "Cs"}, "12": {"label": "*0", "atom_type": "CS"}}

>  <type>  (16) 
unop_12

>  <geom_source>  (16) 
Heuristics

$$$$

     RDKit          3D

 19 17  0  0  0  0  0  0  0  0999 V2000
    1.6041    2.4980    0.0817 S   0  0  0  0  0  0  0  0  0  0  0  0
    1.2835   -0.0210    0.3996 C   0  0  0  0  0  0  0  0  0  0  0  0
    2.2755   -0.6068   -0.6013 C   0  0  0  0  0  0  0  0  0  0  0  0
   -1.9101   -1.3606    0.4569 C   0  0  0  0  0  0  0  0  0  0  0  0
   -1.1787   -0.4008   -0.4703 C   0  0  0  0  0  3  0  0  0  0  0  0
    1.7312    1.3235    0.8996 C   0  0  0  0  0  0  0  0  0  0  0  0
   -1.8797    0.8856   -0.5450 C   0  0  0  0  0  0  0  0  0  0  0  0
   -2.4550    1.9433   -0.6068 C   0  0  0  0  0  0  0  0  0  0  0  0
    1.1993   -0.7148    1.2635 H   0  0  0  0  0  0  0  0  0  0  0  0
    0.0646    0.0784   -0.1750 H   0  0  0  0  0  0  0  0  0  0  0  0
    1.9325   -1.6155   -0.9129 H   0  0  0  0  0  0  0  0  0  0  0  0
    3.2818   -0.6979   -0.1392 H   0  0  0  0  0  0  0  0  0  0  0  0
    2.3407    0.0375   -1.5035 H   0  0  0  0  0  0  0  0  0  0  0  0
   -1.9678   -0.9347    1.4812 H   0  0  0  0  0  0  0  0  0  0  0  0
   -2.9363   -1.5592    0.0794 H   0  0  0  0  0  0  0  0  0  0  0  0
   -1.3538   -2.3199    0.5036 H   0  0  0  0  0  0  0  0  0  0  0  0
   -1.1023   -0.8396   -1.4874 H   0  0  0  0  0  0  0  0  0  0  0  0
    2.0309    1.4329    1.9369 H   0  0  0  0  0  0  0  0  0  0  0  0
   -2.9602    2.8716   -0.6610 H   0  0  0  0  0  0  0  0  0  0  0  0
  1  6  2  0
  2  3  1  0
  2  6  1  0
  2  9  1  0
  2 10  1  0
  3 11  1  0
  3 12  1  0
  3 13  1  0
  4  5  1  0
  4 14  1  0
  4 15  1  0
  4 16  1  0
  5  7  1  0
  5 17  1  0
  6 18  1  0
  7  8  3  0
  8 19  1  0
M  RAD  1   5   2
M  END
>  <reaction>  (17) 
rxn_1283

>  <mol_properties>  (17) 
{"1": {"label": "*4", "atom_type": "Ct"}, "2": {"label": "*3", "atom_type": "Cs"}, "5": {"label": "*2", "atom_type": "H0"}, "11": {"label": "*1", "atom_type": "Cs"}, "12": {"label": "*0", "atom_type": "CS"}}

>  <type>  (17) 
unop_13

>  <geom_source>  (17) 
AutoTST

$$$$

     RDKit          3D

 19 17  0  0  0  0  0  0  0  0999 V2000
   -1.2005   -0.0579   -3.2366 C   0  0  0  0  0  0  0  0  0  0  0  0
   -1.2005   -0.0579   -2.0389 C   0  0  0  0  0  0  0  0  0  0  0  0
   -1.2005   -0.0297   -0.5797 C   0  0  0  0  0  3  0  0  0  0  0  0
   -1.2005    1.3917   -0.0141 C   0  0  0  0  0  0  0  0  0  0  0  0
   -1.2005   -0.0579   -4.2999 H   0  0  0  0  0  0  0  0  0  0  0  0
   -0.1499   -0.6838   -0.1457 H   0  0  0  0  0  0  0  0  0  0  0  0
   -2.0760   -0.5748   -0.2180 H   0  0  0  0  0  0  0  0  0  0  0  0
   -2.0827    1.9396   -0.3456 H   0  0  0  0  0  0  0  0  0  0  0  0
   -1.2005    1.3644    1.0762 H   0  0  0  0  0  0  0  0  0  0  0  0
   -0.3182    1.9395   -0.3456 H   0  0  0  0  0  0  0  0  0  0  0  0
    2.0549   -1.2400   -0.7109 C   0  0  0  0  0  0  0  0  0  0  0  0
    0.8978   -1.3361    0.2872 C   0  0  0  0  0  0  0  0  0  0  0  0
    1.1214   -0.4545    1.4699 C   0  0  0  0  0  0  0  0  0  0  0  0
    0.1827    0.7570    1.9519 S   0  0  0  0  0  0  0  0  0  0  0  0
    2.1333   -0.2297   -1.1143 H   0  0  0  0  0  0  0  0  0  0  0  0
    3.0071   -1.4925   -0.2405 H   0  0  0  0  0  0  0  0  0  0  0  0
    1.8965   -1.9279   -1.5415 H   0  0  0  0  0  0  0  0  0  0  0  0
    0.8269   -2.3678    0.6509 H   0  0  0  0  0  0  0  0  0  0  0  0
    2.0334   -0.6763    2.0298 H   0  0  0  0  0  0  0  0  0  0  0  0
  1  2  3  0
  1  5  1  0
  2  3  1  0
  3  4  1  0
  3  7  1  0
  4  8  1  0
  4  9  1  0
  4 10  1  0
  6 12  1  0
 11 12  1  0
 11 15  1  0
 11 16  1  0
 11 17  1  0
 12 13  1  0
 12 18  1  0
 13 14  2  0
 13 19  1  0
M  RAD  1   3   2
M  END
>  <reaction>  (18) 
rxn_1283

>  <mol_properties>  (18) 
{"1": {"label": "*4", "atom_type": "Ct"}, "2": {"label": "*3", "atom_type": "Cs"}, "5": {"label": "*2", "atom_type": "H0"}, "11": {"label": "*1", "atom_type": "Cs"}, "12": {"label": "*0", "atom_type": "CS"}}

>  <type>  (18) 
unop_14

>  <geom_source>  (18) 
gaussian_log

$$$$
