
     RDKit          3D

  7  6  0  0  0  0  0  0  0  0999 V2000
   -0.6782    0.0507    0.0301 C   0  0  0  0  0  0  0  0  0  0  0  0
    0.8092    0.0996    0.0213 C   0  0  0  0  0  0  0  0  0  0  0  0
    1.7473    0.7521    1.1507 S   0  0  0  0  0  0  0  0  0  0  0  0
   -1.0667    0.5456   -0.8653 H   0  0  0  0  0  0  0  0  0  0  0  0
   -1.0112   -0.9904   -0.0239 H   0  0  0  0  0  0  0  0  0  0  0  0
   -1.0920    0.5225    0.9188 H   0  0  0  0  0  0  0  0  0  0  0  0
    1.2740   -0.3620   -0.8520 H   0  0  0  0  0  0  0  0  0  0  0  0
  1  2  1  0
  1  4  1  0
  1  5  1  0
  1  6  1  0
  2  3  2  0
  2  7  1  0
M  END
>  <reaction>  (1) 
rxn_1957

>  <mol_properties>  (1) 
{"0": {"label": "donator", "atom_type": "Cs"}, "3": {"label": "d_hydrogen", "atom_type": "H0"}}

>  <type>  (1) 
r1h

$$$$

     RDKit          3D

 11 10  0  0  0  0  0  0  0  0999 V2000
    2.0591    0.2533   -0.1061 C   0  0  0  0  0  0  0  0  0  0  0  0
    0.8045   -0.3111   -0.1535 C   0  0  0  0  0  0  0  0  0  0  0  0
   -0.3816    0.3942   -0.1885 C   0  0  0  0  0  3  0  0  0  0  0  0
   -1.7316   -0.2294   -0.2396 C   0  0  0  0  0  0  0  0  0  0  0  0
    2.9505   -0.3576   -0.0805 H   0  0  0  0  0  0  0  0  0  0  0  0
    2.1872    1.3290   -0.0933 H   0  0  0  0  0  0  0  0  0  0  0  0
    0.7385   -1.3970   -0.1643 H   0  0  0  0  0  0  0  0  0  0  0  0
   -0.3340    1.4795   -0.1783 H   0  0  0  0  0  0  0  0  0  0  0  0
   -1.6704   -1.3186   -0.2461 H   0  0  0  0  0  0  0  0  0  0  0  0
   -2.3404    0.0713    0.6191 H   0  0  0  0  0  0  0  0  0  0  0  0
   -2.2805    0.0851   -1.1331 H   0  0  0  0  0  0  0  0  0  0  0  0
  1  2  2  3
  1  5  1  0
  1  6  1  0
  2  3  1  0
  2  7  1  0
  3  4  1  0
  3  8  1  0
  4  9  1  0
  4 10  1  0
  4 11  1  0
M  RAD  1   3   2
M  END
>  <reaction>  (2) 
rxn_1957

>  <mol_properties>  (2) 
{"2": {"label": "acceptor", "atom_type": "Cs"}}

>  <type>  (2) 
r2

$$$$

     RDKit          3D

 12 11  0  0  0  0  0  0  0  0999 V2000
    1.9877    0.1011    0.4814 C   0  0  0  0  0  0  0  0  0  0  0  0
    0.8179    0.5502    0.0525 C   0  0  0  0  0  0  0  0  0  0  0  0
   -0.2939   -0.2692   -0.5320 C   0  0  0  0  0  0  0  0  0  0  0  0
   -0.0292   -1.7631   -0.6328 C   0  0  0  0  0  0  0  0  0  0  0  0
    2.2522   -0.9490    0.4436 H   0  0  0  0  0  0  0  0  0  0  0  0
    2.7295    0.7757    0.8896 H   0  0  0  0  0  0  0  0  0  0  0  0
    0.6162    1.6164    0.1190 H   0  0  0  0  0  0  0  0  0  0  0  0
   -0.5268    0.1319   -1.5245 H   0  0  0  0  0  0  0  0  0  0  0  0
   -1.1959   -0.0938    0.0644 H   0  0  0  0  0  0  0  0  0  0  0  0
    0.1590   -2.1992    0.3502 H   0  0  0  0  0  0  0  0  0  0  0  0
    0.8382   -1.9701   -1.2626 H   0  0  0  0  0  0  0  0  0  0  0  0
   -0.8879   -2.2759   -1.0672 H   0  0  0  0  0  0  0  0  0  0  0  0
  1  2  2  3
  1  5  1  0
  1  6  1  0
  2  3  1  0
  2  7  1  0
  3  4  1  0
  3  8  1  0
  3  9  1  0
  4 10  1  0
  4 11  1  0
  4 12  1  0
M  END
>  <reaction>  (3) 
rxn_1957

>  <mol_properties>  (3) 
{"2": {"label": "acceptor", "atom_type": "Cs"}, "11": {"label": "a_hydrogen", "atom_type": "H0"}}

>  <type>  (3) 
r2h

$$$$

     RDKit          3D

 18 16  0  0  0  0  0  0  0  0999 V2000
   -2.1615   -0.9813    0.8314 C   0  0  0  0  0  0  0  0  0  0  0  0
   -1.3211   -0.6511    1.8191 C   0  0  0  0  0  0  0  0  0  0  0  0
   -0.6889    0.6435    1.9793 C   0  0  0  0  0  3  0  0  0  0  0  0
   -1.2888    1.8689    1.3454 C   0  0  0  0  0  0  0  0  0  0  0  0
   -2.5544   -1.9859    0.7470 H   0  0  0  0  0  0  0  0  0  0  0  0
   -2.4889   -0.2636    0.0900 H   0  0  0  0  0  0  0  0  0  0  0  0
   -1.0186   -1.4223    2.5212 H   0  0  0  0  0  0  0  0  0  0  0  0
   -0.2386    0.8065    2.9561 H   0  0  0  0  0  0  0  0  0  0  0  0
   -2.2843    2.0643    1.7534 H   0  0  0  0  0  0  0  0  0  0  0  0
   -0.6665    2.7441    1.5310 H   0  0  0  0  0  0  0  0  0  0  0  0
   -1.3853    1.7543    0.2642 H   0  0  0  0  0  0  0  0  0  0  0  0
    1.4128    0.4183    0.3153 C   0  0  0  0  0  0  0  0  0  0  0  0
    0.8393   -0.2538   -0.8041 C   0  0  0  0  0  0  0  0  0  0  0  0
    0.0983    0.4774   -2.0738 S   0  0  0  0  0  0  0  0  0  0  0  0
    0.4355    0.4693    1.2078 H   0  0  0  0  0  0  0  0  0  0  0  0
    2.1572   -0.1326    0.8858 H   0  0  0  0  0  0  0  0  0  0  0  0
    1.6239    1.4759    0.1847 H   0  0  0  0  0  0  0  0  0  0  0  0
    0.8662   -1.3421   -0.7733 H   0  0  0  0  0  0  0  0  0  0  0  0
  1  2  2  3
  1  5  1  0
  1  6  1  0
  2  3  1  0
  2  7  1  0
  3  4  1  0
  3  8  1  0
  4  9  1  0
  4 10  1  0
  4 11  1  0
 12 13  1  0
 12 15  1  0
 12 16  1  0
 12 17  1  0
 13 14  2  0
 13 18  1  0
M  RAD  1   3   2
M  END
>  <reaction>  (4) 
rxn_1957

>  <mol_properties>  (4) 
{"1": {"label": "*4", "atom_type": "Cd"}, "2": {"label": "*3", "atom_type": "Cs"}, "11": {"label": "*1", "atom_type": "Cs"}, "12": {"label": "*0", "atom_type": "CS"}, "14": {"label": "*2", "atom_type": "H0"}}

>  <type>  (4) 
ts

$$$$

     RDKit          3D

 18 16  0  0  0  0  0  0  0  0999 V2000
   -1.1487    0.1546    3.6453 C   0  0  0  0  0  0  0  0  0  0  0  0
   -0.4505    0.5191    2.5806 C   0  0  0  0  0  0  0  0  0  0  0  0
   -0.9312    0.5370    1.1601 C   0  0  0  0  0  3  0  0  0  0  0  0
   -2.3676    0.0874    0.9446 C   0  0  0  0  0  0  0  0  0  0  0  0
   -0.7105    0.1764    4.6350 H   0  0  0  0  0  0  0  0  0  0  0  0
   -2.1776   -0.1779    3.5750 H   0  0  0  0  0  0  0  0  0  0  0  0
    0.5778    0.8427    2.7212 H   0  0  0  0  0  0  0  0  0  0  0  0
   -0.7997    1.5518    0.7689 H   0  0  0  0  0  0  0  0  0  0  0  0
   -3.0678    0.7233    1.4898 H   0  0  0  0  0  0  0  0  0  0  0  0
   -2.6287    0.1328   -0.1132 H   0  0  0  0  0  0  0  0  0  0  0  0
   -2.5160   -0.9402    1.2822 H   0  0  0  0  0  0  0  0  0  0  0  0
    1.1726    0.6015   -0.4133 C   0  0  0  0  0  0  0  0  0  0  0  0
    1.1726   -0.5969   -1.2955 C   0  0  0  0  0  0  0  0  0  0  0  0
    1.1726   -0.5969   -2.9021 S   0  0  0  0  0  0  0  0  0  0  0  0
    0.1213    0.5693    0.3730 H   0  0  0  0  0  0  0  0  0  0  0  0
    2.0488    0.5747    0.2420 H   0  0  0  0  0  0  0  0  0  0  0  0
    1.1726    1.5253   -0.9879 H   0  0  0  0  0  0  0  0  0  0  0  0
    1.1726   -1.5514   -0.7655 H   0  0  0  0  0  0  0  0  0  0  0  0
  1  2  2  3
  1  5  1  0
  1  6  1  0
  2  3  1  0
  2  7  1  0
  3  4  1  0
  3  8  1  0
  4  9  1  0
  4 10  1  0
  4 11  1  0
 12 13  1  0
 12 15  1  0
 12 16  1  0
 12 17  1  0
 13 14  2  0
 13 18  1  0
M  RAD  1   3   2
M  END
>  <reaction>  (5) 
rxn_1957

>  <mol_properties>  (5) 
{"1": {"label": "*4", "atom_type": "Cd"}, "2": {"label": "*3", "atom_type": "Cs"}, "11": {"label": "*1", "atom_type": "Cs"}, "12": {"label": "*0", "atom_type": "CS"}, "14": {"label": "*2", "atom_type": "H0"}}

>  <type>  (5) 
unop_1

>  <geom_source>  (5) 
Heuristics

$$$$

     RDKit          3D

 18 16  0  0  0  0  0  0  0  0999 V2000
   -2.2742   -1.2371    1.8816 C   0  0  0  0  0  0  0  0  0  0  0  0
   -1.0562   -0.7239    1.7981 C   0  0  0  0  0  0  0  0  0  0  0  0
   -0.7073    0.7125    1.5452 C   0  0  0  0  0  3  0  0  0  0  0  0
   -1.8864    1.6564    1.3700 C   0  0  0  0  0  0  0  0  0  0  0  0
   -2.4240   -2.2929    2.0682 H   0  0  0  0  0  0  0  0  0  0  0  0
   -3.1652   -0.6310    1.7683 H   0  0  0  0  0  0  0  0  0  0  0  0
   -0.2044   -1.3881    1.9215 H   0  0  0  0  0  0  0  0  0  0  0  0
   -0.0761    1.0600    2.3705 H   0  0  0  0  0  0  0  0  0  0  0  0
   -2.5187    1.6697    2.2599 H   0  0  0  0  0  0  0  0  0  0  0  0
   -1.5390    2.6745    1.1914 H   0  0  0  0  0  0  0  0  0  0  0  0
   -2.5077    1.3611    0.5223 H   0  0  0  0  0  0  0  0  0  0  0  0
    1.3966    0.7771   -0.0282 C   0  0  0  0  0  0  0  0  0  0  0  0
    1.3966   -0.4213   -0.9104 C   0  0  0  0  0  0  0  0  0  0  0  0
    1.3966   -0.4213   -2.5171 S   0  0  0  0  0  0  0  0  0  0  0  0
    0.3452    0.7448    0.7581 H   0  0  0  0  0  0  0  0  0  0  0  0
    2.2727    0.7502    0.6270 H   0  0  0  0  0  0  0  0  0  0  0  0
    1.3965    1.7009   -0.6029 H   0  0  0  0  0  0  0  0  0  0  0  0
    1.3966   -1.3758   -0.3805 H   0  0  0  0  0  0  0  0  0  0  0  0
  1  2  2  3
  1  5  1  0
  1  6  1  0
  2  3  1  0
  2  7  1  0
  3  4  1  0
  3  8  1  0
  4  9  1  0
  4 10  1  0
  4 11  1  0
 12 13  1  0
 12 15  1  0
 12 16  1  0
 12 17  1  0
 13 14  2  0
 13 18  1  0
M  RAD  1   3   2
M  END
>  <reaction>  (6) 
rxn_1957

>  <mol_properties>  (6) 
{"1": {"label": "*4", "atom_type": "Cd"}, "2": {"label": "*3", "atom_type": "Cs"}, "11": {"label": "*1", "atom_type": "Cs"}, "12": {"label": "*0", "atom_type": "CS"}, "14": {"label": "*2", "atom_type": "H0"}}

>  <type>  (6) 
unop_2

>  <geom_source>  (6) 
Heuristics

$$$$

     RDKit          3D

 18 16  0  0  0  0  0  0  0  0999 V2000
   -1.1201    0.8846    3.6156 C   0  0  0  0  0  0  0  0  0  0  0  0
   -0.6210    1.1388    2.4156 C   0  0  0  0  0  0  0  0  0  0  0  0
   -0.9752    0.4432    1.1350 C   0  0  0  0  0  3  0  0  0  0  0  0
   -2.0139   -0.6612    1.2501 C   0  0  0  0  0  0  0  0  0  0  0  0
   -0.7987    1.4449    4.4845 H   0  0  0  0  0  0  0  0  0  0  0  0
   -1.8637    0.1139    3.7804 H   0  0  0  0  0  0  0  0  0  0  0  0
    0.1226    1.9261    2.3197 H   0  0  0  0  0  0  0  0  0  0  0  0
   -1.3185    1.1995    0.4205 H   0  0  0  0  0  0  0  0  0  0  0  0
   -2.9600   -0.2765    1.6359 H   0  0  0  0  0  0  0  0  0  0  0  0
   -2.2077   -1.1081    0.2744 H   0  0  0  0  0  0  0  0  0  0  0  0
   -1.6765   -1.4540    1.9205 H   0  0  0  0  0  0  0  0  0  0  0  0
    1.1287    0.5078   -0.4384 C   0  0  0  0  0  0  0  0  0  0  0  0
    1.1287   -0.6906   -1.3206 C   0  0  0  0  0  0  0  0  0  0  0  0
    1.1287   -0.6906   -2.9273 S   0  0  0  0  0  0  0  0  0  0  0  0
    0.0773    0.4756    0.3479 H   0  0  0  0  0  0  0  0  0  0  0  0
    2.0048    0.4809    0.2168 H   0  0  0  0  0  0  0  0  0  0  0  0
    1.1287    1.4316   -1.0131 H   0  0  0  0  0  0  0  0  0  0  0  0
    1.1287   -1.6451   -0.7907 H   0  0  0  0  0  0  0  0  0  0  0  0
  1  2  2  3
  1  5  1  0
  1  6  1  0
  2  3  1  0
  2  7  1  0
  3  4  1  0
  3  8  1  0
  4  9  1  0
  4 10  1  0
  4 11  1  0
 12 13  1  0
 12 15  1  0
 12 16  1  0
 12 17  1  0
 13 14  2  0
 13 18  1  0
M  RAD  1   3   2
M  END
>  <reaction>  (7) 
rxn_1957

>  <mol_properties>  (7) 
{"1": {"label": "*4", "atom_type": "Cd"}, "2": {"label": "*3", "atom_type": "Cs"}, "11": {"label": "*1", "atom_type": "Cs"}, "12": {"label": "*0", "atom_type": "CS"}, "14": {"label": "*2", "atom_type": "H0"}}

>  <type>  (7) 
unop_3

>  <geom_source>  (7) 
Heuristics

$$$$

     RDKit          3D

 18 16  0  0  0  0  0  0  0  0999 V2000
   -2.6912    1.1800    0.5196 C   0  0  0  0  0  0  0  0  0  0  0  0
   -2.0090    0.1207    0.9274 C   0  0  0  0  0  0  0  0  0  0  0  0
   -0.7821    0.1258    1.7897 C   0  0  0  0  0  3  0  0  0  0  0  0
   -0.2899    1.4960    2.2279 C   0  0  0  0  0  0  0  0  0  0  0  0
   -3.5693    1.0728   -0.1046 H   0  0  0  0  0  0  0  0  0  0  0  0
   -2.4049    2.1899    0.7888 H   0  0  0  0  0  0  0  0  0  0  0  0
   -2.3505   -0.8649    0.6209 H   0  0  0  0  0  0  0  0  0  0  0  0
   -0.9828   -0.4933    2.6710 H   0  0  0  0  0  0  0  0  0  0  0  0
   -1.0490    2.0220    2.8102 H   0  0  0  0  0  0  0  0  0  0  0  0
    0.6020    1.4025    2.8483 H   0  0  0  0  0  0  0  0  0  0  0  0
   -0.0360    2.1193    1.3683 H   0  0  0  0  0  0  0  0  0  0  0  0
    1.3218    0.1903    0.2163 C   0  0  0  0  0  0  0  0  0  0  0  0
    1.3218   -1.0081   -0.6659 C   0  0  0  0  0  0  0  0  0  0  0  0
    1.3218   -1.0081   -2.2726 S   0  0  0  0  0  0  0  0  0  0  0  0
    0.2704    0.1581    1.0026 H   0  0  0  0  0  0  0  0  0  0  0  0
    2.1979    0.1635    0.8715 H   0  0  0  0  0  0  0  0  0  0  0  0
    1.3217    1.1141   -0.3584 H   0  0  0  0  0  0  0  0  0  0  0  0
    1.3218   -1.9626   -0.1360 H   0  0  0  0  0  0  0  0  0  0  0  0
  1  2  2  3
  1  5  1  0
  1  6  1  0
  2  3  1  0
  2  7  1  0
  3  4  1  0
  3  8  1  0
  4  9  1  0
  4 10  1  0
  4 11  1  0
 12 13  1  0
 12 15  1  0
 12 16  1  0
 12 17  1  0
 13 14  2  0
 13 18  1  0
M  RAD  1   3   2
M  END
>  <reaction>  (8) 
rxn_1957

>  <mol_properties>  (8) 
{"1": {"label": "*4", "atom_type": "Cd"}, "2": {"label": "*3", "atom_type": "Cs"}, "11": {"label": "*1", "atom_type": "Cs"}, "12": {"label": "*0", "atom_type": "CS"}, "14": {"label": "*2", "atom_type": "H0"}}

>  <type>  (8) 
unop_4

>  <geom_source>  (8) 
Heuristics

$$$$

     RDKit          3D

 18 16  0  0  0  0  0  0  0  0999 V2000
   -1.0664    1.5629    3.3302 C   0  0  0  0  0  0  0  0  0  0  0  0
   -1.0547    1.5395    2.0061 C   0  0  0  0  0  0  0  0  0  0  0  0
   -1.0875    0.3201    1.1338 C   0  0  0  0  0  3  0  0  0  0  0  0
   -1.1393   -1.0122    1.8647 C   0  0  0  0  0  0  0  0  0  0  0  0
   -1.0400    2.4995    3.8727 H   0  0  0  0  0  0  0  0  0  0  0  0
   -1.1026    0.6569    3.9235 H   0  0  0  0  0  0  0  0  0  0  0  0
   -1.0177    2.4854    1.4714 H   0  0  0  0  0  0  0  0  0  0  0  0
   -1.9481    0.4055    0.4613 H   0  0  0  0  0  0  0  0  0  0  0  0
   -2.0307   -1.0862    2.4906 H   0  0  0  0  0  0  0  0  0  0  0  0
   -1.1604   -1.8388    1.1537 H   0  0  0  0  0  0  0  0  0  0  0  0
   -0.2669   -1.1456    2.5074 H   0  0  0  0  0  0  0  0  0  0  0  0
    1.0164    0.3847   -0.4396 C   0  0  0  0  0  0  0  0  0  0  0  0
    1.0164   -0.8138   -1.3218 C   0  0  0  0  0  0  0  0  0  0  0  0
    1.0164   -0.8138   -2.9285 S   0  0  0  0  0  0  0  0  0  0  0  0
   -0.0350    0.3524    0.3466 H   0  0  0  0  0  0  0  0  0  0  0  0
    1.8925    0.3578    0.2156 H   0  0  0  0  0  0  0  0  0  0  0  0
    1.0163    1.3085   -1.0143 H   0  0  0  0  0  0  0  0  0  0  0  0
    1.0164   -1.7682   -0.7919 H   0  0  0  0  0  0  0  0  0  0  0  0
  1  2  2  3
  1  5  1  0
  1  6  1  0
  2  3  1  0
  2  7  1  0
  3  4  1  0
  3  8  1  0
  4  9  1  0
  4 10  1  0
  4 11  1  0
 12 13  1  0
 12 15  1  0
 12 16  1  0
 12 17  1  0
 13 14  2  0
 13 18  1  0
M  RAD  1   3   2
M  END
>  <reaction>  (9) 
rxn_1957

>  <mol_properties>  (9) 
{"1": {"label": "*4", "atom_type": "Cd"}, "2": {"label": "*3", "atom_type": "Cs"}, "11": {"label": "*1", "atom_type": "Cs"}, "12": {"label": "*0", "atom_type": "CS"}, "14": {"label": "*2", "atom_type": "H0"}}

>  <type>  (9) 
unop_5

>  <geom_source>  (9) 
Heuristics

$$$$

     RDKit          3D

 18 16  0  0  0  0  0  0  0  0999 V2000
   -2.2797    2.0016    0.9575 C   0  0  0  0  0  0  0  0  0  0  0  0
   -2.0480    0.6977    0.9595 C   0  0  0  0  0  0  0  0  0  0  0  0
   -0.9233   -0.0089    1.6559 C   0  0  0  0  0  3  0  0  0  0  0  0
    0.0348    0.8813    2.4314 C   0  0  0  0  0  0  0  0  0  0  0  0
   -3.1230    2.4184    0.4216 H   0  0  0  0  0  0  0  0  0  0  0  0
   -1.6435    2.7019    1.4857 H   0  0  0  0  0  0  0  0  0  0  0  0
   -2.7258    0.0501    0.4088 H   0  0  0  0  0  0  0  0  0  0  0  0
   -1.3561   -0.7583    2.3278 H   0  0  0  0  0  0  0  0  0  0  0  0
   -0.4849    1.4325    3.2175 H   0  0  0  0  0  0  0  0  0  0  0  0
    0.8164    0.2842    2.9024 H   0  0  0  0  0  0  0  0  0  0  0  0
    0.5182    1.6085    1.7761 H   0  0  0  0  0  0  0  0  0  0  0  0
    1.1805    0.0557    0.0825 C   0  0  0  0  0  0  0  0  0  0  0  0
    1.1805   -1.1428   -0.7997 C   0  0  0  0  0  0  0  0  0  0  0  0
    1.1805   -1.1428   -2.4063 S   0  0  0  0  0  0  0  0  0  0  0  0
    0.1291    0.0234    0.8688 H   0  0  0  0  0  0  0  0  0  0  0  0
    2.0566    0.0288    0.7377 H   0  0  0  0  0  0  0  0  0  0  0  0
    1.1805    0.9795   -0.4922 H   0  0  0  0  0  0  0  0  0  0  0  0
    1.1805   -2.0972   -0.2697 H   0  0  0  0  0  0  0  0  0  0  0  0
  1  2  2  3
  1  5  1  0
  1  6  1  0
  2  3  1  0
  2  7  1  0
  3  4  1  0
  3  8  1  0
  4  9  1  0
  4 10  1  0
  4 11  1  0
 12 13  1  0
 12 15  1  0
 12 16  1  0
 12 17  1  0
 13 14  2  0
 13 18  1  0
M  RAD  1   3   2
M  END
>  <reaction>  (10) 
rxn_1957

>  <mol_properties>  (10) 
{"1": {"label": "*4", "atom_type": "Cd"}, "2": {"label": "*3", "atom_type": "Cs"}, "11": {"label": "*1", "atom_type": "Cs"}, "12": {"label": "*0", "atom_type": "CS"}, "14": {"label": "*2", "atom_type": "H0"}}

>  <type>  (10) 
unop_6

>  <geom_source>  (10) 
Heuristics

$$$$

     RDKit          3D

 18 16  0  0  0  0  0  0  0  0999 V2000
   -1.7189    2.4006    1.7301 C   0  0  0  0  0  0  0  0  0  0  0  0
   -1.8888    1.2031    1.1906 C   0  0  0  0  0  0  0  0  0  0  0  0
   -1.0678   -0.0227    1.4596 C   0  0  0  0  0  3  0  0  0  0  0  0
    0.0683    0.1502    2.4552 C   0  0  0  0  0  0  0  0  0  0  0  0
   -2.3676    3.2275    1.4703 H   0  0  0  0  0  0  0  0  0  0  0  0
   -0.9326    2.6045    2.4473 H   0  0  0  0  0  0  0  0  0  0  0  0
   -2.6976    1.0662    0.4771 H   0  0  0  0  0  0  0  0  0  0  0  0
   -1.7417   -0.8153    1.8030 H   0  0  0  0  0  0  0  0  0  0  0  0
   -0.3053    0.4624    3.4324 H   0  0  0  0  0  0  0  0  0  0  0  0
    0.6079   -0.7882    2.5877 H   0  0  0  0  0  0  0  0  0  0  0  0
    0.7829    0.9019    2.1143 H   0  0  0  0  0  0  0  0  0  0  0  0
    1.0361    0.0419   -0.1138 C   0  0  0  0  0  0  0  0  0  0  0  0
    1.0361   -1.1566   -0.9960 C   0  0  0  0  0  0  0  0  0  0  0  0
    1.0361   -1.1566   -2.6027 S   0  0  0  0  0  0  0  0  0  0  0  0
   -0.0153    0.0096    0.6725 H   0  0  0  0  0  0  0  0  0  0  0  0
    1.9122    0.0150    0.5414 H   0  0  0  0  0  0  0  0  0  0  0  0
    1.0361    0.9657   -0.6885 H   0  0  0  0  0  0  0  0  0  0  0  0
    1.0361   -2.1110   -0.4661 H   0  0  0  0  0  0  0  0  0  0  0  0
  1  2  2  3
  1  5  1  0
  1  6  1  0
  2  3  1  0
  2  7  1  0
  3  4  1  0
  3  8  1  0
  4  9  1  0
  4 10  1  0
  4 11  1  0
 12 13  1  0
 12 15  1  0
 12 16  1  0
 12 17  1  0
 13 14  2  0
 13 18  1  0
M  RAD  1   3   2
M  END
>  <reaction>  (11) 
rxn_1957

>  <mol_properties>  (11) 
{"1": {"label": "*4", "atom_type": "Cd"}, "2": {"label": "*3", "atom_type": "Cs"}, "11": {"label": "*1", "atom_type": "Cs"}, "12": {"label": "*0", "atom_type": "CS"}, "14": {"label": "*2", "atom_type": "H0"}}

>  <type>  (11) 
unop_7

>  <geom_source>  (11) 
Heuristics

$$$$

     RDKit          3D

 18 16  0  0  0  0  0  0  0  0999 V2000
   -1.3373   -0.6114    3.3637 C   0  0  0  0  0  0  0  0  0  0  0  0
   -0.5073   -0.0795    2.4793 C   0  0  0  0  0  0  0  0  0  0  0  0
   -0.8857    0.6499    1.2249 C   0  0  0  0  0  3  0  0  0  0  0  0
   -2.3777    0.7798    0.9624 C   0  0  0  0  0  0  0  0  0  0  0  0
   -0.9650   -1.1212    4.2432 H   0  0  0  0  0  0  0  0  0  0  0  0
   -2.4136   -0.5612    3.2484 H   0  0  0  0  0  0  0  0  0  0  0  0
    0.5621   -0.1655    2.6554 H   0  0  0  0  0  0  0  0  0  0  0  0
   -0.4292    1.6452    1.2589 H   0  0  0  0  0  0  0  0  0  0  0  0
   -2.8759    1.3224    1.7681 H   0  0  0  0  0  0  0  0  0  0  0  0
   -2.5576    1.3217    0.0333 H   0  0  0  0  0  0  0  0  0  0  0  0
   -2.8514   -0.1999    0.8755 H   0  0  0  0  0  0  0  0  0  0  0  0
    1.2181    0.7145   -0.3486 C   0  0  0  0  0  0  0  0  0  0  0  0
    1.2181   -0.4840   -1.2307 C   0  0  0  0  0  0  0  0  0  0  0  0
    1.2181   -0.4840   -2.8374 S   0  0  0  0  0  0  0  0  0  0  0  0
    0.1668    0.6822    0.4377 H   0  0  0  0  0  0  0  0  0  0  0  0
    2.0943    0.6876    0.3067 H   0  0  0  0  0  0  0  0  0  0  0  0
    1.2181    1.6383   -0.9232 H   0  0  0  0  0  0  0  0  0  0  0  0
    1.2181   -1.4384   -0.7008 H   0  0  0  0  0  0  0  0  0  0  0  0
  1  2  2  3
  1  5  1  0
  1  6  1  0
  2  3  1  0
  2  7  1  0
  3  4  1  0
  3  8  1  0
  4  9  1  0
  4 10  1  0
  4 11  1  0
 12 13  1  0
 12 15  1  0
 12 16  1  0
 12 17  1  0
 13 14  2  0
 13 18  1  0
M  RAD  1   3   2
M  END
>  <reaction>  (12) 
rxn_1957

>  <mol_properties>  (12) 
{"1": {"label": "*4", "atom_type": "Cd"}, "2": {"label": "*3", "atom_type": "Cs"}, "11": {"label": "*1", "atom_type": "Cs"}, "12": {"label": "*0", "atom_type": "CS"}, "14": {"label": "*2", "atom_type": "H0"}}

>  <type>  (12) 
unop_8

>  <geom_source>  (12) 
Heuristics

$$$$

     RDKit          3D

 18 16  0  0  0  0  0  0  0  0999 V2000
   -2.8500    0.1702    0.5422 C   0  0  0  0  0  0  0  0  0  0  0  0
   -1.7808   -0.3793    1.0978 C   0  0  0  0  0  0  0  0  0  0  0  0
   -0.6804    0.3391    1.8203 C   0  0  0  0  0  3  0  0  0  0  0  0
   -0.8281    1.8496    1.9117 C   0  0  0  0  0  0  0  0  0  0  0  0
   -3.5929   -0.4365    0.0401 H   0  0  0  0  0  0  0  0  0  0  0  0
   -3.0276    1.2389    0.5645 H   0  0  0  0  0  0  0  0  0  0  0  0
   -1.6633   -1.4586    1.0395 H   0  0  0  0  0  0  0  0  0  0  0  0
   -0.6003   -0.0853    2.8272 H   0  0  0  0  0  0  0  0  0  0  0  0
   -1.7429    2.1270    2.4390 H   0  0  0  0  0  0  0  0  0  0  0  0
    0.0138    2.2850    2.4511 H   0  0  0  0  0  0  0  0  0  0  0  0
   -0.8620    2.3051    0.9201 H   0  0  0  0  0  0  0  0  0  0  0  0
    1.4235    0.4037    0.2469 C   0  0  0  0  0  0  0  0  0  0  0  0
    1.4235   -0.7948   -0.6353 C   0  0  0  0  0  0  0  0  0  0  0  0
    1.4235   -0.7948   -2.2420 S   0  0  0  0  0  0  0  0  0  0  0  0
    0.3721    0.3714    1.0332 H   0  0  0  0  0  0  0  0  0  0  0  0
    2.2996    0.3768    0.9021 H   0  0  0  0  0  0  0  0  0  0  0  0
    1.4235    1.3275   -0.3278 H   0  0  0  0  0  0  0  0  0  0  0  0
    1.4235   -1.7492   -0.1054 H   0  0  0  0  0  0  0  0  0  0  0  0
  1  2  2  3
  1  5  1  0
  1  6  1  0
  2  3  1  0
  2  7  1  0
  3  4  1  0
  3  8  1  0
  4  9  1  0
  4 10  1  0
  4 11  1  0
 12 13  1  0
 12 15  1  0
 12 16  1  0
 12 17  1  0
 13 14  2  0
 13 18  1  0
M  RAD  1   3   2
M  END
>  <reaction>  (13) 
rxn_1957

>  <mol_properties>  (13) 
{"1": {"label": "*4", "atom_type": "Cd"}, "2": {"label": "*3", "atom_type": "Cs"}, "11": {"label": "*1", "atom_type": "Cs"}, "12": {"label": "*0", "atom_type": "CS"}, "14": {"label": "*2", "atom_type": "H0"}}

>  <type>  (13) 
unop_9

>  <geom_source>  (13) 
Heuristics

$$$$

     RDKit          3D

 18 16  0  0  0  0  0  0  0  0999 V2000
   -1.7474   -1.1599    2.7380 C   0  0  0  0  0  0  0  0  0  0  0  0
   -0.7298   -0.5180    2.1846 C   0  0  0  0  0  0  0  0  0  0  0  0
   -0.8045    0.7307    1.3575 C   0  0  0  0  0  3  0  0  0  0  0  0
   -2.1989    1.2990    1.1462 C   0  0  0  0  0  0  0  0  0  0  0  0
   -1.5906   -2.0587    3.3209 H   0  0  0  0  0  0  0  0  0  0  0  0
   -2.7706   -0.8189    2.6338 H   0  0  0  0  0  0  0  0  0  0  0  0
    0.2725   -0.9140    2.3282 H   0  0  0  0  0  0  0  0  0  0  0  0
   -0.1648    1.4874    1.8247 H   0  0  0  0  0  0  0  0  0  0  0  0
   -2.6690    1.5589    2.0966 H   0  0  0  0  0  0  0  0  0  0  0  0
   -2.1563    2.2020    0.5363 H   0  0  0  0  0  0  0  0  0  0  0  0
   -2.8461    0.5818    0.6376 H   0  0  0  0  0  0  0  0  0  0  0  0
    1.2993    0.7953   -0.2159 C   0  0  0  0  0  0  0  0  0  0  0  0
    1.2993   -0.4032   -1.0981 C   0  0  0  0  0  0  0  0  0  0  0  0
    1.2993   -0.4032   -2.7048 S   0  0  0  0  0  0  0  0  0  0  0  0
    0.2479    0.7630    0.5704 H   0  0  0  0  0  0  0  0  0  0  0  0
    2.1754    0.7684    0.4393 H   0  0  0  0  0  0  0  0  0  0  0  0
    1.2993    1.7191   -0.7906 H   0  0  0  0  0  0  0  0  0  0  0  0
    1.2993   -1.3576   -0.5682 H   0  0  0  0  0  0  0  0  0  0  0  0
  1  2  2  3
  1  5  1  0
  1  6  1  0
  2  3  1  0
  2  7  1  0
  3  4  1  0
  3  8  1  0
  4  9  1  0
  4 10  1  0
  4 11  1  0
 12 13  1  0
 12 15  1  0
 12 16  1  0
 12 17  1  0
 13 14  2  0
 13 18  1  0
M  RAD  1   3   2
M  END
>  <reaction>  (14) 
rxn_1957

>  <mol_properties>  (14) 
{"1": {"label": "*4", "atom_type": "Cd"}, "2": {"label": "*3", "atom_type": "Cs"}, "11": {"label": "*1", "atom_type": "Cs"}, "12": {"label": "*0", "atom_type": "CS"}, "14": {"label": "*2", "atom_type": "H0"}}

>  <type>  (14) 
unop_10

>  <geom_source>  (14) 
Heuristics

$$$$

     RDKit          3D

 18 16  0  0  0  0  0  0  0  0999 V2000
   -1.2147    2.2203    2.6327 C   0  0  0  0  0  0  0  0  0  0  0  0
   -1.5497    1.5208    1.5592 C   0  0  0  0  0  0  0  0  0  0  0  0
   -1.1523    0.1073    1.2540 C   0  0  0  0  0  3  0  0  0  0  0  0
   -0.2769   -0.5710    2.2959 C   0  0  0  0  0  0  0  0  0  0  0  0
   -1.5533    3.2404    2.7629 H   0  0  0  0  0  0  0  0  0  0  0  0
   -0.5942    1.8085    3.4198 H   0  0  0  0  0  0  0  0  0  0  0  0
   -2.1753    1.9943    0.8066 H   0  0  0  0  0  0  0  0  0  0  0  0
   -2.0659   -0.4780    1.1024 H   0  0  0  0  0  0  0  0  0  0  0  0
   -0.7788   -0.6194    3.2642 H   0  0  0  0  0  0  0  0  0  0  0  0
   -0.0389   -1.5907    1.9913 H   0  0  0  0  0  0  0  0  0  0  0  0
    0.6639   -0.0343    2.4329 H   0  0  0  0  0  0  0  0  0  0  0  0
    0.9515    0.1719   -0.3194 C   0  0  0  0  0  0  0  0  0  0  0  0
    0.9515   -1.0266   -1.2016 C   0  0  0  0  0  0  0  0  0  0  0  0
    0.9515   -1.0266   -2.8082 S   0  0  0  0  0  0  0  0  0  0  0  0
   -0.0999    0.1396    0.4669 H   0  0  0  0  0  0  0  0  0  0  0  0
    1.8277    0.1450    0.3358 H   0  0  0  0  0  0  0  0  0  0  0  0
    0.9515    1.0957   -0.8940 H   0  0  0  0  0  0  0  0  0  0  0  0
    0.9515   -1.9810   -0.6716 H   0  0  0  0  0  0  0  0  0  0  0  0
  1  2  2  3
  1  5  1  0
  1  6  1  0
  2  3  1  0
  2  7  1  0
  3  4  1  0
  3  8  1  0
  4  9  1  0
  4 10  1  0
  4 11  1  0
 12 13  1  0
 12 15  1  0
 12 16  1  0
 12 17  1  0
 13 14  2  0
 13 18  1  0
M  RAD  1   3   2
M  END
>  <reaction>  (15) 
rxn_1957

>  <mol_properties>  (15) 
{"1": {"label": "*4", "atom_type": "Cd"}, "2": {"label": "*3", "atom_type": "Cs"}, "11": {"label": "*1", "atom_type": "Cs"}, "12": {"label": "*0", "atom_type": "CS"}, "14": {"label": "*2", "atom_type": "H0"}}

>  <type>  (15) 
unop_11

>  <geom_source>  (15) 
Heuristics

$$$$

     RDKit          3D

 18 16  0  0  0  0  0  0  0  0999 V2000
   -2.7020   -0.7401    1.0487 C   0  0  0  0  0  0  0  0  0  0  0  0
   -1.4303   -0.6773    1.4128 C   0  0  0  0  0  0  0  0  0  0  0  0
   -0.6513    0.5651    1.7271 C   0  0  0  0  0  3  0  0  0  0  0  0
   -1.4190    1.8722    1.6091 C   0  0  0  0  0  0  0  0  0  0  0  0
   -3.1778   -1.6904    0.8423 H   0  0  0  0  0  0  0  0  0  0  0  0
   -3.3166    0.1459    0.9421 H   0  0  0  0  0  0  0  0  0  0  0  0
   -0.8701   -1.6048    1.5009 H   0  0  0  0  0  0  0  0  0  0  0  0
   -0.2458    0.4656    2.7400 H   0  0  0  0  0  0  0  0  0  0  0  0
   -2.2732    1.8926    2.2887 H   0  0  0  0  0  0  0  0  0  0  0  0
   -0.7759    2.7179    1.8549 H   0  0  0  0  0  0  0  0  0  0  0  0
   -1.7945    2.0209    0.5948 H   0  0  0  0  0  0  0  0  0  0  0  0
    1.4526    0.6296    0.1537 C   0  0  0  0  0  0  0  0  0  0  0  0
    1.4526   -0.5688   -0.7285 C   0  0  0  0  0  0  0  0  0  0  0  0
    1.4526   -0.5688   -2.3352 S   0  0  0  0  0  0  0  0  0  0  0  0
    0.4012    0.5974    0.9400 H   0  0  0  0  0  0  0  0  0  0  0  0
    2.3287    0.6028    0.8089 H   0  0  0  0  0  0  0  0  0  0  0  0
    1.4526    1.5534   -0.4210 H   0  0  0  0  0  0  0  0  0  0  0  0
    1.4526   -1.5232   -0.1986 H   0  0  0  0  0  0  0  0  0  0  0  0
  1  2  2  3
  1  5  1  0
  1  6  1  0
  2  3  1  0
  2  7  1  0
  3  4  1  0
  3  8  1  0
  4  9  1  0
  4 10  1  0
  4 11  1  0
 12 13  1  0
 12 15  1  0
 12 16  1  0
 12 17  1  0
 13 14  2  0
 13 18  1  0
M  RAD  1   3   2
M  END
>  <reaction>  (16) 
rxn_1957

>  <mol_properties>  (16) 
{"1": {"label": "*4", "atom_type": "Cd"}, "2": {"label": "*3", "atom_type": "Cs"}, "11": {"label": "*1", "atom_type": "Cs"}, "12": {"label": "*0", "atom_type": "CS"}, "14": {"label": "*2", "atom_type": "H0"}}

>  <type>  (16) 
unop_12

>  <geom_source>  (16) 
Heuristics

$$$$

     RDKit          3D

 18 16  0  0  0  0  0  0  0  0999 V2000
    2.6917   -0.1098    2.3951 S   0  0  0  0  0  0  0  0  0  0  0  0
   -0.4392    0.5786   -0.3553 C   0  0  0  0  0  3  0  0  0  0  0  0
   -1.1933    1.1571    0.8373 C   0  0  0  0  0  0  0  0  0  0  0  0
   -1.3691   -0.1232   -1.3038 C   0  0  0  0  0  0  0  0  0  0  0  0
   -1.9246   -1.2982   -0.9964 C   0  0  0  0  0  0  0  0  0  0  0  0
    1.7774   -0.7458    0.1146 C   0  0  0  0  0  0  0  0  0  0  0  0
    2.6676    0.0891    0.9749 C   0  0  0  0  0  0  0  0  0  0  0  0
    0.0704    1.4062   -0.8936 H   0  0  0  0  0  0  0  0  0  0  0  0
    0.5512   -0.3312    0.1037 H   0  0  0  0  0  0  0  0  0  0  0  0
   -1.6706    0.3447    1.4249 H   0  0  0  0  0  0  0  0  0  0  0  0
   -1.9724    1.8702    0.4925 H   0  0  0  0  0  0  0  0  0  0  0  0
   -0.4812    1.6965    1.4962 H   0  0  0  0  0  0  0  0  0  0  0  0
   -1.5650    0.3184   -2.2765 H   0  0  0  0  0  0  0  0  0  0  0  0
   -1.7296   -1.7761   -0.0411 H   0  0  0  0  0  0  0  0  0  0  0  0
   -2.5793   -1.7916   -1.7072 H   0  0  0  0  0  0  0  0  0  0  0  0
    3.2508    0.8921    0.5359 H   0  0  0  0  0  0  0  0  0  0  0  0
    1.8026   -0.3722   -0.9304 H   0  0  0  0  0  0  0  0  0  0  0  0
    2.1127   -1.8049    0.1293 H   0  0  0  0  0  0  0  0  0  0  0  0
  1  7  2  0
  2  3  1  0
  2  4  1  0
  2  8  1  0
  3 10  1  0
  3 11  1  0
  3 12  1  0
  4  5  2  3
  4 13  1  0
  5 14  1  0
  5 15  1  0
  6  7  1  0
  6  9  1  0
  6 17  1  0
  6 18  1  0
  7 16  1  0
M  RAD  1   2   2
M  END
>  <reaction>  (17) 
rxn_1957

>  <mol_properties>  (17) 
{"1": {"label": "*4", "atom_type": "Cd"}, "2": {"label": "*3", "atom_type": "Cs"}, "11": {"label": "*1", "atom_type": "Cs"}, "12": {"label": "*0", "atom_type": "CS"}, "14": {"label": "*2", "atom_type": "H0"}}

>  <type>  (17) 
unop_13

>  <geom_source>  (17) 
AutoTST

$$$$
