
     RDKit          3D

 15 15  0  0  0  0  0  0  0  0999 V2000
    2.2031   -0.2111   -0.1693 C   0  0  0  0  0  0  0  0  0  0  0  0
    0.7140   -0.0314   -0.0623 C   0  0  0  0  0  0  0  0  0  0  0  0
   -0.0114    0.5491   -1.0982 C   0  0  0  0  0  0  0  0  0  0  0  0
   -1.3882    0.6886   -1.0150 C   0  0  0  0  0  0  0  0  0  0  0  0
   -2.0661    0.2493    0.1118 C   0  0  0  0  0  0  0  0  0  0  0  0
   -1.3551   -0.3278    1.1528 C   0  0  0  0  0  0  0  0  0  0  0  0
    0.0216   -0.4648    1.0642 C   0  0  0  0  0  0  0  0  0  0  0  0
    2.6776   -0.1836    0.8122 H   0  0  0  0  0  0  0  0  0  0  0  0
    2.4446   -1.1749   -0.6249 H   0  0  0  0  0  0  0  0  0  0  0  0
    2.6532    0.5664   -0.7875 H   0  0  0  0  0  0  0  0  0  0  0  0
    0.5104    0.8989   -1.9819 H   0  0  0  0  0  0  0  0  0  0  0  0
   -1.9328    1.1452   -1.8322 H   0  0  0  0  0  0  0  0  0  0  0  0
   -3.1409    0.3597    0.1800 H   0  0  0  0  0  0  0  0  0  0  0  0
   -1.8736   -0.6702    2.0398 H   0  0  0  0  0  0  0  0  0  0  0  0
    0.5695   -0.9141    1.8849 H   0  0  0  0  0  0  0  0  0  0  0  0
  1  2  1  0
  1  8  1  0
  1  9  1  0
  1 10  1  0
  2  3  2  0
  2  7  1  0
  3  4  1  0
  3 11  1  0
  4  5  2  0
  4 12  1  0
  5  6  1  0
  5 13  1  0
  6  7  2  0
  6 14  1  0
  7 15  1  0
M  END
>  <reaction>  (1) 
rxn_269

>  <mol_properties>  (1) 
{"3": {"label": "donator", "atom_type": "Cd"}, "11": {"label": "d_hydrogen", "atom_type": "H0"}}

>  <type>  (1) 
r1h

$$$$

     RDKit          3D

  4  3  0  0  0  0  0  0  0  0999 V2000
    0.0000    0.0000    0.0000 C   0  0  0  0  0  3  0  0  0  0  0  0
    1.0638   -0.1747    0.0540 H   0  0  0  0  0  0  0  0  0  0  0  0
   -0.6833   -0.8351   -0.0280 H   0  0  0  0  0  0  0  0  0  0  0  0
   -0.3805    1.0098   -0.0260 H   0  0  0  0  0  0  0  0  0  0  0  0
  1  2  1  0
  1  3  1  0
  1  4  1  0
M  RAD  1   1   2
M  END
>  <reaction>  (2) 
rxn_269

>  <mol_properties>  (2) 
{"0": {"label": "acceptor", "atom_type": "Cs"}}

>  <type>  (2) 
r2

$$$$

     RDKit          3D

  5  4  0  0  0  0  0  0  0  0999 V2000
    0.0000    0.0000    0.0000 C   0  0  0  0  0  0  0  0  0  0  0  0
   -0.6486   -0.7720   -0.4113 H   0  0  0  0  0  0  0  0  0  0  0  0
   -0.3482    0.9787   -0.3267 H   0  0  0  0  0  0  0  0  0  0  0  0
   -0.0223   -0.0487    1.0876 H   0  0  0  0  0  0  0  0  0  0  0  0
    1.0191   -0.1580   -0.3496 H   0  0  0  0  0  0  0  0  0  0  0  0
  1  2  1  0
  1  3  1  0
  1  4  1  0
  1  5  1  0
M  END
>  <reaction>  (3) 
rxn_269

>  <mol_properties>  (3) 
{"0": {"label": "a_hydrogen", "atom_type": "H0"}, "1": {"label": "acceptor", "atom_type": "Cs"}}

>  <type>  (3) 
r2h

$$$$

     RDKit          3D

 19 18  0  0  0  0  0  0  0  0999 V2000
    0.1781   -0.4718   -2.8025 C   0  0  0  0  0  0  0  0  0  0  0  0
    0.1180   -0.4945   -1.3000 C   0  0  0  0  0  0  0  0  0  0  0  0
    0.0322    0.6925   -0.5716 C   0  0  0  0  0  0  0  0  0  0  0  0
   -0.0526    0.6417    0.8011 C   0  0  0  0  0  3  0  0  0  0  0  0
   -0.0545   -0.5424    1.5048 C   0  0  0  0  0  0  0  0  0  0  0  0
    0.0348   -1.7272    0.7842 C   0  0  0  0  0  0  0  0  0  0  0  0
    0.1203   -1.6979   -0.6002 C   0  0  0  0  0  0  0  0  0  0  0  0
   -0.8280   -0.4578   -3.2291 H   0  0  0  0  0  0  0  0  0  0  0  0
    0.7008    0.4142   -3.1646 H   0  0  0  0  0  0  0  0  0  0  0  0
    0.6892   -1.3527   -3.1921 H   0  0  0  0  0  0  0  0  0  0  0  0
    0.0350    1.6461   -1.0893 H   0  0  0  0  0  0  0  0  0  0  0  0
   -0.1320    1.8187    1.4936 H   0  0  0  0  0  0  0  0  0  0  0  0
   -0.1194   -0.5534    2.5861 H   0  0  0  0  0  0  0  0  0  0  0  0
    0.0410   -2.6780    1.3036 H   0  0  0  0  0  0  0  0  0  0  0  0
    0.1929   -2.6296   -1.1496 H   0  0  0  0  0  0  0  0  0  0  0  0
   -0.2065    2.9382    2.1470 C   0  0  0  0  0  0  0  0  0  0  0  0
   -1.1085    2.8677    2.7487 H   0  0  0  0  0  0  0  0  0  0  0  0
   -0.2635    3.7134    1.3874 H   0  0  0  0  0  0  0  0  0  0  0  0
    0.7010    2.9931    2.7419 H   0  0  0  0  0  0  0  0  0  0  0  0
  1  2  1  0
  1  8  1  0
  1  9  1  0
  1 10  1  0
  2  7  2  0
  2  3  1  0
  3  4  2  0
  3 11  1  0
  4  5  1  0
  5  6  2  0
  5 13  1  0
  6  7  1  0
  6 14  1  0
  7 15  1  0
 12 16  1  0
 16 17  1  0
 16 18  1  0
 16 19  1  0
M  RAD  1   4   2
M  END
>  <reaction>  (4) 
rxn_269

>  <mol_properties>  (4) 
{"2": {"label": "*4", "atom_type": "Cd"}, "3": {"label": "*3", "atom_type": "Cd"}, "11": {"label": "*2", "atom_type": "H0"}, "15": {"label": "*1", "atom_type": "Cs"}, "16": {"label": "*0", "atom_type": "H0"}}

>  <type>  (4) 
ts

$$$$

     RDKit          3D

 19 18  0  0  0  0  0  0  0  0999 V2000
    0.0235   -0.4922   -2.8023 C   0  0  0  0  0  0  0  0  0  0  0  0
    0.0235   -0.4922   -1.2986 C   0  0  0  0  0  0  0  0  0  0  0  0
    0.0235    0.7022   -0.5845 C   0  0  0  0  0  0  0  0  0  0  0  0
   -0.0069    0.7055    0.8014 C   0  0  0  0  0  0  0  0  0  0  0  0
   -0.0365   -0.4915    1.5005 C   0  0  0  0  0  0  0  0  0  0  0  0
   -0.0333   -1.6889    0.8014 C   0  0  0  0  0  0  0  0  0  0  0  0
   -0.0028   -1.6862   -0.5845 C   0  0  0  0  0  0  0  0  0  0  0  0
    0.5151   -1.3811   -3.1991 H   0  0  0  0  0  0  0  0  0  0  0  0
   -0.9987   -0.4809   -3.1891 H   0  0  0  0  0  0  0  0  0  0  0  0
    0.5345    0.3857   -3.1991 H   0  0  0  0  0  0  0  0  0  0  0  0
    0.0501    1.6433   -1.1224 H   0  0  0  0  0  0  0  0  0  0  0  0
   -0.0037    1.8350    1.4443 H   0  0  0  0  0  0  0  0  0  0  0  0
   -0.0576   -0.4913    2.5828 H   0  0  0  0  0  0  0  0  0  0  0  0
   -0.0514   -2.6299    1.3372 H   0  0  0  0  0  0  0  0  0  0  0  0
    0.0030   -2.6276   -1.1224 H   0  0  0  0  0  0  0  0  0  0  0  0
   -0.0006    2.9706    2.0907 C   0  0  0  0  0  3  0  0  0  0  0  0
   -0.9022    3.0459    2.6967 H   0  0  0  0  0  0  0  0  0  0  0  0
    0.4087    3.9658    1.9237 H   0  0  0  0  0  0  0  0  0  0  0  0
    0.6149    2.3624    2.7518 H   0  0  0  0  0  0  0  0  0  0  0  0
  1  2  1  0
  1  8  1  0
  1  9  1  0
  1 10  1  0
  2  3  2  0
  2  7  1  0
  3  4  1  0
  3 11  1  0
  4  5  2  0
  4 12  1  0
  5  6  1  0
  5 13  1  0
  6  7  2  0
  6 14  1  0
  7 15  1  0
 16 17  1  0
 16 18  1  0
 16 19  1  0
M  RAD  1  16   2
M  END
>  <reaction>  (5) 
rxn_269

>  <mol_properties>  (5) 
{"2": {"label": "*4", "atom_type": "Cd"}, "3": {"label": "*3", "atom_type": "Cd"}, "11": {"label": "*2", "atom_type": "H0"}, "15": {"label": "*1", "atom_type": "Cs"}, "16": {"label": "*0", "atom_type": "H0"}}

>  <type>  (5) 
unop_1

>  <geom_source>  (5) 
Heuristics

$$$$

     RDKit          3D

 19 18  0  0  0  0  0  0  0  0999 V2000
    0.0238   -0.4918   -2.7974 C   0  0  0  0  0  0  0  0  0  0  0  0
    0.0238   -0.4918   -1.2937 C   0  0  0  0  0  0  0  0  0  0  0  0
    0.0238    0.7026   -0.5796 C   0  0  0  0  0  0  0  0  0  0  0  0
   -0.0066    0.7059    0.8064 C   0  0  0  0  0  0  0  0  0  0  0  0
   -0.0362   -0.4911    1.5054 C   0  0  0  0  0  0  0  0  0  0  0  0
   -0.0330   -1.6885    0.8064 C   0  0  0  0  0  0  0  0  0  0  0  0
   -0.0025   -1.6858   -0.5796 C   0  0  0  0  0  0  0  0  0  0  0  0
    0.5154   -1.3807   -3.1941 H   0  0  0  0  0  0  0  0  0  0  0  0
   -0.9984   -0.4805   -3.1842 H   0  0  0  0  0  0  0  0  0  0  0  0
    0.5348    0.3861   -3.1941 H   0  0  0  0  0  0  0  0  0  0  0  0
    0.0504    1.6437   -1.1174 H   0  0  0  0  0  0  0  0  0  0  0  0
   -0.0035    1.8354    1.4492 H   0  0  0  0  0  0  0  0  0  0  0  0
   -0.0573   -0.4909    2.5878 H   0  0  0  0  0  0  0  0  0  0  0  0
   -0.0511   -2.6295    1.3421 H   0  0  0  0  0  0  0  0  0  0  0  0
    0.0033   -2.6273   -1.1174 H   0  0  0  0  0  0  0  0  0  0  0  0
   -0.0003    2.9710    2.0956 C   0  0  0  0  0  3  0  0  0  0  0  0
   -0.4888    3.7339    1.4914 H   0  0  0  0  0  0  0  0  0  0  0  0
    0.8875    3.3927    2.5645 H   0  0  0  0  0  0  0  0  0  0  0  0
   -0.3069    2.2070    2.8084 H   0  0  0  0  0  0  0  0  0  0  0  0
  1  2  1  0
  1  8  1  0
  1  9  1  0
  1 10  1  0
  2  3  2  0
  2  7  1  0
  3  4  1  0
  3 11  1  0
  4  5  2  0
  4 12  1  0
  5  6  1  0
  5 13  1  0
  6  7  2  0
  6 14  1  0
  7 15  1  0
 16 17  1  0
 16 18  1  0
 16 19  1  0
M  RAD  1  16   2
M  END
>  <reaction>  (6) 
rxn_269

>  <mol_properties>  (6) 
{"2": {"label": "*4", "atom_type": "Cd"}, "3": {"label": "*3", "atom_type": "Cd"}, "11": {"label": "*2", "atom_type": "H0"}, "15": {"label": "*1", "atom_type": "Cs"}, "16": {"label": "*0", "atom_type": "H0"}}

>  <type>  (6) 
unop_2

>  <geom_source>  (6) 
Heuristics

$$$$

     RDKit          3D

 19 18  0  0  0  0  0  0  0  0999 V2000
    0.0221   -0.4942   -2.8021 C   0  0  0  0  0  0  0  0  0  0  0  0
    0.0221   -0.4942   -1.2983 C   0  0  0  0  0  0  0  0  0  0  0  0
    0.0221    0.7001   -0.5843 C   0  0  0  0  0  0  0  0  0  0  0  0
   -0.0083    0.7035    0.8017 C   0  0  0  0  0  0  0  0  0  0  0  0
   -0.0379   -0.4935    1.5007 C   0  0  0  0  0  0  0  0  0  0  0  0
   -0.0347   -1.6909    0.8017 C   0  0  0  0  0  0  0  0  0  0  0  0
   -0.0042   -1.6882   -0.5843 C   0  0  0  0  0  0  0  0  0  0  0  0
    0.5137   -1.3831   -3.1988 H   0  0  0  0  0  0  0  0  0  0  0  0
   -1.0001   -0.4829   -3.1888 H   0  0  0  0  0  0  0  0  0  0  0  0
    0.5332    0.3837   -3.1988 H   0  0  0  0  0  0  0  0  0  0  0  0
    0.0488    1.6412   -1.1221 H   0  0  0  0  0  0  0  0  0  0  0  0
   -0.0051    1.8330    1.4446 H   0  0  0  0  0  0  0  0  0  0  0  0
   -0.0590   -0.4933    2.5831 H   0  0  0  0  0  0  0  0  0  0  0  0
   -0.0528   -2.6319    1.3374 H   0  0  0  0  0  0  0  0  0  0  0  0
    0.0017   -2.6297   -1.1221 H   0  0  0  0  0  0  0  0  0  0  0  0
   -0.0019    2.9686    2.0909 C   0  0  0  0  0  3  0  0  0  0  0  0
   -0.5379    2.8523    3.0317 H   0  0  0  0  0  0  0  0  0  0  0  0
   -0.1343    3.9841    1.7209 H   0  0  0  0  0  0  0  0  0  0  0  0
    0.9375    2.7451    2.5943 H   0  0  0  0  0  0  0  0  0  0  0  0
  1  2  1  0
  1  8  1  0
  1  9  1  0
  1 10  1  0
  2  3  2  0
  2  7  1  0
  3  4  1  0
  3 11  1  0
  4  5  2  0
  4 12  1  0
  5  6  1  0
  5 13  1  0
  6  7  2  0
  6 14  1  0
  7 15  1  0
 16 17  1  0
 16 18  1  0
 16 19  1  0
M  RAD  1  16   2
M  END
>  <reaction>  (7) 
rxn_269

>  <mol_properties>  (7) 
{"2": {"label": "*4", "atom_type": "Cd"}, "3": {"label": "*3", "atom_type": "Cd"}, "11": {"label": "*2", "atom_type": "H0"}, "15": {"label": "*1", "atom_type": "Cs"}, "16": {"label": "*0", "atom_type": "H0"}}

>  <type>  (7) 
unop_3

>  <geom_source>  (7) 
Heuristics

$$$$

     RDKit          3D

 19 18  0  0  0  0  0  0  0  0999 V2000
    0.0236   -0.4908   -2.7995 C   0  0  0  0  0  0  0  0  0  0  0  0
    0.0236   -0.4908   -1.2958 C   0  0  0  0  0  0  0  0  0  0  0  0
    0.0236    0.7035   -0.5817 C   0  0  0  0  0  0  0  0  0  0  0  0
   -0.0069    0.7068    0.8043 C   0  0  0  0  0  0  0  0  0  0  0  0
   -0.0364   -0.4902    1.5033 C   0  0  0  0  0  0  0  0  0  0  0  0
   -0.0333   -1.6876    0.8043 C   0  0  0  0  0  0  0  0  0  0  0  0
   -0.0028   -1.6849   -0.5817 C   0  0  0  0  0  0  0  0  0  0  0  0
    0.5152   -1.3798   -3.1962 H   0  0  0  0  0  0  0  0  0  0  0  0
   -0.9986   -0.4796   -3.1863 H   0  0  0  0  0  0  0  0  0  0  0  0
    0.5346    0.3871   -3.1962 H   0  0  0  0  0  0  0  0  0  0  0  0
    0.0502    1.6446   -1.1195 H   0  0  0  0  0  0  0  0  0  0  0  0
   -0.0037    1.8363    1.4471 H   0  0  0  0  0  0  0  0  0  0  0  0
   -0.0576   -0.4899    2.5857 H   0  0  0  0  0  0  0  0  0  0  0  0
   -0.0514   -2.6286    1.3400 H   0  0  0  0  0  0  0  0  0  0  0  0
    0.0031   -2.6263   -1.1195 H   0  0  0  0  0  0  0  0  0  0  0  0
   -0.0005    2.9719    2.0935 C   0  0  0  0  0  3  0  0  0  0  0  0
    0.9029    3.5276    1.8466 H   0  0  0  0  0  0  0  0  0  0  0  0
    0.1967    2.3160    2.9401 H   0  0  0  0  0  0  0  0  0  0  0  0
   -0.9840    3.3944    2.2936 H   0  0  0  0  0  0  0  0  0  0  0  0
  1  2  1  0
  1  8  1  0
  1  9  1  0
  1 10  1  0
  2  3  2  0
  2  7  1  0
  3  4  1  0
  3 11  1  0
  4  5  2  0
  4 12  1  0
  5  6  1  0
  5 13  1  0
  6  7  2  0
  6 14  1  0
  7 15  1  0
 16 17  1  0
 16 18  1  0
 16 19  1  0
M  RAD  1  16   2
M  END
>  <reaction>  (8) 
rxn_269

>  <mol_properties>  (8) 
{"2": {"label": "*4", "atom_type": "Cd"}, "3": {"label": "*3", "atom_type": "Cd"}, "11": {"label": "*2", "atom_type": "H0"}, "15": {"label": "*1", "atom_type": "Cs"}, "16": {"label": "*0", "atom_type": "H0"}}

>  <type>  (8) 
unop_4

>  <geom_source>  (8) 
Heuristics

$$$$

     RDKit          3D

 19 18  0  0  0  0  0  0  0  0999 V2000
    0.0244   -0.4964   -2.8011 C   0  0  0  0  0  0  0  0  0  0  0  0
    0.0244   -0.4964   -1.2974 C   0  0  0  0  0  0  0  0  0  0  0  0
    0.0244    0.6979   -0.5833 C   0  0  0  0  0  0  0  0  0  0  0  0
   -0.0061    0.7013    0.8026 C   0  0  0  0  0  0  0  0  0  0  0  0
   -0.0356   -0.4957    1.5017 C   0  0  0  0  0  0  0  0  0  0  0  0
   -0.0325   -1.6931    0.8026 C   0  0  0  0  0  0  0  0  0  0  0  0
   -0.0020   -1.6904   -0.5833 C   0  0  0  0  0  0  0  0  0  0  0  0
    0.5159   -1.3853   -3.1979 H   0  0  0  0  0  0  0  0  0  0  0  0
   -0.9979   -0.4852   -3.1879 H   0  0  0  0  0  0  0  0  0  0  0  0
    0.5354    0.3815   -3.1979 H   0  0  0  0  0  0  0  0  0  0  0  0
    0.0510    1.6390   -1.1212 H   0  0  0  0  0  0  0  0  0  0  0  0
   -0.0029    1.8307    1.4455 H   0  0  0  0  0  0  0  0  0  0  0  0
   -0.0568   -0.4955    2.5840 H   0  0  0  0  0  0  0  0  0  0  0  0
   -0.0506   -2.6342    1.3384 H   0  0  0  0  0  0  0  0  0  0  0  0
    0.0039   -2.6319   -1.1212 H   0  0  0  0  0  0  0  0  0  0  0  0
    0.0003    2.9664    2.0919 C   0  0  0  0  0  3  0  0  0  0  0  0
   -0.0263    2.7742    3.1634 H   0  0  0  0  0  0  0  0  0  0  0  0
   -0.8739    3.5493    1.8059 H   0  0  0  0  0  0  0  0  0  0  0  0
    0.9368    3.4894    2.2793 H   0  0  0  0  0  0  0  0  0  0  0  0
  1  2  1  0
  1  8  1  0
  1  9  1  0
  1 10  1  0
  2  3  2  0
  2  7  1  0
  3  4  1  0
  3 11  1  0
  4  5  2  0
  4 12  1  0
  5  6  1  0
  5 13  1  0
  6  7  2  0
  6 14  1  0
  7 15  1  0
 16 17  1  0
 16 18  1  0
 16 19  1  0
M  RAD  1  16   2
M  END
>  <reaction>  (9) 
rxn_269

>  <mol_properties>  (9) 
{"2": {"label": "*4", "atom_type": "Cd"}, "3": {"label": "*3", "atom_type": "Cd"}, "11": {"label": "*2", "atom_type": "H0"}, "15": {"label": "*1", "atom_type": "Cs"}, "16": {"label": "*0", "atom_type": "H0"}}

>  <type>  (9) 
unop_5

>  <geom_source>  (9) 
Heuristics

$$$$

     RDKit          3D

 19 18  0  0  0  0  0  0  0  0999 V2000
    0.0245   -0.4916   -2.8011 C   0  0  0  0  0  0  0  0  0  0  0  0
    0.0245   -0.4916   -1.2974 C   0  0  0  0  0  0  0  0  0  0  0  0
    0.0245    0.7027   -0.5833 C   0  0  0  0  0  0  0  0  0  0  0  0
   -0.0059    0.7061    0.8027 C   0  0  0  0  0  0  0  0  0  0  0  0
   -0.0355   -0.4909    1.5017 C   0  0  0  0  0  0  0  0  0  0  0  0
   -0.0323   -1.6883    0.8027 C   0  0  0  0  0  0  0  0  0  0  0  0
   -0.0018   -1.6856   -0.5833 C   0  0  0  0  0  0  0  0  0  0  0  0
    0.5161   -1.3805   -3.1978 H   0  0  0  0  0  0  0  0  0  0  0  0
   -0.9977   -0.4804   -3.1879 H   0  0  0  0  0  0  0  0  0  0  0  0
    0.5355    0.3863   -3.1978 H   0  0  0  0  0  0  0  0  0  0  0  0
    0.0511    1.6438   -1.1211 H   0  0  0  0  0  0  0  0  0  0  0  0
   -0.0027    1.8355    1.4455 H   0  0  0  0  0  0  0  0  0  0  0  0
   -0.0566   -0.4907    2.5841 H   0  0  0  0  0  0  0  0  0  0  0  0
   -0.0504   -2.6294    1.3384 H   0  0  0  0  0  0  0  0  0  0  0  0
    0.0040   -2.6271   -1.1211 H   0  0  0  0  0  0  0  0  0  0  0  0
    0.0004    2.9712    2.0919 C   0  0  0  0  0  3  0  0  0  0  0  0
    1.0276    3.2709    2.2941 H   0  0  0  0  0  0  0  0  0  0  0  0
   -0.3155    2.2366    2.8311 H   0  0  0  0  0  0  0  0  0  0  0  0
   -0.6939    3.8095    2.1205 H   0  0  0  0  0  0  0  0  0  0  0  0
  1  2  1  0
  1  8  1  0
  1  9  1  0
  1 10  1  0
  2  3  2  0
  2  7  1  0
  3  4  1  0
  3 11  1  0
  4  5  2  0
  4 12  1  0
  5  6  1  0
  5 13  1  0
  6  7  2  0
  6 14  1  0
  7 15  1  0
 16 17  1  0
 16 18  1  0
 16 19  1  0
M  RAD  1  16   2
M  END
>  <reaction>  (10) 
rxn_269

>  <mol_properties>  (10) 
{"2": {"label": "*4", "atom_type": "Cd"}, "3": {"label": "*3", "atom_type": "Cd"}, "11": {"label": "*2", "atom_type": "H0"}, "15": {"label": "*1", "atom_type": "Cs"}, "16": {"label": "*0", "atom_type": "H0"}}

>  <type>  (10) 
unop_6

>  <geom_source>  (10) 
Heuristics

$$$$

     RDKit          3D

 19 18  0  0  0  0  0  0  0  0999 V2000
    0.0260   -0.4927   -2.8021 C   0  0  0  0  0  0  0  0  0  0  0  0
    0.0260   -0.4927   -1.2983 C   0  0  0  0  0  0  0  0  0  0  0  0
    0.0260    0.7016   -0.5843 C   0  0  0  0  0  0  0  0  0  0  0  0
   -0.0044    0.7050    0.8017 C   0  0  0  0  0  0  0  0  0  0  0  0
   -0.0339   -0.4920    1.5007 C   0  0  0  0  0  0  0  0  0  0  0  0
   -0.0308   -1.6894    0.8017 C   0  0  0  0  0  0  0  0  0  0  0  0
   -0.0003   -1.6867   -0.5843 C   0  0  0  0  0  0  0  0  0  0  0  0
    0.5176   -1.3816   -3.1988 H   0  0  0  0  0  0  0  0  0  0  0  0
   -0.9962   -0.4814   -3.1888 H   0  0  0  0  0  0  0  0  0  0  0  0
    0.5371    0.3852   -3.1988 H   0  0  0  0  0  0  0  0  0  0  0  0
    0.0527    1.6427   -1.1221 H   0  0  0  0  0  0  0  0  0  0  0  0
   -0.0012    1.8344    1.4446 H   0  0  0  0  0  0  0  0  0  0  0  0
   -0.0551   -0.4918    2.5831 H   0  0  0  0  0  0  0  0  0  0  0  0
   -0.0489   -2.6304    1.3374 H   0  0  0  0  0  0  0  0  0  0  0  0
    0.0056   -2.6282   -1.1221 H   0  0  0  0  0  0  0  0  0  0  0  0
    0.0020    2.9701    2.0910 C   0  0  0  0  0  3  0  0  0  0  0  0
    0.8779    3.0181    2.7360 H   0  0  0  0  0  0  0  0  0  0  0  0
   -0.7743    2.3805    2.5763 H   0  0  0  0  0  0  0  0  0  0  0  0
   -0.2418    4.0298    2.0329 H   0  0  0  0  0  0  0  0  0  0  0  0
  1  2  1  0
  1  8  1  0
  1  9  1  0
  1 10  1  0
  2  3  2  0
  2  7  1  0
  3  4  1  0
  3 11  1  0
  4  5  2  0
  4 12  1  0
  5  6  1  0
  5 13  1  0
  6  7  2  0
  6 14  1  0
  7 15  1  0
 16 17  1  0
 16 18  1  0
 16 19  1  0
M  RAD  1  16   2
M  END
>  <reaction>  (11) 
rxn_269

>  <mol_properties>  (11) 
{"2": {"label": "*4", "atom_type": "Cd"}, "3": {"label": "*3", "atom_type": "Cd"}, "11": {"label": "*2", "atom_type": "H0"}, "15": {"label": "*1", "atom_type": "Cs"}, "16": {"label": "*0", "atom_type": "H0"}}

>  <type>  (11) 
unop_7

>  <geom_source>  (11) 
Heuristics

$$$$

     RDKit          3D

 19 18  0  0  0  0  0  0  0  0999 V2000
    0.0251   -0.4918   -2.8010 C   0  0  0  0  0  0  0  0  0  0  0  0
    0.0251   -0.4918   -1.2973 C   0  0  0  0  0  0  0  0  0  0  0  0
    0.0251    0.7025   -0.5832 C   0  0  0  0  0  0  0  0  0  0  0  0
   -0.0054    0.7058    0.8028 C   0  0  0  0  0  0  0  0  0  0  0  0
   -0.0349   -0.4912    1.5018 C   0  0  0  0  0  0  0  0  0  0  0  0
   -0.0318   -1.6885    0.8028 C   0  0  0  0  0  0  0  0  0  0  0  0
   -0.0013   -1.6859   -0.5832 C   0  0  0  0  0  0  0  0  0  0  0  0
    0.5166   -1.3808   -3.1977 H   0  0  0  0  0  0  0  0  0  0  0  0
   -0.9971   -0.4806   -3.1878 H   0  0  0  0  0  0  0  0  0  0  0  0
    0.5361    0.3861   -3.1977 H   0  0  0  0  0  0  0  0  0  0  0  0
    0.0517    1.6436   -1.1210 H   0  0  0  0  0  0  0  0  0  0  0  0
   -0.0022    1.8353    1.4456 H   0  0  0  0  0  0  0  0  0  0  0  0
   -0.0561   -0.4909    2.5842 H   0  0  0  0  0  0  0  0  0  0  0  0
   -0.0499   -2.6296    1.3385 H   0  0  0  0  0  0  0  0  0  0  0  0
    0.0046   -2.6273   -1.1210 H   0  0  0  0  0  0  0  0  0  0  0  0
    0.0010    2.9709    2.0920 C   0  0  0  0  0  3  0  0  0  0  0  0
   -1.0244    3.3021    2.2490 H   0  0  0  0  0  0  0  0  0  0  0  0
    0.6743    3.8227    2.1752 H   0  0  0  0  0  0  0  0  0  0  0  0
    0.3116    2.2145    2.8111 H   0  0  0  0  0  0  0  0  0  0  0  0
  1  2  1  0
  1  8  1  0
  1  9  1  0
  1 10  1  0
  2  3  2  0
  2  7  1  0
  3  4  1  0
  3 11  1  0
  4  5  2  0
  4 12  1  0
  5  6  1  0
  5 13  1  0
  6  7  2  0
  6 14  1  0
  7 15  1  0
 16 17  1  0
 16 18  1  0
 16 19  1  0
M  RAD  1  16   2
M  END
>  <reaction>  (12) 
rxn_269

>  <mol_properties>  (12) 
{"2": {"label": "*4", "atom_type": "Cd"}, "3": {"label": "*3", "atom_type": "Cd"}, "11": {"label": "*2", "atom_type": "H0"}, "15": {"label": "*1", "atom_type": "Cs"}, "16": {"label": "*0", "atom_type": "H0"}}

>  <type>  (12) 
unop_8

>  <geom_source>  (12) 
Heuristics

$$$$

     RDKit          3D

 19 18  0  0  0  0  0  0  0  0999 V2000
    0.0230   -0.4904   -2.7980 C   0  0  0  0  0  0  0  0  0  0  0  0
    0.0230   -0.4904   -1.2943 C   0  0  0  0  0  0  0  0  0  0  0  0
    0.0230    0.7040   -0.5802 C   0  0  0  0  0  0  0  0  0  0  0  0
   -0.0075    0.7073    0.8058 C   0  0  0  0  0  0  0  0  0  0  0  0
   -0.0370   -0.4897    1.5048 C   0  0  0  0  0  0  0  0  0  0  0  0
   -0.0339   -1.6871    0.8058 C   0  0  0  0  0  0  0  0  0  0  0  0
   -0.0034   -1.6844   -0.5802 C   0  0  0  0  0  0  0  0  0  0  0  0
    0.5145   -1.3793   -3.1947 H   0  0  0  0  0  0  0  0  0  0  0  0
   -0.9992   -0.4791   -3.1848 H   0  0  0  0  0  0  0  0  0  0  0  0
    0.5340    0.3875   -3.1947 H   0  0  0  0  0  0  0  0  0  0  0  0
    0.0496    1.6451   -1.1181 H   0  0  0  0  0  0  0  0  0  0  0  0
   -0.0043    1.8368    1.4486 H   0  0  0  0  0  0  0  0  0  0  0  0
   -0.0582   -0.4895    2.5871 H   0  0  0  0  0  0  0  0  0  0  0  0
   -0.0520   -2.6281    1.3415 H   0  0  0  0  0  0  0  0  0  0  0  0
    0.0025   -2.6258   -1.1181 H   0  0  0  0  0  0  0  0  0  0  0  0
   -0.0011    2.9724    2.0950 C   0  0  0  0  0  3  0  0  0  0  0  0
    0.5367    3.7196    1.5134 H   0  0  0  0  0  0  0  0  0  0  0  0
    0.6401    2.6041    2.8944 H   0  0  0  0  0  0  0  0  0  0  0  0
   -0.9981    2.8644    2.5194 H   0  0  0  0  0  0  0  0  0  0  0  0
  1  2  1  0
  1  8  1  0
  1  9  1  0
  1 10  1  0
  2  3  2  0
  2  7  1  0
  3  4  1  0
  3 11  1  0
  4  5  2  0
  4 12  1  0
  5  6  1  0
  5 13  1  0
  6  7  2  0
  6 14  1  0
  7 15  1  0
 16 17  1  0
 16 18  1  0
 16 19  1  0
M  RAD  1  16   2
M  END
>  <reaction>  (13) 
rxn_269

>  <mol_properties>  (13) 
{"2": {"label": "*4", "atom_type": "Cd"}, "3": {"label": "*3", "atom_type": "Cd"}, "11": {"label": "*2", "atom_type": "H0"}, "15": {"label": "*1", "atom_type": "Cs"}, "16": {"label": "*0", "atom_type": "H0"}}

>  <type>  (13) 
unop_9

>  <geom_source>  (13) 
Heuristics

$$$$

     RDKit          3D

 19 18  0  0  0  0  0  0  0  0999 V2000
    0.0251   -0.4921   -2.7990 C   0  0  0  0  0  0  0  0  0  0  0  0
    0.0251   -0.4921   -1.2952 C   0  0  0  0  0  0  0  0  0  0  0  0
    0.0251    0.7023   -0.5812 C   0  0  0  0  0  0  0  0  0  0  0  0
   -0.0054    0.7056    0.8048 C   0  0  0  0  0  0  0  0  0  0  0  0
   -0.0349   -0.4914    1.5038 C   0  0  0  0  0  0  0  0  0  0  0  0
   -0.0318   -1.6888    0.8048 C   0  0  0  0  0  0  0  0  0  0  0  0
   -0.0013   -1.6861   -0.5812 C   0  0  0  0  0  0  0  0  0  0  0  0
    0.5166   -1.3810   -3.1957 H   0  0  0  0  0  0  0  0  0  0  0  0
   -0.9971   -0.4808   -3.1857 H   0  0  0  0  0  0  0  0  0  0  0  0
    0.5361    0.3858   -3.1957 H   0  0  0  0  0  0  0  0  0  0  0  0
    0.0517    1.6434   -1.1190 H   0  0  0  0  0  0  0  0  0  0  0  0
   -0.0022    1.8351    1.4477 H   0  0  0  0  0  0  0  0  0  0  0  0
   -0.0561   -0.4912    2.5862 H   0  0  0  0  0  0  0  0  0  0  0  0
   -0.0499   -2.6298    1.3405 H   0  0  0  0  0  0  0  0  0  0  0  0
    0.0046   -2.6276   -1.1190 H   0  0  0  0  0  0  0  0  0  0  0  0
    0.0010    2.9707    2.0941 C   0  0  0  0  0  3  0  0  0  0  0  0
   -0.8732    3.5536    1.8081 H   0  0  0  0  0  0  0  0  0  0  0  0
    0.8055    3.6432    2.3878 H   0  0  0  0  0  0  0  0  0  0  0  0
    0.0293    2.1674    2.8286 H   0  0  0  0  0  0  0  0  0  0  0  0
  1  2  1  0
  1  8  1  0
  1  9  1  0
  1 10  1  0
  2  3  2  0
  2  7  1  0
  3  4  1  0
  3 11  1  0
  4  5  2  0
  4 12  1  0
  5  6  1  0
  5 13  1  0
  6  7  2  0
  6 14  1  0
  7 15  1  0
 16 17  1  0
 16 18  1  0
 16 19  1  0
M  RAD  1  16   2
M  END
>  <reaction>  (14) 
rxn_269

>  <mol_properties>  (14) 
{"2": {"label": "*4", "atom_type": "Cd"}, "3": {"label": "*3", "atom_type": "Cd"}, "11": {"label": "*2", "atom_type": "H0"}, "15": {"label": "*1", "atom_type": "Cs"}, "16": {"label": "*0", "atom_type": "H0"}}

>  <type>  (14) 
unop_10

>  <geom_source>  (14) 
Heuristics

$$$$

     RDKit          3D

 19 18  0  0  0  0  0  0  0  0999 V2000
    0.0269   -0.4948   -2.8018 C   0  0  0  0  0  0  0  0  0  0  0  0
    0.0269   -0.4948   -1.2980 C   0  0  0  0  0  0  0  0  0  0  0  0
    0.0269    0.6995   -0.5840 C   0  0  0  0  0  0  0  0  0  0  0  0
   -0.0035    0.7029    0.8020 C   0  0  0  0  0  0  0  0  0  0  0  0
   -0.0331   -0.4941    1.5010 C   0  0  0  0  0  0  0  0  0  0  0  0
   -0.0299   -1.6915    0.8020 C   0  0  0  0  0  0  0  0  0  0  0  0
    0.0006   -1.6888   -0.5840 C   0  0  0  0  0  0  0  0  0  0  0  0
    0.5185   -1.3837   -3.1985 H   0  0  0  0  0  0  0  0  0  0  0  0
   -0.9953   -0.4835   -3.1885 H   0  0  0  0  0  0  0  0  0  0  0  0
    0.5379    0.3831   -3.1985 H   0  0  0  0  0  0  0  0  0  0  0  0
    0.0535    1.6406   -1.1218 H   0  0  0  0  0  0  0  0  0  0  0  0
   -0.0004    1.8323    1.4449 H   0  0  0  0  0  0  0  0  0  0  0  0
   -0.0542   -0.4939    2.5834 H   0  0  0  0  0  0  0  0  0  0  0  0
   -0.0480   -2.6325    1.3377 H   0  0  0  0  0  0  0  0  0  0  0  0
    0.0064   -2.6303   -1.1218 H   0  0  0  0  0  0  0  0  0  0  0  0
    0.0028    2.9680    2.0913 C   0  0  0  0  0  3  0  0  0  0  0  0
    0.4931    2.8360    3.0546 H   0  0  0  0  0  0  0  0  0  0  0  0
   -1.0683    2.8078    2.2042 H   0  0  0  0  0  0  0  0  0  0  0  0
    0.3463    4.0006    2.0538 H   0  0  0  0  0  0  0  0  0  0  0  0
  1  2  1  0
  1  8  1  0
  1  9  1  0
  1 10  1  0
  2  3  2  0
  2  7  1  0
  3  4  1  0
  3 11  1  0
  4  5  2  0
  4 12  1  0
  5  6  1  0
  5 13  1  0
  6  7  2  0
  6 14  1  0
  7 15  1  0
 16 17  1  0
 16 18  1  0
 16 19  1  0
M  RAD  1  16   2
M  END
>  <reaction>  (15) 
rxn_269

>  <mol_properties>  (15) 
{"2": {"label": "*4", "atom_type": "Cd"}, "3": {"label": "*3", "atom_type": "Cd"}, "11": {"label": "*2", "atom_type": "H0"}, "15": {"label": "*1", "atom_type": "Cs"}, "16": {"label": "*0", "atom_type": "H0"}}

>  <type>  (15) 
unop_11

>  <geom_source>  (15) 
Heuristics

$$$$

     RDKit          3D

 19 18  0  0  0  0  0  0  0  0999 V2000
    0.0228   -0.4908   -2.7971 C   0  0  0  0  0  0  0  0  0  0  0  0
    0.0228   -0.4908   -1.2934 C   0  0  0  0  0  0  0  0  0  0  0  0
    0.0228    0.7035   -0.5794 C   0  0  0  0  0  0  0  0  0  0  0  0
   -0.0076    0.7069    0.8066 C   0  0  0  0  0  0  0  0  0  0  0  0
   -0.0372   -0.4902    1.5057 C   0  0  0  0  0  0  0  0  0  0  0  0
   -0.0340   -1.6875    0.8066 C   0  0  0  0  0  0  0  0  0  0  0  0
   -0.0035   -1.6848   -0.5794 C   0  0  0  0  0  0  0  0  0  0  0  0
    0.5144   -1.3797   -3.1939 H   0  0  0  0  0  0  0  0  0  0  0  0
   -0.9994   -0.4796   -3.1839 H   0  0  0  0  0  0  0  0  0  0  0  0
    0.5339    0.3871   -3.1939 H   0  0  0  0  0  0  0  0  0  0  0  0
    0.0495    1.6446   -1.1172 H   0  0  0  0  0  0  0  0  0  0  0  0
   -0.0044    1.8363    1.4495 H   0  0  0  0  0  0  0  0  0  0  0  0
   -0.0583   -0.4899    2.5880 H   0  0  0  0  0  0  0  0  0  0  0  0
   -0.0521   -2.6286    1.3423 H   0  0  0  0  0  0  0  0  0  0  0  0
    0.0024   -2.6263   -1.1172 H   0  0  0  0  0  0  0  0  0  0  0  0
   -0.0012    2.9720    2.0959 C   0  0  0  0  0  3  0  0  0  0  0  0
    0.0271    3.7950    1.3835 H   0  0  0  0  0  0  0  0  0  0  0  0
    0.8747    3.0200    2.7410 H   0  0  0  0  0  0  0  0  0  0  0  0
   -0.7089    2.4201    2.7126 H   0  0  0  0  0  0  0  0  0  0  0  0
  1  2  1  0
  1  8  1  0
  1  9  1  0
  1 10  1  0
  2  3  2  0
  2  7  1  0
  3  4  1  0
  3 11  1  0
  4  5  2  0
  4 12  1  0
  5  6  1  0
  5 13  1  0
  6  7  2  0
  6 14  1  0
  7 15  1  0
 16 17  1  0
 16 18  1  0
 16 19  1  0
M  RAD  1  16   2
M  END
>  <reaction>  (16) 
rxn_269

>  <mol_properties>  (16) 
{"2": {"label": "*4", "atom_type": "Cd"}, "3": {"label": "*3", "atom_type": "Cd"}, "11": {"label": "*2", "atom_type": "H0"}, "15": {"label": "*1", "atom_type": "Cs"}, "16": {"label": "*0", "atom_type": "H0"}}

>  <type>  (16) 
unop_12

>  <geom_source>  (16) 
Heuristics

$$$$

     RDKit          3D

 19 18  0  0  0  0  0  0  0  0999 V2000
   -2.3505    0.5407    1.0853 C   0  0  0  0  0  0  0  0  0  0  0  0
    2.7664    1.4494    0.2900 C   0  0  0  0  0  3  0  0  0  0  0  0
   -1.2838   -0.1504    0.2890 C   0  0  0  0  0  0  0  0  0  0  0  0
   -1.5914   -1.2977   -0.4609 C   0  0  0  0  0  0  0  0  0  0  0  0
   -0.6039   -1.9198   -1.2320 C   0  0  0  0  0  0  0  0  0  0  0  0
    0.0145    0.3823    0.2323 C   0  0  0  0  0  0  0  0  0  0  0  0
    0.6906   -1.3934   -1.2692 C   0  0  0  0  0  0  0  0  0  0  0  0
    0.9976   -0.2419   -0.5406 C   0  0  0  0  0  0  0  0  0  0  0  0
   -1.9103    1.0570    1.9649 H   0  0  0  0  0  0  0  0  0  0  0  0
   -2.8627    1.2889    0.4450 H   0  0  0  0  0  0  0  0  0  0  0  0
   -3.0987   -0.1919    1.4563 H   0  0  0  0  0  0  0  0  0  0  0  0
    2.0197    2.1672    0.6874 H   0  0  0  0  0  0  0  0  0  0  0  0
    3.3322    1.9246   -0.5375 H   0  0  0  0  0  0  0  0  0  0  0  0
    3.4680    1.1598    1.0992 H   0  0  0  0  0  0  0  0  0  0  0  0
    2.1251    0.3365   -0.1768 H   0  0  0  0  0  0  0  0  0  0  0  0
   -0.8430   -2.8074   -1.8034 H   0  0  0  0  0  0  0  0  0  0  0  0
   -2.5929   -1.7098   -0.4478 H   0  0  0  0  0  0  0  0  0  0  0  0
    0.2676    1.2783    0.7844 H   0  0  0  0  0  0  0  0  0  0  0  0
    1.4555   -1.8725   -1.8656 H   0  0  0  0  0  0  0  0  0  0  0  0
  1  3  1  0
  1  9  1  0
  1 10  1  0
  1 11  1  0
  2 12  1  0
  2 13  1  0
  2 14  1  0
  3  4  2  0
  3  6  1  0
  4  5  1  0
  4 17  1  0
  5  7  2  0
  5 16  1  0
  6  8  2  0
  6 18  1  0
  7  8  1  0
  7 19  1  0
  8 15  1  0
M  RAD  1   2   2
M  END
>  <reaction>  (17) 
rxn_269

>  <mol_properties>  (17) 
{"2": {"label": "*4", "atom_type": "Cd"}, "3": {"label": "*3", "atom_type": "Cd"}, "11": {"label": "*2", "atom_type": "H0"}, "15": {"label": "*1", "atom_type": "Cs"}, "16": {"label": "*0", "atom_type": "H0"}}

>  <type>  (17) 
unop_13

>  <geom_source>  (17) 
AutoTST

$$$$
