
     RDKit          3D

 13 12  0  0  0  0  0  0  0  0999 V2000
    1.3704   -0.2590    0.1754 C   0  0  0  0  0  0  0  0  0  0  0  0
   -0.0422   -0.1438   -0.4049 C   0  0  0  0  0  0  0  0  0  0  0  0
   -0.9751   -1.2363    0.0899 C   0  0  0  0  0  0  0  0  0  0  0  0
    0.0442   -0.0953   -1.9112 C   0  0  0  0  0  0  0  0  0  0  0  0
   -0.5415   -0.8204   -2.6654 O   0  0  0  0  0  0  0  0  0  0  0  0
    1.8120   -1.2260   -0.0751 H   0  0  0  0  0  0  0  0  0  0  0  0
    1.3417   -0.1734    1.2620 H   0  0  0  0  0  0  0  0  0  0  0  0
    2.0285    0.5246   -0.2058 H   0  0  0  0  0  0  0  0  0  0  0  0
   -0.4376    0.8392   -0.1146 H   0  0  0  0  0  0  0  0  0  0  0  0
   -1.0539   -1.2049    1.1776 H   0  0  0  0  0  0  0  0  0  0  0  0
   -0.6017   -2.2201   -0.1988 H   0  0  0  0  0  0  0  0  0  0  0  0
   -1.9726   -1.1270   -0.3349 H   0  0  0  0  0  0  0  0  0  0  0  0
    0.7246    0.6916   -2.3055 H   0  0  0  0  0  0  0  0  0  0  0  0
  1  2  1  0
  1  6  1  0
  1  7  1  0
  1  8  1  0
  2  3  1  0
  2  4  1  0
  2  9  1  0
  3 10  1  0
  3 11  1  0
  3 12  1  0
  4  5  2  0
  4 13  1  0
M  END
>  <reaction>  (1) 
rxn_30

>  <mol_properties>  (1) 
{"1": {"label": "donator", "atom_type": "Cs"}, "8": {"label": "d_hydrogen", "atom_type": "H0"}}

>  <type>  (1) 
r1h

$$$$

     RDKit          3D

  1  0  0  0  0  0  0  0  0  0999 V2000
    0.0000    0.0000    0.0000 H   0  0  0  0  0 15  0  0  0  0  0  0
M  END
>  <reaction>  (2) 
rxn_30

>  <mol_properties>  (2) 
{"0": {"label": "acceptor", "atom_type": "H0"}}

>  <type>  (2) 
r2

$$$$

     RDKit          3D

  2  1  0  0  0  0  0  0  0  0999 V2000
    0.0000    0.0000    0.3721 H   0  0  0  0  0  0  0  0  0  0  0  0
    0.0000    0.0000   -0.3721 H   0  0  0  0  0  0  0  0  0  0  0  0
  1  2  1  0
M  END
>  <reaction>  (3) 
rxn_30

>  <mol_properties>  (3) 
{"0": {"label": "a_hydrogen", "atom_type": "H0"}, "1": {"label": "acceptor", "atom_type": "H0"}}

>  <type>  (3) 
r2h

$$$$

     RDKit          3D

 14 12  0  0  0  0  0  0  0  0999 V2000
   -0.6237   -0.0333   -1.7087 C   0  0  0  0  0  0  0  0  0  0  0  0
   -0.5312    0.0058   -0.1942 C   0  0  0  0  0  0  0  0  0  0  0  0
   -0.5935    1.3863    0.4166 C   0  0  0  0  0  0  0  0  0  0  0  0
    0.5698   -0.8575    0.3413 C   0  0  0  0  0  0  0  0  0  0  0  0
    1.2664   -0.5791    1.2789 O   0  0  0  0  0  0  0  0  0  0  0  0
    0.2007    0.5269   -2.1572 H   0  0  0  0  0  0  0  0  0  0  0  0
   -1.5573    0.4174   -2.0469 H   0  0  0  0  0  0  0  0  0  0  0  0
   -0.5849   -1.0564   -2.0875 H   0  0  0  0  0  0  0  0  0  0  0  0
   -1.5076   -0.5821    0.1886 H   0  0  0  0  0  0  0  0  0  0  0  0
   -1.5079    1.8974    0.1124 H   0  0  0  0  0  0  0  0  0  0  0  0
    0.2583    1.9851    0.0857 H   0  0  0  0  0  0  0  0  0  0  0  0
   -0.5593    1.3369    1.5039 H   0  0  0  0  0  0  0  0  0  0  0  0
    0.6976   -1.8250   -0.1895 H   0  0  0  0  0  0  0  0  0  0  0  0
   -2.5211   -1.0179    0.4733 H   0  0  0  0  0 15  0  0  0  0  0  0
  1  2  1  0
  1  6  1  0
  1  7  1  0
  1  8  1  0
  2  3  1  0
  2  4  1  0
  2  9  1  0
  3 10  1  0
  3 11  1  0
  3 12  1  0
  4  5  2  0
  4 13  1  0
M  END
>  <reaction>  (4) 
rxn_30

>  <mol_properties>  (4) 
{"1": {"label": "*3", "atom_type": "Cs"}, "3": {"label": "*4", "atom_type": "CO"}, "8": {"label": "*2", "atom_type": "H0"}, "13": {"label": "*1", "atom_type": "H0"}}

>  <type>  (4) 
ts

$$$$

     RDKit          3D

 14 12  0  0  0  0  0  0  0  0999 V2000
   -0.6036   -0.0123   -1.7021 C   0  0  0  0  0  0  0  0  0  0  0  0
   -0.6036   -0.0123   -0.1706 C   0  0  0  0  0  0  0  0  0  0  0  0
   -0.6036    1.3875    0.4203 C   0  0  0  0  0  0  0  0  0  0  0  0
    0.5515   -0.8489    0.3240 C   0  0  0  0  0  0  0  0  0  0  0  0
    1.3941   -0.4848    1.0955 O   0  0  0  0  0  0  0  0  0  0  0  0
    0.2674    0.5221   -2.0873 H   0  0  0  0  0  0  0  0  0  0  0  0
   -1.4976    0.4839   -2.0809 H   0  0  0  0  0  0  0  0  0  0  0  0
   -0.5863   -1.0268   -2.1057 H   0  0  0  0  0  0  0  0  0  0  0  0
   -1.6819   -0.6601    0.2237 H   0  0  0  0  0  0  0  0  0  0  0  0
   -1.4805    1.9423    0.0832 H   0  0  0  0  0  0  0  0  0  0  0  0
    0.2883    1.9349    0.1111 H   0  0  0  0  0  0  0  0  0  0  0  0
   -0.6082    1.3571    1.5095 H   0  0  0  0  0  0  0  0  0  0  0  0
    0.5829   -1.8790   -0.0949 H   0  0  0  0  0  0  0  0  0  0  0  0
   -2.4124   -1.0989    0.4909 H   0  0  0  0  0 15  0  0  0  0  0  0
  1  2  1  0
  1  6  1  0
  1  7  1  0
  1  8  1  0
  2  3  1  0
  2  4  1  0
  2  9  1  0
  3 10  1  0
  3 11  1  0
  3 12  1  0
  4  5  2  0
  4 13  1  0
M  END
>  <reaction>  (5) 
rxn_30

>  <mol_properties>  (5) 
{"1": {"label": "*3", "atom_type": "Cs"}, "3": {"label": "*4", "atom_type": "CO"}, "8": {"label": "*2", "atom_type": "H0"}, "13": {"label": "*1", "atom_type": "H0"}}

>  <type>  (5) 
unop_1

>  <geom_source>  (5) 
Heuristics

$$$$

     RDKit          3D

 14 12  0  0  0  0  0  0  0  0999 V2000
   -1.4345    1.4222    1.4846 O   0  0  0  0  0  0  0  0  0  0  0  0
    1.4111   -0.0536   -0.2345 C   0  0  0  0  0  0  0  0  0  0  0  0
   -1.0076   -0.3968   -0.8746 C   0  0  0  0  0  0  0  0  0  0  0  0
   -0.0388   -0.0336    0.2521 C   0  0  0  0  0  0  0  0  0  0  0  0
   -0.3932    1.2944    0.8612 C   0  0  0  0  0  0  0  0  0  0  0  0
    2.0958    0.1738    0.6099 H   0  0  0  0  0  0  0  0  0  0  0  0
    1.6658   -1.0619   -0.6236 H   0  0  0  0  0  0  0  0  0  0  0  0
    1.5657    0.6962   -1.0403 H   0  0  0  0  0  0  0  0  0  0  0  0
   -0.7533   -1.3967   -1.2854 H   0  0  0  0  0  0  0  0  0  0  0  0
   -2.0463   -0.4400   -0.4841 H   0  0  0  0  0  0  0  0  0  0  0  0
   -0.9575    0.3548   -1.6918 H   0  0  0  0  0  0  0  0  0  0  0  0
    0.2769    2.1441    0.7689 H   0  0  0  0  0  0  0  0  0  0  0  0
   -0.2026   -1.9512    1.3278 H   0  0  0  0  0 15  0  0  0  0  0  0
   -0.1814   -0.7517    0.9298 H   0  0  0  0  0  0  0  0  0  0  0  0
  1  5  2  0
  2  4  1  0
  2  6  1  0
  2  7  1  0
  2  8  1  0
  3  4  1  0
  3  9  1  0
  3 10  1  0
  3 11  1  0
  4  5  1  0
  4 14  1  0
  5 12  1  0
M  END
>  <reaction>  (6) 
rxn_30

>  <mol_properties>  (6) 
{"1": {"label": "*3", "atom_type": "Cs"}, "3": {"label": "*4", "atom_type": "CO"}, "8": {"label": "*2", "atom_type": "H0"}, "13": {"label": "*1", "atom_type": "H0"}}

>  <type>  (6) 
unop_2

>  <geom_source>  (6) 
AutoTST

$$$$

     RDKit          3D

 14 12  0  0  0  0  0  0  0  0999 V2000
    2.2637   -0.9435    0.0235 O   0  0  0  0  0  0  0  0  0  0  0  0
    0.0737   -0.0619    0.1974 C   0  0  0  0  0  0  0  0  0  0  0  0
    0.3965    1.3922   -0.1584 C   0  0  0  0  0  0  0  0  0  0  0  0
   -1.3243   -0.4406   -0.3002 C   0  0  0  0  0  0  0  0  0  0  0  0
    1.1120   -0.9873   -0.3787 C   0  0  0  0  0  0  0  0  0  0  0  0
    0.0874   -0.1809    1.4599 H   0  0  0  0  0  0  0  0  0  0  0  0
    0.4061    1.5339   -1.2608 H   0  0  0  0  0  0  0  0  0  0  0  0
   -0.3624    2.0708    0.2857 H   0  0  0  0  0  0  0  0  0  0  0  0
    1.3902    1.6745    0.2500 H   0  0  0  0  0  0  0  0  0  0  0  0
   -2.0860    0.2213    0.1638 H   0  0  0  0  0  0  0  0  0  0  0  0
   -1.3887   -0.3443   -1.4057 H   0  0  0  0  0  0  0  0  0  0  0  0
   -1.5580   -1.4886   -0.0150 H   0  0  0  0  0  0  0  0  0  0  0  0
    0.8472   -1.7111   -1.1439 H   0  0  0  0  0  0  0  0  0  0  0  0
    0.1427   -0.7346    2.2823 H   0  0  0  0  0 15  0  0  0  0  0  0
  1  5  2  0
  2  3  1  0
  2  4  1  0
  2  5  1  0
  2  6  1  0
  3  7  1  0
  3  8  1  0
  3  9  1  0
  4 10  1  0
  4 11  1  0
  4 12  1  0
  5 13  1  0
M  END
>  <reaction>  (7) 
rxn_30

>  <mol_properties>  (7) 
{"1": {"label": "*3", "atom_type": "Cs"}, "3": {"label": "*4", "atom_type": "CO"}, "8": {"label": "*2", "atom_type": "H0"}, "13": {"label": "*1", "atom_type": "H0"}}

>  <type>  (7) 
unop_3

>  <geom_source>  (7) 
gaussian_log

$$$$
