
     RDKit          3D

  7  6  0  0  0  0  0  0  0  0999 V2000
    1.6964   -0.0938    0.0583 C   0  0  0  0  0  0  0  0  0  0  0  0
    0.5019   -0.0278    0.0173 C   0  0  0  0  0  0  0  0  0  0  0  0
   -0.9505    0.0525   -0.0327 C   0  0  0  0  0  0  0  0  0  0  0  0
    2.7574   -0.1524    0.0947 H   0  0  0  0  0  0  0  0  0  0  0  0
   -1.2692    0.9972   -0.4754 H   0  0  0  0  0  0  0  0  0  0  0  0
   -1.3749   -0.0147    0.9700 H   0  0  0  0  0  0  0  0  0  0  0  0
   -1.3610   -0.7611   -0.6323 H   0  0  0  0  0  0  0  0  0  0  0  0
  1  2  3  0
  1  4  1  0
  2  3  1  0
  3  5  1  0
  3  6  1  0
  3  7  1  0
M  END
>  <reaction>  (1) 
rxn_1238

>  <mol_properties>  (1) 
{"2": {"label": "donator", "atom_type": "Cs"}, "4": {"label": "d_hydrogen", "atom_type": "H0"}}

>  <type>  (1) 
r1h

$$$$

     RDKit          3D

  6  5  0  0  0  0  0  0  0  0999 V2000
   -0.7309   -0.0987    0.0327 C   0  0  0  0  0  0  0  0  0  0  0  0
    0.6208    0.0065   -0.0096 C   0  0  0  0  0  0  0  0  0  0  0  0
    1.6572   -1.2972    0.2837 S   0  0  0  0  0  1  0  0  0  0  0  0
   -1.3651    0.7588   -0.1608 H   0  0  0  0  0  0  0  0  0  0  0  0
   -1.2044   -1.0453    0.2616 H   0  0  0  0  0  0  0  0  0  0  0  0
    1.0609    0.9725   -0.2426 H   0  0  0  0  0  0  0  0  0  0  0  0
  1  2  2  3
  1  4  1  0
  1  5  1  0
  2  3  1  0
  2  6  1  0
M  RAD  1   3   2
M  END
>  <reaction>  (2) 
rxn_1238

>  <mol_properties>  (2) 
{"0": {"label": "acceptor", "atom_type": "Cs"}}

>  <type>  (2) 
r2

$$$$

     RDKit          3D

  7  6  0  0  0  0  0  0  0  0999 V2000
   -0.6782    0.0507    0.0301 C   0  0  0  0  0  0  0  0  0  0  0  0
    0.8092    0.0996    0.0213 C   0  0  0  0  0  0  0  0  0  0  0  0
    1.7473    0.7521    1.1507 S   0  0  0  0  0  0  0  0  0  0  0  0
   -1.0667    0.5456   -0.8653 H   0  0  0  0  0  0  0  0  0  0  0  0
   -1.0112   -0.9904   -0.0239 H   0  0  0  0  0  0  0  0  0  0  0  0
   -1.0920    0.5225    0.9188 H   0  0  0  0  0  0  0  0  0  0  0  0
    1.2740   -0.3620   -0.8520 H   0  0  0  0  0  0  0  0  0  0  0  0
  1  2  1  0
  1  4  1  0
  1  5  1  0
  1  6  1  0
  2  3  2  0
  2  7  1  0
M  END
>  <reaction>  (3) 
rxn_1238

>  <mol_properties>  (3) 
{"0": {"label": "a_hydrogen", "atom_type": "H0"}, "1": {"label": "acceptor", "atom_type": "Cs"}}

>  <type>  (3) 
r2h

$$$$

     RDKit          3D

 13 11  0  0  0  0  0  0  0  0999 V2000
   -0.4991   -1.8985   -1.9565 C   0  0  0  0  0  0  0  0  0  0  0  0
   -0.4886   -2.1593   -0.7804 C   0  0  0  0  0  0  0  0  0  0  0  0
   -0.4720   -2.3247    0.6166 C   0  0  0  0  0  3  0  0  0  0  0  0
   -0.4980   -1.6963   -3.0008 H   0  0  0  0  0  0  0  0  0  0  0  0
   -0.4882   -0.9842    1.0769 H   0  0  0  0  0  0  0  0  0  0  0  0
    0.4535   -2.6905    1.0505 H   0  0  0  0  0  0  0  0  0  0  0  0
   -1.3733   -2.7235    1.0721 H   0  0  0  0  0  0  0  0  0  0  0  0
   -0.4538    0.2451    1.4750 C   0  0  0  0  0  0  0  0  0  0  0  0
   -0.3047    1.0034    0.2636 C   0  0  0  0  0  0  0  0  0  0  0  0
    1.1200    1.4480   -0.3944 S   0  0  0  0  0  0  0  0  0  0  0  0
   -1.4108    0.3383    1.9846 H   0  0  0  0  0  0  0  0  0  0  0  0
    0.4098    0.2381    2.1347 H   0  0  0  0  0  0  0  0  0  0  0  0
   -1.2269    1.2414   -0.2654 H   0  0  0  0  0  0  0  0  0  0  0  0
  1  2  3  0
  1  4  1  0
  2  3  1  0
  3  6  1  0
  3  7  1  0
  5  8  1  0
  8  9  1  0
  8 11  1  0
  8 12  1  0
  9 10  2  0
  9 13  1  0
M  RAD  1   3   2
M  END
>  <reaction>  (4) 
rxn_1238

>  <mol_properties>  (4) 
{"1": {"label": "*4", "atom_type": "Ct"}, "2": {"label": "*3", "atom_type": "Cs"}, "4": {"label": "*2", "atom_type": "H0"}, "7": {"label": "*1", "atom_type": "Cs"}, "8": {"label": "*0", "atom_type": "CS"}}

>  <type>  (4) 
ts

$$$$

     RDKit          3D

 13 11  0  0  0  0  0  0  0  0999 V2000
    0.5629   -2.0757   -3.1954 C   0  0  0  0  0  0  0  0  0  0  0  0
    0.5629   -2.0757   -1.9984 C   0  0  0  0  0  0  0  0  0  0  0  0
    0.5629   -2.0757   -0.5430 C   0  0  0  0  0  0  0  0  0  0  0  0
    0.5629   -2.0757   -4.2587 H   0  0  0  0  0  0  0  0  0  0  0  0
    0.6744   -0.8561   -0.0805 H   0  0  0  0  0  0  0  0  0  0  0  0
    1.3966   -2.6643   -0.1576 H   0  0  0  0  0  0  0  0  0  0  0  0
   -0.3637   -2.5034   -0.1576 H   0  0  0  0  0  0  0  0  0  0  0  0
    0.7862    0.3674    0.3834 C   0  0  0  0  0  0  0  0  0  0  0  0
   -0.4031    0.6959    1.2154 C   0  0  0  0  0  0  0  0  0  0  0  0
   -0.9064    2.1675    1.6185 S   0  0  0  0  0  1  0  0  0  0  0  0
    1.4678   -0.2711    0.9538 H   0  0  0  0  0  0  0  0  0  0  0  0
    1.3099    1.2633    0.0568 H   0  0  0  0  0  0  0  0  0  0  0  0
   -0.9641   -0.1713    1.5688 H   0  0  0  0  0  0  0  0  0  0  0  0
  1  2  3  0
  1  4  1  0
  2  3  1  0
  3  5  1  0
  3  6  1  0
  3  7  1  0
  8  9  2  3
  8 11  1  0
  8 12  1  0
  9 10  1  0
  9 13  1  0
M  RAD  1  10   2
M  END
>  <reaction>  (5) 
rxn_1238

>  <mol_properties>  (5) 
{"1": {"label": "*4", "atom_type": "Ct"}, "2": {"label": "*3", "atom_type": "Cs"}, "4": {"label": "*2", "atom_type": "H0"}, "7": {"label": "*1", "atom_type": "Cs"}, "8": {"label": "*0", "atom_type": "CS"}}

>  <type>  (5) 
unop_1

>  <geom_source>  (5) 
Heuristics

$$$$

     RDKit          3D

 13 11  0  0  0  0  0  0  0  0999 V2000
   -0.0306   -2.3565   -2.1223 C   0  0  0  0  0  0  0  0  0  0  0  0
   -0.0306   -2.3565   -0.9253 C   0  0  0  0  0  0  0  0  0  0  0  0
   -0.0306   -2.3565    0.5301 C   0  0  0  0  0  0  0  0  0  0  0  0
   -0.0306   -2.3565   -3.1856 H   0  0  0  0  0  0  0  0  0  0  0  0
    0.0808   -1.1369    0.9925 H   0  0  0  0  0  0  0  0  0  0  0  0
    0.8031   -2.9451    0.9155 H   0  0  0  0  0  0  0  0  0  0  0  0
   -0.9572   -2.7842    0.9155 H   0  0  0  0  0  0  0  0  0  0  0  0
    0.1927    0.0866    1.4565 C   0  0  0  0  0  0  0  0  0  0  0  0
   -0.4240    1.0422    0.4967 C   0  0  0  0  0  0  0  0  0  0  0  0
    0.1484    2.4877    0.0914 S   0  0  0  0  0  1  0  0  0  0  0  0
   -0.5167   -0.1356    2.2596 H   0  0  0  0  0  0  0  0  0  0  0  0
    1.1149    0.4788    1.8798 H   0  0  0  0  0  0  0  0  0  0  0  0
   -1.3541    0.6943    0.0432 H   0  0  0  0  0  0  0  0  0  0  0  0
  1  2  3  0
  1  4  1  0
  2  3  1  0
  3  5  1  0
  3  6  1  0
  3  7  1  0
  8  9  2  3
  8 11  1  0
  8 12  1  0
  9 10  1  0
  9 13  1  0
M  RAD  1  10   2
M  END
>  <reaction>  (6) 
rxn_1238

>  <mol_properties>  (6) 
{"1": {"label": "*4", "atom_type": "Ct"}, "2": {"label": "*3", "atom_type": "Cs"}, "4": {"label": "*2", "atom_type": "H0"}, "7": {"label": "*1", "atom_type": "Cs"}, "8": {"label": "*0", "atom_type": "CS"}}

>  <type>  (6) 
unop_2

>  <geom_source>  (6) 
Heuristics

$$$$

     RDKit          3D

 13 11  0  0  0  0  0  0  0  0999 V2000
    0.4018   -1.9230   -3.4738 C   0  0  0  0  0  0  0  0  0  0  0  0
    0.4018   -1.9230   -2.2768 C   0  0  0  0  0  0  0  0  0  0  0  0
    0.4018   -1.9230   -0.8213 C   0  0  0  0  0  0  0  0  0  0  0  0
    0.4018   -1.9230   -4.5371 H   0  0  0  0  0  0  0  0  0  0  0  0
    0.5133   -0.7034   -0.3589 H   0  0  0  0  0  0  0  0  0  0  0  0
    1.2356   -2.5116   -0.4360 H   0  0  0  0  0  0  0  0  0  0  0  0
   -0.5247   -2.3507   -0.4360 H   0  0  0  0  0  0  0  0  0  0  0  0
    0.6251    0.5201    0.1050 C   0  0  0  0  0  0  0  0  0  0  0  0
   -0.0696    0.6213    1.4171 C   0  0  0  0  0  0  0  0  0  0  0  0
   -0.7813    1.9298    2.0196 S   0  0  0  0  0  1  0  0  0  0  0  0
    1.6619    0.2071    0.2621 H   0  0  0  0  0  0  0  0  0  0  0  0
    0.6049    1.4638   -0.4360 H   0  0  0  0  0  0  0  0  0  0  0  0
   -0.0769   -0.3017    2.0000 H   0  0  0  0  0  0  0  0  0  0  0  0
  1  2  3  0
  1  4  1  0
  2  3  1  0
  3  5  1  0
  3  6  1  0
  3  7  1  0
  8  9  2  3
  8 11  1  0
  8 12  1  0
  9 10  1  0
  9 13  1  0
M  RAD  1  10   2
M  END
>  <reaction>  (7) 
rxn_1238

>  <mol_properties>  (7) 
{"1": {"label": "*4", "atom_type": "Ct"}, "2": {"label": "*3", "atom_type": "Cs"}, "4": {"label": "*2", "atom_type": "H0"}, "7": {"label": "*1", "atom_type": "Cs"}, "8": {"label": "*0", "atom_type": "CS"}}

>  <type>  (7) 
unop_3

>  <geom_source>  (7) 
Heuristics

$$$$

     RDKit          3D

 13 11  0  0  0  0  0  0  0  0999 V2000
   -1.1642   -1.7174   -2.7044 C   0  0  0  0  0  0  0  0  0  0  0  0
   -1.1642   -1.7174   -1.5073 C   0  0  0  0  0  0  0  0  0  0  0  0
   -1.1642   -1.7174   -0.0519 C   0  0  0  0  0  0  0  0  0  0  0  0
   -1.1642   -1.7174   -3.7677 H   0  0  0  0  0  0  0  0  0  0  0  0
   -1.0528   -0.4978    0.4105 H   0  0  0  0  0  0  0  0  0  0  0  0
   -0.3305   -2.3060    0.3335 H   0  0  0  0  0  0  0  0  0  0  0  0
   -2.0908   -2.1451    0.3335 H   0  0  0  0  0  0  0  0  0  0  0  0
   -0.9409    0.7257    0.8744 C   0  0  0  0  0  0  0  0  0  0  0  0
    0.3333    1.3264    0.3948 C   0  0  0  0  0  0  0  0  0  0  0  0
    1.7562    1.2610    1.1379 S   0  0  0  0  0  1  0  0  0  0  0  0
   -1.6991    1.5081    0.9783 H   0  0  0  0  0  0  0  0  0  0  0  0
   -0.8119    0.2115    1.8245 H   0  0  0  0  0  0  0  0  0  0  0  0
    0.2564    1.8550   -0.5573 H   0  0  0  0  0  0  0  0  0  0  0  0
  1  2  3  0
  1  4  1  0
  2  3  1  0
  3  5  1  0
  3  6  1  0
  3  7  1  0
  8  9  2  3
  8 11  1  0
  8 12  1  0
  9 10  1  0
  9 13  1  0
M  RAD  1  10   2
M  END
>  <reaction>  (8) 
rxn_1238

>  <mol_properties>  (8) 
{"1": {"label": "*4", "atom_type": "Ct"}, "2": {"label": "*3", "atom_type": "Cs"}, "4": {"label": "*2", "atom_type": "H0"}, "7": {"label": "*1", "atom_type": "Cs"}, "8": {"label": "*0", "atom_type": "CS"}}

>  <type>  (8) 
unop_4

>  <geom_source>  (8) 
Heuristics

$$$$

     RDKit          3D

 13 11  0  0  0  0  0  0  0  0999 V2000
    0.1923   -1.6942   -3.6657 C   0  0  0  0  0  0  0  0  0  0  0  0
    0.1923   -1.6942   -2.4686 C   0  0  0  0  0  0  0  0  0  0  0  0
    0.1923   -1.6942   -1.0132 C   0  0  0  0  0  0  0  0  0  0  0  0
    0.1923   -1.6942   -4.7290 H   0  0  0  0  0  0  0  0  0  0  0  0
    0.3038   -0.4746   -0.5508 H   0  0  0  0  0  0  0  0  0  0  0  0
    1.0260   -2.2828   -0.6278 H   0  0  0  0  0  0  0  0  0  0  0  0
   -0.7343   -2.1219   -0.6278 H   0  0  0  0  0  0  0  0  0  0  0  0
    0.4156    0.7489   -0.0869 C   0  0  0  0  0  0  0  0  0  0  0  0
    0.4130    0.7203    1.4010 C   0  0  0  0  0  0  0  0  0  0  0  0
   -0.6215    1.4813    2.3664 S   0  0  0  0  0  1  0  0  0  0  0  0
    1.3779    1.1277   -0.4448 H   0  0  0  0  0  0  0  0  0  0  0  0
   -0.3902    1.3652   -0.4798 H   0  0  0  0  0  0  0  0  0  0  0  0
    1.2045    0.1138    1.8453 H   0  0  0  0  0  0  0  0  0  0  0  0
  1  2  3  0
  1  4  1  0
  2  3  1  0
  3  5  1  0
  3  6  1  0
  3  7  1  0
  8  9  2  3
  8 11  1  0
  8 12  1  0
  9 10  1  0
  9 13  1  0
M  RAD  1  10   2
M  END
>  <reaction>  (9) 
rxn_1238

>  <mol_properties>  (9) 
{"1": {"label": "*4", "atom_type": "Ct"}, "2": {"label": "*3", "atom_type": "Cs"}, "4": {"label": "*2", "atom_type": "H0"}, "7": {"label": "*1", "atom_type": "Cs"}, "8": {"label": "*0", "atom_type": "CS"}}

>  <type>  (9) 
unop_5

>  <geom_source>  (9) 
Heuristics

$$$$

     RDKit          3D

 13 11  0  0  0  0  0  0  0  0999 V2000
   -1.0784   -1.4967   -3.1671 C   0  0  0  0  0  0  0  0  0  0  0  0
   -1.0784   -1.4967   -1.9701 C   0  0  0  0  0  0  0  0  0  0  0  0
   -1.0784   -1.4967   -0.5147 C   0  0  0  0  0  0  0  0  0  0  0  0
   -1.0784   -1.4967   -4.2304 H   0  0  0  0  0  0  0  0  0  0  0  0
   -0.9670   -0.2772   -0.0522 H   0  0  0  0  0  0  0  0  0  0  0  0
   -0.2447   -2.0853   -0.1293 H   0  0  0  0  0  0  0  0  0  0  0  0
   -2.0050   -1.9244   -0.1293 H   0  0  0  0  0  0  0  0  0  0  0  0
   -0.8552    0.9463    0.4117 C   0  0  0  0  0  0  0  0  0  0  0  0
    0.5836    1.2834    0.5879 C   0  0  0  0  0  0  0  0  0  0  0  0
    1.5038    0.9016    1.8483 S   0  0  0  0  0  1  0  0  0  0  0  0
   -1.4334    1.8657    0.2771 H   0  0  0  0  0  0  0  0  0  0  0  0
   -1.2455    0.3884    1.2602 H   0  0  0  0  0  0  0  0  0  0  0  0
    1.0234    1.8446   -0.2387 H   0  0  0  0  0  0  0  0  0  0  0  0
  1  2  3  0
  1  4  1  0
  2  3  1  0
  3  5  1  0
  3  6  1  0
  3  7  1  0
  8  9  2  3
  8 11  1  0
  8 12  1  0
  9 10  1  0
  9 13  1  0
M  RAD  1  10   2
M  END
>  <reaction>  (10) 
rxn_1238

>  <mol_properties>  (10) 
{"1": {"label": "*4", "atom_type": "Ct"}, "2": {"label": "*3", "atom_type": "Cs"}, "4": {"label": "*2", "atom_type": "H0"}, "7": {"label": "*1", "atom_type": "Cs"}, "8": {"label": "*0", "atom_type": "CS"}}

>  <type>  (10) 
unop_6

>  <geom_source>  (10) 
Heuristics

$$$$

     RDKit          3D

 13 11  0  0  0  0  0  0  0  0999 V2000
   -0.7358   -1.3809   -3.5542 C   0  0  0  0  0  0  0  0  0  0  0  0
   -0.7358   -1.3809   -2.3572 C   0  0  0  0  0  0  0  0  0  0  0  0
   -0.7358   -1.3809   -0.9018 C   0  0  0  0  0  0  0  0  0  0  0  0
   -0.7358   -1.3809   -4.6175 H   0  0  0  0  0  0  0  0  0  0  0  0
   -0.6243   -0.1614   -0.4393 H   0  0  0  0  0  0  0  0  0  0  0  0
    0.0979   -1.9695   -0.5164 H   0  0  0  0  0  0  0  0  0  0  0  0
   -1.6624   -1.8086   -0.5164 H   0  0  0  0  0  0  0  0  0  0  0  0
   -0.5125    1.0621    0.0246 C   0  0  0  0  0  0  0  0  0  0  0  0
    0.7166    1.1696    0.8566 C   0  0  0  0  0  0  0  0  0  0  0  0
    0.8612    0.7501    2.4008 S   0  0  0  0  0  1  0  0  0  0  0  0
   -0.7800    2.0497   -0.3638 H   0  0  0  0  0  0  0  0  0  0  0  0
   -1.3471    0.6516    0.5891 H   0  0  0  0  0  0  0  0  0  0  0  0
    1.5845    1.5771    0.3347 H   0  0  0  0  0  0  0  0  0  0  0  0
  1  2  3  0
  1  4  1  0
  2  3  1  0
  3  5  1  0
  3  6  1  0
  3  7  1  0
  8  9  2  3
  8 11  1  0
  8 12  1  0
  9 10  1  0
  9 13  1  0
M  RAD  1  10   2
M  END
>  <reaction>  (11) 
rxn_1238

>  <mol_properties>  (11) 
{"1": {"label": "*4", "atom_type": "Ct"}, "2": {"label": "*3", "atom_type": "Cs"}, "4": {"label": "*2", "atom_type": "H0"}, "7": {"label": "*1", "atom_type": "Cs"}, "8": {"label": "*0", "atom_type": "CS"}}

>  <type>  (11) 
unop_7

>  <geom_source>  (11) 
Heuristics

$$$$

     RDKit          3D

 13 11  0  0  0  0  0  0  0  0999 V2000
    0.5920   -2.2249   -2.8087 C   0  0  0  0  0  0  0  0  0  0  0  0
    0.5920   -2.2249   -1.6116 C   0  0  0  0  0  0  0  0  0  0  0  0
    0.5920   -2.2249   -0.1562 C   0  0  0  0  0  0  0  0  0  0  0  0
    0.5920   -2.2249   -3.8719 H   0  0  0  0  0  0  0  0  0  0  0  0
    0.7035   -1.0053    0.3062 H   0  0  0  0  0  0  0  0  0  0  0  0
    1.4258   -2.8135    0.2292 H   0  0  0  0  0  0  0  0  0  0  0  0
   -0.3346   -2.6526    0.2292 H   0  0  0  0  0  0  0  0  0  0  0  0
    0.8153    0.2182    0.7701 C   0  0  0  0  0  0  0  0  0  0  0  0
   -0.5385    0.8104    0.9463 C   0  0  0  0  0  0  0  0  0  0  0  0
   -0.8855    2.3745    1.0669 S   0  0  0  0  0  1  0  0  0  0  0  0
    1.0236   -0.4721    1.5934 H   0  0  0  0  0  0  0  0  0  0  0  0
    1.5878    0.9831    0.7285 H   0  0  0  0  0  0  0  0  0  0  0  0
   -1.3504    0.0822    0.9942 H   0  0  0  0  0  0  0  0  0  0  0  0
  1  2  3  0
  1  4  1  0
  2  3  1  0
  3  5  1  0
  3  6  1  0
  3  7  1  0
  8  9  2  3
  8 11  1  0
  8 12  1  0
  9 10  1  0
  9 13  1  0
M  RAD  1  10   2
M  END
>  <reaction>  (12) 
rxn_1238

>  <mol_properties>  (12) 
{"1": {"label": "*4", "atom_type": "Ct"}, "2": {"label": "*3", "atom_type": "Cs"}, "4": {"label": "*2", "atom_type": "H0"}, "7": {"label": "*1", "atom_type": "Cs"}, "8": {"label": "*0", "atom_type": "CS"}}

>  <type>  (12) 
unop_8

>  <geom_source>  (12) 
Heuristics

$$$$

     RDKit          3D

 13 11  0  0  0  0  0  0  0  0999 V2000
   -0.9739   -1.9855   -2.2997 C   0  0  0  0  0  0  0  0  0  0  0  0
   -0.9739   -1.9855   -1.1027 C   0  0  0  0  0  0  0  0  0  0  0  0
   -0.9739   -1.9855    0.3527 C   0  0  0  0  0  0  0  0  0  0  0  0
   -0.9739   -1.9855   -3.3630 H   0  0  0  0  0  0  0  0  0  0  0  0
   -0.8624   -0.7659    0.8151 H   0  0  0  0  0  0  0  0  0  0  0  0
   -0.1402   -2.5741    0.7381 H   0  0  0  0  0  0  0  0  0  0  0  0
   -1.9005   -2.4132    0.7381 H   0  0  0  0  0  0  0  0  0  0  0  0
   -0.7506    0.4576    1.2791 C   0  0  0  0  0  0  0  0  0  0  0  0
    0.0290    1.2856    0.3193 C   0  0  0  0  0  0  0  0  0  0  0  0
    1.5626    1.7376    0.4782 S   0  0  0  0  0  1  0  0  0  0  0  0
   -1.6347    1.0123    1.6082 H   0  0  0  0  0  0  0  0  0  0  0  0
   -0.1540    0.1723    2.1429 H   0  0  0  0  0  0  0  0  0  0  0  0
   -0.5265    1.5983   -0.5669 H   0  0  0  0  0  0  0  0  0  0  0  0
  1  2  3  0
  1  4  1  0
  2  3  1  0
  3  5  1  0
  3  6  1  0
  3  7  1  0
  8  9  2  3
  8 11  1  0
  8 12  1  0
  9 10  1  0
  9 13  1  0
M  RAD  1  10   2
M  END
>  <reaction>  (13) 
rxn_1238

>  <mol_properties>  (13) 
{"1": {"label": "*4", "atom_type": "Ct"}, "2": {"label": "*3", "atom_type": "Cs"}, "4": {"label": "*2", "atom_type": "H0"}, "7": {"label": "*1", "atom_type": "Cs"}, "8": {"label": "*0", "atom_type": "CS"}}

>  <type>  (13) 
unop_9

>  <geom_source>  (13) 
Heuristics

$$$$

     RDKit          3D

 13 11  0  0  0  0  0  0  0  0999 V2000
    0.3921   -2.3400   -2.4051 C   0  0  0  0  0  0  0  0  0  0  0  0
    0.3921   -2.3400   -1.2081 C   0  0  0  0  0  0  0  0  0  0  0  0
    0.3921   -2.3400    0.2473 C   0  0  0  0  0  0  0  0  0  0  0  0
    0.3921   -2.3400   -3.4684 H   0  0  0  0  0  0  0  0  0  0  0  0
    0.5036   -1.1205    0.7098 H   0  0  0  0  0  0  0  0  0  0  0  0
    1.2258   -2.9286    0.6327 H   0  0  0  0  0  0  0  0  0  0  0  0
   -0.5345   -2.7677    0.6327 H   0  0  0  0  0  0  0  0  0  0  0  0
    0.6154    0.1030    1.1737 C   0  0  0  0  0  0  0  0  0  0  0  0
   -0.5288    0.9248    0.6940 C   0  0  0  0  0  0  0  0  0  0  0  0
   -0.5360    2.5179    0.4855 S   0  0  0  0  0  1  0  0  0  0  0  0
    0.3230   -0.4409    2.0772 H   0  0  0  0  0  0  0  0  0  0  0  0
    1.4917    0.7136    1.3806 H   0  0  0  0  0  0  0  0  0  0  0  0
   -1.4345    0.3572    0.4719 H   0  0  0  0  0  0  0  0  0  0  0  0
  1  2  3  0
  1  4  1  0
  2  3  1  0
  3  5  1  0
  3  6  1  0
  3  7  1  0
  8  9  2  3
  8 11  1  0
  8 12  1  0
  9 10  1  0
  9 13  1  0
M  RAD  1  10   2
M  END
>  <reaction>  (14) 
rxn_1238

>  <mol_properties>  (14) 
{"1": {"label": "*4", "atom_type": "Ct"}, "2": {"label": "*3", "atom_type": "Cs"}, "4": {"label": "*2", "atom_type": "H0"}, "7": {"label": "*1", "atom_type": "Cs"}, "8": {"label": "*0", "atom_type": "CS"}}

>  <type>  (14) 
unop_10

>  <geom_source>  (14) 
Heuristics

$$$$

     RDKit          3D

 13 11  0  0  0  0  0  0  0  0999 V2000
   -0.2315   -1.4377   -3.7400 C   0  0  0  0  0  0  0  0  0  0  0  0
   -0.2315   -1.4377   -2.5430 C   0  0  0  0  0  0  0  0  0  0  0  0
   -0.2315   -1.4377   -1.0876 C   0  0  0  0  0  0  0  0  0  0  0  0
   -0.2315   -1.4377   -4.8033 H   0  0  0  0  0  0  0  0  0  0  0  0
   -0.1201   -0.2181   -0.6252 H   0  0  0  0  0  0  0  0  0  0  0  0
    0.6022   -2.0263   -0.7022 H   0  0  0  0  0  0  0  0  0  0  0  0
   -1.1581   -1.8654   -0.7022 H   0  0  0  0  0  0  0  0  0  0  0  0
   -0.0083    1.0054   -0.1612 C   0  0  0  0  0  0  0  0  0  0  0  0
    0.6933    0.9790    1.1509 C   0  0  0  0  0  0  0  0  0  0  0  0
    0.0014    0.9264    2.6000 S   0  0  0  0  0  1  0  0  0  0  0  0
    0.2841    1.9026   -0.7155 H   0  0  0  0  0  0  0  0  0  0  0  0
   -1.0894    0.9846   -0.0410 H   0  0  0  0  0  0  0  0  0  0  0  0
    1.7828    0.9985    1.0842 H   0  0  0  0  0  0  0  0  0  0  0  0
  1  2  3  0
  1  4  1  0
  2  3  1  0
  3  5  1  0
  3  6  1  0
  3  7  1  0
  8  9  2  3
  8 11  1  0
  8 12  1  0
  9 10  1  0
  9 13  1  0
M  RAD  1  10   2
M  END
>  <reaction>  (15) 
rxn_1238

>  <mol_properties>  (15) 
{"1": {"label": "*4", "atom_type": "Ct"}, "2": {"label": "*3", "atom_type": "Cs"}, "4": {"label": "*2", "atom_type": "H0"}, "7": {"label": "*1", "atom_type": "Cs"}, "8": {"label": "*0", "atom_type": "CS"}}

>  <type>  (15) 
unop_11

>  <geom_source>  (15) 
Heuristics

$$$$

     RDKit          3D

 13 11  0  0  0  0  0  0  0  0999 V2000
   -0.5508   -2.2280   -2.0787 C   0  0  0  0  0  0  0  0  0  0  0  0
   -0.5508   -2.2280   -0.8817 C   0  0  0  0  0  0  0  0  0  0  0  0
   -0.5508   -2.2280    0.5737 C   0  0  0  0  0  0  0  0  0  0  0  0
   -0.5508   -2.2280   -3.1420 H   0  0  0  0  0  0  0  0  0  0  0  0
   -0.4393   -1.0084    1.0361 H   0  0  0  0  0  0  0  0  0  0  0  0
    0.2829   -2.8166    0.9591 H   0  0  0  0  0  0  0  0  0  0  0  0
   -1.4774   -2.6557    0.9591 H   0  0  0  0  0  0  0  0  0  0  0  0
   -0.3275    0.2151    1.5001 C   0  0  0  0  0  0  0  0  0  0  0  0
   -0.2400    1.1730    0.3645 C   0  0  0  0  0  0  0  0  0  0  0  0
    0.9583    2.2043    0.0787 S   0  0  0  0  0  1  0  0  0  0  0  0
   -1.2373    0.4110    2.0759 H   0  0  0  0  0  0  0  0  0  0  0  0
    0.5408    0.2821    2.1521 H   0  0  0  0  0  0  0  0  0  0  0  0
   -1.0895    1.1446   -0.3205 H   0  0  0  0  0  0  0  0  0  0  0  0
  1  2  3  0
  1  4  1  0
  2  3  1  0
  3  5  1  0
  3  6  1  0
  3  7  1  0
  8  9  2  3
  8 11  1  0
  8 12  1  0
  9 10  1  0
  9 13  1  0
M  RAD  1  10   2
M  END
>  <reaction>  (16) 
rxn_1238

>  <mol_properties>  (16) 
{"1": {"label": "*4", "atom_type": "Ct"}, "2": {"label": "*3", "atom_type": "Cs"}, "4": {"label": "*2", "atom_type": "H0"}, "7": {"label": "*1", "atom_type": "Cs"}, "8": {"label": "*0", "atom_type": "CS"}}

>  <type>  (16) 
unop_12

>  <geom_source>  (16) 
Heuristics

$$$$

     RDKit          3D

 13 11  0  0  0  0  0  0  0  0999 V2000
   -3.5135    0.9583   -0.4979 S   0  0  0  0  0  0  0  0  0  0  0  0
   -1.0124    0.4857   -0.3646 C   0  0  0  0  0  0  0  0  0  0  0  0
   -2.4346    0.0853   -0.1296 C   0  0  0  0  0  0  0  0  0  0  0  0
    0.9979   -1.1272    0.0969 C   0  0  0  0  0  3  0  0  0  0  0  0
    1.9566   -0.0532    0.3579 C   0  0  0  0  0  0  0  0  0  0  0  0
    2.7462    0.8318    0.5729 C   0  0  0  0  0  0  0  0  0  0  0  0
   -0.8326    0.6504   -1.4486 H   0  0  0  0  0  0  0  0  0  0  0  0
   -0.7758    1.4149    0.1967 H   0  0  0  0  0  0  0  0  0  0  0  0
   -0.2058   -0.4845    0.0583 H   0  0  0  0  0  0  0  0  0  0  0  0
   -2.6547   -0.8750    0.3242 H   0  0  0  0  0  0  0  0  0  0  0  0
    1.2590   -1.6332   -0.8553 H   0  0  0  0  0  0  0  0  0  0  0  0
    1.0302   -1.8622    0.9273 H   0  0  0  0  0  0  0  0  0  0  0  0
    3.4396    1.6088    0.7617 H   0  0  0  0  0  0  0  0  0  0  0  0
  1  3  2  0
  2  3  1  0
  2  7  1  0
  2  8  1  0
  2  9  1  0
  3 10  1  0
  4  5  1  0
  4 11  1  0
  4 12  1  0
  5  6  3  0
  6 13  1  0
M  RAD  1   4   2
M  END
>  <reaction>  (17) 
rxn_1238

>  <mol_properties>  (17) 
{"1": {"label": "*4", "atom_type": "Ct"}, "2": {"label": "*3", "atom_type": "Cs"}, "4": {"label": "*2", "atom_type": "H0"}, "7": {"label": "*1", "atom_type": "Cs"}, "8": {"label": "*0", "atom_type": "CS"}}

>  <type>  (17) 
unop_13

>  <geom_source>  (17) 
AutoTST

$$$$

     RDKit          3D

 13 11  0  0  0  0  0  0  0  0999 V2000
   -0.0306   -2.3565   -2.1223 C   0  0  0  0  0  0  0  0  0  0  0  0
   -0.0306   -2.3565   -0.9253 C   0  0  0  0  0  0  0  0  0  0  0  0
   -0.0306   -2.3565    0.5301 C   0  0  0  0  0  0  0  0  0  0  0  0
   -0.0306   -2.3565   -3.1856 H   0  0  0  0  0  0  0  0  0  0  0  0
    0.0808   -1.1369    0.9925 H   0  0  0  0  0  0  0  0  0  0  0  0
    0.8031   -2.9451    0.9155 H   0  0  0  0  0  0  0  0  0  0  0  0
   -0.9572   -2.7842    0.9155 H   0  0  0  0  0  0  0  0  0  0  0  0
    0.1927    0.0866    1.4565 C   0  0  0  0  0  0  0  0  0  0  0  0
   -0.4240    1.0422    0.4967 C   0  0  0  0  0  0  0  0  0  0  0  0
    0.1484    2.4877    0.0914 S   0  0  0  0  0  1  0  0  0  0  0  0
   -0.5167   -0.1356    2.2596 H   0  0  0  0  0  0  0  0  0  0  0  0
    1.1149    0.4788    1.8798 H   0  0  0  0  0  0  0  0  0  0  0  0
   -1.3541    0.6943    0.0432 H   0  0  0  0  0  0  0  0  0  0  0  0
  1  2  3  0
  1  4  1  0
  2  3  1  0
  3  5  1  0
  3  6  1  0
  3  7  1  0
  8  9  2  3
  8 11  1  0
  8 12  1  0
  9 10  1  0
  9 13  1  0
M  RAD  1  10   2
M  END
>  <reaction>  (18) 
rxn_1238

>  <mol_properties>  (18) 
{"1": {"label": "*4", "atom_type": "Ct"}, "2": {"label": "*3", "atom_type": "Cs"}, "4": {"label": "*2", "atom_type": "H0"}, "7": {"label": "*1", "atom_type": "Cs"}, "8": {"label": "*0", "atom_type": "CS"}}

>  <type>  (18) 
unop_14

>  <geom_source>  (18) 
gaussian_log

$$$$
