
     RDKit          3D

  9  8  0  0  0  0  0  0  0  0999 V2000
    1.1303   -0.2933   -0.7510 C   0  0  0  0  0  0  0  0  0  0  0  0
    0.2866    0.4560   -0.0588 C   0  0  0  0  0  0  0  0  0  0  0  0
   -0.9719   -0.0331    0.5823 C   0  0  0  0  0  0  0  0  0  0  0  0
    2.0274    0.1230   -1.1916 H   0  0  0  0  0  0  0  0  0  0  0  0
    0.9532   -1.3530   -0.9023 H   0  0  0  0  0  0  0  0  0  0  0  0
    0.5065    1.5132    0.0659 H   0  0  0  0  0  0  0  0  0  0  0  0
   -0.9526    0.1426    1.6610 H   0  0  0  0  0  0  0  0  0  0  0  0
   -1.1182   -1.1002    0.4106 H   0  0  0  0  0  0  0  0  0  0  0  0
   -1.8412    0.5010    0.1901 H   0  0  0  0  0  0  0  0  0  0  0  0
  1  2  2  3
  1  4  1  0
  1  5  1  0
  2  3  1  0
  2  6  1  0
  3  7  1  0
  3  8  1  0
  3  9  1  0
M  END
>  <reaction>  (1) 
rxn_415

>  <mol_properties>  (1) 
{"2": {"label": "donator", "atom_type": "Cs"}, "6": {"label": "d_hydrogen", "atom_type": "H0"}}

>  <type>  (1) 
r1h

$$$$

     RDKit          3D

 14 13  0  0  0  0  0  0  0  0999 V2000
    0.1523    1.4701    0.0231 C   0  0  0  0  0  0  0  0  0  0  0  0
    0.0724   -0.0001   -0.3729 C   0  0  0  0  0  0  0  0  0  0  0  0
    1.2474   -0.8003    0.1743 C   0  0  0  0  0  0  0  0  0  0  0  0
   -0.0121   -0.1270   -1.8938 C   0  0  0  0  0  0  0  0  0  0  0  0
   -0.1587   -1.3813   -2.3858 O   0  0  0  0  0  1  0  0  0  0  0  0
    1.0591    1.9320   -0.3785 H   0  0  0  0  0  0  0  0  0  0  0  0
    0.1790    1.5804    1.1081 H   0  0  0  0  0  0  0  0  0  0  0  0
   -0.7050    2.0354   -0.3496 H   0  0  0  0  0  0  0  0  0  0  0  0
   -0.8541   -0.4208    0.0314 H   0  0  0  0  0  0  0  0  0  0  0  0
    1.2629   -0.7766    1.2653 H   0  0  0  0  0  0  0  0  0  0  0  0
    1.1914   -1.8416   -0.1445 H   0  0  0  0  0  0  0  0  0  0  0  0
    2.1953   -0.3860   -0.1823 H   0  0  0  0  0  0  0  0  0  0  0  0
    0.9157    0.2677   -2.3596 H   0  0  0  0  0  0  0  0  0  0  0  0
   -0.8026    0.5214   -2.3140 H   0  0  0  0  0  0  0  0  0  0  0  0
  1  2  1  0
  1  6  1  0
  1  7  1  0
  1  8  1  0
  2  3  1  0
  2  4  1  0
  2  9  1  0
  3 10  1  0
  3 11  1  0
  3 12  1  0
  4  5  1  0
  4 13  1  0
  4 14  1  0
M  RAD  1   5   2
M  END
>  <reaction>  (2) 
rxn_415

>  <mol_properties>  (2) 
{"4": {"label": "acceptor", "atom_type": "O2s"}}

>  <type>  (2) 
r2

$$$$

     RDKit          3D

 15 14  0  0  0  0  0  0  0  0999 V2000
   -0.6986    1.3249   -0.1641 C   0  0  0  0  0  0  0  0  0  0  0  0
   -0.2590   -0.0344    0.3671 C   0  0  0  0  0  0  0  0  0  0  0  0
   -0.4734   -0.1429    1.8733 C   0  0  0  0  0  0  0  0  0  0  0  0
   -0.9841   -1.1722   -0.3462 C   0  0  0  0  0  0  0  0  0  0  0  0
   -0.7805   -1.1911   -1.7444 O   0  0  0  0  0  0  0  0  0  0  0  0
   -0.1246    2.1306    0.2976 H   0  0  0  0  0  0  0  0  0  0  0  0
   -1.7557    1.4964    0.0581 H   0  0  0  0  0  0  0  0  0  0  0  0
   -0.5709    1.3852   -1.2449 H   0  0  0  0  0  0  0  0  0  0  0  0
    0.8141   -0.1541    0.1667 H   0  0  0  0  0  0  0  0  0  0  0  0
   -1.5346   -0.0466    2.1192 H   0  0  0  0  0  0  0  0  0  0  0  0
    0.0611    0.6480    2.4019 H   0  0  0  0  0  0  0  0  0  0  0  0
   -0.1249   -1.1023    2.2618 H   0  0  0  0  0  0  0  0  0  0  0  0
   -0.6918   -2.1316    0.1011 H   0  0  0  0  0  0  0  0  0  0  0  0
   -2.0629   -1.0627   -0.2056 H   0  0  0  0  0  0  0  0  0  0  0  0
    0.1528   -1.3298   -1.9125 H   0  0  0  0  0  0  0  0  0  0  0  0
  1  2  1  0
  1  6  1  0
  1  7  1  0
  1  8  1  0
  2  3  1  0
  2  4  1  0
  2  9  1  0
  3 10  1  0
  3 11  1  0
  3 12  1  0
  4  5  1  0
  4 13  1  0
  4 14  1  0
  5 15  1  0
M  END
>  <reaction>  (3) 
rxn_415

>  <mol_properties>  (3) 
{"0": {"label": "a_hydrogen", "atom_type": "H0"}, "5": {"label": "acceptor", "atom_type": "O2s"}}

>  <type>  (3) 
r2h

$$$$

     RDKit          3D

 23 21  0  0  0  0  0  0  0  0999 V2000
    0.7963    0.3534   -2.8330 C   0  0  0  0  0  0  0  0  0  0  0  0
    1.5029    0.3881   -1.7014 C   0  0  0  0  0  0  0  0  0  0  0  0
    1.6375    1.5638   -0.8445 C   0  0  0  0  0  0  0  0  0  0  0  0
    0.7075   -0.5537   -3.4167 H   0  0  0  0  0  0  0  0  0  0  0  0
    0.2958    1.2379   -3.2113 H   0  0  0  0  0  0  0  0  0  0  0  0
    1.9809   -0.5254   -1.3596 H   0  0  0  0  0  0  0  0  0  0  0  0
    0.7834    1.5023    0.0386 H   0  0  0  0  0  0  0  0  0  0  0  0
    1.4075    2.5083   -1.3345 H   0  0  0  0  0  0  0  0  0  0  0  0
    2.5618    1.6104   -0.2717 H   0  0  0  0  0  0  0  0  0  0  0  0
   -0.4760   -1.0381    2.4981 C   0  0  0  0  0  0  0  0  0  0  0  0
   -0.4662   -1.0104    0.9749 C   0  0  0  0  0  0  0  0  0  0  0  0
   -1.2690   -2.1613    0.3802 C   0  0  0  0  0  0  0  0  0  0  0  0
   -0.9886    0.3240    0.4461 C   0  0  0  0  0  0  0  0  0  0  0  0
   -0.2600    1.4301    0.8470 O   0  0  0  0  0  1  0  0  0  0  0  0
   -0.0259   -1.9571    2.8788 H   0  0  0  0  0  0  0  0  0  0  0  0
   -1.5016   -0.9866    2.8758 H   0  0  0  0  0  0  0  0  0  0  0  0
    0.0757   -0.1899    2.9047 H   0  0  0  0  0  0  0  0  0  0  0  0
    0.5721   -1.1011    0.6359 H   0  0  0  0  0  0  0  0  0  0  0  0
   -2.3219   -2.0893    0.6683 H   0  0  0  0  0  0  0  0  0  0  0  0
   -1.2195   -2.1594   -0.7112 H   0  0  0  0  0  0  0  0  0  0  0  0
   -0.8961   -3.1244    0.7331 H   0  0  0  0  0  0  0  0  0  0  0  0
   -2.0187    0.4915    0.8007 H   0  0  0  0  0  0  0  0  0  0  0  0
   -1.0607    0.2883   -0.6536 H   0  0  0  0  0  0  0  0  0  0  0  0
  1  2  2  3
  1  4  1  0
  1  5  1  0
  2  3  1  0
  2  6  1  0
  3  7  1  0
  3  8  1  0
  3  9  1  0
 10 11  1  0
 10 15  1  0
 10 16  1  0
 10 17  1  0
 11 12  1  0
 11 13  1  0
 11 18  1  0
 12 19  1  0
 12 20  1  0
 12 21  1  0
 13 14  1  0
 13 22  1  0
 13 23  1  0
M  RAD  1  14   2
M  END
>  <reaction>  (4) 
rxn_415

>  <mol_properties>  (4) 
{"1": {"label": "*0", "atom_type": "Cd"}, "2": {"label": "*1", "atom_type": "Cs"}, "6": {"label": "*2", "atom_type": "H0"}, "12": {"label": "*4", "atom_type": "Cs"}, "13": {"label": "*3", "atom_type": "O2s"}}

>  <type>  (4) 
ts

$$$$

     RDKit          3D

 23 21  0  0  0  0  0  0  0  0999 V2000
    0.4147   -1.3110   -3.6125 C   0  0  0  0  0  0  0  0  0  0  0  0
    0.4147   -1.3110   -2.2888 C   0  0  0  0  0  0  0  0  0  0  0  0
    0.4147   -0.0888   -1.4282 C   0  0  0  0  0  3  0  0  0  0  0  0
    0.4147   -2.2338   -4.1790 H   0  0  0  0  0  0  0  0  0  0  0  0
    0.4147   -0.3854   -4.1785 H   0  0  0  0  0  0  0  0  0  0  0  0
    0.4147   -2.2637   -1.7652 H   0  0  0  0  0  0  0  0  0  0  0  0
   -0.6386   -0.0683   -0.6468 H   0  0  0  0  0  0  0  0  0  0  0  0
    0.4147    0.8216   -2.0288 H   0  0  0  0  0  0  0  0  0  0  0  0
    1.2924   -0.0717   -0.7770 H   0  0  0  0  0  0  0  0  0  0  0  0
    0.5286    1.8308    0.9998 C   0  0  0  0  0  0  0  0  0  0  0  0
    0.3240    0.4244    1.5503 C   0  0  0  0  0  0  0  0  0  0  0  0
    0.7317    0.3324    3.0171 C   0  0  0  0  0  0  0  0  0  0  0  0
   -1.1215   -0.0351    1.3810 C   0  0  0  0  0  0  0  0  0  0  0  0
   -1.5622   -0.0503    0.0385 O   0  0  0  0  0  0  0  0  0  0  0  0
    1.5783    2.1255    1.0572 H   0  0  0  0  0  0  0  0  0  0  0  0
   -0.0545    2.5540    1.5772 H   0  0  0  0  0  0  0  0  0  0  0  0
    0.2074    1.8973   -0.0396 H   0  0  0  0  0  0  0  0  0  0  0  0
    0.9561   -0.2672    0.9775 H   0  0  0  0  0  0  0  0  0  0  0  0
    0.1143    0.9943    3.6308 H   0  0  0  0  0  0  0  0  0  0  0  0
    0.6207   -0.6831    3.4033 H   0  0  0  0  0  0  0  0  0  0  0  0
    1.7722    0.6319    3.1528 H   0  0  0  0  0  0  0  0  0  0  0  0
   -1.7881    0.6562    1.9036 H   0  0  0  0  0  0  0  0  0  0  0  0
   -1.2490   -1.0237    1.8420 H   0  0  0  0  0  0  0  0  0  0  0  0
  1  2  2  3
  1  4  1  0
  1  5  1  0
  2  3  1  0
  2  6  1  0
  3  8  1  0
  3  9  1  0
  7 14  1  0
 10 11  1  0
 10 15  1  0
 10 16  1  0
 10 17  1  0
 11 12  1  0
 11 13  1  0
 11 18  1  0
 12 19  1  0
 12 20  1  0
 12 21  1  0
 13 14  1  0
 13 22  1  0
 13 23  1  0
M  RAD  1   3   2
M  END
>  <reaction>  (5) 
rxn_415

>  <mol_properties>  (5) 
{"1": {"label": "*0", "atom_type": "Cd"}, "2": {"label": "*1", "atom_type": "Cs"}, "6": {"label": "*2", "atom_type": "H0"}, "12": {"label": "*4", "atom_type": "Cs"}, "13": {"label": "*3", "atom_type": "O2s"}}

>  <type>  (5) 
unop_1

>  <geom_source>  (5) 
Heuristics

$$$$

     RDKit          3D

 23 21  0  0  0  0  0  0  0  0999 V2000
    0.9602    0.1747   -3.1948 C   0  0  0  0  0  0  0  0  0  0  0  0
    0.9602    0.1747   -1.8710 C   0  0  0  0  0  0  0  0  0  0  0  0
    0.9602    1.3969   -1.0105 C   0  0  0  0  0  3  0  0  0  0  0  0
    0.9602   -0.7480   -3.7613 H   0  0  0  0  0  0  0  0  0  0  0  0
    0.9602    1.1003   -3.7608 H   0  0  0  0  0  0  0  0  0  0  0  0
    0.9602   -0.7779   -1.3475 H   0  0  0  0  0  0  0  0  0  0  0  0
   -0.0930    1.4174   -0.2291 H   0  0  0  0  0  0  0  0  0  0  0  0
    0.9602    2.3073   -1.6111 H   0  0  0  0  0  0  0  0  0  0  0  0
    1.8379    1.4140   -0.3593 H   0  0  0  0  0  0  0  0  0  0  0  0
    0.5979   -0.3124    2.2374 C   0  0  0  0  0  0  0  0  0  0  0  0
   -0.2049   -0.8152    1.0433 C   0  0  0  0  0  0  0  0  0  0  0  0
   -0.6950   -2.2432    1.2595 C   0  0  0  0  0  0  0  0  0  0  0  0
   -1.3869    0.1018    0.7411 C   0  0  0  0  0  0  0  0  0  0  0  0
   -1.0166    1.4354    0.4562 O   0  0  0  0  0  0  0  0  0  0  0  0
    1.4824   -0.9305    2.4034 H   0  0  0  0  0  0  0  0  0  0  0  0
   -0.0100   -0.3463    3.1460 H   0  0  0  0  0  0  0  0  0  0  0  0
    0.9196    0.7185    2.0896 H   0  0  0  0  0  0  0  0  0  0  0  0
    0.4475   -0.8094    0.1600 H   0  0  0  0  0  0  0  0  0  0  0  0
   -1.3651   -2.2941    2.1223 H   0  0  0  0  0  0  0  0  0  0  0  0
   -1.2390   -2.6185    0.3900 H   0  0  0  0  0  0  0  0  0  0  0  0
    0.1407   -2.9183    1.4502 H   0  0  0  0  0  0  0  0  0  0  0  0
   -2.0399    0.1564    1.6164 H   0  0  0  0  0  0  0  0  0  0  0  0
   -1.9783   -0.3206   -0.0822 H   0  0  0  0  0  0  0  0  0  0  0  0
  1  2  2  3
  1  4  1  0
  1  5  1  0
  2  3  1  0
  2  6  1  0
  3  8  1  0
  3  9  1  0
  7 14  1  0
 10 11  1  0
 10 15  1  0
 10 16  1  0
 10 17  1  0
 11 12  1  0
 11 13  1  0
 11 18  1  0
 12 19  1  0
 12 20  1  0
 12 21  1  0
 13 14  1  0
 13 22  1  0
 13 23  1  0
M  RAD  1   3   2
M  END
>  <reaction>  (6) 
rxn_415

>  <mol_properties>  (6) 
{"1": {"label": "*0", "atom_type": "Cd"}, "2": {"label": "*1", "atom_type": "Cs"}, "6": {"label": "*2", "atom_type": "H0"}, "12": {"label": "*4", "atom_type": "Cs"}, "13": {"label": "*3", "atom_type": "O2s"}}

>  <type>  (6) 
unop_2

>  <geom_source>  (6) 
Heuristics

$$$$

     RDKit          3D

 23 21  0  0  0  0  0  0  0  0999 V2000
    0.7098   -1.9318   -3.3243 C   0  0  0  0  0  0  0  0  0  0  0  0
    0.7098   -1.9318   -2.0006 C   0  0  0  0  0  0  0  0  0  0  0  0
    0.7098   -0.7096   -1.1400 C   0  0  0  0  0  3  0  0  0  0  0  0
    0.7098   -2.8545   -3.8908 H   0  0  0  0  0  0  0  0  0  0  0  0
    0.7098   -1.0062   -3.8903 H   0  0  0  0  0  0  0  0  0  0  0  0
    0.7098   -2.8844   -1.4770 H   0  0  0  0  0  0  0  0  0  0  0  0
   -0.3435   -0.6890   -0.3586 H   0  0  0  0  0  0  0  0  0  0  0  0
    0.7098    0.2009   -1.7406 H   0  0  0  0  0  0  0  0  0  0  0  0
    1.5875   -0.6925   -0.4888 H   0  0  0  0  0  0  0  0  0  0  0  0
   -0.3542    2.1576    0.3222 C   0  0  0  0  0  0  0  0  0  0  0  0
    0.1191    1.1069    1.3198 C   0  0  0  0  0  0  0  0  0  0  0  0
    0.4769    1.7323    2.6641 C   0  0  0  0  0  0  0  0  0  0  0  0
   -0.9274    0.0133    1.5154 C   0  0  0  0  0  0  0  0  0  0  0  0
   -1.2671   -0.6710    0.3267 O   0  0  0  0  0  0  0  0  0  0  0  0
    0.4262    2.8967    0.1314 H   0  0  0  0  0  0  0  0  0  0  0  0
   -1.2285    2.6864    0.7127 H   0  0  0  0  0  0  0  0  0  0  0  0
   -0.6369    1.7008   -0.6262 H   0  0  0  0  0  0  0  0  0  0  0  0
    1.0211    0.6278    0.9165 H   0  0  0  0  0  0  0  0  0  0  0  0
   -0.3993    2.2081    3.1131 H   0  0  0  0  0  0  0  0  0  0  0  0
    0.8513    0.9864    3.3685 H   0  0  0  0  0  0  0  0  0  0  0  0
    1.2447    2.4986    2.5463 H   0  0  0  0  0  0  0  0  0  0  0  0
   -1.8582    0.4589    1.8768 H   0  0  0  0  0  0  0  0  0  0  0  0
   -0.5827   -0.6917    2.2836 H   0  0  0  0  0  0  0  0  0  0  0  0
  1  2  2  3
  1  4  1  0
  1  5  1  0
  2  3  1  0
  2  6  1  0
  3  8  1  0
  3  9  1  0
  7 14  1  0
 10 11  1  0
 10 15  1  0
 10 16  1  0
 10 17  1  0
 11 12  1  0
 11 13  1  0
 11 18  1  0
 12 19  1  0
 12 20  1  0
 12 21  1  0
 13 14  1  0
 13 22  1  0
 13 23  1  0
M  RAD  1   3   2
M  END
>  <reaction>  (7) 
rxn_415

>  <mol_properties>  (7) 
{"1": {"label": "*0", "atom_type": "Cd"}, "2": {"label": "*1", "atom_type": "Cs"}, "6": {"label": "*2", "atom_type": "H0"}, "12": {"label": "*4", "atom_type": "Cs"}, "13": {"label": "*3", "atom_type": "O2s"}}

>  <type>  (7) 
unop_3

>  <geom_source>  (7) 
Heuristics

$$$$

     RDKit          3D

 23 21  0  0  0  0  0  0  0  0999 V2000
    2.2768   -0.3730   -2.3259 C   0  0  0  0  0  0  0  0  0  0  0  0
    2.2768   -0.3730   -1.0021 C   0  0  0  0  0  0  0  0  0  0  0  0
    2.2768    0.8491   -0.1416 C   0  0  0  0  0  3  0  0  0  0  0  0
    2.2768   -1.2958   -2.8924 H   0  0  0  0  0  0  0  0  0  0  0  0
    2.2768    0.5526   -2.8919 H   0  0  0  0  0  0  0  0  0  0  0  0
    2.2768   -1.3257   -0.4786 H   0  0  0  0  0  0  0  0  0  0  0  0
    1.2235    0.8697    0.6398 H   0  0  0  0  0  0  0  0  0  0  0  0
    2.2768    1.7596   -0.7422 H   0  0  0  0  0  0  0  0  0  0  0  0
    3.1545    0.8663    0.5096 H   0  0  0  0  0  0  0  0  0  0  0  0
   -1.8685   -1.1174    1.6596 C   0  0  0  0  0  0  0  0  0  0  0  0
   -1.4759   -0.4958    0.3246 C   0  0  0  0  0  0  0  0  0  0  0  0
   -2.6671   -0.4080   -0.6240 C   0  0  0  0  0  0  0  0  0  0  0  0
   -0.8574    0.8865    0.5142 C   0  0  0  0  0  0  0  0  0  0  0  0
    0.2999    0.8877    1.3251 O   0  0  0  0  0  0  0  0  0  0  0  0
   -2.2424   -2.1341    1.5239 H   0  0  0  0  0  0  0  0  0  0  0  0
   -2.6593   -0.5301    2.1350 H   0  0  0  0  0  0  0  0  0  0  0  0
   -1.0203   -1.1497    2.3434 H   0  0  0  0  0  0  0  0  0  0  0  0
   -0.7143   -1.1333   -0.1438 H   0  0  0  0  0  0  0  0  0  0  0  0
   -3.4469    0.2339   -0.2048 H   0  0  0  0  0  0  0  0  0  0  0  0
   -2.3801    0.0031   -1.5942 H   0  0  0  0  0  0  0  0  0  0  0  0
   -3.1055   -1.3929   -0.7925 H   0  0  0  0  0  0  0  0  0  0  0  0
   -1.5733    1.5408    1.0191 H   0  0  0  0  0  0  0  0  0  0  0  0
   -0.6437    1.3310   -0.4669 H   0  0  0  0  0  0  0  0  0  0  0  0
  1  2  2  3
  1  4  1  0
  1  5  1  0
  2  3  1  0
  2  6  1  0
  3  8  1  0
  3  9  1  0
  7 14  1  0
 10 11  1  0
 10 15  1  0
 10 16  1  0
 10 17  1  0
 11 12  1  0
 11 13  1  0
 11 18  1  0
 12 19  1  0
 12 20  1  0
 12 21  1  0
 13 14  1  0
 13 22  1  0
 13 23  1  0
M  RAD  1   3   2
M  END
>  <reaction>  (8) 
rxn_415

>  <mol_properties>  (8) 
{"1": {"label": "*0", "atom_type": "Cd"}, "2": {"label": "*1", "atom_type": "Cs"}, "6": {"label": "*2", "atom_type": "H0"}, "12": {"label": "*4", "atom_type": "Cs"}, "13": {"label": "*3", "atom_type": "O2s"}}

>  <type>  (8) 
unop_4

>  <geom_source>  (8) 
Heuristics

$$$$

     RDKit          3D

 23 21  0  0  0  0  0  0  0  0999 V2000
    1.4007   -2.1994   -2.8597 C   0  0  0  0  0  0  0  0  0  0  0  0
    1.4007   -2.1994   -1.5360 C   0  0  0  0  0  0  0  0  0  0  0  0
    1.4007   -0.9772   -0.6755 C   0  0  0  0  0  3  0  0  0  0  0  0
    1.4007   -3.1221   -3.4262 H   0  0  0  0  0  0  0  0  0  0  0  0
    1.4007   -1.2738   -3.4257 H   0  0  0  0  0  0  0  0  0  0  0  0
    1.4007   -3.1520   -1.0125 H   0  0  0  0  0  0  0  0  0  0  0  0
    0.3475   -0.9567    0.1060 H   0  0  0  0  0  0  0  0  0  0  0  0
    1.4007   -0.0668   -1.2761 H   0  0  0  0  0  0  0  0  0  0  0  0
    2.2784   -0.9601   -0.0243 H   0  0  0  0  0  0  0  0  0  0  0  0
   -1.8589    1.6030   -0.0623 C   0  0  0  0  0  0  0  0  0  0  0  0
   -0.5828    1.5247    0.7674 C   0  0  0  0  0  0  0  0  0  0  0  0
   -0.4420    2.7287    1.6930 C   0  0  0  0  0  0  0  0  0  0  0  0
   -0.5245    0.2334    1.5789 C   0  0  0  0  0  0  0  0  0  0  0  0
   -0.5761   -0.9387    0.7912 O   0  0  0  0  0  0  0  0  0  0  0  0
   -1.8611    2.4926   -0.6952 H   0  0  0  0  0  0  0  0  0  0  0  0
   -2.7348    1.6542    0.5908 H   0  0  0  0  0  0  0  0  0  0  0  0
   -1.9687    0.7255   -0.6994 H   0  0  0  0  0  0  0  0  0  0  0  0
    0.2758    1.5196    0.0828 H   0  0  0  0  0  0  0  0  0  0  0  0
   -1.2697    2.7647    2.4069 H   0  0  0  0  0  0  0  0  0  0  0  0
    0.4898    2.6931    2.2616 H   0  0  0  0  0  0  0  0  0  0  0  0
   -0.4543    3.6609    1.1259 H   0  0  0  0  0  0  0  0  0  0  0  0
   -1.3903    0.1811    2.2447 H   0  0  0  0  0  0  0  0  0  0  0  0
    0.3739    0.2367    2.2105 H   0  0  0  0  0  0  0  0  0  0  0  0
  1  2  2  3
  1  4  1  0
  1  5  1  0
  2  3  1  0
  2  6  1  0
  3  8  1  0
  3  9  1  0
  7 14  1  0
 10 11  1  0
 10 15  1  0
 10 16  1  0
 10 17  1  0
 11 12  1  0
 11 13  1  0
 11 18  1  0
 12 19  1  0
 12 20  1  0
 12 21  1  0
 13 14  1  0
 13 22  1  0
 13 23  1  0
M  RAD  1   3   2
M  END
>  <reaction>  (9) 
rxn_415

>  <mol_properties>  (9) 
{"1": {"label": "*0", "atom_type": "Cd"}, "2": {"label": "*1", "atom_type": "Cs"}, "6": {"label": "*2", "atom_type": "H0"}, "12": {"label": "*4", "atom_type": "Cs"}, "13": {"label": "*3", "atom_type": "O2s"}}

>  <type>  (9) 
unop_5

>  <geom_source>  (9) 
Heuristics

$$$$

     RDKit          3D

 23 21  0  0  0  0  0  0  0  0999 V2000
    2.4068   -0.9488   -2.2591 C   0  0  0  0  0  0  0  0  0  0  0  0
    2.4068   -0.9488   -0.9353 C   0  0  0  0  0  0  0  0  0  0  0  0
    2.4068    0.2733   -0.0748 C   0  0  0  0  0  3  0  0  0  0  0  0
    2.4068   -1.8716   -2.8255 H   0  0  0  0  0  0  0  0  0  0  0  0
    2.4068   -0.0232   -2.8251 H   0  0  0  0  0  0  0  0  0  0  0  0
    2.4068   -1.9015   -0.4118 H   0  0  0  0  0  0  0  0  0  0  0  0
    1.3536    0.2939    0.7067 H   0  0  0  0  0  0  0  0  0  0  0  0
    2.4068    1.1838   -0.6754 H   0  0  0  0  0  0  0  0  0  0  0  0
    3.2846    0.2905    0.5764 H   0  0  0  0  0  0  0  0  0  0  0  0
   -2.3426   -0.7553    1.3025 C   0  0  0  0  0  0  0  0  0  0  0  0
   -1.6994    0.0517    0.1809 C   0  0  0  0  0  0  0  0  0  0  0  0
   -2.7369    0.8543   -0.5975 C   0  0  0  0  0  0  0  0  0  0  0  0
   -0.6143    0.9821    0.7158 C   0  0  0  0  0  0  0  0  0  0  0  0
    0.4300    0.3119    1.3919 O   0  0  0  0  0  0  0  0  0  0  0  0
   -3.0659   -1.4705    0.9059 H   0  0  0  0  0  0  0  0  0  0  0  0
   -2.8712   -0.0923    1.9934 H   0  0  0  0  0  0  0  0  0  0  0  0
   -1.5928   -1.3028    1.8735 H   0  0  0  0  0  0  0  0  0  0  0  0
   -1.2169   -0.6467   -0.5158 H   0  0  0  0  0  0  0  0  0  0  0  0
   -3.2328    1.5783    0.0552 H   0  0  0  0  0  0  0  0  0  0  0  0
   -2.2831    1.4044   -1.4247 H   0  0  0  0  0  0  0  0  0  0  0  0
   -3.5068    0.2007   -1.0106 H   0  0  0  0  0  0  0  0  0  0  0  0
   -1.0493    1.6675    1.4482 H   0  0  0  0  0  0  0  0  0  0  0  0
   -0.2154    1.5918   -0.1059 H   0  0  0  0  0  0  0  0  0  0  0  0
  1  2  2  3
  1  4  1  0
  1  5  1  0
  2  3  1  0
  2  6  1  0
  3  8  1  0
  3  9  1  0
  7 14  1  0
 10 11  1  0
 10 15  1  0
 10 16  1  0
 10 17  1  0
 11 12  1  0
 11 13  1  0
 11 18  1  0
 12 19  1  0
 12 20  1  0
 12 21  1  0
 13 14  1  0
 13 22  1  0
 13 23  1  0
M  RAD  1   3   2
M  END
>  <reaction>  (10) 
rxn_415

>  <mol_properties>  (10) 
{"1": {"label": "*0", "atom_type": "Cd"}, "2": {"label": "*1", "atom_type": "Cs"}, "6": {"label": "*2", "atom_type": "H0"}, "12": {"label": "*4", "atom_type": "Cs"}, "13": {"label": "*3", "atom_type": "O2s"}}

>  <type>  (10) 
unop_6

>  <geom_source>  (10) 
Heuristics

$$$$

     RDKit          3D

 23 21  0  0  0  0  0  0  0  0999 V2000
    2.3210   -1.4931   -2.3659 C   0  0  0  0  0  0  0  0  0  0  0  0
    2.3210   -1.4931   -1.0421 C   0  0  0  0  0  0  0  0  0  0  0  0
    2.3210   -0.2710   -0.1816 C   0  0  0  0  0  3  0  0  0  0  0  0
    2.3210   -2.4159   -2.9324 H   0  0  0  0  0  0  0  0  0  0  0  0
    2.3210   -0.5675   -2.9319 H   0  0  0  0  0  0  0  0  0  0  0  0
    2.3210   -2.4458   -0.5186 H   0  0  0  0  0  0  0  0  0  0  0  0
    1.2678   -0.2504    0.5999 H   0  0  0  0  0  0  0  0  0  0  0  0
    2.3210    0.6395   -0.7822 H   0  0  0  0  0  0  0  0  0  0  0  0
    3.1987   -0.2538    0.4696 H   0  0  0  0  0  0  0  0  0  0  0  0
   -2.6080   -0.2876    0.9448 C   0  0  0  0  0  0  0  0  0  0  0  0
   -1.6783    0.6639    0.2011 C   0  0  0  0  0  0  0  0  0  0  0  0
   -2.3727    1.9811   -0.1291 C   0  0  0  0  0  0  0  0  0  0  0  0
   -0.4032    0.9315    0.9961 C   0  0  0  0  0  0  0  0  0  0  0  0
    0.3442   -0.2324    1.2851 O   0  0  0  0  0  0  0  0  0  0  0  0
   -3.4836   -0.5325    0.3404 H   0  0  0  0  0  0  0  0  0  0  0  0
   -2.9594    0.1718    1.8731 H   0  0  0  0  0  0  0  0  0  0  0  0
   -2.0970   -1.2148    1.2042 H   0  0  0  0  0  0  0  0  0  0  0  0
   -1.3809    0.1898   -0.7438 H   0  0  0  0  0  0  0  0  0  0  0  0
   -2.6721    2.4988    0.7864 H   0  0  0  0  0  0  0  0  0  0  0  0
   -1.7201    2.6500   -0.6943 H   0  0  0  0  0  0  0  0  0  0  0  0
   -3.2731    1.8102   -0.7213 H   0  0  0  0  0  0  0  0  0  0  0  0
   -0.6617    1.3657    1.9657 H   0  0  0  0  0  0  0  0  0  0  0  0
    0.2145    1.6664    0.4630 H   0  0  0  0  0  0  0  0  0  0  0  0
  1  2  2  3
  1  4  1  0
  1  5  1  0
  2  3  1  0
  2  6  1  0
  3  8  1  0
  3  9  1  0
  7 14  1  0
 10 11  1  0
 10 15  1  0
 10 16  1  0
 10 17  1  0
 11 12  1  0
 11 13  1  0
 11 18  1  0
 12 19  1  0
 12 20  1  0
 12 21  1  0
 13 14  1  0
 13 22  1  0
 13 23  1  0
M  RAD  1   3   2
M  END
>  <reaction>  (11) 
rxn_415

>  <mol_properties>  (11) 
{"1": {"label": "*0", "atom_type": "Cd"}, "2": {"label": "*1", "atom_type": "Cs"}, "6": {"label": "*2", "atom_type": "H0"}, "12": {"label": "*4", "atom_type": "Cs"}, "13": {"label": "*3", "atom_type": "O2s"}}

>  <type>  (11) 
unop_7

>  <geom_source>  (11) 
Heuristics

$$$$

     RDKit          3D

 23 21  0  0  0  0  0  0  0  0999 V2000
    0.4134   -0.6714   -3.6345 C   0  0  0  0  0  0  0  0  0  0  0  0
    0.4134   -0.6714   -2.3107 C   0  0  0  0  0  0  0  0  0  0  0  0
    0.4134    0.5508   -1.4502 C   0  0  0  0  0  3  0  0  0  0  0  0
    0.4134   -1.5941   -4.2009 H   0  0  0  0  0  0  0  0  0  0  0  0
    0.4134    0.2542   -4.2005 H   0  0  0  0  0  0  0  0  0  0  0  0
    0.4134   -1.6240   -1.7872 H   0  0  0  0  0  0  0  0  0  0  0  0
   -0.6399    0.5713   -0.6687 H   0  0  0  0  0  0  0  0  0  0  0  0
    0.4134    1.4612   -2.0508 H   0  0  0  0  0  0  0  0  0  0  0  0
    1.2911    0.5679   -0.7990 H   0  0  0  0  0  0  0  0  0  0  0  0
    0.9082    1.2183    1.5428 C   0  0  0  0  0  0  0  0  0  0  0  0
    0.2647   -0.1622    1.4869 C   0  0  0  0  0  0  0  0  0  0  0  0
    0.5207   -0.9515    2.7666 C   0  0  0  0  0  0  0  0  0  0  0  0
   -1.2358   -0.0669    1.2243 C   0  0  0  0  0  0  0  0  0  0  0  0
   -1.5635    0.5893    0.0165 O   0  0  0  0  0  0  0  0  0  0  0  0
    1.9912    1.1416    1.6578 H   0  0  0  0  0  0  0  0  0  0  0  0
    0.5201    1.7849    2.3940 H   0  0  0  0  0  0  0  0  0  0  0  0
    0.6964    1.7883    0.6382 H   0  0  0  0  0  0  0  0  0  0  0  0
    0.7084   -0.7177    0.6500 H   0  0  0  0  0  0  0  0  0  0  0  0
    0.0793   -0.4425    3.6280 H   0  0  0  0  0  0  0  0  0  0  0  0
    0.0919   -1.9546    2.7140 H   0  0  0  0  0  0  0  0  0  0  0  0
    1.5906   -1.0528    2.9555 H   0  0  0  0  0  0  0  0  0  0  0  0
   -1.7089    0.5187    2.0172 H   0  0  0  0  0  0  0  0  0  0  0  0
   -1.6780   -1.0717    1.2518 H   0  0  0  0  0  0  0  0  0  0  0  0
  1  2  2  3
  1  4  1  0
  1  5  1  0
  2  3  1  0
  2  6  1  0
  3  8  1  0
  3  9  1  0
  7 14  1  0
 10 11  1  0
 10 15  1  0
 10 16  1  0
 10 17  1  0
 11 12  1  0
 11 13  1  0
 11 18  1  0
 12 19  1  0
 12 20  1  0
 12 21  1  0
 13 14  1  0
 13 22  1  0
 13 23  1  0
M  RAD  1   3   2
M  END
>  <reaction>  (12) 
rxn_415

>  <mol_properties>  (12) 
{"1": {"label": "*0", "atom_type": "Cd"}, "2": {"label": "*1", "atom_type": "Cs"}, "6": {"label": "*2", "atom_type": "H0"}, "12": {"label": "*4", "atom_type": "Cs"}, "13": {"label": "*3", "atom_type": "O2s"}}

>  <type>  (12) 
unop_8

>  <geom_source>  (12) 
Heuristics

$$$$

     RDKit          3D

 23 21  0  0  0  0  0  0  0  0999 V2000
    1.9242    0.0828   -2.5646 C   0  0  0  0  0  0  0  0  0  0  0  0
    1.9242    0.0828   -1.2408 C   0  0  0  0  0  0  0  0  0  0  0  0
    1.9242    1.3050   -0.3803 C   0  0  0  0  0  3  0  0  0  0  0  0
    1.9242   -0.8399   -3.1311 H   0  0  0  0  0  0  0  0  0  0  0  0
    1.9242    1.0084   -3.1306 H   0  0  0  0  0  0  0  0  0  0  0  0
    1.9242   -0.8698   -0.7173 H   0  0  0  0  0  0  0  0  0  0  0  0
    0.8709    1.3255    0.4011 H   0  0  0  0  0  0  0  0  0  0  0  0
    1.9242    2.2154   -0.9809 H   0  0  0  0  0  0  0  0  0  0  0  0
    2.8019    1.3221    0.2709 H   0  0  0  0  0  0  0  0  0  0  0  0
   -1.1118   -1.2647    2.0402 C   0  0  0  0  0  0  0  0  0  0  0  0
   -1.0612   -0.8453    0.5758 C   0  0  0  0  0  0  0  0  0  0  0  0
   -2.1899   -1.4821   -0.2284 C   0  0  0  0  0  0  0  0  0  0  0  0
   -1.1089    0.6731    0.4293 C   0  0  0  0  0  0  0  0  0  0  0  0
   -0.0527    1.3435    1.0864 O   0  0  0  0  0  0  0  0  0  0  0  0
   -1.0039   -2.3462    2.1422 H   0  0  0  0  0  0  0  0  0  0  0  0
   -2.0699   -0.9800    2.4845 H   0  0  0  0  0  0  0  0  0  0  0  0
   -0.3212   -0.7828    2.6153 H   0  0  0  0  0  0  0  0  0  0  0  0
   -0.1071   -1.1848    0.1509 H   0  0  0  0  0  0  0  0  0  0  0  0
   -3.1632   -1.1572    0.1497 H   0  0  0  0  0  0  0  0  0  0  0  0
   -2.1336   -1.2124   -1.2852 H   0  0  0  0  0  0  0  0  0  0  0  0
   -2.1545   -2.5704   -0.1569 H   0  0  0  0  0  0  0  0  0  0  0  0
   -2.0284    1.0549    0.8812 H   0  0  0  0  0  0  0  0  0  0  0  0
   -1.1334    0.9388   -0.6359 H   0  0  0  0  0  0  0  0  0  0  0  0
  1  2  2  3
  1  4  1  0
  1  5  1  0
  2  3  1  0
  2  6  1  0
  3  8  1  0
  3  9  1  0
  7 14  1  0
 10 11  1  0
 10 15  1  0
 10 16  1  0
 10 17  1  0
 11 12  1  0
 11 13  1  0
 11 18  1  0
 12 19  1  0
 12 20  1  0
 12 21  1  0
 13 14  1  0
 13 22  1  0
 13 23  1  0
M  RAD  1   3   2
M  END
>  <reaction>  (13) 
rxn_415

>  <mol_properties>  (13) 
{"1": {"label": "*0", "atom_type": "Cd"}, "2": {"label": "*1", "atom_type": "Cs"}, "6": {"label": "*2", "atom_type": "H0"}, "12": {"label": "*4", "atom_type": "Cs"}, "13": {"label": "*3", "atom_type": "O2s"}}

>  <type>  (13) 
unop_9

>  <geom_source>  (13) 
Heuristics

$$$$

     RDKit          3D

 23 21  0  0  0  0  0  0  0  0999 V2000
    0.6114   -0.1543   -3.4641 C   0  0  0  0  0  0  0  0  0  0  0  0
    0.6114   -0.1543   -2.1404 C   0  0  0  0  0  0  0  0  0  0  0  0
    0.6114    1.0678   -1.2799 C   0  0  0  0  0  3  0  0  0  0  0  0
    0.6114   -1.0771   -4.0306 H   0  0  0  0  0  0  0  0  0  0  0  0
    0.6114    0.7713   -4.0301 H   0  0  0  0  0  0  0  0  0  0  0  0
    0.6114   -1.1070   -1.6169 H   0  0  0  0  0  0  0  0  0  0  0  0
   -0.4418    1.0884   -0.4984 H   0  0  0  0  0  0  0  0  0  0  0  0
    0.6114    1.9783   -1.8805 H   0  0  0  0  0  0  0  0  0  0  0  0
    1.4891    1.0850   -0.6287 H   0  0  0  0  0  0  0  0  0  0  0  0
    0.9406    0.4817    1.9550 C   0  0  0  0  0  0  0  0  0  0  0  0
    0.0719   -0.5712    1.2769 C   0  0  0  0  0  0  0  0  0  0  0  0
   -0.0012   -1.8523    2.1014 C   0  0  0  0  0  0  0  0  0  0  0  0
   -1.3346   -0.0435    1.0076 C   0  0  0  0  0  0  0  0  0  0  0  0
   -1.3654    1.1064    0.1868 O   0  0  0  0  0  0  0  0  0  0  0  0
    1.9647    0.1244    2.0789 H   0  0  0  0  0  0  0  0  0  0  0  0
    0.5460    0.7190    2.9471 H   0  0  0  0  0  0  0  0  0  0  0  0
    0.9644    1.4048    1.3759 H   0  0  0  0  0  0  0  0  0  0  0  0
    0.5205   -0.8171    0.3052 H   0  0  0  0  0  0  0  0  0  0  0  0
   -0.4594   -1.6582    3.0752 H   0  0  0  0  0  0  0  0  0  0  0  0
   -0.5929   -2.6211    1.5998 H   0  0  0  0  0  0  0  0  0  0  0  0
    0.9955   -2.2588    2.2807 H   0  0  0  0  0  0  0  0  0  0  0  0
   -1.8002    0.2536    1.9512 H   0  0  0  0  0  0  0  0  0  0  0  0
   -1.9509   -0.8438    0.5767 H   0  0  0  0  0  0  0  0  0  0  0  0
  1  2  2  3
  1  4  1  0
  1  5  1  0
  2  3  1  0
  2  6  1  0
  3  8  1  0
  3  9  1  0
  7 14  1  0
 10 11  1  0
 10 15  1  0
 10 16  1  0
 10 17  1  0
 11 12  1  0
 11 13  1  0
 11 18  1  0
 12 19  1  0
 12 20  1  0
 12 21  1  0
 13 14  1  0
 13 22  1  0
 13 23  1  0
M  RAD  1   3   2
M  END
>  <reaction>  (14) 
rxn_415

>  <mol_properties>  (14) 
{"1": {"label": "*0", "atom_type": "Cd"}, "2": {"label": "*1", "atom_type": "Cs"}, "6": {"label": "*2", "atom_type": "H0"}, "12": {"label": "*4", "atom_type": "Cs"}, "13": {"label": "*3", "atom_type": "O2s"}}

>  <type>  (14) 
unop_10

>  <geom_source>  (14) 
Heuristics

$$$$

     RDKit          3D

 23 21  0  0  0  0  0  0  0  0999 V2000
    2.0259   -1.9304   -2.5686 C   0  0  0  0  0  0  0  0  0  0  0  0
    2.0259   -1.9304   -1.2448 C   0  0  0  0  0  0  0  0  0  0  0  0
    2.0259   -0.7082   -0.3843 C   0  0  0  0  0  3  0  0  0  0  0  0
    2.0259   -2.8531   -3.1351 H   0  0  0  0  0  0  0  0  0  0  0  0
    2.0259   -1.0048   -3.1346 H   0  0  0  0  0  0  0  0  0  0  0  0
    2.0259   -2.8830   -0.7213 H   0  0  0  0  0  0  0  0  0  0  0  0
    0.9726   -0.6877    0.3971 H   0  0  0  0  0  0  0  0  0  0  0  0
    2.0259    0.2022   -0.9849 H   0  0  0  0  0  0  0  0  0  0  0  0
    2.9036   -0.6911    0.2669 H   0  0  0  0  0  0  0  0  0  0  0  0
   -2.6416    0.4188    0.4422 C   0  0  0  0  0  0  0  0  0  0  0  0
   -1.3522    1.2284    0.3734 C   0  0  0  0  0  0  0  0  0  0  0  0
   -1.6015    2.7043    0.6664 C   0  0  0  0  0  0  0  0  0  0  0  0
   -0.2973    0.6779    1.3292 C   0  0  0  0  0  0  0  0  0  0  0  0
    0.0490   -0.6697    1.0824 O   0  0  0  0  0  0  0  0  0  0  0  0
   -3.3658    0.7714   -0.2948 H   0  0  0  0  0  0  0  0  0  0  0  0
   -3.0977    0.5130    1.4319 H   0  0  0  0  0  0  0  0  0  0  0  0
   -2.4522   -0.6393    0.2616 H   0  0  0  0  0  0  0  0  0  0  0  0
   -0.9460    1.1473   -0.6436 H   0  0  0  0  0  0  0  0  0  0  0  0
   -1.9917    2.8354    1.6796 H   0  0  0  0  0  0  0  0  0  0  0  0
   -0.6851    3.2924    0.5814 H   0  0  0  0  0  0  0  0  0  0  0  0
   -2.3342    3.1217   -0.0262 H   0  0  0  0  0  0  0  0  0  0  0  0
   -0.6830    0.7020    2.3520 H   0  0  0  0  0  0  0  0  0  0  0  0
    0.5941    1.3186    1.3008 H   0  0  0  0  0  0  0  0  0  0  0  0
  1  2  2  3
  1  4  1  0
  1  5  1  0
  2  3  1  0
  2  6  1  0
  3  8  1  0
  3  9  1  0
  7 14  1  0
 10 11  1  0
 10 15  1  0
 10 16  1  0
 10 17  1  0
 11 12  1  0
 11 13  1  0
 11 18  1  0
 12 19  1  0
 12 20  1  0
 12 21  1  0
 13 14  1  0
 13 22  1  0
 13 23  1  0
M  RAD  1   3   2
M  END
>  <reaction>  (15) 
rxn_415

>  <mol_properties>  (15) 
{"1": {"label": "*0", "atom_type": "Cd"}, "2": {"label": "*1", "atom_type": "Cs"}, "6": {"label": "*2", "atom_type": "H0"}, "12": {"label": "*4", "atom_type": "Cs"}, "13": {"label": "*3", "atom_type": "O2s"}}

>  <type>  (15) 
unop_11

>  <geom_source>  (15) 
Heuristics

$$$$

     RDKit          3D

 23 21  0  0  0  0  0  0  0  0999 V2000
    1.4305    0.2737   -2.8847 C   0  0  0  0  0  0  0  0  0  0  0  0
    1.4305    0.2737   -1.5609 C   0  0  0  0  0  0  0  0  0  0  0  0
    1.4305    1.4959   -0.7004 C   0  0  0  0  0  3  0  0  0  0  0  0
    1.4305   -0.6490   -3.4511 H   0  0  0  0  0  0  0  0  0  0  0  0
    1.4305    1.1993   -3.4507 H   0  0  0  0  0  0  0  0  0  0  0  0
    1.4305   -0.6789   -1.0374 H   0  0  0  0  0  0  0  0  0  0  0  0
    0.3772    1.5165    0.0811 H   0  0  0  0  0  0  0  0  0  0  0  0
    1.4305    2.4064   -1.3010 H   0  0  0  0  0  0  0  0  0  0  0  0
    2.3082    1.5130   -0.0492 H   0  0  0  0  0  0  0  0  0  0  0  0
   -0.1651   -0.9897    2.2887 C   0  0  0  0  0  0  0  0  0  0  0  0
   -0.5874   -0.9280    0.8256 C   0  0  0  0  0  0  0  0  0  0  0  0
   -1.4626   -2.1177    0.4448 C   0  0  0  0  0  0  0  0  0  0  0  0
   -1.3146    0.3764    0.5103 C   0  0  0  0  0  0  0  0  0  0  0  0
   -0.5464    1.5345    0.7663 O   0  0  0  0  0  0  0  0  0  0  0  0
    0.4174   -1.8905    2.4910 H   0  0  0  0  0  0  0  0  0  0  0  0
   -1.0449   -1.0065    2.9383 H   0  0  0  0  0  0  0  0  0  0  0  0
    0.4348   -0.1217    2.5623 H   0  0  0  0  0  0  0  0  0  0  0  0
    0.3164   -0.9572    0.2026 H   0  0  0  0  0  0  0  0  0  0  0  0
   -2.3862   -2.1195    1.0303 H   0  0  0  0  0  0  0  0  0  0  0  0
   -1.7359   -2.0949   -0.6123 H   0  0  0  0  0  0  0  0  0  0  0  0
   -0.9470   -3.0596    0.6385 H   0  0  0  0  0  0  0  0  0  0  0  0
   -2.2010    0.4629    1.1446 H   0  0  0  0  0  0  0  0  0  0  0  0
   -1.6588    0.3622   -0.5324 H   0  0  0  0  0  0  0  0  0  0  0  0
  1  2  2  3
  1  4  1  0
  1  5  1  0
  2  3  1  0
  2  6  1  0
  3  8  1  0
  3  9  1  0
  7 14  1  0
 10 11  1  0
 10 15  1  0
 10 16  1  0
 10 17  1  0
 11 12  1  0
 11 13  1  0
 11 18  1  0
 12 19  1  0
 12 20  1  0
 12 21  1  0
 13 14  1  0
 13 22  1  0
 13 23  1  0
M  RAD  1   3   2
M  END
>  <reaction>  (16) 
rxn_415

>  <mol_properties>  (16) 
{"1": {"label": "*0", "atom_type": "Cd"}, "2": {"label": "*1", "atom_type": "Cs"}, "6": {"label": "*2", "atom_type": "H0"}, "12": {"label": "*4", "atom_type": "Cs"}, "13": {"label": "*3", "atom_type": "O2s"}}

>  <type>  (16) 
unop_12

>  <geom_source>  (16) 
Heuristics

$$$$

     RDKit          3D

 23 21  0  0  0  0  0  0  0  0999 V2000
    0.0990   -1.4860   -0.1402 O   0  0  0  0  0  0  0  0  0  0  0  0
   -1.5656    0.2624    0.0326 C   0  0  0  0  0  0  0  0  0  0  0  0
   -0.5219   -0.6067    0.7560 C   0  0  0  0  0  0  0  0  0  0  0  0
   -2.6827   -0.6007   -0.5687 C   0  0  0  0  0  0  0  0  0  0  0  0
   -2.1554    1.2997    0.9950 C   0  0  0  0  0  0  0  0  0  0  0  0
    3.2303   -0.2772   -0.2589 C   0  0  0  0  0  0  0  0  0  0  0  0
    2.1288   -0.6946   -1.1795 C   0  0  0  0  0  0  0  0  0  0  0  0
    3.2689    0.9574    0.2447 C   0  0  0  0  0  3  0  0  0  0  0  0
   -1.0615    0.8095   -0.7947 H   0  0  0  0  0  0  0  0  0  0  0  0
   -1.0108   -1.2002    1.5583 H   0  0  0  0  0  0  0  0  0  0  0  0
    0.2493    0.0379    1.2340 H   0  0  0  0  0  0  0  0  0  0  0  0
   -2.2634   -1.3151   -1.3085 H   0  0  0  0  0  0  0  0  0  0  0  0
   -3.4212    0.0412   -1.0948 H   0  0  0  0  0  0  0  0  0  0  0  0
   -3.2076   -1.1731    0.2263 H   0  0  0  0  0  0  0  0  0  0  0  0
   -2.8854    1.9459    0.4622 H   0  0  0  0  0  0  0  0  0  0  0  0
   -2.6707    0.7998    1.8434 H   0  0  0  0  0  0  0  0  0  0  0  0
   -1.3501    1.9506    1.3976 H   0  0  0  0  0  0  0  0  0  0  0  0
    4.0014   -0.9920    0.0127 H   0  0  0  0  0  0  0  0  0  0  0  0
    2.2386   -1.7681   -1.4398 H   0  0  0  0  0  0  0  0  0  0  0  0
    2.1607   -0.0887   -2.1095 H   0  0  0  0  0  0  0  0  0  0  0  0
    2.5052    1.6872   -0.0074 H   0  0  0  0  0  0  0  0  0  0  0  0
    4.0711    1.2450    0.9166 H   0  0  0  0  0  0  0  0  0  0  0  0
    0.8430   -0.8339   -0.7775 H   0  0  0  0  0  0  0  0  0  0  0  0
  1  3  1  0
  1 23  1  0
  2  4  1  0
  2  5  1  0
  2  3  1  0
  2  9  1  0
  3 10  1  0
  3 11  1  0
  4 12  1  0
  4 13  1  0
  4 14  1  0
  5 15  1  0
  5 16  1  0
  5 17  1  0
  6  7  2  3
  6  8  1  0
  6 18  1  0
  7 19  1  0
  7 20  1  0
  8 21  1  0
  8 22  1  0
M  RAD  1   8   2
M  END
>  <reaction>  (17) 
rxn_415

>  <mol_properties>  (17) 
{"1": {"label": "*0", "atom_type": "Cd"}, "2": {"label": "*1", "atom_type": "Cs"}, "6": {"label": "*2", "atom_type": "H0"}, "12": {"label": "*4", "atom_type": "Cs"}, "13": {"label": "*3", "atom_type": "O2s"}}

>  <type>  (17) 
unop_13

>  <geom_source>  (17) 
AutoTST

$$$$

     RDKit          3D

 23 21  0  0  0  0  0  0  0  0999 V2000
    0.9602    0.1747   -3.1948 C   0  0  0  0  0  0  0  0  0  0  0  0
    0.9602    0.1747   -1.8710 C   0  0  0  0  0  0  0  0  0  0  0  0
    0.9602    1.3969   -1.0105 C   0  0  0  0  0  3  0  0  0  0  0  0
    0.9602   -0.7480   -3.7613 H   0  0  0  0  0  0  0  0  0  0  0  0
    0.9602    1.1003   -3.7608 H   0  0  0  0  0  0  0  0  0  0  0  0
    0.9602   -0.7780   -1.3475 H   0  0  0  0  0  0  0  0  0  0  0  0
   -0.0930    1.4174   -0.2291 H   0  0  0  0  0  0  0  0  0  0  0  0
    0.9602    2.3073   -1.6111 H   0  0  0  0  0  0  0  0  0  0  0  0
    1.8379    1.4140   -0.3593 H   0  0  0  0  0  0  0  0  0  0  0  0
    0.5979   -0.3124    2.2374 C   0  0  0  0  0  0  0  0  0  0  0  0
   -0.2049   -0.8152    1.0433 C   0  0  0  0  0  0  0  0  0  0  0  0
   -0.6950   -2.2432    1.2595 C   0  0  0  0  0  0  0  0  0  0  0  0
   -1.3869    0.1018    0.7411 C   0  0  0  0  0  0  0  0  0  0  0  0
   -1.0166    1.4354    0.4562 O   0  0  0  0  0  0  0  0  0  0  0  0
    1.4824   -0.9305    2.4034 H   0  0  0  0  0  0  0  0  0  0  0  0
   -0.0100   -0.3463    3.1460 H   0  0  0  0  0  0  0  0  0  0  0  0
    0.9196    0.7185    2.0896 H   0  0  0  0  0  0  0  0  0  0  0  0
    0.4475   -0.8094    0.1600 H   0  0  0  0  0  0  0  0  0  0  0  0
   -1.3651   -2.2941    2.1223 H   0  0  0  0  0  0  0  0  0  0  0  0
   -1.2390   -2.6185    0.3900 H   0  0  0  0  0  0  0  0  0  0  0  0
    0.1407   -2.9183    1.4502 H   0  0  0  0  0  0  0  0  0  0  0  0
   -2.0399    0.1564    1.6163 H   0  0  0  0  0  0  0  0  0  0  0  0
   -1.9783   -0.3206   -0.0822 H   0  0  0  0  0  0  0  0  0  0  0  0
  1  2  2  3
  1  4  1  0
  1  5  1  0
  2  3  1  0
  2  6  1  0
  3  8  1  0
  3  9  1  0
  7 14  1  0
 10 11  1  0
 10 15  1  0
 10 16  1  0
 10 17  1  0
 11 12  1  0
 11 13  1  0
 11 18  1  0
 12 19  1  0
 12 20  1  0
 12 21  1  0
 13 14  1  0
 13 22  1  0
 13 23  1  0
M  RAD  1   3   2
M  END
>  <reaction>  (18) 
rxn_415

>  <mol_properties>  (18) 
{"1": {"label": "*0", "atom_type": "Cd"}, "2": {"label": "*1", "atom_type": "Cs"}, "6": {"label": "*2", "atom_type": "H0"}, "12": {"label": "*4", "atom_type": "Cs"}, "13": {"label": "*3", "atom_type": "O2s"}}

>  <type>  (18) 
unop_14

>  <geom_source>  (18) 
gaussian_log

$$$$
