
     RDKit          3D

 18 18  0  0  0  0  0  0  0  0999 V2000
   -2.4852    0.3210   -0.3966 C   0  0  0  0  0  0  0  0  0  0  0  0
   -1.5917   -0.2708    0.6941 C   0  0  0  0  0  0  0  0  0  0  0  0
   -0.1292   -0.1692    0.3493 C   0  0  0  0  0  0  0  0  0  0  0  0
    0.6099    0.9558    0.7015 C   0  0  0  0  0  0  0  0  0  0  0  0
    1.9447    1.0728    0.3458 C   0  0  0  0  0  0  0  0  0  0  0  0
    2.5646    0.0613   -0.3720 C   0  0  0  0  0  0  0  0  0  0  0  0
    1.8399   -1.0657   -0.7287 C   0  0  0  0  0  0  0  0  0  0  0  0
    0.5055   -1.1769   -0.3700 C   0  0  0  0  0  0  0  0  0  0  0  0
   -2.3325   -0.1971   -1.3452 H   0  0  0  0  0  0  0  0  0  0  0  0
   -2.2554    1.3763   -0.5546 H   0  0  0  0  0  0  0  0  0  0  0  0
   -3.5397    0.2376   -0.1280 H   0  0  0  0  0  0  0  0  0  0  0  0
   -1.7801    0.2462    1.6380 H   0  0  0  0  0  0  0  0  0  0  0  0
   -1.8568   -1.3190    0.8516 H   0  0  0  0  0  0  0  0  0  0  0  0
    0.1327    1.7497    1.2656 H   0  0  0  0  0  0  0  0  0  0  0  0
    2.5033    1.9550    0.6330 H   0  0  0  0  0  0  0  0  0  0  0  0
    3.6077    0.1491   -0.6484 H   0  0  0  0  0  0  0  0  0  0  0  0
    2.3163   -1.8632   -1.2854 H   0  0  0  0  0  0  0  0  0  0  0  0
   -0.0540   -2.0629   -0.6500 H   0  0  0  0  0  0  0  0  0  0  0  0
  1  2  1  0
  1  9  1  0
  1 10  1  0
  1 11  1  0
  2  3  1  0
  2 12  1  0
  2 13  1  0
  3  4  2  0
  3  8  1  0
  4  5  1  0
  4 14  1  0
  5  6  2  0
  5 15  1  0
  6  7  1  0
  6 16  1  0
  7  8  2  0
  7 17  1  0
  8 18  1  0
M  END
>  <reaction>  (1) 
rxn_1506

>  <mol_properties>  (1) 
{"1": {"label": "donator", "atom_type": "Cs"}, "11": {"label": "d_hydrogen", "atom_type": "H0"}}

>  <type>  (1) 
r1h

$$$$

     RDKit          3D

  7  6  0  0  0  0  0  0  0  0999 V2000
   -1.3496    0.0255    0.0758 C   0  0  0  0  0  0  0  0  0  0  0  0
   -0.0636   -0.0704   -0.0033 C   0  0  0  0  0  0  0  0  0  0  0  0
    1.2597   -0.1602   -0.0839 C   0  0  0  0  0  0  0  0  0  0  0  0
    2.2616    1.2090   -0.0064 S   0  0  0  0  0  1  0  0  0  0  0  0
   -1.8547   -0.0180    1.0345 H   0  0  0  0  0  0  0  0  0  0  0  0
   -1.9552    0.1601   -0.8138 H   0  0  0  0  0  0  0  0  0  0  0  0
    1.7017   -1.1460   -0.2029 H   0  0  0  0  0  0  0  0  0  0  0  0
  1  2  2  0
  1  5  1  0
  1  6  1  0
  2  3  2  0
  3  4  1  0
  3  7  1  0
M  RAD  1   4   2
M  END
>  <reaction>  (2) 
rxn_1506

>  <mol_properties>  (2) 
{"1": {"label": "acceptor", "atom_type": "Cd"}}

>  <type>  (2) 
r2

$$$$

     RDKit          3D

  8  7  0  0  0  0  0  0  0  0999 V2000
   -1.1617    0.0338    0.5053 C   0  0  0  0  0  0  0  0  0  0  0  0
   -0.1023    0.4503   -0.1863 C   0  0  0  0  0  0  0  0  0  0  0  0
    1.0978   -0.3557   -0.3104 C   0  0  0  0  0  0  0  0  0  0  0  0
    2.4251    0.0667   -1.1256 S   0  0  0  0  0  0  0  0  0  0  0  0
   -1.1653   -0.9292    1.0039 H   0  0  0  0  0  0  0  0  0  0  0  0
   -2.0546    0.6389    0.5948 H   0  0  0  0  0  0  0  0  0  0  0  0
   -0.0991    1.4132   -0.6847 H   0  0  0  0  0  0  0  0  0  0  0  0
    1.0601   -1.3180    0.2032 H   0  0  0  0  0  0  0  0  0  0  0  0
  1  2  2  3
  1  5  1  0
  1  6  1  0
  2  3  1  0
  2  7  1  0
  3  4  2  0
  3  8  1  0
M  END
>  <reaction>  (3) 
rxn_1506

>  <mol_properties>  (3) 
{"1": {"label": "acceptor", "atom_type": "Cd"}, "7": {"label": "a_hydrogen", "atom_type": "H0"}}

>  <type>  (3) 
r2h

$$$$

     RDKit          3D

 25 24  0  0  0  0  0  0  0  0999 V2000
   -1.2159   -1.0009    1.7763 C   0  0  0  0  0  0  0  0  0  0  0  0
   -0.7985   -1.6707    0.7254 C   0  0  0  0  0  0  0  0  0  0  0  0
   -0.8107   -2.9848    0.2075 C   0  0  0  0  0  0  0  0  0  0  0  0
    0.5308   -3.8855   -0.0536 S   0  0  0  0  0  1  0  0  0  0  0  0
   -1.6873   -1.4982    2.6180 H   0  0  0  0  0  0  0  0  0  0  0  0
   -1.0697    0.0718    1.8469 H   0  0  0  0  0  0  0  0  0  0  0  0
   -1.7838   -3.3632   -0.1087 H   0  0  0  0  0  0  0  0  0  0  0  0
    0.0502   -0.2351   -2.1671 C   0  0  0  0  0  0  0  0  0  0  0  0
    0.6737   -0.0926   -0.8064 C   0  0  0  0  0  0  0  0  0  0  0  0
    0.6602    1.1926   -0.0985 C   0  0  0  0  0  0  0  0  0  0  0  0
   -0.2081    2.2321   -0.4434 C   0  0  0  0  0  0  0  0  0  0  0  0
   -0.2272    3.4099    0.2846 C   0  0  0  0  0  0  0  0  0  0  0  0
    0.6144    3.5741    1.3751 C   0  0  0  0  0  0  0  0  0  0  0  0
    1.4823    2.5502    1.7311 C   0  0  0  0  0  0  0  0  0  0  0  0
    1.5045    1.3752    1.0031 C   0  0  0  0  0  0  0  0  0  0  0  0
    0.5894    0.3632   -2.9068 H   0  0  0  0  0  0  0  0  0  0  0  0
   -0.9934    0.0829   -2.1738 H   0  0  0  0  0  0  0  0  0  0  0  0
    0.0842   -1.2768   -2.4872 H   0  0  0  0  0  0  0  0  0  0  0  0
   -0.0788   -0.8821   -0.0646 H   0  0  0  0  0  0  0  0  0  0  0  0
    1.6116   -0.6341   -0.6961 H   0  0  0  0  0  0  0  0  0  0  0  0
   -0.8716    2.1229   -1.2914 H   0  0  0  0  0  0  0  0  0  0  0  0
   -0.9033    4.2056   -0.0017 H   0  0  0  0  0  0  0  0  0  0  0  0
    0.5967    4.4955    1.9427 H   0  0  0  0  0  0  0  0  0  0  0  0
    2.1446    2.6703    2.5791 H   0  0  0  0  0  0  0  0  0  0  0  0
    2.1782    0.5752    1.2873 H   0  0  0  0  0  0  0  0  0  0  0  0
  1  2  2  0
  1  5  1  0
  1  6  1  0
  2  3  2  0
  3  4  1  0
  3  7  1  0
  8  9  1  0
  8 16  1  0
  8 17  1  0
  8 18  1  0
  9 10  1  0
  9 19  1  0
  9 20  1  0
 10 11  2  0
 10 15  1  0
 11 12  1  0
 11 21  1  0
 12 13  2  0
 12 22  1  0
 13 14  1  0
 13 23  1  0
 14 15  2  0
 14 24  1  0
 15 25  1  0
M  RAD  1   4   2
M  END
>  <reaction>  (4) 
rxn_1506

>  <mol_properties>  (4) 
{"1": {"label": "*3", "atom_type": "Cdd"}, "2": {"label": "*4", "atom_type": "Cd"}, "8": {"label": "*1", "atom_type": "Cs"}, "9": {"label": "*0", "atom_type": "Cd"}, "18": {"label": "*2", "atom_type": "H0"}}

>  <type>  (4) 
ts

$$$$

     RDKit          3D

 25 24  0  0  0  0  0  0  0  0999 V2000
   -0.8563   -3.4621    0.9626 C   0  0  0  0  0  0  0  0  0  0  0  0
   -0.9812   -2.3801    0.1960 C   0  0  0  0  0  0  0  0  0  0  0  0
   -1.9293   -1.3262    0.5054 C   0  0  0  0  0  0  0  0  0  0  0  0
   -2.1486    0.0161   -0.3634 S   0  0  0  0  0  0  0  0  0  0  0  0
   -1.4628   -3.5951    1.8516 H   0  0  0  0  0  0  0  0  0  0  0  0
   -0.1475   -4.2454    0.7273 H   0  0  0  0  0  0  0  0  0  0  0  0
   -2.5229   -1.4921    1.4062 H   0  0  0  0  0  0  0  0  0  0  0  0
    1.1146   -1.0850   -2.2013 C   0  0  0  0  0  0  0  0  0  0  0  0
    1.1146   -1.0850   -0.6722 C   0  0  0  0  0  0  0  0  0  0  0  0
    1.1146    0.3093   -0.1028 C   0  0  0  0  0  0  0  0  0  0  0  0
   -0.0799    0.9782    0.1449 C   0  0  0  0  0  3  0  0  0  0  0  0
   -0.0832    2.2784    0.6259 C   0  0  0  0  0  0  0  0  0  0  0  0
    1.1146    2.9338    0.8677 C   0  0  0  0  0  0  0  0  0  0  0  0
    2.3124    2.2784    0.6259 C   0  0  0  0  0  0  0  0  0  0  0  0
    2.3092    0.9782    0.1449 C   0  0  0  0  0  0  0  0  0  0  0  0
    1.9959   -0.5700   -2.5882 H   0  0  0  0  0  0  0  0  0  0  0  0
    0.2334   -0.5700   -2.5882 H   0  0  0  0  0  0  0  0  0  0  0  0
    1.1146   -2.1034   -2.5936 H   0  0  0  0  0  0  0  0  0  0  0  0
    0.0627   -1.7350   -0.2365 H   0  0  0  0  0  0  0  0  0  0  0  0
    1.9913   -1.6267   -0.3091 H   0  0  0  0  0  0  0  0  0  0  0  0
   -1.0208    0.4710   -0.0388 H   0  0  0  0  0  0  0  0  0  0  0  0
   -1.0240    2.7801    0.8158 H   0  0  0  0  0  0  0  0  0  0  0  0
    1.1146    3.9481    1.2460 H   0  0  0  0  0  0  0  0  0  0  0  0
    3.2532    2.7801    0.8158 H   0  0  0  0  0  0  0  0  0  0  0  0
    3.2501    0.4710   -0.0388 H   0  0  0  0  0  0  0  0  0  0  0  0
  1  2  2  3
  1  5  1  0
  1  6  1  0
  2  3  1  0
  2 19  1  0
  3  4  2  0
  3  7  1  0
  8  9  1  0
  8 16  1  0
  8 17  1  0
  8 18  1  0
  9 10  2  3
  9 20  1  0
 10 11  1  0
 10 15  1  0
 11 12  1  0
 11 21  1  0
 12 13  2  0
 12 22  1  0
 13 14  1  0
 13 23  1  0
 14 15  2  0
 14 24  1  0
 15 25  1  0
M  RAD  1  11   2
M  END
>  <reaction>  (5) 
rxn_1506

>  <mol_properties>  (5) 
{"1": {"label": "*3", "atom_type": "Cdd"}, "2": {"label": "*4", "atom_type": "Cd"}, "8": {"label": "*1", "atom_type": "Cs"}, "9": {"label": "*0", "atom_type": "Cd"}, "18": {"label": "*2", "atom_type": "H0"}}

>  <type>  (5) 
unop_1

>  <geom_source>  (5) 
Heuristics

$$$$

     RDKit          3D

 25 24  0  0  0  0  0  0  0  0999 V2000
   -1.7760   -3.1327   -0.9824 C   0  0  0  0  0  0  0  0  0  0  0  0
   -1.2420   -2.1335   -0.2819 C   0  0  0  0  0  0  0  0  0  0  0  0
   -1.5260   -1.9483    1.1289 C   0  0  0  0  0  0  0  0  0  0  0  0
   -0.9262   -0.7700    2.0545 S   0  0  0  0  0  0  0  0  0  0  0  0
   -2.4467   -3.8485   -0.5202 H   0  0  0  0  0  0  0  0  0  0  0  0
   -1.5608   -3.2664   -2.0346 H   0  0  0  0  0  0  0  0  0  0  0  0
   -2.2042   -2.6859    1.5617 H   0  0  0  0  0  0  0  0  0  0  0  0
    0.8539   -0.8384   -2.6792 C   0  0  0  0  0  0  0  0  0  0  0  0
    0.8539   -0.8384   -1.1501 C   0  0  0  0  0  0  0  0  0  0  0  0
    0.8539    0.5559   -0.5807 C   0  0  0  0  0  0  0  0  0  0  0  0
   -0.3406    1.2248   -0.3330 C   0  0  0  0  0  3  0  0  0  0  0  0
   -0.3439    2.5250    0.1480 C   0  0  0  0  0  0  0  0  0  0  0  0
    0.8539    3.1804    0.3898 C   0  0  0  0  0  0  0  0  0  0  0  0
    2.0517    2.5250    0.1480 C   0  0  0  0  0  0  0  0  0  0  0  0
    2.0484    1.2248   -0.3330 C   0  0  0  0  0  0  0  0  0  0  0  0
    1.7352   -0.3234   -3.0661 H   0  0  0  0  0  0  0  0  0  0  0  0
   -0.0274   -0.3234   -3.0661 H   0  0  0  0  0  0  0  0  0  0  0  0
    0.8539   -1.8568   -3.0716 H   0  0  0  0  0  0  0  0  0  0  0  0
   -0.1981   -1.4884   -0.7144 H   0  0  0  0  0  0  0  0  0  0  0  0
    1.7305   -1.3801   -0.7870 H   0  0  0  0  0  0  0  0  0  0  0  0
   -1.2815    0.7176   -0.5167 H   0  0  0  0  0  0  0  0  0  0  0  0
   -1.2847    3.0267    0.3379 H   0  0  0  0  0  0  0  0  0  0  0  0
    0.8539    4.1947    0.7681 H   0  0  0  0  0  0  0  0  0  0  0  0
    2.9925    3.0267    0.3379 H   0  0  0  0  0  0  0  0  0  0  0  0
    2.9893    0.7176   -0.5167 H   0  0  0  0  0  0  0  0  0  0  0  0
  1  2  2  3
  1  5  1  0
  1  6  1  0
  2  3  1  0
  2 19  1  0
  3  4  2  0
  3  7  1  0
  8  9  1  0
  8 16  1  0
  8 17  1  0
  8 18  1  0
  9 10  2  3
  9 20  1  0
 10 11  1  0
 10 15  1  0
 11 12  1  0
 11 21  1  0
 12 13  2  0
 12 22  1  0
 13 14  1  0
 13 23  1  0
 14 15  2  0
 14 24  1  0
 15 25  1  0
M  RAD  1  11   2
M  END
>  <reaction>  (6) 
rxn_1506

>  <mol_properties>  (6) 
{"1": {"label": "*3", "atom_type": "Cdd"}, "2": {"label": "*4", "atom_type": "Cd"}, "8": {"label": "*1", "atom_type": "Cs"}, "9": {"label": "*0", "atom_type": "Cd"}, "18": {"label": "*2", "atom_type": "H0"}}

>  <type>  (6) 
unop_2

>  <geom_source>  (6) 
Heuristics

$$$$

     RDKit          3D

 25 24  0  0  0  0  0  0  0  0999 V2000
   -0.9067   -2.8895    1.6117 C   0  0  0  0  0  0  0  0  0  0  0  0
   -0.9304   -2.2349    0.4519 C   0  0  0  0  0  0  0  0  0  0  0  0
   -2.1103   -1.5238   -0.0034 C   0  0  0  0  0  0  0  0  0  0  0  0
   -2.2298   -0.7060   -1.3897 S   0  0  0  0  0  0  0  0  0  0  0  0
   -1.7743   -2.9147    2.2616 H   0  0  0  0  0  0  0  0  0  0  0  0
   -0.0239   -3.4184    1.9468 H   0  0  0  0  0  0  0  0  0  0  0  0
   -2.9646   -1.5697    0.6744 H   0  0  0  0  0  0  0  0  0  0  0  0
    1.1655   -0.9398   -1.9454 C   0  0  0  0  0  0  0  0  0  0  0  0
    1.1655   -0.9398   -0.4163 C   0  0  0  0  0  0  0  0  0  0  0  0
    1.1655    0.4545    0.1532 C   0  0  0  0  0  0  0  0  0  0  0  0
   -0.0290    1.1234    0.4009 C   0  0  0  0  0  3  0  0  0  0  0  0
   -0.0323    2.4236    0.8818 C   0  0  0  0  0  0  0  0  0  0  0  0
    1.1655    3.0790    1.1236 C   0  0  0  0  0  0  0  0  0  0  0  0
    2.3633    2.4236    0.8818 C   0  0  0  0  0  0  0  0  0  0  0  0
    2.3600    1.1234    0.4009 C   0  0  0  0  0  0  0  0  0  0  0  0
    2.0468   -0.4248   -2.3322 H   0  0  0  0  0  0  0  0  0  0  0  0
    0.2842   -0.4248   -2.3322 H   0  0  0  0  0  0  0  0  0  0  0  0
    1.1655   -1.9582   -2.3377 H   0  0  0  0  0  0  0  0  0  0  0  0
    0.1135   -1.5898    0.0195 H   0  0  0  0  0  0  0  0  0  0  0  0
    2.0421   -1.4815   -0.0531 H   0  0  0  0  0  0  0  0  0  0  0  0
   -0.9699    0.6162    0.2171 H   0  0  0  0  0  0  0  0  0  0  0  0
   -0.9731    2.9253    1.0717 H   0  0  0  0  0  0  0  0  0  0  0  0
    1.1655    4.0933    1.5020 H   0  0  0  0  0  0  0  0  0  0  0  0
    3.3041    2.9253    1.0717 H   0  0  0  0  0  0  0  0  0  0  0  0
    3.3009    0.6162    0.2171 H   0  0  0  0  0  0  0  0  0  0  0  0
  1  2  2  3
  1  5  1  0
  1  6  1  0
  2  3  1  0
  2 19  1  0
  3  4  2  0
  3  7  1  0
  8  9  1  0
  8 16  1  0
  8 17  1  0
  8 18  1  0
  9 10  2  3
  9 20  1  0
 10 11  1  0
 10 15  1  0
 11 12  1  0
 11 21  1  0
 12 13  2  0
 12 22  1  0
 13 14  1  0
 13 23  1  0
 14 15  2  0
 14 24  1  0
 15 25  1  0
M  RAD  1  11   2
M  END
>  <reaction>  (7) 
rxn_1506

>  <mol_properties>  (7) 
{"1": {"label": "*3", "atom_type": "Cdd"}, "2": {"label": "*4", "atom_type": "Cd"}, "8": {"label": "*1", "atom_type": "Cs"}, "9": {"label": "*0", "atom_type": "Cd"}, "18": {"label": "*2", "atom_type": "H0"}}

>  <type>  (7) 
unop_3

>  <geom_source>  (7) 
Heuristics

$$$$

     RDKit          3D

 25 24  0  0  0  0  0  0  0  0999 V2000
   -2.7215   -1.3421   -0.5018 C   0  0  0  0  0  0  0  0  0  0  0  0
   -1.4877   -1.7389   -0.1945 C   0  0  0  0  0  0  0  0  0  0  0  0
   -1.1812   -2.3806    1.0703 C   0  0  0  0  0  0  0  0  0  0  0  0
    0.2797   -2.8928    1.5267 S   0  0  0  0  0  0  0  0  0  0  0  0
   -3.5468   -1.4852    0.1869 H   0  0  0  0  0  0  0  0  0  0  0  0
   -2.9449   -0.8639   -1.4467 H   0  0  0  0  0  0  0  0  0  0  0  0
   -2.0342   -2.5089    1.7391 H   0  0  0  0  0  0  0  0  0  0  0  0
    0.6082   -0.4439   -2.5918 C   0  0  0  0  0  0  0  0  0  0  0  0
    0.6082   -0.4439   -1.0627 C   0  0  0  0  0  0  0  0  0  0  0  0
    0.6082    0.9504   -0.4933 C   0  0  0  0  0  0  0  0  0  0  0  0
   -0.5864    1.6193   -0.2455 C   0  0  0  0  0  3  0  0  0  0  0  0
   -0.5897    2.9196    0.2354 C   0  0  0  0  0  0  0  0  0  0  0  0
    0.6082    3.5749    0.4772 C   0  0  0  0  0  0  0  0  0  0  0  0
    1.8060    2.9196    0.2354 C   0  0  0  0  0  0  0  0  0  0  0  0
    1.8027    1.6193   -0.2455 C   0  0  0  0  0  0  0  0  0  0  0  0
    1.4894    0.0712   -2.9786 H   0  0  0  0  0  0  0  0  0  0  0  0
   -0.2731    0.0712   -2.9786 H   0  0  0  0  0  0  0  0  0  0  0  0
    0.6082   -1.4623   -2.9841 H   0  0  0  0  0  0  0  0  0  0  0  0
   -0.4438   -1.0939   -0.6269 H   0  0  0  0  0  0  0  0  0  0  0  0
    1.4848   -0.9855   -0.6995 H   0  0  0  0  0  0  0  0  0  0  0  0
   -1.5273    1.1122   -0.4293 H   0  0  0  0  0  0  0  0  0  0  0  0
   -1.5304    3.4213    0.4253 H   0  0  0  0  0  0  0  0  0  0  0  0
    0.6082    4.5893    0.8556 H   0  0  0  0  0  0  0  0  0  0  0  0
    2.7467    3.4213    0.4253 H   0  0  0  0  0  0  0  0  0  0  0  0
    2.7436    1.1122   -0.4293 H   0  0  0  0  0  0  0  0  0  0  0  0
  1  2  2  3
  1  5  1  0
  1  6  1  0
  2  3  1  0
  2 19  1  0
  3  4  2  0
  3  7  1  0
  8  9  1  0
  8 16  1  0
  8 17  1  0
  8 18  1  0
  9 10  2  3
  9 20  1  0
 10 11  1  0
 10 15  1  0
 11 12  1  0
 11 21  1  0
 12 13  2  0
 12 22  1  0
 13 14  1  0
 13 23  1  0
 14 15  2  0
 14 24  1  0
 15 25  1  0
M  RAD  1  11   2
M  END
>  <reaction>  (8) 
rxn_1506

>  <mol_properties>  (8) 
{"1": {"label": "*3", "atom_type": "Cdd"}, "2": {"label": "*4", "atom_type": "Cd"}, "8": {"label": "*1", "atom_type": "Cs"}, "9": {"label": "*0", "atom_type": "Cd"}, "18": {"label": "*2", "atom_type": "H0"}}

>  <type>  (8) 
unop_4

>  <geom_source>  (8) 
Heuristics

$$$$

     RDKit          3D

 25 24  0  0  0  0  0  0  0  0999 V2000
   -1.2724   -1.9728    1.9222 C   0  0  0  0  0  0  0  0  0  0  0  0
   -1.0400   -1.8292    0.6186 C   0  0  0  0  0  0  0  0  0  0  0  0
   -1.9316   -2.3802   -0.3847 C   0  0  0  0  0  0  0  0  0  0  0  0
   -1.7303   -2.2557   -1.9812 S   0  0  0  0  0  0  0  0  0  0  0  0
   -2.1424   -2.5104    2.2830 H   0  0  0  0  0  0  0  0  0  0  0  0
   -0.6041   -1.5599    2.6666 H   0  0  0  0  0  0  0  0  0  0  0  0
   -2.7964   -2.9145    0.0128 H   0  0  0  0  0  0  0  0  0  0  0  0
    1.0559   -0.5341   -1.7787 C   0  0  0  0  0  0  0  0  0  0  0  0
    1.0559   -0.5341   -0.2496 C   0  0  0  0  0  0  0  0  0  0  0  0
    1.0559    0.8601    0.3198 C   0  0  0  0  0  0  0  0  0  0  0  0
   -0.1386    1.5291    0.5676 C   0  0  0  0  0  3  0  0  0  0  0  0
   -0.1419    2.8293    1.0485 C   0  0  0  0  0  0  0  0  0  0  0  0
    1.0559    3.4847    1.2903 C   0  0  0  0  0  0  0  0  0  0  0  0
    2.2537    2.8293    1.0485 C   0  0  0  0  0  0  0  0  0  0  0  0
    2.2504    1.5291    0.5676 C   0  0  0  0  0  0  0  0  0  0  0  0
    1.9372   -0.0191   -2.1655 H   0  0  0  0  0  0  0  0  0  0  0  0
    0.1746   -0.0191   -2.1655 H   0  0  0  0  0  0  0  0  0  0  0  0
    1.0559   -1.5526   -2.1710 H   0  0  0  0  0  0  0  0  0  0  0  0
    0.0040   -1.1842    0.1862 H   0  0  0  0  0  0  0  0  0  0  0  0
    1.9326   -1.0758    0.1136 H   0  0  0  0  0  0  0  0  0  0  0  0
   -1.0795    1.0219    0.3838 H   0  0  0  0  0  0  0  0  0  0  0  0
   -1.0827    3.3310    1.2384 H   0  0  0  0  0  0  0  0  0  0  0  0
    1.0559    4.4990    1.6687 H   0  0  0  0  0  0  0  0  0  0  0  0
    3.1945    3.3310    1.2384 H   0  0  0  0  0  0  0  0  0  0  0  0
    3.1913    1.0219    0.3838 H   0  0  0  0  0  0  0  0  0  0  0  0
  1  2  2  3
  1  5  1  0
  1  6  1  0
  2  3  1  0
  2 19  1  0
  3  4  2  0
  3  7  1  0
  8  9  1  0
  8 16  1  0
  8 17  1  0
  8 18  1  0
  9 10  2  3
  9 20  1  0
 10 11  1  0
 10 15  1  0
 11 12  1  0
 11 21  1  0
 12 13  2  0
 12 22  1  0
 13 14  1  0
 13 23  1  0
 14 15  2  0
 14 24  1  0
 15 25  1  0
M  RAD  1  11   2
M  END
>  <reaction>  (9) 
rxn_1506

>  <mol_properties>  (9) 
{"1": {"label": "*3", "atom_type": "Cdd"}, "2": {"label": "*4", "atom_type": "Cd"}, "8": {"label": "*1", "atom_type": "Cs"}, "9": {"label": "*0", "atom_type": "Cd"}, "18": {"label": "*2", "atom_type": "H0"}}

>  <type>  (9) 
unop_5

>  <geom_source>  (9) 
Heuristics

$$$$

     RDKit          3D

 25 24  0  0  0  0  0  0  0  0999 V2000
   -2.6885   -0.9849    0.1984 C   0  0  0  0  0  0  0  0  0  0  0  0
   -1.5356   -1.6110   -0.0313 C   0  0  0  0  0  0  0  0  0  0  0  0
   -1.0173   -2.6202    0.8734 C   0  0  0  0  0  0  0  0  0  0  0  0
    0.3659   -3.4280    0.6763 S   0  0  0  0  0  0  0  0  0  0  0  0
   -3.2854   -1.2084    1.0757 H   0  0  0  0  0  0  0  0  0  0  0  0
   -3.0707   -0.2329   -0.4797 H   0  0  0  0  0  0  0  0  0  0  0  0
   -1.6427   -2.8202    1.7454 H   0  0  0  0  0  0  0  0  0  0  0  0
    0.5603   -0.3160   -2.4286 C   0  0  0  0  0  0  0  0  0  0  0  0
    0.5603   -0.3160   -0.8995 C   0  0  0  0  0  0  0  0  0  0  0  0
    0.5603    1.0783   -0.3300 C   0  0  0  0  0  0  0  0  0  0  0  0
   -0.6342    1.7472   -0.0823 C   0  0  0  0  0  3  0  0  0  0  0  0
   -0.6375    3.0474    0.3986 C   0  0  0  0  0  0  0  0  0  0  0  0
    0.5603    3.7028    0.6404 C   0  0  0  0  0  0  0  0  0  0  0  0
    1.7581    3.0475    0.3986 C   0  0  0  0  0  0  0  0  0  0  0  0
    1.7548    1.7472   -0.0823 C   0  0  0  0  0  0  0  0  0  0  0  0
    1.4416    0.1991   -2.8154 H   0  0  0  0  0  0  0  0  0  0  0  0
   -0.3210    0.1991   -2.8154 H   0  0  0  0  0  0  0  0  0  0  0  0
    0.5603   -1.3344   -2.8209 H   0  0  0  0  0  0  0  0  0  0  0  0
   -0.4916   -0.9660   -0.4637 H   0  0  0  0  0  0  0  0  0  0  0  0
    1.4370   -0.8577   -0.5363 H   0  0  0  0  0  0  0  0  0  0  0  0
   -1.5751    1.2401   -0.2661 H   0  0  0  0  0  0  0  0  0  0  0  0
   -1.5783    3.5491    0.5885 H   0  0  0  0  0  0  0  0  0  0  0  0
    0.5603    4.7171    1.0188 H   0  0  0  0  0  0  0  0  0  0  0  0
    2.6989    3.5491    0.5885 H   0  0  0  0  0  0  0  0  0  0  0  0
    2.6957    1.2401   -0.2661 H   0  0  0  0  0  0  0  0  0  0  0  0
  1  2  2  3
  1  5  1  0
  1  6  1  0
  2  3  1  0
  2 19  1  0
  3  4  2  0
  3  7  1  0
  8  9  1  0
  8 16  1  0
  8 17  1  0
  8 18  1  0
  9 10  2  3
  9 20  1  0
 10 11  1  0
 10 15  1  0
 11 12  1  0
 11 21  1  0
 12 13  2  0
 12 22  1  0
 13 14  1  0
 13 23  1  0
 14 15  2  0
 14 24  1  0
 15 25  1  0
M  RAD  1  11   2
M  END
>  <reaction>  (10) 
rxn_1506

>  <mol_properties>  (10) 
{"1": {"label": "*3", "atom_type": "Cdd"}, "2": {"label": "*4", "atom_type": "Cd"}, "8": {"label": "*1", "atom_type": "Cs"}, "9": {"label": "*0", "atom_type": "Cd"}, "18": {"label": "*2", "atom_type": "H0"}}

>  <type>  (10) 
unop_6

>  <geom_source>  (10) 
Heuristics

$$$$

     RDKit          3D

 25 24  0  0  0  0  0  0  0  0999 V2000
   -2.4182   -0.9344    0.9626 C   0  0  0  0  0  0  0  0  0  0  0  0
   -1.5064   -1.5302    0.1960 C   0  0  0  0  0  0  0  0  0  0  0  0
   -0.9879   -2.8496    0.5054 C   0  0  0  0  0  0  0  0  0  0  0  0
    0.1144   -3.6463   -0.3634 S   0  0  0  0  0  0  0  0  0  0  0  0
   -2.8084   -1.4173    1.8516 H   0  0  0  0  0  0  0  0  0  0  0  0
   -2.8017    0.0499    0.7273 H   0  0  0  0  0  0  0  0  0  0  0  0
   -1.4019   -3.3063    1.4062 H   0  0  0  0  0  0  0  0  0  0  0  0
    0.5895   -0.2352   -2.2013 C   0  0  0  0  0  0  0  0  0  0  0  0
    0.5895   -0.2352   -0.6722 C   0  0  0  0  0  0  0  0  0  0  0  0
    0.5895    1.1591   -0.1028 C   0  0  0  0  0  0  0  0  0  0  0  0
   -0.6050    1.8280    0.1449 C   0  0  0  0  0  3  0  0  0  0  0  0
   -0.6083    3.1283    0.6259 C   0  0  0  0  0  0  0  0  0  0  0  0
    0.5895    3.7836    0.8677 C   0  0  0  0  0  0  0  0  0  0  0  0
    1.7873    3.1283    0.6259 C   0  0  0  0  0  0  0  0  0  0  0  0
    1.7840    1.8280    0.1449 C   0  0  0  0  0  0  0  0  0  0  0  0
    1.4708    0.2799   -2.5882 H   0  0  0  0  0  0  0  0  0  0  0  0
   -0.2918    0.2799   -2.5882 H   0  0  0  0  0  0  0  0  0  0  0  0
    0.5895   -1.2536   -2.5936 H   0  0  0  0  0  0  0  0  0  0  0  0
   -0.4624   -0.8852   -0.2365 H   0  0  0  0  0  0  0  0  0  0  0  0
    1.4662   -0.7769   -0.3091 H   0  0  0  0  0  0  0  0  0  0  0  0
   -1.5459    1.3209   -0.0388 H   0  0  0  0  0  0  0  0  0  0  0  0
   -1.5491    3.6300    0.8158 H   0  0  0  0  0  0  0  0  0  0  0  0
    0.5895    4.7980    1.2460 H   0  0  0  0  0  0  0  0  0  0  0  0
    2.7281    3.6300    0.8158 H   0  0  0  0  0  0  0  0  0  0  0  0
    2.7249    1.3209   -0.0388 H   0  0  0  0  0  0  0  0  0  0  0  0
  1  2  2  3
  1  5  1  0
  1  6  1  0
  2  3  1  0
  2 19  1  0
  3  4  2  0
  3  7  1  0
  8  9  1  0
  8 16  1  0
  8 17  1  0
  8 18  1  0
  9 10  2  3
  9 20  1  0
 10 11  1  0
 10 15  1  0
 11 12  1  0
 11 21  1  0
 12 13  2  0
 12 22  1  0
 13 14  1  0
 13 23  1  0
 14 15  2  0
 14 24  1  0
 15 25  1  0
M  RAD  1  11   2
M  END
>  <reaction>  (11) 
rxn_1506

>  <mol_properties>  (11) 
{"1": {"label": "*3", "atom_type": "Cdd"}, "2": {"label": "*4", "atom_type": "Cd"}, "8": {"label": "*1", "atom_type": "Cs"}, "9": {"label": "*0", "atom_type": "Cd"}, "18": {"label": "*2", "atom_type": "H0"}}

>  <type>  (11) 
unop_7

>  <geom_source>  (11) 
Heuristics

$$$$

     RDKit          3D

 25 24  0  0  0  0  0  0  0  0999 V2000
   -1.0224   -3.6813    0.1984 C   0  0  0  0  0  0  0  0  0  0  0  0
   -1.0666   -2.3700   -0.0313 C   0  0  0  0  0  0  0  0  0  0  0  0
   -1.7372   -1.4551    0.8734 C   0  0  0  0  0  0  0  0  0  0  0  0
   -1.8409    0.1434    0.6763 S   0  0  0  0  0  0  0  0  0  0  0  0
   -1.4893   -4.1151    1.0757 H   0  0  0  0  0  0  0  0  0  0  0  0
   -0.5208   -4.3595   -0.4797 H   0  0  0  0  0  0  0  0  0  0  0  0
   -2.1959   -1.9249    1.7454 H   0  0  0  0  0  0  0  0  0  0  0  0
    1.0293   -1.0750   -2.4286 C   0  0  0  0  0  0  0  0  0  0  0  0
    1.0293   -1.0750   -0.8995 C   0  0  0  0  0  0  0  0  0  0  0  0
    1.0293    0.3193   -0.3300 C   0  0  0  0  0  0  0  0  0  0  0  0
   -0.1652    0.9882   -0.0823 C   0  0  0  0  0  3  0  0  0  0  0  0
   -0.1685    2.2885    0.3986 C   0  0  0  0  0  0  0  0  0  0  0  0
    1.0293    2.9438    0.6404 C   0  0  0  0  0  0  0  0  0  0  0  0
    2.2271    2.2885    0.3986 C   0  0  0  0  0  0  0  0  0  0  0  0
    2.2238    0.9882   -0.0823 C   0  0  0  0  0  0  0  0  0  0  0  0
    1.9106   -0.5599   -2.8154 H   0  0  0  0  0  0  0  0  0  0  0  0
    0.1480   -0.5599   -2.8154 H   0  0  0  0  0  0  0  0  0  0  0  0
    1.0293   -2.0934   -2.8209 H   0  0  0  0  0  0  0  0  0  0  0  0
   -0.0227   -1.7250   -0.4637 H   0  0  0  0  0  0  0  0  0  0  0  0
    1.9059   -1.6167   -0.5363 H   0  0  0  0  0  0  0  0  0  0  0  0
   -1.1061    0.4811   -0.2661 H   0  0  0  0  0  0  0  0  0  0  0  0
   -1.1093    2.7901    0.5885 H   0  0  0  0  0  0  0  0  0  0  0  0
    1.0293    3.9581    1.0188 H   0  0  0  0  0  0  0  0  0  0  0  0
    3.1679    2.7902    0.5885 H   0  0  0  0  0  0  0  0  0  0  0  0
    3.1647    0.4811   -0.2661 H   0  0  0  0  0  0  0  0  0  0  0  0
  1  2  2  3
  1  5  1  0
  1  6  1  0
  2  3  1  0
  2 19  1  0
  3  4  2  0
  3  7  1  0
  8  9  1  0
  8 16  1  0
  8 17  1  0
  8 18  1  0
  9 10  2  3
  9 20  1  0
 10 11  1  0
 10 15  1  0
 11 12  1  0
 11 21  1  0
 12 13  2  0
 12 22  1  0
 13 14  1  0
 13 23  1  0
 14 15  2  0
 14 24  1  0
 15 25  1  0
M  RAD  1  11   2
M  END
>  <reaction>  (12) 
rxn_1506

>  <mol_properties>  (12) 
{"1": {"label": "*3", "atom_type": "Cdd"}, "2": {"label": "*4", "atom_type": "Cd"}, "8": {"label": "*1", "atom_type": "Cs"}, "9": {"label": "*0", "atom_type": "Cd"}, "18": {"label": "*2", "atom_type": "H0"}}

>  <type>  (12) 
unop_8

>  <geom_source>  (12) 
Heuristics

$$$$

     RDKit          3D

 25 24  0  0  0  0  0  0  0  0999 V2000
   -2.5350   -1.9043   -0.9824 C   0  0  0  0  0  0  0  0  0  0  0  0
   -1.4025   -1.8738   -0.2819 C   0  0  0  0  0  0  0  0  0  0  0  0
   -1.3639   -2.2106    1.1289 C   0  0  0  0  0  0  0  0  0  0  0  0
   -0.0418   -2.2013    2.0545 S   0  0  0  0  0  0  0  0  0  0  0  0
   -3.4753   -2.1839   -0.5202 H   0  0  0  0  0  0  0  0  0  0  0  0
   -2.5583   -1.6521   -2.0346 H   0  0  0  0  0  0  0  0  0  0  0  0
   -2.3270   -2.4872    1.5617 H   0  0  0  0  0  0  0  0  0  0  0  0
    0.6934   -0.5787   -2.6792 C   0  0  0  0  0  0  0  0  0  0  0  0
    0.6934   -0.5787   -1.1501 C   0  0  0  0  0  0  0  0  0  0  0  0
    0.6934    0.8156   -0.5807 C   0  0  0  0  0  0  0  0  0  0  0  0
   -0.5011    1.4845   -0.3330 C   0  0  0  0  0  3  0  0  0  0  0  0
   -0.5044    2.7847    0.1480 C   0  0  0  0  0  0  0  0  0  0  0  0
    0.6934    3.4401    0.3898 C   0  0  0  0  0  0  0  0  0  0  0  0
    1.8912    2.7847    0.1480 C   0  0  0  0  0  0  0  0  0  0  0  0
    1.8879    1.4845   -0.3330 C   0  0  0  0  0  0  0  0  0  0  0  0
    1.5747   -0.0637   -3.0661 H   0  0  0  0  0  0  0  0  0  0  0  0
   -0.1879   -0.0637   -3.0661 H   0  0  0  0  0  0  0  0  0  0  0  0
    0.6934   -1.5971   -3.0716 H   0  0  0  0  0  0  0  0  0  0  0  0
   -0.3586   -1.2287   -0.7144 H   0  0  0  0  0  0  0  0  0  0  0  0
    1.5700   -1.1204   -0.7870 H   0  0  0  0  0  0  0  0  0  0  0  0
   -1.4420    0.9773   -0.5167 H   0  0  0  0  0  0  0  0  0  0  0  0
   -1.4452    3.2864    0.3379 H   0  0  0  0  0  0  0  0  0  0  0  0
    0.6934    4.4544    0.7681 H   0  0  0  0  0  0  0  0  0  0  0  0
    2.8320    3.2864    0.3379 H   0  0  0  0  0  0  0  0  0  0  0  0
    2.8288    0.9773   -0.5167 H   0  0  0  0  0  0  0  0  0  0  0  0
  1  2  2  3
  1  5  1  0
  1  6  1  0
  2  3  1  0
  2 19  1  0
  3  4  2  0
  3  7  1  0
  8  9  1  0
  8 16  1  0
  8 17  1  0
  8 18  1  0
  9 10  2  3
  9 20  1  0
 10 11  1  0
 10 15  1  0
 11 12  1  0
 11 21  1  0
 12 13  2  0
 12 22  1  0
 13 14  1  0
 13 23  1  0
 14 15  2  0
 14 24  1  0
 15 25  1  0
M  RAD  1  11   2
M  END
>  <reaction>  (13) 
rxn_1506

>  <mol_properties>  (13) 
{"1": {"label": "*3", "atom_type": "Cdd"}, "2": {"label": "*4", "atom_type": "Cd"}, "8": {"label": "*1", "atom_type": "Cs"}, "9": {"label": "*0", "atom_type": "Cd"}, "18": {"label": "*2", "atom_type": "H0"}}

>  <type>  (13) 
unop_9

>  <geom_source>  (13) 
Heuristics

$$$$

     RDKit          3D

 25 24  0  0  0  0  0  0  0  0999 V2000
   -1.3566   -3.5510   -0.5018 C   0  0  0  0  0  0  0  0  0  0  0  0
   -1.1596   -2.2701   -0.1945 C   0  0  0  0  0  0  0  0  0  0  0  0
   -1.5963   -1.7088    1.0703 C   0  0  0  0  0  0  0  0  0  0  0  0
   -1.4008   -0.1732    1.5267 S   0  0  0  0  0  0  0  0  0  0  0  0
   -1.8538   -4.2250    0.1869 H   0  0  0  0  0  0  0  0  0  0  0  0
   -1.0288   -3.9647   -1.4467 H   0  0  0  0  0  0  0  0  0  0  0  0
   -2.0926   -2.4143    1.7391 H   0  0  0  0  0  0  0  0  0  0  0  0
    0.9363   -0.9750   -2.5918 C   0  0  0  0  0  0  0  0  0  0  0  0
    0.9363   -0.9750   -1.0627 C   0  0  0  0  0  0  0  0  0  0  0  0
    0.9363    0.4193   -0.4933 C   0  0  0  0  0  0  0  0  0  0  0  0
   -0.2582    1.0882   -0.2455 C   0  0  0  0  0  3  0  0  0  0  0  0
   -0.2615    2.3884    0.2354 C   0  0  0  0  0  0  0  0  0  0  0  0
    0.9363    3.0438    0.4772 C   0  0  0  0  0  0  0  0  0  0  0  0
    2.1341    2.3884    0.2354 C   0  0  0  0  0  0  0  0  0  0  0  0
    2.1309    1.0882   -0.2455 C   0  0  0  0  0  0  0  0  0  0  0  0
    1.8176   -0.4599   -2.9786 H   0  0  0  0  0  0  0  0  0  0  0  0
    0.0551   -0.4599   -2.9786 H   0  0  0  0  0  0  0  0  0  0  0  0
    0.9363   -1.9934   -2.9841 H   0  0  0  0  0  0  0  0  0  0  0  0
   -0.1156   -1.6250   -0.6269 H   0  0  0  0  0  0  0  0  0  0  0  0
    1.8130   -1.5167   -0.6995 H   0  0  0  0  0  0  0  0  0  0  0  0
   -1.1991    0.5811   -0.4293 H   0  0  0  0  0  0  0  0  0  0  0  0
   -1.2023    2.8901    0.4253 H   0  0  0  0  0  0  0  0  0  0  0  0
    0.9363    4.0581    0.8556 H   0  0  0  0  0  0  0  0  0  0  0  0
    3.0749    2.8901    0.4253 H   0  0  0  0  0  0  0  0  0  0  0  0
    3.0718    0.5811   -0.4293 H   0  0  0  0  0  0  0  0  0  0  0  0
  1  2  2  3
  1  5  1  0
  1  6  1  0
  2  3  1  0
  2 19  1  0
  3  4  2  0
  3  7  1  0
  8  9  1  0
  8 16  1  0
  8 17  1  0
  8 18  1  0
  9 10  2  3
  9 20  1  0
 10 11  1  0
 10 15  1  0
 11 12  1  0
 11 21  1  0
 12 13  2  0
 12 22  1  0
 13 14  1  0
 13 23  1  0
 14 15  2  0
 14 24  1  0
 15 25  1  0
M  RAD  1  11   2
M  END
>  <reaction>  (14) 
rxn_1506

>  <mol_properties>  (14) 
{"1": {"label": "*3", "atom_type": "Cdd"}, "2": {"label": "*4", "atom_type": "Cd"}, "8": {"label": "*1", "atom_type": "Cs"}, "9": {"label": "*0", "atom_type": "Cd"}, "18": {"label": "*2", "atom_type": "H0"}}

>  <type>  (14) 
unop_10

>  <geom_source>  (14) 
Heuristics

$$$$

     RDKit          3D

 25 24  0  0  0  0  0  0  0  0999 V2000
   -1.9286   -1.2357    1.6117 C   0  0  0  0  0  0  0  0  0  0  0  0
   -1.3537   -1.5497    0.4519 C   0  0  0  0  0  0  0  0  0  0  0  0
   -1.2457   -2.9231   -0.0034 C   0  0  0  0  0  0  0  0  0  0  0  0
   -0.5677   -3.3958   -1.3897 S   0  0  0  0  0  0  0  0  0  0  0  0
   -2.3393   -2.0004    2.2616 H   0  0  0  0  0  0  0  0  0  0  0  0
   -2.0067   -0.2095    1.9468 H   0  0  0  0  0  0  0  0  0  0  0  0
   -1.6689   -3.6666    0.6744 H   0  0  0  0  0  0  0  0  0  0  0  0
    0.7421   -0.2546   -1.9454 C   0  0  0  0  0  0  0  0  0  0  0  0
    0.7421   -0.2546   -0.4163 C   0  0  0  0  0  0  0  0  0  0  0  0
    0.7421    1.1396    0.1532 C   0  0  0  0  0  0  0  0  0  0  0  0
   -0.4524    1.8086    0.4009 C   0  0  0  0  0  3  0  0  0  0  0  0
   -0.4557    3.1088    0.8818 C   0  0  0  0  0  0  0  0  0  0  0  0
    0.7421    3.7642    1.1236 C   0  0  0  0  0  0  0  0  0  0  0  0
    1.9399    3.1088    0.8818 C   0  0  0  0  0  0  0  0  0  0  0  0
    1.9367    1.8086    0.4009 C   0  0  0  0  0  0  0  0  0  0  0  0
    1.6234    0.2604   -2.3322 H   0  0  0  0  0  0  0  0  0  0  0  0
   -0.1391    0.2604   -2.3322 H   0  0  0  0  0  0  0  0  0  0  0  0
    0.7421   -1.2731   -2.3377 H   0  0  0  0  0  0  0  0  0  0  0  0
   -0.3098   -0.9047    0.0195 H   0  0  0  0  0  0  0  0  0  0  0  0
    1.6188   -0.7963   -0.0531 H   0  0  0  0  0  0  0  0  0  0  0  0
   -1.3933    1.3014    0.2171 H   0  0  0  0  0  0  0  0  0  0  0  0
   -1.3965    3.6105    1.0717 H   0  0  0  0  0  0  0  0  0  0  0  0
    0.7421    4.7785    1.5020 H   0  0  0  0  0  0  0  0  0  0  0  0
    2.8807    3.6105    1.0717 H   0  0  0  0  0  0  0  0  0  0  0  0
    2.8776    1.3014    0.2171 H   0  0  0  0  0  0  0  0  0  0  0  0
  1  2  2  3
  1  5  1  0
  1  6  1  0
  2  3  1  0
  2 19  1  0
  3  4  2  0
  3  7  1  0
  8  9  1  0
  8 16  1  0
  8 17  1  0
  8 18  1  0
  9 10  2  3
  9 20  1  0
 10 11  1  0
 10 15  1  0
 11 12  1  0
 11 21  1  0
 12 13  2  0
 12 22  1  0
 13 14  1  0
 13 23  1  0
 14 15  2  0
 14 24  1  0
 15 25  1  0
M  RAD  1  11   2
M  END
>  <reaction>  (15) 
rxn_1506

>  <mol_properties>  (15) 
{"1": {"label": "*3", "atom_type": "Cdd"}, "2": {"label": "*4", "atom_type": "Cd"}, "8": {"label": "*1", "atom_type": "Cs"}, "9": {"label": "*0", "atom_type": "Cd"}, "18": {"label": "*2", "atom_type": "H0"}}

>  <type>  (15) 
unop_11

>  <geom_source>  (15) 
Heuristics

$$$$

     RDKit          3D

 25 24  0  0  0  0  0  0  0  0999 V2000
   -2.1938   -2.5422   -1.1513 C   0  0  0  0  0  0  0  0  0  0  0  0
   -1.3174   -2.0007   -0.3070 C   0  0  0  0  0  0  0  0  0  0  0  0
   -1.4770   -2.0992    1.1318 C   0  0  0  0  0  0  0  0  0  0  0  0
   -0.4687   -1.4762    2.2272 S   0  0  0  0  0  0  0  0  0  0  0  0
   -3.0639   -3.0798   -0.7913 H   0  0  0  0  0  0  0  0  0  0  0  0
   -2.0701   -2.4658   -2.2238 H   0  0  0  0  0  0  0  0  0  0  0  0
   -2.3627   -2.6465    1.4594 H   0  0  0  0  0  0  0  0  0  0  0  0
    0.7784   -0.7056   -2.7043 C   0  0  0  0  0  0  0  0  0  0  0  0
    0.7784   -0.7056   -1.1752 C   0  0  0  0  0  0  0  0  0  0  0  0
    0.7784    0.6887   -0.6058 C   0  0  0  0  0  0  0  0  0  0  0  0
   -0.4161    1.3576   -0.3581 C   0  0  0  0  0  3  0  0  0  0  0  0
   -0.4194    2.6578    0.1229 C   0  0  0  0  0  0  0  0  0  0  0  0
    0.7784    3.3132    0.3647 C   0  0  0  0  0  0  0  0  0  0  0  0
    1.9762    2.6578    0.1229 C   0  0  0  0  0  0  0  0  0  0  0  0
    1.9730    1.3576   -0.3581 C   0  0  0  0  0  0  0  0  0  0  0  0
    1.6597   -0.1905   -3.0911 H   0  0  0  0  0  0  0  0  0  0  0  0
   -0.1028   -0.1905   -3.0911 H   0  0  0  0  0  0  0  0  0  0  0  0
    0.7784   -1.7240   -3.0966 H   0  0  0  0  0  0  0  0  0  0  0  0
   -0.2735   -1.3556   -0.7394 H   0  0  0  0  0  0  0  0  0  0  0  0
    1.6551   -1.2473   -0.8121 H   0  0  0  0  0  0  0  0  0  0  0  0
   -1.3570    0.8505   -0.5418 H   0  0  0  0  0  0  0  0  0  0  0  0
   -1.3601    3.1595    0.3128 H   0  0  0  0  0  0  0  0  0  0  0  0
    0.7784    4.3275    0.7430 H   0  0  0  0  0  0  0  0  0  0  0  0
    2.9170    3.1595    0.3128 H   0  0  0  0  0  0  0  0  0  0  0  0
    2.9139    0.8505   -0.5418 H   0  0  0  0  0  0  0  0  0  0  0  0
  1  2  2  3
  1  5  1  0
  1  6  1  0
  2  3  1  0
  2 19  1  0
  3  4  2  0
  3  7  1  0
  8  9  1  0
  8 16  1  0
  8 17  1  0
  8 18  1  0
  9 10  2  3
  9 20  1  0
 10 11  1  0
 10 15  1  0
 11 12  1  0
 11 21  1  0
 12 13  2  0
 12 22  1  0
 13 14  1  0
 13 23  1  0
 14 15  2  0
 14 24  1  0
 15 25  1  0
M  RAD  1  11   2
M  END
>  <reaction>  (16) 
rxn_1506

>  <mol_properties>  (16) 
{"1": {"label": "*3", "atom_type": "Cdd"}, "2": {"label": "*4", "atom_type": "Cd"}, "8": {"label": "*1", "atom_type": "Cs"}, "9": {"label": "*0", "atom_type": "Cd"}, "18": {"label": "*2", "atom_type": "H0"}}

>  <type>  (16) 
unop_12

>  <geom_source>  (16) 
Heuristics

$$$$

     RDKit          3D

 25 24  0  0  0  0  0  0  0  0999 V2000
   -3.7534    2.4020    1.3797 S   0  0  0  0  0  0  0  0  0  0  0  0
   -0.5789   -1.0022   -2.0006 C   0  0  0  0  0  0  0  0  0  0  0  0
    0.9234   -0.3906   -0.1035 C   0  0  0  0  0  0  0  0  0  0  0  0
   -0.3701   -1.0405   -0.4924 C   0  0  0  0  0  0  0  0  0  0  0  0
    0.9262    0.9408    0.3357 C   0  0  0  0  0  3  0  0  0  0  0  0
    2.1364   -1.0908   -0.2042 C   0  0  0  0  0  0  0  0  0  0  0  0
    2.1299    1.5631    0.6825 C   0  0  0  0  0  0  0  0  0  0  0  0
    3.3349    0.8603    0.5873 C   0  0  0  0  0  0  0  0  0  0  0  0
    3.3381   -0.4655    0.1433 C   0  0  0  0  0  0  0  0  0  0  0  0
   -2.4531    0.1573    0.4906 C   0  0  0  0  0  0  0  0  0  0  0  0
   -3.0257   -0.6420    1.3902 C   0  0  0  0  0  0  0  0  0  0  0  0
   -2.7175    1.6048    0.3898 C   0  0  0  0  0  0  0  0  0  0  0  0
   -0.5726    0.0485   -2.3603 H   0  0  0  0  0  0  0  0  0  0  0  0
    0.2208   -1.5752   -2.5168 H   0  0  0  0  0  0  0  0  0  0  0  0
   -1.5614   -1.4558   -2.2463 H   0  0  0  0  0  0  0  0  0  0  0  0
   -0.4126   -2.0872   -0.1206 H   0  0  0  0  0  0  0  0  0  0  0  0
   -1.6609   -0.3325   -0.3005 H   0  0  0  0  0  0  0  0  0  0  0  0
   -0.0016    1.4948    0.4086 H   0  0  0  0  0  0  0  0  0  0  0  0
    2.1289    2.5904    1.0232 H   0  0  0  0  0  0  0  0  0  0  0  0
    2.1497   -2.1166   -0.5515 H   0  0  0  0  0  0  0  0  0  0  0  0
    4.2656    1.3434    0.8553 H   0  0  0  0  0  0  0  0  0  0  0  0
    4.2717   -1.0077    0.0669 H   0  0  0  0  0  0  0  0  0  0  0  0
   -2.7802   -1.6955    1.4012 H   0  0  0  0  0  0  0  0  0  0  0  0
   -3.7352   -0.2722    2.1182 H   0  0  0  0  0  0  0  0  0  0  0  0
   -2.2022    2.1690   -0.3757 H   0  0  0  0  0  0  0  0  0  0  0  0
  1 12  2  0
  2  4  1  0
  2 13  1  0
  2 14  1  0
  2 15  1  0
  3  4  2  3
  3  5  1  0
  3  6  1  0
  4 16  1  0
  5  7  1  0
  5 18  1  0
  6  9  2  0
  6 20  1  0
  7  8  2  0
  7 19  1  0
  8  9  1  0
  8 21  1  0
  9 22  1  0
 10 11  2  3
 10 12  1  0
 10 17  1  0
 11 23  1  0
 11 24  1  0
 12 25  1  0
M  RAD  1   5   2
M  END
>  <reaction>  (17) 
rxn_1506

>  <mol_properties>  (17) 
{"1": {"label": "*3", "atom_type": "Cdd"}, "2": {"label": "*4", "atom_type": "Cd"}, "8": {"label": "*1", "atom_type": "Cs"}, "9": {"label": "*0", "atom_type": "Cd"}, "18": {"label": "*2", "atom_type": "H0"}}

>  <type>  (17) 
unop_13

>  <geom_source>  (17) 
AutoTST

$$$$
