
     RDKit          3D

  8  7  0  0  0  0  0  0  0  0999 V2000
    0.7610    0.0250    0.0051 C   0  0  0  0  0  0  0  0  0  0  0  0
   -0.7610   -0.0250   -0.0051 C   0  0  0  0  0  0  0  0  0  0  0  0
    1.1904   -0.9237   -0.3217 H   0  0  0  0  0  0  0  0  0  0  0  0
    1.1359    0.8041   -0.6609 H   0  0  0  0  0  0  0  0  0  0  0  0
    1.1435    0.2336    1.0058 H   0  0  0  0  0  0  0  0  0  0  0  0
   -1.1435   -0.2336   -1.0058 H   0  0  0  0  0  0  0  0  0  0  0  0
   -1.1904    0.9237    0.3216 H   0  0  0  0  0  0  0  0  0  0  0  0
   -1.1359   -0.8041    0.6609 H   0  0  0  0  0  0  0  0  0  0  0  0
  1  2  1  0
  1  3  1  0
  1  4  1  0
  1  5  1  0
  2  6  1  0
  2  7  1  0
  2  8  1  0
M  END
>  <reaction>  (1) 
rxn_898

>  <mol_properties>  (1) 
{"1": {"label": "donator", "atom_type": "Cs"}, "5": {"label": "d_hydrogen", "atom_type": "H0"}}

>  <type>  (1) 
r1h

$$$$

     RDKit          3D

  7  6  0  0  0  0  0  0  0  0999 V2000
    1.8092   -0.3013   -0.2242 S   0  0  0  0  0  0  0  0  0  0  0  0
    0.1552   -0.6967   -0.1137 C   0  0  0  0  0  0  0  0  0  0  0  0
   -0.8921    0.1788    0.1148 C   0  0  0  0  0  0  0  0  0  0  0  0
   -0.7548    1.8245    0.3328 S   0  0  0  0  0  1  0  0  0  0  0  0
    1.6168    1.0210   -0.0187 H   0  0  0  0  0  0  0  0  0  0  0  0
   -0.0550   -1.7522   -0.2412 H   0  0  0  0  0  0  0  0  0  0  0  0
   -1.8791   -0.2740    0.1502 H   0  0  0  0  0  0  0  0  0  0  0  0
  1  2  1  0
  1  5  1  0
  2  3  2  3
  2  6  1  0
  3  4  1  0
  3  7  1  0
M  RAD  1   4   2
M  END
>  <reaction>  (2) 
rxn_898

>  <mol_properties>  (2) 
{"1": {"label": "acceptor", "atom_type": "Cs"}}

>  <type>  (2) 
r2

$$$$

     RDKit          3D

  8  7  0  0  0  0  0  0  0  0999 V2000
    1.7301   -0.0562    0.5281 S   0  0  0  0  0  0  0  0  0  0  0  0
    0.1858    0.6127   -0.1669 C   0  0  0  0  0  0  0  0  0  0  0  0
   -0.9621   -0.2567    0.2171 C   0  0  0  0  0  0  0  0  0  0  0  0
   -1.8663   -1.1002   -0.8086 S   0  0  0  0  0  0  0  0  0  0  0  0
    1.7025   -1.2092   -0.1540 H   0  0  0  0  0  0  0  0  0  0  0  0
    0.2619    0.7246   -1.2458 H   0  0  0  0  0  0  0  0  0  0  0  0
    0.0809    1.5982    0.2929 H   0  0  0  0  0  0  0  0  0  0  0  0
   -1.1456   -0.3126    1.2907 H   0  0  0  0  0  0  0  0  0  0  0  0
  1  2  1  0
  1  5  1  0
  2  3  1  0
  2  6  1  0
  2  7  1  0
  3  4  2  0
  3  8  1  0
M  END
>  <reaction>  (3) 
rxn_898

>  <mol_properties>  (3) 
{"1": {"label": "acceptor", "atom_type": "Cs"}, "7": {"label": "a_hydrogen", "atom_type": "H0"}}

>  <type>  (3) 
r2h

$$$$

     RDKit          3D

 15 13  0  0  0  0  0  0  0  0999 V2000
   -1.2879    1.5618   -0.9482 S   0  0  0  0  0  0  0  0  0  0  0  0
   -0.7371    0.5195    0.3918 C   0  0  0  0  0  0  0  0  0  0  0  0
    0.6775    0.4756    0.7474 C   0  0  0  0  0  0  0  0  0  0  0  0
    1.9448    0.9521   -0.1419 S   0  0  0  0  0  0  0  0  0  0  0  0
   -0.0688    1.6787   -1.5060 H   0  0  0  0  0  0  0  0  0  0  0  0
   -1.3788    0.6542    1.2619 H   0  0  0  0  0  0  0  0  0  0  0  0
    0.8597   -0.0061    1.7087 H   0  0  0  0  0  0  0  0  0  0  0  0
   -0.3437   -2.0839   -1.6626 C   0  0  0  0  0  0  0  0  0  0  0  0
   -1.3174   -2.0099   -0.5354 C   0  0  0  0  0  3  0  0  0  0  0  0
   -0.4648   -1.2374   -2.3411 H   0  0  0  0  0  0  0  0  0  0  0  0
    0.6867   -2.0938   -1.3041 H   0  0  0  0  0  0  0  0  0  0  0  0
   -0.4950   -2.9973   -2.2500 H   0  0  0  0  0  0  0  0  0  0  0  0
   -0.9836   -0.6446    0.0758 H   0  0  0  0  0  0  0  0  0  0  0  0
   -1.1586   -2.6639    0.3171 H   0  0  0  0  0  0  0  0  0  0  0  0
   -2.3599   -1.8356   -0.7836 H   0  0  0  0  0  0  0  0  0  0  0  0
  1  2  1  0
  1  5  1  0
  2  3  1  0
  2  6  1  0
  2 13  1  0
  3  4  2  0
  3  7  1  0
  8  9  1  0
  8 10  1  0
  8 11  1  0
  8 12  1  0
  9 14  1  0
  9 15  1  0
M  RAD  1   9   2
M  END
>  <reaction>  (4) 
rxn_898

>  <mol_properties>  (4) 
{"1": {"label": "*1", "atom_type": "Cs"}, "2": {"label": "*0", "atom_type": "CS"}, "7": {"label": "*4", "atom_type": "Cs"}, "8": {"label": "*3", "atom_type": "Cs"}, "12": {"label": "*2", "atom_type": "H0"}}

>  <type>  (4) 
ts

$$$$

     RDKit          3D

 15 13  0  0  0  0  0  0  0  0999 V2000
   -1.3412    0.1797    1.7000 S   0  0  0  0  0  0  0  0  0  0  0  0
    0.1317   -0.1179    0.6716 C   0  0  0  0  0  0  0  0  0  0  0  0
    0.7631    1.1802    0.3013 C   0  0  0  0  0  0  0  0  0  0  0  0
    0.8846    1.7557   -1.1938 S   0  0  0  0  0  0  0  0  0  0  0  0
   -2.0329    0.8441    0.7643 H   0  0  0  0  0  0  0  0  0  0  0  0
    0.8038   -0.6931    1.3129 H   0  0  0  0  0  0  0  0  0  0  0  0
    1.1320    1.7597    1.1484 H   0  0  0  0  0  0  0  0  0  0  0  0
    0.1317   -2.5545   -1.7994 C   0  0  0  0  0  0  0  0  0  0  0  0
    0.1317   -2.5545   -0.2767 C   0  0  0  0  0  3  0  0  0  0  0  0
   -0.7491   -2.0459   -2.1953 H   0  0  0  0  0  0  0  0  0  0  0  0
    1.0126   -2.0459   -2.1953 H   0  0  0  0  0  0  0  0  0  0  0  0
    0.1317   -3.5716   -2.1953 H   0  0  0  0  0  0  0  0  0  0  0  0
    0.1317   -1.3339    0.1984 H   0  0  0  0  0  0  0  0  0  0  0  0
    1.0126   -3.0630    0.1192 H   0  0  0  0  0  0  0  0  0  0  0  0
   -0.7491   -3.0630    0.1192 H   0  0  0  0  0  0  0  0  0  0  0  0
  1  2  1  0
  1  5  1  0
  2  3  1  0
  2  6  1  0
  2 13  1  0
  3  4  2  0
  3  7  1  0
  8  9  1  0
  8 10  1  0
  8 11  1  0
  8 12  1  0
  9 14  1  0
  9 15  1  0
M  RAD  1   9   2
M  END
>  <reaction>  (5) 
rxn_898

>  <mol_properties>  (5) 
{"1": {"label": "*1", "atom_type": "Cs"}, "2": {"label": "*0", "atom_type": "CS"}, "7": {"label": "*4", "atom_type": "Cs"}, "8": {"label": "*3", "atom_type": "Cs"}, "12": {"label": "*2", "atom_type": "H0"}}

>  <type>  (5) 
unop_1

>  <geom_source>  (5) 
Heuristics

$$$$

     RDKit          3D

 15 13  0  0  0  0  0  0  0  0999 V2000
   -1.4618    1.2893   -0.5758 S   0  0  0  0  0  0  0  0  0  0  0  0
   -0.6114    0.1491    0.5610 C   0  0  0  0  0  0  0  0  0  0  0  0
    0.5679    0.8259    1.1708 C   0  0  0  0  0  0  0  0  0  0  0  0
    2.0991    0.3923    0.9498 S   0  0  0  0  0  0  0  0  0  0  0  0
   -0.4397    1.4210   -1.4322 H   0  0  0  0  0  0  0  0  0  0  0  0
   -1.3537   -0.0777    1.3300 H   0  0  0  0  0  0  0  0  0  0  0  0
    0.3222    1.6932    1.7847 H   0  0  0  0  0  0  0  0  0  0  0  0
   -0.6114   -2.2875   -1.9101 C   0  0  0  0  0  0  0  0  0  0  0  0
   -0.6114   -2.2875   -0.3873 C   0  0  0  0  0  3  0  0  0  0  0  0
   -1.4922   -1.7789   -2.3059 H   0  0  0  0  0  0  0  0  0  0  0  0
    0.2695   -1.7789   -2.3059 H   0  0  0  0  0  0  0  0  0  0  0  0
   -0.6114   -3.3046   -2.3059 H   0  0  0  0  0  0  0  0  0  0  0  0
   -0.6114   -1.0669    0.0877 H   0  0  0  0  0  0  0  0  0  0  0  0
    0.2695   -2.7960    0.0086 H   0  0  0  0  0  0  0  0  0  0  0  0
   -1.4922   -2.7960    0.0086 H   0  0  0  0  0  0  0  0  0  0  0  0
  1  2  1  0
  1  5  1  0
  2  3  1  0
  2  6  1  0
  2 13  1  0
  3  4  2  0
  3  7  1  0
  8  9  1  0
  8 10  1  0
  8 11  1  0
  8 12  1  0
  9 14  1  0
  9 15  1  0
M  RAD  1   9   2
M  END
>  <reaction>  (6) 
rxn_898

>  <mol_properties>  (6) 
{"1": {"label": "*1", "atom_type": "Cs"}, "2": {"label": "*0", "atom_type": "CS"}, "7": {"label": "*4", "atom_type": "Cs"}, "8": {"label": "*3", "atom_type": "Cs"}, "12": {"label": "*2", "atom_type": "H0"}}

>  <type>  (6) 
unop_2

>  <geom_source>  (6) 
Heuristics

$$$$

     RDKit          3D

 15 13  0  0  0  0  0  0  0  0999 V2000
   -0.3817    0.0857    2.2108 S   0  0  0  0  0  0  0  0  0  0  0  0
    0.4687    0.0139    0.6023 C   0  0  0  0  0  0  0  0  0  0  0  0
    0.3741    1.3347   -0.0814 C   0  0  0  0  0  0  0  0  0  0  0  0
   -0.3993    1.6069   -1.4631 S   0  0  0  0  0  0  0  0  0  0  0  0
   -1.6024    0.3252    1.7129 H   0  0  0  0  0  0  0  0  0  0  0  0
    1.5095   -0.2069    0.8506 H   0  0  0  0  0  0  0  0  0  0  0  0
    0.8607    2.1532    0.4503 H   0  0  0  0  0  0  0  0  0  0  0  0
    0.4687   -2.4227   -1.8688 C   0  0  0  0  0  0  0  0  0  0  0  0
    0.4687   -2.4227   -0.3460 C   0  0  0  0  0  3  0  0  0  0  0  0
   -0.4122   -1.9141   -2.2646 H   0  0  0  0  0  0  0  0  0  0  0  0
    1.3495   -1.9141   -2.2646 H   0  0  0  0  0  0  0  0  0  0  0  0
    0.4687   -3.4398   -2.2646 H   0  0  0  0  0  0  0  0  0  0  0  0
    0.4687   -1.2021    0.1290 H   0  0  0  0  0  0  0  0  0  0  0  0
    1.3495   -2.9312    0.0499 H   0  0  0  0  0  0  0  0  0  0  0  0
   -0.4122   -2.9312    0.0499 H   0  0  0  0  0  0  0  0  0  0  0  0
  1  2  1  0
  1  5  1  0
  2  3  1  0
  2  6  1  0
  2 13  1  0
  3  4  2  0
  3  7  1  0
  8  9  1  0
  8 10  1  0
  8 11  1  0
  8 12  1  0
  9 14  1  0
  9 15  1  0
M  RAD  1   9   2
M  END
>  <reaction>  (7) 
rxn_898

>  <mol_properties>  (7) 
{"1": {"label": "*1", "atom_type": "Cs"}, "2": {"label": "*0", "atom_type": "CS"}, "7": {"label": "*4", "atom_type": "Cs"}, "8": {"label": "*3", "atom_type": "Cs"}, "12": {"label": "*2", "atom_type": "H0"}}

>  <type>  (7) 
unop_3

>  <geom_source>  (7) 
Heuristics

$$$$

     RDKit          3D

 15 13  0  0  0  0  0  0  0  0999 V2000
    0.9597    1.9261   -0.5436 S   0  0  0  0  0  0  0  0  0  0  0  0
   -0.5132    1.0116    0.0131 C   0  0  0  0  0  0  0  0  0  0  0  0
   -0.2408    0.3610    1.3257 C   0  0  0  0  0  0  0  0  0  0  0  0
   -0.2084   -1.2248    1.5823 S   0  0  0  0  0  0  0  0  0  0  0  0
    1.7568    0.8544   -0.6519 H   0  0  0  0  0  0  0  0  0  0  0  0
   -1.2857    1.7761    0.1258 H   0  0  0  0  0  0  0  0  0  0  0  0
   -0.0263    1.0567    2.1377 H   0  0  0  0  0  0  0  0  0  0  0  0
   -0.5132   -1.4249   -2.4580 C   0  0  0  0  0  0  0  0  0  0  0  0
   -0.5132   -1.4249   -0.9352 C   0  0  0  0  0  3  0  0  0  0  0  0
   -1.3941   -0.9164   -2.8539 H   0  0  0  0  0  0  0  0  0  0  0  0
    0.3676   -0.9164   -2.8539 H   0  0  0  0  0  0  0  0  0  0  0  0
   -0.5132   -2.4420   -2.8539 H   0  0  0  0  0  0  0  0  0  0  0  0
   -0.5132   -0.2044   -0.4602 H   0  0  0  0  0  0  0  0  0  0  0  0
    0.3676   -1.9335   -0.5394 H   0  0  0  0  0  0  0  0  0  0  0  0
   -1.3941   -1.9335   -0.5394 H   0  0  0  0  0  0  0  0  0  0  0  0
  1  2  1  0
  1  5  1  0
  2  3  1  0
  2  6  1  0
  2 13  1  0
  3  4  2  0
  3  7  1  0
  8  9  1  0
  8 10  1  0
  8 11  1  0
  8 12  1  0
  9 14  1  0
  9 15  1  0
M  RAD  1   9   2
M  END
>  <reaction>  (8) 
rxn_898

>  <mol_properties>  (8) 
{"1": {"label": "*1", "atom_type": "Cs"}, "2": {"label": "*0", "atom_type": "CS"}, "7": {"label": "*4", "atom_type": "Cs"}, "8": {"label": "*3", "atom_type": "Cs"}, "12": {"label": "*2", "atom_type": "H0"}}

>  <type>  (8) 
unop_4

>  <geom_source>  (8) 
Heuristics

$$$$

     RDKit          3D

 15 13  0  0  0  0  0  0  0  0999 V2000
    0.7566    0.4537    2.1593 S   0  0  0  0  0  0  0  0  0  0  0  0
    0.7566    0.4646    0.3385 C   0  0  0  0  0  0  0  0  0  0  0  0
   -0.4047    1.2515   -0.1645 C   0  0  0  0  0  0  0  0  0  0  0  0
   -1.6278    0.6522   -1.0167 S   0  0  0  0  0  0  0  0  0  0  0  0
   -0.4075   -0.1959    2.2952 H   0  0  0  0  0  0  0  0  0  0  0  0
    1.6919    0.9592    0.0660 H   0  0  0  0  0  0  0  0  0  0  0  0
   -0.3906    2.3052    0.1165 H   0  0  0  0  0  0  0  0  0  0  0  0
    0.7566   -1.9720   -2.1326 C   0  0  0  0  0  0  0  0  0  0  0  0
    0.7566   -1.9720   -0.6098 C   0  0  0  0  0  3  0  0  0  0  0  0
   -0.1243   -1.4634   -2.5284 H   0  0  0  0  0  0  0  0  0  0  0  0
    1.6374   -1.4634   -2.5284 H   0  0  0  0  0  0  0  0  0  0  0  0
    0.7565   -2.9891   -2.5284 H   0  0  0  0  0  0  0  0  0  0  0  0
    0.7566   -0.7514   -0.1347 H   0  0  0  0  0  0  0  0  0  0  0  0
    1.6374   -2.4805   -0.2139 H   0  0  0  0  0  0  0  0  0  0  0  0
   -0.1243   -2.4805   -0.2139 H   0  0  0  0  0  0  0  0  0  0  0  0
  1  2  1  0
  1  5  1  0
  2  3  1  0
  2  6  1  0
  2 13  1  0
  3  4  2  0
  3  7  1  0
  8  9  1  0
  8 10  1  0
  8 11  1  0
  8 12  1  0
  9 14  1  0
  9 15  1  0
M  RAD  1   9   2
M  END
>  <reaction>  (9) 
rxn_898

>  <mol_properties>  (9) 
{"1": {"label": "*1", "atom_type": "Cs"}, "2": {"label": "*0", "atom_type": "CS"}, "7": {"label": "*4", "atom_type": "Cs"}, "8": {"label": "*3", "atom_type": "Cs"}, "12": {"label": "*2", "atom_type": "H0"}}

>  <type>  (9) 
unop_5

>  <geom_source>  (9) 
Heuristics

$$$$

     RDKit          3D

 15 13  0  0  0  0  0  0  0  0999 V2000
    1.4889    1.7494    0.1475 S   0  0  0  0  0  0  0  0  0  0  0  0
   -0.2119    1.1434   -0.0883 C   0  0  0  0  0  0  0  0  0  0  0  0
   -0.6394    0.3548    1.1017 C   0  0  0  0  0  0  0  0  0  0  0  0
   -0.9882   -1.2135    1.0946 S   0  0  0  0  0  0  0  0  0  0  0  0
    2.0622    0.5394    0.2007 H   0  0  0  0  0  0  0  0  0  0  0  0
   -0.8172    2.0487   -0.1764 H   0  0  0  0  0  0  0  0  0  0  0  0
   -0.6775    0.9253    2.0304 H   0  0  0  0  0  0  0  0  0  0  0  0
   -0.2119   -1.2932   -2.5594 C   0  0  0  0  0  0  0  0  0  0  0  0
   -0.2119   -1.2932   -1.0366 C   0  0  0  0  0  3  0  0  0  0  0  0
   -1.0927   -0.7847   -2.9553 H   0  0  0  0  0  0  0  0  0  0  0  0
    0.6690   -0.7847   -2.9553 H   0  0  0  0  0  0  0  0  0  0  0  0
   -0.2119   -2.3103   -2.9553 H   0  0  0  0  0  0  0  0  0  0  0  0
   -0.2119   -0.0727   -0.5616 H   0  0  0  0  0  0  0  0  0  0  0  0
    0.6690   -1.8018   -0.6408 H   0  0  0  0  0  0  0  0  0  0  0  0
   -1.0927   -1.8018   -0.6408 H   0  0  0  0  0  0  0  0  0  0  0  0
  1  2  1  0
  1  5  1  0
  2  3  1  0
  2  6  1  0
  2 13  1  0
  3  4  2  0
  3  7  1  0
  8  9  1  0
  8 10  1  0
  8 11  1  0
  8 12  1  0
  9 14  1  0
  9 15  1  0
M  RAD  1   9   2
M  END
>  <reaction>  (10) 
rxn_898

>  <mol_properties>  (10) 
{"1": {"label": "*1", "atom_type": "Cs"}, "2": {"label": "*0", "atom_type": "CS"}, "7": {"label": "*4", "atom_type": "Cs"}, "8": {"label": "*3", "atom_type": "Cs"}, "12": {"label": "*2", "atom_type": "H0"}}

>  <type>  (10) 
unop_6

>  <geom_source>  (10) 
Heuristics

$$$$

     RDKit          3D

 15 13  0  0  0  0  0  0  0  0999 V2000
    1.6232    1.4503    0.9283 S   0  0  0  0  0  0  0  0  0  0  0  0
    0.1503    1.1527   -0.1000 C   0  0  0  0  0  0  0  0  0  0  0  0
   -0.9139    0.5005    0.7141 C   0  0  0  0  0  0  0  0  0  0  0  0
   -1.4914   -0.9782    0.4665 S   0  0  0  0  0  0  0  0  0  0  0  0
    1.8810    0.1597    1.1799 H   0  0  0  0  0  0  0  0  0  0  0  0
   -0.1731    2.1484   -0.4127 H   0  0  0  0  0  0  0  0  0  0  0  0
   -1.2776    1.1036    1.5468 H   0  0  0  0  0  0  0  0  0  0  0  0
    0.1503   -1.2838   -2.5711 C   0  0  0  0  0  0  0  0  0  0  0  0
    0.1503   -1.2838   -1.0483 C   0  0  0  0  0  3  0  0  0  0  0  0
   -0.7306   -0.7753   -2.9669 H   0  0  0  0  0  0  0  0  0  0  0  0
    1.0311   -0.7753   -2.9669 H   0  0  0  0  0  0  0  0  0  0  0  0
    0.1503   -2.3010   -2.9669 H   0  0  0  0  0  0  0  0  0  0  0  0
    0.1503   -0.0633   -0.5733 H   0  0  0  0  0  0  0  0  0  0  0  0
    1.0311   -1.7924   -0.6524 H   0  0  0  0  0  0  0  0  0  0  0  0
   -0.7306   -1.7924   -0.6524 H   0  0  0  0  0  0  0  0  0  0  0  0
  1  2  1  0
  1  5  1  0
  2  3  1  0
  2  6  1  0
  2 13  1  0
  3  4  2  0
  3  7  1  0
  8  9  1  0
  8 10  1  0
  8 11  1  0
  8 12  1  0
  9 14  1  0
  9 15  1  0
M  RAD  1   9   2
M  END
>  <reaction>  (11) 
rxn_898

>  <mol_properties>  (11) 
{"1": {"label": "*1", "atom_type": "Cs"}, "2": {"label": "*0", "atom_type": "CS"}, "7": {"label": "*4", "atom_type": "Cs"}, "8": {"label": "*3", "atom_type": "Cs"}, "12": {"label": "*2", "atom_type": "H0"}}

>  <type>  (11) 
unop_7

>  <geom_source>  (11) 
Heuristics

$$$$

     RDKit          3D

 15 13  0  0  0  0  0  0  0  0999 V2000
   -1.8317    0.4897    0.9125 S   0  0  0  0  0  0  0  0  0  0  0  0
   -0.1309   -0.1163    0.6767 C   0  0  0  0  0  0  0  0  0  0  0  0
    0.8228    1.0287    0.6925 C   0  0  0  0  0  0  0  0  0  0  0  0
    1.7256    1.4968   -0.5513 S   0  0  0  0  0  0  0  0  0  0  0  0
   -1.8776    1.2179   -0.2113 H   0  0  0  0  0  0  0  0  0  0  0  0
    0.0507   -0.7684    1.5344 H   0  0  0  0  0  0  0  0  0  0  0  0
    0.8545    1.5758    1.6354 H   0  0  0  0  0  0  0  0  0  0  0  0
   -0.1309   -2.5529   -1.7944 C   0  0  0  0  0  0  0  0  0  0  0  0
   -0.1309   -2.5529   -0.2716 C   0  0  0  0  0  3  0  0  0  0  0  0
   -1.0117   -2.0443   -2.1903 H   0  0  0  0  0  0  0  0  0  0  0  0
    0.7500   -2.0443   -2.1903 H   0  0  0  0  0  0  0  0  0  0  0  0
   -0.1309   -3.5700   -2.1903 H   0  0  0  0  0  0  0  0  0  0  0  0
   -0.1309   -1.3324    0.2034 H   0  0  0  0  0  0  0  0  0  0  0  0
    0.7500   -3.0614    0.1242 H   0  0  0  0  0  0  0  0  0  0  0  0
   -1.0117   -3.0614    0.1242 H   0  0  0  0  0  0  0  0  0  0  0  0
  1  2  1  0
  1  5  1  0
  2  3  1  0
  2  6  1  0
  2 13  1  0
  3  4  2  0
  3  7  1  0
  8  9  1  0
  8 10  1  0
  8 11  1  0
  8 12  1  0
  9 14  1  0
  9 15  1  0
M  RAD  1   9   2
M  END
>  <reaction>  (12) 
rxn_898

>  <mol_properties>  (12) 
{"1": {"label": "*1", "atom_type": "Cs"}, "2": {"label": "*0", "atom_type": "CS"}, "7": {"label": "*4", "atom_type": "Cs"}, "8": {"label": "*3", "atom_type": "Cs"}, "12": {"label": "*2", "atom_type": "H0"}}

>  <type>  (12) 
unop_8

>  <geom_source>  (12) 
Heuristics

$$$$

     RDKit          3D

 15 13  0  0  0  0  0  0  0  0999 V2000
    0.1323    1.9069   -0.9508 S   0  0  0  0  0  0  0  0  0  0  0  0
   -0.7180    0.7667    0.1859 C   0  0  0  0  0  0  0  0  0  0  0  0
    0.1432    0.4956    1.3715 C   0  0  0  0  0  0  0  0  0  0  0  0
    0.7613   -0.9365    1.7567 S   0  0  0  0  0  0  0  0  0  0  0  0
    1.1557    1.0883   -1.2301 H   0  0  0  0  0  0  0  0  0  0  0  0
   -1.6194    1.3035    0.4913 H   0  0  0  0  0  0  0  0  0  0  0  0
    0.3643    1.3744    1.9783 H   0  0  0  0  0  0  0  0  0  0  0  0
   -0.7180   -1.6699   -2.2851 C   0  0  0  0  0  0  0  0  0  0  0  0
   -0.7180   -1.6699   -0.7623 C   0  0  0  0  0  3  0  0  0  0  0  0
   -1.5989   -1.1613   -2.6810 H   0  0  0  0  0  0  0  0  0  0  0  0
    0.1628   -1.1613   -2.6810 H   0  0  0  0  0  0  0  0  0  0  0  0
   -0.7180   -2.6870   -2.6810 H   0  0  0  0  0  0  0  0  0  0  0  0
   -0.7180   -0.4493   -0.2873 H   0  0  0  0  0  0  0  0  0  0  0  0
    0.1628   -2.1784   -0.3665 H   0  0  0  0  0  0  0  0  0  0  0  0
   -1.5989   -2.1784   -0.3665 H   0  0  0  0  0  0  0  0  0  0  0  0
  1  2  1  0
  1  5  1  0
  2  3  1  0
  2  6  1  0
  2 13  1  0
  3  4  2  0
  3  7  1  0
  8  9  1  0
  8 10  1  0
  8 11  1  0
  8 12  1  0
  9 14  1  0
  9 15  1  0
M  RAD  1   9   2
M  END
>  <reaction>  (13) 
rxn_898

>  <mol_properties>  (13) 
{"1": {"label": "*1", "atom_type": "Cs"}, "2": {"label": "*0", "atom_type": "CS"}, "7": {"label": "*4", "atom_type": "Cs"}, "8": {"label": "*3", "atom_type": "Cs"}, "12": {"label": "*2", "atom_type": "H0"}}

>  <type>  (13) 
unop_9

>  <geom_source>  (13) 
Heuristics

$$$$

     RDKit          3D

 15 13  0  0  0  0  0  0  0  0999 V2000
   -1.8493    0.8799    0.0917 S   0  0  0  0  0  0  0  0  0  0  0  0
   -0.3764   -0.0345    0.6484 C   0  0  0  0  0  0  0  0  0  0  0  0
    0.7166    0.9206    0.9859 C   0  0  0  0  0  0  0  0  0  0  0  0
    2.1224    1.0262    0.2153 S   0  0  0  0  0  0  0  0  0  0  0  0
   -1.2776    1.4179   -0.9941 H   0  0  0  0  0  0  0  0  0  0  0  0
   -0.7037   -0.5635    1.5466 H   0  0  0  0  0  0  0  0  0  0  0  0
    0.4857    1.5969    1.8097 H   0  0  0  0  0  0  0  0  0  0  0  0
   -0.3764   -2.4711   -1.8227 C   0  0  0  0  0  0  0  0  0  0  0  0
   -0.3764   -2.4711   -0.2999 C   0  0  0  0  0  3  0  0  0  0  0  0
   -1.2572   -1.9625   -2.2185 H   0  0  0  0  0  0  0  0  0  0  0  0
    0.5045   -1.9625   -2.2185 H   0  0  0  0  0  0  0  0  0  0  0  0
   -0.3764   -3.4882   -2.2185 H   0  0  0  0  0  0  0  0  0  0  0  0
   -0.3764   -1.2506    0.1751 H   0  0  0  0  0  0  0  0  0  0  0  0
    0.5045   -2.9797    0.0959 H   0  0  0  0  0  0  0  0  0  0  0  0
   -1.2572   -2.9797    0.0959 H   0  0  0  0  0  0  0  0  0  0  0  0
  1  2  1  0
  1  5  1  0
  2  3  1  0
  2  6  1  0
  2 13  1  0
  3  4  2  0
  3  7  1  0
  8  9  1  0
  8 10  1  0
  8 11  1  0
  8 12  1  0
  9 14  1  0
  9 15  1  0
M  RAD  1   9   2
M  END
>  <reaction>  (14) 
rxn_898

>  <mol_properties>  (14) 
{"1": {"label": "*1", "atom_type": "Cs"}, "2": {"label": "*0", "atom_type": "CS"}, "7": {"label": "*4", "atom_type": "Cs"}, "8": {"label": "*3", "atom_type": "Cs"}, "12": {"label": "*2", "atom_type": "H0"}}

>  <type>  (14) 
unop_10

>  <geom_source>  (14) 
Heuristics

$$$$

     RDKit          3D

 15 13  0  0  0  0  0  0  0  0999 V2000
    1.3999    1.0424    1.6298 S   0  0  0  0  0  0  0  0  0  0  0  0
    0.5495    0.9706    0.0213 C   0  0  0  0  0  0  0  0  0  0  0  0
   -0.9187    0.8229    0.2294 C   0  0  0  0  0  0  0  0  0  0  0  0
   -1.7914   -0.4515   -0.2130 S   0  0  0  0  0  0  0  0  0  0  0  0
    1.0540   -0.1901    2.0258 H   0  0  0  0  0  0  0  0  0  0  0  0
    0.7674    1.9326   -0.4487 H   0  0  0  0  0  0  0  0  0  0  0  0
   -1.3864    1.6592    0.7503 H   0  0  0  0  0  0  0  0  0  0  0  0
    0.5495   -1.4660   -2.4498 C   0  0  0  0  0  0  0  0  0  0  0  0
    0.5495   -1.4660   -0.9270 C   0  0  0  0  0  3  0  0  0  0  0  0
   -0.3314   -0.9574   -2.8456 H   0  0  0  0  0  0  0  0  0  0  0  0
    1.4303   -0.9574   -2.8456 H   0  0  0  0  0  0  0  0  0  0  0  0
    0.5495   -2.4831   -2.8456 H   0  0  0  0  0  0  0  0  0  0  0  0
    0.5495   -0.2454   -0.4520 H   0  0  0  0  0  0  0  0  0  0  0  0
    1.4303   -1.9745   -0.5311 H   0  0  0  0  0  0  0  0  0  0  0  0
   -0.3314   -1.9745   -0.5311 H   0  0  0  0  0  0  0  0  0  0  0  0
  1  2  1  0
  1  5  1  0
  2  3  1  0
  2  6  1  0
  2 13  1  0
  3  4  2  0
  3  7  1  0
  8  9  1  0
  8 10  1  0
  8 11  1  0
  8 12  1  0
  9 14  1  0
  9 15  1  0
M  RAD  1   9   2
M  END
>  <reaction>  (15) 
rxn_898

>  <mol_properties>  (15) 
{"1": {"label": "*1", "atom_type": "Cs"}, "2": {"label": "*0", "atom_type": "CS"}, "7": {"label": "*4", "atom_type": "Cs"}, "8": {"label": "*3", "atom_type": "Cs"}, "12": {"label": "*2", "atom_type": "H0"}}

>  <type>  (15) 
unop_11

>  <geom_source>  (15) 
Heuristics

$$$$

     RDKit          3D

 15 13  0  0  0  0  0  0  0  0999 V2000
   -0.7566    1.6662   -0.9562 S   0  0  0  0  0  0  0  0  0  0  0  0
   -0.7566    0.4434    0.3930 C   0  0  0  0  0  0  0  0  0  0  0  0
    0.4047    0.6833    1.2956 C   0  0  0  0  0  0  0  0  0  0  0  0
    1.6278   -0.3344    1.5185 S   0  0  0  0  0  0  0  0  0  0  0  0
    0.4075    1.2794   -1.4954 H   0  0  0  0  0  0  0  0  0  0  0  0
   -1.6919    0.6237    0.9282 H   0  0  0  0  0  0  0  0  0  0  0  0
    0.3906    1.6497    1.8008 H   0  0  0  0  0  0  0  0  0  0  0  0
   -0.7566   -1.9932   -2.0781 C   0  0  0  0  0  0  0  0  0  0  0  0
   -0.7566   -1.9932   -0.5553 C   0  0  0  0  0  3  0  0  0  0  0  0
   -1.6374   -1.4846   -2.4740 H   0  0  0  0  0  0  0  0  0  0  0  0
    0.1243   -1.4846   -2.4740 H   0  0  0  0  0  0  0  0  0  0  0  0
   -0.7566   -3.0103   -2.4740 H   0  0  0  0  0  0  0  0  0  0  0  0
   -0.7566   -0.7726   -0.0803 H   0  0  0  0  0  0  0  0  0  0  0  0
    0.1243   -2.5017   -0.1595 H   0  0  0  0  0  0  0  0  0  0  0  0
   -1.6374   -2.5017   -0.1595 H   0  0  0  0  0  0  0  0  0  0  0  0
  1  2  1  0
  1  5  1  0
  2  3  1  0
  2  6  1  0
  2 13  1  0
  3  4  2  0
  3  7  1  0
  8  9  1  0
  8 10  1  0
  8 11  1  0
  8 12  1  0
  9 14  1  0
  9 15  1  0
M  RAD  1   9   2
M  END
>  <reaction>  (16) 
rxn_898

>  <mol_properties>  (16) 
{"1": {"label": "*1", "atom_type": "Cs"}, "2": {"label": "*0", "atom_type": "CS"}, "7": {"label": "*4", "atom_type": "Cs"}, "8": {"label": "*3", "atom_type": "Cs"}, "12": {"label": "*2", "atom_type": "H0"}}

>  <type>  (16) 
unop_12

>  <geom_source>  (16) 
Heuristics

$$$$

     RDKit          3D

 15 13  0  0  0  0  0  0  0  0999 V2000
    1.7867    1.6864   -0.3481 S   0  0  0  0  0  0  0  0  0  0  0  0
    2.1595   -1.1908    1.5025 S   0  0  0  0  0  1  0  0  0  0  0  0
    1.3035   -0.0486   -0.6157 C   0  0  0  0  0  0  0  0  0  0  0  0
   -2.0420    0.4833    0.5878 C   0  0  0  0  0  0  0  0  0  0  0  0
    2.2474   -0.9795    0.0845 C   0  0  0  0  0  0  0  0  0  0  0  0
   -1.2766   -0.3189   -0.4482 C   0  0  0  0  0  0  0  0  0  0  0  0
    1.3368   -0.2530   -1.7063 H   0  0  0  0  0  0  0  0  0  0  0  0
   -0.0198   -0.2542   -0.1660 H   0  0  0  0  0  0  0  0  0  0  0  0
   -3.1266    0.4714    0.3501 H   0  0  0  0  0  0  0  0  0  0  0  0
   -1.8817    0.0415    1.5933 H   0  0  0  0  0  0  0  0  0  0  0  0
   -1.6780    1.5317    0.5898 H   0  0  0  0  0  0  0  0  0  0  0  0
    2.9093   -1.6079   -0.5026 H   0  0  0  0  0  0  0  0  0  0  0  0
   -1.4250    0.1222   -1.4563 H   0  0  0  0  0  0  0  0  0  0  0  0
   -1.6291   -1.3719   -0.4502 H   0  0  0  0  0  0  0  0  0  0  0  0
    1.3358    1.6883    0.9855 H   0  0  0  0  0  0  0  0  0  0  0  0
  1  3  1  0
  1 15  1  0
  2  5  1  0
  3  5  2  3
  3  7  1  0
  4  6  1  0
  4  9  1  0
  4 10  1  0
  4 11  1  0
  5 12  1  0
  6  8  1  0
  6 13  1  0
  6 14  1  0
M  RAD  1   2   2
M  END
>  <reaction>  (17) 
rxn_898

>  <mol_properties>  (17) 
{"1": {"label": "*1", "atom_type": "Cs"}, "2": {"label": "*0", "atom_type": "CS"}, "7": {"label": "*4", "atom_type": "Cs"}, "8": {"label": "*3", "atom_type": "Cs"}, "12": {"label": "*2", "atom_type": "H0"}}

>  <type>  (17) 
unop_13

>  <geom_source>  (17) 
AutoTST

$$$$
