
     RDKit          3D

  6  5  0  0  0  0  0  0  0  0999 V2000
    0.6594    0.0438   -0.0050 C   0  0  0  0  0  0  0  0  0  0  0  0
   -0.6594   -0.0438    0.0050 C   0  0  0  0  0  0  0  0  0  0  0  0
    1.1706    0.8681   -0.4881 H   0  0  0  0  0  0  0  0  0  0  0  0
    1.2824   -0.7051    0.4696 H   0  0  0  0  0  0  0  0  0  0  0  0
   -1.2824    0.7051   -0.4696 H   0  0  0  0  0  0  0  0  0  0  0  0
   -1.1706   -0.8681    0.4881 H   0  0  0  0  0  0  0  0  0  0  0  0
  1  2  2  3
  1  3  1  0
  1  4  1  0
  2  5  1  0
  2  6  1  0
M  END
>  <reaction>  (1) 
rxn_342

>  <mol_properties>  (1) 
{"1": {"label": "donator", "atom_type": "Cd"}, "4": {"label": "d_hydrogen", "atom_type": "H0"}}

>  <type>  (1) 
r1h

$$$$

     RDKit          3D

  1  0  0  0  0  0  0  0  0  0999 V2000
    0.0000    0.0000    0.0000 O   0  0  0  0  0 15  0  0  0  0  0  0
M  END
>  <reaction>  (2) 
rxn_342

>  <mol_properties>  (2) 
{"0": {"label": "acceptor", "atom_type": "O2s"}}

>  <type>  (2) 
r2

$$$$

     RDKit          3D

  2  1  0  0  0  0  0  0  0  0999 V2000
    0.0000    0.0000    0.4855 O   0  0  0  0  0  1  0  0  0  0  0  0
    0.0000    0.0000   -0.4855 H   0  0  0  0  0  0  0  0  0  0  0  0
  1  2  1  0
M  RAD  1   1   2
M  END
>  <reaction>  (3) 
rxn_342

>  <mol_properties>  (3) 
{"0": {"label": "a_hydrogen", "atom_type": "H0"}, "1": {"label": "acceptor", "atom_type": "O2s"}}

>  <type>  (3) 
r2h

$$$$

     RDKit          3D

  7  5  0  0  0  0  0  0  0  0999 V2000
    0.0000   -0.7530   -1.3632 C   0  0  0  0  0  0  0  0  0  0  0  0
    0.0000   -0.8446   -0.0592 C   0  0  0  0  0  3  0  0  0  0  0  0
    0.0000    0.2060   -1.8687 H   0  0  0  0  0  0  0  0  0  0  0  0
    0.0000   -1.6442   -1.9861 H   0  0  0  0  0  0  0  0  0  0  0  0
    0.0000    0.3065    0.6187 H   0  0  0  0  0  0  0  0  0  0  0  0
   -0.0000   -1.6991    0.6050 H   0  0  0  0  0  0  0  0  0  0  0  0
    0.0000    1.3441    1.1336 O   0  0  0  0  0  1  0  0  0  0  0  0
  1  2  2  3
  1  3  1  0
  1  4  1  0
  2  6  1  0
  5  7  1  0
M  RAD  2   2   2   7   2
M  END
>  <reaction>  (4) 
rxn_342

>  <mol_properties>  (4) 
{"0": {"label": "*4", "atom_type": "Cd"}, "1": {"label": "*3", "atom_type": "Cd"}, "4": {"label": "*2", "atom_type": "H0"}, "6": {"label": "*1", "atom_type": "O2s"}}

>  <type>  (4) 
ts

$$$$

     RDKit          3D

  7  5  0  0  0  0  0  0  0  0999 V2000
   -0.0000   -0.7668   -1.3734 C   0  0  0  0  0  0  0  0  0  0  0  0
   -0.0000   -0.7668   -0.0517 C   0  0  0  0  0  3  0  0  0  0  0  0
    0.0000    0.1557   -1.9418 H   0  0  0  0  0  0  0  0  0  0  0  0
    0.0000   -1.6894   -1.9418 H   0  0  0  0  0  0  0  0  0  0  0  0
   -0.0000    0.3403    0.6304 H   0  0  0  0  0  0  0  0  0  0  0  0
   -0.0000   -1.6894    0.5167 H   0  0  0  0  0  0  0  0  0  0  0  0
   -0.0000    1.3323    1.2416 O   0  0  0  0  0  1  0  0  0  0  0  0
  1  2  2  3
  1  3  1  0
  1  4  1  0
  2  6  1  0
  5  7  1  0
M  RAD  2   2   2   7   2
M  END
>  <reaction>  (5) 
rxn_342

>  <mol_properties>  (5) 
{"0": {"label": "*4", "atom_type": "Cd"}, "1": {"label": "*3", "atom_type": "Cd"}, "4": {"label": "*2", "atom_type": "H0"}, "6": {"label": "*1", "atom_type": "O2s"}}

>  <type>  (5) 
unop_1

>  <geom_source>  (5) 
Heuristics

$$$$

     RDKit          3D

  7  5  0  0  0  0  0  0  0  0999 V2000
    1.8461   -0.5172   -0.2468 O   0  0  0  0  0 15  0  0  0  0  0  0
   -0.7012   -0.2564    0.3141 C   0  0  0  0  0  0  0  0  0  0  0  0
   -0.0971    0.8579   -0.0881 C   0  0  0  0  0  0  0  0  0  0  0  0
   -1.1201   -0.9460   -0.4116 H   0  0  0  0  0  0  0  0  0  0  0  0
   -0.7762   -0.4781    1.3730 H   0  0  0  0  0  0  0  0  0  0  0  0
   -0.0165    1.0895   -1.1452 H   0  0  0  0  0  0  0  0  0  0  0  0
    0.8650    0.2504    0.2046 H   0  0  0  0  0  0  0  0  0  0  0  0
  2  3  2  3
  2  4  1  0
  2  5  1  0
  3  6  1  0
  3  7  1  0
M  END
>  <reaction>  (6) 
rxn_342

>  <mol_properties>  (6) 
{"0": {"label": "*4", "atom_type": "Cd"}, "1": {"label": "*3", "atom_type": "Cd"}, "4": {"label": "*2", "atom_type": "H0"}, "6": {"label": "*1", "atom_type": "O2s"}}

>  <type>  (6) 
unop_2

>  <geom_source>  (6) 
AutoTST

$$$$

     RDKit          3D

  7  5  0  0  0  0  0  0  0  0999 V2000
    2.2744   -0.6150    0.2130 O   0  0  0  0  0  1  0  0  0  0  0  0
    0.1002    0.3826    0.2948 C   0  0  0  0  0  3  0  0  0  0  0  0
   -0.9244   -0.1314   -0.3804 C   0  0  0  0  0  0  0  0  0  0  0  0
    1.1750   -0.3571    0.5363 H   0  0  0  0  0  0  0  0  0  0  0  0
    0.0626    1.4071    0.6507 H   0  0  0  0  0  0  0  0  0  0  0  0
   -1.8054    0.4698   -0.5803 H   0  0  0  0  0  0  0  0  0  0  0  0
   -0.8823   -1.1559   -0.7342 H   0  0  0  0  0  0  0  0  0  0  0  0
  1  4  1  0
  2  3  2  3
  2  5  1  0
  3  6  1  0
  3  7  1  0
M  RAD  2   1   2   2   2
M  END
>  <reaction>  (7) 
rxn_342

>  <mol_properties>  (7) 
{"0": {"label": "*4", "atom_type": "Cd"}, "1": {"label": "*3", "atom_type": "Cd"}, "4": {"label": "*2", "atom_type": "H0"}, "6": {"label": "*1", "atom_type": "O2s"}}

>  <type>  (7) 
unop_3

>  <geom_source>  (7) 
gaussian_log

$$$$
