
     RDKit          3D

  9  8  0  0  0  0  0  0  0  0999 V2000
   -0.9895    0.3048    0.1041 C   0  0  0  0  0  0  0  0  0  0  0  0
    0.3761   -0.3562    0.0721 C   0  0  0  0  0  0  0  0  0  0  0  0
    0.3441   -1.6564   -0.4834 O   0  0  0  0  0  0  0  0  0  0  0  0
   -1.6997   -0.3114    0.6572 H   0  0  0  0  0  0  0  0  0  0  0  0
   -0.9320    1.2848    0.5822 H   0  0  0  0  0  0  0  0  0  0  0  0
   -1.3774    0.4507   -0.9077 H   0  0  0  0  0  0  0  0  0  0  0  0
    0.7581   -0.4813    1.0862 H   0  0  0  0  0  0  0  0  0  0  0  0
    1.0900    0.2787   -0.4681 H   0  0  0  0  0  0  0  0  0  0  0  0
    0.0089   -1.5959   -1.3792 H   0  0  0  0  0  0  0  0  0  0  0  0
  1  2  1  0
  1  4  1  0
  1  5  1  0
  1  6  1  0
  2  3  1  0
  2  7  1  0
  2  8  1  0
  3  9  1  0
M  END
>  <reaction>  (1) 
rxn_228

>  <mol_properties>  (1) 
{"1": {"label": "donator", "atom_type": "Cs"}, "6": {"label": "d_hydrogen", "atom_type": "H0"}}

>  <type>  (1) 
r1h

$$$$

     RDKit          3D

  3  2  0  0  0  0  0  0  0  0999 V2000
    0.9943   -0.1797    0.0000 O   0  0  0  0  0  1  0  0  0  0  0  0
   -0.1595    0.4394    0.0000 O   0  0  0  0  0  0  0  0  0  0  0  0
   -0.8348   -0.2597    0.0000 H   0  0  0  0  0  0  0  0  0  0  0  0
  1  2  1  0
  2  3  1  0
M  RAD  1   1   2
M  END
>  <reaction>  (2) 
rxn_228

>  <mol_properties>  (2) 
{"0": {"label": "acceptor", "atom_type": "O2s"}}

>  <type>  (2) 
r2

$$$$

     RDKit          3D

  4  3  0  0  0  0  0  0  0  0999 V2000
    0.5949   -0.3853    0.2659 O   0  0  0  0  0  0  0  0  0  0  0  0
   -0.5918    0.4028    0.2462 O   0  0  0  0  0  0  0  0  0  0  0  0
    1.1865    0.1539   -0.2689 H   0  0  0  0  0  0  0  0  0  0  0  0
   -1.1896   -0.1714   -0.2432 H   0  0  0  0  0  0  0  0  0  0  0  0
  1  2  1  0
  1  3  1  0
  2  4  1  0
M  END
>  <reaction>  (3) 
rxn_228

>  <mol_properties>  (3) 
{"0": {"label": "a_hydrogen", "atom_type": "H0"}, "1": {"label": "acceptor", "atom_type": "O2s"}}

>  <type>  (3) 
r2h

$$$$

     RDKit          3D

 12 10  0  0  0  0  0  0  0  0999 V2000
   -1.3817    0.0872   -1.4641 C   0  0  0  0  0  0  0  0  0  0  0  0
   -1.0764    0.1078    0.0085 C   0  0  0  0  0  3  0  0  0  0  0  0
   -0.6639    1.3120    0.5263 O   0  0  0  0  0  0  0  0  0  0  0  0
   -0.5054    0.3880   -2.0436 H   0  0  0  0  0  0  0  0  0  0  0  0
   -1.6615   -0.9183   -1.7781 H   0  0  0  0  0  0  0  0  0  0  0  0
   -2.2043    0.7695   -1.6968 H   0  0  0  0  0  0  0  0  0  0  0  0
   -0.0447   -0.6867    0.1301 H   0  0  0  0  0  0  0  0  0  0  0  0
   -1.8471   -0.3080    0.6559 H   0  0  0  0  0  0  0  0  0  0  0  0
    0.0341    1.6619   -0.0373 H   0  0  0  0  0  0  0  0  0  0  0  0
    1.1023   -1.1310    0.1379 O   0  0  0  0  0  0  0  0  0  0  0  0
    1.8790    0.0190    0.0968 O   0  0  0  0  0  0  0  0  0  0  0  0
    2.0636    0.1906    1.0280 H   0  0  0  0  0  0  0  0  0  0  0  0
  1  2  1  0
  1  4  1  0
  1  5  1  0
  1  6  1  0
  2  3  1  0
  2  8  1  0
  3  9  1  0
  7 10  1  0
 10 11  1  0
 11 12  1  0
M  RAD  1   2   2
M  END
>  <reaction>  (4) 
rxn_228

>  <mol_properties>  (4) 
{"1": {"label": "*3", "atom_type": "Cs"}, "2": {"label": "*4", "atom_type": "O2s"}, "6": {"label": "*2", "atom_type": "H0"}, "9": {"label": "*1", "atom_type": "O2s"}, "10": {"label": "*0", "atom_type": "O2s"}}

>  <type>  (4) 
ts

$$$$

     RDKit          3D

 12 10  0  0  0  0  0  0  0  0999 V2000
   -0.9650   -0.0518   -1.8660 C   0  0  0  0  0  0  0  0  0  0  0  0
   -0.9650   -0.0518   -0.3485 C   0  0  0  0  0  3  0  0  0  0  0  0
   -0.9650    1.2514    0.2008 O   0  0  0  0  0  0  0  0  0  0  0  0
   -0.1090    0.5058   -2.2483 H   0  0  0  0  0  0  0  0  0  0  0  0
   -0.9166   -1.0723   -2.2512 H   0  0  0  0  0  0  0  0  0  0  0  0
   -1.8764    0.4084   -2.2572 H   0  0  0  0  0  0  0  0  0  0  0  0
    0.1228   -0.6226    0.1037 H   0  0  0  0  0  0  0  0  0  0  0  0
   -1.8172   -0.6315    0.0288 H   0  0  0  0  0  0  0  0  0  0  0  0
   -1.7470    1.7114   -0.1082 H   0  0  0  0  0  0  0  0  0  0  0  0
    1.0826   -1.1263    0.5028 O   0  0  0  0  0  0  0  0  0  0  0  0
    1.6613   -0.0632    1.2541 O   0  0  0  0  0  0  0  0  0  0  0  0
    1.0903   -0.0493    2.0289 H   0  0  0  0  0  0  0  0  0  0  0  0
  1  2  1  0
  1  4  1  0
  1  5  1  0
  1  6  1  0
  2  3  1  0
  2  8  1  0
  3  9  1  0
  7 10  1  0
 10 11  1  0
 11 12  1  0
M  RAD  1   2   2
M  END
>  <reaction>  (5) 
rxn_228

>  <mol_properties>  (5) 
{"1": {"label": "*3", "atom_type": "Cs"}, "2": {"label": "*4", "atom_type": "O2s"}, "6": {"label": "*2", "atom_type": "H0"}, "9": {"label": "*1", "atom_type": "O2s"}, "10": {"label": "*0", "atom_type": "O2s"}}

>  <type>  (5) 
unop_1

>  <geom_source>  (5) 
Heuristics

$$$$

     RDKit          3D

 12 10  0  0  0  0  0  0  0  0999 V2000
   -1.0518    0.1014   -1.4750 C   0  0  0  0  0  0  0  0  0  0  0  0
   -1.0518    0.1014    0.0425 C   0  0  0  0  0  3  0  0  0  0  0  0
   -1.0518    1.4046    0.5919 O   0  0  0  0  0  0  0  0  0  0  0  0
   -0.1958    0.6590   -1.8573 H   0  0  0  0  0  0  0  0  0  0  0  0
   -1.0034   -0.9192   -1.8602 H   0  0  0  0  0  0  0  0  0  0  0  0
   -1.9633    0.5616   -1.8662 H   0  0  0  0  0  0  0  0  0  0  0  0
    0.0360   -0.4694    0.4948 H   0  0  0  0  0  0  0  0  0  0  0  0
   -1.9040   -0.4783    0.4198 H   0  0  0  0  0  0  0  0  0  0  0  0
   -1.8338    1.8646    0.2828 H   0  0  0  0  0  0  0  0  0  0  0  0
    0.9958   -0.9731    0.8938 O   0  0  0  0  0  0  0  0  0  0  0  0
    1.9208   -0.6694   -0.1463 O   0  0  0  0  0  0  0  0  0  0  0  0
    2.3161    0.1429    0.1862 H   0  0  0  0  0  0  0  0  0  0  0  0
  1  2  1  0
  1  4  1  0
  1  5  1  0
  1  6  1  0
  2  3  1  0
  2  8  1  0
  3  9  1  0
  7 10  1  0
 10 11  1  0
 11 12  1  0
M  RAD  1   2   2
M  END
>  <reaction>  (6) 
rxn_228

>  <mol_properties>  (6) 
{"1": {"label": "*3", "atom_type": "Cs"}, "2": {"label": "*4", "atom_type": "O2s"}, "6": {"label": "*2", "atom_type": "H0"}, "9": {"label": "*1", "atom_type": "O2s"}, "10": {"label": "*0", "atom_type": "O2s"}}

>  <type>  (6) 
unop_2

>  <geom_source>  (6) 
Heuristics

$$$$

     RDKit          3D

 12 10  0  0  0  0  0  0  0  0999 V2000
   -0.8806    0.0349   -1.9670 C   0  0  0  0  0  0  0  0  0  0  0  0
   -0.8806    0.0349   -0.4494 C   0  0  0  0  0  3  0  0  0  0  0  0
   -0.8806    1.3381    0.0999 O   0  0  0  0  0  0  0  0  0  0  0  0
   -0.0246    0.5925   -2.3493 H   0  0  0  0  0  0  0  0  0  0  0  0
   -0.8322   -0.9856   -2.3522 H   0  0  0  0  0  0  0  0  0  0  0  0
   -1.7920    0.4951   -2.3581 H   0  0  0  0  0  0  0  0  0  0  0  0
    0.2072   -0.5359    0.0028 H   0  0  0  0  0  0  0  0  0  0  0  0
   -1.7328   -0.5448   -0.0722 H   0  0  0  0  0  0  0  0  0  0  0  0
   -1.6625    1.7981   -0.2092 H   0  0  0  0  0  0  0  0  0  0  0  0
    1.1671   -1.0396    0.4018 O   0  0  0  0  0  0  0  0  0  0  0  0
    1.3516   -0.3474    1.6332 O   0  0  0  0  0  0  0  0  0  0  0  0
    0.8101   -0.8761    2.2280 H   0  0  0  0  0  0  0  0  0  0  0  0
  1  2  1  0
  1  4  1  0
  1  5  1  0
  1  6  1  0
  2  3  1  0
  2  8  1  0
  3  9  1  0
  7 10  1  0
 10 11  1  0
 11 12  1  0
M  RAD  1   2   2
M  END
>  <reaction>  (7) 
rxn_228

>  <mol_properties>  (7) 
{"1": {"label": "*3", "atom_type": "Cs"}, "2": {"label": "*4", "atom_type": "O2s"}, "6": {"label": "*2", "atom_type": "H0"}, "9": {"label": "*1", "atom_type": "O2s"}, "10": {"label": "*0", "atom_type": "O2s"}}

>  <type>  (7) 
unop_3

>  <geom_source>  (7) 
Heuristics

$$$$

     RDKit          3D

 12 10  0  0  0  0  0  0  0  0999 V2000
   -0.8341    0.4608   -1.5725 C   0  0  0  0  0  0  0  0  0  0  0  0
   -0.8341    0.4608   -0.0550 C   0  0  0  0  0  3  0  0  0  0  0  0
   -0.8341    1.7640    0.4943 O   0  0  0  0  0  0  0  0  0  0  0  0
    0.0220    1.0184   -1.9549 H   0  0  0  0  0  0  0  0  0  0  0  0
   -0.7857   -0.5598   -1.9578 H   0  0  0  0  0  0  0  0  0  0  0  0
   -1.7455    0.9210   -1.9637 H   0  0  0  0  0  0  0  0  0  0  0  0
    0.2537   -0.1100    0.3972 H   0  0  0  0  0  0  0  0  0  0  0  0
   -1.6863   -0.1189    0.3223 H   0  0  0  0  0  0  0  0  0  0  0  0
   -1.6160    2.2240    0.1852 H   0  0  0  0  0  0  0  0  0  0  0  0
    1.2136   -0.6138    0.7962 O   0  0  0  0  0  0  0  0  0  0  0  0
    1.0950   -1.9183    0.2361 O   0  0  0  0  0  0  0  0  0  0  0  0
    2.0203   -2.1577    0.1218 H   0  0  0  0  0  0  0  0  0  0  0  0
  1  2  1  0
  1  4  1  0
  1  5  1  0
  1  6  1  0
  2  3  1  0
  2  8  1  0
  3  9  1  0
  7 10  1  0
 10 11  1  0
 11 12  1  0
M  RAD  1   2   2
M  END
>  <reaction>  (8) 
rxn_228

>  <mol_properties>  (8) 
{"1": {"label": "*3", "atom_type": "Cs"}, "2": {"label": "*4", "atom_type": "O2s"}, "6": {"label": "*2", "atom_type": "H0"}, "9": {"label": "*1", "atom_type": "O2s"}, "10": {"label": "*0", "atom_type": "O2s"}}

>  <type>  (8) 
unop_4

>  <geom_source>  (8) 
Heuristics

$$$$

     RDKit          3D

 12 10  0  0  0  0  0  0  0  0999 V2000
   -0.8042    0.1666   -2.0003 C   0  0  0  0  0  0  0  0  0  0  0  0
   -0.8042    0.1666   -0.4828 C   0  0  0  0  0  3  0  0  0  0  0  0
   -0.8042    1.4698    0.0665 O   0  0  0  0  0  0  0  0  0  0  0  0
    0.0518    0.7242   -2.3826 H   0  0  0  0  0  0  0  0  0  0  0  0
   -0.7558   -0.8539   -2.3855 H   0  0  0  0  0  0  0  0  0  0  0  0
   -1.7157    0.6268   -2.3915 H   0  0  0  0  0  0  0  0  0  0  0  0
    0.2835   -0.4042   -0.0306 H   0  0  0  0  0  0  0  0  0  0  0  0
   -1.6564   -0.4131   -0.1055 H   0  0  0  0  0  0  0  0  0  0  0  0
   -1.5862    1.9298   -0.2425 H   0  0  0  0  0  0  0  0  0  0  0  0
    1.2434   -0.9079    0.3685 O   0  0  0  0  0  0  0  0  0  0  0  0
    1.0460   -0.8043    1.7756 O   0  0  0  0  0  0  0  0  0  0  0  0
    0.9597   -1.7311    2.0211 H   0  0  0  0  0  0  0  0  0  0  0  0
  1  2  1  0
  1  4  1  0
  1  5  1  0
  1  6  1  0
  2  3  1  0
  2  8  1  0
  3  9  1  0
  7 10  1  0
 10 11  1  0
 11 12  1  0
M  RAD  1   2   2
M  END
>  <reaction>  (9) 
rxn_228

>  <mol_properties>  (9) 
{"1": {"label": "*3", "atom_type": "Cs"}, "2": {"label": "*4", "atom_type": "O2s"}, "6": {"label": "*2", "atom_type": "H0"}, "9": {"label": "*1", "atom_type": "O2s"}, "10": {"label": "*0", "atom_type": "O2s"}}

>  <type>  (9) 
unop_5

>  <geom_source>  (9) 
Heuristics

$$$$

     RDKit          3D

 12 10  0  0  0  0  0  0  0  0999 V2000
   -0.7683    0.4752   -1.7143 C   0  0  0  0  0  0  0  0  0  0  0  0
   -0.7683    0.4752   -0.1968 C   0  0  0  0  0  3  0  0  0  0  0  0
   -0.7683    1.7784    0.3525 O   0  0  0  0  0  0  0  0  0  0  0  0
    0.0877    1.0327   -2.0966 H   0  0  0  0  0  0  0  0  0  0  0  0
   -0.7199   -0.5454   -2.0995 H   0  0  0  0  0  0  0  0  0  0  0  0
   -1.6798    0.9353   -2.1055 H   0  0  0  0  0  0  0  0  0  0  0  0
    0.3194   -0.0957    0.2554 H   0  0  0  0  0  0  0  0  0  0  0  0
   -1.6205   -0.1046    0.1805 H   0  0  0  0  0  0  0  0  0  0  0  0
   -1.5503    2.2383    0.0435 H   0  0  0  0  0  0  0  0  0  0  0  0
    1.2793   -0.5994    0.6545 O   0  0  0  0  0  0  0  0  0  0  0  0
    0.8600   -1.9576    0.7501 O   0  0  0  0  0  0  0  0  0  0  0  0
    1.7030   -2.4183    0.6898 H   0  0  0  0  0  0  0  0  0  0  0  0
  1  2  1  0
  1  4  1  0
  1  5  1  0
  1  6  1  0
  2  3  1  0
  2  8  1  0
  3  9  1  0
  7 10  1  0
 10 11  1  0
 11 12  1  0
M  RAD  1   2   2
M  END
>  <reaction>  (10) 
rxn_228

>  <mol_properties>  (10) 
{"1": {"label": "*3", "atom_type": "Cs"}, "2": {"label": "*4", "atom_type": "O2s"}, "6": {"label": "*2", "atom_type": "H0"}, "9": {"label": "*1", "atom_type": "O2s"}, "10": {"label": "*0", "atom_type": "O2s"}}

>  <type>  (10) 
unop_6

>  <geom_source>  (10) 
Heuristics

$$$$

     RDKit          3D

 12 10  0  0  0  0  0  0  0  0999 V2000
   -0.7396    0.4175   -1.8558 C   0  0  0  0  0  0  0  0  0  0  0  0
   -0.7396    0.4175   -0.3383 C   0  0  0  0  0  3  0  0  0  0  0  0
   -0.7396    1.7207    0.2110 O   0  0  0  0  0  0  0  0  0  0  0  0
    0.1165    0.9751   -2.2381 H   0  0  0  0  0  0  0  0  0  0  0  0
   -0.6912   -0.6030   -2.2410 H   0  0  0  0  0  0  0  0  0  0  0  0
   -1.6510    0.8777   -2.2470 H   0  0  0  0  0  0  0  0  0  0  0  0
    0.3482   -0.1533    0.1139 H   0  0  0  0  0  0  0  0  0  0  0  0
   -1.5918   -0.1622    0.0390 H   0  0  0  0  0  0  0  0  0  0  0  0
   -1.5215    2.1807   -0.0980 H   0  0  0  0  0  0  0  0  0  0  0  0
    1.3081   -0.6570    0.5130 O   0  0  0  0  0  0  0  0  0  0  0  0
    0.7620   -1.7373    1.2643 O   0  0  0  0  0  0  0  0  0  0  0  0
    1.4882   -2.3686    1.2392 H   0  0  0  0  0  0  0  0  0  0  0  0
  1  2  1  0
  1  4  1  0
  1  5  1  0
  1  6  1  0
  2  3  1  0
  2  8  1  0
  3  9  1  0
  7 10  1  0
 10 11  1  0
 11 12  1  0
M  RAD  1   2   2
M  END
>  <reaction>  (11) 
rxn_228

>  <mol_properties>  (11) 
{"1": {"label": "*3", "atom_type": "Cs"}, "2": {"label": "*4", "atom_type": "O2s"}, "6": {"label": "*2", "atom_type": "H0"}, "9": {"label": "*1", "atom_type": "O2s"}, "10": {"label": "*0", "atom_type": "O2s"}}

>  <type>  (11) 
unop_7

>  <geom_source>  (11) 
Heuristics

$$$$

     RDKit          3D

 12 10  0  0  0  0  0  0  0  0999 V2000
   -1.0324   -0.0690   -1.7248 C   0  0  0  0  0  0  0  0  0  0  0  0
   -1.0324   -0.0690   -0.2073 C   0  0  0  0  0  3  0  0  0  0  0  0
   -1.0324    1.2342    0.3420 O   0  0  0  0  0  0  0  0  0  0  0  0
   -0.1763    0.4886   -2.1071 H   0  0  0  0  0  0  0  0  0  0  0  0
   -0.9839   -1.0895   -2.1101 H   0  0  0  0  0  0  0  0  0  0  0  0
   -1.9438    0.3912   -2.1160 H   0  0  0  0  0  0  0  0  0  0  0  0
    0.0554   -0.6398    0.2449 H   0  0  0  0  0  0  0  0  0  0  0  0
   -1.8846   -0.6487    0.1700 H   0  0  0  0  0  0  0  0  0  0  0  0
   -1.8143    1.6942    0.0329 H   0  0  0  0  0  0  0  0  0  0  0  0
    1.0153   -1.1435    0.6440 O   0  0  0  0  0  0  0  0  0  0  0  0
    1.8947   -0.0268    0.7396 O   0  0  0  0  0  0  0  0  0  0  0  0
    1.5324    0.4317    1.5045 H   0  0  0  0  0  0  0  0  0  0  0  0
  1  2  1  0
  1  4  1  0
  1  5  1  0
  1  6  1  0
  2  3  1  0
  2  8  1  0
  3  9  1  0
  7 10  1  0
 10 11  1  0
 11 12  1  0
M  RAD  1   2   2
M  END
>  <reaction>  (12) 
rxn_228

>  <mol_properties>  (12) 
{"1": {"label": "*3", "atom_type": "Cs"}, "2": {"label": "*4", "atom_type": "O2s"}, "6": {"label": "*2", "atom_type": "H0"}, "9": {"label": "*1", "atom_type": "O2s"}, "10": {"label": "*0", "atom_type": "O2s"}}

>  <type>  (12) 
unop_8

>  <geom_source>  (12) 
Heuristics

$$$$

     RDKit          3D

 12 10  0  0  0  0  0  0  0  0999 V2000
   -0.9192    0.3764   -1.4693 C   0  0  0  0  0  0  0  0  0  0  0  0
   -0.9192    0.3764    0.0482 C   0  0  0  0  0  3  0  0  0  0  0  0
   -0.9192    1.6796    0.5976 O   0  0  0  0  0  0  0  0  0  0  0  0
   -0.0631    0.9340   -1.8516 H   0  0  0  0  0  0  0  0  0  0  0  0
   -0.8707   -0.6442   -1.8545 H   0  0  0  0  0  0  0  0  0  0  0  0
   -1.8306    0.8366   -1.8605 H   0  0  0  0  0  0  0  0  0  0  0  0
    0.1686   -0.1944    0.5005 H   0  0  0  0  0  0  0  0  0  0  0  0
   -1.7714   -0.2033    0.4255 H   0  0  0  0  0  0  0  0  0  0  0  0
   -1.7011    2.1396    0.2885 H   0  0  0  0  0  0  0  0  0  0  0  0
    1.1285   -0.6982    0.8995 O   0  0  0  0  0  0  0  0  0  0  0  0
    1.4040   -1.6319   -0.1406 O   0  0  0  0  0  0  0  0  0  0  0  0
    2.3519   -1.5097   -0.2554 H   0  0  0  0  0  0  0  0  0  0  0  0
  1  2  1  0
  1  4  1  0
  1  5  1  0
  1  6  1  0
  2  3  1  0
  2  8  1  0
  3  9  1  0
  7 10  1  0
 10 11  1  0
 11 12  1  0
M  RAD  1   2   2
M  END
>  <reaction>  (13) 
rxn_228

>  <mol_properties>  (13) 
{"1": {"label": "*3", "atom_type": "Cs"}, "2": {"label": "*4", "atom_type": "O2s"}, "6": {"label": "*2", "atom_type": "H0"}, "9": {"label": "*1", "atom_type": "O2s"}, "10": {"label": "*0", "atom_type": "O2s"}}

>  <type>  (13) 
unop_9

>  <geom_source>  (13) 
Heuristics

$$$$

     RDKit          3D

 12 10  0  0  0  0  0  0  0  0999 V2000
   -1.0639   -0.0129   -1.5817 C   0  0  0  0  0  0  0  0  0  0  0  0
   -1.0639   -0.0129   -0.0642 C   0  0  0  0  0  3  0  0  0  0  0  0
   -1.0639    1.2903    0.4851 O   0  0  0  0  0  0  0  0  0  0  0  0
   -0.2079    0.5447   -1.9640 H   0  0  0  0  0  0  0  0  0  0  0  0
   -1.0155   -1.0335   -1.9669 H   0  0  0  0  0  0  0  0  0  0  0  0
   -1.9754    0.4473   -1.9729 H   0  0  0  0  0  0  0  0  0  0  0  0
    0.0238   -0.5837    0.3880 H   0  0  0  0  0  0  0  0  0  0  0  0
   -1.9161   -0.5926    0.3131 H   0  0  0  0  0  0  0  0  0  0  0  0
   -1.8459    1.7503    0.1761 H   0  0  0  0  0  0  0  0  0  0  0  0
    0.9837   -1.0874    0.7871 O   0  0  0  0  0  0  0  0  0  0  0  0
    1.9899   -0.2487    0.2270 O   0  0  0  0  0  0  0  0  0  0  0  0
    1.9660    0.5008    0.8306 H   0  0  0  0  0  0  0  0  0  0  0  0
  1  2  1  0
  1  4  1  0
  1  5  1  0
  1  6  1  0
  2  3  1  0
  2  8  1  0
  3  9  1  0
  7 10  1  0
 10 11  1  0
 11 12  1  0
M  RAD  1   2   2
M  END
>  <reaction>  (14) 
rxn_228

>  <mol_properties>  (14) 
{"1": {"label": "*3", "atom_type": "Cs"}, "2": {"label": "*4", "atom_type": "O2s"}, "6": {"label": "*2", "atom_type": "H0"}, "9": {"label": "*1", "atom_type": "O2s"}, "10": {"label": "*0", "atom_type": "O2s"}}

>  <type>  (14) 
unop_10

>  <geom_source>  (14) 
Heuristics

$$$$

     RDKit          3D

 12 10  0  0  0  0  0  0  0  0999 V2000
   -0.7538    0.3051   -1.9596 C   0  0  0  0  0  0  0  0  0  0  0  0
   -0.7538    0.3051   -0.4421 C   0  0  0  0  0  3  0  0  0  0  0  0
   -0.7538    1.6083    0.1072 O   0  0  0  0  0  0  0  0  0  0  0  0
    0.1023    0.8627   -2.3420 H   0  0  0  0  0  0  0  0  0  0  0  0
   -0.7053   -0.7155   -2.3449 H   0  0  0  0  0  0  0  0  0  0  0  0
   -1.6652    0.7653   -2.3508 H   0  0  0  0  0  0  0  0  0  0  0  0
    0.3340   -0.2657    0.0101 H   0  0  0  0  0  0  0  0  0  0  0  0
   -1.6060   -0.2746   -0.0649 H   0  0  0  0  0  0  0  0  0  0  0  0
   -1.5357    2.0683   -0.2019 H   0  0  0  0  0  0  0  0  0  0  0  0
    1.2939   -0.7695    0.4091 O   0  0  0  0  0  0  0  0  0  0  0  0
    0.8290   -1.3146    1.6405 O   0  0  0  0  0  0  0  0  0  0  0  0
    1.2973   -2.1554    1.6615 H   0  0  0  0  0  0  0  0  0  0  0  0
  1  2  1  0
  1  4  1  0
  1  5  1  0
  1  6  1  0
  2  3  1  0
  2  8  1  0
  3  9  1  0
  7 10  1  0
 10 11  1  0
 11 12  1  0
M  RAD  1   2   2
M  END
>  <reaction>  (15) 
rxn_228

>  <mol_properties>  (15) 
{"1": {"label": "*3", "atom_type": "Cs"}, "2": {"label": "*4", "atom_type": "O2s"}, "6": {"label": "*2", "atom_type": "H0"}, "9": {"label": "*1", "atom_type": "O2s"}, "10": {"label": "*0", "atom_type": "O2s"}}

>  <type>  (15) 
unop_11

>  <geom_source>  (15) 
Heuristics

$$$$

     RDKit          3D

 12 10  0  0  0  0  0  0  0  0999 V2000
   -0.9992    0.2442   -1.4335 C   0  0  0  0  0  0  0  0  0  0  0  0
   -0.9992    0.2442    0.0840 C   0  0  0  0  0  3  0  0  0  0  0  0
   -0.9992    1.5474    0.6334 O   0  0  0  0  0  0  0  0  0  0  0  0
   -0.1431    0.8017   -1.8158 H   0  0  0  0  0  0  0  0  0  0  0  0
   -0.9508   -0.7764   -1.8187 H   0  0  0  0  0  0  0  0  0  0  0  0
   -1.9106    0.7043   -1.8247 H   0  0  0  0  0  0  0  0  0  0  0  0
    0.0886   -0.3267    0.5362 H   0  0  0  0  0  0  0  0  0  0  0  0
   -1.8514   -0.3355    0.4613 H   0  0  0  0  0  0  0  0  0  0  0  0
   -1.7811    2.0074    0.3243 H   0  0  0  0  0  0  0  0  0  0  0  0
    1.0485   -0.8304    0.9353 O   0  0  0  0  0  0  0  0  0  0  0  0
    1.7060   -1.1755   -0.2806 O   0  0  0  0  0  0  0  0  0  0  0  0
    2.4857   -0.6126   -0.2378 H   0  0  0  0  0  0  0  0  0  0  0  0
  1  2  1  0
  1  4  1  0
  1  5  1  0
  1  6  1  0
  2  3  1  0
  2  8  1  0
  3  9  1  0
  7 10  1  0
 10 11  1  0
 11 12  1  0
M  RAD  1   2   2
M  END
>  <reaction>  (16) 
rxn_228

>  <mol_properties>  (16) 
{"1": {"label": "*3", "atom_type": "Cs"}, "2": {"label": "*4", "atom_type": "O2s"}, "6": {"label": "*2", "atom_type": "H0"}, "9": {"label": "*1", "atom_type": "O2s"}, "10": {"label": "*0", "atom_type": "O2s"}}

>  <type>  (16) 
unop_12

>  <geom_source>  (16) 
Heuristics

$$$$

     RDKit          3D

 12 10  0  0  0  0  0  0  0  0999 V2000
   -0.8400    1.3935   -0.9505 O   0  0  0  0  0  0  0  0  0  0  0  0
    2.7399    0.1480    0.7311 O   0  0  0  0  0  0  0  0  0  0  0  0
    1.5475   -0.3521    0.9772 O   0  0  0  0  0  1  0  0  0  0  0  0
   -1.5312   -0.5653    0.2278 C   0  0  0  0  0  0  0  0  0  0  0  0
   -0.3734    0.2089   -0.3784 C   0  0  0  0  0  0  0  0  0  0  0  0
   -2.0231    0.0470    1.0124 H   0  0  0  0  0  0  0  0  0  0  0  0
   -2.2725   -0.8223   -0.5585 H   0  0  0  0  0  0  0  0  0  0  0  0
   -1.1501   -1.5005    0.6880 H   0  0  0  0  0  0  0  0  0  0  0  0
    0.1289   -0.4072   -1.1547 H   0  0  0  0  0  0  0  0  0  0  0  0
   -0.1080    2.0460   -0.8093 H   0  0  0  0  0  0  0  0  0  0  0  0
    3.1426   -0.4770    0.0765 H   0  0  0  0  0  0  0  0  0  0  0  0
    0.7394    0.2811    0.1386 H   0  0  0  0  0  0  0  0  0  0  0  0
  1  5  1  0
  1 10  1  0
  2  3  1  0
  2 11  1  0
  4  5  1  0
  4  6  1  0
  4  7  1  0
  4  8  1  0
  5  9  1  0
  5 12  1  0
M  RAD  1   3   2
M  END
>  <reaction>  (17) 
rxn_228

>  <mol_properties>  (17) 
{"1": {"label": "*3", "atom_type": "Cs"}, "2": {"label": "*4", "atom_type": "O2s"}, "6": {"label": "*2", "atom_type": "H0"}, "9": {"label": "*1", "atom_type": "O2s"}, "10": {"label": "*0", "atom_type": "O2s"}}

>  <type>  (17) 
unop_13

>  <geom_source>  (17) 
AutoTST

$$$$
