
     RDKit          3D

 10  9  0  0  0  0  0  0  0  0999 V2000
   -1.1906   -0.0419   -0.0385 C   0  0  0  0  0  0  0  0  0  0  0  0
    0.2513    0.4500    0.0348 C   0  0  0  0  0  0  0  0  0  0  0  0
    1.2500   -0.5694    0.3278 N   0  0  0  0  0  0  0  0  0  0  0  0
   -1.4965   -0.4905    0.9100 H   0  0  0  0  0  0  0  0  0  0  0  0
   -1.3035   -0.7985   -0.8190 H   0  0  0  0  0  0  0  0  0  0  0  0
   -1.8789    0.7769   -0.2612 H   0  0  0  0  0  0  0  0  0  0  0  0
    0.3352    1.2278    0.7979 H   0  0  0  0  0  0  0  0  0  0  0  0
    0.5259    0.9233   -0.9113 H   0  0  0  0  0  0  0  0  0  0  0  0
    1.2298   -1.2971   -0.3752 H   0  0  0  0  0  0  0  0  0  0  0  0
    1.0523   -1.0138    1.2153 H   0  0  0  0  0  0  0  0  0  0  0  0
  1  2  1  0
  1  4  1  0
  1  5  1  0
  1  6  1  0
  2  3  1  0
  2  7  1  0
  2  8  1  0
  3  9  1  0
  3 10  1  0
M  END
>  <reaction>  (1) 
rxn_117

>  <mol_properties>  (1) 
{"0": {"label": "donator", "atom_type": "Cs"}, "3": {"label": "d_hydrogen", "atom_type": "H0"}}

>  <type>  (1) 
r1h

$$$$

     RDKit          3D

  3  2  0  0  0  0  0  0  0  0999 V2000
    0.0002    0.4233    0.0000 N   0  0  0  0  0  2  0  0  0  0  0  0
   -0.8051   -0.2112    0.0000 H   0  0  0  0  0  0  0  0  0  0  0  0
    0.8049   -0.2121    0.0000 H   0  0  0  0  0  0  0  0  0  0  0  0
  1  2  1  0
  1  3  1  0
M  RAD  1   1   2
M  END
>  <reaction>  (2) 
rxn_117

>  <mol_properties>  (2) 
{"0": {"label": "acceptor", "atom_type": "N3s"}}

>  <type>  (2) 
r2

$$$$

     RDKit          3D

  4  3  0  0  0  0  0  0  0  0999 V2000
    0.0006   -0.0009    0.2762 N   0  0  0  0  0  0  0  0  0  0  0  0
   -0.4188    0.8439   -0.0883 H   0  0  0  0  0  0  0  0  0  0  0  0
   -0.5215   -0.7840   -0.0936 H   0  0  0  0  0  0  0  0  0  0  0  0
    0.9397   -0.0590   -0.0943 H   0  0  0  0  0  0  0  0  0  0  0  0
  1  2  1  0
  1  3  1  0
  1  4  1  0
M  END
>  <reaction>  (3) 
rxn_117

>  <mol_properties>  (3) 
{"0": {"label": "a_hydrogen", "atom_type": "H0"}, "1": {"label": "acceptor", "atom_type": "N3s"}}

>  <type>  (3) 
r2h

$$$$

     RDKit          3D

 13 11  0  0  0  0  0  0  0  0999 V2000
    0.5198    0.1877    0.9482 C   0  0  0  0  0  0  0  0  0  0  0  0
    0.6020   -1.0885    0.1386 C   0  0  0  0  0  0  0  0  0  0  0  0
    0.6263   -0.9089   -1.3040 N   0  0  0  0  0  0  0  0  0  0  0  0
   -0.5377    0.7503    0.5057 H   0  0  0  0  0  0  0  0  0  0  0  0
    1.3145    0.9037    0.7346 H   0  0  0  0  0  0  0  0  0  0  0  0
    0.3829    0.0472    2.0203 H   0  0  0  0  0  0  0  0  0  0  0  0
   -0.2491   -1.7283    0.3855 H   0  0  0  0  0  0  0  0  0  0  0  0
    1.4961   -1.6501    0.4321 H   0  0  0  0  0  0  0  0  0  0  0  0
    1.4396   -0.3745   -1.5813 H   0  0  0  0  0  0  0  0  0  0  0  0
   -0.1889   -0.3805   -1.5922 H   0  0  0  0  0  0  0  0  0  0  0  0
   -1.6431    1.2900    0.0420 N   0  0  0  0  0  2  0  0  0  0  0  0
   -2.2748    1.0633    0.8121 H   0  0  0  0  0  0  0  0  0  0  0  0
   -1.4173    2.2764    0.1812 H   0  0  0  0  0  0  0  0  0  0  0  0
  1  2  1  0
  1  4  1  0
  1  5  1  0
  1  6  1  0
  2  3  1  0
  2  7  1  0
  2  8  1  0
  3  9  1  0
  3 10  1  0
 11 12  1  0
 11 13  1  0
M  RAD  1  11   2
M  END
>  <reaction>  (4) 
rxn_117

>  <mol_properties>  (4) 
{"0": {"label": "*1", "atom_type": "Cs"}, "1": {"label": "*0", "atom_type": "Cs"}, "3": {"label": "*2", "atom_type": "H0"}, "10": {"label": "*3", "atom_type": "N3s"}, "11": {"label": "*4", "atom_type": "H0"}}

>  <type>  (4) 
ts

$$$$

     RDKit          3D

 13 11  0  0  0  0  0  0  0  0999 V2000
    0.5345    0.2982    0.8636 C   0  0  0  0  0  3  0  0  0  0  0  0
    0.5345   -1.0774    0.2046 C   0  0  0  0  0  0  0  0  0  0  0  0
    0.5345   -1.0774   -1.2523 N   0  0  0  0  0  0  0  0  0  0  0  0
   -0.5255    0.9844    0.5096 H   0  0  0  0  0  0  0  0  0  0  0  0
    1.4179    0.8700    0.5686 H   0  0  0  0  0  0  0  0  0  0  0  0
    0.5345    0.2167    1.9531 H   0  0  0  0  0  0  0  0  0  0  0  0
   -0.3388   -1.6437    0.5378 H   0  0  0  0  0  0  0  0  0  0  0  0
    1.4078   -1.6437    0.5378 H   0  0  0  0  0  0  0  0  0  0  0  0
    1.3471   -0.5889   -1.6062 H   0  0  0  0  0  0  0  0  0  0  0  0
   -0.2781   -0.5889   -1.6062 H   0  0  0  0  0  0  0  0  0  0  0  0
   -1.5064    1.6193    0.1820 N   0  0  0  0  0  0  0  0  0  0  0  0
   -2.0238    1.8359    1.0234 H   0  0  0  0  0  0  0  0  0  0  0  0
   -0.7674    2.3076    0.2337 H   0  0  0  0  0  0  0  0  0  0  0  0
  1  2  1  0
  1  5  1  0
  1  6  1  0
  2  3  1  0
  2  7  1  0
  2  8  1  0
  3  9  1  0
  3 10  1  0
  4 11  1  0
 11 12  1  0
 11 13  1  0
M  RAD  1   1   2
M  END
>  <reaction>  (5) 
rxn_117

>  <mol_properties>  (5) 
{"0": {"label": "*1", "atom_type": "Cs"}, "1": {"label": "*0", "atom_type": "Cs"}, "3": {"label": "*2", "atom_type": "H0"}, "10": {"label": "*3", "atom_type": "N3s"}, "11": {"label": "*4", "atom_type": "H0"}}

>  <type>  (5) 
unop_1

>  <geom_source>  (5) 
Heuristics

$$$$

     RDKit          3D

 13 11  0  0  0  0  0  0  0  0999 V2000
    0.5473    0.3195    0.8655 C   0  0  0  0  0  3  0  0  0  0  0  0
    0.5473   -1.0561    0.2065 C   0  0  0  0  0  0  0  0  0  0  0  0
    0.5473   -1.0561   -1.2504 N   0  0  0  0  0  0  0  0  0  0  0  0
   -0.5127    1.0057    0.5115 H   0  0  0  0  0  0  0  0  0  0  0  0
    1.4307    0.8913    0.5705 H   0  0  0  0  0  0  0  0  0  0  0  0
    0.5473    0.2381    1.9550 H   0  0  0  0  0  0  0  0  0  0  0  0
   -0.3260   -1.6224    0.5397 H   0  0  0  0  0  0  0  0  0  0  0  0
    1.4206   -1.6224    0.5397 H   0  0  0  0  0  0  0  0  0  0  0  0
    1.3599   -0.5676   -1.6043 H   0  0  0  0  0  0  0  0  0  0  0  0
   -0.2653   -0.5676   -1.6043 H   0  0  0  0  0  0  0  0  0  0  0  0
   -1.4936    1.6406    0.1839 N   0  0  0  0  0  0  0  0  0  0  0  0
   -2.2383    0.9801    0.0060 H   0  0  0  0  0  0  0  0  0  0  0  0
   -1.3025    1.9125    1.1390 H   0  0  0  0  0  0  0  0  0  0  0  0
  1  2  1  0
  1  5  1  0
  1  6  1  0
  2  3  1  0
  2  7  1  0
  2  8  1  0
  3  9  1  0
  3 10  1  0
  4 11  1  0
 11 12  1  0
 11 13  1  0
M  RAD  1   1   2
M  END
>  <reaction>  (6) 
rxn_117

>  <mol_properties>  (6) 
{"0": {"label": "*1", "atom_type": "Cs"}, "1": {"label": "*0", "atom_type": "Cs"}, "3": {"label": "*2", "atom_type": "H0"}, "10": {"label": "*3", "atom_type": "N3s"}, "11": {"label": "*4", "atom_type": "H0"}}

>  <type>  (6) 
unop_2

>  <geom_source>  (6) 
Heuristics

$$$$

     RDKit          3D

 13 11  0  0  0  0  0  0  0  0999 V2000
    0.5324    0.2914    0.8730 C   0  0  0  0  0  3  0  0  0  0  0  0
    0.5324   -1.0842    0.2140 C   0  0  0  0  0  0  0  0  0  0  0  0
    0.5324   -1.0842   -1.2429 N   0  0  0  0  0  0  0  0  0  0  0  0
   -0.5277    0.9776    0.5189 H   0  0  0  0  0  0  0  0  0  0  0  0
    1.4157    0.8632    0.5780 H   0  0  0  0  0  0  0  0  0  0  0  0
    0.5324    0.2099    1.9625 H   0  0  0  0  0  0  0  0  0  0  0  0
   -0.3409   -1.6505    0.5472 H   0  0  0  0  0  0  0  0  0  0  0  0
    1.4056   -1.6505    0.5472 H   0  0  0  0  0  0  0  0  0  0  0  0
    1.3450   -0.5957   -1.5969 H   0  0  0  0  0  0  0  0  0  0  0  0
   -0.2802   -0.5957   -1.5969 H   0  0  0  0  0  0  0  0  0  0  0  0
   -1.5085    1.6125    0.1913 N   0  0  0  0  0  0  0  0  0  0  0  0
   -1.7403    2.2313    0.9568 H   0  0  0  0  0  0  0  0  0  0  0  0
   -0.9236    2.3100   -0.2490 H   0  0  0  0  0  0  0  0  0  0  0  0
  1  2  1  0
  1  5  1  0
  1  6  1  0
  2  3  1  0
  2  7  1  0
  2  8  1  0
  3  9  1  0
  3 10  1  0
  4 11  1  0
 11 12  1  0
 11 13  1  0
M  RAD  1   1   2
M  END
>  <reaction>  (7) 
rxn_117

>  <mol_properties>  (7) 
{"0": {"label": "*1", "atom_type": "Cs"}, "1": {"label": "*0", "atom_type": "Cs"}, "3": {"label": "*2", "atom_type": "H0"}, "10": {"label": "*3", "atom_type": "N3s"}, "11": {"label": "*4", "atom_type": "H0"}}

>  <type>  (7) 
unop_3

>  <geom_source>  (7) 
Heuristics

$$$$

     RDKit          3D

 13 11  0  0  0  0  0  0  0  0999 V2000
    0.5529    0.3141    0.8884 C   0  0  0  0  0  3  0  0  0  0  0  0
    0.5529   -1.0614    0.2294 C   0  0  0  0  0  0  0  0  0  0  0  0
    0.5529   -1.0614   -1.2275 N   0  0  0  0  0  0  0  0  0  0  0  0
   -0.5072    1.0003    0.5343 H   0  0  0  0  0  0  0  0  0  0  0  0
    1.4362    0.8860    0.5933 H   0  0  0  0  0  0  0  0  0  0  0  0
    0.5529    0.2327    1.9779 H   0  0  0  0  0  0  0  0  0  0  0  0
   -0.3204   -1.6277    0.5626 H   0  0  0  0  0  0  0  0  0  0  0  0
    1.4262   -1.6277    0.5626 H   0  0  0  0  0  0  0  0  0  0  0  0
    1.3655   -0.5729   -1.5815 H   0  0  0  0  0  0  0  0  0  0  0  0
   -0.2597   -0.5729   -1.5815 H   0  0  0  0  0  0  0  0  0  0  0  0
   -1.4880    1.6353    0.2067 N   0  0  0  0  0  0  0  0  0  0  0  0
   -1.4627    1.7372   -0.7990 H   0  0  0  0  0  0  0  0  0  0  0  0
   -2.4026    1.4697    0.6051 H   0  0  0  0  0  0  0  0  0  0  0  0
  1  2  1  0
  1  5  1  0
  1  6  1  0
  2  3  1  0
  2  7  1  0
  2  8  1  0
  3  9  1  0
  3 10  1  0
  4 11  1  0
 11 12  1  0
 11 13  1  0
M  RAD  1   1   2
M  END
>  <reaction>  (8) 
rxn_117

>  <mol_properties>  (8) 
{"0": {"label": "*1", "atom_type": "Cs"}, "1": {"label": "*0", "atom_type": "Cs"}, "3": {"label": "*2", "atom_type": "H0"}, "10": {"label": "*3", "atom_type": "N3s"}, "11": {"label": "*4", "atom_type": "H0"}}

>  <type>  (8) 
unop_4

>  <geom_source>  (8) 
Heuristics

$$$$

     RDKit          3D

 13 11  0  0  0  0  0  0  0  0999 V2000
    0.5374    0.2902    0.8853 C   0  0  0  0  0  3  0  0  0  0  0  0
    0.5374   -1.0854    0.2263 C   0  0  0  0  0  0  0  0  0  0  0  0
    0.5374   -1.0854   -1.2306 N   0  0  0  0  0  0  0  0  0  0  0  0
   -0.5226    0.9764    0.5313 H   0  0  0  0  0  0  0  0  0  0  0  0
    1.4208    0.8620    0.5903 H   0  0  0  0  0  0  0  0  0  0  0  0
    0.5374    0.2088    1.9748 H   0  0  0  0  0  0  0  0  0  0  0  0
   -0.3358   -1.6517    0.5595 H   0  0  0  0  0  0  0  0  0  0  0  0
    1.4107   -1.6517    0.5595 H   0  0  0  0  0  0  0  0  0  0  0  0
    1.3500   -0.5969   -1.5845 H   0  0  0  0  0  0  0  0  0  0  0  0
   -0.2752   -0.5969   -1.5845 H   0  0  0  0  0  0  0  0  0  0  0  0
   -1.5035    1.6113    0.2037 N   0  0  0  0  0  0  0  0  0  0  0  0
   -1.4533    2.5092    0.6661 H   0  0  0  0  0  0  0  0  0  0  0  0
   -1.5087    2.1004   -0.6814 H   0  0  0  0  0  0  0  0  0  0  0  0
  1  2  1  0
  1  5  1  0
  1  6  1  0
  2  3  1  0
  2  7  1  0
  2  8  1  0
  3  9  1  0
  3 10  1  0
  4 11  1  0
 11 12  1  0
 11 13  1  0
M  RAD  1   1   2
M  END
>  <reaction>  (9) 
rxn_117

>  <mol_properties>  (9) 
{"0": {"label": "*1", "atom_type": "Cs"}, "1": {"label": "*0", "atom_type": "Cs"}, "3": {"label": "*2", "atom_type": "H0"}, "10": {"label": "*3", "atom_type": "N3s"}, "11": {"label": "*4", "atom_type": "H0"}}

>  <type>  (9) 
unop_5

>  <geom_source>  (9) 
Heuristics

$$$$

     RDKit          3D

 13 11  0  0  0  0  0  0  0  0999 V2000
    0.5508    0.3069    0.8917 C   0  0  0  0  0  3  0  0  0  0  0  0
    0.5508   -1.0687    0.2327 C   0  0  0  0  0  0  0  0  0  0  0  0
    0.5508   -1.0687   -1.2242 N   0  0  0  0  0  0  0  0  0  0  0  0
   -0.5093    0.9931    0.5376 H   0  0  0  0  0  0  0  0  0  0  0  0
    1.4341    0.8787    0.5966 H   0  0  0  0  0  0  0  0  0  0  0  0
    0.5508    0.2255    1.9812 H   0  0  0  0  0  0  0  0  0  0  0  0
   -0.3225   -1.6350    0.5659 H   0  0  0  0  0  0  0  0  0  0  0  0
    1.4241   -1.6350    0.5659 H   0  0  0  0  0  0  0  0  0  0  0  0
    1.3634   -0.5802   -1.5782 H   0  0  0  0  0  0  0  0  0  0  0  0
   -0.2618   -0.5802   -1.5782 H   0  0  0  0  0  0  0  0  0  0  0  0
   -1.4901    1.6280    0.2100 N   0  0  0  0  0  0  0  0  0  0  0  0
   -1.2518    2.1476   -0.6242 H   0  0  0  0  0  0  0  0  0  0  0  0
   -2.4906    1.4838    0.2383 H   0  0  0  0  0  0  0  0  0  0  0  0
  1  2  1  0
  1  5  1  0
  1  6  1  0
  2  3  1  0
  2  7  1  0
  2  8  1  0
  3  9  1  0
  3 10  1  0
  4 11  1  0
 11 12  1  0
 11 13  1  0
M  RAD  1   1   2
M  END
>  <reaction>  (10) 
rxn_117

>  <mol_properties>  (10) 
{"0": {"label": "*1", "atom_type": "Cs"}, "1": {"label": "*0", "atom_type": "Cs"}, "3": {"label": "*2", "atom_type": "H0"}, "10": {"label": "*3", "atom_type": "N3s"}, "11": {"label": "*4", "atom_type": "H0"}}

>  <type>  (10) 
unop_6

>  <geom_source>  (10) 
Heuristics

$$$$

     RDKit          3D

 13 11  0  0  0  0  0  0  0  0999 V2000
    0.5485    0.3001    0.8917 C   0  0  0  0  0  3  0  0  0  0  0  0
    0.5485   -1.0754    0.2327 C   0  0  0  0  0  0  0  0  0  0  0  0
    0.5485   -1.0754   -1.2242 N   0  0  0  0  0  0  0  0  0  0  0  0
   -0.5115    0.9863    0.5377 H   0  0  0  0  0  0  0  0  0  0  0  0
    1.4319    0.8720    0.5967 H   0  0  0  0  0  0  0  0  0  0  0  0
    0.5485    0.2187    1.9812 H   0  0  0  0  0  0  0  0  0  0  0  0
   -0.3248   -1.6417    0.5659 H   0  0  0  0  0  0  0  0  0  0  0  0
    1.4218   -1.6417    0.5659 H   0  0  0  0  0  0  0  0  0  0  0  0
    1.3611   -0.5870   -1.5781 H   0  0  0  0  0  0  0  0  0  0  0  0
   -0.2641   -0.5870   -1.5781 H   0  0  0  0  0  0  0  0  0  0  0  0
   -1.4924    1.6212    0.2101 N   0  0  0  0  0  0  0  0  0  0  0  0
   -1.1709    2.4618   -0.2510 H   0  0  0  0  0  0  0  0  0  0  0  0
   -2.4399    1.5664   -0.1390 H   0  0  0  0  0  0  0  0  0  0  0  0
  1  2  1  0
  1  5  1  0
  1  6  1  0
  2  3  1  0
  2  7  1  0
  2  8  1  0
  3  9  1  0
  3 10  1  0
  4 11  1  0
 11 12  1  0
 11 13  1  0
M  RAD  1   1   2
M  END
>  <reaction>  (11) 
rxn_117

>  <mol_properties>  (11) 
{"0": {"label": "*1", "atom_type": "Cs"}, "1": {"label": "*0", "atom_type": "Cs"}, "3": {"label": "*2", "atom_type": "H0"}, "10": {"label": "*3", "atom_type": "N3s"}, "11": {"label": "*4", "atom_type": "H0"}}

>  <type>  (11) 
unop_7

>  <geom_source>  (11) 
Heuristics

$$$$

     RDKit          3D

 13 11  0  0  0  0  0  0  0  0999 V2000
    0.5388    0.3065    0.8602 C   0  0  0  0  0  3  0  0  0  0  0  0
    0.5388   -1.0691    0.2012 C   0  0  0  0  0  0  0  0  0  0  0  0
    0.5388   -1.0691   -1.2557 N   0  0  0  0  0  0  0  0  0  0  0  0
   -0.5212    0.9927    0.5062 H   0  0  0  0  0  0  0  0  0  0  0  0
    1.4222    0.8783    0.5652 H   0  0  0  0  0  0  0  0  0  0  0  0
    0.5389    0.2251    1.9497 H   0  0  0  0  0  0  0  0  0  0  0  0
   -0.3344   -1.6354    0.5344 H   0  0  0  0  0  0  0  0  0  0  0  0
    1.4121   -1.6354    0.5344 H   0  0  0  0  0  0  0  0  0  0  0  0
    1.3514   -0.5806   -1.6096 H   0  0  0  0  0  0  0  0  0  0  0  0
   -0.2738   -0.5806   -1.6096 H   0  0  0  0  0  0  0  0  0  0  0  0
   -1.5021    1.6276    0.1786 N   0  0  0  0  0  0  0  0  0  0  0  0
   -2.2325    1.4266    0.8484 H   0  0  0  0  0  0  0  0  0  0  0  0
   -0.8117    2.2285    0.6086 H   0  0  0  0  0  0  0  0  0  0  0  0
  1  2  1  0
  1  5  1  0
  1  6  1  0
  2  3  1  0
  2  7  1  0
  2  8  1  0
  3  9  1  0
  3 10  1  0
  4 11  1  0
 11 12  1  0
 11 13  1  0
M  RAD  1   1   2
M  END
>  <reaction>  (12) 
rxn_117

>  <mol_properties>  (12) 
{"0": {"label": "*1", "atom_type": "Cs"}, "1": {"label": "*0", "atom_type": "Cs"}, "3": {"label": "*2", "atom_type": "H0"}, "10": {"label": "*3", "atom_type": "N3s"}, "11": {"label": "*4", "atom_type": "H0"}}

>  <type>  (12) 
unop_8

>  <geom_source>  (12) 
Heuristics

$$$$

     RDKit          3D

 13 11  0  0  0  0  0  0  0  0999 V2000
    0.5535    0.3198    0.8813 C   0  0  0  0  0  3  0  0  0  0  0  0
    0.5535   -1.0557    0.2223 C   0  0  0  0  0  0  0  0  0  0  0  0
    0.5535   -1.0557   -1.2346 N   0  0  0  0  0  0  0  0  0  0  0  0
   -0.5065    1.0060    0.5273 H   0  0  0  0  0  0  0  0  0  0  0  0
    1.4369    0.8916    0.5863 H   0  0  0  0  0  0  0  0  0  0  0  0
    0.5535    0.2384    1.9708 H   0  0  0  0  0  0  0  0  0  0  0  0
   -0.3198   -1.6221    0.5555 H   0  0  0  0  0  0  0  0  0  0  0  0
    1.4268   -1.6221    0.5555 H   0  0  0  0  0  0  0  0  0  0  0  0
    1.3661   -0.5673   -1.5885 H   0  0  0  0  0  0  0  0  0  0  0  0
   -0.2591   -0.5673   -1.5885 H   0  0  0  0  0  0  0  0  0  0  0  0
   -1.4874    1.6409    0.1997 N   0  0  0  0  0  0  0  0  0  0  0  0
   -1.7478    1.3407   -0.7302 H   0  0  0  0  0  0  0  0  0  0  0  0
   -2.1563    1.5338    0.9504 H   0  0  0  0  0  0  0  0  0  0  0  0
  1  2  1  0
  1  5  1  0
  1  6  1  0
  2  3  1  0
  2  7  1  0
  2  8  1  0
  3  9  1  0
  3 10  1  0
  4 11  1  0
 11 12  1  0
 11 13  1  0
M  RAD  1   1   2
M  END
>  <reaction>  (13) 
rxn_117

>  <mol_properties>  (13) 
{"0": {"label": "*1", "atom_type": "Cs"}, "1": {"label": "*0", "atom_type": "Cs"}, "3": {"label": "*2", "atom_type": "H0"}, "10": {"label": "*3", "atom_type": "N3s"}, "11": {"label": "*4", "atom_type": "H0"}}

>  <type>  (13) 
unop_9

>  <geom_source>  (13) 
Heuristics

$$$$

     RDKit          3D

 13 11  0  0  0  0  0  0  0  0999 V2000
    0.5431    0.3141    0.8613 C   0  0  0  0  0  3  0  0  0  0  0  0
    0.5431   -1.0615    0.2023 C   0  0  0  0  0  0  0  0  0  0  0  0
    0.5431   -1.0615   -1.2546 N   0  0  0  0  0  0  0  0  0  0  0  0
   -0.5169    1.0003    0.5072 H   0  0  0  0  0  0  0  0  0  0  0  0
    1.4265    0.8859    0.5662 H   0  0  0  0  0  0  0  0  0  0  0  0
    0.5431    0.2326    1.9508 H   0  0  0  0  0  0  0  0  0  0  0  0
   -0.3301   -1.6278    0.5355 H   0  0  0  0  0  0  0  0  0  0  0  0
    1.4164   -1.6278    0.5355 H   0  0  0  0  0  0  0  0  0  0  0  0
    1.3557   -0.5730   -1.6086 H   0  0  0  0  0  0  0  0  0  0  0  0
   -0.2695   -0.5730   -1.6086 H   0  0  0  0  0  0  0  0  0  0  0  0
   -1.4978    1.6352    0.1796 N   0  0  0  0  0  0  0  0  0  0  0  0
   -2.3114    1.1131    0.4764 H   0  0  0  0  0  0  0  0  0  0  0  0
   -0.9845    2.0988    0.9173 H   0  0  0  0  0  0  0  0  0  0  0  0
  1  2  1  0
  1  5  1  0
  1  6  1  0
  2  3  1  0
  2  7  1  0
  2  8  1  0
  3  9  1  0
  3 10  1  0
  4 11  1  0
 11 12  1  0
 11 13  1  0
M  RAD  1   1   2
M  END
>  <reaction>  (14) 
rxn_117

>  <mol_properties>  (14) 
{"0": {"label": "*1", "atom_type": "Cs"}, "1": {"label": "*0", "atom_type": "Cs"}, "3": {"label": "*2", "atom_type": "H0"}, "10": {"label": "*3", "atom_type": "N3s"}, "11": {"label": "*4", "atom_type": "H0"}}

>  <type>  (14) 
unop_10

>  <geom_source>  (14) 
Heuristics

$$$$

     RDKit          3D

 13 11  0  0  0  0  0  0  0  0999 V2000
    0.5452    0.2946    0.8903 C   0  0  0  0  0  3  0  0  0  0  0  0
    0.5452   -1.0810    0.2313 C   0  0  0  0  0  0  0  0  0  0  0  0
    0.5452   -1.0810   -1.2256 N   0  0  0  0  0  0  0  0  0  0  0  0
   -0.5149    0.9808    0.5363 H   0  0  0  0  0  0  0  0  0  0  0  0
    1.4285    0.8664    0.5953 H   0  0  0  0  0  0  0  0  0  0  0  0
    0.5452    0.2131    1.9799 H   0  0  0  0  0  0  0  0  0  0  0  0
   -0.3281   -1.6473    0.5645 H   0  0  0  0  0  0  0  0  0  0  0  0
    1.4184   -1.6473    0.5645 H   0  0  0  0  0  0  0  0  0  0  0  0
    1.3578   -0.5925   -1.5795 H   0  0  0  0  0  0  0  0  0  0  0  0
   -0.2674   -0.5925   -1.5795 H   0  0  0  0  0  0  0  0  0  0  0  0
   -1.4958    1.6157    0.2087 N   0  0  0  0  0  0  0  0  0  0  0  0
   -1.2431    2.5948    0.2222 H   0  0  0  0  0  0  0  0  0  0  0  0
   -2.1705    1.7582   -0.5309 H   0  0  0  0  0  0  0  0  0  0  0  0
  1  2  1  0
  1  5  1  0
  1  6  1  0
  2  3  1  0
  2  7  1  0
  2  8  1  0
  3  9  1  0
  3 10  1  0
  4 11  1  0
 11 12  1  0
 11 13  1  0
M  RAD  1   1   2
M  END
>  <reaction>  (15) 
rxn_117

>  <mol_properties>  (15) 
{"0": {"label": "*1", "atom_type": "Cs"}, "1": {"label": "*0", "atom_type": "Cs"}, "3": {"label": "*2", "atom_type": "H0"}, "10": {"label": "*3", "atom_type": "N3s"}, "11": {"label": "*4", "atom_type": "H0"}}

>  <type>  (15) 
unop_11

>  <geom_source>  (15) 
Heuristics

$$$$

     RDKit          3D

 13 11  0  0  0  0  0  0  0  0999 V2000
    0.5514    0.3218    0.8726 C   0  0  0  0  0  3  0  0  0  0  0  0
    0.5514   -1.0538    0.2136 C   0  0  0  0  0  0  0  0  0  0  0  0
    0.5514   -1.0538   -1.2433 N   0  0  0  0  0  0  0  0  0  0  0  0
   -0.5087    1.0080    0.5185 H   0  0  0  0  0  0  0  0  0  0  0  0
    1.4347    0.8936    0.5775 H   0  0  0  0  0  0  0  0  0  0  0  0
    0.5514    0.2403    1.9621 H   0  0  0  0  0  0  0  0  0  0  0  0
   -0.3219   -1.6201    0.5468 H   0  0  0  0  0  0  0  0  0  0  0  0
    1.4246   -1.6201    0.5468 H   0  0  0  0  0  0  0  0  0  0  0  0
    1.3640   -0.5653   -1.5973 H   0  0  0  0  0  0  0  0  0  0  0  0
   -0.2612   -0.5653   -1.5973 H   0  0  0  0  0  0  0  0  0  0  0  0
   -1.4895    1.6429    0.1909 N   0  0  0  0  0  0  0  0  0  0  0  0
   -2.0318    1.0636   -0.4359 H   0  0  0  0  0  0  0  0  0  0  0  0
   -1.7452    1.6962    1.1679 H   0  0  0  0  0  0  0  0  0  0  0  0
  1  2  1  0
  1  5  1  0
  1  6  1  0
  2  3  1  0
  2  7  1  0
  2  8  1  0
  3  9  1  0
  3 10  1  0
  4 11  1  0
 11 12  1  0
 11 13  1  0
M  RAD  1   1   2
M  END
>  <reaction>  (16) 
rxn_117

>  <mol_properties>  (16) 
{"0": {"label": "*1", "atom_type": "Cs"}, "1": {"label": "*0", "atom_type": "Cs"}, "3": {"label": "*2", "atom_type": "H0"}, "10": {"label": "*3", "atom_type": "N3s"}, "11": {"label": "*4", "atom_type": "H0"}}

>  <type>  (16) 
unop_12

>  <geom_source>  (16) 
Heuristics

$$$$
