
     RDKit          3D

 12 11  0  0  0  0  0  0  0  0999 V2000
    1.9877    0.1011    0.4814 C   0  0  0  0  0  0  0  0  0  0  0  0
    0.8179    0.5502    0.0525 C   0  0  0  0  0  0  0  0  0  0  0  0
   -0.2939   -0.2692   -0.5320 C   0  0  0  0  0  0  0  0  0  0  0  0
   -0.0292   -1.7631   -0.6328 C   0  0  0  0  0  0  0  0  0  0  0  0
    2.2522   -0.9490    0.4436 H   0  0  0  0  0  0  0  0  0  0  0  0
    2.7295    0.7757    0.8896 H   0  0  0  0  0  0  0  0  0  0  0  0
    0.6162    1.6164    0.1190 H   0  0  0  0  0  0  0  0  0  0  0  0
   -0.5268    0.1319   -1.5245 H   0  0  0  0  0  0  0  0  0  0  0  0
   -1.1959   -0.0938    0.0644 H   0  0  0  0  0  0  0  0  0  0  0  0
    0.1590   -2.1992    0.3502 H   0  0  0  0  0  0  0  0  0  0  0  0
    0.8382   -1.9701   -1.2626 H   0  0  0  0  0  0  0  0  0  0  0  0
   -0.8879   -2.2759   -1.0672 H   0  0  0  0  0  0  0  0  0  0  0  0
  1  2  2  3
  1  5  1  0
  1  6  1  0
  2  3  1  0
  2  7  1  0
  3  4  1  0
  3  8  1  0
  3  9  1  0
  4 10  1  0
  4 11  1  0
  4 12  1  0
M  END
>  <reaction>  (1) 
rxn_1058

>  <mol_properties>  (1) 
{"2": {"label": "donator", "atom_type": "Cs"}, "7": {"label": "d_hydrogen", "atom_type": "H0"}}

>  <type>  (1) 
r1h

$$$$

     RDKit          3D

  7  6  0  0  0  0  0  0  0  0999 V2000
    1.3002    0.7433    2.1279 C   0  0  0  0  0  0  0  0  0  0  0  0
    0.5758    0.3292    1.2319 C   0  0  0  0  0  0  0  0  0  0  0  0
   -0.2057   -0.1176    0.2652 C   0  0  0  0  0  3  0  0  0  0  0  0
   -0.9747   -0.5572   -0.6858 C   0  0  0  0  0  0  0  0  0  0  0  0
    1.9293    1.1030    2.9060 H   0  0  0  0  0  0  0  0  0  0  0  0
   -1.9977   -0.8727   -0.4932 H   0  0  0  0  0  0  0  0  0  0  0  0
   -0.6274   -0.6280   -1.7143 H   0  0  0  0  0  0  0  0  0  0  0  0
  1  2  3  0
  1  5  1  0
  2  3  1  0
  3  4  2  3
  4  6  1  0
  4  7  1  0
M  RAD  1   3   2
M  END
>  <reaction>  (2) 
rxn_1058

>  <mol_properties>  (2) 
{"2": {"label": "acceptor", "atom_type": "Cd"}}

>  <type>  (2) 
r2

$$$$

     RDKit          3D

  8  7  0  0  0  0  0  0  0  0999 V2000
    1.9029    0.9046   -0.2050 C   0  0  0  0  0  0  0  0  0  0  0  0
    0.8517    0.4283    0.1217 C   0  0  0  0  0  0  0  0  0  0  0  0
   -0.3908   -0.1311    0.5404 C   0  0  0  0  0  0  0  0  0  0  0  0
   -1.2847   -0.6576   -0.2899 C   0  0  0  0  0  0  0  0  0  0  0  0
    2.8335    1.3255   -0.5014 H   0  0  0  0  0  0  0  0  0  0  0  0
   -0.5867   -0.1096    1.6074 H   0  0  0  0  0  0  0  0  0  0  0  0
   -2.2126   -1.0686    0.0850 H   0  0  0  0  0  0  0  0  0  0  0  0
   -1.1134   -0.6914   -1.3582 H   0  0  0  0  0  0  0  0  0  0  0  0
  1  2  3  0
  1  5  1  0
  2  3  1  0
  3  4  2  3
  3  6  1  0
  4  7  1  0
  4  8  1  0
M  END
>  <reaction>  (3) 
rxn_1058

>  <mol_properties>  (3) 
{"2": {"label": "acceptor", "atom_type": "Cd"}, "7": {"label": "a_hydrogen", "atom_type": "H0"}}

>  <type>  (3) 
r2h

$$$$

     RDKit          3D

 19 17  0  0  0  0  0  0  0  0999 V2000
    1.0331    1.6676    2.8529 C   0  0  0  0  0  0  0  0  0  0  0  0
    1.0556    0.8164    1.9985 C   0  0  0  0  0  0  0  0  0  0  0  0
    0.9532   -0.1187    0.9783 C   0  0  0  0  0  3  0  0  0  0  0  0
    1.7346   -1.0583    0.4870 C   0  0  0  0  0  0  0  0  0  0  0  0
    1.0409    2.4091    3.6151 H   0  0  0  0  0  0  0  0  0  0  0  0
    2.7233   -1.2545    0.8918 H   0  0  0  0  0  0  0  0  0  0  0  0
    1.4043   -1.6662   -0.3492 H   0  0  0  0  0  0  0  0  0  0  0  0
   -0.9707   -1.4059   -2.5376 C   0  0  0  0  0  0  0  0  0  0  0  0
   -1.3124   -1.2347   -1.2606 C   0  0  0  0  0  0  0  0  0  0  0  0
   -1.2774    0.0314   -0.5175 C   0  0  0  0  0  0  0  0  0  0  0  0
   -1.0556    1.3140   -1.2812 C   0  0  0  0  0  0  0  0  0  0  0  0
   -0.6579   -0.5800   -3.1650 H   0  0  0  0  0  0  0  0  0  0  0  0
   -1.0068   -2.3843   -2.9988 H   0  0  0  0  0  0  0  0  0  0  0  0
   -1.6231   -2.1042   -0.6878 H   0  0  0  0  0  0  0  0  0  0  0  0
   -0.2824   -0.0565    0.2539 H   0  0  0  0  0  0  0  0  0  0  0  0
   -2.0821    0.1012    0.2157 H   0  0  0  0  0  0  0  0  0  0  0  0
   -1.8707    1.5004   -1.9856 H   0  0  0  0  0  0  0  0  0  0  0  0
   -0.1232    1.2809   -1.8477 H   0  0  0  0  0  0  0  0  0  0  0  0
   -0.9972    2.1605   -0.5966 H   0  0  0  0  0  0  0  0  0  0  0  0
  1  2  3  0
  1  5  1  0
  2  3  1  0
  3  4  2  3
  4  6  1  0
  4  7  1  0
  8  9  2  3
  8 12  1  0
  8 13  1  0
  9 10  1  0
  9 14  1  0
 10 11  1  0
 10 15  1  0
 10 16  1  0
 11 17  1  0
 11 18  1  0
 11 19  1  0
M  RAD  1   3   2
M  END
>  <reaction>  (4) 
rxn_1058

>  <mol_properties>  (4) 
{"1": {"label": "*4", "atom_type": "Ct"}, "2": {"label": "*3", "atom_type": "Cd"}, "8": {"label": "*0", "atom_type": "Cd"}, "9": {"label": "*1", "atom_type": "Cs"}, "14": {"label": "*2", "atom_type": "H0"}}

>  <type>  (4) 
ts

$$$$

     RDKit          3D

 19 17  0  0  0  0  0  0  0  0999 V2000
    2.5488    1.7047    1.0058 C   0  0  0  0  0  0  0  0  0  0  0  0
    1.7599    0.8072    1.1090 C   0  0  0  0  0  0  0  0  0  0  0  0
    0.8194   -0.2602    1.2000 C   0  0  0  0  0  0  0  0  0  0  0  0
    0.4164   -0.7982    2.3463 C   0  0  0  0  0  0  0  0  0  0  0  0
    3.2484    2.5004    0.9143 H   0  0  0  0  0  0  0  0  0  0  0  0
    0.7902   -0.4456    3.2990 H   0  0  0  0  0  0  0  0  0  0  0  0
   -0.3010   -1.6080    2.3548 H   0  0  0  0  0  0  0  0  0  0  0  0
   -1.2571   -1.3024   -2.6016 C   0  0  0  0  0  0  0  0  0  0  0  0
   -1.2571   -1.3024   -1.2773 C   0  0  0  0  0  0  0  0  0  0  0  0
   -1.2571   -0.0979   -0.3838 C   0  0  0  0  0  3  0  0  0  0  0  0
   -1.2571    1.2479   -1.0915 C   0  0  0  0  0  0  0  0  0  0  0  0
   -1.2571   -0.3855   -3.1791 H   0  0  0  0  0  0  0  0  0  0  0  0
   -1.2571   -2.2297   -3.1603 H   0  0  0  0  0  0  0  0  0  0  0  0
   -1.2571   -2.2581   -0.7591 H   0  0  0  0  0  0  0  0  0  0  0  0
   -0.2138   -0.1795    0.4119 H   0  0  0  0  0  0  0  0  0  0  0  0
   -2.1265   -0.1659    0.2793 H   0  0  0  0  0  0  0  0  0  0  0  0
   -2.1395    1.3629   -1.7240 H   0  0  0  0  0  0  0  0  0  0  0  0
   -0.3746    1.3629   -1.7240 H   0  0  0  0  0  0  0  0  0  0  0  0
   -1.2571    2.0622   -0.3662 H   0  0  0  0  0  0  0  0  0  0  0  0
  1  2  3  0
  1  5  1  0
  2  3  1  0
  3  4  2  3
  3 15  1  0
  4  6  1  0
  4  7  1  0
  8  9  2  3
  8 12  1  0
  8 13  1  0
  9 10  1  0
  9 14  1  0
 10 11  1  0
 10 16  1  0
 11 17  1  0
 11 18  1  0
 11 19  1  0
M  RAD  1  10   2
M  END
>  <reaction>  (5) 
rxn_1058

>  <mol_properties>  (5) 
{"1": {"label": "*4", "atom_type": "Ct"}, "2": {"label": "*3", "atom_type": "Cd"}, "8": {"label": "*0", "atom_type": "Cd"}, "9": {"label": "*1", "atom_type": "Cs"}, "14": {"label": "*2", "atom_type": "H0"}}

>  <type>  (5) 
unop_1

>  <geom_source>  (5) 
Heuristics

$$$$

     RDKit          3D

 19 17  0  0  0  0  0  0  0  0999 V2000
    2.7689   -1.1118    0.3731 C   0  0  0  0  0  0  0  0  0  0  0  0
    1.8284   -0.5284    0.8352 C   0  0  0  0  0  0  0  0  0  0  0  0
    0.6919    0.1519    1.3623 C   0  0  0  0  0  0  0  0  0  0  0  0
    0.7362    0.9699    2.4086 C   0  0  0  0  0  0  0  0  0  0  0  0
    3.6028   -1.6291   -0.0367 H   0  0  0  0  0  0  0  0  0  0  0  0
    1.6626    1.1697    2.9316 H   0  0  0  0  0  0  0  0  0  0  0  0
   -0.1599    1.4599    2.7656 H   0  0  0  0  0  0  0  0  0  0  0  0
   -1.3846   -0.8903   -2.4393 C   0  0  0  0  0  0  0  0  0  0  0  0
   -1.3846   -0.8903   -1.1150 C   0  0  0  0  0  0  0  0  0  0  0  0
   -1.3846    0.3142   -0.2215 C   0  0  0  0  0  3  0  0  0  0  0  0
   -1.3846    1.6600   -0.9292 C   0  0  0  0  0  0  0  0  0  0  0  0
   -1.3846    0.0266   -3.0168 H   0  0  0  0  0  0  0  0  0  0  0  0
   -1.3846   -1.8176   -2.9980 H   0  0  0  0  0  0  0  0  0  0  0  0
   -1.3846   -1.8460   -0.5968 H   0  0  0  0  0  0  0  0  0  0  0  0
   -0.3414    0.2327    0.5742 H   0  0  0  0  0  0  0  0  0  0  0  0
   -2.2540    0.2462    0.4416 H   0  0  0  0  0  0  0  0  0  0  0  0
   -2.2671    1.7750   -1.5617 H   0  0  0  0  0  0  0  0  0  0  0  0
   -0.5022    1.7750   -1.5617 H   0  0  0  0  0  0  0  0  0  0  0  0
   -1.3846    2.4743   -0.2039 H   0  0  0  0  0  0  0  0  0  0  0  0
  1  2  3  0
  1  5  1  0
  2  3  1  0
  3  4  2  3
  3 15  1  0
  4  6  1  0
  4  7  1  0
  8  9  2  3
  8 12  1  0
  8 13  1  0
  9 10  1  0
  9 14  1  0
 10 11  1  0
 10 16  1  0
 11 17  1  0
 11 18  1  0
 11 19  1  0
M  RAD  1  10   2
M  END
>  <reaction>  (6) 
rxn_1058

>  <mol_properties>  (6) 
{"1": {"label": "*4", "atom_type": "Ct"}, "2": {"label": "*3", "atom_type": "Cd"}, "8": {"label": "*0", "atom_type": "Cd"}, "9": {"label": "*1", "atom_type": "Cs"}, "14": {"label": "*2", "atom_type": "H0"}}

>  <type>  (6) 
unop_2

>  <geom_source>  (6) 
Heuristics

$$$$

     RDKit          3D

 19 17  0  0  0  0  0  0  0  0999 V2000
    1.9203    2.0518    1.8378 C   0  0  0  0  0  0  0  0  0  0  0  0
    1.4556    0.9976    1.5039 C   0  0  0  0  0  0  0  0  0  0  0  0
    0.8950   -0.2423    1.0793 C   0  0  0  0  0  0  0  0  0  0  0  0
    0.8898   -1.3462    1.8190 C   0  0  0  0  0  0  0  0  0  0  0  0
    2.3323    2.9864    2.1338 H   0  0  0  0  0  0  0  0  0  0  0  0
    1.3227   -1.3645    2.8110 H   0  0  0  0  0  0  0  0  0  0  0  0
    0.4492   -2.2606    1.4445 H   0  0  0  0  0  0  0  0  0  0  0  0
   -1.1815   -1.2845   -2.7223 C   0  0  0  0  0  0  0  0  0  0  0  0
   -1.1815   -1.2845   -1.3980 C   0  0  0  0  0  0  0  0  0  0  0  0
   -1.1815   -0.0800   -0.5045 C   0  0  0  0  0  3  0  0  0  0  0  0
   -1.1815    1.2658   -1.2122 C   0  0  0  0  0  0  0  0  0  0  0  0
   -1.1815   -0.3676   -3.2998 H   0  0  0  0  0  0  0  0  0  0  0  0
   -1.1815   -2.2118   -3.2810 H   0  0  0  0  0  0  0  0  0  0  0  0
   -1.1815   -2.2402   -0.8798 H   0  0  0  0  0  0  0  0  0  0  0  0
   -0.1383   -0.1615    0.2912 H   0  0  0  0  0  0  0  0  0  0  0  0
   -2.0509   -0.1479    0.1586 H   0  0  0  0  0  0  0  0  0  0  0  0
   -2.0640    1.3808   -1.8447 H   0  0  0  0  0  0  0  0  0  0  0  0
   -0.2991    1.3808   -1.8447 H   0  0  0  0  0  0  0  0  0  0  0  0
   -1.1815    2.0801   -0.4869 H   0  0  0  0  0  0  0  0  0  0  0  0
  1  2  3  0
  1  5  1  0
  2  3  1  0
  3  4  2  3
  3 15  1  0
  4  6  1  0
  4  7  1  0
  8  9  2  3
  8 12  1  0
  8 13  1  0
  9 10  1  0
  9 14  1  0
 10 11  1  0
 10 16  1  0
 11 17  1  0
 11 18  1  0
 11 19  1  0
M  RAD  1  10   2
M  END
>  <reaction>  (7) 
rxn_1058

>  <mol_properties>  (7) 
{"1": {"label": "*4", "atom_type": "Ct"}, "2": {"label": "*3", "atom_type": "Cd"}, "8": {"label": "*0", "atom_type": "Cd"}, "9": {"label": "*1", "atom_type": "Cs"}, "14": {"label": "*2", "atom_type": "H0"}}

>  <type>  (7) 
unop_3

>  <geom_source>  (7) 
Heuristics

$$$$

     RDKit          3D

 19 17  0  0  0  0  0  0  0  0999 V2000
    1.0836   -1.8626    2.5326 C   0  0  0  0  0  0  0  0  0  0  0  0
    1.0528   -0.8850    1.8383 C   0  0  0  0  0  0  0  0  0  0  0  0
    1.0013    0.2599    0.9907 C   0  0  0  0  0  0  0  0  0  0  0  0
    1.4925    1.4498    1.3204 C   0  0  0  0  0  0  0  0  0  0  0  0
    1.1109   -2.7293    3.1482 H   0  0  0  0  0  0  0  0  0  0  0  0
    1.9715    1.6189    2.2763 H   0  0  0  0  0  0  0  0  0  0  0  0
    1.4250    2.2848    0.6357 H   0  0  0  0  0  0  0  0  0  0  0  0
   -1.0752   -0.7822   -2.8110 C   0  0  0  0  0  0  0  0  0  0  0  0
   -1.0752   -0.7822   -1.4867 C   0  0  0  0  0  0  0  0  0  0  0  0
   -1.0752    0.4223   -0.5932 C   0  0  0  0  0  3  0  0  0  0  0  0
   -1.0752    1.7681   -1.3009 C   0  0  0  0  0  0  0  0  0  0  0  0
   -1.0752    0.1347   -3.3884 H   0  0  0  0  0  0  0  0  0  0  0  0
   -1.0752   -1.7095   -3.3697 H   0  0  0  0  0  0  0  0  0  0  0  0
   -1.0752   -1.7379   -0.9685 H   0  0  0  0  0  0  0  0  0  0  0  0
   -0.0320    0.3407    0.2026 H   0  0  0  0  0  0  0  0  0  0  0  0
   -1.9446    0.3543    0.0699 H   0  0  0  0  0  0  0  0  0  0  0  0
   -1.9577    1.8831   -1.9333 H   0  0  0  0  0  0  0  0  0  0  0  0
   -0.1928    1.8831   -1.9333 H   0  0  0  0  0  0  0  0  0  0  0  0
   -1.0752    2.5824   -0.5756 H   0  0  0  0  0  0  0  0  0  0  0  0
  1  2  3  0
  1  5  1  0
  2  3  1  0
  3  4  2  3
  3 15  1  0
  4  6  1  0
  4  7  1  0
  8  9  2  3
  8 12  1  0
  8 13  1  0
  9 10  1  0
  9 14  1  0
 10 11  1  0
 10 16  1  0
 11 17  1  0
 11 18  1  0
 11 19  1  0
M  RAD  1  10   2
M  END
>  <reaction>  (8) 
rxn_1058

>  <mol_properties>  (8) 
{"1": {"label": "*4", "atom_type": "Ct"}, "2": {"label": "*3", "atom_type": "Cd"}, "8": {"label": "*0", "atom_type": "Cd"}, "9": {"label": "*1", "atom_type": "Cs"}, "14": {"label": "*2", "atom_type": "H0"}}

>  <type>  (8) 
unop_4

>  <geom_source>  (8) 
Heuristics

$$$$

     RDKit          3D

 19 17  0  0  0  0  0  0  0  0999 V2000
    1.1966    1.7879    2.7190 C   0  0  0  0  0  0  0  0  0  0  0  0
    1.0811    0.8764    1.9481 C   0  0  0  0  0  0  0  0  0  0  0  0
    0.9176   -0.1935    1.0203 C   0  0  0  0  0  0  0  0  0  0  0  0
    1.7442   -1.2299    0.9299 C   0  0  0  0  0  0  0  0  0  0  0  0
    1.2989    2.5962    3.4025 H   0  0  0  0  0  0  0  0  0  0  0  0
    2.6101   -1.3208    1.5731 H   0  0  0  0  0  0  0  0  0  0  0  0
    1.5702   -2.0143    0.2053 H   0  0  0  0  0  0  0  0  0  0  0  0
   -1.1589   -1.2356   -2.7814 C   0  0  0  0  0  0  0  0  0  0  0  0
   -1.1589   -1.2356   -1.4570 C   0  0  0  0  0  0  0  0  0  0  0  0
   -1.1589   -0.0311   -0.5636 C   0  0  0  0  0  3  0  0  0  0  0  0
   -1.1589    1.3147   -1.2713 C   0  0  0  0  0  0  0  0  0  0  0  0
   -1.1589   -0.3187   -3.3588 H   0  0  0  0  0  0  0  0  0  0  0  0
   -1.1589   -2.1629   -3.3401 H   0  0  0  0  0  0  0  0  0  0  0  0
   -1.1589   -2.1913   -0.9388 H   0  0  0  0  0  0  0  0  0  0  0  0
   -0.1156   -0.1127    0.2322 H   0  0  0  0  0  0  0  0  0  0  0  0
   -2.0283   -0.0991    0.0996 H   0  0  0  0  0  0  0  0  0  0  0  0
   -2.0414    1.4297   -1.9037 H   0  0  0  0  0  0  0  0  0  0  0  0
   -0.2765    1.4297   -1.9037 H   0  0  0  0  0  0  0  0  0  0  0  0
   -1.1589    2.1290   -0.5460 H   0  0  0  0  0  0  0  0  0  0  0  0
  1  2  3  0
  1  5  1  0
  2  3  1  0
  3  4  2  3
  3 15  1  0
  4  6  1  0
  4  7  1  0
  8  9  2  3
  8 12  1  0
  8 13  1  0
  9 10  1  0
  9 14  1  0
 10 11  1  0
 10 16  1  0
 11 17  1  0
 11 18  1  0
 11 19  1  0
M  RAD  1  10   2
M  END
>  <reaction>  (9) 
rxn_1058

>  <mol_properties>  (9) 
{"1": {"label": "*4", "atom_type": "Ct"}, "2": {"label": "*3", "atom_type": "Cd"}, "8": {"label": "*0", "atom_type": "Cd"}, "9": {"label": "*1", "atom_type": "Cs"}, "14": {"label": "*2", "atom_type": "H0"}}

>  <type>  (9) 
unop_5

>  <geom_source>  (9) 
Heuristics

$$$$

     RDKit          3D

 19 17  0  0  0  0  0  0  0  0999 V2000
    0.6587   -1.1519    3.1855 C   0  0  0  0  0  0  0  0  0  0  0  0
    0.8496   -0.5649    2.1572 C   0  0  0  0  0  0  0  0  0  0  0  0
    1.0588    0.1112    0.9197 C   0  0  0  0  0  0  0  0  0  0  0  0
    1.7818    1.2188    0.7924 C   0  0  0  0  0  0  0  0  0  0  0  0
    0.4895   -1.6724    4.0974 H   0  0  0  0  0  0  0  0  0  0  0  0
    2.2643    1.6804    1.6443 H   0  0  0  0  0  0  0  0  0  0  0  0
    1.9065    1.6895   -0.1737 H   0  0  0  0  0  0  0  0  0  0  0  0
   -1.0178   -0.9310   -2.8820 C   0  0  0  0  0  0  0  0  0  0  0  0
   -1.0178   -0.9310   -1.5576 C   0  0  0  0  0  0  0  0  0  0  0  0
   -1.0178    0.2735   -0.6642 C   0  0  0  0  0  3  0  0  0  0  0  0
   -1.0178    1.6193   -1.3719 C   0  0  0  0  0  0  0  0  0  0  0  0
   -1.0178   -0.0141   -3.4594 H   0  0  0  0  0  0  0  0  0  0  0  0
   -1.0178   -1.8583   -3.4407 H   0  0  0  0  0  0  0  0  0  0  0  0
   -1.0178   -1.8867   -1.0394 H   0  0  0  0  0  0  0  0  0  0  0  0
    0.0255    0.1920    0.1316 H   0  0  0  0  0  0  0  0  0  0  0  0
   -1.8872    0.2056   -0.0010 H   0  0  0  0  0  0  0  0  0  0  0  0
   -1.9002    1.7343   -2.0043 H   0  0  0  0  0  0  0  0  0  0  0  0
   -0.1353    1.7343   -2.0043 H   0  0  0  0  0  0  0  0  0  0  0  0
   -1.0178    2.4336   -0.6466 H   0  0  0  0  0  0  0  0  0  0  0  0
  1  2  3  0
  1  5  1  0
  2  3  1  0
  3  4  2  3
  3 15  1  0
  4  6  1  0
  4  7  1  0
  8  9  2  3
  8 12  1  0
  8 13  1  0
  9 10  1  0
  9 14  1  0
 10 11  1  0
 10 16  1  0
 11 17  1  0
 11 18  1  0
 11 19  1  0
M  RAD  1  10   2
M  END
>  <reaction>  (10) 
rxn_1058

>  <mol_properties>  (10) 
{"1": {"label": "*4", "atom_type": "Ct"}, "2": {"label": "*3", "atom_type": "Cd"}, "8": {"label": "*0", "atom_type": "Cd"}, "9": {"label": "*1", "atom_type": "Cs"}, "14": {"label": "*2", "atom_type": "H0"}}

>  <type>  (10) 
unop_6

>  <geom_source>  (10) 
Heuristics

$$$$

     RDKit          3D

 19 17  0  0  0  0  0  0  0  0999 V2000
    0.5107   -0.1374    3.4891 C   0  0  0  0  0  0  0  0  0  0  0  0
    0.7672   -0.0899    2.3185 C   0  0  0  0  0  0  0  0  0  0  0  0
    1.0482   -0.0535    0.9214 C   0  0  0  0  0  0  0  0  0  0  0  0
    2.0299    0.6601    0.3804 C   0  0  0  0  0  0  0  0  0  0  0  0
    0.2832   -0.1794    4.5271 H   0  0  0  0  0  0  0  0  0  0  0  0
    2.6874    1.2690    0.9874 H   0  0  0  0  0  0  0  0  0  0  0  0
    2.1968    0.6494   -0.6886 H   0  0  0  0  0  0  0  0  0  0  0  0
   -1.0284   -1.0957   -2.8803 C   0  0  0  0  0  0  0  0  0  0  0  0
   -1.0284   -1.0957   -1.5560 C   0  0  0  0  0  0  0  0  0  0  0  0
   -1.0284    0.1088   -0.6625 C   0  0  0  0  0  3  0  0  0  0  0  0
   -1.0284    1.4546   -1.3702 C   0  0  0  0  0  0  0  0  0  0  0  0
   -1.0284   -0.1788   -3.4577 H   0  0  0  0  0  0  0  0  0  0  0  0
   -1.0284   -2.0230   -3.4390 H   0  0  0  0  0  0  0  0  0  0  0  0
   -1.0284   -2.0514   -1.0378 H   0  0  0  0  0  0  0  0  0  0  0  0
    0.0149    0.0272    0.1333 H   0  0  0  0  0  0  0  0  0  0  0  0
   -1.8978    0.0408    0.0006 H   0  0  0  0  0  0  0  0  0  0  0  0
   -1.9108    1.5696   -2.0026 H   0  0  0  0  0  0  0  0  0  0  0  0
   -0.1459    1.5696   -2.0026 H   0  0  0  0  0  0  0  0  0  0  0  0
   -1.0284    2.2689   -0.6449 H   0  0  0  0  0  0  0  0  0  0  0  0
  1  2  3  0
  1  5  1  0
  2  3  1  0
  3  4  2  3
  3 15  1  0
  4  6  1  0
  4  7  1  0
  8  9  2  3
  8 12  1  0
  8 13  1  0
  9 10  1  0
  9 14  1  0
 10 11  1  0
 10 16  1  0
 11 17  1  0
 11 18  1  0
 11 19  1  0
M  RAD  1  10   2
M  END
>  <reaction>  (11) 
rxn_1058

>  <mol_properties>  (11) 
{"1": {"label": "*4", "atom_type": "Ct"}, "2": {"label": "*3", "atom_type": "Cd"}, "8": {"label": "*0", "atom_type": "Cd"}, "9": {"label": "*1", "atom_type": "Cs"}, "14": {"label": "*2", "atom_type": "H0"}}

>  <type>  (11) 
unop_7

>  <geom_source>  (11) 
Heuristics

$$$$

     RDKit          3D

 19 17  0  0  0  0  0  0  0  0999 V2000
    2.9386    0.9085    0.4078 C   0  0  0  0  0  0  0  0  0  0  0  0
    1.9333    0.4146    0.8367 C   0  0  0  0  0  0  0  0  0  0  0  0
    0.7322   -0.1840    1.3176 C   0  0  0  0  0  0  0  0  0  0  0  0
    0.3168   -0.1052    2.5773 C   0  0  0  0  0  0  0  0  0  0  0  0
    3.8299    1.3465    0.0274 H   0  0  0  0  0  0  0  0  0  0  0  0
    0.8831    0.4321    3.3272 H   0  0  0  0  0  0  0  0  0  0  0  0
   -0.6049   -0.5802    2.8862 H   0  0  0  0  0  0  0  0  0  0  0  0
   -1.3443   -1.2261   -2.4841 C   0  0  0  0  0  0  0  0  0  0  0  0
   -1.3443   -1.2261   -1.1597 C   0  0  0  0  0  0  0  0  0  0  0  0
   -1.3443   -0.0216   -0.2663 C   0  0  0  0  0  3  0  0  0  0  0  0
   -1.3443    1.3242   -0.9740 C   0  0  0  0  0  0  0  0  0  0  0  0
   -1.3443   -0.3092   -3.0615 H   0  0  0  0  0  0  0  0  0  0  0  0
   -1.3443   -2.1534   -3.0428 H   0  0  0  0  0  0  0  0  0  0  0  0
   -1.3443   -2.1818   -0.6416 H   0  0  0  0  0  0  0  0  0  0  0  0
   -0.3011   -0.1032    0.5295 H   0  0  0  0  0  0  0  0  0  0  0  0
   -2.2137   -0.0896    0.3968 H   0  0  0  0  0  0  0  0  0  0  0  0
   -2.2268    1.4392   -1.6064 H   0  0  0  0  0  0  0  0  0  0  0  0
   -0.4619    1.4392   -1.6064 H   0  0  0  0  0  0  0  0  0  0  0  0
   -1.3443    2.1385   -0.2487 H   0  0  0  0  0  0  0  0  0  0  0  0
  1  2  3  0
  1  5  1  0
  2  3  1  0
  3  4  2  3
  3 15  1  0
  4  6  1  0
  4  7  1  0
  8  9  2  3
  8 12  1  0
  8 13  1  0
  9 10  1  0
  9 14  1  0
 10 11  1  0
 10 16  1  0
 11 17  1  0
 11 18  1  0
 11 19  1  0
M  RAD  1  10   2
M  END
>  <reaction>  (12) 
rxn_1058

>  <mol_properties>  (12) 
{"1": {"label": "*4", "atom_type": "Ct"}, "2": {"label": "*3", "atom_type": "Cd"}, "8": {"label": "*0", "atom_type": "Cd"}, "9": {"label": "*1", "atom_type": "Cs"}, "14": {"label": "*2", "atom_type": "H0"}}

>  <type>  (12) 
unop_8

>  <geom_source>  (12) 
Heuristics

$$$$

     RDKit          3D

 19 17  0  0  0  0  0  0  0  0999 V2000
    1.6724   -2.1028    1.7090 C   0  0  0  0  0  0  0  0  0  0  0  0
    1.3233   -0.9848    1.4505 C   0  0  0  0  0  0  0  0  0  0  0  0
    0.8920    0.3327    1.1185 C   0  0  0  0  0  0  0  0  0  0  0  0
    1.2339    1.4196    1.8022 C   0  0  0  0  0  0  0  0  0  0  0  0
    1.9819   -3.0940    1.9382 H   0  0  0  0  0  0  0  0  0  0  0  0
    1.8757    1.3623    2.6720 H   0  0  0  0  0  0  0  0  0  0  0  0
    0.8759    2.3960    1.5036 H   0  0  0  0  0  0  0  0  0  0  0  0
   -1.1845   -0.7094   -2.6832 C   0  0  0  0  0  0  0  0  0  0  0  0
   -1.1845   -0.7094   -1.3588 C   0  0  0  0  0  0  0  0  0  0  0  0
   -1.1845    0.4951   -0.4654 C   0  0  0  0  0  3  0  0  0  0  0  0
   -1.1845    1.8408   -1.1731 C   0  0  0  0  0  0  0  0  0  0  0  0
   -1.1845    0.2075   -3.2606 H   0  0  0  0  0  0  0  0  0  0  0  0
   -1.1845   -1.6367   -3.2419 H   0  0  0  0  0  0  0  0  0  0  0  0
   -1.1845   -1.6651   -0.8407 H   0  0  0  0  0  0  0  0  0  0  0  0
   -0.1412    0.4135    0.3304 H   0  0  0  0  0  0  0  0  0  0  0  0
   -2.0539    0.4271    0.1978 H   0  0  0  0  0  0  0  0  0  0  0  0
   -2.0669    1.9559   -1.8055 H   0  0  0  0  0  0  0  0  0  0  0  0
   -0.3021    1.9559   -1.8055 H   0  0  0  0  0  0  0  0  0  0  0  0
   -1.1845    2.6552   -0.4478 H   0  0  0  0  0  0  0  0  0  0  0  0
  1  2  3  0
  1  5  1  0
  2  3  1  0
  3  4  2  3
  3 15  1  0
  4  6  1  0
  4  7  1  0
  8  9  2  3
  8 12  1  0
  8 13  1  0
  9 10  1  0
  9 14  1  0
 10 11  1  0
 10 16  1  0
 11 17  1  0
 11 18  1  0
 11 19  1  0
M  RAD  1  10   2
M  END
>  <reaction>  (13) 
rxn_1058

>  <mol_properties>  (13) 
{"1": {"label": "*4", "atom_type": "Ct"}, "2": {"label": "*3", "atom_type": "Cd"}, "8": {"label": "*0", "atom_type": "Cd"}, "9": {"label": "*1", "atom_type": "Cs"}, "14": {"label": "*2", "atom_type": "H0"}}

>  <type>  (13) 
unop_9

>  <geom_source>  (13) 
Heuristics

$$$$

     RDKit          3D

 19 17  0  0  0  0  0  0  0  0999 V2000
    3.0132   -0.1187    0.1815 C   0  0  0  0  0  0  0  0  0  0  0  0
    1.9533   -0.0712    0.7411 C   0  0  0  0  0  0  0  0  0  0  0  0
    0.6805   -0.0300    1.3816 C   0  0  0  0  0  0  0  0  0  0  0  0
    0.4660    0.5220    2.5711 C   0  0  0  0  0  0  0  0  0  0  0  0
    3.9529   -0.1608   -0.3146 H   0  0  0  0  0  0  0  0  0  0  0  0
    1.2678    0.9829    3.1337 H   0  0  0  0  0  0  0  0  0  0  0  0
   -0.5232    0.5241    3.0094 H   0  0  0  0  0  0  0  0  0  0  0  0
   -1.3960   -1.0721   -2.4201 C   0  0  0  0  0  0  0  0  0  0  0  0
   -1.3960   -1.0721   -1.0958 C   0  0  0  0  0  0  0  0  0  0  0  0
   -1.3960    0.1324   -0.2023 C   0  0  0  0  0  3  0  0  0  0  0  0
   -1.3960    1.4781   -0.9100 C   0  0  0  0  0  0  0  0  0  0  0  0
   -1.3960   -0.1552   -2.9976 H   0  0  0  0  0  0  0  0  0  0  0  0
   -1.3960   -1.9995   -2.9788 H   0  0  0  0  0  0  0  0  0  0  0  0
   -1.3960   -2.0279   -0.5776 H   0  0  0  0  0  0  0  0  0  0  0  0
   -0.3528    0.0508    0.5934 H   0  0  0  0  0  0  0  0  0  0  0  0
   -2.2654    0.0644    0.4608 H   0  0  0  0  0  0  0  0  0  0  0  0
   -2.2785    1.5931   -1.5424 H   0  0  0  0  0  0  0  0  0  0  0  0
   -0.5136    1.5931   -1.5424 H   0  0  0  0  0  0  0  0  0  0  0  0
   -1.3960    2.2925   -0.1847 H   0  0  0  0  0  0  0  0  0  0  0  0
  1  2  3  0
  1  5  1  0
  2  3  1  0
  3  4  2  3
  3 15  1  0
  4  6  1  0
  4  7  1  0
  8  9  2  3
  8 12  1  0
  8 13  1  0
  9 10  1  0
  9 14  1  0
 10 11  1  0
 10 16  1  0
 11 17  1  0
 11 18  1  0
 11 19  1  0
M  RAD  1  10   2
M  END
>  <reaction>  (14) 
rxn_1058

>  <mol_properties>  (14) 
{"1": {"label": "*4", "atom_type": "Ct"}, "2": {"label": "*3", "atom_type": "Cd"}, "8": {"label": "*0", "atom_type": "Cd"}, "9": {"label": "*1", "atom_type": "Cs"}, "14": {"label": "*2", "atom_type": "H0"}}

>  <type>  (14) 
unop_10

>  <geom_source>  (14) 
Heuristics

$$$$

     RDKit          3D

 19 17  0  0  0  0  0  0  0  0999 V2000
    0.6869    0.9371    3.3405 C   0  0  0  0  0  0  0  0  0  0  0  0
    0.8345    0.4363    2.2607 C   0  0  0  0  0  0  0  0  0  0  0  0
    0.9790   -0.1664    0.9770 C   0  0  0  0  0  0  0  0  0  0  0  0
    2.1274   -0.2277    0.3112 C   0  0  0  0  0  0  0  0  0  0  0  0
    0.5561    1.3812    4.2979 H   0  0  0  0  0  0  0  0  0  0  0  0
    3.0402    0.1878    0.7183 H   0  0  0  0  0  0  0  0  0  0  0  0
    2.1779   -0.6983   -0.6617 H   0  0  0  0  0  0  0  0  0  0  0  0
   -1.0975   -1.2085   -2.8247 C   0  0  0  0  0  0  0  0  0  0  0  0
   -1.0975   -1.2085   -1.5004 C   0  0  0  0  0  0  0  0  0  0  0  0
   -1.0975   -0.0040   -0.6069 C   0  0  0  0  0  3  0  0  0  0  0  0
   -1.0975    1.3417   -1.3146 C   0  0  0  0  0  0  0  0  0  0  0  0
   -1.0975   -0.2916   -3.4022 H   0  0  0  0  0  0  0  0  0  0  0  0
   -1.0975   -2.1359   -3.3834 H   0  0  0  0  0  0  0  0  0  0  0  0
   -1.0975   -2.1642   -0.9822 H   0  0  0  0  0  0  0  0  0  0  0  0
   -0.0542   -0.0856    0.1888 H   0  0  0  0  0  0  0  0  0  0  0  0
   -1.9669   -0.0720    0.0562 H   0  0  0  0  0  0  0  0  0  0  0  0
   -1.9799    1.4567   -1.9471 H   0  0  0  0  0  0  0  0  0  0  0  0
   -0.2151    1.4567   -1.9471 H   0  0  0  0  0  0  0  0  0  0  0  0
   -1.0975    2.1561   -0.5893 H   0  0  0  0  0  0  0  0  0  0  0  0
  1  2  3  0
  1  5  1  0
  2  3  1  0
  3  4  2  3
  3 15  1  0
  4  6  1  0
  4  7  1  0
  8  9  2  3
  8 12  1  0
  8 13  1  0
  9 10  1  0
  9 14  1  0
 10 11  1  0
 10 16  1  0
 11 17  1  0
 11 18  1  0
 11 19  1  0
M  RAD  1  10   2
M  END
>  <reaction>  (15) 
rxn_1058

>  <mol_properties>  (15) 
{"1": {"label": "*4", "atom_type": "Ct"}, "2": {"label": "*3", "atom_type": "Cd"}, "8": {"label": "*0", "atom_type": "Cd"}, "9": {"label": "*1", "atom_type": "Cs"}, "14": {"label": "*2", "atom_type": "H0"}}

>  <type>  (15) 
unop_11

>  <geom_source>  (15) 
Heuristics

$$$$

     RDKit          3D

 19 17  0  0  0  0  0  0  0  0999 V2000
    2.2810   -1.8284    0.9265 C   0  0  0  0  0  0  0  0  0  0  0  0
    1.6002   -0.8546    1.0901 C   0  0  0  0  0  0  0  0  0  0  0  0
    0.7718    0.2928    1.2613 C   0  0  0  0  0  0  0  0  0  0  0  0
    1.0016    1.2467    2.1574 C   0  0  0  0  0  0  0  0  0  0  0  0
    2.8847   -2.6919    0.7815 H   0  0  0  0  0  0  0  0  0  0  0  0
    1.8532    1.2032    2.8242 H   0  0  0  0  0  0  0  0  0  0  0  0
    0.3375    2.0965    2.2428 H   0  0  0  0  0  0  0  0  0  0  0  0
   -1.3047   -0.7494   -2.5404 C   0  0  0  0  0  0  0  0  0  0  0  0
   -1.3047   -0.7494   -1.2160 C   0  0  0  0  0  0  0  0  0  0  0  0
   -1.3047    0.4551   -0.3226 C   0  0  0  0  0  3  0  0  0  0  0  0
   -1.3047    1.8009   -1.0303 C   0  0  0  0  0  0  0  0  0  0  0  0
   -1.3047    0.1675   -3.1178 H   0  0  0  0  0  0  0  0  0  0  0  0
   -1.3047   -1.6767   -3.0991 H   0  0  0  0  0  0  0  0  0  0  0  0
   -1.3047   -1.7051   -0.6979 H   0  0  0  0  0  0  0  0  0  0  0  0
   -0.2614    0.3735    0.4732 H   0  0  0  0  0  0  0  0  0  0  0  0
   -2.1741    0.3871    0.3406 H   0  0  0  0  0  0  0  0  0  0  0  0
   -2.1872    1.9159   -1.6627 H   0  0  0  0  0  0  0  0  0  0  0  0
   -0.4223    1.9159   -1.6627 H   0  0  0  0  0  0  0  0  0  0  0  0
   -1.3047    2.6152   -0.3050 H   0  0  0  0  0  0  0  0  0  0  0  0
  1  2  3  0
  1  5  1  0
  2  3  1  0
  3  4  2  3
  3 15  1  0
  4  6  1  0
  4  7  1  0
  8  9  2  3
  8 12  1  0
  8 13  1  0
  9 10  1  0
  9 14  1  0
 10 11  1  0
 10 16  1  0
 11 17  1  0
 11 18  1  0
 11 19  1  0
M  RAD  1  10   2
M  END
>  <reaction>  (16) 
rxn_1058

>  <mol_properties>  (16) 
{"1": {"label": "*4", "atom_type": "Ct"}, "2": {"label": "*3", "atom_type": "Cd"}, "8": {"label": "*0", "atom_type": "Cd"}, "9": {"label": "*1", "atom_type": "Cs"}, "14": {"label": "*2", "atom_type": "H0"}}

>  <type>  (16) 
unop_12

>  <geom_source>  (16) 
Heuristics

$$$$

     RDKit          3D

 19 17  0  0  0  0  0  0  0  0999 V2000
   -1.9449    0.5049   -1.5119 C   0  0  0  0  0  0  0  0  0  0  0  0
   -0.8116    0.0956   -0.5790 C   0  0  0  0  0  3  0  0  0  0  0  0
   -1.1223    0.4148    0.8547 C   0  0  0  0  0  0  0  0  0  0  0  0
    1.7250   -0.4867   -0.1789 C   0  0  0  0  0  0  0  0  0  0  0  0
   -2.0404   -0.2676    1.5449 C   0  0  0  0  0  0  0  0  0  0  0  0
    2.3917   -1.6351   -0.1797 C   0  0  0  0  0  0  0  0  0  0  0  0
    2.3479    0.7274    0.2750 C   0  0  0  0  0  0  0  0  0  0  0  0
    2.8690    1.7458    0.6553 C   0  0  0  0  0  0  0  0  0  0  0  0
   -1.6420    0.3111   -2.5618 H   0  0  0  0  0  0  0  0  0  0  0  0
   -2.1599    1.5885   -1.3986 H   0  0  0  0  0  0  0  0  0  0  0  0
   -2.8626   -0.0803   -1.2908 H   0  0  0  0  0  0  0  0  0  0  0  0
   -0.5720   -0.9831   -0.6985 H   0  0  0  0  0  0  0  0  0  0  0  0
   -0.5605    1.2021    1.3466 H   0  0  0  0  0  0  0  0  0  0  0  0
    0.5638   -0.4562   -0.5691 H   0  0  0  0  0  0  0  0  0  0  0  0
    3.4191   -1.6872    0.1605 H   0  0  0  0  0  0  0  0  0  0  0  0
    1.9070   -2.5386   -0.5248 H   0  0  0  0  0  0  0  0  0  0  0  0
   -2.2315   -0.0217    2.5844 H   0  0  0  0  0  0  0  0  0  0  0  0
   -2.6024   -1.0735    1.0826 H   0  0  0  0  0  0  0  0  0  0  0  0
    3.3266    2.6397    0.9892 H   0  0  0  0  0  0  0  0  0  0  0  0
  1  2  1  0
  1  9  1  0
  1 10  1  0
  1 11  1  0
  2  3  1  0
  2 12  1  0
  3  5  2  3
  3 13  1  0
  4  6  2  3
  4  7  1  0
  4 14  1  0
  5 17  1  0
  5 18  1  0
  6 15  1  0
  6 16  1  0
  7  8  3  0
  8 19  1  0
M  RAD  1   2   2
M  END
>  <reaction>  (17) 
rxn_1058

>  <mol_properties>  (17) 
{"1": {"label": "*4", "atom_type": "Ct"}, "2": {"label": "*3", "atom_type": "Cd"}, "8": {"label": "*0", "atom_type": "Cd"}, "9": {"label": "*1", "atom_type": "Cs"}, "14": {"label": "*2", "atom_type": "H0"}}

>  <type>  (17) 
unop_13

>  <geom_source>  (17) 
AutoTST

$$$$
