
     RDKit          3D

  5  4  0  0  0  0  0  0  0  0999 V2000
    0.0000    0.0000    0.0000 C   0  0  0  0  0  0  0  0  0  0  0  0
   -0.6486   -0.7720   -0.4113 H   0  0  0  0  0  0  0  0  0  0  0  0
   -0.3482    0.9787   -0.3267 H   0  0  0  0  0  0  0  0  0  0  0  0
   -0.0223   -0.0487    1.0876 H   0  0  0  0  0  0  0  0  0  0  0  0
    1.0191   -0.1580   -0.3496 H   0  0  0  0  0  0  0  0  0  0  0  0
  1  2  1  0
  1  3  1  0
  1  4  1  0
  1  5  1  0
M  END
>  <reaction>  (1) 
rxn_851

>  <mol_properties>  (1) 
{"0": {"label": "donator", "atom_type": "Cs"}, "1": {"label": "d_hydrogen", "atom_type": "H0"}}

>  <type>  (1) 
r1h

$$$$

     RDKit          3D

  9  8  0  0  0  0  0  0  0  0999 V2000
   -1.2704   -0.1236    0.1096 C   0  0  0  0  0  0  0  0  0  0  0  0
    0.0713   -0.5323    0.5887 C   0  0  0  0  0  0  0  0  0  0  0  0
    0.9521   -1.3639   -0.0464 C   0  0  0  0  0  0  0  0  0  0  0  0
    0.6900   -2.1109   -1.5335 S   0  0  0  0  0  1  0  0  0  0  0  0
   -1.3201    0.9657    0.0241 H   0  0  0  0  0  0  0  0  0  0  0  0
   -1.5103   -0.5706   -0.8526 H   0  0  0  0  0  0  0  0  0  0  0  0
   -2.0312   -0.4112    0.8411 H   0  0  0  0  0  0  0  0  0  0  0  0
    0.3863   -0.1265    1.5468 H   0  0  0  0  0  0  0  0  0  0  0  0
    1.8971   -1.5543    0.4552 H   0  0  0  0  0  0  0  0  0  0  0  0
  1  2  1  0
  1  5  1  0
  1  6  1  0
  1  7  1  0
  2  3  2  3
  2  8  1  0
  3  4  1  0
  3  9  1  0
M  RAD  1   4   2
M  END
>  <reaction>  (2) 
rxn_851

>  <mol_properties>  (2) 
{"1": {"label": "acceptor", "atom_type": "Cs"}}

>  <type>  (2) 
r2

$$$$

     RDKit          3D

 10  9  0  0  0  0  0  0  0  0999 V2000
   -1.1508    0.0666    0.2839 C   0  0  0  0  0  0  0  0  0  0  0  0
    0.1022   -0.3749   -0.4771 C   0  0  0  0  0  0  0  0  0  0  0  0
    1.3428    0.1620    0.1542 C   0  0  0  0  0  0  0  0  0  0  0  0
    2.5613   -0.6971    0.7526 S   0  0  0  0  0  0  0  0  0  0  0  0
   -1.2137    1.1546    0.3481 H   0  0  0  0  0  0  0  0  0  0  0  0
   -2.0472   -0.2935   -0.2212 H   0  0  0  0  0  0  0  0  0  0  0  0
   -1.1467   -0.3334    1.2987 H   0  0  0  0  0  0  0  0  0  0  0  0
    0.1602   -1.4616   -0.5369 H   0  0  0  0  0  0  0  0  0  0  0  0
    0.0536    0.0174   -1.4997 H   0  0  0  0  0  0  0  0  0  0  0  0
    1.3824    1.2528    0.2110 H   0  0  0  0  0  0  0  0  0  0  0  0
  1  2  1  0
  1  5  1  0
  1  6  1  0
  1  7  1  0
  2  3  1  0
  2  8  1  0
  2  9  1  0
  3  4  2  0
  3 10  1  0
M  END
>  <reaction>  (3) 
rxn_851

>  <mol_properties>  (3) 
{"1": {"label": "acceptor", "atom_type": "Cs"}, "9": {"label": "a_hydrogen", "atom_type": "H0"}}

>  <type>  (3) 
r2h

$$$$

     RDKit          3D

 14 12  0  0  0  0  0  0  0  0999 V2000
   -0.2437    1.5946   -1.4865 C   0  0  0  0  0  0  0  0  0  0  0  0
    0.5548    0.9513   -0.3783 C   0  0  0  0  0  0  0  0  0  0  0  0
   -0.0832    0.7268    0.9167 C   0  0  0  0  0  0  0  0  0  0  0  0
   -1.6713    0.7506    1.2381 S   0  0  0  0  0  0  0  0  0  0  0  0
   -1.1695    1.0492   -1.6684 H   0  0  0  0  0  0  0  0  0  0  0  0
   -0.5153    2.6191   -1.2245 H   0  0  0  0  0  0  0  0  0  0  0  0
    0.3379    1.6176   -2.4088 H   0  0  0  0  0  0  0  0  0  0  0  0
    1.5553    1.3724   -0.2585 H   0  0  0  0  0  0  0  0  0  0  0  0
    0.6097    0.4741    1.7207 H   0  0  0  0  0  0  0  0  0  0  0  0
    1.0389   -1.5263   -1.4520 C   0  0  0  0  0  3  0  0  0  0  0  0
    0.8204   -0.1822   -0.7690 H   0  0  0  0  0  0  0  0  0  0  0  0
    1.7337   -2.0057   -0.7727 H   0  0  0  0  0  0  0  0  0  0  0  0
    0.0236   -1.9044   -1.4427 H   0  0  0  0  0  0  0  0  0  0  0  0
    1.4349   -1.2413   -2.4192 H   0  0  0  0  0  0  0  0  0  0  0  0
  1  2  1  0
  1  5  1  0
  1  6  1  0
  1  7  1  0
  2  3  1  0
  2  8  1  0
  2 11  1  0
  3  4  2  0
  3  9  1  0
 10 12  1  0
 10 13  1  0
 10 14  1  0
M  RAD  1  10   2
M  END
>  <reaction>  (4) 
rxn_851

>  <mol_properties>  (4) 
{"1": {"label": "*1", "atom_type": "Cs"}, "2": {"label": "*0", "atom_type": "CS"}, "9": {"label": "*3", "atom_type": "Cs"}, "10": {"label": "*2", "atom_type": "H0"}, "11": {"label": "*4", "atom_type": "H0"}}

>  <type>  (4) 
ts

$$$$

     RDKit          3D

 14 12  0  0  0  0  0  0  0  0999 V2000
   -1.8057    1.5032    0.5548 C   0  0  0  0  0  0  0  0  0  0  0  0
   -0.5678    1.2241   -0.3020 C   0  0  0  0  0  0  0  0  0  0  0  0
    0.5102    0.5667    0.4928 C   0  0  0  0  0  0  0  0  0  0  0  0
    1.1631   -0.8742    0.2122 S   0  0  0  0  0  1  0  0  0  0  0  0
   -2.2416    0.5715    0.9176 H   0  0  0  0  0  0  0  0  0  0  0  0
   -1.5589    2.1219    1.4196 H   0  0  0  0  0  0  0  0  0  0  0  0
   -2.5608    2.0281   -0.0305 H   0  0  0  0  0  0  0  0  0  0  0  0
   -0.1718    2.1759   -0.6749 H   0  0  0  0  0  0  0  0  0  0  0  0
    0.8525    1.1477    1.3528 H   0  0  0  0  0  0  0  0  0  0  0  0
   -0.5678   -1.2409   -1.1735 C   0  0  0  0  0  0  0  0  0  0  0  0
   -0.5678   -0.0089   -0.7379 H   0  0  0  0  0  0  0  0  0  0  0  0
    0.3213   -1.7542   -0.8105 H   0  0  0  0  0  0  0  0  0  0  0  0
   -1.4569   -1.7542   -0.8105 H   0  0  0  0  0  0  0  0  0  0  0  0
   -0.5678   -1.2409   -2.2624 H   0  0  0  0  0  0  0  0  0  0  0  0
  1  2  1  0
  1  5  1  0
  1  6  1  0
  1  7  1  0
  2  3  2  3
  2  8  1  0
  3  4  1  0
  3  9  1  0
 10 11  1  0
 10 12  1  0
 10 13  1  0
 10 14  1  0
M  RAD  1   4   2
M  END
>  <reaction>  (5) 
rxn_851

>  <mol_properties>  (5) 
{"1": {"label": "*1", "atom_type": "Cs"}, "2": {"label": "*0", "atom_type": "CS"}, "9": {"label": "*3", "atom_type": "Cs"}, "10": {"label": "*2", "atom_type": "H0"}, "11": {"label": "*4", "atom_type": "H0"}}

>  <type>  (5) 
unop_1

>  <geom_source>  (5) 
Heuristics

$$$$

     RDKit          3D

 14 12  0  0  0  0  0  0  0  0999 V2000
    0.0173    1.8520   -1.4429 C   0  0  0  0  0  0  0  0  0  0  0  0
    0.7320    0.9221   -0.4587 C   0  0  0  0  0  0  0  0  0  0  0  0
   -0.1135    0.6380    0.7373 C   0  0  0  0  0  0  0  0  0  0  0  0
   -0.6296   -0.8034    1.2242 S   0  0  0  0  0  1  0  0  0  0  0  0
   -0.8856    1.3803   -1.8328 H   0  0  0  0  0  0  0  0  0  0  0  0
   -0.2693    2.7909   -0.9654 H   0  0  0  0  0  0  0  0  0  0  0  0
    0.6699    2.0871   -2.2838 H   0  0  0  0  0  0  0  0  0  0  0  0
    1.6483    1.4116   -0.1087 H   0  0  0  0  0  0  0  0  0  0  0  0
   -0.4032    1.5264    1.3042 H   0  0  0  0  0  0  0  0  0  0  0  0
    0.7320   -1.5429   -1.3302 C   0  0  0  0  0  0  0  0  0  0  0  0
    0.7320   -0.3110   -0.8947 H   0  0  0  0  0  0  0  0  0  0  0  0
    1.6211   -2.0563   -0.9673 H   0  0  0  0  0  0  0  0  0  0  0  0
   -0.1571   -2.0563   -0.9673 H   0  0  0  0  0  0  0  0  0  0  0  0
    0.7320   -1.5429   -2.4192 H   0  0  0  0  0  0  0  0  0  0  0  0
  1  2  1  0
  1  5  1  0
  1  6  1  0
  1  7  1  0
  2  3  2  3
  2  8  1  0
  3  4  1  0
  3  9  1  0
 10 11  1  0
 10 12  1  0
 10 13  1  0
 10 14  1  0
M  RAD  1   4   2
M  END
>  <reaction>  (6) 
rxn_851

>  <mol_properties>  (6) 
{"1": {"label": "*1", "atom_type": "Cs"}, "2": {"label": "*0", "atom_type": "CS"}, "9": {"label": "*3", "atom_type": "Cs"}, "10": {"label": "*2", "atom_type": "H0"}, "11": {"label": "*4", "atom_type": "H0"}}

>  <type>  (6) 
unop_2

>  <geom_source>  (6) 
Heuristics

$$$$

     RDKit          3D

 14 12  0  0  0  0  0  0  0  0999 V2000
   -1.6520    1.0419    1.3632 C   0  0  0  0  0  0  0  0  0  0  0  0
   -0.9373    0.9373    0.0132 C   0  0  0  0  0  0  0  0  0  0  0  0
    0.5343    0.7624    0.1858 C   0  0  0  0  0  0  0  0  0  0  0  0
    1.4172   -0.4788   -0.3252 S   0  0  0  0  0  1  0  0  0  0  0  0
   -1.5356    0.1196    1.9337 H   0  0  0  0  0  0  0  0  0  0  0  0
   -1.2530    1.8635    1.9611 H   0  0  0  0  0  0  0  0  0  0  0  0
   -2.7172    1.2194    1.2149 H   0  0  0  0  0  0  0  0  0  0  0  0
   -1.0977    1.8660   -0.5468 H   0  0  0  0  0  0  0  0  0  0  0  0
    1.0221    1.5728    0.7332 H   0  0  0  0  0  0  0  0  0  0  0  0
   -0.9373   -1.5278   -0.8583 C   0  0  0  0  0  0  0  0  0  0  0  0
   -0.9373   -0.2958   -0.4228 H   0  0  0  0  0  0  0  0  0  0  0  0
   -0.0482   -2.0411   -0.4953 H   0  0  0  0  0  0  0  0  0  0  0  0
   -1.8264   -2.0411   -0.4953 H   0  0  0  0  0  0  0  0  0  0  0  0
   -0.9373   -1.5278   -1.9473 H   0  0  0  0  0  0  0  0  0  0  0  0
  1  2  1  0
  1  5  1  0
  1  6  1  0
  1  7  1  0
  2  3  2  3
  2  8  1  0
  3  4  1  0
  3  9  1  0
 10 11  1  0
 10 12  1  0
 10 13  1  0
 10 14  1  0
M  RAD  1   4   2
M  END
>  <reaction>  (7) 
rxn_851

>  <mol_properties>  (7) 
{"1": {"label": "*1", "atom_type": "Cs"}, "2": {"label": "*0", "atom_type": "CS"}, "9": {"label": "*3", "atom_type": "Cs"}, "10": {"label": "*2", "atom_type": "H0"}, "11": {"label": "*4", "atom_type": "H0"}}

>  <type>  (7) 
unop_3

>  <geom_source>  (7) 
Heuristics

$$$$

     RDKit          3D

 14 12  0  0  0  0  0  0  0  0999 V2000
    2.1032    0.5924   -0.1606 C   0  0  0  0  0  0  0  0  0  0  0  0
    0.8653   -0.1631    0.3303 C   0  0  0  0  0  0  0  0  0  0  0  0
   -0.2649    0.7675    0.6175 C   0  0  0  0  0  0  0  0  0  0  0  0
   -1.7110    0.7618   -0.0825 S   0  0  0  0  0  1  0  0  0  0  0  0
    1.8975    1.0971   -1.1054 H   0  0  0  0  0  0  0  0  0  0  0  0
    2.4227    1.3443    0.5635 H   0  0  0  0  0  0  0  0  0  0  0  0
    2.9317   -0.0988   -0.3163 H   0  0  0  0  0  0  0  0  0  0  0  0
    1.1128   -0.6826    1.2635 H   0  0  0  0  0  0  0  0  0  0  0  0
   -0.0429    1.5242    1.3741 H   0  0  0  0  0  0  0  0  0  0  0  0
    0.8653   -2.6282   -0.5412 C   0  0  0  0  0  0  0  0  0  0  0  0
    0.8653   -1.3962   -0.1056 H   0  0  0  0  0  0  0  0  0  0  0  0
    1.7545   -3.1415   -0.1782 H   0  0  0  0  0  0  0  0  0  0  0  0
   -0.0238   -3.1415   -0.1782 H   0  0  0  0  0  0  0  0  0  0  0  0
    0.8653   -2.6282   -1.6301 H   0  0  0  0  0  0  0  0  0  0  0  0
  1  2  1  0
  1  5  1  0
  1  6  1  0
  1  7  1  0
  2  3  2  3
  2  8  1  0
  3  4  1  0
  3  9  1  0
 10 11  1  0
 10 12  1  0
 10 13  1  0
 10 14  1  0
M  RAD  1   4   2
M  END
>  <reaction>  (8) 
rxn_851

>  <mol_properties>  (8) 
{"1": {"label": "*1", "atom_type": "Cs"}, "2": {"label": "*0", "atom_type": "CS"}, "9": {"label": "*3", "atom_type": "Cs"}, "10": {"label": "*2", "atom_type": "H0"}, "11": {"label": "*4", "atom_type": "H0"}}

>  <type>  (8) 
unop_4

>  <geom_source>  (8) 
Heuristics

$$$$

     RDKit          3D

 14 12  0  0  0  0  0  0  0  0999 V2000
   -0.9956    0.3067    2.0368 C   0  0  0  0  0  0  0  0  0  0  0  0
   -0.9956    0.2659    0.5063 C   0  0  0  0  0  0  0  0  0  0  0  0
    0.1727    1.0007   -0.0602 C   0  0  0  0  0  0  0  0  0  0  0  0
    1.3292    0.3875   -0.9917 S   0  0  0  0  0  1  0  0  0  0  0  0
   -0.1153   -0.1987    2.4361 H   0  0  0  0  0  0  0  0  0  0  0  0
   -0.9944    1.3338    2.4067 H   0  0  0  0  0  0  0  0  0  0  0  0
   -1.8823   -0.1916    2.4289 H   0  0  0  0  0  0  0  0  0  0  0  0
   -1.9053    0.7542    0.1377 H   0  0  0  0  0  0  0  0  0  0  0  0
    0.2202    2.0554    0.2222 H   0  0  0  0  0  0  0  0  0  0  0  0
   -0.9956   -2.1992   -0.3652 C   0  0  0  0  0  0  0  0  0  0  0  0
   -0.9956   -0.9672    0.0704 H   0  0  0  0  0  0  0  0  0  0  0  0
   -0.1065   -2.7125   -0.0022 H   0  0  0  0  0  0  0  0  0  0  0  0
   -1.8847   -2.7125   -0.0022 H   0  0  0  0  0  0  0  0  0  0  0  0
   -0.9956   -2.1992   -1.4541 H   0  0  0  0  0  0  0  0  0  0  0  0
  1  2  1  0
  1  5  1  0
  1  6  1  0
  1  7  1  0
  2  3  2  3
  2  8  1  0
  3  4  1  0
  3  9  1  0
 10 11  1  0
 10 12  1  0
 10 13  1  0
 10 14  1  0
M  RAD  1   4   2
M  END
>  <reaction>  (9) 
rxn_851

>  <mol_properties>  (9) 
{"1": {"label": "*1", "atom_type": "Cs"}, "2": {"label": "*0", "atom_type": "CS"}, "9": {"label": "*3", "atom_type": "Cs"}, "10": {"label": "*2", "atom_type": "H0"}, "11": {"label": "*4", "atom_type": "H0"}}

>  <type>  (9) 
unop_5

>  <geom_source>  (9) 
Heuristics

$$$$

     RDKit          3D

 14 12  0  0  0  0  0  0  0  0999 V2000
    2.0292    0.1766    0.7552 C   0  0  0  0  0  0  0  0  0  0  0  0
    0.5998   -0.3407    0.5723 C   0  0  0  0  0  0  0  0  0  0  0  0
   -0.3837    0.7797    0.5134 C   0  0  0  0  0  0  0  0  0  0  0  0
   -1.3678    1.1264   -0.7082 S   0  0  0  0  0  1  0  0  0  0  0  0
    2.3323    0.7825   -0.0996 H   0  0  0  0  0  0  0  0  0  0  0  0
    2.1177    0.7894    1.6542 H   0  0  0  0  0  0  0  0  0  0  0  0
    2.7250   -0.6576    0.8461 H   0  0  0  0  0  0  0  0  0  0  0  0
    0.3365   -0.9688    1.4313 H   0  0  0  0  0  0  0  0  0  0  0  0
   -0.3950    1.4150    1.4027 H   0  0  0  0  0  0  0  0  0  0  0  0
    0.5998   -2.8057   -0.2992 C   0  0  0  0  0  0  0  0  0  0  0  0
    0.5998   -1.5737    0.1363 H   0  0  0  0  0  0  0  0  0  0  0  0
    1.4889   -3.3191    0.0637 H   0  0  0  0  0  0  0  0  0  0  0  0
   -0.2893   -3.3191    0.0637 H   0  0  0  0  0  0  0  0  0  0  0  0
    0.5998   -2.8057   -1.3882 H   0  0  0  0  0  0  0  0  0  0  0  0
  1  2  1  0
  1  5  1  0
  1  6  1  0
  1  7  1  0
  2  3  2  3
  2  8  1  0
  3  4  1  0
  3  9  1  0
 10 11  1  0
 10 12  1  0
 10 13  1  0
 10 14  1  0
M  RAD  1   4   2
M  END
>  <reaction>  (10) 
rxn_851

>  <mol_properties>  (10) 
{"1": {"label": "*1", "atom_type": "Cs"}, "2": {"label": "*0", "atom_type": "CS"}, "9": {"label": "*3", "atom_type": "Cs"}, "10": {"label": "*2", "atom_type": "H0"}, "11": {"label": "*4", "atom_type": "H0"}}

>  <type>  (10) 
unop_6

>  <geom_source>  (10) 
Heuristics

$$$$

     RDKit          3D

 14 12  0  0  0  0  0  0  0  0999 V2000
    1.4351   -0.1353    1.6239 C   0  0  0  0  0  0  0  0  0  0  0  0
    0.1972   -0.4143    0.7672 C   0  0  0  0  0  0  0  0  0  0  0  0
   -0.4459    0.8509    0.3073 C   0  0  0  0  0  0  0  0  0  0  0  0
   -0.6683    1.3132   -1.2152 S   0  0  0  0  0  1  0  0  0  0  0  0
    2.1987    0.3817    1.0414 H   0  0  0  0  0  0  0  0  0  0  0  0
    1.1887    0.4855    2.4875 H   0  0  0  0  0  0  0  0  0  0  0  0
    1.8601   -1.0696    1.9909 H   0  0  0  0  0  0  0  0  0  0  0  0
   -0.5375   -0.9595    1.3712 H   0  0  0  0  0  0  0  0  0  0  0  0
   -0.7705    1.5100    1.1164 H   0  0  0  0  0  0  0  0  0  0  0  0
    0.1972   -2.8794   -0.1043 C   0  0  0  0  0  0  0  0  0  0  0  0
    0.1972   -1.6474    0.3313 H   0  0  0  0  0  0  0  0  0  0  0  0
    1.0863   -3.3927    0.2587 H   0  0  0  0  0  0  0  0  0  0  0  0
   -0.6919   -3.3927    0.2587 H   0  0  0  0  0  0  0  0  0  0  0  0
    0.1972   -2.8794   -1.1932 H   0  0  0  0  0  0  0  0  0  0  0  0
  1  2  1  0
  1  5  1  0
  1  6  1  0
  1  7  1  0
  2  3  2  3
  2  8  1  0
  3  4  1  0
  3  9  1  0
 10 11  1  0
 10 12  1  0
 10 13  1  0
 10 14  1  0
M  RAD  1   4   2
M  END
>  <reaction>  (11) 
rxn_851

>  <mol_properties>  (11) 
{"1": {"label": "*1", "atom_type": "Cs"}, "2": {"label": "*0", "atom_type": "CS"}, "9": {"label": "*3", "atom_type": "Cs"}, "10": {"label": "*2", "atom_type": "H0"}, "11": {"label": "*4", "atom_type": "H0"}}

>  <type>  (11) 
unop_7

>  <geom_source>  (11) 
Heuristics

$$$$

     RDKit          3D

 14 12  0  0  0  0  0  0  0  0999 V2000
   -1.5771    1.8006   -0.3046 C   0  0  0  0  0  0  0  0  0  0  0  0
   -0.1477    1.2834   -0.4875 C   0  0  0  0  0  0  0  0  0  0  0  0
    0.3052    0.4979    0.6973 C   0  0  0  0  0  0  0  0  0  0  0  0
    0.7642   -1.0417    0.7067 S   0  0  0  0  0  1  0  0  0  0  0  0
   -2.2800    0.9706   -0.2223 H   0  0  0  0  0  0  0  0  0  0  0  0
   -1.6662    2.4115    0.5957 H   0  0  0  0  0  0  0  0  0  0  0  0
   -1.8702    2.4128   -1.1575 H   0  0  0  0  0  0  0  0  0  0  0  0
    0.5287    2.1391   -0.5967 H   0  0  0  0  0  0  0  0  0  0  0  0
    0.2950    1.0558    1.6371 H   0  0  0  0  0  0  0  0  0  0  0  0
   -0.1477   -1.1817   -1.3590 C   0  0  0  0  0  0  0  0  0  0  0  0
   -0.1477    0.0503   -0.9235 H   0  0  0  0  0  0  0  0  0  0  0  0
    0.7414   -1.6950   -0.9961 H   0  0  0  0  0  0  0  0  0  0  0  0
   -1.0368   -1.6950   -0.9961 H   0  0  0  0  0  0  0  0  0  0  0  0
   -0.1477   -1.1817   -2.4480 H   0  0  0  0  0  0  0  0  0  0  0  0
  1  2  1  0
  1  5  1  0
  1  6  1  0
  1  7  1  0
  2  3  2  3
  2  8  1  0
  3  4  1  0
  3  9  1  0
 10 11  1  0
 10 12  1  0
 10 13  1  0
 10 14  1  0
M  RAD  1   4   2
M  END
>  <reaction>  (12) 
rxn_851

>  <mol_properties>  (12) 
{"1": {"label": "*1", "atom_type": "Cs"}, "2": {"label": "*0", "atom_type": "CS"}, "9": {"label": "*3", "atom_type": "Cs"}, "10": {"label": "*2", "atom_type": "H0"}, "11": {"label": "*4", "atom_type": "H0"}}

>  <type>  (12) 
unop_8

>  <geom_source>  (12) 
Heuristics

$$$$

     RDKit          3D

 14 12  0  0  0  0  0  0  0  0999 V2000
    1.7328    1.0564   -0.9238 C   0  0  0  0  0  0  0  0  0  0  0  0
    1.0181    0.1265    0.0604 C   0  0  0  0  0  0  0  0  0  0  0  0
   -0.1902    0.7761    0.6472 C   0  0  0  0  0  0  0  0  0  0  0  0
   -1.7067    0.2587    0.5312 S   0  0  0  0  0  1  0  0  0  0  0  0
    1.0883    1.2882   -1.7727 H   0  0  0  0  0  0  0  0  0  0  0  0
    2.0172    1.9964   -0.4469 H   0  0  0  0  0  0  0  0  0  0  0  0
    2.6387    0.5830   -1.3023 H   0  0  0  0  0  0  0  0  0  0  0  0
    1.7006   -0.1108    0.8848 H   0  0  0  0  0  0  0  0  0  0  0  0
    0.0161    1.7023    1.1894 H   0  0  0  0  0  0  0  0  0  0  0  0
    1.0181   -2.3385   -0.8111 C   0  0  0  0  0  0  0  0  0  0  0  0
    1.0181   -1.1065   -0.3755 H   0  0  0  0  0  0  0  0  0  0  0  0
    1.9072   -2.8518   -0.4481 H   0  0  0  0  0  0  0  0  0  0  0  0
    0.1289   -2.8518   -0.4481 H   0  0  0  0  0  0  0  0  0  0  0  0
    1.0181   -2.3385   -1.9000 H   0  0  0  0  0  0  0  0  0  0  0  0
  1  2  1  0
  1  5  1  0
  1  6  1  0
  1  7  1  0
  2  3  2  3
  2  8  1  0
  3  4  1  0
  3  9  1  0
 10 11  1  0
 10 12  1  0
 10 13  1  0
 10 14  1  0
M  RAD  1   4   2
M  END
>  <reaction>  (13) 
rxn_851

>  <mol_properties>  (13) 
{"1": {"label": "*1", "atom_type": "Cs"}, "2": {"label": "*0", "atom_type": "CS"}, "9": {"label": "*3", "atom_type": "Cs"}, "10": {"label": "*2", "atom_type": "H0"}, "11": {"label": "*4", "atom_type": "H0"}}

>  <type>  (13) 
unop_9

>  <geom_source>  (13) 
Heuristics

$$$$

     RDKit          3D

 14 12  0  0  0  0  0  0  0  0999 V2000
   -0.9314    1.9406   -1.0404 C   0  0  0  0  0  0  0  0  0  0  0  0
    0.3065    1.1851   -0.5495 C   0  0  0  0  0  0  0  0  0  0  0  0
    0.0616    0.5335    0.7701 C   0  0  0  0  0  0  0  0  0  0  0  0
    0.1466   -1.0382    1.0921 S   0  0  0  0  0  1  0  0  0  0  0  0
   -1.7618    1.2533   -1.2073 H   0  0  0  0  0  0  0  0  0  0  0  0
   -1.2523    2.6909   -0.3153 H   0  0  0  0  0  0  0  0  0  0  0  0
   -0.7163    2.4502   -1.9797 H   0  0  0  0  0  0  0  0  0  0  0  0
    1.1296    1.8975   -0.4202 H   0  0  0  0  0  0  0  0  0  0  0  0
   -0.2163    1.2260    1.5687 H   0  0  0  0  0  0  0  0  0  0  0  0
    0.3065   -1.2799   -1.4210 C   0  0  0  0  0  0  0  0  0  0  0  0
    0.3065   -0.0479   -0.9854 H   0  0  0  0  0  0  0  0  0  0  0  0
    1.1956   -1.7932   -1.0580 H   0  0  0  0  0  0  0  0  0  0  0  0
   -0.5827   -1.7932   -1.0580 H   0  0  0  0  0  0  0  0  0  0  0  0
    0.3065   -1.2799   -2.5099 H   0  0  0  0  0  0  0  0  0  0  0  0
  1  2  1  0
  1  5  1  0
  1  6  1  0
  1  7  1  0
  2  3  2  3
  2  8  1  0
  3  4  1  0
  3  9  1  0
 10 11  1  0
 10 12  1  0
 10 13  1  0
 10 14  1  0
M  RAD  1   4   2
M  END
>  <reaction>  (14) 
rxn_851

>  <mol_properties>  (14) 
{"1": {"label": "*1", "atom_type": "Cs"}, "2": {"label": "*0", "atom_type": "CS"}, "9": {"label": "*3", "atom_type": "Cs"}, "10": {"label": "*2", "atom_type": "H0"}, "11": {"label": "*4", "atom_type": "H0"}}

>  <type>  (14) 
unop_10

>  <geom_source>  (14) 
Heuristics

$$$$

     RDKit          3D

 14 12  0  0  0  0  0  0  0  0999 V2000
    0.3121   -0.1916    2.1682 C   0  0  0  0  0  0  0  0  0  0  0  0
   -0.4026   -0.2963    0.8182 C   0  0  0  0  0  0  0  0  0  0  0  0
   -0.3018    0.9764    0.0461 C   0  0  0  0  0  0  0  0  0  0  0  0
    0.3716    1.1681   -1.3999 S   0  0  0  0  0  1  0  0  0  0  0  0
    1.3804   -0.0233    2.0269 H   0  0  0  0  0  0  0  0  0  0  0  0
   -0.0853    0.6315    2.7651 H   0  0  0  0  0  0  0  0  0  0  0  0
    0.1840   -1.1128    2.7368 H   0  0  0  0  0  0  0  0  0  0  0  0
   -1.4664   -0.4947    0.9936 H   0  0  0  0  0  0  0  0  0  0  0  0
   -0.7257    1.8457    0.5552 H   0  0  0  0  0  0  0  0  0  0  0  0
   -0.4026   -2.7613   -0.0533 C   0  0  0  0  0  0  0  0  0  0  0  0
   -0.4026   -1.5293    0.3822 H   0  0  0  0  0  0  0  0  0  0  0  0
    0.4865   -3.2747    0.3096 H   0  0  0  0  0  0  0  0  0  0  0  0
   -1.2917   -3.2746    0.3096 H   0  0  0  0  0  0  0  0  0  0  0  0
   -0.4026   -2.7613   -1.1423 H   0  0  0  0  0  0  0  0  0  0  0  0
  1  2  1  0
  1  5  1  0
  1  6  1  0
  1  7  1  0
  2  3  2  3
  2  8  1  0
  3  4  1  0
  3  9  1  0
 10 11  1  0
 10 12  1  0
 10 13  1  0
 10 14  1  0
M  RAD  1   4   2
M  END
>  <reaction>  (15) 
rxn_851

>  <mol_properties>  (15) 
{"1": {"label": "*1", "atom_type": "Cs"}, "2": {"label": "*0", "atom_type": "CS"}, "9": {"label": "*3", "atom_type": "Cs"}, "10": {"label": "*2", "atom_type": "H0"}, "11": {"label": "*4", "atom_type": "H0"}}

>  <type>  (15) 
unop_11

>  <geom_source>  (15) 
Heuristics

$$$$

     RDKit          3D

 14 12  0  0  0  0  0  0  0  0999 V2000
    0.9956    1.5188   -1.3915 C   0  0  0  0  0  0  0  0  0  0  0  0
    0.9956    0.5250   -0.2267 C   0  0  0  0  0  0  0  0  0  0  0  0
   -0.1727    0.7405    0.6757 C   0  0  0  0  0  0  0  0  0  0  0  0
   -1.3292   -0.3220    1.0148 S   0  0  0  0  0  1  0  0  0  0  0  0
    0.1153    1.3767   -2.0196 H   0  0  0  0  0  0  0  0  0  0  0  0
    0.9944    2.5501   -1.0336 H   0  0  0  0  0  0  0  0  0  0  0  0
    1.8823    1.3777   -2.0096 H   0  0  0  0  0  0  0  0  0  0  0  0
    1.9053    0.6732    0.3669 H   0  0  0  0  0  0  0  0  0  0  0  0
   -0.2202    1.7383    1.1191 H   0  0  0  0  0  0  0  0  0  0  0  0
    0.9956   -1.9400   -1.0982 C   0  0  0  0  0  0  0  0  0  0  0  0
    0.9956   -0.7080   -0.6626 H   0  0  0  0  0  0  0  0  0  0  0  0
    1.8847   -2.4533   -0.7352 H   0  0  0  0  0  0  0  0  0  0  0  0
    0.1065   -2.4533   -0.7352 H   0  0  0  0  0  0  0  0  0  0  0  0
    0.9956   -1.9400   -2.1871 H   0  0  0  0  0  0  0  0  0  0  0  0
  1  2  1  0
  1  5  1  0
  1  6  1  0
  1  7  1  0
  2  3  2  3
  2  8  1  0
  3  4  1  0
  3  9  1  0
 10 11  1  0
 10 12  1  0
 10 13  1  0
 10 14  1  0
M  RAD  1   4   2
M  END
>  <reaction>  (16) 
rxn_851

>  <mol_properties>  (16) 
{"1": {"label": "*1", "atom_type": "Cs"}, "2": {"label": "*0", "atom_type": "CS"}, "9": {"label": "*3", "atom_type": "Cs"}, "10": {"label": "*2", "atom_type": "H0"}, "11": {"label": "*4", "atom_type": "H0"}}

>  <type>  (16) 
unop_12

>  <geom_source>  (16) 
Heuristics

$$$$

     RDKit          3D

 14 12  0  0  0  0  0  0  0  0999 V2000
   -2.3446    1.3855   -1.3789 S   0  0  0  0  0  1  0  0  0  0  0  0
   -0.4616   -0.0535   -0.3992 C   0  0  0  0  0  0  0  0  0  0  0  0
   -1.2222   -0.9371    0.5850 C   0  0  0  0  0  0  0  0  0  0  0  0
   -1.1434    1.2716   -0.5972 C   0  0  0  0  0  0  0  0  0  0  0  0
    2.1044   -0.0074    0.1724 C   0  0  0  0  0  0  0  0  0  0  0  0
   -0.3455   -0.5810   -1.3717 H   0  0  0  0  0  0  0  0  0  0  0  0
    0.8662    0.1876    0.1390 H   0  0  0  0  0  0  0  0  0  0  0  0
   -2.2275   -1.1901    0.1860 H   0  0  0  0  0  0  0  0  0  0  0  0
   -0.6566   -1.8784    0.7460 H   0  0  0  0  0  0  0  0  0  0  0  0
   -1.3314   -0.4170    1.5603 H   0  0  0  0  0  0  0  0  0  0  0  0
   -0.6552    2.1734   -0.2440 H   0  0  0  0  0  0  0  0  0  0  0  0
    2.5677   -0.2811   -0.7977 H   0  0  0  0  0  0  0  0  0  0  0  0
    2.3911    1.0306    0.4393 H   0  0  0  0  0  0  0  0  0  0  0  0
    2.4586   -0.7031    0.9607 H   0  0  0  0  0  0  0  0  0  0  0  0
  1  4  1  0
  2  3  1  0
  2  4  2  3
  2  6  1  0
  3  8  1  0
  3  9  1  0
  3 10  1  0
  4 11  1  0
  5  7  1  0
  5 12  1  0
  5 13  1  0
  5 14  1  0
M  RAD  1   1   2
M  END
>  <reaction>  (17) 
rxn_851

>  <mol_properties>  (17) 
{"1": {"label": "*1", "atom_type": "Cs"}, "2": {"label": "*0", "atom_type": "CS"}, "9": {"label": "*3", "atom_type": "Cs"}, "10": {"label": "*2", "atom_type": "H0"}, "11": {"label": "*4", "atom_type": "H0"}}

>  <type>  (17) 
unop_13

>  <geom_source>  (17) 
AutoTST

$$$$
