
     RDKit          3D

  9  8  0  0  0  0  0  0  0  0999 V2000
    1.1303   -0.2933   -0.7510 C   0  0  0  0  0  0  0  0  0  0  0  0
    0.2866    0.4560   -0.0588 C   0  0  0  0  0  0  0  0  0  0  0  0
   -0.9719   -0.0331    0.5823 C   0  0  0  0  0  0  0  0  0  0  0  0
    2.0274    0.1230   -1.1916 H   0  0  0  0  0  0  0  0  0  0  0  0
    0.9532   -1.3530   -0.9023 H   0  0  0  0  0  0  0  0  0  0  0  0
    0.5065    1.5132    0.0659 H   0  0  0  0  0  0  0  0  0  0  0  0
   -0.9526    0.1426    1.6610 H   0  0  0  0  0  0  0  0  0  0  0  0
   -1.1182   -1.1002    0.4106 H   0  0  0  0  0  0  0  0  0  0  0  0
   -1.8412    0.5010    0.1901 H   0  0  0  0  0  0  0  0  0  0  0  0
  1  2  2  3
  1  4  1  0
  1  5  1  0
  2  3  1  0
  2  6  1  0
  3  7  1  0
  3  8  1  0
  3  9  1  0
M  END
>  <reaction>  (1) 
rxn_1019

>  <mol_properties>  (1) 
{"2": {"label": "donator", "atom_type": "Cs"}, "6": {"label": "d_hydrogen", "atom_type": "H0"}}

>  <type>  (1) 
r1h

$$$$

     RDKit          3D

 11 10  0  0  0  0  0  0  0  0999 V2000
    1.0781   -1.0166   -0.1159 C   0  0  0  0  0  0  0  0  0  0  0  0
    0.2180    0.1942   -0.2297 C   0  0  0  0  0  3  0  0  0  0  0  0
    0.9343    1.7769   -0.3011 S   0  0  0  0  0  0  0  0  0  0  0  0
   -1.1949    0.1490    0.2439 C   0  0  0  0  0  0  0  0  0  0  0  0
    1.4718   -1.1461    0.9024 H   0  0  0  0  0  0  0  0  0  0  0  0
    1.9367   -0.9751   -0.7902 H   0  0  0  0  0  0  0  0  0  0  0  0
    0.5033   -1.9136   -0.3576 H   0  0  0  0  0  0  0  0  0  0  0  0
    2.1166    1.4195   -0.8209 H   0  0  0  0  0  0  0  0  0  0  0  0
   -1.2620    0.0939    1.3399 H   0  0  0  0  0  0  0  0  0  0  0  0
   -1.7600    1.0270   -0.0739 H   0  0  0  0  0  0  0  0  0  0  0  0
   -1.6972   -0.7380   -0.1506 H   0  0  0  0  0  0  0  0  0  0  0  0
  1  2  1  0
  1  5  1  0
  1  6  1  0
  1  7  1  0
  2  4  1  0
  2  3  1  0
  3  8  1  0
  4  9  1  0
  4 10  1  0
  4 11  1  0
M  RAD  1   2   2
M  END
>  <reaction>  (2) 
rxn_1019

>  <mol_properties>  (2) 
{"1": {"label": "acceptor", "atom_type": "Cs"}}

>  <type>  (2) 
r2

$$$$

     RDKit          3D

 12 11  0  0  0  0  0  0  0  0999 V2000
    1.2394   -0.3763   -0.3020 C   0  0  0  0  0  0  0  0  0  0  0  0
    0.1007    0.3023    0.4464 C   0  0  0  0  0  0  0  0  0  0  0  0
   -0.1187    2.0399   -0.0725 S   0  0  0  0  0  0  0  0  0  0  0  0
   -1.1974   -0.4877    0.3552 C   0  0  0  0  0  0  0  0  0  0  0  0
    2.1681    0.1849   -0.2048 H   0  0  0  0  0  0  0  0  0  0  0  0
    1.0031   -0.4606   -1.3656 H   0  0  0  0  0  0  0  0  0  0  0  0
    1.3994   -1.3856    0.0860 H   0  0  0  0  0  0  0  0  0  0  0  0
    0.3796    0.4050    1.4981 H   0  0  0  0  0  0  0  0  0  0  0  0
   -0.4500    1.7779   -1.3452 H   0  0  0  0  0  0  0  0  0  0  0  0
   -1.0545   -1.4978    0.7479 H   0  0  0  0  0  0  0  0  0  0  0  0
   -1.5206   -0.5759   -0.6849 H   0  0  0  0  0  0  0  0  0  0  0  0
   -1.9957   -0.0054    0.9183 H   0  0  0  0  0  0  0  0  0  0  0  0
  1  2  1  0
  1  5  1  0
  1  6  1  0
  1  7  1  0
  2  4  1  0
  2  3  1  0
  2  8  1  0
  3  9  1  0
  4 10  1  0
  4 11  1  0
  4 12  1  0
M  END
>  <reaction>  (3) 
rxn_1019

>  <mol_properties>  (3) 
{"1": {"label": "acceptor", "atom_type": "Cs"}, "11": {"label": "a_hydrogen", "atom_type": "H0"}}

>  <type>  (3) 
r2h

$$$$

     RDKit          3D

 20 18  0  0  0  0  0  0  0  0999 V2000
   -0.0370    1.4012    2.0504 C   0  0  0  0  0  0  0  0  0  0  0  0
   -0.3778    0.7132    0.7528 C   0  0  0  0  0  3  0  0  0  0  0  0
   -1.0520   -0.9136    1.0335 S   0  0  0  0  0  0  0  0  0  0  0  0
   -1.1117    1.5567   -0.2574 C   0  0  0  0  0  0  0  0  0  0  0  0
    0.5642    0.7611    2.6979 H   0  0  0  0  0  0  0  0  0  0  0  0
   -0.9398    1.6886    2.5997 H   0  0  0  0  0  0  0  0  0  0  0  0
    0.5309    2.3114    1.8468 H   0  0  0  0  0  0  0  0  0  0  0  0
   -1.1775   -1.2537   -0.2572 H   0  0  0  0  0  0  0  0  0  0  0  0
   -0.5736    2.4934   -0.4231 H   0  0  0  0  0  0  0  0  0  0  0  0
   -1.1954    1.0401   -1.2153 H   0  0  0  0  0  0  0  0  0  0  0  0
   -2.1215    1.7990    0.0878 H   0  0  0  0  0  0  0  0  0  0  0  0
    1.0757   -0.7582   -2.6808 C   0  0  0  0  0  0  0  0  0  0  0  0
    1.5936   -0.8533   -1.4501 C   0  0  0  0  0  0  0  0  0  0  0  0
    1.9083    0.2727   -0.5883 C   0  0  0  0  0  0  0  0  0  0  0  0
    0.8249   -1.6381   -3.2586 H   0  0  0  0  0  0  0  0  0  0  0  0
    0.9077    0.2060   -3.1488 H   0  0  0  0  0  0  0  0  0  0  0  0
    1.7429   -1.8427   -1.0272 H   0  0  0  0  0  0  0  0  0  0  0  0
    0.8174    0.4775    0.1423 H   0  0  0  0  0  0  0  0  0  0  0  0
    2.0329    1.2290   -1.0932 H   0  0  0  0  0  0  0  0  0  0  0  0
    2.6627    0.0934    0.1733 H   0  0  0  0  0  0  0  0  0  0  0  0
  1  2  1  0
  1  5  1  0
  1  6  1  0
  1  7  1  0
  2  4  1  0
  2  3  1  0
  3  8  1  0
  4  9  1  0
  4 10  1  0
  4 11  1  0
 12 13  2  3
 12 15  1  0
 12 16  1  0
 13 14  1  0
 13 17  1  0
 14 18  1  0
 14 19  1  0
 14 20  1  0
M  RAD  1   2   2
M  END
>  <reaction>  (4) 
rxn_1019

>  <mol_properties>  (4) 
{"1": {"label": "*3", "atom_type": "Cs"}, "2": {"label": "*4", "atom_type": "S2s"}, "12": {"label": "*0", "atom_type": "Cd"}, "13": {"label": "*1", "atom_type": "Cs"}, "17": {"label": "*2", "atom_type": "H0"}}

>  <type>  (4) 
ts

$$$$

     RDKit          3D

 20 18  0  0  0  0  0  0  0  0999 V2000
    0.1060    0.3423    2.3027 C   0  0  0  0  0  0  0  0  0  0  0  0
   -0.3561    0.3258    0.8523 C   0  0  0  0  0  0  0  0  0  0  0  0
   -1.9861   -0.4767    0.6632 S   0  0  0  0  0  0  0  0  0  0  0  0
   -0.3276    1.7125    0.2249 C   0  0  0  0  0  0  0  0  0  0  0  0
    0.1075   -0.6599    2.7299 H   0  0  0  0  0  0  0  0  0  0  0  0
   -0.5533    0.9689    2.9083 H   0  0  0  0  0  0  0  0  0  0  0  0
    1.1163    0.7534    2.3737 H   0  0  0  0  0  0  0  0  0  0  0  0
   -2.6780    0.4106    1.3928 H   0  0  0  0  0  0  0  0  0  0  0  0
    0.6796    2.1332    0.2814 H   0  0  0  0  0  0  0  0  0  0  0  0
   -0.6335    1.6814   -0.8203 H   0  0  0  0  0  0  0  0  0  0  0  0
   -1.0024    2.3880    0.7565 H   0  0  0  0  0  0  0  0  0  0  0  0
    1.7503   -0.9375   -2.8949 C   0  0  0  0  0  0  0  0  0  0  0  0
    1.7503   -0.9375   -1.5711 C   0  0  0  0  0  0  0  0  0  0  0  0
    1.7503    0.2847   -0.7106 C   0  0  0  0  0  3  0  0  0  0  0  0
    1.7503   -1.8602   -3.4614 H   0  0  0  0  0  0  0  0  0  0  0  0
    1.7503   -0.0119   -3.4609 H   0  0  0  0  0  0  0  0  0  0  0  0
    1.7503   -1.8901   -1.0476 H   0  0  0  0  0  0  0  0  0  0  0  0
    0.6971    0.3052    0.0709 H   0  0  0  0  0  0  0  0  0  0  0  0
    1.7503    1.1951   -1.3112 H   0  0  0  0  0  0  0  0  0  0  0  0
    2.6280    0.3018   -0.0594 H   0  0  0  0  0  0  0  0  0  0  0  0
  1  2  1  0
  1  5  1  0
  1  6  1  0
  1  7  1  0
  2  4  1  0
  2  3  1  0
  2 18  1  0
  3  8  1  0
  4  9  1  0
  4 10  1  0
  4 11  1  0
 12 13  2  3
 12 15  1  0
 12 16  1  0
 13 14  1  0
 13 17  1  0
 14 19  1  0
 14 20  1  0
M  RAD  1  14   2
M  END
>  <reaction>  (5) 
rxn_1019

>  <mol_properties>  (5) 
{"1": {"label": "*3", "atom_type": "Cs"}, "2": {"label": "*4", "atom_type": "S2s"}, "12": {"label": "*0", "atom_type": "Cd"}, "13": {"label": "*1", "atom_type": "Cs"}, "17": {"label": "*2", "atom_type": "H0"}}

>  <type>  (5) 
unop_1

>  <geom_source>  (5) 
Heuristics

$$$$

     RDKit          3D

 20 18  0  0  0  0  0  0  0  0999 V2000
   -0.8040   -1.3137    1.1786 C   0  0  0  0  0  0  0  0  0  0  0  0
   -0.3951    0.1186    0.8642 C   0  0  0  0  0  0  0  0  0  0  0  0
   -1.8126    1.1282    0.3094 S   0  0  0  0  0  0  0  0  0  0  0  0
    0.3502    0.7698    2.0209 C   0  0  0  0  0  0  0  0  0  0  0  0
   -1.3110   -1.7762    0.3325 H   0  0  0  0  0  0  0  0  0  0  0  0
   -1.4810   -1.3399    2.0360 H   0  0  0  0  0  0  0  0  0  0  0  0
    0.0755   -1.9126    1.4284 H   0  0  0  0  0  0  0  0  0  0  0  0
   -2.5099    1.0524    1.4524 H   0  0  0  0  0  0  0  0  0  0  0  0
    1.2378    0.1854    2.2766 H   0  0  0  0  0  0  0  0  0  0  0  0
    0.6612    1.7837    1.7718 H   0  0  0  0  0  0  0  0  0  0  0  0
   -0.2856    0.8178    2.9084 H   0  0  0  0  0  0  0  0  0  0  0  0
    1.7114   -1.1447   -2.8829 C   0  0  0  0  0  0  0  0  0  0  0  0
    1.7114   -1.1447   -1.5592 C   0  0  0  0  0  0  0  0  0  0  0  0
    1.7114    0.0775   -0.6987 C   0  0  0  0  0  3  0  0  0  0  0  0
    1.7114   -2.0674   -3.4494 H   0  0  0  0  0  0  0  0  0  0  0  0
    1.7114   -0.2191   -3.4489 H   0  0  0  0  0  0  0  0  0  0  0  0
    1.7114   -2.0973   -1.0357 H   0  0  0  0  0  0  0  0  0  0  0  0
    0.6581    0.0981    0.0828 H   0  0  0  0  0  0  0  0  0  0  0  0
    1.7114    0.9880   -1.2993 H   0  0  0  0  0  0  0  0  0  0  0  0
    2.5891    0.0946   -0.0475 H   0  0  0  0  0  0  0  0  0  0  0  0
  1  2  1  0
  1  5  1  0
  1  6  1  0
  1  7  1  0
  2  4  1  0
  2  3  1  0
  2 18  1  0
  3  8  1  0
  4  9  1  0
  4 10  1  0
  4 11  1  0
 12 13  2  3
 12 15  1  0
 12 16  1  0
 13 14  1  0
 13 17  1  0
 14 19  1  0
 14 20  1  0
M  RAD  1  14   2
M  END
>  <reaction>  (6) 
rxn_1019

>  <mol_properties>  (6) 
{"1": {"label": "*3", "atom_type": "Cs"}, "2": {"label": "*4", "atom_type": "S2s"}, "12": {"label": "*0", "atom_type": "Cd"}, "13": {"label": "*1", "atom_type": "Cs"}, "17": {"label": "*2", "atom_type": "H0"}}

>  <type>  (6) 
unop_2

>  <geom_source>  (6) 
Heuristics

$$$$

     RDKit          3D

 20 18  0  0  0  0  0  0  0  0999 V2000
   -0.0621    1.2140    2.0757 C   0  0  0  0  0  0  0  0  0  0  0  0
   -0.4157    0.4787    0.7904 C   0  0  0  0  0  0  0  0  0  0  0  0
   -1.4636   -0.9839    1.1058 S   0  0  0  0  0  0  0  0  0  0  0  0
   -1.0286    1.4049   -0.2508 C   0  0  0  0  0  0  0  0  0  0  0  0
    0.4010    0.5455    2.8006 H   0  0  0  0  0  0  0  0  0  0  0  0
   -0.9582    1.6417    2.5319 H   0  0  0  0  0  0  0  0  0  0  0  0
    0.6297    2.0337    1.8651 H   0  0  0  0  0  0  0  0  0  0  0  0
   -2.5158   -0.3138    1.5979 H   0  0  0  0  0  0  0  0  0  0  0  0
   -0.3435    2.2258   -0.4776 H   0  0  0  0  0  0  0  0  0  0  0  0
   -1.2503    0.8716   -1.1745 H   0  0  0  0  0  0  0  0  0  0  0  0
   -1.9591    1.8394    0.1226 H   0  0  0  0  0  0  0  0  0  0  0  0
    1.6907   -0.7846   -2.9567 C   0  0  0  0  0  0  0  0  0  0  0  0
    1.6907   -0.7846   -1.6329 C   0  0  0  0  0  0  0  0  0  0  0  0
    1.6907    0.4376   -0.7724 C   0  0  0  0  0  3  0  0  0  0  0  0
    1.6907   -1.7073   -3.5232 H   0  0  0  0  0  0  0  0  0  0  0  0
    1.6907    0.1410   -3.5227 H   0  0  0  0  0  0  0  0  0  0  0  0
    1.6907   -1.7372   -1.1094 H   0  0  0  0  0  0  0  0  0  0  0  0
    0.6375    0.4582    0.0090 H   0  0  0  0  0  0  0  0  0  0  0  0
    1.6907    1.3481   -1.3730 H   0  0  0  0  0  0  0  0  0  0  0  0
    2.5685    0.4547   -0.1212 H   0  0  0  0  0  0  0  0  0  0  0  0
  1  2  1  0
  1  5  1  0
  1  6  1  0
  1  7  1  0
  2  4  1  0
  2  3  1  0
  2 18  1  0
  3  8  1  0
  4  9  1  0
  4 10  1  0
  4 11  1  0
 12 13  2  3
 12 15  1  0
 12 16  1  0
 13 14  1  0
 13 17  1  0
 14 19  1  0
 14 20  1  0
M  RAD  1  14   2
M  END
>  <reaction>  (7) 
rxn_1019

>  <mol_properties>  (7) 
{"1": {"label": "*3", "atom_type": "Cs"}, "2": {"label": "*4", "atom_type": "S2s"}, "12": {"label": "*0", "atom_type": "Cd"}, "13": {"label": "*1", "atom_type": "Cs"}, "17": {"label": "*2", "atom_type": "H0"}}

>  <type>  (7) 
unop_3

>  <geom_source>  (7) 
Heuristics

$$$$

     RDKit          3D

 20 18  0  0  0  0  0  0  0  0999 V2000
   -2.0046   -0.0932   -0.0589 C   0  0  0  0  0  0  0  0  0  0  0  0
   -0.7502   -0.0921    0.8037 C   0  0  0  0  0  0  0  0  0  0  0  0
   -0.0189    1.5758    0.9447 S   0  0  0  0  0  0  0  0  0  0  0  0
   -0.9904   -0.7261    2.1668 C   0  0  0  0  0  0  0  0  0  0  0  0
   -1.8111    0.3373   -1.0408 H   0  0  0  0  0  0  0  0  0  0  0  0
   -2.7978    0.4886    0.4169 H   0  0  0  0  0  0  0  0  0  0  0  0
   -2.3721   -1.1140   -0.1917 H   0  0  0  0  0  0  0  0  0  0  0  0
   -1.0556    2.1432    1.5784 H   0  0  0  0  0  0  0  0  0  0  0  0
   -1.3509   -1.7513    2.0495 H   0  0  0  0  0  0  0  0  0  0  0  0
   -0.0782   -0.7441    2.7621 H   0  0  0  0  0  0  0  0  0  0  0  0
   -1.7475   -0.1668    2.7218 H   0  0  0  0  0  0  0  0  0  0  0  0
    1.3562   -1.3554   -2.9435 C   0  0  0  0  0  0  0  0  0  0  0  0
    1.3562   -1.3554   -1.6197 C   0  0  0  0  0  0  0  0  0  0  0  0
    1.3562   -0.1332   -0.7592 C   0  0  0  0  0  3  0  0  0  0  0  0
    1.3562   -2.2781   -3.5099 H   0  0  0  0  0  0  0  0  0  0  0  0
    1.3562   -0.4298   -3.5095 H   0  0  0  0  0  0  0  0  0  0  0  0
    1.3562   -2.3080   -1.0962 H   0  0  0  0  0  0  0  0  0  0  0  0
    0.3030   -0.1127    0.0223 H   0  0  0  0  0  0  0  0  0  0  0  0
    1.3562    0.7772   -1.3598 H   0  0  0  0  0  0  0  0  0  0  0  0
    2.2339   -0.1161   -0.1080 H   0  0  0  0  0  0  0  0  0  0  0  0
  1  2  1  0
  1  5  1  0
  1  6  1  0
  1  7  1  0
  2  4  1  0
  2  3  1  0
  2 18  1  0
  3  8  1  0
  4  9  1  0
  4 10  1  0
  4 11  1  0
 12 13  2  3
 12 15  1  0
 12 16  1  0
 13 14  1  0
 13 17  1  0
 14 19  1  0
 14 20  1  0
M  RAD  1  14   2
M  END
>  <reaction>  (8) 
rxn_1019

>  <mol_properties>  (8) 
{"1": {"label": "*3", "atom_type": "Cs"}, "2": {"label": "*4", "atom_type": "S2s"}, "12": {"label": "*0", "atom_type": "Cd"}, "13": {"label": "*1", "atom_type": "Cs"}, "17": {"label": "*2", "atom_type": "H0"}}

>  <type>  (8) 
unop_4

>  <geom_source>  (8) 
Heuristics

$$$$

     RDKit          3D

 20 18  0  0  0  0  0  0  0  0999 V2000
   -0.6009    1.8198    1.4838 C   0  0  0  0  0  0  0  0  0  0  0  0
   -0.6450    0.5606    0.6294 C   0  0  0  0  0  0  0  0  0  0  0  0
   -0.4213   -0.9519    1.6288 S   0  0  0  0  0  0  0  0  0  0  0  0
   -1.8991    0.4945   -0.2311 C   0  0  0  0  0  0  0  0  0  0  0  0
    0.3144    1.8677    2.0727 H   0  0  0  0  0  0  0  0  0  0  0  0
   -1.4494    1.8465    2.1718 H   0  0  0  0  0  0  0  0  0  0  0  0
   -0.6554    2.7092    0.8508 H   0  0  0  0  0  0  0  0  0  0  0  0
   -1.5339   -0.8140    2.3646 H   0  0  0  0  0  0  0  0  0  0  0  0
   -1.9627    1.3747   -0.8761 H   0  0  0  0  0  0  0  0  0  0  0  0
   -1.9038   -0.3968   -0.8575 H   0  0  0  0  0  0  0  0  0  0  0  0
   -2.7939    0.4740    0.3958 H   0  0  0  0  0  0  0  0  0  0  0  0
    1.4614   -0.7026   -3.1177 C   0  0  0  0  0  0  0  0  0  0  0  0
    1.4614   -0.7026   -1.7940 C   0  0  0  0  0  0  0  0  0  0  0  0
    1.4614    0.5196   -0.9335 C   0  0  0  0  0  3  0  0  0  0  0  0
    1.4614   -1.6254   -3.6842 H   0  0  0  0  0  0  0  0  0  0  0  0
    1.4614    0.2230   -3.6837 H   0  0  0  0  0  0  0  0  0  0  0  0
    1.4614   -1.6553   -1.2705 H   0  0  0  0  0  0  0  0  0  0  0  0
    0.4082    0.5401   -0.1520 H   0  0  0  0  0  0  0  0  0  0  0  0
    1.4614    1.4300   -1.5341 H   0  0  0  0  0  0  0  0  0  0  0  0
    2.3391    0.5367   -0.2823 H   0  0  0  0  0  0  0  0  0  0  0  0
  1  2  1  0
  1  5  1  0
  1  6  1  0
  1  7  1  0
  2  4  1  0
  2  3  1  0
  2 18  1  0
  3  8  1  0
  4  9  1  0
  4 10  1  0
  4 11  1  0
 12 13  2  3
 12 15  1  0
 12 16  1  0
 13 14  1  0
 13 17  1  0
 14 19  1  0
 14 20  1  0
M  RAD  1  14   2
M  END
>  <reaction>  (9) 
rxn_1019

>  <mol_properties>  (9) 
{"1": {"label": "*3", "atom_type": "Cs"}, "2": {"label": "*4", "atom_type": "S2s"}, "12": {"label": "*0", "atom_type": "Cd"}, "13": {"label": "*1", "atom_type": "Cs"}, "17": {"label": "*2", "atom_type": "H0"}}

>  <type>  (9) 
unop_5

>  <geom_source>  (9) 
Heuristics

$$$$

     RDKit          3D

 20 18  0  0  0  0  0  0  0  0999 V2000
   -2.0227    0.7082   -0.0263 C   0  0  0  0  0  0  0  0  0  0  0  0
   -0.8898   -0.0119    0.6916 C   0  0  0  0  0  0  0  0  0  0  0  0
    0.3991    1.1464    1.2692 S   0  0  0  0  0  0  0  0  0  0  0  0
   -1.3979   -0.9051    1.8149 C   0  0  0  0  0  0  0  0  0  0  0  0
   -1.6473    1.3211   -0.8450 H   0  0  0  0  0  0  0  0  0  0  0  0
   -2.5628    1.3591    0.6656 H   0  0  0  0  0  0  0  0  0  0  0  0
   -2.7354   -0.0153   -0.4305 H   0  0  0  0  0  0  0  0  0  0  0  0
   -0.3783    1.8238    2.1265 H   0  0  0  0  0  0  0  0  0  0  0  0
   -2.1063   -1.6398    1.4236 H   0  0  0  0  0  0  0  0  0  0  0  0
   -0.5797   -1.4353    2.3009 H   0  0  0  0  0  0  0  0  0  0  0  0
   -1.9158   -0.3116    2.5723 H   0  0  0  0  0  0  0  0  0  0  0  0
    1.2167   -1.2752   -3.0555 C   0  0  0  0  0  0  0  0  0  0  0  0
    1.2167   -1.2752   -1.7318 C   0  0  0  0  0  0  0  0  0  0  0  0
    1.2167   -0.0530   -0.8713 C   0  0  0  0  0  3  0  0  0  0  0  0
    1.2167   -2.1979   -3.6220 H   0  0  0  0  0  0  0  0  0  0  0  0
    1.2167   -0.3496   -3.6215 H   0  0  0  0  0  0  0  0  0  0  0  0
    1.2167   -2.2278   -1.2082 H   0  0  0  0  0  0  0  0  0  0  0  0
    0.1635   -0.0325   -0.0898 H   0  0  0  0  0  0  0  0  0  0  0  0
    1.2167    0.8574   -1.4718 H   0  0  0  0  0  0  0  0  0  0  0  0
    2.0944   -0.0359   -0.2200 H   0  0  0  0  0  0  0  0  0  0  0  0
  1  2  1  0
  1  5  1  0
  1  6  1  0
  1  7  1  0
  2  4  1  0
  2  3  1  0
  2 18  1  0
  3  8  1  0
  4  9  1  0
  4 10  1  0
  4 11  1  0
 12 13  2  3
 12 15  1  0
 12 16  1  0
 13 14  1  0
 13 17  1  0
 14 19  1  0
 14 20  1  0
M  RAD  1  14   2
M  END
>  <reaction>  (10) 
rxn_1019

>  <mol_properties>  (10) 
{"1": {"label": "*3", "atom_type": "Cs"}, "2": {"label": "*4", "atom_type": "S2s"}, "12": {"label": "*0", "atom_type": "Cd"}, "13": {"label": "*1", "atom_type": "Cs"}, "17": {"label": "*2", "atom_type": "H0"}}

>  <type>  (10) 
unop_6

>  <geom_source>  (10) 
Heuristics

$$$$

     RDKit          3D

 20 18  0  0  0  0  0  0  0  0999 V2000
   -1.7721    1.4105    0.2917 C   0  0  0  0  0  0  0  0  0  0  0  0
   -0.9581    0.1600    0.5938 C   0  0  0  0  0  0  0  0  0  0  0  0
    0.5694    0.5456    1.5183 S   0  0  0  0  0  0  0  0  0  0  0  0
   -1.7881   -0.9118    1.2865 C   0  0  0  0  0  0  0  0  0  0  0  0
   -1.1736    2.1573   -0.2288 H   0  0  0  0  0  0  0  0  0  0  0  0
   -2.1452    1.8580    1.2162 H   0  0  0  0  0  0  0  0  0  0  0  0
   -2.6351    1.1595   -0.3304 H   0  0  0  0  0  0  0  0  0  0  0  0
   -0.0340    1.0206    2.6176 H   0  0  0  0  0  0  0  0  0  0  0  0
   -2.6512   -1.1790    0.6713 H   0  0  0  0  0  0  0  0  0  0  0  0
   -1.2008   -1.8107    1.4709 H   0  0  0  0  0  0  0  0  0  0  0  0
   -2.1617   -0.5470    2.2464 H   0  0  0  0  0  0  0  0  0  0  0  0
    1.1484   -1.1032   -3.1533 C   0  0  0  0  0  0  0  0  0  0  0  0
    1.1484   -1.1032   -1.8296 C   0  0  0  0  0  0  0  0  0  0  0  0
    1.1484    0.1190   -0.9691 C   0  0  0  0  0  3  0  0  0  0  0  0
    1.1484   -2.0259   -3.7198 H   0  0  0  0  0  0  0  0  0  0  0  0
    1.1484   -0.1776   -3.7193 H   0  0  0  0  0  0  0  0  0  0  0  0
    1.1484   -2.0558   -1.3061 H   0  0  0  0  0  0  0  0  0  0  0  0
    0.0951    0.1395   -0.1876 H   0  0  0  0  0  0  0  0  0  0  0  0
    1.1484    1.0294   -1.5697 H   0  0  0  0  0  0  0  0  0  0  0  0
    2.0261    0.1361   -0.3179 H   0  0  0  0  0  0  0  0  0  0  0  0
  1  2  1  0
  1  5  1  0
  1  6  1  0
  1  7  1  0
  2  4  1  0
  2  3  1  0
  2 18  1  0
  3  8  1  0
  4  9  1  0
  4 10  1  0
  4 11  1  0
 12 13  2  3
 12 15  1  0
 12 16  1  0
 13 14  1  0
 13 17  1  0
 14 19  1  0
 14 20  1  0
M  RAD  1  14   2
M  END
>  <reaction>  (11) 
rxn_1019

>  <mol_properties>  (11) 
{"1": {"label": "*3", "atom_type": "Cs"}, "2": {"label": "*4", "atom_type": "S2s"}, "12": {"label": "*0", "atom_type": "Cd"}, "13": {"label": "*1", "atom_type": "Cs"}, "17": {"label": "*2", "atom_type": "H0"}}

>  <type>  (11) 
unop_7

>  <geom_source>  (11) 
Heuristics

$$$$

     RDKit          3D

 20 18  0  0  0  0  0  0  0  0999 V2000
   -0.0214   -0.4773    2.1524 C   0  0  0  0  0  0  0  0  0  0  0  0
   -0.3621    0.2274    0.8467 C   0  0  0  0  0  0  0  0  0  0  0  0
   -2.1392    0.0991    0.4441 S   0  0  0  0  0  0  0  0  0  0  0  0
    0.1233    1.6702    0.8294 C   0  0  0  0  0  0  0  0  0  0  0  0
   -0.3493   -1.5161    2.1398 H   0  0  0  0  0  0  0  0  0  0  0  0
   -0.5057    0.0217    2.9953 H   0  0  0  0  0  0  0  0  0  0  0  0
    1.0577   -0.4540    2.3250 H   0  0  0  0  0  0  0  0  0  0  0  0
   -2.5857    0.7840    1.5070 H   0  0  0  0  0  0  0  0  0  0  0  0
    1.2034    1.7085    0.9928 H   0  0  0  0  0  0  0  0  0  0  0  0
   -0.1021    2.1531   -0.1208 H   0  0  0  0  0  0  0  0  0  0  0  0
   -0.3559    2.2457    1.6252 H   0  0  0  0  0  0  0  0  0  0  0  0
    1.7443   -1.0358   -2.9005 C   0  0  0  0  0  0  0  0  0  0  0  0
    1.7443   -1.0358   -1.5767 C   0  0  0  0  0  0  0  0  0  0  0  0
    1.7443    0.1863   -0.7162 C   0  0  0  0  0  3  0  0  0  0  0  0
    1.7443   -1.9586   -3.4669 H   0  0  0  0  0  0  0  0  0  0  0  0
    1.7443   -0.1102   -3.4665 H   0  0  0  0  0  0  0  0  0  0  0  0
    1.7443   -1.9885   -1.0532 H   0  0  0  0  0  0  0  0  0  0  0  0
    0.6911    0.2069    0.0653 H   0  0  0  0  0  0  0  0  0  0  0  0
    1.7443    1.0968   -1.3168 H   0  0  0  0  0  0  0  0  0  0  0  0
    2.6221    0.2034   -0.0650 H   0  0  0  0  0  0  0  0  0  0  0  0
  1  2  1  0
  1  5  1  0
  1  6  1  0
  1  7  1  0
  2  4  1  0
  2  3  1  0
  2 18  1  0
  3  8  1  0
  4  9  1  0
  4 10  1  0
  4 11  1  0
 12 13  2  3
 12 15  1  0
 12 16  1  0
 13 14  1  0
 13 17  1  0
 14 19  1  0
 14 20  1  0
M  RAD  1  14   2
M  END
>  <reaction>  (12) 
rxn_1019

>  <mol_properties>  (12) 
{"1": {"label": "*3", "atom_type": "Cs"}, "2": {"label": "*4", "atom_type": "S2s"}, "12": {"label": "*0", "atom_type": "Cd"}, "13": {"label": "*1", "atom_type": "Cs"}, "17": {"label": "*2", "atom_type": "H0"}}

>  <type>  (12) 
unop_8

>  <geom_source>  (12) 
Heuristics

$$$$

     RDKit          3D

 20 18  0  0  0  0  0  0  0  0999 V2000
   -1.7316   -0.7897    0.1882 C   0  0  0  0  0  0  0  0  0  0  0  0
   -0.5858   -0.0699    0.8856 C   0  0  0  0  0  0  0  0  0  0  0  0
   -0.6369    1.7336    0.6002 S   0  0  0  0  0  0  0  0  0  0  0  0
   -0.5113   -0.4103    2.3675 C   0  0  0  0  0  0  0  0  0  0  0  0
   -1.7556   -0.5591   -0.8763 H   0  0  0  0  0  0  0  0  0  0  0  0
   -2.6904   -0.4947    0.6215 H   0  0  0  0  0  0  0  0  0  0  0  0
   -1.6288   -1.8713    0.3086 H   0  0  0  0  0  0  0  0  0  0  0  0
   -1.8071    1.9522    1.2174 H   0  0  0  0  0  0  0  0  0  0  0  0
   -0.3999   -1.4892    2.5032 H   0  0  0  0  0  0  0  0  0  0  0  0
    0.3295    0.0893    2.8475 H   0  0  0  0  0  0  0  0  0  0  0  0
   -1.4266   -0.1017    2.8785 H   0  0  0  0  0  0  0  0  0  0  0  0
    1.5206   -1.3331   -2.8615 C   0  0  0  0  0  0  0  0  0  0  0  0
    1.5206   -1.3331   -1.5378 C   0  0  0  0  0  0  0  0  0  0  0  0
    1.5206   -0.1109   -0.6773 C   0  0  0  0  0  3  0  0  0  0  0  0
    1.5206   -2.2559   -3.4280 H   0  0  0  0  0  0  0  0  0  0  0  0
    1.5206   -0.4075   -3.4275 H   0  0  0  0  0  0  0  0  0  0  0  0
    1.5206   -2.2858   -1.0143 H   0  0  0  0  0  0  0  0  0  0  0  0
    0.4674   -0.0904    0.1042 H   0  0  0  0  0  0  0  0  0  0  0  0
    1.5206    0.7995   -1.2779 H   0  0  0  0  0  0  0  0  0  0  0  0
    2.3983   -0.0938   -0.0261 H   0  0  0  0  0  0  0  0  0  0  0  0
  1  2  1  0
  1  5  1  0
  1  6  1  0
  1  7  1  0
  2  4  1  0
  2  3  1  0
  2 18  1  0
  3  8  1  0
  4  9  1  0
  4 10  1  0
  4 11  1  0
 12 13  2  3
 12 15  1  0
 12 16  1  0
 13 14  1  0
 13 17  1  0
 14 19  1  0
 14 20  1  0
M  RAD  1  14   2
M  END
>  <reaction>  (13) 
rxn_1019

>  <mol_properties>  (13) 
{"1": {"label": "*3", "atom_type": "Cs"}, "2": {"label": "*4", "atom_type": "S2s"}, "12": {"label": "*0", "atom_type": "Cd"}, "13": {"label": "*1", "atom_type": "Cs"}, "17": {"label": "*2", "atom_type": "H0"}}

>  <type>  (13) 
unop_9

>  <geom_source>  (13) 
Heuristics

$$$$

     RDKit          3D

 20 18  0  0  0  0  0  0  0  0999 V2000
   -0.3548   -1.0608    1.7298 C   0  0  0  0  0  0  0  0  0  0  0  0
   -0.3767    0.1741    0.8399 C   0  0  0  0  0  0  0  0  0  0  0  0
   -2.0751    0.6326    0.3484 S   0  0  0  0  0  0  0  0  0  0  0  0
    0.3715    1.3442    1.4633 C   0  0  0  0  0  0  0  0  0  0  0  0
   -0.8691   -1.8980    1.2591 H   0  0  0  0  0  0  0  0  0  0  0  0
   -0.8446   -0.8544    2.6845 H   0  0  0  0  0  0  0  0  0  0  0  0
    0.6759   -1.3581    1.9400 H   0  0  0  0  0  0  0  0  0  0  0  0
   -2.5225    0.9045    1.5830 H   0  0  0  0  0  0  0  0  0  0  0  0
    1.4072    1.0638    1.6717 H   0  0  0  0  0  0  0  0  0  0  0  0
    0.3719    2.2114    0.8039 H   0  0  0  0  0  0  0  0  0  0  0  0
   -0.0925    1.6363    2.4086 H   0  0  0  0  0  0  0  0  0  0  0  0
    1.7298   -1.0891   -2.9073 C   0  0  0  0  0  0  0  0  0  0  0  0
    1.7298   -1.0891   -1.5835 C   0  0  0  0  0  0  0  0  0  0  0  0
    1.7298    0.1331   -0.7230 C   0  0  0  0  0  3  0  0  0  0  0  0
    1.7298   -2.0119   -3.4737 H   0  0  0  0  0  0  0  0  0  0  0  0
    1.7298   -0.1635   -3.4733 H   0  0  0  0  0  0  0  0  0  0  0  0
    1.7298   -2.0418   -1.0600 H   0  0  0  0  0  0  0  0  0  0  0  0
    0.6765    0.1536    0.0585 H   0  0  0  0  0  0  0  0  0  0  0  0
    1.7298    1.0435   -1.3236 H   0  0  0  0  0  0  0  0  0  0  0  0
    2.6075    0.1502   -0.0718 H   0  0  0  0  0  0  0  0  0  0  0  0
  1  2  1  0
  1  5  1  0
  1  6  1  0
  1  7  1  0
  2  4  1  0
  2  3  1  0
  2 18  1  0
  3  8  1  0
  4  9  1  0
  4 10  1  0
  4 11  1  0
 12 13  2  3
 12 15  1  0
 12 16  1  0
 13 14  1  0
 13 17  1  0
 14 19  1  0
 14 20  1  0
M  RAD  1  14   2
M  END
>  <reaction>  (14) 
rxn_1019

>  <mol_properties>  (14) 
{"1": {"label": "*3", "atom_type": "Cs"}, "2": {"label": "*4", "atom_type": "S2s"}, "12": {"label": "*0", "atom_type": "Cd"}, "13": {"label": "*1", "atom_type": "Cs"}, "17": {"label": "*2", "atom_type": "H0"}}

>  <type>  (14) 
unop_10

>  <geom_source>  (14) 
Heuristics

$$$$

     RDKit          3D

 20 18  0  0  0  0  0  0  0  0999 V2000
   -1.2799    1.8398    0.8225 C   0  0  0  0  0  0  0  0  0  0  0  0
   -0.8967    0.3921    0.5491 C   0  0  0  0  0  0  0  0  0  0  0  0
    0.3934   -0.2022    1.6976 S   0  0  0  0  0  0  0  0  0  0  0  0
   -2.1089   -0.5285    0.5284 C   0  0  0  0  0  0  0  0  0  0  0  0
   -0.4067    2.4911    0.8064 H   0  0  0  0  0  0  0  0  0  0  0  0
   -1.7549    1.9324    1.8023 H   0  0  0  0  0  0  0  0  0  0  0  0
   -1.9916    2.1917    0.0712 H   0  0  0  0  0  0  0  0  0  0  0  0
   -0.3349   -0.0863    2.8176 H   0  0  0  0  0  0  0  0  0  0  0  0
   -2.8264   -0.1932   -0.2250 H   0  0  0  0  0  0  0  0  0  0  0  0
   -1.8233   -1.5556    0.3039 H   0  0  0  0  0  0  0  0  0  0  0  0
   -2.6135   -0.5203    1.4977 H   0  0  0  0  0  0  0  0  0  0  0  0
    1.2098   -0.8712   -3.1980 C   0  0  0  0  0  0  0  0  0  0  0  0
    1.2098   -0.8712   -1.8743 C   0  0  0  0  0  0  0  0  0  0  0  0
    1.2098    0.3510   -1.0137 C   0  0  0  0  0  3  0  0  0  0  0  0
    1.2098   -1.7939   -3.7645 H   0  0  0  0  0  0  0  0  0  0  0  0
    1.2098    0.0544   -3.7640 H   0  0  0  0  0  0  0  0  0  0  0  0
    1.2098   -1.8238   -1.3507 H   0  0  0  0  0  0  0  0  0  0  0  0
    0.1565    0.3715   -0.2323 H   0  0  0  0  0  0  0  0  0  0  0  0
    1.2098    1.2615   -1.6143 H   0  0  0  0  0  0  0  0  0  0  0  0
    2.0875    0.3681   -0.3625 H   0  0  0  0  0  0  0  0  0  0  0  0
  1  2  1  0
  1  5  1  0
  1  6  1  0
  1  7  1  0
  2  4  1  0
  2  3  1  0
  2 18  1  0
  3  8  1  0
  4  9  1  0
  4 10  1  0
  4 11  1  0
 12 13  2  3
 12 15  1  0
 12 16  1  0
 13 14  1  0
 13 17  1  0
 14 19  1  0
 14 20  1  0
M  RAD  1  14   2
M  END
>  <reaction>  (15) 
rxn_1019

>  <mol_properties>  (15) 
{"1": {"label": "*3", "atom_type": "Cs"}, "2": {"label": "*4", "atom_type": "S2s"}, "12": {"label": "*0", "atom_type": "Cd"}, "13": {"label": "*1", "atom_type": "Cs"}, "17": {"label": "*2", "atom_type": "H0"}}

>  <type>  (15) 
unop_11

>  <geom_source>  (15) 
Heuristics

$$$$

     RDKit          3D

 20 18  0  0  0  0  0  0  0  0999 V2000
   -1.2915   -1.2186    0.6328 C   0  0  0  0  0  0  0  0  0  0  0  0
   -0.4551    0.0251    0.8995 C   0  0  0  0  0  0  0  0  0  0  0  0
   -1.3085    1.5499    0.3672 S   0  0  0  0  0  0  0  0  0  0  0  0
    0.0067    0.1067    2.3478 C   0  0  0  0  0  0  0  0  0  0  0  0
   -1.5911   -1.2785   -0.4129 H   0  0  0  0  0  0  0  0  0  0  0  0
   -2.1962   -1.2111    1.2456 H   0  0  0  0  0  0  0  0  0  0  0  0
   -0.7239   -2.1180    0.8853 H   0  0  0  0  0  0  0  0  0  0  0  0
   -2.3382    1.4538    1.2209 H   0  0  0  0  0  0  0  0  0  0  0  0
    0.5833   -0.7835    2.6122 H   0  0  0  0  0  0  0  0  0  0  0  0
    0.6272    0.9860    2.5173 H   0  0  0  0  0  0  0  0  0  0  0  0
   -0.8517    0.1614    3.0217 H   0  0  0  0  0  0  0  0  0  0  0  0
    1.6513   -1.2381   -2.8477 C   0  0  0  0  0  0  0  0  0  0  0  0
    1.6513   -1.2381   -1.5239 C   0  0  0  0  0  0  0  0  0  0  0  0
    1.6513   -0.0159   -0.6634 C   0  0  0  0  0  3  0  0  0  0  0  0
    1.6513   -2.1609   -3.4142 H   0  0  0  0  0  0  0  0  0  0  0  0
    1.6513   -0.3125   -3.4137 H   0  0  0  0  0  0  0  0  0  0  0  0
    1.6513   -2.1908   -1.0004 H   0  0  0  0  0  0  0  0  0  0  0  0
    0.5981    0.0046    0.1180 H   0  0  0  0  0  0  0  0  0  0  0  0
    1.6513    0.8945   -1.2640 H   0  0  0  0  0  0  0  0  0  0  0  0
    2.5290    0.0012   -0.0122 H   0  0  0  0  0  0  0  0  0  0  0  0
  1  2  1  0
  1  5  1  0
  1  6  1  0
  1  7  1  0
  2  4  1  0
  2  3  1  0
  2 18  1  0
  3  8  1  0
  4  9  1  0
  4 10  1  0
  4 11  1  0
 12 13  2  3
 12 15  1  0
 12 16  1  0
 13 14  1  0
 13 17  1  0
 14 19  1  0
 14 20  1  0
M  RAD  1  14   2
M  END
>  <reaction>  (16) 
rxn_1019

>  <mol_properties>  (16) 
{"1": {"label": "*3", "atom_type": "Cs"}, "2": {"label": "*4", "atom_type": "S2s"}, "12": {"label": "*0", "atom_type": "Cd"}, "13": {"label": "*1", "atom_type": "Cs"}, "17": {"label": "*2", "atom_type": "H0"}}

>  <type>  (16) 
unop_12

>  <geom_source>  (16) 
Heuristics

$$$$

     RDKit          3D

 20 18  0  0  0  0  0  0  0  0999 V2000
   -1.8890   -1.6046   -0.8518 S   0  0  0  0  0  0  0  0  0  0  0  0
   -1.0722   -0.2290    0.0268 C   0  0  0  0  0  0  0  0  0  0  0  0
   -1.1374    1.0472   -0.8108 C   0  0  0  0  0  0  0  0  0  0  0  0
   -1.7109   -0.0239    1.3995 C   0  0  0  0  0  0  0  0  0  0  0  0
    2.2473   -0.0617   -0.5811 C   0  0  0  0  0  0  0  0  0  0  0  0
    1.3547   -1.1814   -0.1512 C   0  0  0  0  0  0  0  0  0  0  0  0
    2.8101    0.7471    0.3179 C   0  0  0  0  0  3  0  0  0  0  0  0
    0.2015   -0.5517    0.2009 H   0  0  0  0  0  0  0  0  0  0  0  0
   -0.5924    1.8670   -0.2967 H   0  0  0  0  0  0  0  0  0  0  0  0
   -0.6573    0.8744   -1.7969 H   0  0  0  0  0  0  0  0  0  0  0  0
   -2.1914    1.3595   -0.9721 H   0  0  0  0  0  0  0  0  0  0  0  0
   -2.7805    0.2592    1.2983 H   0  0  0  0  0  0  0  0  0  0  0  0
   -1.6400   -0.9611    1.9907 H   0  0  0  0  0  0  0  0  0  0  0  0
   -1.1757    0.7776    1.9514 H   0  0  0  0  0  0  0  0  0  0  0  0
    2.4293    0.1024   -1.6391 H   0  0  0  0  0  0  0  0  0  0  0  0
    2.6373    0.6065    1.3809 H   0  0  0  0  0  0  0  0  0  0  0  0
    3.4510    1.5597   -0.0086 H   0  0  0  0  0  0  0  0  0  0  0  0
    0.9387   -1.6977   -1.0415 H   0  0  0  0  0  0  0  0  0  0  0  0
    1.9276   -1.9111    0.4592 H   0  0  0  0  0  0  0  0  0  0  0  0
   -3.1506   -0.9785   -0.8757 H   0  0  0  0  0  0  0  0  0  0  0  0
  1  2  1  0
  1 20  1  0
  2  3  1  0
  2  4  1  0
  2  8  1  0
  3  9  1  0
  3 10  1  0
  3 11  1  0
  4 12  1  0
  4 13  1  0
  4 14  1  0
  5  6  2  3
  5  7  1  0
  5 15  1  0
  6 18  1  0
  6 19  1  0
  7 16  1  0
  7 17  1  0
M  RAD  1   7   2
M  END
>  <reaction>  (17) 
rxn_1019

>  <mol_properties>  (17) 
{"1": {"label": "*3", "atom_type": "Cs"}, "2": {"label": "*4", "atom_type": "S2s"}, "12": {"label": "*0", "atom_type": "Cd"}, "13": {"label": "*1", "atom_type": "Cs"}, "17": {"label": "*2", "atom_type": "H0"}}

>  <type>  (17) 
unop_13

>  <geom_source>  (17) 
AutoTST

$$$$

     RDKit          3D

 20 18  0  0  0  0  0  0  0  0999 V2000
   -0.8041   -1.3137    1.1786 C   0  0  0  0  0  0  0  0  0  0  0  0
   -0.3951    0.1186    0.8642 C   0  0  0  0  0  0  0  0  0  0  0  0
   -1.8126    1.1282    0.3094 S   0  0  0  0  0  0  0  0  0  0  0  0
    0.3502    0.7698    2.0209 C   0  0  0  0  0  0  0  0  0  0  0  0
   -1.3110   -1.7762    0.3325 H   0  0  0  0  0  0  0  0  0  0  0  0
   -1.4810   -1.3399    2.0360 H   0  0  0  0  0  0  0  0  0  0  0  0
    0.0755   -1.9126    1.4284 H   0  0  0  0  0  0  0  0  0  0  0  0
   -2.5099    1.0524    1.4524 H   0  0  0  0  0  0  0  0  0  0  0  0
    1.2378    0.1854    2.2766 H   0  0  0  0  0  0  0  0  0  0  0  0
    0.6612    1.7837    1.7717 H   0  0  0  0  0  0  0  0  0  0  0  0
   -0.2856    0.8178    2.9084 H   0  0  0  0  0  0  0  0  0  0  0  0
    1.7114   -1.1446   -2.8829 C   0  0  0  0  0  0  0  0  0  0  0  0
    1.7114   -1.1446   -1.5592 C   0  0  0  0  0  0  0  0  0  0  0  0
    1.7114    0.0775   -0.6987 C   0  0  0  0  0  3  0  0  0  0  0  0
    1.7114   -2.0674   -3.4494 H   0  0  0  0  0  0  0  0  0  0  0  0
    1.7114   -0.2191   -3.4489 H   0  0  0  0  0  0  0  0  0  0  0  0
    1.7114   -2.0973   -1.0357 H   0  0  0  0  0  0  0  0  0  0  0  0
    0.6581    0.0981    0.0828 H   0  0  0  0  0  0  0  0  0  0  0  0
    1.7114    0.9880   -1.2993 H   0  0  0  0  0  0  0  0  0  0  0  0
    2.5891    0.0946   -0.0474 H   0  0  0  0  0  0  0  0  0  0  0  0
  1  2  1  0
  1  5  1  0
  1  6  1  0
  1  7  1  0
  2  4  1  0
  2  3  1  0
  2 18  1  0
  3  8  1  0
  4  9  1  0
  4 10  1  0
  4 11  1  0
 12 13  2  3
 12 15  1  0
 12 16  1  0
 13 14  1  0
 13 17  1  0
 14 19  1  0
 14 20  1  0
M  RAD  1  14   2
M  END
>  <reaction>  (18) 
rxn_1019

>  <mol_properties>  (18) 
{"1": {"label": "*3", "atom_type": "Cs"}, "2": {"label": "*4", "atom_type": "S2s"}, "12": {"label": "*0", "atom_type": "Cd"}, "13": {"label": "*1", "atom_type": "Cs"}, "17": {"label": "*2", "atom_type": "H0"}}

>  <type>  (18) 
unop_14

>  <geom_source>  (18) 
gaussian_log

$$$$
