
     RDKit          3D

  5  4  0  0  0  0  0  0  0  0999 V2000
    0.0000    0.0000    0.0000 C   0  0  0  0  0  0  0  0  0  0  0  0
   -0.6486   -0.7720   -0.4113 H   0  0  0  0  0  0  0  0  0  0  0  0
   -0.3482    0.9787   -0.3267 H   0  0  0  0  0  0  0  0  0  0  0  0
   -0.0223   -0.0487    1.0876 H   0  0  0  0  0  0  0  0  0  0  0  0
    1.0191   -0.1580   -0.3496 H   0  0  0  0  0  0  0  0  0  0  0  0
  1  2  1  0
  1  3  1  0
  1  4  1  0
  1  5  1  0
M  END
>  <reaction>  (1) 
rxn_50

>  <mol_properties>  (1) 
{"0": {"label": "donator", "atom_type": "Cs"}, "1": {"label": "d_hydrogen", "atom_type": "H0"}}

>  <type>  (1) 
r1h

$$$$

     RDKit          3D

  2  1  0  0  0  0  0  0  0  0999 V2000
    0.0000    0.0000    0.6715 S   0  0  0  0  0  1  0  0  0  0  0  0
    0.0000    0.0000   -0.6715 H   0  0  0  0  0  0  0  0  0  0  0  0
  1  2  1  0
M  RAD  1   1   2
M  END
>  <reaction>  (2) 
rxn_50

>  <mol_properties>  (2) 
{"0": {"label": "acceptor", "atom_type": "S2s"}}

>  <type>  (2) 
r2

$$$$

     RDKit          3D

  3  2  0  0  0  0  0  0  0  0999 V2000
   -0.0007    0.6157    0.0000 S   0  0  0  0  0  0  0  0  0  0  0  0
   -0.9686   -0.3090    0.0000 H   0  0  0  0  0  0  0  0  0  0  0  0
    0.9693   -0.3067    0.0000 H   0  0  0  0  0  0  0  0  0  0  0  0
  1  2  1  0
  1  3  1  0
M  END
>  <reaction>  (3) 
rxn_50

>  <mol_properties>  (3) 
{"0": {"label": "a_hydrogen", "atom_type": "H0"}, "1": {"label": "acceptor", "atom_type": "S2s"}}

>  <type>  (3) 
r2h

$$$$

     RDKit          3D

  7  5  0  0  0  0  0  0  0  0999 V2000
    0.0000   -1.9860   -0.6820 C   0  0  0  0  0  3  0  0  0  0  0  0
    0.0000   -0.5214   -0.1121 H   0  0  0  0  0  0  0  0  0  0  0  0
    0.9237   -2.3515   -0.2517 H   0  0  0  0  0  0  0  0  0  0  0  0
   -0.9237   -2.3515   -0.2517 H   0  0  0  0  0  0  0  0  0  0  0  0
    0.0000   -1.7948   -1.7476 H   0  0  0  0  0  0  0  0  0  0  0  0
    0.0000    0.8598    0.3378 S   0  0  0  0  0  0  0  0  0  0  0  0
    0.0000    1.3107   -0.9233 H   0  0  0  0  0  0  0  0  0  0  0  0
  1  3  1  0
  1  4  1  0
  1  5  1  0
  2  6  1  0
  6  7  1  0
M  RAD  1   1   2
M  END
>  <reaction>  (4) 
rxn_50

>  <mol_properties>  (4) 
{"0": {"label": "*3", "atom_type": "Cs"}, "1": {"label": "*2", "atom_type": "H0"}, "2": {"label": "*4", "atom_type": "H0"}, "5": {"label": "*1", "atom_type": "S2s"}, "6": {"label": "*0", "atom_type": "H0"}}

>  <type>  (4) 
ts

$$$$

     RDKit          3D

  7  5  0  0  0  0  0  0  0  0999 V2000
    0.0238   -1.8490   -0.6683 C   0  0  0  0  0  0  0  0  0  0  0  0
    0.0238   -0.6170   -0.2327 H   0  0  0  0  0  0  0  0  0  0  0  0
    0.9129   -2.3623   -0.3053 H   0  0  0  0  0  0  0  0  0  0  0  0
   -0.8653   -2.3623   -0.3053 H   0  0  0  0  0  0  0  0  0  0  0  0
    0.0238   -1.8490   -1.7572 H   0  0  0  0  0  0  0  0  0  0  0  0
    0.0238    0.8975    0.3027 S   0  0  0  0  0  1  0  0  0  0  0  0
   -1.1341    0.7352    0.9544 H   0  0  0  0  0  0  0  0  0  0  0  0
  1  2  1  0
  1  3  1  0
  1  4  1  0
  1  5  1  0
  6  7  1  0
M  RAD  1   6   2
M  END
>  <reaction>  (5) 
rxn_50

>  <mol_properties>  (5) 
{"0": {"label": "*3", "atom_type": "Cs"}, "1": {"label": "*2", "atom_type": "H0"}, "2": {"label": "*4", "atom_type": "H0"}, "5": {"label": "*1", "atom_type": "S2s"}, "6": {"label": "*0", "atom_type": "H0"}}

>  <type>  (5) 
unop_1

>  <geom_source>  (5) 
Heuristics

$$$$

     RDKit          3D

  7  5  0  0  0  0  0  0  0  0999 V2000
    0.0137   -1.8615   -0.6329 C   0  0  0  0  0  0  0  0  0  0  0  0
    0.0137   -0.6295   -0.1973 H   0  0  0  0  0  0  0  0  0  0  0  0
    0.9029   -2.3748   -0.2699 H   0  0  0  0  0  0  0  0  0  0  0  0
   -0.8754   -2.3748   -0.2699 H   0  0  0  0  0  0  0  0  0  0  0  0
    0.0137   -1.8615   -1.7218 H   0  0  0  0  0  0  0  0  0  0  0  0
    0.0137    0.8849    0.3381 S   0  0  0  0  0  1  0  0  0  0  0  0
   -0.6548    1.3315   -0.7322 H   0  0  0  0  0  0  0  0  0  0  0  0
  1  2  1  0
  1  3  1  0
  1  4  1  0
  1  5  1  0
  6  7  1  0
M  RAD  1   6   2
M  END
>  <reaction>  (6) 
rxn_50

>  <mol_properties>  (6) 
{"0": {"label": "*3", "atom_type": "Cs"}, "1": {"label": "*2", "atom_type": "H0"}, "2": {"label": "*4", "atom_type": "H0"}, "5": {"label": "*1", "atom_type": "S2s"}, "6": {"label": "*0", "atom_type": "H0"}}

>  <type>  (6) 
unop_2

>  <geom_source>  (6) 
Heuristics

$$$$

     RDKit          3D

  7  5  0  0  0  0  0  0  0  0999 V2000
    0.0137   -1.8456   -0.6778 C   0  0  0  0  0  0  0  0  0  0  0  0
    0.0137   -0.6137   -0.2422 H   0  0  0  0  0  0  0  0  0  0  0  0
    0.9029   -2.3590   -0.3148 H   0  0  0  0  0  0  0  0  0  0  0  0
   -0.8754   -2.3590   -0.3148 H   0  0  0  0  0  0  0  0  0  0  0  0
    0.0137   -1.8456   -1.7667 H   0  0  0  0  0  0  0  0  0  0  0  0
    0.0137    0.9008    0.2932 S   0  0  0  0  0  1  0  0  0  0  0  0
   -0.6548    0.5754    1.4064 H   0  0  0  0  0  0  0  0  0  0  0  0
  1  2  1  0
  1  3  1  0
  1  4  1  0
  1  5  1  0
  6  7  1  0
M  RAD  1   6   2
M  END
>  <reaction>  (7) 
rxn_50

>  <mol_properties>  (7) 
{"0": {"label": "*3", "atom_type": "Cs"}, "1": {"label": "*2", "atom_type": "H0"}, "2": {"label": "*4", "atom_type": "H0"}, "5": {"label": "*1", "atom_type": "S2s"}, "6": {"label": "*0", "atom_type": "H0"}}

>  <type>  (7) 
unop_3

>  <geom_source>  (7) 
Heuristics

$$$$

     RDKit          3D

  7  5  0  0  0  0  0  0  0  0999 V2000
   -0.0238   -1.8582   -0.6424 C   0  0  0  0  0  0  0  0  0  0  0  0
   -0.0238   -0.6262   -0.2068 H   0  0  0  0  0  0  0  0  0  0  0  0
    0.8653   -2.3715   -0.2794 H   0  0  0  0  0  0  0  0  0  0  0  0
   -0.9129   -2.3715   -0.2794 H   0  0  0  0  0  0  0  0  0  0  0  0
   -0.0238   -1.8582   -1.7313 H   0  0  0  0  0  0  0  0  0  0  0  0
   -0.0238    0.8883    0.3286 S   0  0  0  0  0  1  0  0  0  0  0  0
    1.1341    1.1717   -0.2803 H   0  0  0  0  0  0  0  0  0  0  0  0
  1  2  1  0
  1  3  1  0
  1  4  1  0
  1  5  1  0
  6  7  1  0
M  RAD  1   6   2
M  END
>  <reaction>  (8) 
rxn_50

>  <mol_properties>  (8) 
{"0": {"label": "*3", "atom_type": "Cs"}, "1": {"label": "*2", "atom_type": "H0"}, "2": {"label": "*4", "atom_type": "H0"}, "5": {"label": "*1", "atom_type": "S2s"}, "6": {"label": "*0", "atom_type": "H0"}}

>  <type>  (8) 
unop_4

>  <geom_source>  (8) 
Heuristics

$$$$

     RDKit          3D

  7  5  0  0  0  0  0  0  0  0999 V2000
    0.0000   -1.8444   -0.6813 C   0  0  0  0  0  0  0  0  0  0  0  0
    0.0000   -0.6124   -0.2457 H   0  0  0  0  0  0  0  0  0  0  0  0
    0.8891   -2.3577   -0.3183 H   0  0  0  0  0  0  0  0  0  0  0  0
   -0.8891   -2.3577   -0.3183 H   0  0  0  0  0  0  0  0  0  0  0  0
    0.0000   -1.8444   -1.7702 H   0  0  0  0  0  0  0  0  0  0  0  0
    0.0000    0.9021    0.2898 S   0  0  0  0  0  1  0  0  0  0  0  0
    0.0000    0.5169    1.5718 H   0  0  0  0  0  0  0  0  0  0  0  0
  1  2  1  0
  1  3  1  0
  1  4  1  0
  1  5  1  0
  6  7  1  0
M  RAD  1   6   2
M  END
>  <reaction>  (9) 
rxn_50

>  <mol_properties>  (9) 
{"0": {"label": "*3", "atom_type": "Cs"}, "1": {"label": "*2", "atom_type": "H0"}, "2": {"label": "*4", "atom_type": "H0"}, "5": {"label": "*1", "atom_type": "S2s"}, "6": {"label": "*0", "atom_type": "H0"}}

>  <type>  (9) 
unop_5

>  <geom_source>  (9) 
Heuristics

$$$$

     RDKit          3D

  7  5  0  0  0  0  0  0  0  0999 V2000
   -0.0275   -1.8536   -0.6553 C   0  0  0  0  0  0  0  0  0  0  0  0
   -0.0275   -0.6216   -0.2198 H   0  0  0  0  0  0  0  0  0  0  0  0
    0.8616   -2.3669   -0.2924 H   0  0  0  0  0  0  0  0  0  0  0  0
   -0.9166   -2.3669   -0.2924 H   0  0  0  0  0  0  0  0  0  0  0  0
   -0.0275   -1.8536   -1.7443 H   0  0  0  0  0  0  0  0  0  0  0  0
   -0.0275    0.8929    0.3157 S   0  0  0  0  0  1  0  0  0  0  0  0
    1.3096    0.9534    0.3371 H   0  0  0  0  0  0  0  0  0  0  0  0
  1  2  1  0
  1  3  1  0
  1  4  1  0
  1  5  1  0
  6  7  1  0
M  RAD  1   6   2
M  END
>  <reaction>  (10) 
rxn_50

>  <mol_properties>  (10) 
{"0": {"label": "*3", "atom_type": "Cs"}, "1": {"label": "*2", "atom_type": "H0"}, "2": {"label": "*4", "atom_type": "H0"}, "5": {"label": "*1", "atom_type": "S2s"}, "6": {"label": "*0", "atom_type": "H0"}}

>  <type>  (10) 
unop_6

>  <geom_source>  (10) 
Heuristics

$$$$

     RDKit          3D

  7  5  0  0  0  0  0  0  0  0999 V2000
   -0.0238   -1.8490   -0.6683 C   0  0  0  0  0  0  0  0  0  0  0  0
   -0.0238   -0.6170   -0.2327 H   0  0  0  0  0  0  0  0  0  0  0  0
    0.8653   -2.3623   -0.3053 H   0  0  0  0  0  0  0  0  0  0  0  0
   -0.9129   -2.3623   -0.3053 H   0  0  0  0  0  0  0  0  0  0  0  0
   -0.0238   -1.8490   -1.7572 H   0  0  0  0  0  0  0  0  0  0  0  0
   -0.0238    0.8975    0.3027 S   0  0  0  0  0  1  0  0  0  0  0  0
    1.1341    0.7352    0.9544 H   0  0  0  0  0  0  0  0  0  0  0  0
  1  2  1  0
  1  3  1  0
  1  4  1  0
  1  5  1  0
  6  7  1  0
M  RAD  1   6   2
M  END
>  <reaction>  (11) 
rxn_50

>  <mol_properties>  (11) 
{"0": {"label": "*3", "atom_type": "Cs"}, "1": {"label": "*2", "atom_type": "H0"}, "2": {"label": "*4", "atom_type": "H0"}, "5": {"label": "*1", "atom_type": "S2s"}, "6": {"label": "*0", "atom_type": "H0"}}

>  <type>  (11) 
unop_7

>  <geom_source>  (11) 
Heuristics

$$$$

     RDKit          3D

  7  5  0  0  0  0  0  0  0  0999 V2000
    0.0275   -1.8536   -0.6553 C   0  0  0  0  0  0  0  0  0  0  0  0
    0.0275   -0.6216   -0.2198 H   0  0  0  0  0  0  0  0  0  0  0  0
    0.9166   -2.3669   -0.2924 H   0  0  0  0  0  0  0  0  0  0  0  0
   -0.8616   -2.3669   -0.2924 H   0  0  0  0  0  0  0  0  0  0  0  0
    0.0275   -1.8536   -1.7443 H   0  0  0  0  0  0  0  0  0  0  0  0
    0.0275    0.8929    0.3157 S   0  0  0  0  0  1  0  0  0  0  0  0
   -1.3096    0.9534    0.3371 H   0  0  0  0  0  0  0  0  0  0  0  0
  1  2  1  0
  1  3  1  0
  1  4  1  0
  1  5  1  0
  6  7  1  0
M  RAD  1   6   2
M  END
>  <reaction>  (12) 
rxn_50

>  <mol_properties>  (12) 
{"0": {"label": "*3", "atom_type": "Cs"}, "1": {"label": "*2", "atom_type": "H0"}, "2": {"label": "*4", "atom_type": "H0"}, "5": {"label": "*1", "atom_type": "S2s"}, "6": {"label": "*0", "atom_type": "H0"}}

>  <type>  (12) 
unop_8

>  <geom_source>  (12) 
Heuristics

$$$$

     RDKit          3D

  7  5  0  0  0  0  0  0  0  0999 V2000
   -0.0137   -1.8615   -0.6329 C   0  0  0  0  0  0  0  0  0  0  0  0
   -0.0137   -0.6295   -0.1973 H   0  0  0  0  0  0  0  0  0  0  0  0
    0.8754   -2.3748   -0.2699 H   0  0  0  0  0  0  0  0  0  0  0  0
   -0.9029   -2.3748   -0.2699 H   0  0  0  0  0  0  0  0  0  0  0  0
   -0.0137   -1.8615   -1.7218 H   0  0  0  0  0  0  0  0  0  0  0  0
   -0.0137    0.8849    0.3381 S   0  0  0  0  0  1  0  0  0  0  0  0
    0.6548    1.3315   -0.7322 H   0  0  0  0  0  0  0  0  0  0  0  0
  1  2  1  0
  1  3  1  0
  1  4  1  0
  1  5  1  0
  6  7  1  0
M  RAD  1   6   2
M  END
>  <reaction>  (13) 
rxn_50

>  <mol_properties>  (13) 
{"0": {"label": "*3", "atom_type": "Cs"}, "1": {"label": "*2", "atom_type": "H0"}, "2": {"label": "*4", "atom_type": "H0"}, "5": {"label": "*1", "atom_type": "S2s"}, "6": {"label": "*0", "atom_type": "H0"}}

>  <type>  (13) 
unop_9

>  <geom_source>  (13) 
Heuristics

$$$$

     RDKit          3D

  7  5  0  0  0  0  0  0  0  0999 V2000
    0.0238   -1.8582   -0.6424 C   0  0  0  0  0  0  0  0  0  0  0  0
    0.0238   -0.6262   -0.2068 H   0  0  0  0  0  0  0  0  0  0  0  0
    0.9129   -2.3715   -0.2794 H   0  0  0  0  0  0  0  0  0  0  0  0
   -0.8653   -2.3715   -0.2794 H   0  0  0  0  0  0  0  0  0  0  0  0
    0.0238   -1.8582   -1.7313 H   0  0  0  0  0  0  0  0  0  0  0  0
    0.0238    0.8883    0.3286 S   0  0  0  0  0  1  0  0  0  0  0  0
   -1.1341    1.1717   -0.2803 H   0  0  0  0  0  0  0  0  0  0  0  0
  1  2  1  0
  1  3  1  0
  1  4  1  0
  1  5  1  0
  6  7  1  0
M  RAD  1   6   2
M  END
>  <reaction>  (14) 
rxn_50

>  <mol_properties>  (14) 
{"0": {"label": "*3", "atom_type": "Cs"}, "1": {"label": "*2", "atom_type": "H0"}, "2": {"label": "*4", "atom_type": "H0"}, "5": {"label": "*1", "atom_type": "S2s"}, "6": {"label": "*0", "atom_type": "H0"}}

>  <type>  (14) 
unop_10

>  <geom_source>  (14) 
Heuristics

$$$$

     RDKit          3D

  7  5  0  0  0  0  0  0  0  0999 V2000
   -0.0137   -1.8456   -0.6778 C   0  0  0  0  0  0  0  0  0  0  0  0
   -0.0137   -0.6137   -0.2422 H   0  0  0  0  0  0  0  0  0  0  0  0
    0.8754   -2.3590   -0.3148 H   0  0  0  0  0  0  0  0  0  0  0  0
   -0.9029   -2.3590   -0.3148 H   0  0  0  0  0  0  0  0  0  0  0  0
   -0.0137   -1.8456   -1.7667 H   0  0  0  0  0  0  0  0  0  0  0  0
   -0.0137    0.9008    0.2932 S   0  0  0  0  0  1  0  0  0  0  0  0
    0.6548    0.5754    1.4064 H   0  0  0  0  0  0  0  0  0  0  0  0
  1  2  1  0
  1  3  1  0
  1  4  1  0
  1  5  1  0
  6  7  1  0
M  RAD  1   6   2
M  END
>  <reaction>  (15) 
rxn_50

>  <mol_properties>  (15) 
{"0": {"label": "*3", "atom_type": "Cs"}, "1": {"label": "*2", "atom_type": "H0"}, "2": {"label": "*4", "atom_type": "H0"}, "5": {"label": "*1", "atom_type": "S2s"}, "6": {"label": "*0", "atom_type": "H0"}}

>  <type>  (15) 
unop_11

>  <geom_source>  (15) 
Heuristics

$$$$

     RDKit          3D

  7  5  0  0  0  0  0  0  0  0999 V2000
    0.0000   -1.8627   -0.6294 C   0  0  0  0  0  0  0  0  0  0  0  0
    0.0000   -0.6308   -0.1938 H   0  0  0  0  0  0  0  0  0  0  0  0
    0.8891   -2.3761   -0.2664 H   0  0  0  0  0  0  0  0  0  0  0  0
   -0.8891   -2.3761   -0.2664 H   0  0  0  0  0  0  0  0  0  0  0  0
    0.0000   -1.8627   -1.7183 H   0  0  0  0  0  0  0  0  0  0  0  0
    0.0000    0.8837    0.3416 S   0  0  0  0  0  1  0  0  0  0  0  0
    0.0000    1.3900   -0.8976 H   0  0  0  0  0  0  0  0  0  0  0  0
  1  2  1  0
  1  3  1  0
  1  4  1  0
  1  5  1  0
  6  7  1  0
M  RAD  1   6   2
M  END
>  <reaction>  (16) 
rxn_50

>  <mol_properties>  (16) 
{"0": {"label": "*3", "atom_type": "Cs"}, "1": {"label": "*2", "atom_type": "H0"}, "2": {"label": "*4", "atom_type": "H0"}, "5": {"label": "*1", "atom_type": "S2s"}, "6": {"label": "*0", "atom_type": "H0"}}

>  <type>  (16) 
unop_12

>  <geom_source>  (16) 
Heuristics

$$$$
