
     RDKit          3D

  6  5  0  0  0  0  0  0  0  0999 V2000
   -0.3669    0.0060    0.0609 C   0  0  0  0  0  0  0  0  0  0  0  0
    0.9818   -0.0507    0.4695 O   0  0  0  0  0  0  0  0  0  0  0  0
   -0.6066    0.9462   -0.4488 H   0  0  0  0  0  0  0  0  0  0  0  0
   -0.5221   -0.8115   -0.6420 H   0  0  0  0  0  0  0  0  0  0  0  0
   -1.0602   -0.1268    0.8992 H   0  0  0  0  0  0  0  0  0  0  0  0
    1.1451    0.6595    1.0897 H   0  0  0  0  0  0  0  0  0  0  0  0
  1  2  1  0
  1  3  1  0
  1  4  1  0
  1  5  1  0
  2  6  1  0
M  END
>  <reaction>  (1) 
rxn_387

>  <mol_properties>  (1) 
{"1": {"label": "donator", "atom_type": "O2s"}, "5": {"label": "d_hydrogen", "atom_type": "H0"}}

>  <type>  (1) 
r1h

$$$$

     RDKit          3D

  3  2  0  0  0  0  0  0  0  0999 V2000
    0.0000    0.0000    0.1037 C   0  0  0  0  0  2  0  0  0  0  0  0
    0.0000    0.9954   -0.3147 H   0  0  0  0  0  0  0  0  0  0  0  0
    0.0000   -0.9954   -0.3147 H   0  0  0  0  0  0  0  0  0  0  0  0
  1  2  1  0
  1  3  1  0
M  RAD  1   1   3
M  END
>  <reaction>  (2) 
rxn_387

>  <mol_properties>  (2) 
{"0": {"label": "acceptor", "atom_type": "Cs"}}

>  <type>  (2) 
r2

$$$$

     RDKit          3D

  4  3  0  0  0  0  0  0  0  0999 V2000
    0.0000    0.0000    0.0000 C   0  0  0  0  0  3  0  0  0  0  0  0
    1.0638   -0.1747    0.0540 H   0  0  0  0  0  0  0  0  0  0  0  0
   -0.6833   -0.8351   -0.0280 H   0  0  0  0  0  0  0  0  0  0  0  0
   -0.3805    1.0098   -0.0260 H   0  0  0  0  0  0  0  0  0  0  0  0
  1  2  1  0
  1  3  1  0
  1  4  1  0
M  RAD  1   1   2
M  END
>  <reaction>  (3) 
rxn_387

>  <mol_properties>  (3) 
{"0": {"label": "acceptor", "atom_type": "Cs"}, "3": {"label": "a_hydrogen", "atom_type": "H0"}}

>  <type>  (3) 
r2h

$$$$

     RDKit          3D

  9  7  0  0  0  0  0  0  0  0999 V2000
   -0.0600    1.4519    1.0209 C   0  0  0  0  0  2  0  0  0  0  0  0
   -0.8572    2.1677    0.8796 H   0  0  0  0  0  0  0  0  0  0  0  0
    0.8715    1.6123    1.5449 H   0  0  0  0  0  0  0  0  0  0  0  0
    0.0919   -0.7336   -1.1983 C   0  0  0  0  0  0  0  0  0  0  0  0
   -0.4289   -0.8028    0.0974 O   0  0  0  0  0  0  0  0  0  0  0  0
    1.1659   -0.5184   -1.2109 H   0  0  0  0  0  0  0  0  0  0  0  0
   -0.0600   -1.7264   -1.6325 H   0  0  0  0  0  0  0  0  0  0  0  0
   -0.4326   -0.0049   -1.8259 H   0  0  0  0  0  0  0  0  0  0  0  0
   -0.2905    0.2394    0.6077 H   0  0  0  0  0  0  0  0  0  0  0  0
  1  2  1  0
  1  3  1  0
  4  5  1  0
  4  6  1  0
  4  7  1  0
  4  8  1  0
  5  9  1  0
M  RAD  1   1   3
M  END
>  <reaction>  (4) 
rxn_387

>  <mol_properties>  (4) 
{"0": {"label": "*3", "atom_type": "Cs"}, "1": {"label": "*4", "atom_type": "H0"}, "3": {"label": "*0", "atom_type": "Cs"}, "4": {"label": "*1", "atom_type": "O2s"}, "8": {"label": "*2", "atom_type": "H0"}}

>  <type>  (4) 
ts

$$$$

     RDKit          3D

  9  7  0  0  0  0  0  0  0  0999 V2000
   -0.0027    1.5723    1.0003 C   0  0  0  0  0  2  0  0  0  0  0  0
   -0.8123    1.9334    1.6162 H   0  0  0  0  0  0  0  0  0  0  0  0
    0.9309    1.9096    1.4241 H   0  0  0  0  0  0  0  0  0  0  0  0
   -0.0027   -0.7421   -1.1947 C   0  0  0  0  0  0  0  0  0  0  0  0
   -0.0027   -0.7421    0.2157 O   0  0  0  0  0  0  0  0  0  0  0  0
    0.8881   -0.2567   -1.6095 H   0  0  0  0  0  0  0  0  0  0  0  0
   -0.0027   -1.7835   -1.5139 H   0  0  0  0  0  0  0  0  0  0  0  0
   -0.8935   -0.2567   -1.6095 H   0  0  0  0  0  0  0  0  0  0  0  0
   -0.0027    0.3456    0.5844 H   0  0  0  0  0  0  0  0  0  0  0  0
  1  2  1  0
  1  3  1  0
  4  5  1  0
  4  6  1  0
  4  7  1  0
  4  8  1  0
  5  9  1  0
M  RAD  1   1   3
M  END
>  <reaction>  (5) 
rxn_387

>  <mol_properties>  (5) 
{"0": {"label": "*3", "atom_type": "Cs"}, "1": {"label": "*4", "atom_type": "H0"}, "3": {"label": "*0", "atom_type": "Cs"}, "4": {"label": "*1", "atom_type": "O2s"}, "8": {"label": "*2", "atom_type": "H0"}}

>  <type>  (5) 
unop_1

>  <geom_source>  (5) 
Heuristics

$$$$

     RDKit          3D

  9  7  0  0  0  0  0  0  0  0999 V2000
    0.0014    1.5795    1.0160 C   0  0  0  0  0  2  0  0  0  0  0  0
   -0.4661    2.3506    0.4225 H   0  0  0  0  0  0  0  0  0  0  0  0
    0.4069    1.1768    1.9316 H   0  0  0  0  0  0  0  0  0  0  0  0
    0.0014   -0.7348   -1.1790 C   0  0  0  0  0  0  0  0  0  0  0  0
    0.0014   -0.7348    0.2314 O   0  0  0  0  0  0  0  0  0  0  0  0
    0.8921   -0.2495   -1.5938 H   0  0  0  0  0  0  0  0  0  0  0  0
    0.0014   -1.7763   -1.4981 H   0  0  0  0  0  0  0  0  0  0  0  0
   -0.8895   -0.2495   -1.5938 H   0  0  0  0  0  0  0  0  0  0  0  0
    0.0014    0.3528    0.6001 H   0  0  0  0  0  0  0  0  0  0  0  0
  1  2  1  0
  1  3  1  0
  4  5  1  0
  4  6  1  0
  4  7  1  0
  4  8  1  0
  5  9  1  0
M  RAD  1   1   3
M  END
>  <reaction>  (6) 
rxn_387

>  <mol_properties>  (6) 
{"0": {"label": "*3", "atom_type": "Cs"}, "1": {"label": "*4", "atom_type": "H0"}, "3": {"label": "*0", "atom_type": "Cs"}, "4": {"label": "*1", "atom_type": "O2s"}, "8": {"label": "*2", "atom_type": "H0"}}

>  <type>  (6) 
unop_2

>  <geom_source>  (6) 
Heuristics

$$$$

     RDKit          3D

  9  7  0  0  0  0  0  0  0  0999 V2000
   -0.0068    1.5661    0.9989 C   0  0  0  0  0  2  0  0  0  0  0  0
   -0.4742    1.8173    1.9389 H   0  0  0  0  0  0  0  0  0  0  0  0
    0.7715    2.2961    1.1618 H   0  0  0  0  0  0  0  0  0  0  0  0
   -0.0068   -0.7483   -1.1961 C   0  0  0  0  0  0  0  0  0  0  0  0
   -0.0068   -0.7483    0.2143 O   0  0  0  0  0  0  0  0  0  0  0  0
    0.8840   -0.2629   -1.6108 H   0  0  0  0  0  0  0  0  0  0  0  0
   -0.0068   -1.7897   -1.5152 H   0  0  0  0  0  0  0  0  0  0  0  0
   -0.8976   -0.2629   -1.6108 H   0  0  0  0  0  0  0  0  0  0  0  0
   -0.0068    0.3394    0.5830 H   0  0  0  0  0  0  0  0  0  0  0  0
  1  2  1  0
  1  3  1  0
  4  5  1  0
  4  6  1  0
  4  7  1  0
  4  8  1  0
  5  9  1  0
M  RAD  1   1   3
M  END
>  <reaction>  (7) 
rxn_387

>  <mol_properties>  (7) 
{"0": {"label": "*3", "atom_type": "Cs"}, "1": {"label": "*4", "atom_type": "H0"}, "3": {"label": "*0", "atom_type": "Cs"}, "4": {"label": "*1", "atom_type": "O2s"}, "8": {"label": "*2", "atom_type": "H0"}}

>  <type>  (7) 
unop_3

>  <geom_source>  (7) 
Heuristics

$$$$

     RDKit          3D

  9  7  0  0  0  0  0  0  0  0999 V2000
   -0.0022    1.5777    1.0117 C   0  0  0  0  0  2  0  0  0  0  0  0
    0.8073    2.2389    0.7423 H   0  0  0  0  0  0  0  0  0  0  0  0
   -0.7095    1.3673    1.7995 H   0  0  0  0  0  0  0  0  0  0  0  0
   -0.0022   -0.7366   -1.1833 C   0  0  0  0  0  0  0  0  0  0  0  0
   -0.0022   -0.7366    0.2271 O   0  0  0  0  0  0  0  0  0  0  0  0
    0.8886   -0.2513   -1.5980 H   0  0  0  0  0  0  0  0  0  0  0  0
   -0.0022   -1.7781   -1.5024 H   0  0  0  0  0  0  0  0  0  0  0  0
   -0.8930   -0.2513   -1.5980 H   0  0  0  0  0  0  0  0  0  0  0  0
   -0.0022    0.3510    0.5958 H   0  0  0  0  0  0  0  0  0  0  0  0
  1  2  1  0
  1  3  1  0
  4  5  1  0
  4  6  1  0
  4  7  1  0
  4  8  1  0
  5  9  1  0
M  RAD  1   1   3
M  END
>  <reaction>  (8) 
rxn_387

>  <mol_properties>  (8) 
{"0": {"label": "*3", "atom_type": "Cs"}, "1": {"label": "*4", "atom_type": "H0"}, "3": {"label": "*0", "atom_type": "Cs"}, "4": {"label": "*1", "atom_type": "O2s"}, "8": {"label": "*2", "atom_type": "H0"}}

>  <type>  (8) 
unop_4

>  <geom_source>  (8) 
Heuristics

$$$$

     RDKit          3D

  9  7  0  0  0  0  0  0  0  0999 V2000
   -0.0000    1.5594    1.0013 C   0  0  0  0  0  2  0  0  0  0  0  0
   -0.0000    1.7704    2.0599 H   0  0  0  0  0  0  0  0  0  0  0  0
   -0.0000    2.6367    0.9335 H   0  0  0  0  0  0  0  0  0  0  0  0
   -0.0000   -0.7550   -1.1936 C   0  0  0  0  0  0  0  0  0  0  0  0
   -0.0000   -0.7550    0.2168 O   0  0  0  0  0  0  0  0  0  0  0  0
    0.8908   -0.2696   -1.6084 H   0  0  0  0  0  0  0  0  0  0  0  0
    0.0000   -1.7964   -1.5128 H   0  0  0  0  0  0  0  0  0  0  0  0
   -0.8908   -0.2696   -1.6084 H   0  0  0  0  0  0  0  0  0  0  0  0
   -0.0000    0.3327    0.5855 H   0  0  0  0  0  0  0  0  0  0  0  0
  1  2  1  0
  1  3  1  0
  4  5  1  0
  4  6  1  0
  4  7  1  0
  4  8  1  0
  5  9  1  0
M  RAD  1   1   3
M  END
>  <reaction>  (9) 
rxn_387

>  <mol_properties>  (9) 
{"0": {"label": "*3", "atom_type": "Cs"}, "1": {"label": "*4", "atom_type": "H0"}, "3": {"label": "*0", "atom_type": "Cs"}, "4": {"label": "*1", "atom_type": "O2s"}, "8": {"label": "*2", "atom_type": "H0"}}

>  <type>  (9) 
unop_5

>  <geom_source>  (9) 
Heuristics

$$$$

     RDKit          3D

  9  7  0  0  0  0  0  0  0  0999 V2000
   -0.0012    1.5755    1.0056 C   0  0  0  0  0  2  0  0  0  0  0  0
    0.9336    2.0867    1.1789 H   0  0  0  0  0  0  0  0  0  0  0  0
   -0.8827    1.6152    1.6273 H   0  0  0  0  0  0  0  0  0  0  0  0
   -0.0012   -0.7388   -1.1893 C   0  0  0  0  0  0  0  0  0  0  0  0
   -0.0012   -0.7388    0.2210 O   0  0  0  0  0  0  0  0  0  0  0  0
    0.8896   -0.2535   -1.6041 H   0  0  0  0  0  0  0  0  0  0  0  0
   -0.0012   -1.7803   -1.5085 H   0  0  0  0  0  0  0  0  0  0  0  0
   -0.8920   -0.2535   -1.6041 H   0  0  0  0  0  0  0  0  0  0  0  0
   -0.0012    0.3488    0.5898 H   0  0  0  0  0  0  0  0  0  0  0  0
  1  2  1  0
  1  3  1  0
  4  5  1  0
  4  6  1  0
  4  7  1  0
  4  8  1  0
  5  9  1  0
M  RAD  1   1   3
M  END
>  <reaction>  (10) 
rxn_387

>  <mol_properties>  (10) 
{"0": {"label": "*3", "atom_type": "Cs"}, "1": {"label": "*4", "atom_type": "H0"}, "3": {"label": "*0", "atom_type": "Cs"}, "4": {"label": "*1", "atom_type": "O2s"}, "8": {"label": "*2", "atom_type": "H0"}}

>  <type>  (10) 
unop_6

>  <geom_source>  (10) 
Heuristics

$$$$

     RDKit          3D

  9  7  0  0  0  0  0  0  0  0999 V2000
    0.0027    1.5723    1.0003 C   0  0  0  0  0  2  0  0  0  0  0  0
    0.8123    1.9334    1.6162 H   0  0  0  0  0  0  0  0  0  0  0  0
   -0.9309    1.9096    1.4241 H   0  0  0  0  0  0  0  0  0  0  0  0
    0.0027   -0.7421   -1.1947 C   0  0  0  0  0  0  0  0  0  0  0  0
    0.0027   -0.7421    0.2157 O   0  0  0  0  0  0  0  0  0  0  0  0
    0.8935   -0.2567   -1.6095 H   0  0  0  0  0  0  0  0  0  0  0  0
    0.0027   -1.7835   -1.5139 H   0  0  0  0  0  0  0  0  0  0  0  0
   -0.8881   -0.2567   -1.6095 H   0  0  0  0  0  0  0  0  0  0  0  0
    0.0027    0.3456    0.5844 H   0  0  0  0  0  0  0  0  0  0  0  0
  1  2  1  0
  1  3  1  0
  4  5  1  0
  4  6  1  0
  4  7  1  0
  4  8  1  0
  5  9  1  0
M  RAD  1   1   3
M  END
>  <reaction>  (11) 
rxn_387

>  <mol_properties>  (11) 
{"0": {"label": "*3", "atom_type": "Cs"}, "1": {"label": "*4", "atom_type": "H0"}, "3": {"label": "*0", "atom_type": "Cs"}, "4": {"label": "*1", "atom_type": "O2s"}, "8": {"label": "*2", "atom_type": "H0"}}

>  <type>  (11) 
unop_7

>  <geom_source>  (11) 
Heuristics

$$$$

     RDKit          3D

  9  7  0  0  0  0  0  0  0  0999 V2000
    0.0012    1.5755    1.0056 C   0  0  0  0  0  2  0  0  0  0  0  0
   -0.9336    2.0867    1.1789 H   0  0  0  0  0  0  0  0  0  0  0  0
    0.8827    1.6152    1.6273 H   0  0  0  0  0  0  0  0  0  0  0  0
    0.0012   -0.7388   -1.1893 C   0  0  0  0  0  0  0  0  0  0  0  0
    0.0012   -0.7388    0.2210 O   0  0  0  0  0  0  0  0  0  0  0  0
    0.8920   -0.2535   -1.6041 H   0  0  0  0  0  0  0  0  0  0  0  0
    0.0012   -1.7803   -1.5085 H   0  0  0  0  0  0  0  0  0  0  0  0
   -0.8896   -0.2535   -1.6041 H   0  0  0  0  0  0  0  0  0  0  0  0
    0.0012    0.3488    0.5898 H   0  0  0  0  0  0  0  0  0  0  0  0
  1  2  1  0
  1  3  1  0
  4  5  1  0
  4  6  1  0
  4  7  1  0
  4  8  1  0
  5  9  1  0
M  RAD  1   1   3
M  END
>  <reaction>  (12) 
rxn_387

>  <mol_properties>  (12) 
{"0": {"label": "*3", "atom_type": "Cs"}, "1": {"label": "*4", "atom_type": "H0"}, "3": {"label": "*0", "atom_type": "Cs"}, "4": {"label": "*1", "atom_type": "O2s"}, "8": {"label": "*2", "atom_type": "H0"}}

>  <type>  (12) 
unop_8

>  <geom_source>  (12) 
Heuristics

$$$$

     RDKit          3D

  9  7  0  0  0  0  0  0  0  0999 V2000
   -0.0014    1.5795    1.0160 C   0  0  0  0  0  2  0  0  0  0  0  0
    0.4661    2.3506    0.4225 H   0  0  0  0  0  0  0  0  0  0  0  0
   -0.4069    1.1768    1.9316 H   0  0  0  0  0  0  0  0  0  0  0  0
   -0.0014   -0.7348   -1.1790 C   0  0  0  0  0  0  0  0  0  0  0  0
   -0.0014   -0.7348    0.2314 O   0  0  0  0  0  0  0  0  0  0  0  0
    0.8894   -0.2495   -1.5938 H   0  0  0  0  0  0  0  0  0  0  0  0
   -0.0013   -1.7763   -1.4981 H   0  0  0  0  0  0  0  0  0  0  0  0
   -0.8922   -0.2495   -1.5938 H   0  0  0  0  0  0  0  0  0  0  0  0
   -0.0014    0.3528    0.6001 H   0  0  0  0  0  0  0  0  0  0  0  0
  1  2  1  0
  1  3  1  0
  4  5  1  0
  4  6  1  0
  4  7  1  0
  4  8  1  0
  5  9  1  0
M  RAD  1   1   3
M  END
>  <reaction>  (13) 
rxn_387

>  <mol_properties>  (13) 
{"0": {"label": "*3", "atom_type": "Cs"}, "1": {"label": "*4", "atom_type": "H0"}, "3": {"label": "*0", "atom_type": "Cs"}, "4": {"label": "*1", "atom_type": "O2s"}, "8": {"label": "*2", "atom_type": "H0"}}

>  <type>  (13) 
unop_9

>  <geom_source>  (13) 
Heuristics

$$$$

     RDKit          3D

  9  7  0  0  0  0  0  0  0  0999 V2000
    0.0022    1.5777    1.0117 C   0  0  0  0  0  2  0  0  0  0  0  0
   -0.8073    2.2389    0.7423 H   0  0  0  0  0  0  0  0  0  0  0  0
    0.7095    1.3673    1.7995 H   0  0  0  0  0  0  0  0  0  0  0  0
    0.0022   -0.7366   -1.1833 C   0  0  0  0  0  0  0  0  0  0  0  0
    0.0022   -0.7366    0.2271 O   0  0  0  0  0  0  0  0  0  0  0  0
    0.8930   -0.2513   -1.5980 H   0  0  0  0  0  0  0  0  0  0  0  0
    0.0023   -1.7781   -1.5024 H   0  0  0  0  0  0  0  0  0  0  0  0
   -0.8886   -0.2513   -1.5980 H   0  0  0  0  0  0  0  0  0  0  0  0
    0.0022    0.3510    0.5958 H   0  0  0  0  0  0  0  0  0  0  0  0
  1  2  1  0
  1  3  1  0
  4  5  1  0
  4  6  1  0
  4  7  1  0
  4  8  1  0
  5  9  1  0
M  RAD  1   1   3
M  END
>  <reaction>  (14) 
rxn_387

>  <mol_properties>  (14) 
{"0": {"label": "*3", "atom_type": "Cs"}, "1": {"label": "*4", "atom_type": "H0"}, "3": {"label": "*0", "atom_type": "Cs"}, "4": {"label": "*1", "atom_type": "O2s"}, "8": {"label": "*2", "atom_type": "H0"}}

>  <type>  (14) 
unop_10

>  <geom_source>  (14) 
Heuristics

$$$$

     RDKit          3D

  9  7  0  0  0  0  0  0  0  0999 V2000
    0.0068    1.5661    0.9989 C   0  0  0  0  0  2  0  0  0  0  0  0
    0.4742    1.8173    1.9389 H   0  0  0  0  0  0  0  0  0  0  0  0
   -0.7715    2.2961    1.1618 H   0  0  0  0  0  0  0  0  0  0  0  0
    0.0068   -0.7483   -1.1961 C   0  0  0  0  0  0  0  0  0  0  0  0
    0.0068   -0.7483    0.2143 O   0  0  0  0  0  0  0  0  0  0  0  0
    0.8976   -0.2629   -1.6108 H   0  0  0  0  0  0  0  0  0  0  0  0
    0.0068   -1.7897   -1.5152 H   0  0  0  0  0  0  0  0  0  0  0  0
   -0.8840   -0.2629   -1.6108 H   0  0  0  0  0  0  0  0  0  0  0  0
    0.0068    0.3394    0.5830 H   0  0  0  0  0  0  0  0  0  0  0  0
  1  2  1  0
  1  3  1  0
  4  5  1  0
  4  6  1  0
  4  7  1  0
  4  8  1  0
  5  9  1  0
M  RAD  1   1   3
M  END
>  <reaction>  (15) 
rxn_387

>  <mol_properties>  (15) 
{"0": {"label": "*3", "atom_type": "Cs"}, "1": {"label": "*4", "atom_type": "H0"}, "3": {"label": "*0", "atom_type": "Cs"}, "4": {"label": "*1", "atom_type": "O2s"}, "8": {"label": "*2", "atom_type": "H0"}}

>  <type>  (15) 
unop_11

>  <geom_source>  (15) 
Heuristics

$$$$

     RDKit          3D

  9  7  0  0  0  0  0  0  0  0999 V2000
   -0.0000    1.5803    1.0174 C   0  0  0  0  0  2  0  0  0  0  0  0
   -0.0000    2.3916    0.3054 H   0  0  0  0  0  0  0  0  0  0  0  0
   -0.0000    1.1005    1.9843 H   0  0  0  0  0  0  0  0  0  0  0  0
   -0.0000   -0.7340   -1.1775 C   0  0  0  0  0  0  0  0  0  0  0  0
   -0.0000   -0.7340    0.2329 O   0  0  0  0  0  0  0  0  0  0  0  0
    0.8908   -0.2487   -1.5923 H   0  0  0  0  0  0  0  0  0  0  0  0
    0.0000   -1.7754   -1.4967 H   0  0  0  0  0  0  0  0  0  0  0  0
   -0.8908   -0.2487   -1.5923 H   0  0  0  0  0  0  0  0  0  0  0  0
   -0.0000    0.3536    0.6016 H   0  0  0  0  0  0  0  0  0  0  0  0
  1  2  1  0
  1  3  1  0
  4  5  1  0
  4  6  1  0
  4  7  1  0
  4  8  1  0
  5  9  1  0
M  RAD  1   1   3
M  END
>  <reaction>  (16) 
rxn_387

>  <mol_properties>  (16) 
{"0": {"label": "*3", "atom_type": "Cs"}, "1": {"label": "*4", "atom_type": "H0"}, "3": {"label": "*0", "atom_type": "Cs"}, "4": {"label": "*1", "atom_type": "O2s"}, "8": {"label": "*2", "atom_type": "H0"}}

>  <type>  (16) 
unop_12

>  <geom_source>  (16) 
Heuristics

$$$$

     RDKit          3D

  9  7  0  0  0  0  0  0  0  0999 V2000
   -0.3587   -0.5501    0.3294 O   0  0  0  0  0  1  0  0  0  0  0  0
   -1.5321    0.0038   -0.1797 C   0  0  0  0  0  0  0  0  0  0  0  0
    1.8598    0.2669    0.3511 C   0  0  0  0  0  3  0  0  0  0  0  0
   -2.2854    0.0835    0.6308 H   0  0  0  0  0  0  0  0  0  0  0  0
   -1.9265   -0.6447   -0.9887 H   0  0  0  0  0  0  0  0  0  0  0  0
   -1.3182    1.0136   -0.5863 H   0  0  0  0  0  0  0  0  0  0  0  0
    0.8951   -0.4411    0.5630 H   0  0  0  0  0  0  0  0  0  0  0  0
    1.8783    0.5560   -0.7199 H   0  0  0  0  0  0  0  0  0  0  0  0
    2.7876   -0.2879    0.6004 H   0  0  0  0  0  0  0  0  0  0  0  0
  1  2  1  0
  2  4  1  0
  2  5  1  0
  2  6  1  0
  3  7  1  0
  3  8  1  0
  3  9  1  0
M  RAD  2   1   2   3   2
M  END
>  <reaction>  (17) 
rxn_387

>  <mol_properties>  (17) 
{"0": {"label": "*3", "atom_type": "Cs"}, "1": {"label": "*4", "atom_type": "H0"}, "3": {"label": "*0", "atom_type": "Cs"}, "4": {"label": "*1", "atom_type": "O2s"}, "8": {"label": "*2", "atom_type": "H0"}}

>  <type>  (17) 
unop_13

>  <geom_source>  (17) 
AutoTST

$$$$
