
     RDKit          3D

 12 11  0  0  0  0  0  0  0  0999 V2000
    0.2765    1.4875   -0.3235 C   0  0  0  0  0  0  0  0  0  0  0  0
    0.0387    0.2116   -0.0470 C   0  0  0  0  0  0  0  0  0  0  0  0
    1.1382   -0.7557    0.2806 C   0  0  0  0  0  0  0  0  0  0  0  0
   -1.3481   -0.3618   -0.0405 C   0  0  0  0  0  0  0  0  0  0  0  0
    1.2833    1.8882   -0.3245 H   0  0  0  0  0  0  0  0  0  0  0  0
   -0.5275    2.1750   -0.5584 H   0  0  0  0  0  0  0  0  0  0  0  0
    0.9863   -1.1895    1.2731 H   0  0  0  0  0  0  0  0  0  0  0  0
    1.1431   -1.5878   -0.4293 H   0  0  0  0  0  0  0  0  0  0  0  0
    2.1177   -0.2788    0.2593 H   0  0  0  0  0  0  0  0  0  0  0  0
   -1.4296   -1.1802   -0.7616 H   0  0  0  0  0  0  0  0  0  0  0  0
   -1.5864   -0.7819    0.9408 H   0  0  0  0  0  0  0  0  0  0  0  0
   -2.0987    0.3891   -0.2854 H   0  0  0  0  0  0  0  0  0  0  0  0
  1  2  2  3
  1  5  1  0
  1  6  1  0
  2  3  1  0
  2  4  1  0
  3  7  1  0
  3  8  1  0
  3  9  1  0
  4 10  1  0
  4 11  1  0
  4 12  1  0
M  END
>  <reaction>  (1) 
rxn_15

>  <mol_properties>  (1) 
{"2": {"label": "donator", "atom_type": "Cs"}, "6": {"label": "d_hydrogen", "atom_type": "H0"}}

>  <type>  (1) 
r1h

$$$$

     RDKit          3D

 14 13  0  0  0  0  0  0  0  0999 V2000
    0.1523    1.4701    0.0231 C   0  0  0  0  0  0  0  0  0  0  0  0
    0.0724   -0.0001   -0.3729 C   0  0  0  0  0  0  0  0  0  0  0  0
    1.2475   -0.8003    0.1742 C   0  0  0  0  0  0  0  0  0  0  0  0
   -0.0122   -0.1270   -1.8938 C   0  0  0  0  0  0  0  0  0  0  0  0
   -0.1589   -1.3812   -2.3858 O   0  0  0  0  0  1  0  0  0  0  0  0
    1.0590    1.9320   -0.3785 H   0  0  0  0  0  0  0  0  0  0  0  0
    0.1791    1.5803    1.1081 H   0  0  0  0  0  0  0  0  0  0  0  0
   -0.7050    2.0353   -0.3494 H   0  0  0  0  0  0  0  0  0  0  0  0
   -0.8540   -0.4209    0.0315 H   0  0  0  0  0  0  0  0  0  0  0  0
    1.2631   -0.7766    1.2651 H   0  0  0  0  0  0  0  0  0  0  0  0
    1.1915   -1.8416   -0.1447 H   0  0  0  0  0  0  0  0  0  0  0  0
    2.1953   -0.3859   -0.1825 H   0  0  0  0  0  0  0  0  0  0  0  0
    0.9155    0.2678   -2.3597 H   0  0  0  0  0  0  0  0  0  0  0  0
   -0.8028    0.5214   -2.3139 H   0  0  0  0  0  0  0  0  0  0  0  0
  1  2  1  0
  1  6  1  0
  1  7  1  0
  1  8  1  0
  2  3  1  0
  2  4  1  0
  2  9  1  0
  3 10  1  0
  3 11  1  0
  3 12  1  0
  4  5  1  0
  4 13  1  0
  4 14  1  0
M  RAD  1   5   2
M  END
>  <reaction>  (2) 
rxn_15

>  <mol_properties>  (2) 
{"4": {"label": "acceptor", "atom_type": "O2s"}}

>  <type>  (2) 
r2

$$$$

     RDKit          3D

 15 14  0  0  0  0  0  0  0  0999 V2000
   -0.6986    1.3248   -0.1642 C   0  0  0  0  0  0  0  0  0  0  0  0
   -0.2590   -0.0343    0.3671 C   0  0  0  0  0  0  0  0  0  0  0  0
   -0.4735   -0.1428    1.8733 C   0  0  0  0  0  0  0  0  0  0  0  0
   -0.9840   -1.1723   -0.3462 C   0  0  0  0  0  0  0  0  0  0  0  0
   -0.7804   -1.1913   -1.7444 O   0  0  0  0  0  0  0  0  0  0  0  0
   -0.1247    2.1306    0.2975 H   0  0  0  0  0  0  0  0  0  0  0  0
   -1.7558    1.4964    0.0579 H   0  0  0  0  0  0  0  0  0  0  0  0
   -0.5709    1.3851   -1.2450 H   0  0  0  0  0  0  0  0  0  0  0  0
    0.8141   -0.1541    0.1668 H   0  0  0  0  0  0  0  0  0  0  0  0
   -1.5347   -0.0466    2.1192 H   0  0  0  0  0  0  0  0  0  0  0  0
    0.0609    0.6482    2.4019 H   0  0  0  0  0  0  0  0  0  0  0  0
   -0.1250   -1.1021    2.2619 H   0  0  0  0  0  0  0  0  0  0  0  0
   -0.6916   -2.1316    0.1012 H   0  0  0  0  0  0  0  0  0  0  0  0
   -2.0628   -1.0629   -0.2056 H   0  0  0  0  0  0  0  0  0  0  0  0
    0.1530   -1.3299   -1.9124 H   0  0  0  0  0  0  0  0  0  0  0  0
  1  2  1  0
  1  6  1  0
  1  7  1  0
  1  8  1  0
  2  3  1  0
  2  4  1  0
  2  9  1  0
  3 10  1  0
  3 11  1  0
  3 12  1  0
  4  5  1  0
  4 13  1  0
  4 14  1  0
  5 15  1  0
M  END
>  <reaction>  (3) 
rxn_15

>  <mol_properties>  (3) 
{"0": {"label": "a_hydrogen", "atom_type": "H0"}, "5": {"label": "acceptor", "atom_type": "O2s"}}

>  <type>  (3) 
r2h

$$$$

     RDKit          3D

 26 24  0  0  0  0  0  0  0  0999 V2000
   -0.6410   -1.5447   -1.7574 C   0  0  0  0  0  0  0  0  0  0  0  0
    0.4244   -0.7411   -1.8496 C   0  0  0  0  0  0  0  0  0  0  0  0
    0.2871    0.6692   -2.2271 C   0  0  0  0  0  0  0  0  0  0  0  0
    1.8099   -1.2083   -1.5107 C   0  0  0  0  0  0  0  0  0  0  0  0
   -1.6337   -1.1935   -2.0122 H   0  0  0  0  0  0  0  0  0  0  0  0
   -0.5468   -2.5762   -1.4406 H   0  0  0  0  0  0  0  0  0  0  0  0
    0.2723    1.3236   -1.1860 H   0  0  0  0  0  0  0  0  0  0  0  0
    1.1455    1.0910   -2.7490 H   0  0  0  0  0  0  0  0  0  0  0  0
   -0.6552    0.9275   -2.7053 H   0  0  0  0  0  0  0  0  0  0  0  0
    2.4500   -1.1748   -2.3960 H   0  0  0  0  0  0  0  0  0  0  0  0
    2.2618   -0.5474   -0.7663 H   0  0  0  0  0  0  0  0  0  0  0  0
    1.8121   -2.2257   -1.1209 H   0  0  0  0  0  0  0  0  0  0  0  0
    0.9843    0.9328    2.5918 C   0  0  0  0  0  0  0  0  0  0  0  0
    0.0852    0.1542    1.6400 C   0  0  0  0  0  0  0  0  0  0  0  0
   -0.8612   -0.7780    2.3871 C   0  0  0  0  0  0  0  0  0  0  0  0
   -0.7120    1.0996    0.7436 C   0  0  0  0  0  0  0  0  0  0  0  0
    0.0582    1.9431   -0.0421 O   0  0  0  0  0  1  0  0  0  0  0  0
    1.6087    0.2600    3.1831 H   0  0  0  0  0  0  0  0  0  0  0  0
    0.3844    1.5289    3.2861 H   0  0  0  0  0  0  0  0  0  0  0  0
    1.6354    1.6126    2.0411 H   0  0  0  0  0  0  0  0  0  0  0  0
    0.7159   -0.4530    0.9835 H   0  0  0  0  0  0  0  0  0  0  0  0
   -1.5400   -0.2101    3.0301 H   0  0  0  0  0  0  0  0  0  0  0  0
   -1.4676   -1.3665    1.6945 H   0  0  0  0  0  0  0  0  0  0  0  0
   -0.3080   -1.4714    3.0230 H   0  0  0  0  0  0  0  0  0  0  0  0
   -1.3574    1.7459    1.3606 H   0  0  0  0  0  0  0  0  0  0  0  0
   -1.4001    0.5143    0.1125 H   0  0  0  0  0  0  0  0  0  0  0  0
  1  2  2  3
  1  5  1  0
  1  6  1  0
  2  3  1  0
  2  4  1  0
  3  7  1  0
  3  8  1  0
  3  9  1  0
  4 10  1  0
  4 11  1  0
  4 12  1  0
 13 14  1  0
 13 18  1  0
 13 19  1  0
 13 20  1  0
 14 15  1  0
 14 16  1  0
 14 21  1  0
 15 22  1  0
 15 23  1  0
 15 24  1  0
 16 17  1  0
 16 25  1  0
 16 26  1  0
M  RAD  1  17   2
M  END
>  <reaction>  (4) 
rxn_15

>  <mol_properties>  (4) 
{"1": {"label": "*0", "atom_type": "Cd"}, "2": {"label": "*1", "atom_type": "Cs"}, "6": {"label": "*2", "atom_type": "H0"}, "15": {"label": "*4", "atom_type": "Cs"}, "16": {"label": "*3", "atom_type": "O2s"}}

>  <type>  (4) 
ts

$$$$

     RDKit          3D

 26 24  0  0  0  0  0  0  0  0999 V2000
    0.6362   -1.6666   -3.1205 C   0  0  0  0  0  0  0  0  0  0  0  0
    0.6362   -1.6666   -1.7935 C   0  0  0  0  0  0  0  0  0  0  0  0
    0.6362   -0.3977   -0.9922 C   0  0  0  0  0  3  0  0  0  0  0  0
    0.6362   -2.9355   -0.9922 C   0  0  0  0  0  0  0  0  0  0  0  0
    0.6362   -0.7425   -3.6864 H   0  0  0  0  0  0  0  0  0  0  0  0
    0.6362   -2.5907   -3.6864 H   0  0  0  0  0  0  0  0  0  0  0  0
   -0.4170   -0.3448   -0.2108 H   0  0  0  0  0  0  0  0  0  0  0  0
    1.5140   -0.3536   -0.3411 H   0  0  0  0  0  0  0  0  0  0  0  0
    0.6362    0.4852   -1.6307 H   0  0  0  0  0  0  0  0  0  0  0  0
    1.5140   -2.9795   -0.3411 H   0  0  0  0  0  0  0  0  0  0  0  0
   -0.2415   -2.9795   -0.3411 H   0  0  0  0  0  0  0  0  0  0  0  0
    0.6362   -3.8184   -1.6307 H   0  0  0  0  0  0  0  0  0  0  0  0
   -0.4414    2.5311    0.3324 C   0  0  0  0  0  0  0  0  0  0  0  0
    0.0382    1.5320    1.3787 C   0  0  0  0  0  0  0  0  0  0  0  0
    0.3943    2.2231    2.6909 C   0  0  0  0  0  0  0  0  0  0  0  0
   -1.0026    0.4439    1.6280 C   0  0  0  0  0  0  0  0  0  0  0  0
   -1.3400   -0.2985    0.4739 O   0  0  0  0  0  0  0  0  0  0  0  0
    0.3352    3.2641    0.1052 H   0  0  0  0  0  0  0  0  0  0  0  0
   -1.3179    3.0738    0.6980 H   0  0  0  0  0  0  0  0  0  0  0  0
   -0.7227    2.0279   -0.5927 H   0  0  0  0  0  0  0  0  0  0  0  0
    0.9422    1.0386    0.9978 H   0  0  0  0  0  0  0  0  0  0  0  0
   -0.4839    2.7156    3.1177 H   0  0  0  0  0  0  0  0  0  0  0  0
    0.7731    1.5138    3.4299 H   0  0  0  0  0  0  0  0  0  0  0  0
    1.1581    2.9867    2.5355 H   0  0  0  0  0  0  0  0  0  0  0  0
   -1.9352    0.9018    1.9686 H   0  0  0  0  0  0  0  0  0  0  0  0
   -0.6536   -0.2216    2.4287 H   0  0  0  0  0  0  0  0  0  0  0  0
  1  2  2  3
  1  5  1  0
  1  6  1  0
  2  3  1  0
  2  4  1  0
  3  8  1  0
  3  9  1  0
  4 10  1  0
  4 11  1  0
  4 12  1  0
  7 17  1  0
 13 14  1  0
 13 18  1  0
 13 19  1  0
 13 20  1  0
 14 15  1  0
 14 16  1  0
 14 21  1  0
 15 22  1  0
 15 23  1  0
 15 24  1  0
 16 17  1  0
 16 25  1  0
 16 26  1  0
M  RAD  1   3   2
M  END
>  <reaction>  (5) 
rxn_15

>  <mol_properties>  (5) 
{"1": {"label": "*0", "atom_type": "Cd"}, "2": {"label": "*1", "atom_type": "Cs"}, "6": {"label": "*2", "atom_type": "H0"}, "15": {"label": "*4", "atom_type": "Cs"}, "16": {"label": "*3", "atom_type": "O2s"}}

>  <type>  (5) 
unop_1

>  <geom_source>  (5) 
Heuristics

$$$$

     RDKit          3D

 26 24  0  0  0  0  0  0  0  0999 V2000
    0.5405   -0.0904   -3.3211 C   0  0  0  0  0  0  0  0  0  0  0  0
    0.5405   -0.0904   -1.9941 C   0  0  0  0  0  0  0  0  0  0  0  0
    0.5405    1.1785   -1.1928 C   0  0  0  0  0  3  0  0  0  0  0  0
    0.5405   -1.3592   -1.1928 C   0  0  0  0  0  0  0  0  0  0  0  0
    0.5405    0.8338   -3.8870 H   0  0  0  0  0  0  0  0  0  0  0  0
    0.5405   -1.0145   -3.8870 H   0  0  0  0  0  0  0  0  0  0  0  0
   -0.5128    1.2314   -0.4114 H   0  0  0  0  0  0  0  0  0  0  0  0
    1.4182    1.2226   -0.5416 H   0  0  0  0  0  0  0  0  0  0  0  0
    0.5405    2.0614   -1.8313 H   0  0  0  0  0  0  0  0  0  0  0  0
    1.4182   -1.4033   -0.5416 H   0  0  0  0  0  0  0  0  0  0  0  0
   -0.3373   -1.4033   -0.5416 H   0  0  0  0  0  0  0  0  0  0  0  0
    0.5405   -2.2422   -1.8313 H   0  0  0  0  0  0  0  0  0  0  0  0
    0.8751    0.7502    2.0666 C   0  0  0  0  0  0  0  0  0  0  0  0
    0.0111   -0.3384    1.4411 C   0  0  0  0  0  0  0  0  0  0  0  0
   -0.0548   -1.5787    2.3263 C   0  0  0  0  0  0  0  0  0  0  0  0
   -1.3984    0.1688    1.1484 C   0  0  0  0  0  0  0  0  0  0  0  0
   -1.4358    1.2778    0.2734 O   0  0  0  0  0  0  0  0  0  0  0  0
    1.9012    0.4045    2.2063 H   0  0  0  0  0  0  0  0  0  0  0  0
    0.4804    1.0331    3.0467 H   0  0  0  0  0  0  0  0  0  0  0  0
    0.8937    1.6446    1.4438 H   0  0  0  0  0  0  0  0  0  0  0  0
    0.4599   -0.6285    0.4817 H   0  0  0  0  0  0  0  0  0  0  0  0
   -0.5129   -1.3402    3.2902 H   0  0  0  0  0  0  0  0  0  0  0  0
   -0.6431   -2.3736    1.8629 H   0  0  0  0  0  0  0  0  0  0  0  0
    0.9441   -1.9711    2.5236 H   0  0  0  0  0  0  0  0  0  0  0  0
   -1.8645    0.5087    2.0772 H   0  0  0  0  0  0  0  0  0  0  0  0
   -2.0111   -0.6544    0.7572 H   0  0  0  0  0  0  0  0  0  0  0  0
  1  2  2  3
  1  5  1  0
  1  6  1  0
  2  3  1  0
  2  4  1  0
  3  8  1  0
  3  9  1  0
  4 10  1  0
  4 11  1  0
  4 12  1  0
  7 17  1  0
 13 14  1  0
 13 18  1  0
 13 19  1  0
 13 20  1  0
 14 15  1  0
 14 16  1  0
 14 21  1  0
 15 22  1  0
 15 23  1  0
 15 24  1  0
 16 17  1  0
 16 25  1  0
 16 26  1  0
M  RAD  1   3   2
M  END
>  <reaction>  (6) 
rxn_15

>  <mol_properties>  (6) 
{"1": {"label": "*0", "atom_type": "Cd"}, "2": {"label": "*1", "atom_type": "Cs"}, "6": {"label": "*2", "atom_type": "H0"}, "15": {"label": "*4", "atom_type": "Cs"}, "16": {"label": "*3", "atom_type": "O2s"}}

>  <type>  (6) 
unop_2

>  <geom_source>  (6) 
Heuristics

$$$$

     RDKit          3D

 26 24  0  0  0  0  0  0  0  0999 V2000
    1.2538   -1.8819   -2.6961 C   0  0  0  0  0  0  0  0  0  0  0  0
    1.2538   -1.8819   -1.3691 C   0  0  0  0  0  0  0  0  0  0  0  0
    1.2538   -0.6130   -0.5679 C   0  0  0  0  0  3  0  0  0  0  0  0
    1.2538   -3.1508   -0.5679 C   0  0  0  0  0  0  0  0  0  0  0  0
    1.2538   -0.9578   -3.2620 H   0  0  0  0  0  0  0  0  0  0  0  0
    1.2538   -2.8060   -3.2620 H   0  0  0  0  0  0  0  0  0  0  0  0
    0.2005   -0.5602    0.2136 H   0  0  0  0  0  0  0  0  0  0  0  0
    2.1315   -0.5690    0.0833 H   0  0  0  0  0  0  0  0  0  0  0  0
    1.2538    0.2699   -1.2064 H   0  0  0  0  0  0  0  0  0  0  0  0
    2.1315   -3.1949    0.0833 H   0  0  0  0  0  0  0  0  0  0  0  0
    0.3761   -3.1949    0.0833 H   0  0  0  0  0  0  0  0  0  0  0  0
    1.2538   -4.0337   -1.2064 H   0  0  0  0  0  0  0  0  0  0  0  0
   -2.0188    1.9775   -0.0749 C   0  0  0  0  0  0  0  0  0  0  0  0
   -0.7415    1.9455    0.7561 C   0  0  0  0  0  0  0  0  0  0  0  0
   -0.6058    3.1933    1.6226 C   0  0  0  0  0  0  0  0  0  0  0  0
   -0.6760    0.6950    1.6286 C   0  0  0  0  0  0  0  0  0  0  0  0
   -0.7224   -0.5138    0.8983 O   0  0  0  0  0  0  0  0  0  0  0  0
   -2.0261    2.8356   -0.7498 H   0  0  0  0  0  0  0  0  0  0  0  0
   -2.8943    2.0556    0.5761 H   0  0  0  0  0  0  0  0  0  0  0  0
   -2.1249    1.0698   -0.6689 H   0  0  0  0  0  0  0  0  0  0  0  0
    0.1164    1.9118    0.0714 H   0  0  0  0  0  0  0  0  0  0  0  0
   -1.4330    3.2595    2.3349 H   0  0  0  0  0  0  0  0  0  0  0  0
    0.3267    3.1897    2.1910 H   0  0  0  0  0  0  0  0  0  0  0  0
   -0.6234    4.0971    1.0113 H   0  0  0  0  0  0  0  0  0  0  0  0
   -1.5407    0.6705    2.2972 H   0  0  0  0  0  0  0  0  0  0  0  0
    0.2230    0.7332    2.2582 H   0  0  0  0  0  0  0  0  0  0  0  0
  1  2  2  3
  1  5  1  0
  1  6  1  0
  2  3  1  0
  2  4  1  0
  3  8  1  0
  3  9  1  0
  4 10  1  0
  4 11  1  0
  4 12  1  0
  7 17  1  0
 13 14  1  0
 13 18  1  0
 13 19  1  0
 13 20  1  0
 14 15  1  0
 14 16  1  0
 14 21  1  0
 15 22  1  0
 15 23  1  0
 15 24  1  0
 16 17  1  0
 16 25  1  0
 16 26  1  0
M  RAD  1   3   2
M  END
>  <reaction>  (7) 
rxn_15

>  <mol_properties>  (7) 
{"1": {"label": "*0", "atom_type": "Cd"}, "2": {"label": "*1", "atom_type": "Cs"}, "6": {"label": "*2", "atom_type": "H0"}, "15": {"label": "*4", "atom_type": "Cs"}, "16": {"label": "*3", "atom_type": "O2s"}}

>  <type>  (7) 
unop_3

>  <geom_source>  (7) 
Heuristics

$$$$

     RDKit          3D

 26 24  0  0  0  0  0  0  0  0999 V2000
    1.7105    0.1652   -2.5317 C   0  0  0  0  0  0  0  0  0  0  0  0
    1.7105    0.1652   -1.2047 C   0  0  0  0  0  0  0  0  0  0  0  0
    1.7105    1.4340   -0.4035 C   0  0  0  0  0  3  0  0  0  0  0  0
    1.7105   -1.1037   -0.4035 C   0  0  0  0  0  0  0  0  0  0  0  0
    1.7105    1.0893   -3.0976 H   0  0  0  0  0  0  0  0  0  0  0  0
    1.7105   -0.7590   -3.0976 H   0  0  0  0  0  0  0  0  0  0  0  0
    0.6572    1.4869    0.3780 H   0  0  0  0  0  0  0  0  0  0  0  0
    2.5882    1.4781    0.2477 H   0  0  0  0  0  0  0  0  0  0  0  0
    1.7105    2.3170   -1.0420 H   0  0  0  0  0  0  0  0  0  0  0  0
    2.5882   -1.1478    0.2477 H   0  0  0  0  0  0  0  0  0  0  0  0
    0.8328   -1.1478    0.2477 H   0  0  0  0  0  0  0  0  0  0  0  0
    1.7105   -1.9866   -1.0420 H   0  0  0  0  0  0  0  0  0  0  0  0
   -1.3109   -1.0313    2.1421 C   0  0  0  0  0  0  0  0  0  0  0  0
   -1.2638   -0.6825    0.6592 C   0  0  0  0  0  0  0  0  0  0  0  0
   -2.3901   -1.3629   -0.1121 C   0  0  0  0  0  0  0  0  0  0  0  0
   -1.3193    0.8268    0.4399 C   0  0  0  0  0  0  0  0  0  0  0  0
   -0.2658    1.5333    1.0627 O   0  0  0  0  0  0  0  0  0  0  0  0
   -1.1974   -2.1061    2.2959 H   0  0  0  0  0  0  0  0  0  0  0  0
   -2.2699   -0.7303    2.5735 H   0  0  0  0  0  0  0  0  0  0  0  0
   -0.5221   -0.5184    2.6924 H   0  0  0  0  0  0  0  0  0  0  0  0
   -0.3085   -1.0374    0.2500 H   0  0  0  0  0  0  0  0  0  0  0  0
   -3.3647   -1.0250    0.2512 H   0  0  0  0  0  0  0  0  0  0  0  0
   -2.3363   -1.1440   -1.1807 H   0  0  0  0  0  0  0  0  0  0  0  0
   -2.3492   -2.4463    0.0116 H   0  0  0  0  0  0  0  0  0  0  0  0
   -2.2403    1.2253    0.8741 H   0  0  0  0  0  0  0  0  0  0  0  0
   -1.3462    1.0408   -0.6368 H   0  0  0  0  0  0  0  0  0  0  0  0
  1  2  2  3
  1  5  1  0
  1  6  1  0
  2  3  1  0
  2  4  1  0
  3  8  1  0
  3  9  1  0
  4 10  1  0
  4 11  1  0
  4 12  1  0
  7 17  1  0
 13 14  1  0
 13 18  1  0
 13 19  1  0
 13 20  1  0
 14 15  1  0
 14 16  1  0
 14 21  1  0
 15 22  1  0
 15 23  1  0
 15 24  1  0
 16 17  1  0
 16 25  1  0
 16 26  1  0
M  RAD  1   3   2
M  END
>  <reaction>  (8) 
rxn_15

>  <mol_properties>  (8) 
{"1": {"label": "*0", "atom_type": "Cd"}, "2": {"label": "*1", "atom_type": "Cs"}, "6": {"label": "*2", "atom_type": "H0"}, "15": {"label": "*4", "atom_type": "Cs"}, "16": {"label": "*3", "atom_type": "O2s"}}

>  <type>  (8) 
unop_4

>  <geom_source>  (8) 
Heuristics

$$$$

     RDKit          3D

 26 24  0  0  0  0  0  0  0  0999 V2000
    1.8102   -1.6271   -2.4491 C   0  0  0  0  0  0  0  0  0  0  0  0
    1.8102   -1.6271   -1.1221 C   0  0  0  0  0  0  0  0  0  0  0  0
    1.8102   -0.3583   -0.3208 C   0  0  0  0  0  3  0  0  0  0  0  0
    1.8102   -2.8960   -0.3208 C   0  0  0  0  0  0  0  0  0  0  0  0
    1.8102   -0.7030   -3.0150 H   0  0  0  0  0  0  0  0  0  0  0  0
    1.8102   -2.5513   -3.0150 H   0  0  0  0  0  0  0  0  0  0  0  0
    0.7569   -0.3054    0.4606 H   0  0  0  0  0  0  0  0  0  0  0  0
    2.6879   -0.3142    0.3303 H   0  0  0  0  0  0  0  0  0  0  0  0
    1.8102    0.5246   -0.9593 H   0  0  0  0  0  0  0  0  0  0  0  0
    2.6879   -2.9401    0.3304 H   0  0  0  0  0  0  0  0  0  0  0  0
    0.9324   -2.9401    0.3303 H   0  0  0  0  0  0  0  0  0  0  0  0
    1.8102   -3.7789   -0.9593 H   0  0  0  0  0  0  0  0  0  0  0  0
   -2.8629    0.7840    0.4569 C   0  0  0  0  0  0  0  0  0  0  0  0
   -1.5775    1.5958    0.3476 C   0  0  0  0  0  0  0  0  0  0  0  0
   -1.8339    3.0828    0.5696 C   0  0  0  0  0  0  0  0  0  0  0  0
   -0.5189    1.0971    1.3275 C   0  0  0  0  0  0  0  0  0  0  0  0
   -0.1661   -0.2590    1.1453 O   0  0  0  0  0  0  0  0  0  0  0  0
   -3.5895    1.0971   -0.2953 H   0  0  0  0  0  0  0  0  0  0  0  0
   -3.3184    0.9234    1.4414 H   0  0  0  0  0  0  0  0  0  0  0  0
   -2.6683   -0.2806    0.3272 H   0  0  0  0  0  0  0  0  0  0  0  0
   -1.1720    1.4679   -0.6648 H   0  0  0  0  0  0  0  0  0  0  0  0
   -2.2238    3.2605    1.5758 H   0  0  0  0  0  0  0  0  0  0  0  0
   -0.9206    3.6706    0.4553 H   0  0  0  0  0  0  0  0  0  0  0  0
   -2.5694    3.4627   -0.1413 H   0  0  0  0  0  0  0  0  0  0  0  0
   -0.9037    1.1684    2.3484 H   0  0  0  0  0  0  0  0  0  0  0  0
    0.3692    1.7402    1.2672 H   0  0  0  0  0  0  0  0  0  0  0  0
  1  2  2  3
  1  5  1  0
  1  6  1  0
  2  3  1  0
  2  4  1  0
  3  8  1  0
  3  9  1  0
  4 10  1  0
  4 11  1  0
  4 12  1  0
  7 17  1  0
 13 14  1  0
 13 18  1  0
 13 19  1  0
 13 20  1  0
 14 15  1  0
 14 16  1  0
 14 21  1  0
 15 22  1  0
 15 23  1  0
 15 24  1  0
 16 17  1  0
 16 25  1  0
 16 26  1  0
M  RAD  1   3   2
M  END
>  <reaction>  (9) 
rxn_15

>  <mol_properties>  (9) 
{"1": {"label": "*0", "atom_type": "Cd"}, "2": {"label": "*1", "atom_type": "Cs"}, "6": {"label": "*2", "atom_type": "H0"}, "15": {"label": "*4", "atom_type": "Cs"}, "16": {"label": "*3", "atom_type": "O2s"}}

>  <type>  (9) 
unop_5

>  <geom_source>  (9) 
Heuristics

$$$$

     RDKit          3D

 26 24  0  0  0  0  0  0  0  0999 V2000
    2.0271   -0.2289   -2.3000 C   0  0  0  0  0  0  0  0  0  0  0  0
    2.0271   -0.2289   -0.9730 C   0  0  0  0  0  0  0  0  0  0  0  0
    2.0271    1.0399   -0.1718 C   0  0  0  0  0  3  0  0  0  0  0  0
    2.0271   -1.4978   -0.1718 C   0  0  0  0  0  0  0  0  0  0  0  0
    2.0271    0.6952   -2.8659 H   0  0  0  0  0  0  0  0  0  0  0  0
    2.0271   -1.1531   -2.8659 H   0  0  0  0  0  0  0  0  0  0  0  0
    0.9738    1.0928    0.6097 H   0  0  0  0  0  0  0  0  0  0  0  0
    2.9048    1.0840    0.4794 H   0  0  0  0  0  0  0  0  0  0  0  0
    2.0271    1.9228   -0.8103 H   0  0  0  0  0  0  0  0  0  0  0  0
    2.9048   -1.5419    0.4794 H   0  0  0  0  0  0  0  0  0  0  0  0
    1.1493   -1.5419    0.4794 H   0  0  0  0  0  0  0  0  0  0  0  0
    2.0271   -2.3807   -0.8103 H   0  0  0  0  0  0  0  0  0  0  0  0
   -2.1071   -0.8583    1.7277 C   0  0  0  0  0  0  0  0  0  0  0  0
   -1.7191   -0.2996    0.3638 C   0  0  0  0  0  0  0  0  0  0  0  0
   -2.9116   -0.2635   -0.5864 C   0  0  0  0  0  0  0  0  0  0  0  0
   -1.1073    1.0933    0.4860 C   0  0  0  0  0  0  0  0  0  0  0  0
    0.0508    1.1392    1.2944 O   0  0  0  0  0  0  0  0  0  0  0  0
   -2.4761   -1.8821    1.6414 H   0  0  0  0  0  0  0  0  0  0  0  0
   -2.9005   -0.2527    2.1752 H   0  0  0  0  0  0  0  0  0  0  0  0
   -1.2581   -0.8535    2.4111 H   0  0  0  0  0  0  0  0  0  0  0  0
   -0.9547   -0.9551   -0.0744 H   0  0  0  0  0  0  0  0  0  0  0  0
   -3.6942    0.3940   -0.1976 H   0  0  0  0  0  0  0  0  0  0  0  0
   -2.6277    0.1019   -1.5757 H   0  0  0  0  0  0  0  0  0  0  0  0
   -3.3453   -1.2575   -0.7069 H   0  0  0  0  0  0  0  0  0  0  0  0
   -1.8259    1.7675    0.9597 H   0  0  0  0  0  0  0  0  0  0  0  0
   -0.8968    1.4911   -0.5157 H   0  0  0  0  0  0  0  0  0  0  0  0
  1  2  2  3
  1  5  1  0
  1  6  1  0
  2  3  1  0
  2  4  1  0
  3  8  1  0
  3  9  1  0
  4 10  1  0
  4 11  1  0
  4 12  1  0
  7 17  1  0
 13 14  1  0
 13 18  1  0
 13 19  1  0
 13 20  1  0
 14 15  1  0
 14 16  1  0
 14 21  1  0
 15 22  1  0
 15 23  1  0
 15 24  1  0
 16 17  1  0
 16 25  1  0
 16 26  1  0
M  RAD  1   3   2
M  END
>  <reaction>  (10) 
rxn_15

>  <mol_properties>  (10) 
{"1": {"label": "*0", "atom_type": "Cd"}, "2": {"label": "*1", "atom_type": "Cs"}, "6": {"label": "*2", "atom_type": "H0"}, "15": {"label": "*4", "atom_type": "Cs"}, "16": {"label": "*3", "atom_type": "O2s"}}

>  <type>  (10) 
unop_6

>  <geom_source>  (10) 
Heuristics

$$$$

     RDKit          3D

 26 24  0  0  0  0  0  0  0  0999 V2000
    2.1457   -0.7382   -2.2160 C   0  0  0  0  0  0  0  0  0  0  0  0
    2.1457   -0.7382   -0.8890 C   0  0  0  0  0  0  0  0  0  0  0  0
    2.1457    0.5307   -0.0877 C   0  0  0  0  0  3  0  0  0  0  0  0
    2.1457   -2.0071   -0.0877 C   0  0  0  0  0  0  0  0  0  0  0  0
    2.1456    0.1859   -2.7819 H   0  0  0  0  0  0  0  0  0  0  0  0
    2.1457   -1.6623   -2.7819 H   0  0  0  0  0  0  0  0  0  0  0  0
    1.0924    0.5836    0.6937 H   0  0  0  0  0  0  0  0  0  0  0  0
    3.0234    0.5748    0.5634 H   0  0  0  0  0  0  0  0  0  0  0  0
    2.1456    1.4136   -0.7262 H   0  0  0  0  0  0  0  0  0  0  0  0
    3.0234   -2.0511    0.5635 H   0  0  0  0  0  0  0  0  0  0  0  0
    1.2679   -2.0512    0.5634 H   0  0  0  0  0  0  0  0  0  0  0  0
    2.1457   -2.8900   -0.7262 H   0  0  0  0  0  0  0  0  0  0  0  0
   -2.5979   -0.4541    1.3438 C   0  0  0  0  0  0  0  0  0  0  0  0
   -1.9599    0.3012    0.1839 C   0  0  0  0  0  0  0  0  0  0  0  0
   -3.0022    1.0603   -0.6308 C   0  0  0  0  0  0  0  0  0  0  0  0
   -0.8789    1.2617    0.6722 C   0  0  0  0  0  0  0  0  0  0  0  0
    0.1694    0.6299    1.3784 O   0  0  0  0  0  0  0  0  0  0  0  0
   -3.3180   -1.1911    0.9830 H   0  0  0  0  0  0  0  0  0  0  0  0
   -3.1291    0.2387    2.0028 H   0  0  0  0  0  0  0  0  0  0  0  0
   -1.8448   -0.9698    1.9396 H   0  0  0  0  0  0  0  0  0  0  0  0
   -1.4746   -0.4275   -0.4789 H   0  0  0  0  0  0  0  0  0  0  0  0
   -3.5010    1.8123   -0.0131 H   0  0  0  0  0  0  0  0  0  0  0  0
   -2.5520    1.5722   -1.4840 H   0  0  0  0  0  0  0  0  0  0  0  0
   -3.7692    0.3838   -1.0111 H   0  0  0  0  0  0  0  0  0  0  0  0
   -1.3166    1.9793    1.3714 H   0  0  0  0  0  0  0  0  0  0  0  0
   -0.4840    1.8331   -0.1784 H   0  0  0  0  0  0  0  0  0  0  0  0
  1  2  2  3
  1  5  1  0
  1  6  1  0
  2  3  1  0
  2  4  1  0
  3  8  1  0
  3  9  1  0
  4 10  1  0
  4 11  1  0
  4 12  1  0
  7 17  1  0
 13 14  1  0
 13 18  1  0
 13 19  1  0
 13 20  1  0
 14 15  1  0
 14 16  1  0
 14 21  1  0
 15 22  1  0
 15 23  1  0
 15 24  1  0
 16 17  1  0
 16 25  1  0
 16 26  1  0
M  RAD  1   3   2
M  END
>  <reaction>  (11) 
rxn_15

>  <mol_properties>  (11) 
{"1": {"label": "*0", "atom_type": "Cd"}, "2": {"label": "*1", "atom_type": "Cs"}, "6": {"label": "*2", "atom_type": "H0"}, "15": {"label": "*4", "atom_type": "Cs"}, "16": {"label": "*3", "atom_type": "O2s"}}

>  <type>  (11) 
unop_7

>  <geom_source>  (11) 
Heuristics

$$$$

     RDKit          3D

 26 24  0  0  0  0  0  0  0  0999 V2000
    0.3701   -1.1275   -3.4034 C   0  0  0  0  0  0  0  0  0  0  0  0
    0.3701   -1.1275   -2.0764 C   0  0  0  0  0  0  0  0  0  0  0  0
    0.3701    0.1413   -1.2751 C   0  0  0  0  0  3  0  0  0  0  0  0
    0.3701   -2.3964   -1.2751 C   0  0  0  0  0  0  0  0  0  0  0  0
    0.3701   -0.2034   -3.9693 H   0  0  0  0  0  0  0  0  0  0  0  0
    0.3701   -2.0517   -3.9693 H   0  0  0  0  0  0  0  0  0  0  0  0
   -0.6831    0.1942   -0.4937 H   0  0  0  0  0  0  0  0  0  0  0  0
    1.2479    0.1854   -0.6240 H   0  0  0  0  0  0  0  0  0  0  0  0
    0.3701    1.0243   -1.9136 H   0  0  0  0  0  0  0  0  0  0  0  0
    1.2479   -2.4405   -0.6240 H   0  0  0  0  0  0  0  0  0  0  0  0
   -0.5076   -2.4405   -0.6240 H   0  0  0  0  0  0  0  0  0  0  0  0
    0.3701   -3.2793   -1.9136 H   0  0  0  0  0  0  0  0  0  0  0  0
    0.4762    2.1761    1.0582 C   0  0  0  0  0  0  0  0  0  0  0  0
    0.2792    0.7968    1.6759 C   0  0  0  0  0  0  0  0  0  0  0  0
    0.6888    0.7775    3.1450 C   0  0  0  0  0  0  0  0  0  0  0  0
   -1.1642    0.3225    1.5307 C   0  0  0  0  0  0  0  0  0  0  0  0
   -1.6061    0.2406    0.1910 O   0  0  0  0  0  0  0  0  0  0  0  0
    1.5244    2.4784    1.1000 H   0  0  0  0  0  0  0  0  0  0  0  0
   -0.1100    2.9233    1.6009 H   0  0  0  0  0  0  0  0  0  0  0  0
    0.1536    2.1910    0.0172 H   0  0  0  0  0  0  0  0  0  0  0  0
    0.9142    0.0816    1.1362 H   0  0  0  0  0  0  0  0  0  0  0  0
    0.0687    1.4650    3.7269 H   0  0  0  0  0  0  0  0  0  0  0  0
    0.5833   -0.2189    3.5797 H   0  0  0  0  0  0  0  0  0  0  0  0
    1.7279    1.0882    3.2648 H   0  0  0  0  0  0  0  0  0  0  0  0
   -1.8337    1.0348    2.0204 H   0  0  0  0  0  0  0  0  0  0  0  0
   -1.2863   -0.6434    2.0389 H   0  0  0  0  0  0  0  0  0  0  0  0
  1  2  2  3
  1  5  1  0
  1  6  1  0
  2  3  1  0
  2  4  1  0
  3  8  1  0
  3  9  1  0
  4 10  1  0
  4 11  1  0
  4 12  1  0
  7 17  1  0
 13 14  1  0
 13 18  1  0
 13 19  1  0
 13 20  1  0
 14 15  1  0
 14 16  1  0
 14 21  1  0
 15 22  1  0
 15 23  1  0
 15 24  1  0
 16 17  1  0
 16 25  1  0
 16 26  1  0
M  RAD  1   3   2
M  END
>  <reaction>  (12) 
rxn_15

>  <mol_properties>  (12) 
{"1": {"label": "*0", "atom_type": "Cd"}, "2": {"label": "*1", "atom_type": "Cs"}, "6": {"label": "*2", "atom_type": "H0"}, "15": {"label": "*4", "atom_type": "Cs"}, "16": {"label": "*3", "atom_type": "O2s"}}

>  <type>  (12) 
unop_8

>  <geom_source>  (12) 
Heuristics

$$$$

     RDKit          3D

 26 24  0  0  0  0  0  0  0  0999 V2000
    0.3661   -0.5590   -3.4504 C   0  0  0  0  0  0  0  0  0  0  0  0
    0.3661   -0.5590   -2.1234 C   0  0  0  0  0  0  0  0  0  0  0  0
    0.3661    0.7099   -1.3221 C   0  0  0  0  0  3  0  0  0  0  0  0
    0.3661   -1.8278   -1.3221 C   0  0  0  0  0  0  0  0  0  0  0  0
    0.3661    0.3652   -4.0163 H   0  0  0  0  0  0  0  0  0  0  0  0
    0.3661   -1.4831   -4.0163 H   0  0  0  0  0  0  0  0  0  0  0  0
   -0.6872    0.7628   -0.5407 H   0  0  0  0  0  0  0  0  0  0  0  0
    1.2439    0.7540   -0.6709 H   0  0  0  0  0  0  0  0  0  0  0  0
    0.3661    1.5928   -1.9606 H   0  0  0  0  0  0  0  0  0  0  0  0
    1.2438   -1.8719   -0.6709 H   0  0  0  0  0  0  0  0  0  0  0  0
   -0.5116   -1.8719   -0.6709 H   0  0  0  0  0  0  0  0  0  0  0  0
    0.3661   -2.7108   -1.9606 H   0  0  0  0  0  0  0  0  0  0  0  0
    0.8599    1.5230    1.6352 C   0  0  0  0  0  0  0  0  0  0  0  0
    0.2232    0.1383    1.6466 C   0  0  0  0  0  0  0  0  0  0  0  0
    0.4845   -0.5873    2.9625 C   0  0  0  0  0  0  0  0  0  0  0  0
   -1.2780    0.2134    1.3816 C   0  0  0  0  0  0  0  0  0  0  0  0
   -1.6101    0.8092    0.1441 O   0  0  0  0  0  0  0  0  0  0  0  0
    1.9433    1.4574    1.7525 H   0  0  0  0  0  0  0  0  0  0  0  0
    0.4697    2.1280    2.4588 H   0  0  0  0  0  0  0  0  0  0  0  0
    0.6443    2.0479    0.7046 H   0  0  0  0  0  0  0  0  0  0  0  0
    0.6688   -0.4546    0.8368 H   0  0  0  0  0  0  0  0  0  0  0  0
    0.0414   -0.0397    3.7990 H   0  0  0  0  0  0  0  0  0  0  0  0
    0.0606   -1.5938    2.9586 H   0  0  0  0  0  0  0  0  0  0  0  0
    1.5551   -0.6741    3.1547 H   0  0  0  0  0  0  0  0  0  0  0  0
   -1.7532    0.8341    2.1461 H   0  0  0  0  0  0  0  0  0  0  0  0
   -1.7151   -0.7911    1.4579 H   0  0  0  0  0  0  0  0  0  0  0  0
  1  2  2  3
  1  5  1  0
  1  6  1  0
  2  3  1  0
  2  4  1  0
  3  8  1  0
  3  9  1  0
  4 10  1  0
  4 11  1  0
  4 12  1  0
  7 17  1  0
 13 14  1  0
 13 18  1  0
 13 19  1  0
 13 20  1  0
 14 15  1  0
 14 16  1  0
 14 21  1  0
 15 22  1  0
 15 23  1  0
 15 24  1  0
 16 17  1  0
 16 25  1  0
 16 26  1  0
M  RAD  1   3   2
M  END
>  <reaction>  (13) 
rxn_15

>  <mol_properties>  (13) 
{"1": {"label": "*0", "atom_type": "Cd"}, "2": {"label": "*1", "atom_type": "Cs"}, "6": {"label": "*2", "atom_type": "H0"}, "15": {"label": "*4", "atom_type": "Cs"}, "16": {"label": "*3", "atom_type": "O2s"}}

>  <type>  (13) 
unop_9

>  <geom_source>  (13) 
Heuristics

$$$$

     RDKit          3D

 26 24  0  0  0  0  0  0  0  0999 V2000
    2.0715   -1.2278   -2.2877 C   0  0  0  0  0  0  0  0  0  0  0  0
    2.0715   -1.2278   -0.9607 C   0  0  0  0  0  0  0  0  0  0  0  0
    2.0715    0.0411   -0.1594 C   0  0  0  0  0  3  0  0  0  0  0  0
    2.0715   -2.4967   -0.1594 C   0  0  0  0  0  0  0  0  0  0  0  0
    2.0715   -0.3037   -2.8536 H   0  0  0  0  0  0  0  0  0  0  0  0
    2.0715   -2.1519   -2.8536 H   0  0  0  0  0  0  0  0  0  0  0  0
    1.0182    0.0940    0.6220 H   0  0  0  0  0  0  0  0  0  0  0  0
    2.9492    0.0851    0.4918 H   0  0  0  0  0  0  0  0  0  0  0  0
    2.0715    0.9240   -0.7979 H   0  0  0  0  0  0  0  0  0  0  0  0
    2.9492   -2.5408    0.4918 H   0  0  0  0  0  0  0  0  0  0  0  0
    1.1938   -2.5408    0.4918 H   0  0  0  0  0  0  0  0  0  0  0  0
    2.0715   -3.3796   -0.7979 H   0  0  0  0  0  0  0  0  0  0  0  0
   -2.8570    0.0541    0.9732 C   0  0  0  0  0  0  0  0  0  0  0  0
   -1.9328    0.9734    0.1834 C   0  0  0  0  0  0  0  0  0  0  0  0
   -2.6341    2.2697   -0.2089 C   0  0  0  0  0  0  0  0  0  0  0  0
   -0.6583    1.2852    0.9630 C   0  0  0  0  0  0  0  0  0  0  0  0
    0.0952    0.1403    1.3068 O   0  0  0  0  0  0  0  0  0  0  0  0
   -3.7319   -0.2239    0.3824 H   0  0  0  0  0  0  0  0  0  0  0  0
   -3.2098    0.5559    1.8788 H   0  0  0  0  0  0  0  0  0  0  0  0
   -2.3411   -0.8569    1.2762 H   0  0  0  0  0  0  0  0  0  0  0  0
   -1.6340    0.4559   -0.7379 H   0  0  0  0  0  0  0  0  0  0  0  0
   -2.9353    2.8294    0.6811 H   0  0  0  0  0  0  0  0  0  0  0  0
   -1.9855    2.9139   -0.8064 H   0  0  0  0  0  0  0  0  0  0  0  0
   -3.5342    2.0661   -0.7911 H   0  0  0  0  0  0  0  0  0  0  0  0
   -0.9180    1.7643    1.9109 H   0  0  0  0  0  0  0  0  0  0  0  0
   -0.0448    1.9967    0.3945 H   0  0  0  0  0  0  0  0  0  0  0  0
  1  2  2  3
  1  5  1  0
  1  6  1  0
  2  3  1  0
  2  4  1  0
  3  8  1  0
  3  9  1  0
  4 10  1  0
  4 11  1  0
  4 12  1  0
  7 17  1  0
 13 14  1  0
 13 18  1  0
 13 19  1  0
 13 20  1  0
 14 15  1  0
 14 16  1  0
 14 21  1  0
 15 22  1  0
 15 23  1  0
 15 24  1  0
 16 17  1  0
 16 25  1  0
 16 26  1  0
M  RAD  1   3   2
M  END
>  <reaction>  (14) 
rxn_15

>  <mol_properties>  (14) 
{"1": {"label": "*0", "atom_type": "Cd"}, "2": {"label": "*1", "atom_type": "Cs"}, "6": {"label": "*2", "atom_type": "H0"}, "15": {"label": "*4", "atom_type": "Cs"}, "16": {"label": "*3", "atom_type": "O2s"}}

>  <type>  (14) 
unop_10

>  <geom_source>  (14) 
Heuristics

$$$$

     RDKit          3D

 26 23  0  0  0  0  0  0  0  0999 V2000
    0.8502    0.2157   -3.0957 C   0  0  0  0  0  0  0  0  0  0  0  0
    0.8502    0.2157   -1.7687 C   0  0  0  0  0  0  0  0  0  0  0  0
    0.8502    1.4846   -0.9675 C   0  0  0  0  0  0  0  0  0  0  0  0
    0.8502   -1.0532   -0.9675 C   0  0  0  0  0  3  0  0  0  0  0  0
    0.8502    1.1398   -3.6616 H   0  0  0  0  0  0  0  0  0  0  0  0
    0.8502   -0.7084   -3.6616 H   0  0  0  0  0  0  0  0  0  0  0  0
   -0.2031    1.5375   -0.1861 H   0  0  0  0  0  0  0  0  0  0  0  0
    1.7279    1.5286   -0.3163 H   0  0  0  0  0  0  0  0  0  0  0  0
    0.8502    2.3675   -1.6060 H   0  0  0  0  0  0  0  0  0  0  0  0
    1.7279   -1.0973   -0.3163 H   0  0  0  0  0  0  0  0  0  0  0  0
   -0.0275   -1.0973   -0.3163 H   0  0  0  0  0  0  0  0  0  0  0  0
    0.8502   -1.9361   -1.6060 H   0  0  0  0  0  0  0  0  0  0  0  0
    0.4990   -0.0683    2.3598 C   0  0  0  0  0  0  0  0  0  0  0  0
   -0.3024   -0.6319    1.1923 C   0  0  0  0  0  0  0  0  0  0  0  0
   -0.7852   -2.0503    1.4775 C   0  0  0  0  0  0  0  0  0  0  0  0
   -1.4894    0.2636    0.8479 C   0  0  0  0  0  0  0  0  0  0  0  0
   -1.1261    1.5838    0.4987 O   0  0  0  0  0  0  0  0  0  0  0  0
    1.3868   -0.6733    2.5542 H   0  0  0  0  0  0  0  0  0  0  0  0
   -0.1078   -0.0615    3.2698 H   0  0  0  0  0  0  0  0  0  0  0  0
    0.8154    0.9558    2.1622 H   0  0  0  0  0  0  0  0  0  0  0  0
    0.3490   -0.6654    0.3090 H   0  0  0  0  0  0  0  0  0  0  0  0
   -1.4541   -2.0630    2.3426 H   0  0  0  0  0  0  0  0  0  0  0  0
   -1.3282   -2.4696    0.6277 H   0  0  0  0  0  0  0  0  0  0  0  0
    0.0541   -2.7113    1.6995 H   0  0  0  0  0  0  0  0  0  0  0  0
   -2.1418    0.3570    1.7203 H   0  0  0  0  0  0  0  0  0  0  0  0
   -2.0794   -0.2008    0.0466 H   0  0  0  0  0  0  0  0  0  0  0  0
  1  2  2  0
  1  5  1  0
  1  6  1  0
  2  3  2  0
  3  8  1  0
  3  9  1  0
  4 10  1  0
  4 11  1  0
  4 12  1  0
  7 17  1  0
 13 14  1  0
 13 18  1  0
 13 19  1  0
 13 20  1  0
 14 15  1  0
 14 16  1  0
 14 21  1  0
 15 22  1  0
 15 23  1  0
 15 24  1  0
 16 17  1  0
 16 25  1  0
 16 26  1  0
M  RAD  1   4   2
M  END
>  <reaction>  (15) 
rxn_15

>  <mol_properties>  (15) 
{"1": {"label": "*0", "atom_type": "Cd"}, "2": {"label": "*1", "atom_type": "Cs"}, "6": {"label": "*2", "atom_type": "H0"}, "15": {"label": "*4", "atom_type": "Cs"}, "16": {"label": "*3", "atom_type": "O2s"}}

>  <type>  (15) 
unop_11

>  <geom_source>  (15) 
Heuristics

$$$$

     RDKit          3D

 26 24  0  0  0  0  0  0  0  0999 V2000
    0.4672   -0.6944    0.5244 O   0  0  0  0  0  0  0  0  0  0  0  0
    2.7406   -0.1432   -0.0509 C   0  0  0  0  0  0  0  0  0  0  0  0
    1.2478    0.1232   -0.3005 C   0  0  0  0  0  0  0  0  0  0  0  0
    3.5982    0.6371   -1.0539 C   0  0  0  0  0  0  0  0  0  0  0  0
    3.1353    0.2252    1.3856 C   0  0  0  0  0  0  0  0  0  0  0  0
   -3.4782    1.0797   -0.3725 C   0  0  0  0  0  0  0  0  0  0  0  0
   -3.2881   -0.3658   -0.0164 C   0  0  0  0  0  0  0  0  0  0  0  0
   -1.9017   -0.9047    0.1654 C   0  0  0  0  0  0  0  0  0  0  0  0
   -4.3491   -1.1683    0.1379 C   0  0  0  0  0  3  0  0  0  0  0  0
    2.9361   -1.2283   -0.2011 H   0  0  0  0  0  0  0  0  0  0  0  0
    1.0104    1.1916   -0.0993 H   0  0  0  0  0  0  0  0  0  0  0  0
    1.0018   -0.0995   -1.3623 H   0  0  0  0  0  0  0  0  0  0  0  0
    3.4330    1.7307   -0.9442 H   0  0  0  0  0  0  0  0  0  0  0  0
    3.3415    0.3379   -2.0926 H   0  0  0  0  0  0  0  0  0  0  0  0
    4.6750    0.4185   -0.8896 H   0  0  0  0  0  0  0  0  0  0  0  0
    2.9468    1.3030    1.5803 H   0  0  0  0  0  0  0  0  0  0  0  0
    4.2133    0.0146    1.5522 H   0  0  0  0  0  0  0  0  0  0  0  0
    2.5532   -0.3784    2.1137 H   0  0  0  0  0  0  0  0  0  0  0  0
   -2.4983    1.5954   -0.4605 H   0  0  0  0  0  0  0  0  0  0  0  0
   -4.0751    1.5867    0.4150 H   0  0  0  0  0  0  0  0  0  0  0  0
   -4.0096    1.1619   -1.3442 H   0  0  0  0  0  0  0  0  0  0  0  0
   -1.7029   -1.7142   -0.5684 H   0  0  0  0  0  0  0  0  0  0  0  0
   -1.7687   -1.2874    1.1993 H   0  0  0  0  0  0  0  0  0  0  0  0
   -4.2208   -2.2155    0.3956 H   0  0  0  0  0  0  0  0  0  0  0  0
   -5.3576   -0.7867    0.0083 H   0  0  0  0  0  0  0  0  0  0  0  0
   -0.6502   -0.4190    0.2788 H   0  0  0  0  0  0  0  0  0  0  0  0
  1  3  1  0
  1 26  1  0
  2  4  1  0
  2  5  1  0
  2  3  1  0
  2 10  1  0
  3 11  1  0
  3 12  1  0
  4 13  1  0
  4 14  1  0
  4 15  1  0
  5 16  1  0
  5 17  1  0
  5 18  1  0
  6  7  1  0
  6 19  1  0
  6 20  1  0
  6 21  1  0
  7  8  2  3
  7  9  1  0
  8 22  1  0
  8 23  1  0
  9 24  1  0
  9 25  1  0
M  RAD  1   9   2
M  END
>  <reaction>  (16) 
rxn_15

>  <mol_properties>  (16) 
{"1": {"label": "*0", "atom_type": "Cd"}, "2": {"label": "*1", "atom_type": "Cs"}, "6": {"label": "*2", "atom_type": "H0"}, "15": {"label": "*4", "atom_type": "Cs"}, "16": {"label": "*3", "atom_type": "O2s"}}

>  <type>  (16) 
unop_12

>  <geom_source>  (16) 
AutoTST

$$$$

     RDKit          3D

 26 24  0  0  0  0  0  0  0  0999 V2000
    0.5405   -0.0904   -3.3211 C   0  0  0  0  0  0  0  0  0  0  0  0
    0.5405   -0.0904   -1.9941 C   0  0  0  0  0  0  0  0  0  0  0  0
    0.5405    1.1785   -1.1928 C   0  0  0  0  0  3  0  0  0  0  0  0
    0.5405   -1.3592   -1.1928 C   0  0  0  0  0  0  0  0  0  0  0  0
    0.5405    0.8337   -3.8870 H   0  0  0  0  0  0  0  0  0  0  0  0
    0.5405   -1.0145   -3.8870 H   0  0  0  0  0  0  0  0  0  0  0  0
   -0.5128    1.2314   -0.4114 H   0  0  0  0  0  0  0  0  0  0  0  0
    1.4182    1.2226   -0.5416 H   0  0  0  0  0  0  0  0  0  0  0  0
    0.5405    2.0614   -1.8313 H   0  0  0  0  0  0  0  0  0  0  0  0
    1.4182   -1.4033   -0.5416 H   0  0  0  0  0  0  0  0  0  0  0  0
   -0.3372   -1.4033   -0.5416 H   0  0  0  0  0  0  0  0  0  0  0  0
    0.5405   -2.2422   -1.8313 H   0  0  0  0  0  0  0  0  0  0  0  0
    0.8751    0.7502    2.0666 C   0  0  0  0  0  0  0  0  0  0  0  0
    0.0111   -0.3384    1.4411 C   0  0  0  0  0  0  0  0  0  0  0  0
   -0.0548   -1.5787    2.3263 C   0  0  0  0  0  0  0  0  0  0  0  0
   -1.3984    0.1688    1.1484 C   0  0  0  0  0  0  0  0  0  0  0  0
   -1.4358    1.2777    0.2733 O   0  0  0  0  0  0  0  0  0  0  0  0
    1.9012    0.4045    2.2063 H   0  0  0  0  0  0  0  0  0  0  0  0
    0.4804    1.0331    3.0467 H   0  0  0  0  0  0  0  0  0  0  0  0
    0.8937    1.6446    1.4438 H   0  0  0  0  0  0  0  0  0  0  0  0
    0.4599   -0.6285    0.4818 H   0  0  0  0  0  0  0  0  0  0  0  0
   -0.5129   -1.3402    3.2902 H   0  0  0  0  0  0  0  0  0  0  0  0
   -0.6431   -2.3736    1.8629 H   0  0  0  0  0  0  0  0  0  0  0  0
    0.9441   -1.9711    2.5236 H   0  0  0  0  0  0  0  0  0  0  0  0
   -1.8645    0.5087    2.0772 H   0  0  0  0  0  0  0  0  0  0  0  0
   -2.0111   -0.6544    0.7572 H   0  0  0  0  0  0  0  0  0  0  0  0
  1  2  2  3
  1  5  1  0
  1  6  1  0
  2  3  1  0
  2  4  1  0
  3  8  1  0
  3  9  1  0
  4 10  1  0
  4 11  1  0
  4 12  1  0
  7 17  1  0
 13 14  1  0
 13 18  1  0
 13 19  1  0
 13 20  1  0
 14 15  1  0
 14 16  1  0
 14 21  1  0
 15 22  1  0
 15 23  1  0
 15 24  1  0
 16 17  1  0
 16 25  1  0
 16 26  1  0
M  RAD  1   3   2
M  END
>  <reaction>  (17) 
rxn_15

>  <mol_properties>  (17) 
{"1": {"label": "*0", "atom_type": "Cd"}, "2": {"label": "*1", "atom_type": "Cs"}, "6": {"label": "*2", "atom_type": "H0"}, "15": {"label": "*4", "atom_type": "Cs"}, "16": {"label": "*3", "atom_type": "O2s"}}

>  <type>  (17) 
unop_13

>  <geom_source>  (17) 
gaussian_log

$$$$
