
     RDKit          3D

  6  5  0  0  0  0  0  0  0  0999 V2000
    0.6594    0.0438   -0.0050 C   0  0  0  0  0  0  0  0  0  0  0  0
   -0.6594   -0.0438    0.0050 C   0  0  0  0  0  0  0  0  0  0  0  0
    1.1706    0.8681   -0.4881 H   0  0  0  0  0  0  0  0  0  0  0  0
    1.2824   -0.7051    0.4696 H   0  0  0  0  0  0  0  0  0  0  0  0
   -1.2824    0.7051   -0.4696 H   0  0  0  0  0  0  0  0  0  0  0  0
   -1.1706   -0.8681    0.4881 H   0  0  0  0  0  0  0  0  0  0  0  0
  1  2  2  3
  1  3  1  0
  1  4  1  0
  2  5  1  0
  2  6  1  0
M  END
>  <reaction>  (1) 
rxn_218

>  <mol_properties>  (1) 
{"1": {"label": "donator", "atom_type": "Cd"}, "4": {"label": "d_hydrogen", "atom_type": "H0"}}

>  <type>  (1) 
r1h

$$$$

     RDKit          3D

  2  1  0  0  0  0  0  0  0  0999 V2000
    0.0000    0.0000    0.4855 O   0  0  0  0  0  1  0  0  0  0  0  0
    0.0000    0.0000   -0.4855 H   0  0  0  0  0  0  0  0  0  0  0  0
  1  2  1  0
M  RAD  1   1   2
M  END
>  <reaction>  (2) 
rxn_218

>  <mol_properties>  (2) 
{"0": {"label": "acceptor", "atom_type": "O2s"}}

>  <type>  (2) 
r2

$$$$

     RDKit          3D

  3  2  0  0  0  0  0  0  0  0999 V2000
   -0.0003    0.3867    0.0000 O   0  0  0  0  0  0  0  0  0  0  0  0
   -0.7617   -0.1940    0.0000 H   0  0  0  0  0  0  0  0  0  0  0  0
    0.7620   -0.1927    0.0000 H   0  0  0  0  0  0  0  0  0  0  0  0
  1  2  1  0
  1  3  1  0
M  END
>  <reaction>  (3) 
rxn_218

>  <mol_properties>  (3) 
{"0": {"label": "a_hydrogen", "atom_type": "H0"}, "1": {"label": "acceptor", "atom_type": "O2s"}}

>  <type>  (3) 
r2h

$$$$

     RDKit          3D

  8  6  0  0  0  0  0  0  0  0999 V2000
    0.0581   -0.7895   -1.3903 C   0  0  0  0  0  0  0  0  0  0  0  0
    0.0103   -0.7797   -0.0792 C   0  0  0  0  0  0  0  0  0  0  0  0
    0.3256    0.0953   -1.9562 H   0  0  0  0  0  0  0  0  0  0  0  0
   -0.1584   -1.6921   -1.9543 H   0  0  0  0  0  0  0  0  0  0  0  0
    0.3041    0.2529    0.5115 H   0  0  0  0  0  0  0  0  0  0  0  0
   -0.2533   -1.5938    0.5852 H   0  0  0  0  0  0  0  0  0  0  0  0
    0.3152    1.4238    1.0109 O   0  0  0  0  0  1  0  0  0  0  0  0
   -0.6014    1.6822    0.8448 H   0  0  0  0  0  0  0  0  0  0  0  0
  1  2  2  3
  1  3  1  0
  1  4  1  0
  2  5  1  0
  2  6  1  0
  7  8  1  0
M  RAD  1   7   2
M  END
>  <reaction>  (4) 
rxn_218

>  <mol_properties>  (4) 
{"0": {"label": "*0", "atom_type": "Cd"}, "1": {"label": "*1", "atom_type": "Cd"}, "4": {"label": "*2", "atom_type": "H0"}, "6": {"label": "*3", "atom_type": "O2s"}, "7": {"label": "*4", "atom_type": "H0"}}

>  <type>  (4) 
ts

$$$$

     RDKit          3D

  8  6  0  0  0  0  0  0  0  0999 V2000
    0.0179   -0.7909   -1.4098 C   0  0  0  0  0  0  0  0  0  0  0  0
    0.0179   -0.7909   -0.0881 C   0  0  0  0  0  3  0  0  0  0  0  0
    0.0179    0.1317   -1.9782 H   0  0  0  0  0  0  0  0  0  0  0  0
    0.0179   -1.7135   -1.9782 H   0  0  0  0  0  0  0  0  0  0  0  0
    0.0179    0.3162    0.5940 H   0  0  0  0  0  0  0  0  0  0  0  0
    0.0179   -1.7135    0.4803 H   0  0  0  0  0  0  0  0  0  0  0  0
    0.0179    1.2945    1.1967 O   0  0  0  0  0  0  0  0  0  0  0  0
   -0.7815    1.2693    1.7233 H   0  0  0  0  0  0  0  0  0  0  0  0
  1  2  2  3
  1  3  1  0
  1  4  1  0
  2  6  1  0
  5  7  1  0
  7  8  1  0
M  RAD  1   2   2
M  END
>  <reaction>  (5) 
rxn_218

>  <mol_properties>  (5) 
{"0": {"label": "*0", "atom_type": "Cd"}, "1": {"label": "*1", "atom_type": "Cd"}, "4": {"label": "*2", "atom_type": "H0"}, "6": {"label": "*3", "atom_type": "O2s"}, "7": {"label": "*4", "atom_type": "H0"}}

>  <type>  (5) 
unop_1

>  <geom_source>  (5) 
Heuristics

$$$$

     RDKit          3D

  8  6  0  0  0  0  0  0  0  0999 V2000
    0.0103   -0.8057   -1.3858 C   0  0  0  0  0  0  0  0  0  0  0  0
    0.0103   -0.8057   -0.0640 C   0  0  0  0  0  3  0  0  0  0  0  0
    0.0103    0.1169   -1.9541 H   0  0  0  0  0  0  0  0  0  0  0  0
    0.0103   -1.7283   -1.9541 H   0  0  0  0  0  0  0  0  0  0  0  0
    0.0103    0.3014    0.6180 H   0  0  0  0  0  0  0  0  0  0  0  0
    0.0103   -1.7283    0.5044 H   0  0  0  0  0  0  0  0  0  0  0  0
    0.0103    1.2797    1.2208 O   0  0  0  0  0  0  0  0  0  0  0  0
   -0.4512    1.9159    0.6738 H   0  0  0  0  0  0  0  0  0  0  0  0
  1  2  2  3
  1  3  1  0
  1  4  1  0
  2  6  1  0
  5  7  1  0
  7  8  1  0
M  RAD  1   2   2
M  END
>  <reaction>  (6) 
rxn_218

>  <mol_properties>  (6) 
{"0": {"label": "*0", "atom_type": "Cd"}, "1": {"label": "*1", "atom_type": "Cd"}, "4": {"label": "*2", "atom_type": "H0"}, "6": {"label": "*3", "atom_type": "O2s"}, "7": {"label": "*4", "atom_type": "H0"}}

>  <type>  (6) 
unop_2

>  <geom_source>  (6) 
Heuristics

$$$$

     RDKit          3D

  8  6  0  0  0  0  0  0  0  0999 V2000
    0.0103   -0.7870   -1.4162 C   0  0  0  0  0  0  0  0  0  0  0  0
    0.0103   -0.7870   -0.0945 C   0  0  0  0  0  3  0  0  0  0  0  0
    0.0103    0.1356   -1.9846 H   0  0  0  0  0  0  0  0  0  0  0  0
    0.0103   -1.7095   -1.9846 H   0  0  0  0  0  0  0  0  0  0  0  0
    0.0103    0.3201    0.5876 H   0  0  0  0  0  0  0  0  0  0  0  0
    0.0103   -1.7095    0.4739 H   0  0  0  0  0  0  0  0  0  0  0  0
    0.0103    1.2985    1.1903 O   0  0  0  0  0  0  0  0  0  0  0  0
   -0.4512    1.0961    2.0045 H   0  0  0  0  0  0  0  0  0  0  0  0
  1  2  2  3
  1  3  1  0
  1  4  1  0
  2  6  1  0
  5  7  1  0
  7  8  1  0
M  RAD  1   2   2
M  END
>  <reaction>  (7) 
rxn_218

>  <mol_properties>  (7) 
{"0": {"label": "*0", "atom_type": "Cd"}, "1": {"label": "*1", "atom_type": "Cd"}, "4": {"label": "*2", "atom_type": "H0"}, "6": {"label": "*3", "atom_type": "O2s"}, "7": {"label": "*4", "atom_type": "H0"}}

>  <type>  (7) 
unop_3

>  <geom_source>  (7) 
Heuristics

$$$$

     RDKit          3D

  8  6  0  0  0  0  0  0  0  0999 V2000
   -0.0179   -0.8018   -1.3922 C   0  0  0  0  0  0  0  0  0  0  0  0
   -0.0179   -0.8018   -0.0705 C   0  0  0  0  0  3  0  0  0  0  0  0
   -0.0179    0.1208   -1.9606 H   0  0  0  0  0  0  0  0  0  0  0  0
   -0.0179   -1.7243   -1.9606 H   0  0  0  0  0  0  0  0  0  0  0  0
   -0.0179    0.3053    0.6116 H   0  0  0  0  0  0  0  0  0  0  0  0
   -0.0179   -1.7243    0.4979 H   0  0  0  0  0  0  0  0  0  0  0  0
   -0.0179    1.2837    1.2143 O   0  0  0  0  0  0  0  0  0  0  0  0
    0.7815    1.7427    0.9550 H   0  0  0  0  0  0  0  0  0  0  0  0
  1  2  2  3
  1  3  1  0
  1  4  1  0
  2  6  1  0
  5  7  1  0
  7  8  1  0
M  RAD  1   2   2
M  END
>  <reaction>  (8) 
rxn_218

>  <mol_properties>  (8) 
{"0": {"label": "*0", "atom_type": "Cd"}, "1": {"label": "*1", "atom_type": "Cd"}, "4": {"label": "*2", "atom_type": "H0"}, "6": {"label": "*3", "atom_type": "O2s"}, "7": {"label": "*4", "atom_type": "H0"}}

>  <type>  (8) 
unop_4

>  <geom_source>  (8) 
Heuristics

$$$$

     RDKit          3D

  8  6  0  0  0  0  0  0  0  0999 V2000
   -0.0000   -0.7855   -1.4186 C   0  0  0  0  0  0  0  0  0  0  0  0
   -0.0000   -0.7855   -0.0969 C   0  0  0  0  0  3  0  0  0  0  0  0
    0.0000    0.1371   -1.9870 H   0  0  0  0  0  0  0  0  0  0  0  0
    0.0000   -1.7081   -1.9870 H   0  0  0  0  0  0  0  0  0  0  0  0
   -0.0000    0.3216    0.5852 H   0  0  0  0  0  0  0  0  0  0  0  0
   -0.0000   -1.7081    0.4715 H   0  0  0  0  0  0  0  0  0  0  0  0
   -0.0000    1.2999    1.1880 O   0  0  0  0  0  0  0  0  0  0  0  0
   -0.0000    1.0327    2.1075 H   0  0  0  0  0  0  0  0  0  0  0  0
  1  2  2  3
  1  3  1  0
  1  4  1  0
  2  6  1  0
  5  7  1  0
  7  8  1  0
M  RAD  1   2   2
M  END
>  <reaction>  (9) 
rxn_218

>  <mol_properties>  (9) 
{"0": {"label": "*0", "atom_type": "Cd"}, "1": {"label": "*1", "atom_type": "Cd"}, "4": {"label": "*2", "atom_type": "H0"}, "6": {"label": "*3", "atom_type": "O2s"}, "7": {"label": "*4", "atom_type": "H0"}}

>  <type>  (9) 
unop_5

>  <geom_source>  (9) 
Heuristics

$$$$

     RDKit          3D

  8  6  0  0  0  0  0  0  0  0999 V2000
   -0.0207   -0.7963   -1.4010 C   0  0  0  0  0  0  0  0  0  0  0  0
   -0.0207   -0.7963   -0.0793 C   0  0  0  0  0  3  0  0  0  0  0  0
   -0.0207    0.1262   -1.9694 H   0  0  0  0  0  0  0  0  0  0  0  0
   -0.0207   -1.7189   -1.9694 H   0  0  0  0  0  0  0  0  0  0  0  0
   -0.0207    0.3108    0.6028 H   0  0  0  0  0  0  0  0  0  0  0  0
   -0.0207   -1.7189    0.4891 H   0  0  0  0  0  0  0  0  0  0  0  0
   -0.0207    1.2891    1.2055 O   0  0  0  0  0  0  0  0  0  0  0  0
    0.9024    1.5060    1.3392 H   0  0  0  0  0  0  0  0  0  0  0  0
  1  2  2  3
  1  3  1  0
  1  4  1  0
  2  6  1  0
  5  7  1  0
  7  8  1  0
M  RAD  1   2   2
M  END
>  <reaction>  (10) 
rxn_218

>  <mol_properties>  (10) 
{"0": {"label": "*0", "atom_type": "Cd"}, "1": {"label": "*1", "atom_type": "Cd"}, "4": {"label": "*2", "atom_type": "H0"}, "6": {"label": "*3", "atom_type": "O2s"}, "7": {"label": "*4", "atom_type": "H0"}}

>  <type>  (10) 
unop_6

>  <geom_source>  (10) 
Heuristics

$$$$

     RDKit          3D

  8  6  0  0  0  0  0  0  0  0999 V2000
   -0.0179   -0.7909   -1.4098 C   0  0  0  0  0  0  0  0  0  0  0  0
   -0.0179   -0.7909   -0.0881 C   0  0  0  0  0  3  0  0  0  0  0  0
   -0.0179    0.1317   -1.9782 H   0  0  0  0  0  0  0  0  0  0  0  0
   -0.0179   -1.7135   -1.9782 H   0  0  0  0  0  0  0  0  0  0  0  0
   -0.0179    0.3162    0.5940 H   0  0  0  0  0  0  0  0  0  0  0  0
   -0.0179   -1.7135    0.4803 H   0  0  0  0  0  0  0  0  0  0  0  0
   -0.0179    1.2945    1.1967 O   0  0  0  0  0  0  0  0  0  0  0  0
    0.7815    1.2693    1.7233 H   0  0  0  0  0  0  0  0  0  0  0  0
  1  2  2  3
  1  3  1  0
  1  4  1  0
  2  6  1  0
  5  7  1  0
  7  8  1  0
M  RAD  1   2   2
M  END
>  <reaction>  (11) 
rxn_218

>  <mol_properties>  (11) 
{"0": {"label": "*0", "atom_type": "Cd"}, "1": {"label": "*1", "atom_type": "Cd"}, "4": {"label": "*2", "atom_type": "H0"}, "6": {"label": "*3", "atom_type": "O2s"}, "7": {"label": "*4", "atom_type": "H0"}}

>  <type>  (11) 
unop_7

>  <geom_source>  (11) 
Heuristics

$$$$

     RDKit          3D

  8  6  0  0  0  0  0  0  0  0999 V2000
    0.0207   -0.7963   -1.4010 C   0  0  0  0  0  0  0  0  0  0  0  0
    0.0207   -0.7963   -0.0793 C   0  0  0  0  0  3  0  0  0  0  0  0
    0.0207    0.1262   -1.9694 H   0  0  0  0  0  0  0  0  0  0  0  0
    0.0207   -1.7189   -1.9694 H   0  0  0  0  0  0  0  0  0  0  0  0
    0.0207    0.3108    0.6028 H   0  0  0  0  0  0  0  0  0  0  0  0
    0.0207   -1.7189    0.4891 H   0  0  0  0  0  0  0  0  0  0  0  0
    0.0207    1.2891    1.2055 O   0  0  0  0  0  0  0  0  0  0  0  0
   -0.9024    1.5060    1.3392 H   0  0  0  0  0  0  0  0  0  0  0  0
  1  2  2  3
  1  3  1  0
  1  4  1  0
  2  6  1  0
  5  7  1  0
  7  8  1  0
M  RAD  1   2   2
M  END
>  <reaction>  (12) 
rxn_218

>  <mol_properties>  (12) 
{"0": {"label": "*0", "atom_type": "Cd"}, "1": {"label": "*1", "atom_type": "Cd"}, "4": {"label": "*2", "atom_type": "H0"}, "6": {"label": "*3", "atom_type": "O2s"}, "7": {"label": "*4", "atom_type": "H0"}}

>  <type>  (12) 
unop_8

>  <geom_source>  (12) 
Heuristics

$$$$

     RDKit          3D

  8  6  0  0  0  0  0  0  0  0999 V2000
   -0.0103   -0.8057   -1.3858 C   0  0  0  0  0  0  0  0  0  0  0  0
   -0.0103   -0.8057   -0.0640 C   0  0  0  0  0  3  0  0  0  0  0  0
   -0.0103    0.1169   -1.9541 H   0  0  0  0  0  0  0  0  0  0  0  0
   -0.0103   -1.7283   -1.9541 H   0  0  0  0  0  0  0  0  0  0  0  0
   -0.0103    0.3014    0.6180 H   0  0  0  0  0  0  0  0  0  0  0  0
   -0.0103   -1.7283    0.5044 H   0  0  0  0  0  0  0  0  0  0  0  0
   -0.0103    1.2797    1.2208 O   0  0  0  0  0  0  0  0  0  0  0  0
    0.4512    1.9159    0.6738 H   0  0  0  0  0  0  0  0  0  0  0  0
  1  2  2  3
  1  3  1  0
  1  4  1  0
  2  6  1  0
  5  7  1  0
  7  8  1  0
M  RAD  1   2   2
M  END
>  <reaction>  (13) 
rxn_218

>  <mol_properties>  (13) 
{"0": {"label": "*0", "atom_type": "Cd"}, "1": {"label": "*1", "atom_type": "Cd"}, "4": {"label": "*2", "atom_type": "H0"}, "6": {"label": "*3", "atom_type": "O2s"}, "7": {"label": "*4", "atom_type": "H0"}}

>  <type>  (13) 
unop_9

>  <geom_source>  (13) 
Heuristics

$$$$

     RDKit          3D

  8  6  0  0  0  0  0  0  0  0999 V2000
    0.0179   -0.8018   -1.3922 C   0  0  0  0  0  0  0  0  0  0  0  0
    0.0179   -0.8018   -0.0705 C   0  0  0  0  0  3  0  0  0  0  0  0
    0.0179    0.1208   -1.9606 H   0  0  0  0  0  0  0  0  0  0  0  0
    0.0179   -1.7243   -1.9606 H   0  0  0  0  0  0  0  0  0  0  0  0
    0.0179    0.3053    0.6116 H   0  0  0  0  0  0  0  0  0  0  0  0
    0.0179   -1.7243    0.4979 H   0  0  0  0  0  0  0  0  0  0  0  0
    0.0179    1.2837    1.2143 O   0  0  0  0  0  0  0  0  0  0  0  0
   -0.7815    1.7427    0.9550 H   0  0  0  0  0  0  0  0  0  0  0  0
  1  2  2  3
  1  3  1  0
  1  4  1  0
  2  6  1  0
  5  7  1  0
  7  8  1  0
M  RAD  1   2   2
M  END
>  <reaction>  (14) 
rxn_218

>  <mol_properties>  (14) 
{"0": {"label": "*0", "atom_type": "Cd"}, "1": {"label": "*1", "atom_type": "Cd"}, "4": {"label": "*2", "atom_type": "H0"}, "6": {"label": "*3", "atom_type": "O2s"}, "7": {"label": "*4", "atom_type": "H0"}}

>  <type>  (14) 
unop_10

>  <geom_source>  (14) 
Heuristics

$$$$

     RDKit          3D

  8  6  0  0  0  0  0  0  0  0999 V2000
   -0.0103   -0.7870   -1.4162 C   0  0  0  0  0  0  0  0  0  0  0  0
   -0.0103   -0.7870   -0.0945 C   0  0  0  0  0  3  0  0  0  0  0  0
   -0.0103    0.1356   -1.9846 H   0  0  0  0  0  0  0  0  0  0  0  0
   -0.0103   -1.7095   -1.9846 H   0  0  0  0  0  0  0  0  0  0  0  0
   -0.0103    0.3201    0.5876 H   0  0  0  0  0  0  0  0  0  0  0  0
   -0.0103   -1.7095    0.4739 H   0  0  0  0  0  0  0  0  0  0  0  0
   -0.0103    1.2985    1.1903 O   0  0  0  0  0  0  0  0  0  0  0  0
    0.4512    1.0961    2.0045 H   0  0  0  0  0  0  0  0  0  0  0  0
  1  2  2  3
  1  3  1  0
  1  4  1  0
  2  6  1  0
  5  7  1  0
  7  8  1  0
M  RAD  1   2   2
M  END
>  <reaction>  (15) 
rxn_218

>  <mol_properties>  (15) 
{"0": {"label": "*0", "atom_type": "Cd"}, "1": {"label": "*1", "atom_type": "Cd"}, "4": {"label": "*2", "atom_type": "H0"}, "6": {"label": "*3", "atom_type": "O2s"}, "7": {"label": "*4", "atom_type": "H0"}}

>  <type>  (15) 
unop_11

>  <geom_source>  (15) 
Heuristics

$$$$

     RDKit          3D

  8  6  0  0  0  0  0  0  0  0999 V2000
   -0.0000   -0.8072   -1.3834 C   0  0  0  0  0  0  0  0  0  0  0  0
   -0.0000   -0.8072   -0.0617 C   0  0  0  0  0  3  0  0  0  0  0  0
    0.0000    0.1154   -1.9518 H   0  0  0  0  0  0  0  0  0  0  0  0
    0.0000   -1.7298   -1.9518 H   0  0  0  0  0  0  0  0  0  0  0  0
   -0.0000    0.2999    0.6204 H   0  0  0  0  0  0  0  0  0  0  0  0
   -0.0000   -1.7298    0.5067 H   0  0  0  0  0  0  0  0  0  0  0  0
   -0.0000    1.2783    1.2231 O   0  0  0  0  0  0  0  0  0  0  0  0
   -0.0000    1.9793    0.5709 H   0  0  0  0  0  0  0  0  0  0  0  0
  1  2  2  3
  1  3  1  0
  1  4  1  0
  2  6  1  0
  5  7  1  0
  7  8  1  0
M  RAD  1   2   2
M  END
>  <reaction>  (16) 
rxn_218

>  <mol_properties>  (16) 
{"0": {"label": "*0", "atom_type": "Cd"}, "1": {"label": "*1", "atom_type": "Cd"}, "4": {"label": "*2", "atom_type": "H0"}, "6": {"label": "*3", "atom_type": "O2s"}, "7": {"label": "*4", "atom_type": "H0"}}

>  <type>  (16) 
unop_12

>  <geom_source>  (16) 
Heuristics

$$$$

     RDKit          3D

  8  6  0  0  0  0  0  0  0  0999 V2000
    1.9508   -0.0818   -0.3006 O   0  0  0  0  0  0  0  0  0  0  0  0
   -1.3939   -0.2018    0.0626 C   0  0  0  0  0  0  0  0  0  0  0  0
   -0.3132    0.5626    0.1896 C   0  0  0  0  0  3  0  0  0  0  0  0
   -1.7192   -0.8194    0.8924 H   0  0  0  0  0  0  0  0  0  0  0  0
   -1.9529   -0.2113   -0.8676 H   0  0  0  0  0  0  0  0  0  0  0  0
    0.0211    1.1845   -0.6344 H   0  0  0  0  0  0  0  0  0  0  0  0
    2.5796   -0.2763    0.4393 H   0  0  0  0  0  0  0  0  0  0  0  0
    0.8276   -0.1565    0.2186 H   0  0  0  0  0  0  0  0  0  0  0  0
  1  7  1  0
  1  8  1  0
  2  3  2  3
  2  4  1  0
  2  5  1  0
  3  6  1  0
M  RAD  1   3   2
M  END
>  <reaction>  (17) 
rxn_218

>  <mol_properties>  (17) 
{"0": {"label": "*0", "atom_type": "Cd"}, "1": {"label": "*1", "atom_type": "Cd"}, "4": {"label": "*2", "atom_type": "H0"}, "6": {"label": "*3", "atom_type": "O2s"}, "7": {"label": "*4", "atom_type": "H0"}}

>  <type>  (17) 
unop_13

>  <geom_source>  (17) 
AutoTST

$$$$
