
     RDKit          3D

  2  1  0  0  0  0  0  0  0  0999 V2000
    0.0000    0.0000    0.3721 H   0  0  0  0  0  0  0  0  0  0  0  0
    0.0000    0.0000   -0.3721 H   0  0  0  0  0  0  0  0  0  0  0  0
  1  2  1  0
M  END
>  <reaction>  (1) 
rxn_795

>  <mol_properties>  (1) 
{"0": {"label": "donator", "atom_type": "H0"}, "1": {"label": "d_hydrogen", "atom_type": "H0"}}

>  <type>  (1) 
r1h

$$$$

     RDKit          3D

  9  8  0  0  0  0  0  0  0  0999 V2000
    2.3038   -0.0269    0.1590 C   0  0  0  0  0  0  0  0  0  0  0  0
    1.1426    0.1377   -0.1648 C   0  0  0  0  0  0  0  0  0  0  0  0
   -0.1694    0.3175   -0.5203 C   0  0  0  0  0  3  0  0  0  0  0  0
   -1.3163   -0.1910    0.2856 C   0  0  0  0  0  0  0  0  0  0  0  0
    3.3199   -0.1683    0.4378 H   0  0  0  0  0  0  0  0  0  0  0  0
   -0.3786    0.8584   -1.4360 H   0  0  0  0  0  0  0  0  0  0  0  0
   -1.9694    0.6309    0.5951 H   0  0  0  0  0  0  0  0  0  0  0  0
   -1.9325   -0.8770   -0.3039 H   0  0  0  0  0  0  0  0  0  0  0  0
   -0.9753   -0.7144    1.1774 H   0  0  0  0  0  0  0  0  0  0  0  0
  1  2  3  0
  1  5  1  0
  2  3  1  0
  3  4  1  0
  3  6  1  0
  4  7  1  0
  4  8  1  0
  4  9  1  0
M  RAD  1   3   2
M  END
>  <reaction>  (2) 
rxn_795

>  <mol_properties>  (2) 
{"2": {"label": "acceptor", "atom_type": "Cs"}}

>  <type>  (2) 
r2

$$$$

     RDKit          3D

 10  9  0  0  0  0  0  0  0  0999 V2000
    2.2738    0.0217   -0.0992 C   0  0  0  0  0  0  0  0  0  0  0  0
    1.1083    0.2960   -0.0695 C   0  0  0  0  0  0  0  0  0  0  0  0
   -0.3173    0.6046   -0.0227 C   0  0  0  0  0  0  0  0  0  0  0  0
   -1.1561   -0.5495    0.5292 C   0  0  0  0  0  0  0  0  0  0  0  0
    3.3097   -0.2166   -0.1277 H   0  0  0  0  0  0  0  0  0  0  0  0
   -0.6542    0.8617   -1.0302 H   0  0  0  0  0  0  0  0  0  0  0  0
   -0.4633    1.4978    0.5900 H   0  0  0  0  0  0  0  0  0  0  0  0
   -0.8485   -0.7997    1.5447 H   0  0  0  0  0  0  0  0  0  0  0  0
   -2.2115   -0.2752    0.5459 H   0  0  0  0  0  0  0  0  0  0  0  0
   -1.0409   -1.4407   -0.0879 H   0  0  0  0  0  0  0  0  0  0  0  0
  1  2  3  0
  1  5  1  0
  2  3  1  0
  3  4  1  0
  3  6  1  0
  3  7  1  0
  4  8  1  0
  4  9  1  0
  4 10  1  0
M  END
>  <reaction>  (3) 
rxn_795

>  <mol_properties>  (3) 
{"0": {"label": "a_hydrogen", "atom_type": "H0"}, "3": {"label": "acceptor", "atom_type": "Cs"}}

>  <type>  (3) 
r2h

$$$$

     RDKit          3D

 11  9  0  0  0  0  0  0  0  0999 V2000
    0.8379   -1.1081   -2.3686 H   0  0  0  0  0 15  0  0  0  0  0  0
    0.6366   -0.8461   -1.3513 H   0  0  0  0  0  0  0  0  0  0  0  0
    0.1035    1.9666    0.0973 C   0  0  0  0  0  0  0  0  0  0  0  0
    0.2240    0.7777   -0.0095 C   0  0  0  0  0  0  0  0  0  0  0  0
    0.3523   -0.6452   -0.1724 C   0  0  0  0  0  0  0  0  0  0  0  0
   -0.9005   -1.4555    0.1055 C   0  0  0  0  0  0  0  0  0  0  0  0
    0.0006    3.0200    0.2002 H   0  0  0  0  0  0  0  0  0  0  0  0
    1.2302   -1.0310    0.3470 H   0  0  0  0  0  0  0  0  0  0  0  0
   -1.7342   -1.0966   -0.4978 H   0  0  0  0  0  0  0  0  0  0  0  0
   -0.7298   -2.5070   -0.1267 H   0  0  0  0  0  0  0  0  0  0  0  0
   -1.1837   -1.3756    1.1565 H   0  0  0  0  0  0  0  0  0  0  0  0
  2  5  1  0
  3  4  3  0
  3  7  1  0
  4  5  1  0
  5  6  1  0
  5  8  1  0
  6  9  1  0
  6 10  1  0
  6 11  1  0
M  END
>  <reaction>  (4) 
rxn_795

>  <mol_properties>  (4) 
{"0": {"label": "*1", "atom_type": "H0"}, "1": {"label": "*2", "atom_type": "H0"}, "3": {"label": "*4", "atom_type": "Ct"}, "4": {"label": "*3", "atom_type": "Cs"}}

>  <type>  (4) 
ts

$$$$

     RDKit          3D

 11  9  0  0  0  0  0  0  0  0999 V2000
    0.3298   -0.6742   -2.6084 H   0  0  0  0  0 15  0  0  0  0  0  0
    0.3298   -0.6742   -1.7154 H   0  0  0  0  0  0  0  0  0  0  0  0
    0.3102    1.8379    0.4613 C   0  0  0  0  0  0  0  0  0  0  0  0
    0.3298    0.7079    0.0649 C   0  0  0  0  0  0  0  0  0  0  0  0
    0.3298   -0.6742   -0.4039 C   0  0  0  0  0  0  0  0  0  0  0  0
   -0.8631   -1.4773    0.1178 C   0  0  0  0  0  0  0  0  0  0  0  0
    0.2928    2.8412    0.8133 H   0  0  0  0  0  0  0  0  0  0  0  0
    1.2636   -1.1500   -0.0941 H   0  0  0  0  0  0  0  0  0  0  0  0
   -0.8222   -2.5008   -0.2566 H   0  0  0  0  0  0  0  0  0  0  0  0
   -0.8614   -1.5082    1.2075 H   0  0  0  0  0  0  0  0  0  0  0  0
   -1.8024   -1.0287   -0.2060 H   0  0  0  0  0  0  0  0  0  0  0  0
  2  5  1  0
  3  4  3  0
  3  7  1  0
  4  5  1  0
  5  6  1  0
  5  8  1  0
  6  9  1  0
  6 10  1  0
  6 11  1  0
M  END
>  <reaction>  (5) 
rxn_795

>  <mol_properties>  (5) 
{"0": {"label": "*1", "atom_type": "H0"}, "1": {"label": "*2", "atom_type": "H0"}, "3": {"label": "*4", "atom_type": "Ct"}, "4": {"label": "*3", "atom_type": "Cs"}}

>  <type>  (5) 
unop_1

>  <geom_source>  (5) 
Heuristics

$$$$

     RDKit          3D

 11  9  0  0  0  0  0  0  0  0999 V2000
   -0.2391   -0.2975    0.3719 C   0  0  0  0  0  0  0  0  0  0  0  0
   -0.5165    1.1892    0.1848 C   0  0  0  0  0  0  0  0  0  0  0  0
    1.0023   -0.6796   -0.3102 C   0  0  0  0  0  0  0  0  0  0  0  0
    2.0224   -0.9944   -0.8704 C   0  0  0  0  0  0  0  0  0  0  0  0
   -0.1432   -0.5250    1.4546 H   0  0  0  0  0  0  0  0  0  0  0  0
   -1.0333   -0.8573   -0.0224 H   0  0  0  0  0  0  0  0  0  0  0  0
    0.3125    1.7938    0.6118 H   0  0  0  0  0  0  0  0  0  0  0  0
   -1.4579    1.4604    0.7076 H   0  0  0  0  0  0  0  0  0  0  0  0
   -0.6279    1.4300   -0.8946 H   0  0  0  0  0  0  0  0  0  0  0  0
    2.9179   -1.2705   -1.3622 H   0  0  0  0  0  0  0  0  0  0  0  0
   -2.2373   -1.2490    0.1291 H   0  0  0  0  0 15  0  0  0  0  0  0
  1  2  1  0
  1  3  1  0
  1  5  1  0
  1  6  1  0
  2  7  1  0
  2  8  1  0
  2  9  1  0
  3  4  3  0
  4 10  1  0
M  END
>  <reaction>  (6) 
rxn_795

>  <mol_properties>  (6) 
{"0": {"label": "*1", "atom_type": "H0"}, "1": {"label": "*2", "atom_type": "H0"}, "3": {"label": "*4", "atom_type": "Ct"}, "4": {"label": "*3", "atom_type": "Cs"}}

>  <type>  (6) 
unop_2

>  <geom_source>  (6) 
AutoTST

$$$$
