
     RDKit          3D

 18 18  0  0  0  0  0  0  0  0999 V2000
   -2.4852    0.3210   -0.3966 C   0  0  0  0  0  0  0  0  0  0  0  0
   -1.5917   -0.2708    0.6941 C   0  0  0  0  0  0  0  0  0  0  0  0
   -0.1292   -0.1692    0.3493 C   0  0  0  0  0  0  0  0  0  0  0  0
    0.6099    0.9558    0.7015 C   0  0  0  0  0  0  0  0  0  0  0  0
    1.9447    1.0728    0.3458 C   0  0  0  0  0  0  0  0  0  0  0  0
    2.5646    0.0613   -0.3720 C   0  0  0  0  0  0  0  0  0  0  0  0
    1.8399   -1.0657   -0.7287 C   0  0  0  0  0  0  0  0  0  0  0  0
    0.5055   -1.1769   -0.3700 C   0  0  0  0  0  0  0  0  0  0  0  0
   -2.3325   -0.1971   -1.3452 H   0  0  0  0  0  0  0  0  0  0  0  0
   -2.2554    1.3763   -0.5546 H   0  0  0  0  0  0  0  0  0  0  0  0
   -3.5397    0.2376   -0.1280 H   0  0  0  0  0  0  0  0  0  0  0  0
   -1.7801    0.2462    1.6380 H   0  0  0  0  0  0  0  0  0  0  0  0
   -1.8568   -1.3190    0.8516 H   0  0  0  0  0  0  0  0  0  0  0  0
    0.1327    1.7497    1.2656 H   0  0  0  0  0  0  0  0  0  0  0  0
    2.5033    1.9550    0.6330 H   0  0  0  0  0  0  0  0  0  0  0  0
    3.6077    0.1491   -0.6484 H   0  0  0  0  0  0  0  0  0  0  0  0
    2.3163   -1.8632   -1.2854 H   0  0  0  0  0  0  0  0  0  0  0  0
   -0.0540   -2.0629   -0.6500 H   0  0  0  0  0  0  0  0  0  0  0  0
  1  2  1  0
  1  9  1  0
  1 10  1  0
  1 11  1  0
  2  3  1  0
  2 12  1  0
  2 13  1  0
  3  4  2  0
  3  8  1  0
  4  5  1  0
  4 14  1  0
  5  6  2  0
  5 15  1  0
  6  7  1  0
  6 16  1  0
  7  8  2  0
  7 17  1  0
  8 18  1  0
M  END
>  <reaction>  (1) 
rxn_1480

>  <mol_properties>  (1) 
{"1": {"label": "donator", "atom_type": "Cs"}, "11": {"label": "d_hydrogen", "atom_type": "H0"}}

>  <type>  (1) 
r1h

$$$$

     RDKit          3D

 10  9  0  0  0  0  0  0  0  0999 V2000
    1.2930    0.1441    0.3288 C   0  0  0  0  0  0  0  0  0  0  0  0
   -0.0374   -0.1647    0.9100 C   0  0  0  0  0  3  0  0  0  0  0  0
   -1.2664    0.4569    0.3567 C   0  0  0  0  0  0  0  0  0  0  0  0
    1.4384    1.2242    0.2174 H   0  0  0  0  0  0  0  0  0  0  0  0
    2.1077   -0.2477    0.9385 H   0  0  0  0  0  0  0  0  0  0  0  0
    1.4057   -0.2836   -0.6789 H   0  0  0  0  0  0  0  0  0  0  0  0
   -0.1309   -0.9912    1.6030 H   0  0  0  0  0  0  0  0  0  0  0  0
   -1.5005    0.0716   -0.6471 H   0  0  0  0  0  0  0  0  0  0  0  0
   -2.1382    0.2713    0.9849 H   0  0  0  0  0  0  0  0  0  0  0  0
   -1.1497    1.5406    0.2456 H   0  0  0  0  0  0  0  0  0  0  0  0
  1  2  1  0
  1  4  1  0
  1  5  1  0
  1  6  1  0
  2  3  1  0
  2  7  1  0
  3  8  1  0
  3  9  1  0
  3 10  1  0
M  RAD  1   2   2
M  END
>  <reaction>  (2) 
rxn_1480

>  <mol_properties>  (2) 
{"1": {"label": "acceptor", "atom_type": "Cs"}}

>  <type>  (2) 
r2

$$$$

     RDKit          3D

 11 10  0  0  0  0  0  0  0  0999 V2000
   -1.2710    0.1907   -0.2084 C   0  0  0  0  0  0  0  0  0  0  0  0
    0.0202   -0.6130   -0.2928 C   0  0  0  0  0  0  0  0  0  0  0  0
    0.1086   -1.6953    0.7756 C   0  0  0  0  0  0  0  0  0  0  0  0
   -1.3607    0.6851    0.7620 H   0  0  0  0  0  0  0  0  0  0  0  0
   -2.1429   -0.4567   -0.3299 H   0  0  0  0  0  0  0  0  0  0  0  0
   -1.3158    0.9602   -0.9809 H   0  0  0  0  0  0  0  0  0  0  0  0
    0.8757    0.0616   -0.1992 H   0  0  0  0  0  0  0  0  0  0  0  0
    0.0997   -1.0712   -1.2825 H   0  0  0  0  0  0  0  0  0  0  0  0
   -0.7198   -2.4022    0.6850 H   0  0  0  0  0  0  0  0  0  0  0  0
    1.0395   -2.2596    0.6989 H   0  0  0  0  0  0  0  0  0  0  0  0
    0.0624   -1.2603    1.7770 H   0  0  0  0  0  0  0  0  0  0  0  0
  1  2  1  0
  1  4  1  0
  1  5  1  0
  1  6  1  0
  2  3  1  0
  2  7  1  0
  2  8  1  0
  3  9  1  0
  3 10  1  0
  3 11  1  0
M  END
>  <reaction>  (3) 
rxn_1480

>  <mol_properties>  (3) 
{"0": {"label": "a_hydrogen", "atom_type": "H0"}, "2": {"label": "acceptor", "atom_type": "Cs"}}

>  <type>  (3) 
r2h

$$$$

     RDKit          3D

 28 27  0  0  0  0  0  0  0  0999 V2000
    0.6884   -1.2747   -2.4231 C   0  0  0  0  0  0  0  0  0  0  0  0
    0.8557   -1.0013   -0.9477 C   0  0  0  0  0  0  0  0  0  0  0  0
    0.5951    0.3576   -0.4366 C   0  0  0  0  0  0  0  0  0  0  0  0
   -0.1895    1.2832   -1.1288 C   0  0  0  0  0  0  0  0  0  0  0  0
   -0.4735    2.5267   -0.5864 C   0  0  0  0  0  0  0  0  0  0  0  0
    0.0166    2.8780    0.6618 C   0  0  0  0  0  0  0  0  0  0  0  0
    0.8015    1.9715    1.3622 C   0  0  0  0  0  0  0  0  0  0  0  0
    1.0854    0.7318    0.8193 C   0  0  0  0  0  0  0  0  0  0  0  0
    1.3359   -0.6355   -3.0305 H   0  0  0  0  0  0  0  0  0  0  0  0
   -0.3402   -1.1077   -2.7504 H   0  0  0  0  0  0  0  0  0  0  0  0
    0.9353   -2.3131   -2.6471 H   0  0  0  0  0  0  0  0  0  0  0  0
   -0.0384   -1.7498   -0.3766 H   0  0  0  0  0  0  0  0  0  0  0  0
    1.7779   -1.4175   -0.5417 H   0  0  0  0  0  0  0  0  0  0  0  0
   -0.5834    1.0318   -2.1053 H   0  0  0  0  0  0  0  0  0  0  0  0
   -1.0823    3.2269   -1.1452 H   0  0  0  0  0  0  0  0  0  0  0  0
   -0.2058    3.8497    1.0836 H   0  0  0  0  0  0  0  0  0  0  0  0
    1.1963    2.2350    2.3358 H   0  0  0  0  0  0  0  0  0  0  0  0
    1.6993    0.0304    1.3736 H   0  0  0  0  0  0  0  0  0  0  0  0
   -2.3071   -1.6662   -0.1516 C   0  0  0  0  0  0  0  0  0  0  0  0
   -1.0845   -2.4444    0.2447 C   0  0  0  0  0  3  0  0  0  0  0  0
   -0.7162   -2.4142    1.7011 C   0  0  0  0  0  0  0  0  0  0  0  0
   -2.2188   -0.6219    0.1593 H   0  0  0  0  0  0  0  0  0  0  0  0
   -2.4644   -1.6850   -1.2315 H   0  0  0  0  0  0  0  0  0  0  0  0
   -3.2094   -2.0732    0.3205 H   0  0  0  0  0  0  0  0  0  0  0  0
   -1.0139   -3.4307   -0.2137 H   0  0  0  0  0  0  0  0  0  0  0  0
   -1.4776   -2.9091    2.3157 H   0  0  0  0  0  0  0  0  0  0  0  0
    0.2346   -2.9174    1.8869 H   0  0  0  0  0  0  0  0  0  0  0  0
   -0.6311   -1.3837    2.0561 H   0  0  0  0  0  0  0  0  0  0  0  0
  1  2  1  0
  1  9  1  0
  1 10  1  0
  1 11  1  0
  2  3  1  0
  2 12  1  0
  2 13  1  0
  3  4  2  0
  3  8  1  0
  4  5  1  0
  4 14  1  0
  5  6  2  0
  5 15  1  0
  6  7  1  0
  6 16  1  0
  7  8  2  0
  7 17  1  0
  8 18  1  0
 19 20  1  0
 19 22  1  0
 19 23  1  0
 19 24  1  0
 20 21  1  0
 20 25  1  0
 21 26  1  0
 21 27  1  0
 21 28  1  0
M  RAD  1  20   2
M  END
>  <reaction>  (4) 
rxn_1480

>  <mol_properties>  (4) 
{"1": {"label": "*1", "atom_type": "Cs"}, "2": {"label": "*0", "atom_type": "Cd"}, "11": {"label": "*2", "atom_type": "H0"}, "18": {"label": "*4", "atom_type": "Cs"}, "19": {"label": "*3", "atom_type": "Cs"}}

>  <type>  (4) 
ts

$$$$

     RDKit          3D

 28 27  0  0  0  0  0  0  0  0999 V2000
    0.7126   -0.8982   -2.2175 C   0  0  0  0  0  0  0  0  0  0  0  0
    0.7126   -0.8982   -0.6884 C   0  0  0  0  0  0  0  0  0  0  0  0
    0.7126    0.4961   -0.1190 C   0  0  0  0  0  0  0  0  0  0  0  0
   -0.4819    1.1650    0.1288 C   0  0  0  0  0  0  0  0  0  0  0  0
   -0.4852    2.4652    0.6097 C   0  0  0  0  0  0  0  0  0  0  0  0
    0.7126    3.1206    0.8515 C   0  0  0  0  0  0  0  0  0  0  0  0
    1.9104    2.4652    0.6097 C   0  0  0  0  0  0  0  0  0  0  0  0
    1.9071    1.1650    0.1288 C   0  0  0  0  0  0  0  0  0  0  0  0
    1.5939   -0.3832   -2.6043 H   0  0  0  0  0  0  0  0  0  0  0  0
   -0.1687   -0.3832   -2.6043 H   0  0  0  0  0  0  0  0  0  0  0  0
    0.7126   -1.9166   -2.6098 H   0  0  0  0  0  0  0  0  0  0  0  0
   -0.3393   -1.5482   -0.2526 H   0  0  0  0  0  0  0  0  0  0  0  0
    1.5892   -1.4399   -0.3252 H   0  0  0  0  0  0  0  0  0  0  0  0
   -1.4228    0.6578   -0.0550 H   0  0  0  0  0  0  0  0  0  0  0  0
   -1.4260    2.9669    0.7996 H   0  0  0  0  0  0  0  0  0  0  0  0
    0.7126    4.1349    1.2299 H   0  0  0  0  0  0  0  0  0  0  0  0
    2.8512    2.9669    0.7996 H   0  0  0  0  0  0  0  0  0  0  0  0
    2.8480    0.6578   -0.0550 H   0  0  0  0  0  0  0  0  0  0  0  0
   -0.9421   -3.3830    1.0294 C   0  0  0  0  0  0  0  0  0  0  0  0
   -1.3922   -2.1988    0.1835 C   0  0  0  0  0  3  0  0  0  0  0  0
   -2.8266   -2.3412   -0.3091 C   0  0  0  0  0  0  0  0  0  0  0  0
   -0.9982   -4.3138    0.4598 H   0  0  0  0  0  0  0  0  0  0  0  0
    0.0869   -3.2627    1.3727 H   0  0  0  0  0  0  0  0  0  0  0  0
   -1.5777   -3.4974    1.9109 H   0  0  0  0  0  0  0  0  0  0  0  0
   -1.2971   -1.2782    0.7661 H   0  0  0  0  0  0  0  0  0  0  0  0
   -3.5216   -2.4228    0.5302 H   0  0  0  0  0  0  0  0  0  0  0  0
   -3.1305   -1.4842   -0.9126 H   0  0  0  0  0  0  0  0  0  0  0  0
   -2.9422   -3.2392   -0.9210 H   0  0  0  0  0  0  0  0  0  0  0  0
  1  2  1  0
  1  9  1  0
  1 10  1  0
  1 11  1  0
  2  3  1  0
  2 12  1  0
  2 13  1  0
  3  4  2  0
  3  8  1  0
  4  5  1  0
  4 14  1  0
  5  6  2  0
  5 15  1  0
  6  7  1  0
  6 16  1  0
  7  8  2  0
  7 17  1  0
  8 18  1  0
 19 20  1  0
 19 22  1  0
 19 23  1  0
 19 24  1  0
 20 21  1  0
 20 25  1  0
 21 26  1  0
 21 27  1  0
 21 28  1  0
M  RAD  1  20   2
M  END
>  <reaction>  (5) 
rxn_1480

>  <mol_properties>  (5) 
{"1": {"label": "*1", "atom_type": "Cs"}, "2": {"label": "*0", "atom_type": "Cd"}, "11": {"label": "*2", "atom_type": "H0"}, "18": {"label": "*4", "atom_type": "Cs"}, "19": {"label": "*3", "atom_type": "Cs"}}

>  <type>  (5) 
unop_1

>  <geom_source>  (5) 
Heuristics

$$$$

     RDKit          3D

 28 27  0  0  0  0  0  0  0  0999 V2000
    0.7740   -0.9898   -2.1379 C   0  0  0  0  0  0  0  0  0  0  0  0
    0.7740   -0.9898   -0.6088 C   0  0  0  0  0  0  0  0  0  0  0  0
    0.7740    0.4045   -0.0394 C   0  0  0  0  0  0  0  0  0  0  0  0
   -0.4205    1.0734    0.2084 C   0  0  0  0  0  0  0  0  0  0  0  0
   -0.4238    2.3736    0.6893 C   0  0  0  0  0  0  0  0  0  0  0  0
    0.7740    3.0290    0.9311 C   0  0  0  0  0  0  0  0  0  0  0  0
    1.9718    2.3736    0.6893 C   0  0  0  0  0  0  0  0  0  0  0  0
    1.9685    1.0734    0.2084 C   0  0  0  0  0  0  0  0  0  0  0  0
    1.6553   -0.4748   -2.5247 H   0  0  0  0  0  0  0  0  0  0  0  0
   -0.1073   -0.4748   -2.5247 H   0  0  0  0  0  0  0  0  0  0  0  0
    0.7740   -2.0082   -2.5302 H   0  0  0  0  0  0  0  0  0  0  0  0
   -0.2780   -1.6398   -0.1730 H   0  0  0  0  0  0  0  0  0  0  0  0
    1.6506   -1.5315   -0.2457 H   0  0  0  0  0  0  0  0  0  0  0  0
   -1.3614    0.5662    0.0246 H   0  0  0  0  0  0  0  0  0  0  0  0
   -1.3646    2.8753    0.8792 H   0  0  0  0  0  0  0  0  0  0  0  0
    0.7740    4.0433    1.3094 H   0  0  0  0  0  0  0  0  0  0  0  0
    2.9126    2.8753    0.8792 H   0  0  0  0  0  0  0  0  0  0  0  0
    2.9094    0.5662    0.0246 H   0  0  0  0  0  0  0  0  0  0  0  0
   -1.7119   -3.3701   -0.7417 C   0  0  0  0  0  0  0  0  0  0  0  0
   -1.3308   -2.2904    0.2631 C   0  0  0  0  0  3  0  0  0  0  0  0
   -2.5445   -1.5868    0.8568 C   0  0  0  0  0  0  0  0  0  0  0  0
   -2.2801   -2.9467   -1.5734 H   0  0  0  0  0  0  0  0  0  0  0  0
   -0.8301   -3.8622   -1.1555 H   0  0  0  0  0  0  0  0  0  0  0  0
   -2.3344   -4.1368   -0.2740 H   0  0  0  0  0  0  0  0  0  0  0  0
   -0.7380   -2.7346    1.0675 H   0  0  0  0  0  0  0  0  0  0  0  0
   -3.1933   -2.2972    1.3748 H   0  0  0  0  0  0  0  0  0  0  0  0
   -2.2516   -0.8177    1.5734 H   0  0  0  0  0  0  0  0  0  0  0  0
   -3.1390   -1.1072    0.0754 H   0  0  0  0  0  0  0  0  0  0  0  0
  1  2  1  0
  1  9  1  0
  1 10  1  0
  1 11  1  0
  2  3  1  0
  2 12  1  0
  2 13  1  0
  3  4  2  0
  3  8  1  0
  4  5  1  0
  4 14  1  0
  5  6  2  0
  5 15  1  0
  6  7  1  0
  6 16  1  0
  7  8  2  0
  7 17  1  0
  8 18  1  0
 19 20  1  0
 19 22  1  0
 19 23  1  0
 19 24  1  0
 20 21  1  0
 20 25  1  0
 21 26  1  0
 21 27  1  0
 21 28  1  0
M  RAD  1  20   2
M  END
>  <reaction>  (6) 
rxn_1480

>  <mol_properties>  (6) 
{"1": {"label": "*1", "atom_type": "Cs"}, "2": {"label": "*0", "atom_type": "Cd"}, "11": {"label": "*2", "atom_type": "H0"}, "18": {"label": "*4", "atom_type": "Cs"}, "19": {"label": "*3", "atom_type": "Cs"}}

>  <type>  (6) 
unop_2

>  <geom_source>  (6) 
Heuristics

$$$$

     RDKit          3D

 28 27  0  0  0  0  0  0  0  0999 V2000
    0.6860   -0.8872   -2.2346 C   0  0  0  0  0  0  0  0  0  0  0  0
    0.6860   -0.8872   -0.7055 C   0  0  0  0  0  0  0  0  0  0  0  0
    0.6860    0.5071   -0.1361 C   0  0  0  0  0  0  0  0  0  0  0  0
   -0.5085    1.1761    0.1116 C   0  0  0  0  0  0  0  0  0  0  0  0
   -0.5118    2.4763    0.5926 C   0  0  0  0  0  0  0  0  0  0  0  0
    0.6860    3.1316    0.8344 C   0  0  0  0  0  0  0  0  0  0  0  0
    1.8838    2.4763    0.5926 C   0  0  0  0  0  0  0  0  0  0  0  0
    1.8805    1.1761    0.1116 C   0  0  0  0  0  0  0  0  0  0  0  0
    1.5673   -0.3721   -2.6215 H   0  0  0  0  0  0  0  0  0  0  0  0
   -0.1953   -0.3721   -2.6215 H   0  0  0  0  0  0  0  0  0  0  0  0
    0.6860   -1.9056   -2.6270 H   0  0  0  0  0  0  0  0  0  0  0  0
   -0.3659   -1.5372   -0.2698 H   0  0  0  0  0  0  0  0  0  0  0  0
    1.5627   -1.4288   -0.3424 H   0  0  0  0  0  0  0  0  0  0  0  0
   -1.4494    0.6689   -0.0721 H   0  0  0  0  0  0  0  0  0  0  0  0
   -1.4526    2.9780    0.7825 H   0  0  0  0  0  0  0  0  0  0  0  0
    0.6860    4.1460    1.2127 H   0  0  0  0  0  0  0  0  0  0  0  0
    2.8246    2.9780    0.7825 H   0  0  0  0  0  0  0  0  0  0  0  0
    2.8214    0.6689   -0.0721 H   0  0  0  0  0  0  0  0  0  0  0  0
   -1.0964   -2.8328    1.5082 C   0  0  0  0  0  0  0  0  0  0  0  0
   -1.4188   -2.1877    0.1664 C   0  0  0  0  0  3  0  0  0  0  0  0
   -2.4452   -2.9795   -0.6337 C   0  0  0  0  0  0  0  0  0  0  0  0
   -0.6940   -3.8394    1.3711 H   0  0  0  0  0  0  0  0  0  0  0  0
   -0.3602   -2.2517    2.0661 H   0  0  0  0  0  0  0  0  0  0  0  0
   -1.9935   -2.9181    2.1262 H   0  0  0  0  0  0  0  0  0  0  0  0
   -1.7899   -1.1723    0.3305 H   0  0  0  0  0  0  0  0  0  0  0  0
   -3.3848   -3.0695   -0.0832 H   0  0  0  0  0  0  0  0  0  0  0  0
   -2.6628   -2.5022   -1.5907 H   0  0  0  0  0  0  0  0  0  0  0  0
   -2.0853   -3.9908   -0.8384 H   0  0  0  0  0  0  0  0  0  0  0  0
  1  2  1  0
  1  9  1  0
  1 10  1  0
  1 11  1  0
  2  3  1  0
  2 12  1  0
  2 13  1  0
  3  4  2  0
  3  8  1  0
  4  5  1  0
  4 14  1  0
  5  6  2  0
  5 15  1  0
  6  7  1  0
  6 16  1  0
  7  8  2  0
  7 17  1  0
  8 18  1  0
 19 20  1  0
 19 22  1  0
 19 23  1  0
 19 24  1  0
 20 21  1  0
 20 25  1  0
 21 26  1  0
 21 27  1  0
 21 28  1  0
M  RAD  1  20   2
M  END
>  <reaction>  (7) 
rxn_1480

>  <mol_properties>  (7) 
{"1": {"label": "*1", "atom_type": "Cs"}, "2": {"label": "*0", "atom_type": "Cd"}, "11": {"label": "*2", "atom_type": "H0"}, "18": {"label": "*4", "atom_type": "Cs"}, "19": {"label": "*3", "atom_type": "Cs"}}

>  <type>  (7) 
unop_3

>  <geom_source>  (7) 
Heuristics

$$$$

     RDKit          3D

 28 27  0  0  0  0  0  0  0  0999 V2000
    0.6956   -1.1553   -2.2656 C   0  0  0  0  0  0  0  0  0  0  0  0
    0.6956   -1.1553   -0.7365 C   0  0  0  0  0  0  0  0  0  0  0  0
    0.6956    0.2390   -0.1671 C   0  0  0  0  0  0  0  0  0  0  0  0
   -0.4989    0.9079    0.0806 C   0  0  0  0  0  0  0  0  0  0  0  0
   -0.5022    2.2081    0.5616 C   0  0  0  0  0  0  0  0  0  0  0  0
    0.6956    2.8635    0.8034 C   0  0  0  0  0  0  0  0  0  0  0  0
    1.8934    2.2081    0.5616 C   0  0  0  0  0  0  0  0  0  0  0  0
    1.8901    0.9079    0.0806 C   0  0  0  0  0  0  0  0  0  0  0  0
    1.5769   -0.6402   -2.6525 H   0  0  0  0  0  0  0  0  0  0  0  0
   -0.1857   -0.6402   -2.6525 H   0  0  0  0  0  0  0  0  0  0  0  0
    0.6956   -2.1737   -2.6579 H   0  0  0  0  0  0  0  0  0  0  0  0
   -0.3564   -1.8053   -0.3008 H   0  0  0  0  0  0  0  0  0  0  0  0
    1.5722   -1.6970   -0.3734 H   0  0  0  0  0  0  0  0  0  0  0  0
   -1.4398    0.4008   -0.1031 H   0  0  0  0  0  0  0  0  0  0  0  0
   -1.4430    2.7098    0.7515 H   0  0  0  0  0  0  0  0  0  0  0  0
    0.6956    3.8778    1.1817 H   0  0  0  0  0  0  0  0  0  0  0  0
    2.8342    2.7098    0.7515 H   0  0  0  0  0  0  0  0  0  0  0  0
    2.8310    0.4008   -0.1031 H   0  0  0  0  0  0  0  0  0  0  0  0
   -2.6731   -1.7745   -0.3735 C   0  0  0  0  0  0  0  0  0  0  0  0
   -1.4092   -2.4559    0.1354 C   0  0  0  0  0  3  0  0  0  0  0  0
   -0.9521   -1.9131    1.4833 C   0  0  0  0  0  0  0  0  0  0  0  0
   -2.5163   -0.6997   -0.4931 H   0  0  0  0  0  0  0  0  0  0  0  0
   -2.9844   -2.1763   -1.3392 H   0  0  0  0  0  0  0  0  0  0  0  0
   -3.4998   -1.9106    0.3280 H   0  0  0  0  0  0  0  0  0  0  0  0
   -1.5836   -3.5324    0.2166 H   0  0  0  0  0  0  0  0  0  0  0  0
   -1.7246   -2.0537    2.2433 H   0  0  0  0  0  0  0  0  0  0  0  0
   -0.0465   -2.4130    1.8309 H   0  0  0  0  0  0  0  0  0  0  0  0
   -0.7411   -0.8427    1.4222 H   0  0  0  0  0  0  0  0  0  0  0  0
  1  2  1  0
  1  9  1  0
  1 10  1  0
  1 11  1  0
  2  3  1  0
  2 12  1  0
  2 13  1  0
  3  4  2  0
  3  8  1  0
  4  5  1  0
  4 14  1  0
  5  6  2  0
  5 15  1  0
  6  7  1  0
  6 16  1  0
  7  8  2  0
  7 17  1  0
  8 18  1  0
 19 20  1  0
 19 22  1  0
 19 23  1  0
 19 24  1  0
 20 21  1  0
 20 25  1  0
 21 26  1  0
 21 27  1  0
 21 28  1  0
M  RAD  1  20   2
M  END
>  <reaction>  (8) 
rxn_1480

>  <mol_properties>  (8) 
{"1": {"label": "*1", "atom_type": "Cs"}, "2": {"label": "*0", "atom_type": "Cd"}, "11": {"label": "*2", "atom_type": "H0"}, "18": {"label": "*4", "atom_type": "Cs"}, "19": {"label": "*3", "atom_type": "Cs"}}

>  <type>  (8) 
unop_4

>  <geom_source>  (8) 
Heuristics

$$$$

     RDKit          3D

 28 27  0  0  0  0  0  0  0  0999 V2000
    0.6155   -0.8873   -2.2729 C   0  0  0  0  0  0  0  0  0  0  0  0
    0.6155   -0.8873   -0.7438 C   0  0  0  0  0  0  0  0  0  0  0  0
    0.6155    0.5070   -0.1744 C   0  0  0  0  0  0  0  0  0  0  0  0
   -0.5790    1.1759    0.0733 C   0  0  0  0  0  0  0  0  0  0  0  0
   -0.5823    2.4762    0.5543 C   0  0  0  0  0  0  0  0  0  0  0  0
    0.6155    3.1315    0.7961 C   0  0  0  0  0  0  0  0  0  0  0  0
    1.8133    2.4762    0.5543 C   0  0  0  0  0  0  0  0  0  0  0  0
    1.8100    1.1759    0.0733 C   0  0  0  0  0  0  0  0  0  0  0  0
    1.4968   -0.3722   -2.6597 H   0  0  0  0  0  0  0  0  0  0  0  0
   -0.2658   -0.3722   -2.6597 H   0  0  0  0  0  0  0  0  0  0  0  0
    0.6155   -1.9057   -2.6652 H   0  0  0  0  0  0  0  0  0  0  0  0
   -0.4364   -1.5373   -0.3080 H   0  0  0  0  0  0  0  0  0  0  0  0
    1.4922   -1.4290   -0.3807 H   0  0  0  0  0  0  0  0  0  0  0  0
   -1.5199    0.6688   -0.1104 H   0  0  0  0  0  0  0  0  0  0  0  0
   -1.5231    2.9779    0.7442 H   0  0  0  0  0  0  0  0  0  0  0  0
    0.6155    4.1459    1.1744 H   0  0  0  0  0  0  0  0  0  0  0  0
    2.7541    2.9779    0.7442 H   0  0  0  0  0  0  0  0  0  0  0  0
    2.7509    0.6688   -0.1104 H   0  0  0  0  0  0  0  0  0  0  0  0
   -1.4900   -2.1883    1.6514 C   0  0  0  0  0  0  0  0  0  0  0  0
   -1.4893   -2.1879    0.1281 C   0  0  0  0  0  3  0  0  0  0  0  0
   -1.4960   -3.5935   -0.4590 C   0  0  0  0  0  0  0  0  0  0  0  0
   -0.6113   -2.7070    2.0423 H   0  0  0  0  0  0  0  0  0  0  0  0
   -1.4852   -1.1735    2.0529 H   0  0  0  0  0  0  0  0  0  0  0  0
   -2.3742   -2.6983    2.0415 H   0  0  0  0  0  0  0  0  0  0  0  0
   -2.3610   -1.6371   -0.2362 H   0  0  0  0  0  0  0  0  0  0  0  0
   -2.3803   -4.1478   -0.1355 H   0  0  0  0  0  0  0  0  0  0  0  0
   -1.4954   -3.5725   -1.5501 H   0  0  0  0  0  0  0  0  0  0  0  0
   -0.6174   -4.1565   -0.1347 H   0  0  0  0  0  0  0  0  0  0  0  0
  1  2  1  0
  1  9  1  0
  1 10  1  0
  1 11  1  0
  2  3  1  0
  2 12  1  0
  2 13  1  0
  3  4  2  0
  3  8  1  0
  4  5  1  0
  4 14  1  0
  5  6  2  0
  5 15  1  0
  6  7  1  0
  6 16  1  0
  7  8  2  0
  7 17  1  0
  8 18  1  0
 19 20  1  0
 19 22  1  0
 19 23  1  0
 19 24  1  0
 20 21  1  0
 20 25  1  0
 21 26  1  0
 21 27  1  0
 21 28  1  0
M  RAD  1  20   2
M  END
>  <reaction>  (9) 
rxn_1480

>  <mol_properties>  (9) 
{"1": {"label": "*1", "atom_type": "Cs"}, "2": {"label": "*0", "atom_type": "Cd"}, "11": {"label": "*2", "atom_type": "H0"}, "18": {"label": "*4", "atom_type": "Cs"}, "19": {"label": "*3", "atom_type": "Cs"}}

>  <type>  (9) 
unop_5

>  <geom_source>  (9) 
Heuristics

$$$$

     RDKit          3D

 28 27  0  0  0  0  0  0  0  0999 V2000
    0.6349   -1.1286   -2.3199 C   0  0  0  0  0  0  0  0  0  0  0  0
    0.6349   -1.1286   -0.7908 C   0  0  0  0  0  0  0  0  0  0  0  0
    0.6349    0.2657   -0.2214 C   0  0  0  0  0  0  0  0  0  0  0  0
   -0.5596    0.9346    0.0263 C   0  0  0  0  0  0  0  0  0  0  0  0
   -0.5629    2.2348    0.5073 C   0  0  0  0  0  0  0  0  0  0  0  0
    0.6349    2.8902    0.7491 C   0  0  0  0  0  0  0  0  0  0  0  0
    1.8327    2.2348    0.5073 C   0  0  0  0  0  0  0  0  0  0  0  0
    1.8294    0.9346    0.0263 C   0  0  0  0  0  0  0  0  0  0  0  0
    1.5162   -0.6135   -2.7068 H   0  0  0  0  0  0  0  0  0  0  0  0
   -0.2464   -0.6135   -2.7068 H   0  0  0  0  0  0  0  0  0  0  0  0
    0.6349   -2.1470   -2.7123 H   0  0  0  0  0  0  0  0  0  0  0  0
   -0.4170   -1.7786   -0.3551 H   0  0  0  0  0  0  0  0  0  0  0  0
    1.5115   -1.6703   -0.4277 H   0  0  0  0  0  0  0  0  0  0  0  0
   -1.5005    0.4275   -0.1574 H   0  0  0  0  0  0  0  0  0  0  0  0
   -1.5037    2.7365    0.6972 H   0  0  0  0  0  0  0  0  0  0  0  0
    0.6349    3.9045    1.1274 H   0  0  0  0  0  0  0  0  0  0  0  0
    2.7735    2.7365    0.6972 H   0  0  0  0  0  0  0  0  0  0  0  0
    2.7703    0.4275   -0.1574 H   0  0  0  0  0  0  0  0  0  0  0  0
   -2.6318   -1.4586    0.2496 C   0  0  0  0  0  0  0  0  0  0  0  0
   -1.4699   -2.4292    0.0811 C   0  0  0  0  0  3  0  0  0  0  0  0
   -0.5289   -2.4315    1.2790 C   0  0  0  0  0  0  0  0  0  0  0  0
   -2.2705   -0.4356    0.3800 H   0  0  0  0  0  0  0  0  0  0  0  0
   -3.2941   -1.4711   -0.6177 H   0  0  0  0  0  0  0  0  0  0  0  0
   -3.2280   -1.7120    1.1296 H   0  0  0  0  0  0  0  0  0  0  0  0
   -1.8590   -3.4387   -0.0781 H   0  0  0  0  0  0  0  0  0  0  0  0
   -1.0588   -2.7156    2.1914 H   0  0  0  0  0  0  0  0  0  0  0  0
    0.2961   -3.1322    1.1397 H   0  0  0  0  0  0  0  0  0  0  0  0
   -0.1013   -1.4392    1.4418 H   0  0  0  0  0  0  0  0  0  0  0  0
  1  2  1  0
  1  9  1  0
  1 10  1  0
  1 11  1  0
  2  3  1  0
  2 12  1  0
  2 13  1  0
  3  4  2  0
  3  8  1  0
  4  5  1  0
  4 14  1  0
  5  6  2  0
  5 15  1  0
  6  7  1  0
  6 16  1  0
  7  8  2  0
  7 17  1  0
  8 18  1  0
 19 20  1  0
 19 22  1  0
 19 23  1  0
 19 24  1  0
 20 21  1  0
 20 25  1  0
 21 26  1  0
 21 27  1  0
 21 28  1  0
M  RAD  1  20   2
M  END
>  <reaction>  (10) 
rxn_1480

>  <mol_properties>  (10) 
{"1": {"label": "*1", "atom_type": "Cs"}, "2": {"label": "*0", "atom_type": "Cd"}, "11": {"label": "*2", "atom_type": "H0"}, "18": {"label": "*4", "atom_type": "Cs"}, "19": {"label": "*3", "atom_type": "Cs"}}

>  <type>  (10) 
unop_6

>  <geom_source>  (10) 
Heuristics

$$$$

     RDKit          3D

 28 27  0  0  0  0  0  0  0  0999 V2000
    0.5821   -1.0610   -2.3465 C   0  0  0  0  0  0  0  0  0  0  0  0
    0.5821   -1.0610   -0.8174 C   0  0  0  0  0  0  0  0  0  0  0  0
    0.5821    0.3333   -0.2480 C   0  0  0  0  0  0  0  0  0  0  0  0
   -0.6124    1.0022   -0.0003 C   0  0  0  0  0  0  0  0  0  0  0  0
   -0.6157    2.3024    0.4807 C   0  0  0  0  0  0  0  0  0  0  0  0
    0.5821    2.9578    0.7225 C   0  0  0  0  0  0  0  0  0  0  0  0
    1.7799    2.3024    0.4807 C   0  0  0  0  0  0  0  0  0  0  0  0
    1.7766    1.0022   -0.0003 C   0  0  0  0  0  0  0  0  0  0  0  0
    1.4634   -0.5459   -2.7334 H   0  0  0  0  0  0  0  0  0  0  0  0
   -0.2992   -0.5459   -2.7334 H   0  0  0  0  0  0  0  0  0  0  0  0
    0.5821   -2.0794   -2.7388 H   0  0  0  0  0  0  0  0  0  0  0  0
   -0.4699   -1.7110   -0.3817 H   0  0  0  0  0  0  0  0  0  0  0  0
    1.4587   -1.6027   -0.4543 H   0  0  0  0  0  0  0  0  0  0  0  0
   -1.5533    0.4951   -0.1840 H   0  0  0  0  0  0  0  0  0  0  0  0
   -1.5565    2.8041    0.6706 H   0  0  0  0  0  0  0  0  0  0  0  0
    0.5821    3.9721    1.1008 H   0  0  0  0  0  0  0  0  0  0  0  0
    2.7207    2.8041    0.6706 H   0  0  0  0  0  0  0  0  0  0  0  0
    2.7175    0.4951   -0.1840 H   0  0  0  0  0  0  0  0  0  0  0  0
   -2.3804   -1.4292    0.9004 C   0  0  0  0  0  0  0  0  0  0  0  0
   -1.5227   -2.3616    0.0545 C   0  0  0  0  0  3  0  0  0  0  0  0
   -0.3728   -2.9766    0.8418 C   0  0  0  0  0  0  0  0  0  0  0  0
   -1.7843   -0.6054    1.3003 H   0  0  0  0  0  0  0  0  0  0  0  0
   -3.1980   -0.9989    0.3196 H   0  0  0  0  0  0  0  0  0  0  0  0
   -2.8168   -1.9621    1.7487 H   0  0  0  0  0  0  0  0  0  0  0  0
   -2.1486   -3.1579   -0.3578 H   0  0  0  0  0  0  0  0  0  0  0  0
   -0.7459   -3.5583    1.6882 H   0  0  0  0  0  0  0  0  0  0  0  0
    0.2295   -3.6407    0.2195 H   0  0  0  0  0  0  0  0  0  0  0  0
    0.2867   -2.2016    1.2399 H   0  0  0  0  0  0  0  0  0  0  0  0
  1  2  1  0
  1  9  1  0
  1 10  1  0
  1 11  1  0
  2  3  1  0
  2 12  1  0
  2 13  1  0
  3  4  2  0
  3  8  1  0
  4  5  1  0
  4 14  1  0
  5  6  2  0
  5 15  1  0
  6  7  1  0
  6 16  1  0
  7  8  2  0
  7 17  1  0
  8 18  1  0
 19 20  1  0
 19 22  1  0
 19 23  1  0
 19 24  1  0
 20 21  1  0
 20 25  1  0
 21 26  1  0
 21 27  1  0
 21 28  1  0
M  RAD  1  20   2
M  END
>  <reaction>  (11) 
rxn_1480

>  <mol_properties>  (11) 
{"1": {"label": "*1", "atom_type": "Cs"}, "2": {"label": "*0", "atom_type": "Cd"}, "11": {"label": "*2", "atom_type": "H0"}, "18": {"label": "*4", "atom_type": "Cs"}, "19": {"label": "*3", "atom_type": "Cs"}}

>  <type>  (11) 
unop_7

>  <geom_source>  (11) 
Heuristics

$$$$

     RDKit          3D

 28 27  0  0  0  0  0  0  0  0999 V2000
    0.7284   -0.9060   -2.1909 C   0  0  0  0  0  0  0  0  0  0  0  0
    0.7284   -0.9060   -0.6618 C   0  0  0  0  0  0  0  0  0  0  0  0
    0.7284    0.4883   -0.0924 C   0  0  0  0  0  0  0  0  0  0  0  0
   -0.4661    1.1572    0.1553 C   0  0  0  0  0  0  0  0  0  0  0  0
   -0.4694    2.4575    0.6363 C   0  0  0  0  0  0  0  0  0  0  0  0
    0.7284    3.1128    0.8780 C   0  0  0  0  0  0  0  0  0  0  0  0
    1.9262    2.4575    0.6363 C   0  0  0  0  0  0  0  0  0  0  0  0
    1.9229    1.1572    0.1553 C   0  0  0  0  0  0  0  0  0  0  0  0
    1.6097   -0.3909   -2.5778 H   0  0  0  0  0  0  0  0  0  0  0  0
   -0.1529   -0.3909   -2.5778 H   0  0  0  0  0  0  0  0  0  0  0  0
    0.7284   -1.9244   -2.5833 H   0  0  0  0  0  0  0  0  0  0  0  0
   -0.3236   -1.5560   -0.2261 H   0  0  0  0  0  0  0  0  0  0  0  0
    1.6050   -1.4477   -0.2987 H   0  0  0  0  0  0  0  0  0  0  0  0
   -1.4070    0.6501   -0.0284 H   0  0  0  0  0  0  0  0  0  0  0  0
   -1.4102    2.9592    0.8262 H   0  0  0  0  0  0  0  0  0  0  0  0
    0.7284    4.1272    1.2564 H   0  0  0  0  0  0  0  0  0  0  0  0
    2.8670    2.9592    0.8262 H   0  0  0  0  0  0  0  0  0  0  0  0
    2.8638    0.6501   -0.0284 H   0  0  0  0  0  0  0  0  0  0  0  0
   -1.0282   -3.6799    0.3786 C   0  0  0  0  0  0  0  0  0  0  0  0
   -1.3764   -2.2066    0.2101 C   0  0  0  0  0  3  0  0  0  0  0  0
   -2.8781   -1.9642    0.1285 C   0  0  0  0  0  0  0  0  0  0  0  0
   -1.4066   -4.2692   -0.4603 H   0  0  0  0  0  0  0  0  0  0  0  0
    0.0508   -3.8332    0.4350 H   0  0  0  0  0  0  0  0  0  0  0  0
   -1.4718   -4.0842    1.2917 H   0  0  0  0  0  0  0  0  0  0  0  0
   -0.9605   -1.6364    1.0453 H   0  0  0  0  0  0  0  0  0  0  0  0
   -3.3801   -2.3144    1.0338 H   0  0  0  0  0  0  0  0  0  0  0  0
   -3.1075   -0.9041    0.0081 H   0  0  0  0  0  0  0  0  0  0  0  0
   -3.3148   -2.4994   -0.7182 H   0  0  0  0  0  0  0  0  0  0  0  0
  1  2  1  0
  1  9  1  0
  1 10  1  0
  1 11  1  0
  2  3  1  0
  2 12  1  0
  2 13  1  0
  3  4  2  0
  3  8  1  0
  4  5  1  0
  4 14  1  0
  5  6  2  0
  5 15  1  0
  6  7  1  0
  6 16  1  0
  7  8  2  0
  7 17  1  0
  8 18  1  0
 19 20  1  0
 19 22  1  0
 19 23  1  0
 19 24  1  0
 20 21  1  0
 20 25  1  0
 21 26  1  0
 21 27  1  0
 21 28  1  0
M  RAD  1  20   2
M  END
>  <reaction>  (12) 
rxn_1480

>  <mol_properties>  (12) 
{"1": {"label": "*1", "atom_type": "Cs"}, "2": {"label": "*0", "atom_type": "Cd"}, "11": {"label": "*2", "atom_type": "H0"}, "18": {"label": "*4", "atom_type": "Cs"}, "19": {"label": "*3", "atom_type": "Cs"}}

>  <type>  (12) 
unop_8

>  <geom_source>  (12) 
Heuristics

$$$$

     RDKit          3D

 28 27  0  0  0  0  0  0  0  0999 V2000
    0.7488   -1.1343   -2.2018 C   0  0  0  0  0  0  0  0  0  0  0  0
    0.7488   -1.1343   -0.6727 C   0  0  0  0  0  0  0  0  0  0  0  0
    0.7488    0.2600   -0.1033 C   0  0  0  0  0  0  0  0  0  0  0  0
   -0.4457    0.9289    0.1444 C   0  0  0  0  0  0  0  0  0  0  0  0
   -0.4490    2.2291    0.6254 C   0  0  0  0  0  0  0  0  0  0  0  0
    0.7488    2.8845    0.8672 C   0  0  0  0  0  0  0  0  0  0  0  0
    1.9466    2.2291    0.6254 C   0  0  0  0  0  0  0  0  0  0  0  0
    1.9433    0.9289    0.1444 C   0  0  0  0  0  0  0  0  0  0  0  0
    1.6301   -0.6192   -2.5886 H   0  0  0  0  0  0  0  0  0  0  0  0
   -0.1325   -0.6192   -2.5886 H   0  0  0  0  0  0  0  0  0  0  0  0
    0.7488   -2.1527   -2.5941 H   0  0  0  0  0  0  0  0  0  0  0  0
   -0.3032   -1.7843   -0.2369 H   0  0  0  0  0  0  0  0  0  0  0  0
    1.6254   -1.6760   -0.3096 H   0  0  0  0  0  0  0  0  0  0  0  0
   -1.3866    0.4218   -0.0393 H   0  0  0  0  0  0  0  0  0  0  0  0
   -1.3898    2.7308    0.8153 H   0  0  0  0  0  0  0  0  0  0  0  0
    0.7488    3.8988    1.2455 H   0  0  0  0  0  0  0  0  0  0  0  0
    2.8874    2.7308    0.8153 H   0  0  0  0  0  0  0  0  0  0  0  0
    2.8842    0.4218   -0.0393 H   0  0  0  0  0  0  0  0  0  0  0  0
   -2.4921   -2.2926   -0.8056 C   0  0  0  0  0  0  0  0  0  0  0  0
   -1.3560   -2.4349    0.1992 C   0  0  0  0  0  3  0  0  0  0  0  0
   -1.5446   -1.5529    1.4268 C   0  0  0  0  0  0  0  0  0  0  0  0
   -2.5759   -1.2614   -1.1571 H   0  0  0  0  0  0  0  0  0  0  0  0
   -2.3393   -2.9315   -1.6771 H   0  0  0  0  0  0  0  0  0  0  0  0
   -3.4492   -2.5655   -0.3543 H   0  0  0  0  0  0  0  0  0  0  0  0
   -1.2744   -3.4799    0.5108 H   0  0  0  0  0  0  0  0  0  0  0  0
   -2.4717   -1.8024    1.9484 H   0  0  0  0  0  0  0  0  0  0  0  0
   -0.7216   -1.6686    2.1341 H   0  0  0  0  0  0  0  0  0  0  0  0
   -1.5984   -0.4983    1.1456 H   0  0  0  0  0  0  0  0  0  0  0  0
  1  2  1  0
  1  9  1  0
  1 10  1  0
  1 11  1  0
  2  3  1  0
  2 12  1  0
  2 13  1  0
  3  4  2  0
  3  8  1  0
  4  5  1  0
  4 14  1  0
  5  6  2  0
  5 15  1  0
  6  7  1  0
  6 16  1  0
  7  8  2  0
  7 17  1  0
  8 18  1  0
 19 20  1  0
 19 22  1  0
 19 23  1  0
 19 24  1  0
 20 21  1  0
 20 25  1  0
 21 26  1  0
 21 27  1  0
 21 28  1  0
M  RAD  1  20   2
M  END
>  <reaction>  (13) 
rxn_1480

>  <mol_properties>  (13) 
{"1": {"label": "*1", "atom_type": "Cs"}, "2": {"label": "*0", "atom_type": "Cd"}, "11": {"label": "*2", "atom_type": "H0"}, "18": {"label": "*4", "atom_type": "Cs"}, "19": {"label": "*3", "atom_type": "Cs"}}

>  <type>  (13) 
unop_9

>  <geom_source>  (13) 
Heuristics

$$$$

     RDKit          3D

 28 27  0  0  0  0  0  0  0  0999 V2000
    0.7506   -0.9320   -2.1579 C   0  0  0  0  0  0  0  0  0  0  0  0
    0.7506   -0.9320   -0.6288 C   0  0  0  0  0  0  0  0  0  0  0  0
    0.7506    0.4623   -0.0594 C   0  0  0  0  0  0  0  0  0  0  0  0
   -0.4439    1.1312    0.1884 C   0  0  0  0  0  0  0  0  0  0  0  0
   -0.4472    2.4315    0.6693 C   0  0  0  0  0  0  0  0  0  0  0  0
    0.7506    3.0868    0.9111 C   0  0  0  0  0  0  0  0  0  0  0  0
    1.9484    2.4315    0.6693 C   0  0  0  0  0  0  0  0  0  0  0  0
    1.9451    1.1313    0.1884 C   0  0  0  0  0  0  0  0  0  0  0  0
    1.6319   -0.4169   -2.5447 H   0  0  0  0  0  0  0  0  0  0  0  0
   -0.1307   -0.4169   -2.5447 H   0  0  0  0  0  0  0  0  0  0  0  0
    0.7506   -1.9504   -2.5502 H   0  0  0  0  0  0  0  0  0  0  0  0
   -0.3014   -1.5820   -0.1930 H   0  0  0  0  0  0  0  0  0  0  0  0
    1.6272   -1.4736   -0.2656 H   0  0  0  0  0  0  0  0  0  0  0  0
   -1.3848    0.6241    0.0046 H   0  0  0  0  0  0  0  0  0  0  0  0
   -1.3880    2.9332    0.8592 H   0  0  0  0  0  0  0  0  0  0  0  0
    0.7506    4.1012    1.2895 H   0  0  0  0  0  0  0  0  0  0  0  0
    2.8892    2.9332    0.8592 H   0  0  0  0  0  0  0  0  0  0  0  0
    2.8860    0.6241    0.0046 H   0  0  0  0  0  0  0  0  0  0  0  0
   -1.3102   -3.6677   -0.2657 C   0  0  0  0  0  0  0  0  0  0  0  0
   -1.3542   -2.2326    0.2431 C   0  0  0  0  0  3  0  0  0  0  0  0
   -2.7726   -1.7523    0.5224 C   0  0  0  0  0  0  0  0  0  0  0  0
   -1.8760   -3.7702   -1.1950 H   0  0  0  0  0  0  0  0  0  0  0  0
   -0.2869   -3.9933   -0.4598 H   0  0  0  0  0  0  0  0  0  0  0  0
   -1.7473   -4.3543    0.4634 H   0  0  0  0  0  0  0  0  0  0  0  0
   -0.7562   -2.1512    1.1550 H   0  0  0  0  0  0  0  0  0  0  0  0
   -3.2558   -2.3785    1.2763 H   0  0  0  0  0  0  0  0  0  0  0  0
   -2.7835   -0.7233    0.8856 H   0  0  0  0  0  0  0  0  0  0  0  0
   -3.3845   -1.7944   -0.3820 H   0  0  0  0  0  0  0  0  0  0  0  0
  1  2  1  0
  1  9  1  0
  1 10  1  0
  1 11  1  0
  2  3  1  0
  2 12  1  0
  2 13  1  0
  3  4  2  0
  3  8  1  0
  4  5  1  0
  4 14  1  0
  5  6  2  0
  5 15  1  0
  6  7  1  0
  6 16  1  0
  7  8  2  0
  7 17  1  0
  8 18  1  0
 19 20  1  0
 19 22  1  0
 19 23  1  0
 19 24  1  0
 20 21  1  0
 20 25  1  0
 21 26  1  0
 21 27  1  0
 21 28  1  0
M  RAD  1  20   2
M  END
>  <reaction>  (14) 
rxn_1480

>  <mol_properties>  (14) 
{"1": {"label": "*1", "atom_type": "Cs"}, "2": {"label": "*0", "atom_type": "Cd"}, "11": {"label": "*2", "atom_type": "H0"}, "18": {"label": "*4", "atom_type": "Cs"}, "19": {"label": "*3", "atom_type": "Cs"}}

>  <type>  (14) 
unop_10

>  <geom_source>  (14) 
Heuristics

$$$$

     RDKit          3D

 28 27  0  0  0  0  0  0  0  0999 V2000
    0.5625   -0.9646   -2.3303 C   0  0  0  0  0  0  0  0  0  0  0  0
    0.5625   -0.9646   -0.8012 C   0  0  0  0  0  0  0  0  0  0  0  0
    0.5625    0.4297   -0.2318 C   0  0  0  0  0  0  0  0  0  0  0  0
   -0.6320    1.0986    0.0160 C   0  0  0  0  0  0  0  0  0  0  0  0
   -0.6353    2.3989    0.4969 C   0  0  0  0  0  0  0  0  0  0  0  0
    0.5625    3.0542    0.7387 C   0  0  0  0  0  0  0  0  0  0  0  0
    1.7603    2.3989    0.4969 C   0  0  0  0  0  0  0  0  0  0  0  0
    1.7571    1.0986    0.0160 C   0  0  0  0  0  0  0  0  0  0  0  0
    1.4438   -0.4495   -2.7171 H   0  0  0  0  0  0  0  0  0  0  0  0
   -0.3187   -0.4495   -2.7171 H   0  0  0  0  0  0  0  0  0  0  0  0
    0.5625   -1.9830   -2.7226 H   0  0  0  0  0  0  0  0  0  0  0  0
   -0.4894   -1.6146   -0.3654 H   0  0  0  0  0  0  0  0  0  0  0  0
    1.4392   -1.5062   -0.4381 H   0  0  0  0  0  0  0  0  0  0  0  0
   -1.5729    0.5915   -0.1678 H   0  0  0  0  0  0  0  0  0  0  0  0
   -1.5761    2.9006    0.6868 H   0  0  0  0  0  0  0  0  0  0  0  0
    0.5625    4.0686    1.1171 H   0  0  0  0  0  0  0  0  0  0  0  0
    2.7011    2.9006    0.6868 H   0  0  0  0  0  0  0  0  0  0  0  0
    2.6980    0.5915   -0.1678 H   0  0  0  0  0  0  0  0  0  0  0  0
   -1.9749   -1.6882    1.4125 C   0  0  0  0  0  0  0  0  0  0  0  0
   -1.5423   -2.2652    0.0707 C   0  0  0  0  0  3  0  0  0  0  0  0
   -0.6167   -3.4659    0.2193 C   0  0  0  0  0  0  0  0  0  0  0  0
   -1.1098   -1.3606    1.9941 H   0  0  0  0  0  0  0  0  0  0  0  0
   -2.6367   -0.8298    1.2855 H   0  0  0  0  0  0  0  0  0  0  0  0
   -2.5067   -2.4359    2.0060 H   0  0  0  0  0  0  0  0  0  0  0  0
   -2.4268   -2.5561   -0.5026 H   0  0  0  0  0  0  0  0  0  0  0  0
   -1.1058   -4.2696    0.7752 H   0  0  0  0  0  0  0  0  0  0  0  0
   -0.3180   -3.8648   -0.7515 H   0  0  0  0  0  0  0  0  0  0  0  0
    0.2912   -3.1943    0.7633 H   0  0  0  0  0  0  0  0  0  0  0  0
  1  2  1  0
  1  9  1  0
  1 10  1  0
  1 11  1  0
  2  3  1  0
  2 12  1  0
  2 13  1  0
  3  4  2  0
  3  8  1  0
  4  5  1  0
  4 14  1  0
  5  6  2  0
  5 15  1  0
  6  7  1  0
  6 16  1  0
  7  8  2  0
  7 17  1  0
  8 18  1  0
 19 20  1  0
 19 22  1  0
 19 23  1  0
 19 24  1  0
 20 21  1  0
 20 25  1  0
 21 26  1  0
 21 27  1  0
 21 28  1  0
M  RAD  1  20   2
M  END
>  <reaction>  (15) 
rxn_1480

>  <mol_properties>  (15) 
{"1": {"label": "*1", "atom_type": "Cs"}, "2": {"label": "*0", "atom_type": "Cd"}, "11": {"label": "*2", "atom_type": "H0"}, "18": {"label": "*4", "atom_type": "Cs"}, "19": {"label": "*3", "atom_type": "Cs"}}

>  <type>  (15) 
unop_11

>  <geom_source>  (15) 
Heuristics

$$$$

     RDKit          3D

 28 27  0  0  0  0  0  0  0  0999 V2000
    0.7781   -1.0694   -2.1521 C   0  0  0  0  0  0  0  0  0  0  0  0
    0.7781   -1.0694   -0.6230 C   0  0  0  0  0  0  0  0  0  0  0  0
    0.7781    0.3249   -0.0536 C   0  0  0  0  0  0  0  0  0  0  0  0
   -0.4164    0.9938    0.1942 C   0  0  0  0  0  0  0  0  0  0  0  0
   -0.4197    2.2940    0.6751 C   0  0  0  0  0  0  0  0  0  0  0  0
    0.7781    2.9494    0.9169 C   0  0  0  0  0  0  0  0  0  0  0  0
    1.9759    2.2940    0.6751 C   0  0  0  0  0  0  0  0  0  0  0  0
    1.9726    0.9938    0.1942 C   0  0  0  0  0  0  0  0  0  0  0  0
    1.6594   -0.5544   -2.5389 H   0  0  0  0  0  0  0  0  0  0  0  0
   -0.1032   -0.5544   -2.5389 H   0  0  0  0  0  0  0  0  0  0  0  0
    0.7781   -2.0878   -2.5444 H   0  0  0  0  0  0  0  0  0  0  0  0
   -0.2739   -1.7194   -0.1872 H   0  0  0  0  0  0  0  0  0  0  0  0
    1.6547   -1.6111   -0.2599 H   0  0  0  0  0  0  0  0  0  0  0  0
   -1.3573    0.4866    0.0104 H   0  0  0  0  0  0  0  0  0  0  0  0
   -1.3605    2.7957    0.8650 H   0  0  0  0  0  0  0  0  0  0  0  0
    0.7781    3.9637    1.2952 H   0  0  0  0  0  0  0  0  0  0  0  0
    2.9167    2.7957    0.8650 H   0  0  0  0  0  0  0  0  0  0  0  0
    2.9135    0.4866    0.0104 H   0  0  0  0  0  0  0  0  0  0  0  0
   -2.1397   -2.8724   -0.9374 C   0  0  0  0  0  0  0  0  0  0  0  0
   -1.3267   -2.3700    0.2489 C   0  0  0  0  0  3  0  0  0  0  0  0
   -2.1337   -1.4672    1.1731 C   0  0  0  0  0  0  0  0  0  0  0  0
   -2.5082   -2.0384   -1.5396 H   0  0  0  0  0  0  0  0  0  0  0  0
   -1.5451   -3.5168   -1.5871 H   0  0  0  0  0  0  0  0  0  0  0  0
   -3.0077   -3.4450   -0.6017 H   0  0  0  0  0  0  0  0  0  0  0  0
   -0.9449   -3.2234    0.8161 H   0  0  0  0  0  0  0  0  0  0  0  0
   -3.0016   -1.9955    1.5753 H   0  0  0  0  0  0  0  0  0  0  0  0
   -1.5350   -1.1178    2.0159 H   0  0  0  0  0  0  0  0  0  0  0  0
   -2.5021   -0.5889    0.6373 H   0  0  0  0  0  0  0  0  0  0  0  0
  1  2  1  0
  1  9  1  0
  1 10  1  0
  1 11  1  0
  2  3  1  0
  2 12  1  0
  2 13  1  0
  3  4  2  0
  3  8  1  0
  4  5  1  0
  4 14  1  0
  5  6  2  0
  5 15  1  0
  6  7  1  0
  6 16  1  0
  7  8  2  0
  7 17  1  0
  8 18  1  0
 19 20  1  0
 19 22  1  0
 19 23  1  0
 19 24  1  0
 20 21  1  0
 20 25  1  0
 21 26  1  0
 21 27  1  0
 21 28  1  0
M  RAD  1  20   2
M  END
>  <reaction>  (16) 
rxn_1480

>  <mol_properties>  (16) 
{"1": {"label": "*1", "atom_type": "Cs"}, "2": {"label": "*0", "atom_type": "Cd"}, "11": {"label": "*2", "atom_type": "H0"}, "18": {"label": "*4", "atom_type": "Cs"}, "19": {"label": "*3", "atom_type": "Cs"}}

>  <type>  (16) 
unop_12

>  <geom_source>  (16) 
Heuristics

$$$$

     RDKit          3D

 28 27  0  0  0  0  0  0  0  0999 V2000
    1.8082    0.8084   -0.0229 C   0  0  0  0  0  0  0  0  0  0  0  0
    2.3858    1.0813   -1.4074 C   0  0  0  0  0  0  0  0  0  0  0  0
    2.8659    0.9749    1.0628 C   0  0  0  0  0  0  0  0  0  0  0  0
    0.0196   -2.6563    0.5546 C   0  0  0  0  0  0  0  0  0  0  0  0
   -1.0612   -0.4803   -0.0172 C   0  0  0  0  0  0  0  0  0  0  0  0
    0.2252   -1.2493    0.0089 C   0  0  0  0  0  0  0  0  0  0  0  0
   -1.9827   -0.6597   -1.0615 C   0  0  0  0  0  3  0  0  0  0  0  0
   -1.3620    0.4041    1.0282 C   0  0  0  0  0  0  0  0  0  0  0  0
   -3.1880    0.0498   -1.0628 C   0  0  0  0  0  0  0  0  0  0  0  0
   -3.4803    0.9357   -0.0214 C   0  0  0  0  0  0  0  0  0  0  0  0
   -2.5684    1.1120    1.0237 C   0  0  0  0  0  0  0  0  0  0  0  0
    0.9687    1.5106    0.1706 H   0  0  0  0  0  0  0  0  0  0  0  0
    1.3514   -0.3952    0.0140 H   0  0  0  0  0  0  0  0  0  0  0  0
    1.5916    0.9485   -2.1715 H   0  0  0  0  0  0  0  0  0  0  0  0
    2.7691    2.1222   -1.4681 H   0  0  0  0  0  0  0  0  0  0  0  0
    3.2112    0.3711   -1.6261 H   0  0  0  0  0  0  0  0  0  0  0  0
    3.7016    0.2623    0.8973 H   0  0  0  0  0  0  0  0  0  0  0  0
    2.4129    0.7664    2.0546 H   0  0  0  0  0  0  0  0  0  0  0  0
    3.2608    2.0132    1.0619 H   0  0  0  0  0  0  0  0  0  0  0  0
    0.9971   -3.1800    0.5954 H   0  0  0  0  0  0  0  0  0  0  0  0
   -0.4019   -2.6097    1.5811 H   0  0  0  0  0  0  0  0  0  0  0  0
   -0.6684   -3.2297   -0.1026 H   0  0  0  0  0  0  0  0  0  0  0  0
    0.6817   -1.2881   -1.0039 H   0  0  0  0  0  0  0  0  0  0  0  0
   -1.7674   -1.3471   -1.8702 H   0  0  0  0  0  0  0  0  0  0  0  0
   -3.8960   -0.0885   -1.8697 H   0  0  0  0  0  0  0  0  0  0  0  0
   -4.4137    1.4836   -0.0232 H   0  0  0  0  0  0  0  0  0  0  0  0
   -2.7971    1.7957    1.8310 H   0  0  0  0  0  0  0  0  0  0  0  0
   -0.6639    0.5440    1.8443 H   0  0  0  0  0  0  0  0  0  0  0  0
  1  2  1  0
  1  3  1  0
  1 12  1  0
  1 13  1  0
  2 14  1  0
  2 15  1  0
  2 16  1  0
  3 17  1  0
  3 18  1  0
  3 19  1  0
  4  6  1  0
  4 20  1  0
  4 21  1  0
  4 22  1  0
  5  6  2  3
  5  7  1  0
  5  8  1  0
  6 23  1  0
  7  9  1  0
  7 24  1  0
  8 11  2  0
  8 28  1  0
  9 10  2  0
  9 25  1  0
 10 11  1  0
 10 26  1  0
 11 27  1  0
M  RAD  1   7   2
M  END
>  <reaction>  (17) 
rxn_1480

>  <mol_properties>  (17) 
{"1": {"label": "*1", "atom_type": "Cs"}, "2": {"label": "*0", "atom_type": "Cd"}, "11": {"label": "*2", "atom_type": "H0"}, "18": {"label": "*4", "atom_type": "Cs"}, "19": {"label": "*3", "atom_type": "Cs"}}

>  <type>  (17) 
unop_13

>  <geom_source>  (17) 
AutoTST

$$$$
