
     RDKit          3D

 15 15  0  0  0  0  0  0  0  0999 V2000
    2.2031   -0.2111   -0.1693 C   0  0  0  0  0  0  0  0  0  0  0  0
    0.7140   -0.0314   -0.0623 C   0  0  0  0  0  0  0  0  0  0  0  0
   -0.0114    0.5491   -1.0982 C   0  0  0  0  0  0  0  0  0  0  0  0
   -1.3882    0.6886   -1.0150 C   0  0  0  0  0  0  0  0  0  0  0  0
   -2.0661    0.2493    0.1118 C   0  0  0  0  0  0  0  0  0  0  0  0
   -1.3551   -0.3278    1.1528 C   0  0  0  0  0  0  0  0  0  0  0  0
    0.0216   -0.4648    1.0642 C   0  0  0  0  0  0  0  0  0  0  0  0
    2.6776   -0.1836    0.8122 H   0  0  0  0  0  0  0  0  0  0  0  0
    2.4446   -1.1749   -0.6249 H   0  0  0  0  0  0  0  0  0  0  0  0
    2.6532    0.5664   -0.7875 H   0  0  0  0  0  0  0  0  0  0  0  0
    0.5104    0.8989   -1.9819 H   0  0  0  0  0  0  0  0  0  0  0  0
   -1.9328    1.1452   -1.8322 H   0  0  0  0  0  0  0  0  0  0  0  0
   -3.1409    0.3597    0.1800 H   0  0  0  0  0  0  0  0  0  0  0  0
   -1.8736   -0.6702    2.0398 H   0  0  0  0  0  0  0  0  0  0  0  0
    0.5695   -0.9141    1.8849 H   0  0  0  0  0  0  0  0  0  0  0  0
  1  2  1  0
  1  8  1  0
  1  9  1  0
  1 10  1  0
  2  3  2  0
  2  7  1  0
  3  4  1  0
  3 11  1  0
  4  5  2  0
  4 12  1  0
  5  6  1  0
  5 13  1  0
  6  7  2  0
  6 14  1  0
  7 15  1  0
M  END
>  <reaction>  (1) 
rxn_1446

>  <mol_properties>  (1) 
{"0": {"label": "donator", "atom_type": "Cs"}, "7": {"label": "d_hydrogen", "atom_type": "H0"}}

>  <type>  (1) 
r1h

$$$$

     RDKit          3D

  8  7  0  0  0  0  0  0  0  0999 V2000
   -2.2129    0.4855    0.7390 C   0  0  0  0  0  0  0  0  0  0  0  0
   -1.2226    0.0526    0.1974 C   0  0  0  0  0  0  0  0  0  0  0  0
   -0.1006   -0.4575   -0.4419 C   0  0  0  0  0  3  0  0  0  0  0  0
    1.1960   -0.1737   -0.0342 C   0  0  0  0  0  0  0  0  0  0  0  0
    2.3329    0.0603    0.3036 C   0  0  0  0  0  0  0  0  0  0  0  0
   -3.0803    0.8696    1.2198 H   0  0  0  0  0  0  0  0  0  0  0  0
   -0.2433   -1.1067   -1.2980 H   0  0  0  0  0  0  0  0  0  0  0  0
    3.3308    0.2700    0.6058 H   0  0  0  0  0  0  0  0  0  0  0  0
  1  2  3  0
  1  6  1  0
  2  3  1  0
  3  4  1  0
  3  7  1  0
  4  5  3  0
  5  8  1  0
M  RAD  1   3   2
M  END
>  <reaction>  (2) 
rxn_1446

>  <mol_properties>  (2) 
{"2": {"label": "acceptor", "atom_type": "Cs"}}

>  <type>  (2) 
r2

$$$$

     RDKit          3D

  9  8  0  0  0  0  0  0  0  0999 V2000
   -2.1022   -0.6873    0.3932 C   0  0  0  0  0  0  0  0  0  0  0  0
   -1.2072   -0.1086   -0.1482 C   0  0  0  0  0  0  0  0  0  0  0  0
   -0.1242    0.6105   -0.8193 C   0  0  0  0  0  0  0  0  0  0  0  0
    1.2067    0.1106   -0.4741 C   0  0  0  0  0  0  0  0  0  0  0  0
    2.3005   -0.2875   -0.2012 C   0  0  0  0  0  0  0  0  0  0  0  0
   -2.8942   -1.2059    0.8778 H   0  0  0  0  0  0  0  0  0  0  0  0
   -0.1862    1.6723   -0.5649 H   0  0  0  0  0  0  0  0  0  0  0  0
   -0.2641    0.5418   -1.9017 H   0  0  0  0  0  0  0  0  0  0  0  0
    3.2709   -0.6459    0.0455 H   0  0  0  0  0  0  0  0  0  0  0  0
  1  2  3  0
  1  6  1  0
  2  3  1  0
  3  4  1  0
  3  7  1  0
  3  8  1  0
  4  5  3  0
  5  9  1  0
M  END
>  <reaction>  (3) 
rxn_1446

>  <mol_properties>  (3) 
{"2": {"label": "acceptor", "atom_type": "Cs"}, "8": {"label": "a_hydrogen", "atom_type": "H0"}}

>  <type>  (3) 
r2h

$$$$

     RDKit          3D

 23 22  0  0  0  0  0  0  0  0999 V2000
   -1.3866   -2.1311   -0.3462 C   0  0  0  0  0  0  0  0  0  0  0  0
   -1.1234   -1.6670    0.7286 C   0  0  0  0  0  0  0  0  0  0  0  0
   -0.7255   -1.0706    1.9680 C   0  0  0  0  0  0  0  0  0  0  0  0
   -1.6112   -0.0990    2.5416 C   0  0  0  0  0  0  0  0  0  0  0  0
   -2.2982    0.7608    3.0197 C   0  0  0  0  0  0  0  0  0  0  0  0
   -1.6318   -2.5402   -1.2963 H   0  0  0  0  0  0  0  0  0  0  0  0
   -0.3377   -1.7849    2.6933 H   0  0  0  0  0  0  0  0  0  0  0  0
   -2.9284    1.5038    3.4456 H   0  0  0  0  0  0  0  0  0  0  0  0
    1.4012    0.4297    1.2288 C   0  0  0  0  0  0  0  0  0  0  0  0
    1.1609    0.5996   -0.1920 C   0  0  0  0  0  0  0  0  0  0  0  0
    0.2249    1.5361   -0.6490 C   0  0  0  0  0  3  0  0  0  0  0  0
   -0.0589    1.6545   -1.9964 C   0  0  0  0  0  0  0  0  0  0  0  0
    0.5831    0.8402   -2.9202 C   0  0  0  0  0  0  0  0  0  0  0  0
    1.5120   -0.0952   -2.4838 C   0  0  0  0  0  0  0  0  0  0  0  0
    1.7941   -0.2182   -1.1361 C   0  0  0  0  0  0  0  0  0  0  0  0
    0.3619   -0.3832    1.6501 H   0  0  0  0  0  0  0  0  0  0  0  0
    2.2800   -0.1416    1.5140 H   0  0  0  0  0  0  0  0  0  0  0  0
    1.2000    1.2859    1.8670 H   0  0  0  0  0  0  0  0  0  0  0  0
   -0.2857    2.1653    0.0707 H   0  0  0  0  0  0  0  0  0  0  0  0
   -0.7862    2.3836   -2.3308 H   0  0  0  0  0  0  0  0  0  0  0  0
    0.3614    0.9352   -3.9756 H   0  0  0  0  0  0  0  0  0  0  0  0
    2.0161   -0.7326   -3.1994 H   0  0  0  0  0  0  0  0  0  0  0  0
    2.5128   -0.9560   -0.7993 H   0  0  0  0  0  0  0  0  0  0  0  0
  1  2  3  0
  1  6  1  0
  2  3  1  0
  3  4  1  0
  3  7  1  0
  3 16  1  0
  4  5  3  0
  5  8  1  0
  9 10  2  3
  9 17  1  0
  9 18  1  0
 10 11  1  0
 10 15  1  0
 11 12  1  0
 11 19  1  0
 12 13  2  0
 12 20  1  0
 13 14  1  0
 13 21  1  0
 14 15  2  0
 14 22  1  0
 15 23  1  0
M  RAD  1  11   2
M  END
>  <reaction>  (4) 
rxn_1446

>  <mol_properties>  (4) 
{"1": {"label": "*0", "atom_type": "Ct"}, "2": {"label": "*1", "atom_type": "Cs"}, "8": {"label": "*3", "atom_type": "Cd"}, "9": {"label": "*4", "atom_type": "Cd"}, "15": {"label": "*2", "atom_type": "H0"}}

>  <type>  (4) 
ts

$$$$

     RDKit          3D

 23 22  0  0  0  0  0  0  0  0999 V2000
    1.0625   -2.2740    3.4132 C   0  0  0  0  0  0  0  0  0  0  0  0
    0.2844   -1.6604    2.7444 C   0  0  0  0  0  0  0  0  0  0  0  0
   -0.6679   -0.9096    1.9260 C   0  0  0  0  0  3  0  0  0  0  0  0
   -1.8126   -1.7077    1.4868 C   0  0  0  0  0  0  0  0  0  0  0  0
   -2.7480   -2.3600    1.1279 C   0  0  0  0  0  0  0  0  0  0  0  0
    1.7547   -2.8198    4.0081 H   0  0  0  0  0  0  0  0  0  0  0  0
   -1.0281   -0.0473    2.4941 H   0  0  0  0  0  0  0  0  0  0  0  0
   -3.5802   -2.9402    0.8086 H   0  0  0  0  0  0  0  0  0  0  0  0
    0.5135    1.2269    0.9726 C   0  0  0  0  0  0  0  0  0  0  0  0
    0.5135    1.2269   -0.5312 C   0  0  0  0  0  0  0  0  0  0  0  0
    0.5135    2.4212   -1.2452 C   0  0  0  0  0  0  0  0  0  0  0  0
    0.5439    2.4245   -2.6312 C   0  0  0  0  0  0  0  0  0  0  0  0
    0.5735    1.2275   -3.3302 C   0  0  0  0  0  0  0  0  0  0  0  0
    0.5703    0.0301   -2.6312 C   0  0  0  0  0  0  0  0  0  0  0  0
    0.5398    0.0328   -1.2452 C   0  0  0  0  0  0  0  0  0  0  0  0
   -0.0764    0.1601    1.4486 H   0  0  0  0  0  0  0  0  0  0  0  0
    1.5357    1.2381    1.3593 H   0  0  0  0  0  0  0  0  0  0  0  0
    0.0025    2.1047    1.3693 H   0  0  0  0  0  0  0  0  0  0  0  0
    0.4869    3.3623   -0.7074 H   0  0  0  0  0  0  0  0  0  0  0  0
    0.5413    3.3657   -3.1669 H   0  0  0  0  0  0  0  0  0  0  0  0
    0.5946    1.2277   -4.4126 H   0  0  0  0  0  0  0  0  0  0  0  0
    0.5885   -0.9109   -3.1669 H   0  0  0  0  0  0  0  0  0  0  0  0
    0.5340   -0.9086   -0.7074 H   0  0  0  0  0  0  0  0  0  0  0  0
  1  2  3  0
  1  6  1  0
  2  3  1  0
  3  4  1  0
  3  7  1  0
  4  5  3  0
  5  8  1  0
  9 10  1  0
  9 16  1  0
  9 17  1  0
  9 18  1  0
 10 11  2  0
 10 15  1  0
 11 12  1  0
 11 19  1  0
 12 13  2  0
 12 20  1  0
 13 14  1  0
 13 21  1  0
 14 15  2  0
 14 22  1  0
 15 23  1  0
M  RAD  1   3   2
M  END
>  <reaction>  (5) 
rxn_1446

>  <mol_properties>  (5) 
{"1": {"label": "*0", "atom_type": "Ct"}, "2": {"label": "*1", "atom_type": "Cs"}, "8": {"label": "*3", "atom_type": "Cd"}, "9": {"label": "*4", "atom_type": "Cd"}, "15": {"label": "*2", "atom_type": "H0"}}

>  <type>  (5) 
unop_1

>  <geom_source>  (5) 
Heuristics

$$$$

     RDKit          3D

 23 22  0  0  0  0  0  0  0  0999 V2000
   -0.1268   -3.0294    0.3854 C   0  0  0  0  0  0  0  0  0  0  0  0
   -0.2717   -2.1248    1.1534 C   0  0  0  0  0  0  0  0  0  0  0  0
   -0.4491   -1.0177    2.0933 C   0  0  0  0  0  3  0  0  0  0  0  0
   -1.7828   -0.9725    2.6929 C   0  0  0  0  0  0  0  0  0  0  0  0
   -2.8726   -0.9355    3.1830 C   0  0  0  0  0  0  0  0  0  0  0  0
    0.0021   -3.8341   -0.2979 H   0  0  0  0  0  0  0  0  0  0  0  0
    0.2991   -1.0970    2.8869 H   0  0  0  0  0  0  0  0  0  0  0  0
   -3.8421   -0.9026    3.6189 H   0  0  0  0  0  0  0  0  0  0  0  0
    0.7323    1.1187    1.1398 C   0  0  0  0  0  0  0  0  0  0  0  0
    0.7323    1.1187   -0.3639 C   0  0  0  0  0  0  0  0  0  0  0  0
    0.7323    2.3130   -1.0780 C   0  0  0  0  0  0  0  0  0  0  0  0
    0.7628    2.3164   -2.4640 C   0  0  0  0  0  0  0  0  0  0  0  0
    0.7923    1.1194   -3.1630 C   0  0  0  0  0  0  0  0  0  0  0  0
    0.7892   -0.0780   -2.4640 C   0  0  0  0  0  0  0  0  0  0  0  0
    0.7587   -0.0753   -1.0780 C   0  0  0  0  0  0  0  0  0  0  0  0
    0.1425    0.0520    1.6159 H   0  0  0  0  0  0  0  0  0  0  0  0
    1.7546    1.1300    1.5266 H   0  0  0  0  0  0  0  0  0  0  0  0
    0.2213    1.9966    1.5365 H   0  0  0  0  0  0  0  0  0  0  0  0
    0.7057    3.2541   -0.5402 H   0  0  0  0  0  0  0  0  0  0  0  0
    0.7601    3.2576   -2.9997 H   0  0  0  0  0  0  0  0  0  0  0  0
    0.8135    1.1196   -4.2454 H   0  0  0  0  0  0  0  0  0  0  0  0
    0.8073   -1.0190   -2.9997 H   0  0  0  0  0  0  0  0  0  0  0  0
    0.7528   -1.0168   -0.5402 H   0  0  0  0  0  0  0  0  0  0  0  0
  1  2  3  0
  1  6  1  0
  2  3  1  0
  3  4  1  0
  3  7  1  0
  4  5  3  0
  5  8  1  0
  9 10  1  0
  9 16  1  0
  9 17  1  0
  9 18  1  0
 10 11  2  0
 10 15  1  0
 11 12  1  0
 11 19  1  0
 12 13  2  0
 12 20  1  0
 13 14  1  0
 13 21  1  0
 14 15  2  0
 14 22  1  0
 15 23  1  0
M  RAD  1   3   2
M  END
>  <reaction>  (6) 
rxn_1446

>  <mol_properties>  (6) 
{"1": {"label": "*0", "atom_type": "Ct"}, "2": {"label": "*1", "atom_type": "Cs"}, "8": {"label": "*3", "atom_type": "Cd"}, "9": {"label": "*4", "atom_type": "Cd"}, "15": {"label": "*2", "atom_type": "H0"}}

>  <type>  (6) 
unop_2

>  <geom_source>  (6) 
Heuristics

$$$$

     RDKit          3D

 23 22  0  0  0  0  0  0  0  0999 V2000
    0.3548   -1.5458    4.2314 C   0  0  0  0  0  0  0  0  0  0  0  0
   -0.1344   -1.2639    3.1777 C   0  0  0  0  0  0  0  0  0  0  0  0
   -0.7331   -0.9188    1.8881 C   0  0  0  0  0  3  0  0  0  0  0  0
   -1.2334   -2.0790    1.1506 C   0  0  0  0  0  0  0  0  0  0  0  0
   -1.6422   -3.0271    0.5479 C   0  0  0  0  0  0  0  0  0  0  0  0
    0.7900   -1.7967    5.1688 H   0  0  0  0  0  0  0  0  0  0  0  0
   -1.5542   -0.2149    2.0502 H   0  0  0  0  0  0  0  0  0  0  0  0
   -2.0058   -3.8705    0.0117 H   0  0  0  0  0  0  0  0  0  0  0  0
    0.4483    1.2176    0.9347 C   0  0  0  0  0  0  0  0  0  0  0  0
    0.4483    1.2176   -0.5691 C   0  0  0  0  0  0  0  0  0  0  0  0
    0.4483    2.4119   -1.2831 C   0  0  0  0  0  0  0  0  0  0  0  0
    0.4787    2.4153   -2.6691 C   0  0  0  0  0  0  0  0  0  0  0  0
    0.5083    1.2183   -3.3681 C   0  0  0  0  0  0  0  0  0  0  0  0
    0.5051    0.0209   -2.6691 C   0  0  0  0  0  0  0  0  0  0  0  0
    0.4746    0.0236   -1.2831 C   0  0  0  0  0  0  0  0  0  0  0  0
   -0.1416    0.1509    1.4107 H   0  0  0  0  0  0  0  0  0  0  0  0
    1.4705    1.2289    1.3214 H   0  0  0  0  0  0  0  0  0  0  0  0
   -0.0628    2.0955    1.3314 H   0  0  0  0  0  0  0  0  0  0  0  0
    0.4217    3.3530   -0.7453 H   0  0  0  0  0  0  0  0  0  0  0  0
    0.4761    3.3565   -3.2048 H   0  0  0  0  0  0  0  0  0  0  0  0
    0.5294    1.2185   -4.4505 H   0  0  0  0  0  0  0  0  0  0  0  0
    0.5232   -0.9201   -3.2048 H   0  0  0  0  0  0  0  0  0  0  0  0
    0.4688   -0.9179   -0.7453 H   0  0  0  0  0  0  0  0  0  0  0  0
  1  2  3  0
  1  6  1  0
  2  3  1  0
  3  4  1  0
  3  7  1  0
  4  5  3  0
  5  8  1  0
  9 10  1  0
  9 16  1  0
  9 17  1  0
  9 18  1  0
 10 11  2  0
 10 15  1  0
 11 12  1  0
 11 19  1  0
 12 13  2  0
 12 20  1  0
 13 14  1  0
 13 21  1  0
 14 15  2  0
 14 22  1  0
 15 23  1  0
M  RAD  1   3   2
M  END
>  <reaction>  (7) 
rxn_1446

>  <mol_properties>  (7) 
{"1": {"label": "*0", "atom_type": "Ct"}, "2": {"label": "*1", "atom_type": "Cs"}, "8": {"label": "*3", "atom_type": "Cd"}, "9": {"label": "*4", "atom_type": "Cd"}, "15": {"label": "*2", "atom_type": "H0"}}

>  <type>  (7) 
unop_3

>  <geom_source>  (7) 
Heuristics

$$$$

     RDKit          3D

 23 22  0  0  0  0  0  0  0  0999 V2000
   -2.9496   -1.4767    0.9776 C   0  0  0  0  0  0  0  0  0  0  0  0
   -1.8174   -1.4501    1.3607 C   0  0  0  0  0  0  0  0  0  0  0  0
   -0.4319   -1.4176    1.8294 C   0  0  0  0  0  3  0  0  0  0  0  0
   -0.2654   -0.7156    3.1021 C   0  0  0  0  0  0  0  0  0  0  0  0
   -0.1292   -0.1419    4.1421 C   0  0  0  0  0  0  0  0  0  0  0  0
   -3.9567   -1.5004    0.6369 H   0  0  0  0  0  0  0  0  0  0  0  0
   -0.0638   -2.4421    1.9334 H   0  0  0  0  0  0  0  0  0  0  0  0
   -0.0081    0.3684    5.0673 H   0  0  0  0  0  0  0  0  0  0  0  0
    0.7495    0.7188    0.8760 C   0  0  0  0  0  0  0  0  0  0  0  0
    0.7495    0.7188   -0.6278 C   0  0  0  0  0  0  0  0  0  0  0  0
    0.7495    1.9132   -1.3418 C   0  0  0  0  0  0  0  0  0  0  0  0
    0.7799    1.9165   -2.7278 C   0  0  0  0  0  0  0  0  0  0  0  0
    0.8095    0.7195   -3.4268 C   0  0  0  0  0  0  0  0  0  0  0  0
    0.8063   -0.4779   -2.7278 C   0  0  0  0  0  0  0  0  0  0  0  0
    0.7758   -0.4752   -1.3418 C   0  0  0  0  0  0  0  0  0  0  0  0
    0.1596   -0.3479    1.3520 H   0  0  0  0  0  0  0  0  0  0  0  0
    1.7717    0.7301    1.2627 H   0  0  0  0  0  0  0  0  0  0  0  0
    0.2385    1.5967    1.2727 H   0  0  0  0  0  0  0  0  0  0  0  0
    0.7229    2.8543   -0.8040 H   0  0  0  0  0  0  0  0  0  0  0  0
    0.7773    2.8577   -3.2635 H   0  0  0  0  0  0  0  0  0  0  0  0
    0.8306    0.7197   -4.5092 H   0  0  0  0  0  0  0  0  0  0  0  0
    0.8244   -1.4189   -3.2635 H   0  0  0  0  0  0  0  0  0  0  0  0
    0.7700   -1.4166   -0.8040 H   0  0  0  0  0  0  0  0  0  0  0  0
  1  2  3  0
  1  6  1  0
  2  3  1  0
  3  4  1  0
  3  7  1  0
  4  5  3  0
  5  8  1  0
  9 10  1  0
  9 16  1  0
  9 17  1  0
  9 18  1  0
 10 11  2  0
 10 15  1  0
 11 12  1  0
 11 19  1  0
 12 13  2  0
 12 20  1  0
 13 14  1  0
 13 21  1  0
 14 15  2  0
 14 22  1  0
 15 23  1  0
M  RAD  1   3   2
M  END
>  <reaction>  (8) 
rxn_1446

>  <mol_properties>  (8) 
{"1": {"label": "*0", "atom_type": "Ct"}, "2": {"label": "*1", "atom_type": "Cs"}, "8": {"label": "*3", "atom_type": "Cd"}, "9": {"label": "*4", "atom_type": "Cd"}, "15": {"label": "*2", "atom_type": "H0"}}

>  <type>  (8) 
unop_4

>  <geom_source>  (8) 
Heuristics

$$$$

     RDKit          3D

 23 22  0  0  0  0  0  0  0  0999 V2000
   -0.8171   -0.9117    4.4645 C   0  0  0  0  0  0  0  0  0  0  0  0
   -0.8389   -0.9511    3.2699 C   0  0  0  0  0  0  0  0  0  0  0  0
   -0.8655   -0.9993    1.8079 C   0  0  0  0  0  3  0  0  0  0  0  0
   -0.2232   -2.1912    1.2540 C   0  0  0  0  0  0  0  0  0  0  0  0
    0.3018   -3.1653    0.8013 C   0  0  0  0  0  0  0  0  0  0  0  0
   -0.7977   -0.8766    5.5273 H   0  0  0  0  0  0  0  0  0  0  0  0
   -1.9035   -0.9589    1.4661 H   0  0  0  0  0  0  0  0  0  0  0  0
    0.7688   -4.0318    0.3986 H   0  0  0  0  0  0  0  0  0  0  0  0
    0.3159    1.1372    0.8545 C   0  0  0  0  0  0  0  0  0  0  0  0
    0.3159    1.1372   -0.6493 C   0  0  0  0  0  0  0  0  0  0  0  0
    0.3159    2.3315   -1.3633 C   0  0  0  0  0  0  0  0  0  0  0  0
    0.3463    2.3348   -2.7493 C   0  0  0  0  0  0  0  0  0  0  0  0
    0.3758    1.1378   -3.4483 C   0  0  0  0  0  0  0  0  0  0  0  0
    0.3727   -0.0596   -2.7493 C   0  0  0  0  0  0  0  0  0  0  0  0
    0.3422   -0.0569   -1.3633 C   0  0  0  0  0  0  0  0  0  0  0  0
   -0.2740    0.0704    1.3305 H   0  0  0  0  0  0  0  0  0  0  0  0
    1.3381    1.1484    1.2412 H   0  0  0  0  0  0  0  0  0  0  0  0
   -0.1952    2.0150    1.2512 H   0  0  0  0  0  0  0  0  0  0  0  0
    0.2892    3.2726   -0.8255 H   0  0  0  0  0  0  0  0  0  0  0  0
    0.3437    3.2760   -3.2850 H   0  0  0  0  0  0  0  0  0  0  0  0
    0.3970    1.1381   -4.5307 H   0  0  0  0  0  0  0  0  0  0  0  0
    0.3908   -1.0006   -3.2850 H   0  0  0  0  0  0  0  0  0  0  0  0
    0.3363   -0.9983   -0.8255 H   0  0  0  0  0  0  0  0  0  0  0  0
  1  2  3  0
  1  6  1  0
  2  3  1  0
  3  4  1  0
  3  7  1  0
  4  5  3  0
  5  8  1  0
  9 10  1  0
  9 16  1  0
  9 17  1  0
  9 18  1  0
 10 11  2  0
 10 15  1  0
 11 12  1  0
 11 19  1  0
 12 13  2  0
 12 20  1  0
 13 14  1  0
 13 21  1  0
 14 15  2  0
 14 22  1  0
 15 23  1  0
M  RAD  1   3   2
M  END
>  <reaction>  (9) 
rxn_1446

>  <mol_properties>  (9) 
{"1": {"label": "*0", "atom_type": "Ct"}, "2": {"label": "*1", "atom_type": "Cs"}, "8": {"label": "*3", "atom_type": "Cd"}, "9": {"label": "*4", "atom_type": "Cd"}, "15": {"label": "*2", "atom_type": "H0"}}

>  <type>  (9) 
unop_5

>  <geom_source>  (9) 
Heuristics

$$$$

     RDKit          3D

 23 22  0  0  0  0  0  0  0  0999 V2000
   -3.1661   -0.9308    2.0343 C   0  0  0  0  0  0  0  0  0  0  0  0
   -2.0009   -1.1572    1.8915 C   0  0  0  0  0  0  0  0  0  0  0  0
   -0.5750   -1.4342    1.7167 C   0  0  0  0  0  3  0  0  0  0  0  0
    0.2484   -0.9695    2.8331 C   0  0  0  0  0  0  0  0  0  0  0  0
    0.9213   -0.5897    3.7453 C   0  0  0  0  0  0  0  0  0  0  0  0
   -4.2026   -0.7295    2.1614 H   0  0  0  0  0  0  0  0  0  0  0  0
   -0.4314   -2.5106    1.5881 H   0  0  0  0  0  0  0  0  0  0  0  0
    1.5199   -0.2519    4.5569 H   0  0  0  0  0  0  0  0  0  0  0  0
    0.6064    0.7022    0.7632 C   0  0  0  0  0  0  0  0  0  0  0  0
    0.6064    0.7022   -0.7405 C   0  0  0  0  0  0  0  0  0  0  0  0
    0.6064    1.8966   -1.4546 C   0  0  0  0  0  0  0  0  0  0  0  0
    0.6368    1.8999   -2.8406 C   0  0  0  0  0  0  0  0  0  0  0  0
    0.6663    0.7029   -3.5396 C   0  0  0  0  0  0  0  0  0  0  0  0
    0.6632   -0.4945   -2.8406 C   0  0  0  0  0  0  0  0  0  0  0  0
    0.6327   -0.4918   -1.4546 C   0  0  0  0  0  0  0  0  0  0  0  0
    0.0165   -0.3645    1.2393 H   0  0  0  0  0  0  0  0  0  0  0  0
    1.6286    0.7135    1.1500 H   0  0  0  0  0  0  0  0  0  0  0  0
    0.0953    1.5801    1.1599 H   0  0  0  0  0  0  0  0  0  0  0  0
    0.5797    2.8377   -0.9168 H   0  0  0  0  0  0  0  0  0  0  0  0
    0.6342    2.8411   -3.3763 H   0  0  0  0  0  0  0  0  0  0  0  0
    0.6875    0.7031   -4.6220 H   0  0  0  0  0  0  0  0  0  0  0  0
    0.6813   -1.4355   -3.3763 H   0  0  0  0  0  0  0  0  0  0  0  0
    0.6268   -1.4332   -0.9168 H   0  0  0  0  0  0  0  0  0  0  0  0
  1  2  3  0
  1  6  1  0
  2  3  1  0
  3  4  1  0
  3  7  1  0
  4  5  3  0
  5  8  1  0
  9 10  1  0
  9 16  1  0
  9 17  1  0
  9 18  1  0
 10 11  2  0
 10 15  1  0
 11 12  1  0
 11 19  1  0
 12 13  2  0
 12 20  1  0
 13 14  1  0
 13 21  1  0
 14 15  2  0
 14 22  1  0
 15 23  1  0
M  RAD  1   3   2
M  END
>  <reaction>  (10) 
rxn_1446

>  <mol_properties>  (10) 
{"1": {"label": "*0", "atom_type": "Ct"}, "2": {"label": "*1", "atom_type": "Cs"}, "8": {"label": "*3", "atom_type": "Cd"}, "9": {"label": "*4", "atom_type": "Cd"}, "15": {"label": "*2", "atom_type": "H0"}}

>  <type>  (10) 
unop_6

>  <geom_source>  (10) 
Heuristics

$$$$

     RDKit          3D

 23 22  0  0  0  0  0  0  0  0999 V2000
   -2.8206   -0.6248    3.1476 C   0  0  0  0  0  0  0  0  0  0  0  0
   -1.8872   -0.9576    2.4788 C   0  0  0  0  0  0  0  0  0  0  0  0
   -0.7450   -1.3650    1.6604 C   0  0  0  0  0  3  0  0  0  0  0  0
    0.5283   -1.3275    2.3799 C   0  0  0  0  0  0  0  0  0  0  0  0
    1.5687   -1.2968    2.9679 C   0  0  0  0  0  0  0  0  0  0  0  0
   -3.6509   -0.3286    3.7425 H   0  0  0  0  0  0  0  0  0  0  0  0
   -0.9155   -2.3777    1.2845 H   0  0  0  0  0  0  0  0  0  0  0  0
    2.4943   -1.2695    3.4909 H   0  0  0  0  0  0  0  0  0  0  0  0
    0.4364    0.7714    0.7069 C   0  0  0  0  0  0  0  0  0  0  0  0
    0.4364    0.7714   -0.7968 C   0  0  0  0  0  0  0  0  0  0  0  0
    0.4364    1.9658   -1.5108 C   0  0  0  0  0  0  0  0  0  0  0  0
    0.4668    1.9691   -2.8968 C   0  0  0  0  0  0  0  0  0  0  0  0
    0.4964    0.7721   -3.5958 C   0  0  0  0  0  0  0  0  0  0  0  0
    0.4932   -0.4253   -2.8968 C   0  0  0  0  0  0  0  0  0  0  0  0
    0.4627   -0.4226   -1.5108 C   0  0  0  0  0  0  0  0  0  0  0  0
   -0.1535   -0.2953    1.1830 H   0  0  0  0  0  0  0  0  0  0  0  0
    1.4586    0.7827    1.0937 H   0  0  0  0  0  0  0  0  0  0  0  0
   -0.0746    1.6493    1.1037 H   0  0  0  0  0  0  0  0  0  0  0  0
    0.4098    2.9069   -0.9730 H   0  0  0  0  0  0  0  0  0  0  0  0
    0.4642    2.9103   -3.4325 H   0  0  0  0  0  0  0  0  0  0  0  0
    0.5175    0.7723   -4.6782 H   0  0  0  0  0  0  0  0  0  0  0  0
    0.5114   -1.3663   -3.4325 H   0  0  0  0  0  0  0  0  0  0  0  0
    0.4569   -1.3640   -0.9730 H   0  0  0  0  0  0  0  0  0  0  0  0
  1  2  3  0
  1  6  1  0
  2  3  1  0
  3  4  1  0
  3  7  1  0
  4  5  3  0
  5  8  1  0
  9 10  1  0
  9 16  1  0
  9 17  1  0
  9 18  1  0
 10 11  2  0
 10 15  1  0
 11 12  1  0
 11 19  1  0
 12 13  2  0
 12 20  1  0
 13 14  1  0
 13 21  1  0
 14 15  2  0
 14 22  1  0
 15 23  1  0
M  RAD  1   3   2
M  END
>  <reaction>  (11) 
rxn_1446

>  <mol_properties>  (11) 
{"1": {"label": "*0", "atom_type": "Ct"}, "2": {"label": "*1", "atom_type": "Cs"}, "8": {"label": "*3", "atom_type": "Cd"}, "9": {"label": "*4", "atom_type": "Cd"}, "15": {"label": "*2", "atom_type": "H0"}}

>  <type>  (11) 
unop_7

>  <geom_source>  (11) 
Heuristics

$$$$

     RDKit          3D

 23 22  0  0  0  0  0  0  0  0999 V2000
    1.1778   -2.8343    2.3002 C   0  0  0  0  0  0  0  0  0  0  0  0
    0.3666   -1.9678    2.1574 C   0  0  0  0  0  0  0  0  0  0  0  0
   -0.6260   -0.9074    1.9826 C   0  0  0  0  0  3  0  0  0  0  0  0
   -2.0025   -1.4013    1.9390 C   0  0  0  0  0  0  0  0  0  0  0  0
   -3.1272   -1.8049    1.9034 C   0  0  0  0  0  0  0  0  0  0  0  0
    1.8994   -3.6052    2.4273 H   0  0  0  0  0  0  0  0  0  0  0  0
   -0.5288   -0.1863    2.7989 H   0  0  0  0  0  0  0  0  0  0  0  0
   -4.1278   -2.1639    1.8718 H   0  0  0  0  0  0  0  0  0  0  0  0
    0.5554    1.2290    1.0291 C   0  0  0  0  0  0  0  0  0  0  0  0
    0.5554    1.2290   -0.4747 C   0  0  0  0  0  0  0  0  0  0  0  0
    0.5554    2.4233   -1.1887 C   0  0  0  0  0  0  0  0  0  0  0  0
    0.5858    2.4267   -2.5747 C   0  0  0  0  0  0  0  0  0  0  0  0
    0.6154    1.2297   -3.2737 C   0  0  0  0  0  0  0  0  0  0  0  0
    0.6122    0.0323   -2.5747 C   0  0  0  0  0  0  0  0  0  0  0  0
    0.5817    0.0350   -1.1887 C   0  0  0  0  0  0  0  0  0  0  0  0
   -0.0345    0.1623    1.5051 H   0  0  0  0  0  0  0  0  0  0  0  0
    1.5776    1.2403    1.4158 H   0  0  0  0  0  0  0  0  0  0  0  0
    0.0444    2.1069    1.4258 H   0  0  0  0  0  0  0  0  0  0  0  0
    0.5288    3.3644   -0.6509 H   0  0  0  0  0  0  0  0  0  0  0  0
    0.5832    3.3679   -3.1104 H   0  0  0  0  0  0  0  0  0  0  0  0
    0.6365    1.2299   -4.3561 H   0  0  0  0  0  0  0  0  0  0  0  0
    0.6304   -0.9087   -3.1104 H   0  0  0  0  0  0  0  0  0  0  0  0
    0.5759   -0.9065   -0.6509 H   0  0  0  0  0  0  0  0  0  0  0  0
  1  2  3  0
  1  6  1  0
  2  3  1  0
  3  4  1  0
  3  7  1  0
  4  5  3  0
  5  8  1  0
  9 10  1  0
  9 16  1  0
  9 17  1  0
  9 18  1  0
 10 11  2  0
 10 15  1  0
 11 12  1  0
 11 19  1  0
 12 13  2  0
 12 20  1  0
 13 14  1  0
 13 21  1  0
 14 15  2  0
 14 22  1  0
 15 23  1  0
M  RAD  1   3   2
M  END
>  <reaction>  (12) 
rxn_1446

>  <mol_properties>  (12) 
{"1": {"label": "*0", "atom_type": "Ct"}, "2": {"label": "*1", "atom_type": "Cs"}, "8": {"label": "*3", "atom_type": "Cd"}, "9": {"label": "*4", "atom_type": "Cd"}, "15": {"label": "*2", "atom_type": "H0"}}

>  <type>  (12) 
unop_8

>  <geom_source>  (12) 
Heuristics

$$$$

     RDKit          3D

 23 22  0  0  0  0  0  0  0  0999 V2000
   -2.2262   -2.1160    0.2533 C   0  0  0  0  0  0  0  0  0  0  0  0
   -1.3830   -1.7578    1.0214 C   0  0  0  0  0  0  0  0  0  0  0  0
   -0.3511   -1.3195    1.9613 C   0  0  0  0  0  3  0  0  0  0  0  0
   -0.8888   -0.6345    3.1368 C   0  0  0  0  0  0  0  0  0  0  0  0
   -1.3283   -0.0747    4.0974 C   0  0  0  0  0  0  0  0  0  0  0  0
   -2.9763   -2.4346   -0.4299 H   0  0  0  0  0  0  0  0  0  0  0  0
    0.2310   -2.1865    2.2857 H   0  0  0  0  0  0  0  0  0  0  0  0
   -1.7192    0.4232    4.9520 H   0  0  0  0  0  0  0  0  0  0  0  0
    0.8303    0.8170    1.0078 C   0  0  0  0  0  0  0  0  0  0  0  0
    0.8303    0.8170   -0.4960 C   0  0  0  0  0  0  0  0  0  0  0  0
    0.8303    2.0113   -1.2100 C   0  0  0  0  0  0  0  0  0  0  0  0
    0.8608    2.0147   -2.5960 C   0  0  0  0  0  0  0  0  0  0  0  0
    0.8903    0.8176   -3.2950 C   0  0  0  0  0  0  0  0  0  0  0  0
    0.8872   -0.3797   -2.5960 C   0  0  0  0  0  0  0  0  0  0  0  0
    0.8567   -0.3770   -1.2100 C   0  0  0  0  0  0  0  0  0  0  0  0
    0.2405   -0.2497    1.4839 H   0  0  0  0  0  0  0  0  0  0  0  0
    1.8526    0.8282    1.3945 H   0  0  0  0  0  0  0  0  0  0  0  0
    0.3193    1.6949    1.4045 H   0  0  0  0  0  0  0  0  0  0  0  0
    0.8037    2.9524   -0.6722 H   0  0  0  0  0  0  0  0  0  0  0  0
    0.8582    2.9559   -3.1317 H   0  0  0  0  0  0  0  0  0  0  0  0
    0.9115    0.8179   -4.3774 H   0  0  0  0  0  0  0  0  0  0  0  0
    0.9053   -1.3208   -3.1317 H   0  0  0  0  0  0  0  0  0  0  0  0
    0.8508   -1.3185   -0.6722 H   0  0  0  0  0  0  0  0  0  0  0  0
  1  2  3  0
  1  6  1  0
  2  3  1  0
  3  4  1  0
  3  7  1  0
  4  5  3  0
  5  8  1  0
  9 10  1  0
  9 16  1  0
  9 17  1  0
  9 18  1  0
 10 11  2  0
 10 15  1  0
 11 12  1  0
 11 19  1  0
 12 13  2  0
 12 20  1  0
 13 14  1  0
 13 21  1  0
 14 15  2  0
 14 22  1  0
 15 23  1  0
M  RAD  1   3   2
M  END
>  <reaction>  (13) 
rxn_1446

>  <mol_properties>  (13) 
{"1": {"label": "*0", "atom_type": "Ct"}, "2": {"label": "*1", "atom_type": "Cs"}, "8": {"label": "*3", "atom_type": "Cd"}, "9": {"label": "*4", "atom_type": "Cd"}, "15": {"label": "*2", "atom_type": "H0"}}

>  <type>  (13) 
unop_9

>  <geom_source>  (13) 
Heuristics

$$$$

     RDKit          3D

 23 22  0  0  0  0  0  0  0  0999 V2000
    0.7342   -3.0969    1.2000 C   0  0  0  0  0  0  0  0  0  0  0  0
    0.1548   -2.1238    1.5830 C   0  0  0  0  0  0  0  0  0  0  0  0
   -0.5542   -0.9331    2.0518 C   0  0  0  0  0  3  0  0  0  0  0  0
   -1.9644   -1.1779    2.3545 C   0  0  0  0  0  0  0  0  0  0  0  0
   -3.1168   -1.3780    2.6019 C   0  0  0  0  0  0  0  0  0  0  0  0
    1.2496   -3.9625    0.8592 H   0  0  0  0  0  0  0  0  0  0  0  0
   -0.0565   -0.5475    2.9459 H   0  0  0  0  0  0  0  0  0  0  0  0
   -4.1419   -1.5560    2.8220 H   0  0  0  0  0  0  0  0  0  0  0  0
    0.6272    1.2034    1.0983 C   0  0  0  0  0  0  0  0  0  0  0  0
    0.6272    1.2034   -0.4055 C   0  0  0  0  0  0  0  0  0  0  0  0
    0.6272    2.3977   -1.1195 C   0  0  0  0  0  0  0  0  0  0  0  0
    0.6577    2.4010   -2.5055 C   0  0  0  0  0  0  0  0  0  0  0  0
    0.6872    1.2040   -3.2045 C   0  0  0  0  0  0  0  0  0  0  0  0
    0.6841    0.0066   -2.5055 C   0  0  0  0  0  0  0  0  0  0  0  0
    0.6536    0.0093   -1.1195 C   0  0  0  0  0  0  0  0  0  0  0  0
    0.0374    0.1366    1.5744 H   0  0  0  0  0  0  0  0  0  0  0  0
    1.6495    1.2146    1.4850 H   0  0  0  0  0  0  0  0  0  0  0  0
    0.1162    2.0812    1.4950 H   0  0  0  0  0  0  0  0  0  0  0  0
    0.6006    3.3388   -0.5817 H   0  0  0  0  0  0  0  0  0  0  0  0
    0.6550    3.3422   -3.0412 H   0  0  0  0  0  0  0  0  0  0  0  0
    0.7084    1.2043   -4.2869 H   0  0  0  0  0  0  0  0  0  0  0  0
    0.7022   -0.9344   -3.0412 H   0  0  0  0  0  0  0  0  0  0  0  0
    0.6477   -0.9321   -0.5817 H   0  0  0  0  0  0  0  0  0  0  0  0
  1  2  3  0
  1  6  1  0
  2  3  1  0
  3  4  1  0
  3  7  1  0
  4  5  3  0
  5  8  1  0
  9 10  1  0
  9 16  1  0
  9 17  1  0
  9 18  1  0
 10 11  2  0
 10 15  1  0
 11 12  1  0
 11 19  1  0
 12 13  2  0
 12 20  1  0
 13 14  1  0
 13 21  1  0
 14 15  2  0
 14 22  1  0
 15 23  1  0
M  RAD  1   3   2
M  END
>  <reaction>  (14) 
rxn_1446

>  <mol_properties>  (14) 
{"1": {"label": "*0", "atom_type": "Ct"}, "2": {"label": "*1", "atom_type": "Cs"}, "8": {"label": "*3", "atom_type": "Cd"}, "9": {"label": "*4", "atom_type": "Cd"}, "15": {"label": "*2", "atom_type": "H0"}}

>  <type>  (14) 
unop_10

>  <geom_source>  (14) 
Heuristics

$$$$

     RDKit          3D

 23 22  0  0  0  0  0  0  0  0999 V2000
   -1.9920   -0.6164    4.0350 C   0  0  0  0  0  0  0  0  0  0  0  0
   -1.4931   -0.8808    2.9813 C   0  0  0  0  0  0  0  0  0  0  0  0
   -0.8826   -1.2044    1.6917 C   0  0  0  0  0  3  0  0  0  0  0  0
    0.4587   -1.7764    1.8110 C   0  0  0  0  0  0  0  0  0  0  0  0
    1.5548   -2.2437    1.9085 C   0  0  0  0  0  0  0  0  0  0  0  0
   -2.4359   -0.3811    4.9724 H   0  0  0  0  0  0  0  0  0  0  0  0
   -1.5264   -1.9074    1.1558 H   0  0  0  0  0  0  0  0  0  0  0  0
    2.5298   -2.6594    1.9951 H   0  0  0  0  0  0  0  0  0  0  0  0
    0.2988    0.9320    0.7383 C   0  0  0  0  0  0  0  0  0  0  0  0
    0.2988    0.9320   -0.7655 C   0  0  0  0  0  0  0  0  0  0  0  0
    0.2988    2.1263   -1.4795 C   0  0  0  0  0  0  0  0  0  0  0  0
    0.3293    2.1297   -2.8655 C   0  0  0  0  0  0  0  0  0  0  0  0
    0.3588    0.9326   -3.5645 C   0  0  0  0  0  0  0  0  0  0  0  0
    0.3557   -0.2647   -2.8655 C   0  0  0  0  0  0  0  0  0  0  0  0
    0.3252   -0.2620   -1.4795 C   0  0  0  0  0  0  0  0  0  0  0  0
   -0.2910   -0.1347    1.2143 H   0  0  0  0  0  0  0  0  0  0  0  0
    1.3211    0.9432    1.1250 H   0  0  0  0  0  0  0  0  0  0  0  0
   -0.2122    1.8099    1.1350 H   0  0  0  0  0  0  0  0  0  0  0  0
    0.2722    3.0674   -0.9417 H   0  0  0  0  0  0  0  0  0  0  0  0
    0.3266    3.0709   -3.4012 H   0  0  0  0  0  0  0  0  0  0  0  0
    0.3800    0.9329   -4.6469 H   0  0  0  0  0  0  0  0  0  0  0  0
    0.3738   -1.2058   -3.4012 H   0  0  0  0  0  0  0  0  0  0  0  0
    0.3193   -1.2035   -0.9417 H   0  0  0  0  0  0  0  0  0  0  0  0
  1  2  3  0
  1  6  1  0
  2  3  1  0
  3  4  1  0
  3  7  1  0
  4  5  3  0
  5  8  1  0
  9 10  1  0
  9 16  1  0
  9 17  1  0
  9 18  1  0
 10 11  2  0
 10 15  1  0
 11 12  1  0
 11 19  1  0
 12 13  2  0
 12 20  1  0
 13 14  1  0
 13 21  1  0
 14 15  2  0
 14 22  1  0
 15 23  1  0
M  RAD  1   3   2
M  END
>  <reaction>  (15) 
rxn_1446

>  <mol_properties>  (15) 
{"1": {"label": "*0", "atom_type": "Ct"}, "2": {"label": "*1", "atom_type": "Cs"}, "8": {"label": "*3", "atom_type": "Cd"}, "9": {"label": "*4", "atom_type": "Cd"}, "15": {"label": "*2", "atom_type": "H0"}}

>  <type>  (15) 
unop_11

>  <geom_source>  (15) 
Heuristics

$$$$

     RDKit          3D

 23 22  0  0  0  0  0  0  0  0999 V2000
   -1.1959   -2.6757    0.0426 C   0  0  0  0  0  0  0  0  0  0  0  0
   -0.8201   -1.9961    0.9516 C   0  0  0  0  0  0  0  0  0  0  0  0
   -0.3602   -1.1645    2.0639 C   0  0  0  0  0  3  0  0  0  0  0  0
   -1.4358   -0.7559    2.9675 C   0  0  0  0  0  0  0  0  0  0  0  0
   -2.3148   -0.4221    3.7059 C   0  0  0  0  0  0  0  0  0  0  0  0
   -1.5302   -3.2802   -0.7660 H   0  0  0  0  0  0  0  0  0  0  0  0
    0.3977   -1.7113    2.6318 H   0  0  0  0  0  0  0  0  0  0  0  0
   -3.0967   -0.1251    4.3627 H   0  0  0  0  0  0  0  0  0  0  0  0
    0.8212    0.9720    1.1104 C   0  0  0  0  0  0  0  0  0  0  0  0
    0.8212    0.9720   -0.3933 C   0  0  0  0  0  0  0  0  0  0  0  0
    0.8212    2.1663   -1.1074 C   0  0  0  0  0  0  0  0  0  0  0  0
    0.8516    2.1696   -2.4934 C   0  0  0  0  0  0  0  0  0  0  0  0
    0.8812    0.9726   -3.1924 C   0  0  0  0  0  0  0  0  0  0  0  0
    0.8780   -0.2248   -2.4934 C   0  0  0  0  0  0  0  0  0  0  0  0
    0.8475   -0.2221   -1.1074 C   0  0  0  0  0  0  0  0  0  0  0  0
    0.2313   -0.0948    1.5865 H   0  0  0  0  0  0  0  0  0  0  0  0
    1.8434    0.9832    1.4972 H   0  0  0  0  0  0  0  0  0  0  0  0
    0.3102    1.8499    1.5071 H   0  0  0  0  0  0  0  0  0  0  0  0
    0.7946    3.1074   -0.5695 H   0  0  0  0  0  0  0  0  0  0  0  0
    0.8490    3.1108   -3.0291 H   0  0  0  0  0  0  0  0  0  0  0  0
    0.9023    0.9729   -4.2747 H   0  0  0  0  0  0  0  0  0  0  0  0
    0.8962   -1.1658   -3.0291 H   0  0  0  0  0  0  0  0  0  0  0  0
    0.8417   -1.1635   -0.5695 H   0  0  0  0  0  0  0  0  0  0  0  0
  1  2  3  0
  1  6  1  0
  2  3  1  0
  3  4  1  0
  3  7  1  0
  4  5  3  0
  5  8  1  0
  9 10  1  0
  9 16  1  0
  9 17  1  0
  9 18  1  0
 10 11  2  0
 10 15  1  0
 11 12  1  0
 11 19  1  0
 12 13  2  0
 12 20  1  0
 13 14  1  0
 13 21  1  0
 14 15  2  0
 14 22  1  0
 15 23  1  0
M  RAD  1   3   2
M  END
>  <reaction>  (16) 
rxn_1446

>  <mol_properties>  (16) 
{"1": {"label": "*0", "atom_type": "Ct"}, "2": {"label": "*1", "atom_type": "Cs"}, "8": {"label": "*3", "atom_type": "Cd"}, "9": {"label": "*4", "atom_type": "Cd"}, "15": {"label": "*2", "atom_type": "H0"}}

>  <type>  (16) 
unop_12

>  <geom_source>  (16) 
Heuristics

$$$$

     RDKit          3D

 23 22  0  0  0  0  0  0  0  0999 V2000
   -2.2532   -0.6133   -0.5559 C   0  0  0  0  0  3  0  0  0  0  0  0
    1.1058   -0.4907    0.4424 C   0  0  0  0  0  0  0  0  0  0  0  0
    1.9681   -0.7924   -0.6239 C   0  0  0  0  0  0  0  0  0  0  0  0
    1.3255    0.6711    1.1998 C   0  0  0  0  0  0  0  0  0  0  0  0
    3.0548    0.0413   -0.9074 C   0  0  0  0  0  0  0  0  0  0  0  0
    3.2788    1.1864   -0.1377 C   0  0  0  0  0  0  0  0  0  0  0  0
    2.4133    1.5024    0.9134 C   0  0  0  0  0  0  0  0  0  0  0  0
   -0.0830   -1.3604    0.7215 C   0  0  0  0  0  0  0  0  0  0  0  0
   -3.4999   -0.8216    0.1832 C   0  0  0  0  0  0  0  0  0  0  0  0
   -2.2361    0.7351   -1.1263 C   0  0  0  0  0  0  0  0  0  0  0  0
   -4.5257   -0.9949    0.7927 C   0  0  0  0  0  0  0  0  0  0  0  0
   -2.2200    1.8452   -1.5965 C   0  0  0  0  0  0  0  0  0  0  0  0
   -2.1786   -1.3608   -1.3725 H   0  0  0  0  0  0  0  0  0  0  0  0
   -1.1681   -0.7642    0.3119 H   0  0  0  0  0  0  0  0  0  0  0  0
    1.8003   -1.6715   -1.2340 H   0  0  0  0  0  0  0  0  0  0  0  0
    3.7209   -0.1983   -1.7262 H   0  0  0  0  0  0  0  0  0  0  0  0
    0.6570    0.9324    2.0110 H   0  0  0  0  0  0  0  0  0  0  0  0
    4.1193    1.8314   -0.3591 H   0  0  0  0  0  0  0  0  0  0  0  0
    2.5830    2.3936    1.5037 H   0  0  0  0  0  0  0  0  0  0  0  0
   -0.3537   -1.3281    1.7984 H   0  0  0  0  0  0  0  0  0  0  0  0
    0.1238   -2.4157    0.4430 H   0  0  0  0  0  0  0  0  0  0  0  0
   -5.4261   -1.1469    1.3276 H   0  0  0  0  0  0  0  0  0  0  0  0
   -2.2060    2.8196   -2.0092 H   0  0  0  0  0  0  0  0  0  0  0  0
  1  9  1  0
  1 10  1  0
  1 13  1  0
  2  8  1  0
  2  3  2  0
  2  4  1  0
  3  5  1  0
  3 15  1  0
  4  7  2  0
  4 17  1  0
  5  6  2  0
  5 16  1  0
  6  7  1  0
  6 18  1  0
  7 19  1  0
  8 14  1  0
  8 20  1  0
  8 21  1  0
  9 11  3  0
 10 12  3  0
 11 22  1  0
 12 23  1  0
M  RAD  1   1   2
M  END
>  <reaction>  (17) 
rxn_1446

>  <mol_properties>  (17) 
{"1": {"label": "*0", "atom_type": "Ct"}, "2": {"label": "*1", "atom_type": "Cs"}, "8": {"label": "*3", "atom_type": "Cd"}, "9": {"label": "*4", "atom_type": "Cd"}, "15": {"label": "*2", "atom_type": "H0"}}

>  <type>  (17) 
unop_13

>  <geom_source>  (17) 
AutoTST

$$$$
