
     RDKit          3D

  5  4  0  0  0  0  0  0  0  0999 V2000
    0.0000    0.0000    0.0000 C   0  0  0  0  0  0  0  0  0  0  0  0
   -0.6486   -0.7720   -0.4113 H   0  0  0  0  0  0  0  0  0  0  0  0
   -0.3482    0.9787   -0.3267 H   0  0  0  0  0  0  0  0  0  0  0  0
   -0.0223   -0.0487    1.0876 H   0  0  0  0  0  0  0  0  0  0  0  0
    1.0191   -0.1580   -0.3496 H   0  0  0  0  0  0  0  0  0  0  0  0
  1  2  1  0
  1  3  1  0
  1  4  1  0
  1  5  1  0
M  END
>  <reaction>  (1) 
rxn_858

>  <mol_properties>  (1) 
{"0": {"label": "donator", "atom_type": "Cs"}, "1": {"label": "d_hydrogen", "atom_type": "H0"}}

>  <type>  (1) 
r1h

$$$$

     RDKit          3D

 10  9  0  0  0  0  0  0  0  0999 V2000
   -1.3354   -0.2069    0.0525 C   0  0  0  0  0  0  0  0  0  0  0  0
    0.0851    0.2624    0.0266 C   0  0  0  0  0  0  0  0  0  0  0  0
    0.4841    1.3876    0.7359 C   0  0  0  0  0  0  0  0  0  0  0  0
    2.0191    2.0303    0.8057 S   0  0  0  0  0  1  0  0  0  0  0  0
    1.1566   -0.6823   -0.9297 S   0  0  0  0  0  0  0  0  0  0  0  0
   -1.7589   -0.2174   -0.9545 H   0  0  0  0  0  0  0  0  0  0  0  0
   -1.4004   -1.2253    0.4427 H   0  0  0  0  0  0  0  0  0  0  0  0
   -1.9442    0.4442    0.6783 H   0  0  0  0  0  0  0  0  0  0  0  0
   -0.3073    1.8814    1.2951 H   0  0  0  0  0  0  0  0  0  0  0  0
    2.2383    0.0827   -0.6554 H   0  0  0  0  0  0  0  0  0  0  0  0
  1  2  1  0
  1  6  1  0
  1  7  1  0
  1  8  1  0
  2  3  2  3
  2  5  1  0
  3  4  1  0
  3  9  1  0
  5 10  1  0
M  RAD  1   4   2
M  END
>  <reaction>  (2) 
rxn_858

>  <mol_properties>  (2) 
{"1": {"label": "acceptor", "atom_type": "Cs"}}

>  <type>  (2) 
r2

$$$$

     RDKit          3D

 11 10  0  0  0  0  0  0  0  0999 V2000
   -1.0997   -0.5860   -0.1182 C   0  0  0  0  0  0  0  0  0  0  0  0
    0.0827    0.2961    0.2270 C   0  0  0  0  0  0  0  0  0  0  0  0
    0.1622    1.6171   -0.4774 C   0  0  0  0  0  0  0  0  0  0  0  0
   -0.9879    2.3087   -1.3633 S   0  0  0  0  0  0  0  0  0  0  0  0
    0.2176    0.6619    2.0187 S   0  0  0  0  0  0  0  0  0  0  0  0
   -1.1052   -0.8107   -1.1861 H   0  0  0  0  0  0  0  0  0  0  0  0
   -2.0402   -0.0893    0.1198 H   0  0  0  0  0  0  0  0  0  0  0  0
   -1.0438   -1.5182    0.4423 H   0  0  0  0  0  0  0  0  0  0  0  0
    1.0207   -0.2324    0.0280 H   0  0  0  0  0  0  0  0  0  0  0  0
    1.1091    2.1333   -0.3182 H   0  0  0  0  0  0  0  0  0  0  0  0
   -0.9205    1.3661    2.0994 H   0  0  0  0  0  0  0  0  0  0  0  0
  1  2  1  0
  1  6  1  0
  1  7  1  0
  1  8  1  0
  2  3  1  0
  2  5  1  0
  2  9  1  0
  3  4  2  0
  3 10  1  0
  5 11  1  0
M  END
>  <reaction>  (3) 
rxn_858

>  <mol_properties>  (3) 
{"1": {"label": "acceptor", "atom_type": "Cs"}, "10": {"label": "a_hydrogen", "atom_type": "H0"}}

>  <type>  (3) 
r2h

$$$$

     RDKit          3D

 15 13  0  0  0  0  0  0  0  0999 V2000
   -1.7236    0.1210   -0.0386 C   0  0  0  0  0  0  0  0  0  0  0  0
   -0.3048   -0.3790    0.0973 C   0  0  0  0  0  0  0  0  0  0  0  0
    0.7872    0.5018   -0.3395 C   0  0  0  0  0  0  0  0  0  0  0  0
    0.6368    1.8895   -1.1564 S   0  0  0  0  0  0  0  0  0  0  0  0
    0.0656   -1.2049    1.6693 S   0  0  0  0  0  0  0  0  0  0  0  0
   -1.9028    0.9592    0.6381 H   0  0  0  0  0  0  0  0  0  0  0  0
   -1.9088    0.4727   -1.0538 H   0  0  0  0  0  0  0  0  0  0  0  0
   -2.4254   -0.6761    0.2036 H   0  0  0  0  0  0  0  0  0  0  0  0
    1.7798    0.1276   -0.0892 H   0  0  0  0  0  0  0  0  0  0  0  0
   -0.0185   -0.1113    2.4415 H   0  0  0  0  0  0  0  0  0  0  0  0
   -0.3218   -2.5471   -1.5643 C   0  0  0  0  0  3  0  0  0  0  0  0
   -0.2255   -1.3487   -0.6675 H   0  0  0  0  0  0  0  0  0  0  0  0
    0.6790   -2.9549   -1.4835 H   0  0  0  0  0  0  0  0  0  0  0  0
   -1.1105   -3.1237   -1.0957 H   0  0  0  0  0  0  0  0  0  0  0  0
   -0.5700   -2.0729   -2.5065 H   0  0  0  0  0  0  0  0  0  0  0  0
  1  2  1  0
  1  6  1  0
  1  7  1  0
  1  8  1  0
  2  3  1  0
  2  5  1  0
  2 12  1  0
  3  4  2  0
  3  9  1  0
  5 10  1  0
 11 13  1  0
 11 14  1  0
 11 15  1  0
M  RAD  1  11   2
M  END
>  <reaction>  (4) 
rxn_858

>  <mol_properties>  (4) 
{"1": {"label": "*1", "atom_type": "Cs"}, "2": {"label": "*0", "atom_type": "CS"}, "10": {"label": "*3", "atom_type": "Cs"}, "11": {"label": "*2", "atom_type": "H0"}, "12": {"label": "*4", "atom_type": "H0"}}

>  <type>  (4) 
ts

$$$$

     RDKit          3D

 15 13  0  0  0  0  0  0  0  0999 V2000
   -1.6267   -0.0325    0.6980 C   0  0  0  0  0  0  0  0  0  0  0  0
   -0.3957   -0.2901   -0.1469 C   0  0  0  0  0  0  0  0  0  0  0  0
    0.3196    0.9169   -0.6754 C   0  0  0  0  0  0  0  0  0  0  0  0
    0.0784    2.4470   -0.2439 S   0  0  0  0  0  1  0  0  0  0  0  0
    0.8716   -1.3041    0.7061 S   0  0  0  0  0  0  0  0  0  0  0  0
   -1.3771    0.5505    1.5843 H   0  0  0  0  0  0  0  0  0  0  0  0
   -2.3657    0.5327    0.1275 H   0  0  0  0  0  0  0  0  0  0  0  0
   -2.0658   -0.9783    1.0124 H   0  0  0  0  0  0  0  0  0  0  0  0
    1.0916    0.6740   -1.4057 H   0  0  0  0  0  0  0  0  0  0  0  0
    1.1483   -0.4021    1.6589 H   0  0  0  0  0  0  0  0  0  0  0  0
   -0.3957   -2.7608   -1.0204 C   0  0  0  0  0  0  0  0  0  0  0  0
   -0.3957   -1.5288   -0.5849 H   0  0  0  0  0  0  0  0  0  0  0  0
    0.4934   -3.2741   -0.6575 H   0  0  0  0  0  0  0  0  0  0  0  0
   -1.2848   -3.2741   -0.6575 H   0  0  0  0  0  0  0  0  0  0  0  0
   -0.3957   -2.7608   -2.1094 H   0  0  0  0  0  0  0  0  0  0  0  0
  1  2  1  0
  1  6  1  0
  1  7  1  0
  1  8  1  0
  2  3  2  3
  2  5  1  0
  3  4  1  0
  3  9  1  0
  5 10  1  0
 11 12  1  0
 11 13  1  0
 11 14  1  0
 11 15  1  0
M  RAD  1   4   2
M  END
>  <reaction>  (5) 
rxn_858

>  <mol_properties>  (5) 
{"1": {"label": "*1", "atom_type": "Cs"}, "2": {"label": "*0", "atom_type": "CS"}, "10": {"label": "*3", "atom_type": "Cs"}, "11": {"label": "*2", "atom_type": "H0"}, "12": {"label": "*4", "atom_type": "H0"}}

>  <type>  (5) 
unop_1

>  <geom_source>  (5) 
Heuristics

$$$$

     RDKit          3D

 15 13  0  0  0  0  0  0  0  0999 V2000
   -0.9196    0.6584   -1.3538 C   0  0  0  0  0  0  0  0  0  0  0  0
   -0.2089   -0.2464   -0.3680 C   0  0  0  0  0  0  0  0  0  0  0  0
    1.0240    0.3065    0.2815 C   0  0  0  0  0  0  0  0  0  0  0  0
    1.5339    1.8310    0.2423 S   0  0  0  0  0  1  0  0  0  0  0  0
   -1.2896   -0.8269    0.9948 S   0  0  0  0  0  0  0  0  0  0  0  0
   -1.2505    1.5780   -0.8715 H   0  0  0  0  0  0  0  0  0  0  0  0
   -0.2463    0.9350   -2.1669 H   0  0  0  0  0  0  0  0  0  0  0  0
   -1.7878    0.1473   -1.7677 H   0  0  0  0  0  0  0  0  0  0  0  0
    1.5825   -0.4383    0.8486 H   0  0  0  0  0  0  0  0  0  0  0  0
   -1.4837    0.3832    1.5387 H   0  0  0  0  0  0  0  0  0  0  0  0
   -0.2089   -2.7172   -1.2415 C   0  0  0  0  0  0  0  0  0  0  0  0
   -0.2089   -1.4852   -0.8060 H   0  0  0  0  0  0  0  0  0  0  0  0
    0.6802   -3.2305   -0.8786 H   0  0  0  0  0  0  0  0  0  0  0  0
   -1.0980   -3.2305   -0.8786 H   0  0  0  0  0  0  0  0  0  0  0  0
   -0.2089   -2.7172   -2.3305 H   0  0  0  0  0  0  0  0  0  0  0  0
  1  2  1  0
  1  6  1  0
  1  7  1  0
  1  8  1  0
  2  3  2  3
  2  5  1  0
  3  4  1  0
  3  9  1  0
  5 10  1  0
 11 12  1  0
 11 13  1  0
 11 14  1  0
 11 15  1  0
M  RAD  1   4   2
M  END
>  <reaction>  (6) 
rxn_858

>  <mol_properties>  (6) 
{"1": {"label": "*1", "atom_type": "Cs"}, "2": {"label": "*0", "atom_type": "CS"}, "10": {"label": "*3", "atom_type": "Cs"}, "11": {"label": "*2", "atom_type": "H0"}, "12": {"label": "*4", "atom_type": "H0"}}

>  <type>  (6) 
unop_2

>  <geom_source>  (6) 
Heuristics

$$$$

     RDKit          3D

 15 13  0  0  0  0  0  0  0  0999 V2000
   -0.9532   -0.3288    1.4482 C   0  0  0  0  0  0  0  0  0  0  0  0
   -0.2425   -0.4129    0.1128 C   0  0  0  0  0  0  0  0  0  0  0  0
   -0.2963    0.8093   -0.7537 C   0  0  0  0  0  0  0  0  0  0  0  0
   -0.8035    2.2739   -0.3255 S   0  0  0  0  0  1  0  0  0  0  0  0
    1.5298   -0.8591    0.2601 S   0  0  0  0  0  0  0  0  0  0  0  0
   -0.5331    0.4655    2.0649 H   0  0  0  0  0  0  0  0  0  0  0  0
   -2.0117   -0.1080    1.3003 H   0  0  0  0  0  0  0  0  0  0  0  0
   -0.8570   -1.2742    1.9804 H   0  0  0  0  0  0  0  0  0  0  0  0
    0.0842    0.6395   -1.7611 H   0  0  0  0  0  0  0  0  0  0  0  0
    1.8972    0.2564    0.9070 H   0  0  0  0  0  0  0  0  0  0  0  0
   -0.2425   -2.8837   -0.7607 C   0  0  0  0  0  0  0  0  0  0  0  0
   -0.2425   -1.6517   -0.3252 H   0  0  0  0  0  0  0  0  0  0  0  0
    0.6466   -3.3970   -0.3978 H   0  0  0  0  0  0  0  0  0  0  0  0
   -1.1316   -3.3970   -0.3978 H   0  0  0  0  0  0  0  0  0  0  0  0
   -0.2425   -2.8837   -1.8497 H   0  0  0  0  0  0  0  0  0  0  0  0
  1  2  1  0
  1  6  1  0
  1  7  1  0
  1  8  1  0
  2  3  2  3
  2  5  1  0
  3  4  1  0
  3  9  1  0
  5 10  1  0
 11 12  1  0
 11 13  1  0
 11 14  1  0
 11 15  1  0
M  RAD  1   4   2
M  END
>  <reaction>  (7) 
rxn_858

>  <mol_properties>  (7) 
{"1": {"label": "*1", "atom_type": "Cs"}, "2": {"label": "*0", "atom_type": "CS"}, "10": {"label": "*3", "atom_type": "Cs"}, "11": {"label": "*2", "atom_type": "H0"}, "12": {"label": "*4", "atom_type": "H0"}}

>  <type>  (7) 
unop_3

>  <geom_source>  (7) 
Heuristics

$$$$

     RDKit          3D

 15 13  0  0  0  0  0  0  0  0999 V2000
    1.1168    0.8877   -1.1302 C   0  0  0  0  0  0  0  0  0  0  0  0
   -0.1142    0.1563   -0.6349 C   0  0  0  0  0  0  0  0  0  0  0  0
    0.0060   -0.5400    0.6873 C   0  0  0  0  0  0  0  0  0  0  0  0
    1.2028   -0.3907    1.7509 S   0  0  0  0  0  1  0  0  0  0  0  0
   -1.5973    1.2279   -0.5168 S   0  0  0  0  0  0  0  0  0  0  0  0
    1.4134    1.6703   -0.4321 H   0  0  0  0  0  0  0  0  0  0  0  0
    1.9549    0.1955   -1.2268 H   0  0  0  0  0  0  0  0  0  0  0  0
    0.9146    1.3408   -2.0998 H   0  0  0  0  0  0  0  0  0  0  0  0
   -0.8453   -1.1818    0.9145 H   0  0  0  0  0  0  0  0  0  0  0  0
   -1.1143    2.0220    0.4497 H   0  0  0  0  0  0  0  0  0  0  0  0
   -0.1142   -2.3144   -1.5085 C   0  0  0  0  0  0  0  0  0  0  0  0
   -0.1142   -1.0824   -1.0729 H   0  0  0  0  0  0  0  0  0  0  0  0
    0.7749   -2.8277   -1.1455 H   0  0  0  0  0  0  0  0  0  0  0  0
   -1.0033   -2.8277   -1.1455 H   0  0  0  0  0  0  0  0  0  0  0  0
   -0.1142   -2.3144   -2.5974 H   0  0  0  0  0  0  0  0  0  0  0  0
  1  2  1  0
  1  6  1  0
  1  7  1  0
  1  8  1  0
  2  3  2  3
  2  5  1  0
  3  4  1  0
  3  9  1  0
  5 10  1  0
 11 12  1  0
 11 13  1  0
 11 14  1  0
 11 15  1  0
M  RAD  1   4   2
M  END
>  <reaction>  (8) 
rxn_858

>  <mol_properties>  (8) 
{"1": {"label": "*1", "atom_type": "Cs"}, "2": {"label": "*0", "atom_type": "CS"}, "10": {"label": "*3", "atom_type": "Cs"}, "11": {"label": "*2", "atom_type": "H0"}, "12": {"label": "*4", "atom_type": "H0"}}

>  <type>  (8) 
unop_4

>  <geom_source>  (8) 
Heuristics

$$$$

     RDKit          3D

 15 13  0  0  0  0  0  0  0  0999 V2000
    0.2857   -0.3722    1.7106 C   0  0  0  0  0  0  0  0  0  0  0  0
    0.2857   -0.3928    0.1956 C   0  0  0  0  0  0  0  0  0  0  0  0
   -0.8466    0.3161   -0.4848 C   0  0  0  0  0  0  0  0  0  0  0  0
   -1.9166    1.3028    0.1986 S   0  0  0  0  0  1  0  0  0  0  0  0
    1.8258    0.2774   -0.5400 S   0  0  0  0  0  0  0  0  0  0  0  0
    0.3335    0.6494    2.0873 H   0  0  0  0  0  0  0  0  0  0  0  0
   -0.6301   -0.8241    2.0951 H   0  0  0  0  0  0  0  0  0  0  0  0
    1.1434   -0.9262    2.0895 H   0  0  0  0  0  0  0  0  0  0  0  0
   -0.8876    0.1301   -1.5582 H   0  0  0  0  0  0  0  0  0  0  0  0
    1.6531    1.5312   -0.0972 H   0  0  0  0  0  0  0  0  0  0  0  0
    0.2857   -2.8636   -0.6779 C   0  0  0  0  0  0  0  0  0  0  0  0
    0.2857   -1.6316   -0.2423 H   0  0  0  0  0  0  0  0  0  0  0  0
    1.1748   -3.3769   -0.3149 H   0  0  0  0  0  0  0  0  0  0  0  0
   -0.6034   -3.3769   -0.3149 H   0  0  0  0  0  0  0  0  0  0  0  0
    0.2857   -2.8636   -1.7668 H   0  0  0  0  0  0  0  0  0  0  0  0
  1  2  1  0
  1  6  1  0
  1  7  1  0
  1  8  1  0
  2  3  2  3
  2  5  1  0
  3  4  1  0
  3  9  1  0
  5 10  1  0
 11 12  1  0
 11 13  1  0
 11 14  1  0
 11 15  1  0
M  RAD  1   4   2
M  END
>  <reaction>  (9) 
rxn_858

>  <mol_properties>  (9) 
{"1": {"label": "*1", "atom_type": "Cs"}, "2": {"label": "*0", "atom_type": "CS"}, "10": {"label": "*3", "atom_type": "Cs"}, "11": {"label": "*2", "atom_type": "H0"}, "12": {"label": "*4", "atom_type": "H0"}}

>  <type>  (9) 
unop_5

>  <geom_source>  (9) 
Heuristics

$$$$

     RDKit          3D

 15 13  0  0  0  0  0  0  0  0999 V2000
    1.6188    0.7332   -0.4569 C   0  0  0  0  0  0  0  0  0  0  0  0
    0.1974    0.2388   -0.6317 C   0  0  0  0  0  0  0  0  0  0  0  0
   -0.3779   -0.5617    0.4978 C   0  0  0  0  0  0  0  0  0  0  0  0
    0.2464   -0.7416    1.9687 S   0  0  0  0  0  1  0  0  0  0  0  0
   -1.0028    1.5829   -0.9705 S   0  0  0  0  0  0  0  0  0  0  0  0
    1.7017    1.3844    0.4131 H   0  0  0  0  0  0  0  0  0  0  0  0
    2.2964   -0.1087   -0.3057 H   0  0  0  0  0  0  0  0  0  0  0  0
    1.9305    1.2877   -1.3410 H   0  0  0  0  0  0  0  0  0  0  0  0
   -1.3322   -1.0281    0.2523 H   0  0  0  0  0  0  0  0  0  0  0  0
   -0.8691    2.1871    0.2190 H   0  0  0  0  0  0  0  0  0  0  0  0
    0.1974   -2.2320   -1.5052 C   0  0  0  0  0  0  0  0  0  0  0  0
    0.1974   -1.0000   -1.0697 H   0  0  0  0  0  0  0  0  0  0  0  0
    1.0865   -2.7453   -1.1423 H   0  0  0  0  0  0  0  0  0  0  0  0
   -0.6917   -2.7453   -1.1423 H   0  0  0  0  0  0  0  0  0  0  0  0
    0.1974   -2.2320   -2.5942 H   0  0  0  0  0  0  0  0  0  0  0  0
  1  2  1  0
  1  6  1  0
  1  7  1  0
  1  8  1  0
  2  3  2  3
  2  5  1  0
  3  4  1  0
  3  9  1  0
  5 10  1  0
 11 12  1  0
 11 13  1  0
 11 14  1  0
 11 15  1  0
M  RAD  1   4   2
M  END
>  <reaction>  (10) 
rxn_858

>  <mol_properties>  (10) 
{"1": {"label": "*1", "atom_type": "Cs"}, "2": {"label": "*0", "atom_type": "CS"}, "10": {"label": "*3", "atom_type": "Cs"}, "11": {"label": "*2", "atom_type": "H0"}, "12": {"label": "*4", "atom_type": "H0"}}

>  <type>  (10) 
unop_6

>  <geom_source>  (10) 
Heuristics

$$$$

     RDKit          3D

 15 13  0  0  0  0  0  0  0  0999 V2000
    1.7395    0.4360    0.3908 C   0  0  0  0  0  0  0  0  0  0  0  0
    0.5085    0.1784   -0.4541 C   0  0  0  0  0  0  0  0  0  0  0  0
   -0.6539   -0.4711    0.2348 C   0  0  0  0  0  0  0  0  0  0  0  0
   -0.8351   -0.6955    1.8167 S   0  0  0  0  0  1  0  0  0  0  0  0
   -0.1507    1.6894   -1.2568 S   0  0  0  0  0  0  0  0  0  0  0  0
    1.5088    1.0974    1.2257 H   0  0  0  0  0  0  0  0  0  0  0  0
    2.1169   -0.5005    0.8049 H   0  0  0  0  0  0  0  0  0  0  0  0
    2.5173    0.8965   -0.2169 H   0  0  0  0  0  0  0  0  0  0  0  0
   -1.4421   -0.7814   -0.4514 H   0  0  0  0  0  0  0  0  0  0  0  0
   -0.4956    2.3083   -0.1185 H   0  0  0  0  0  0  0  0  0  0  0  0
    0.5085   -2.2923   -1.3277 C   0  0  0  0  0  0  0  0  0  0  0  0
    0.5085   -1.0603   -0.8921 H   0  0  0  0  0  0  0  0  0  0  0  0
    1.3976   -2.8056   -0.9647 H   0  0  0  0  0  0  0  0  0  0  0  0
   -0.3806   -2.8056   -0.9647 H   0  0  0  0  0  0  0  0  0  0  0  0
    0.5085   -2.2923   -2.4166 H   0  0  0  0  0  0  0  0  0  0  0  0
  1  2  1  0
  1  6  1  0
  1  7  1  0
  1  8  1  0
  2  3  2  3
  2  5  1  0
  3  4  1  0
  3  9  1  0
  5 10  1  0
 11 12  1  0
 11 13  1  0
 11 14  1  0
 11 15  1  0
M  RAD  1   4   2
M  END
>  <reaction>  (11) 
rxn_858

>  <mol_properties>  (11) 
{"1": {"label": "*1", "atom_type": "Cs"}, "2": {"label": "*0", "atom_type": "CS"}, "10": {"label": "*3", "atom_type": "Cs"}, "11": {"label": "*2", "atom_type": "H0"}, "12": {"label": "*4", "atom_type": "H0"}}

>  <type>  (11) 
unop_7

>  <geom_source>  (11) 
Heuristics

$$$$

     RDKit          3D

 15 13  0  0  0  0  0  0  0  0999 V2000
   -1.7435    0.2668   -0.1511 C   0  0  0  0  0  0  0  0  0  0  0  0
   -0.3221   -0.2276   -0.3259 C   0  0  0  0  0  0  0  0  0  0  0  0
    0.7471    0.8200   -0.4083 C   0  0  0  0  0  0  0  0  0  0  0  0
    0.5896    2.3868   -0.0827 S   0  0  0  0  0  1  0  0  0  0  0  0
    0.2064   -1.3972    0.9837 S   0  0  0  0  0  0  0  0  0  0  0  0
   -1.8471    0.8400    0.7701 H   0  0  0  0  0  0  0  0  0  0  0  0
   -2.0216    0.9198   -0.9801 H   0  0  0  0  0  0  0  0  0  0  0  0
   -2.4293   -0.5786   -0.1172 H   0  0  0  0  0  0  0  0  0  0  0  0
    1.7194    0.4208   -0.6977 H   0  0  0  0  0  0  0  0  0  0  0  0
    0.1480   -0.5112    1.9884 H   0  0  0  0  0  0  0  0  0  0  0  0
   -0.3221   -2.6984   -1.1994 C   0  0  0  0  0  0  0  0  0  0  0  0
   -0.3221   -1.4664   -0.7638 H   0  0  0  0  0  0  0  0  0  0  0  0
    0.5671   -3.2117   -0.8364 H   0  0  0  0  0  0  0  0  0  0  0  0
   -1.2112   -3.2117   -0.8364 H   0  0  0  0  0  0  0  0  0  0  0  0
   -0.3221   -2.6984   -2.2883 H   0  0  0  0  0  0  0  0  0  0  0  0
  1  2  1  0
  1  6  1  0
  1  7  1  0
  1  8  1  0
  2  3  2  3
  2  5  1  0
  3  4  1  0
  3  9  1  0
  5 10  1  0
 11 12  1  0
 11 13  1  0
 11 14  1  0
 11 15  1  0
M  RAD  1   4   2
M  END
>  <reaction>  (12) 
rxn_858

>  <mol_properties>  (12) 
{"1": {"label": "*1", "atom_type": "Cs"}, "2": {"label": "*0", "atom_type": "CS"}, "10": {"label": "*3", "atom_type": "Cs"}, "11": {"label": "*2", "atom_type": "H0"}, "12": {"label": "*4", "atom_type": "H0"}}

>  <type>  (12) 
unop_8

>  <geom_source>  (12) 
Heuristics

$$$$

     RDKit          3D

 15 13  0  0  0  0  0  0  0  0999 V2000
    0.4184    0.8880   -1.5043 C   0  0  0  0  0  0  0  0  0  0  0  0
   -0.2923   -0.0168   -0.5186 C   0  0  0  0  0  0  0  0  0  0  0  0
    0.4609   -0.3738    0.7276 C   0  0  0  0  0  0  0  0  0  0  0  0
    1.8279    0.2908    1.2523 S   0  0  0  0  0  1  0  0  0  0  0  0
   -1.9129    0.6404    0.0327 S   0  0  0  0  0  0  0  0  0  0  0  0
    0.6655    1.8460   -1.0472 H   0  0  0  0  0  0  0  0  0  0  0  0
    1.3515    0.4286   -1.8348 H   0  0  0  0  0  0  0  0  0  0  0  0
   -0.2178    1.0662   -2.3702 H   0  0  0  0  0  0  0  0  0  0  0  0
   -0.0256   -1.1517    1.3164 H   0  0  0  0  0  0  0  0  0  0  0  0
   -1.4159    1.7117    0.6676 H   0  0  0  0  0  0  0  0  0  0  0  0
   -0.2923   -2.4875   -1.3921 C   0  0  0  0  0  0  0  0  0  0  0  0
   -0.2923   -1.2555   -0.9565 H   0  0  0  0  0  0  0  0  0  0  0  0
    0.5968   -3.0009   -1.0291 H   0  0  0  0  0  0  0  0  0  0  0  0
   -1.1814   -3.0009   -1.0291 H   0  0  0  0  0  0  0  0  0  0  0  0
   -0.2923   -2.4875   -2.4810 H   0  0  0  0  0  0  0  0  0  0  0  0
  1  2  1  0
  1  6  1  0
  1  7  1  0
  1  8  1  0
  2  3  2  3
  2  5  1  0
  3  4  1  0
  3  9  1  0
  5 10  1  0
 11 12  1  0
 11 13  1  0
 11 14  1  0
 11 15  1  0
M  RAD  1   4   2
M  END
>  <reaction>  (13) 
rxn_858

>  <mol_properties>  (13) 
{"1": {"label": "*1", "atom_type": "Cs"}, "2": {"label": "*0", "atom_type": "CS"}, "10": {"label": "*3", "atom_type": "Cs"}, "11": {"label": "*2", "atom_type": "H0"}, "12": {"label": "*4", "atom_type": "H0"}}

>  <type>  (13) 
unop_9

>  <geom_source>  (13) 
Heuristics

$$$$

     RDKit          3D

 15 13  0  0  0  0  0  0  0  0999 V2000
   -1.4499    0.4994   -0.8756 C   0  0  0  0  0  0  0  0  0  0  0  0
   -0.2190   -0.2320   -0.3803 C   0  0  0  0  0  0  0  0  0  0  0  0
    0.9810    0.6104   -0.0671 C   0  0  0  0  0  0  0  0  0  0  0  0
    1.0318    2.2139    0.0430 S   0  0  0  0  0  1  0  0  0  0  0  0
   -0.5313   -1.2532    1.1102 S   0  0  0  0  0  0  0  0  0  0  0  0
   -1.8023    1.2171   -0.1349 H   0  0  0  0  0  0  0  0  0  0  0  0
   -1.2203    1.0518   -1.7883 H   0  0  0  0  0  0  0  0  0  0  0  0
   -2.2477   -0.2131   -1.0809 H   0  0  0  0  0  0  0  0  0  0  0  0
    1.8802    0.0244    0.1235 H   0  0  0  0  0  0  0  0  0  0  0  0
   -0.8131   -0.2245    1.9228 H   0  0  0  0  0  0  0  0  0  0  0  0
   -0.2190   -2.7027   -1.2539 C   0  0  0  0  0  0  0  0  0  0  0  0
   -0.2190   -1.4707   -0.8183 H   0  0  0  0  0  0  0  0  0  0  0  0
    0.6701   -3.2160   -0.8909 H   0  0  0  0  0  0  0  0  0  0  0  0
   -1.1081   -3.2160   -0.8909 H   0  0  0  0  0  0  0  0  0  0  0  0
   -0.2190   -2.7027   -2.3428 H   0  0  0  0  0  0  0  0  0  0  0  0
  1  2  1  0
  1  6  1  0
  1  7  1  0
  1  8  1  0
  2  3  2  3
  2  5  1  0
  3  4  1  0
  3  9  1  0
  5 10  1  0
 11 12  1  0
 11 13  1  0
 11 14  1  0
 11 15  1  0
M  RAD  1   4   2
M  END
>  <reaction>  (14) 
rxn_858

>  <mol_properties>  (14) 
{"1": {"label": "*1", "atom_type": "Cs"}, "2": {"label": "*0", "atom_type": "CS"}, "10": {"label": "*3", "atom_type": "Cs"}, "11": {"label": "*2", "atom_type": "H0"}, "12": {"label": "*4", "atom_type": "H0"}}

>  <type>  (14) 
unop_10

>  <geom_source>  (14) 
Heuristics

$$$$

     RDKit          3D

 15 13  0  0  0  0  0  0  0  0999 V2000
    1.3427    0.0209    1.2189 C   0  0  0  0  0  0  0  0  0  0  0  0
    0.6320   -0.0632   -0.1165 C   0  0  0  0  0  0  0  0  0  0  0  0
   -0.8576   -0.2268   -0.0743 C   0  0  0  0  0  0  0  0  0  0  0  0
   -1.8090   -0.0719    1.2127 S   0  0  0  0  0  1  0  0  0  0  0  0
    0.9588    1.3755   -1.2052 S   0  0  0  0  0  0  0  0  0  0  0  0
    0.9877    0.8737    1.7973 H   0  0  0  0  0  0  0  0  0  0  0  0
    1.1528   -0.8792    1.8060 H   0  0  0  0  0  0  0  0  0  0  0  0
    2.4155    0.1253    1.0627 H   0  0  0  0  0  0  0  0  0  0  0  0
   -1.2941   -0.4468   -1.0488 H   0  0  0  0  0  0  0  0  0  0  0  0
    0.3561    2.2797   -0.4197 H   0  0  0  0  0  0  0  0  0  0  0  0
    0.6320   -2.5339   -0.9901 C   0  0  0  0  0  0  0  0  0  0  0  0
    0.6320   -1.3020   -0.5545 H   0  0  0  0  0  0  0  0  0  0  0  0
    1.5211   -3.0473   -0.6271 H   0  0  0  0  0  0  0  0  0  0  0  0
   -0.2571   -3.0473   -0.6271 H   0  0  0  0  0  0  0  0  0  0  0  0
    0.6320   -2.5339   -2.0790 H   0  0  0  0  0  0  0  0  0  0  0  0
  1  2  1  0
  1  6  1  0
  1  7  1  0
  1  8  1  0
  2  3  2  3
  2  5  1  0
  3  4  1  0
  3  9  1  0
  5 10  1  0
 11 12  1  0
 11 13  1  0
 11 14  1  0
 11 15  1  0
M  RAD  1   4   2
M  END
>  <reaction>  (15) 
rxn_858

>  <mol_properties>  (15) 
{"1": {"label": "*1", "atom_type": "Cs"}, "2": {"label": "*0", "atom_type": "CS"}, "10": {"label": "*3", "atom_type": "Cs"}, "11": {"label": "*2", "atom_type": "H0"}, "12": {"label": "*4", "atom_type": "H0"}}

>  <type>  (15) 
unop_11

>  <geom_source>  (15) 
Heuristics

$$$$

     RDKit          3D

 15 13  0  0  0  0  0  0  0  0999 V2000
   -0.2857    0.7857   -1.5644 C   0  0  0  0  0  0  0  0  0  0  0  0
   -0.2857   -0.1826   -0.3991 C   0  0  0  0  0  0  0  0  0  0  0  0
    0.8466   -0.0589    0.5757 C   0  0  0  0  0  0  0  0  0  0  0  0
    1.9166    1.1381    0.6644 S   0  0  0  0  0  1  0  0  0  0  0  0
   -1.8258   -0.1236    0.5943 S   0  0  0  0  0  0  0  0  0  0  0  0
   -0.3335    1.8170   -1.2153 H   0  0  0  0  0  0  0  0  0  0  0  0
    0.6301    0.6759   -2.1475 H   0  0  0  0  0  0  0  0  0  0  0  0
   -1.1434    0.5930   -2.2074 H   0  0  0  0  0  0  0  0  0  0  0  0
    0.8876   -0.8781    1.2937 H   0  0  0  0  0  0  0  0  0  0  0  0
   -1.6531    1.1298    1.0380 H   0  0  0  0  0  0  0  0  0  0  0  0
   -0.2857   -2.6533   -1.2726 C   0  0  0  0  0  0  0  0  0  0  0  0
   -0.2857   -1.4213   -0.8370 H   0  0  0  0  0  0  0  0  0  0  0  0
    0.6034   -3.1666   -0.9096 H   0  0  0  0  0  0  0  0  0  0  0  0
   -1.1748   -3.1666   -0.9096 H   0  0  0  0  0  0  0  0  0  0  0  0
   -0.2857   -2.6533   -2.3615 H   0  0  0  0  0  0  0  0  0  0  0  0
  1  2  1  0
  1  6  1  0
  1  7  1  0
  1  8  1  0
  2  3  2  3
  2  5  1  0
  3  4  1  0
  3  9  1  0
  5 10  1  0
 11 12  1  0
 11 13  1  0
 11 14  1  0
 11 15  1  0
M  RAD  1   4   2
M  END
>  <reaction>  (16) 
rxn_858

>  <mol_properties>  (16) 
{"1": {"label": "*1", "atom_type": "Cs"}, "2": {"label": "*0", "atom_type": "CS"}, "10": {"label": "*3", "atom_type": "Cs"}, "11": {"label": "*2", "atom_type": "H0"}, "12": {"label": "*4", "atom_type": "H0"}}

>  <type>  (16) 
unop_12

>  <geom_source>  (16) 
Heuristics

$$$$

     RDKit          3D

 15 13  0  0  0  0  0  0  0  0999 V2000
   -0.7087   -0.0349    1.9189 S   0  0  0  0  0  0  0  0  0  0  0  0
   -2.3974    1.9613   -0.1406 S   0  0  0  0  0  1  0  0  0  0  0  0
   -0.5155    0.2064    0.1187 C   0  0  0  0  0  0  0  0  0  0  0  0
   -1.1931   -0.9273   -0.6537 C   0  0  0  0  0  0  0  0  0  0  0  0
   -1.0226    1.5648   -0.3031 C   0  0  0  0  0  0  0  0  0  0  0  0
    2.0657   -0.1575    0.0492 C   0  0  0  0  0  0  0  0  0  0  0  0
    0.8715    0.1572   -0.1724 H   0  0  0  0  0  0  0  0  0  0  0  0
   -0.7152   -1.8953   -0.3949 H   0  0  0  0  0  0  0  0  0  0  0  0
   -2.2742   -0.9849   -0.4046 H   0  0  0  0  0  0  0  0  0  0  0  0
   -1.0785   -0.7637   -1.7463 H   0  0  0  0  0  0  0  0  0  0  0  0
   -0.3235    2.2674   -0.7437 H   0  0  0  0  0  0  0  0  0  0  0  0
    2.7961   -0.1143   -0.7847 H   0  0  0  0  0  0  0  0  0  0  0  0
    2.0111    0.8335    0.5448 H   0  0  0  0  0  0  0  0  0  0  0  0
    2.3897   -0.9217    0.7853 H   0  0  0  0  0  0  0  0  0  0  0  0
    0.0946   -1.1910    1.9272 H   0  0  0  0  0  0  0  0  0  0  0  0
  1  3  1  0
  1 15  1  0
  2  5  1  0
  3  4  1  0
  3  5  2  3
  4  8  1  0
  4  9  1  0
  4 10  1  0
  5 11  1  0
  6  7  1  0
  6 12  1  0
  6 13  1  0
  6 14  1  0
M  RAD  1   2   2
M  END
>  <reaction>  (17) 
rxn_858

>  <mol_properties>  (17) 
{"1": {"label": "*1", "atom_type": "Cs"}, "2": {"label": "*0", "atom_type": "CS"}, "10": {"label": "*3", "atom_type": "Cs"}, "11": {"label": "*2", "atom_type": "H0"}, "12": {"label": "*4", "atom_type": "H0"}}

>  <type>  (17) 
unop_13

>  <geom_source>  (17) 
AutoTST

$$$$

     RDKit          3D

 15 13  0  0  0  0  0  0  0  0999 V2000
   -0.9196    0.6584   -1.3538 C   0  0  0  0  0  0  0  0  0  0  0  0
   -0.2089   -0.2464   -0.3680 C   0  0  0  0  0  0  0  0  0  0  0  0
    1.0240    0.3065    0.2815 C   0  0  0  0  0  0  0  0  0  0  0  0
    1.5339    1.8310    0.2423 S   0  0  0  0  0  1  0  0  0  0  0  0
   -1.2896   -0.8269    0.9948 S   0  0  0  0  0  0  0  0  0  0  0  0
   -1.2505    1.5780   -0.8715 H   0  0  0  0  0  0  0  0  0  0  0  0
   -0.2463    0.9350   -2.1669 H   0  0  0  0  0  0  0  0  0  0  0  0
   -1.7878    0.1473   -1.7677 H   0  0  0  0  0  0  0  0  0  0  0  0
    1.5825   -0.4383    0.8486 H   0  0  0  0  0  0  0  0  0  0  0  0
   -1.4837    0.3832    1.5387 H   0  0  0  0  0  0  0  0  0  0  0  0
   -0.2089   -2.7172   -1.2415 C   0  0  0  0  0  0  0  0  0  0  0  0
   -0.2089   -1.4852   -0.8060 H   0  0  0  0  0  0  0  0  0  0  0  0
    0.6802   -3.2305   -0.8786 H   0  0  0  0  0  0  0  0  0  0  0  0
   -1.0980   -3.2305   -0.8786 H   0  0  0  0  0  0  0  0  0  0  0  0
   -0.2089   -2.7172   -2.3305 H   0  0  0  0  0  0  0  0  0  0  0  0
  1  2  1  0
  1  6  1  0
  1  7  1  0
  1  8  1  0
  2  3  2  3
  2  5  1  0
  3  4  1  0
  3  9  1  0
  5 10  1  0
 11 12  1  0
 11 13  1  0
 11 14  1  0
 11 15  1  0
M  RAD  1   4   2
M  END
>  <reaction>  (18) 
rxn_858

>  <mol_properties>  (18) 
{"1": {"label": "*1", "atom_type": "Cs"}, "2": {"label": "*0", "atom_type": "CS"}, "10": {"label": "*3", "atom_type": "Cs"}, "11": {"label": "*2", "atom_type": "H0"}, "12": {"label": "*4", "atom_type": "H0"}}

>  <type>  (18) 
unop_14

>  <geom_source>  (18) 
gaussian_log

$$$$
