
     RDKit          3D

 11 10  0  0  0  0  0  0  0  0999 V2000
   -1.2710    0.1907   -0.2084 C   0  0  0  0  0  0  0  0  0  0  0  0
    0.0202   -0.6130   -0.2928 C   0  0  0  0  0  0  0  0  0  0  0  0
    0.1086   -1.6953    0.7756 C   0  0  0  0  0  0  0  0  0  0  0  0
   -1.3607    0.6851    0.7620 H   0  0  0  0  0  0  0  0  0  0  0  0
   -2.1429   -0.4567   -0.3299 H   0  0  0  0  0  0  0  0  0  0  0  0
   -1.3158    0.9602   -0.9809 H   0  0  0  0  0  0  0  0  0  0  0  0
    0.8757    0.0616   -0.1992 H   0  0  0  0  0  0  0  0  0  0  0  0
    0.0997   -1.0712   -1.2825 H   0  0  0  0  0  0  0  0  0  0  0  0
   -0.7198   -2.4022    0.6850 H   0  0  0  0  0  0  0  0  0  0  0  0
    1.0395   -2.2596    0.6989 H   0  0  0  0  0  0  0  0  0  0  0  0
    0.0624   -1.2603    1.7770 H   0  0  0  0  0  0  0  0  0  0  0  0
  1  2  1  0
  1  4  1  0
  1  5  1  0
  1  6  1  0
  2  3  1  0
  2  7  1  0
  2  8  1  0
  3  9  1  0
  3 10  1  0
  3 11  1  0
M  END
>  <reaction>  (1) 
rxn_917

>  <mol_properties>  (1) 
{"1": {"label": "donator", "atom_type": "Cs"}, "6": {"label": "d_hydrogen", "atom_type": "H0"}}

>  <type>  (1) 
r1h

$$$$

     RDKit          3D

 15 14  0  0  0  0  0  0  0  0999 V2000
    2.4381    0.5770   -0.2356 C   0  0  0  0  0  0  0  0  0  0  0  0
    1.4430   -0.3367   -0.1409 C   0  0  0  0  0  0  0  0  0  0  0  0
    0.0521   -0.0957   -0.0045 C   0  0  0  0  0  3  0  0  0  0  0  0
   -0.5167    1.2867    0.0548 C   0  0  0  0  0  0  0  0  0  0  0  0
   -0.8226   -1.2147    0.0778 C   0  0  0  0  0  0  0  0  0  0  0  0
   -2.1666   -1.1669    0.2092 C   0  0  0  0  0  0  0  0  0  0  0  0
    3.4666    0.2585   -0.3369 H   0  0  0  0  0  0  0  0  0  0  0  0
    2.2594    1.6438   -0.2152 H   0  0  0  0  0  0  0  0  0  0  0  0
    1.7306   -1.3845   -0.1719 H   0  0  0  0  0  0  0  0  0  0  0  0
   -1.2300    1.4469   -0.7583 H   0  0  0  0  0  0  0  0  0  0  0  0
    0.2481    2.0557   -0.0178 H   0  0  0  0  0  0  0  0  0  0  0  0
   -1.0592    1.4421    0.9914 H   0  0  0  0  0  0  0  0  0  0  0  0
   -0.3519   -2.1929    0.0292 H   0  0  0  0  0  0  0  0  0  0  0  0
   -2.7080   -0.2310    0.2646 H   0  0  0  0  0  0  0  0  0  0  0  0
   -2.7513   -2.0751    0.2638 H   0  0  0  0  0  0  0  0  0  0  0  0
  1  2  2  3
  1  7  1  0
  1  8  1  0
  2  3  1  0
  2  9  1  0
  3  4  1  0
  3  5  1  0
  4 10  1  0
  4 11  1  0
  4 12  1  0
  5  6  2  3
  5 13  1  0
  6 14  1  0
  6 15  1  0
M  RAD  1   3   2
M  END
>  <reaction>  (2) 
rxn_917

>  <mol_properties>  (2) 
{"2": {"label": "acceptor", "atom_type": "Cs"}}

>  <type>  (2) 
r2

$$$$

     RDKit          3D

 16 15  0  0  0  0  0  0  0  0999 V2000
    1.7961   -0.3807    1.6176 C   0  0  0  0  0  0  0  0  0  0  0  0
    0.8562   -0.8708    0.8256 C   0  0  0  0  0  0  0  0  0  0  0  0
    0.0895   -0.0826   -0.2048 C   0  0  0  0  0  0  0  0  0  0  0  0
   -1.4061   -0.1111    0.0982 C   0  0  0  0  0  0  0  0  0  0  0  0
    0.4476   -0.5902   -1.5797 C   0  0  0  0  0  0  0  0  0  0  0  0
   -0.3793   -1.1113   -2.4728 C   0  0  0  0  0  0  0  0  0  0  0  0
    2.3110   -1.0032    2.3386 H   0  0  0  0  0  0  0  0  0  0  0  0
    2.0846    0.6643    1.5737 H   0  0  0  0  0  0  0  0  0  0  0  0
    0.5921   -1.9241    0.8925 H   0  0  0  0  0  0  0  0  0  0  0  0
    0.4358    0.9557   -0.1462 H   0  0  0  0  0  0  0  0  0  0  0  0
   -1.5968    0.3080    1.0865 H   0  0  0  0  0  0  0  0  0  0  0  0
   -1.9674    0.4693   -0.6359 H   0  0  0  0  0  0  0  0  0  0  0  0
   -1.7902   -1.1338    0.0883 H   0  0  0  0  0  0  0  0  0  0  0  0
    1.5049   -0.5197   -1.8214 H   0  0  0  0  0  0  0  0  0  0  0  0
   -1.4421   -1.2131   -2.2889 H   0  0  0  0  0  0  0  0  0  0  0  0
   -0.0162   -1.4558   -3.4328 H   0  0  0  0  0  0  0  0  0  0  0  0
  1  2  2  3
  1  7  1  0
  1  8  1  0
  2  3  1  0
  2  9  1  0
  3  4  1  0
  3  5  1  0
  3 10  1  0
  4 11  1  0
  4 12  1  0
  4 13  1  0
  5  6  2  3
  5 14  1  0
  6 15  1  0
  6 16  1  0
M  END
>  <reaction>  (3) 
rxn_917

>  <mol_properties>  (3) 
{"2": {"label": "acceptor", "atom_type": "Cs"}, "15": {"label": "a_hydrogen", "atom_type": "H0"}}

>  <type>  (3) 
r2h

$$$$

     RDKit          3D

 26 24  0  0  0  0  0  0  0  0999 V2000
   -0.2552   -1.0944    2.7790 C   0  0  0  0  0  0  0  0  0  0  0  0
    0.2295   -0.2362    1.8873 C   0  0  0  0  0  0  0  0  0  0  0  0
    0.4119   -0.4668    0.4345 C   0  0  0  0  0  0  0  0  0  0  0  0
    0.1949   -1.8828   -0.0509 C   0  0  0  0  0  0  0  0  0  0  0  0
    1.5906    0.2436   -0.1140 C   0  0  0  0  0  0  0  0  0  0  0  0
    2.3743   -0.1531   -1.1126 C   0  0  0  0  0  0  0  0  0  0  0  0
   -0.3721   -0.8092    3.8165 H   0  0  0  0  0  0  0  0  0  0  0  0
   -0.5393   -2.1060    2.5163 H   0  0  0  0  0  0  0  0  0  0  0  0
    0.5042    0.7592    2.2295 H   0  0  0  0  0  0  0  0  0  0  0  0
    0.2198   -1.9278   -1.1401 H   0  0  0  0  0  0  0  0  0  0  0  0
   -0.7793   -2.2555    0.2683 H   0  0  0  0  0  0  0  0  0  0  0  0
    0.9629   -2.5578    0.3360 H   0  0  0  0  0  0  0  0  0  0  0  0
    1.8016    1.2040    0.3512 H   0  0  0  0  0  0  0  0  0  0  0  0
    2.2367   -1.1011   -1.6178 H   0  0  0  0  0  0  0  0  0  0  0  0
    3.1973    0.4637   -1.4495 H   0  0  0  0  0  0  0  0  0  0  0  0
   -1.4659    0.4913   -2.2005 C   0  0  0  0  0  0  0  0  0  0  0  0
   -1.6513    0.8685   -0.7629 C   0  0  0  0  0  3  0  0  0  0  0  0
   -1.3578    2.2855   -0.3761 C   0  0  0  0  0  0  0  0  0  0  0  0
   -0.4461    0.7101   -2.5295 H   0  0  0  0  0  0  0  0  0  0  0  0
   -2.1453    1.0562   -2.8515 H   0  0  0  0  0  0  0  0  0  0  0  0
   -1.6575   -0.5695   -2.3673 H   0  0  0  0  0  0  0  0  0  0  0  0
   -0.5510    0.1532   -0.0698 H   0  0  0  0  0  0  0  0  0  0  0  0
   -2.5131    0.4238   -0.2690 H   0  0  0  0  0  0  0  0  0  0  0  0
   -2.0791    2.9801   -0.8236 H   0  0  0  0  0  0  0  0  0  0  0  0
   -1.3978    2.4220    0.7061 H   0  0  0  0  0  0  0  0  0  0  0  0
   -0.3648    2.5848   -0.7236 H   0  0  0  0  0  0  0  0  0  0  0  0
  1  2  2  3
  1  7  1  0
  1  8  1  0
  2  3  1  0
  2  9  1  0
  3  4  1  0
  3  5  1  0
  3 22  1  0
  4 10  1  0
  4 11  1  0
  4 12  1  0
  5  6  2  3
  5 13  1  0
  6 14  1  0
  6 15  1  0
 16 17  1  0
 16 19  1  0
 16 20  1  0
 16 21  1  0
 17 18  1  0
 17 23  1  0
 18 24  1  0
 18 25  1  0
 18 26  1  0
M  RAD  1  17   2
M  END
>  <reaction>  (4) 
rxn_917

>  <mol_properties>  (4) 
{"1": {"label": "*0", "atom_type": "Cd"}, "2": {"label": "*1", "atom_type": "Cs"}, "15": {"label": "*4", "atom_type": "Cs"}, "16": {"label": "*3", "atom_type": "Cs"}, "21": {"label": "*2", "atom_type": "H0"}}

>  <type>  (4) 
ts

$$$$

     RDKit          3D

 26 24  0  0  0  0  0  0  0  0999 V2000
    1.5140    1.6980    0.8034 C   0  0  0  0  0  0  0  0  0  0  0  0
    1.3045    0.4245    1.0954 C   0  0  0  0  0  0  0  0  0  0  0  0
    0.4883   -0.5344    0.2677 C   0  0  0  0  0  3  0  0  0  0  0  0
   -0.6836   -1.0824    1.0774 C   0  0  0  0  0  0  0  0  0  0  0  0
    1.3985   -1.5988   -0.2934 C   0  0  0  0  0  0  0  0  0  0  0  0
    1.3169   -2.9034   -0.0830 C   0  0  0  0  0  0  0  0  0  0  0  0
    2.1130    2.3348    1.4423 H   0  0  0  0  0  0  0  0  0  0  0  0
    1.0917    2.1510   -0.0874 H   0  0  0  0  0  0  0  0  0  0  0  0
    1.7448   -0.0003    1.9951 H   0  0  0  0  0  0  0  0  0  0  0  0
   -1.2882   -1.7672    0.4805 H   0  0  0  0  0  0  0  0  0  0  0  0
   -1.3217   -0.2650    1.4143 H   0  0  0  0  0  0  0  0  0  0  0  0
   -0.3338   -1.6205    1.9614 H   0  0  0  0  0  0  0  0  0  0  0  0
    2.2024   -1.2168   -0.9173 H   0  0  0  0  0  0  0  0  0  0  0  0
    0.5421   -3.3439    0.5328 H   0  0  0  0  0  0  0  0  0  0  0  0
    2.0307   -3.5846   -0.5286 H   0  0  0  0  0  0  0  0  0  0  0  0
   -1.6130    0.7784   -2.1303 C   0  0  0  0  0  0  0  0  0  0  0  0
   -1.6130    0.7784   -0.6069 C   0  0  0  0  0  0  0  0  0  0  0  0
   -1.6130    2.1842   -0.0202 C   0  0  0  0  0  0  0  0  0  0  0  0
   -0.7316    1.2927   -2.5209 H   0  0  0  0  0  0  0  0  0  0  0  0
   -2.4945    1.2927   -2.5209 H   0  0  0  0  0  0  0  0  0  0  0  0
   -1.6130   -0.2365   -2.5314 H   0  0  0  0  0  0  0  0  0  0  0  0
   -0.5636    0.1228   -0.1701 H   0  0  0  0  0  0  0  0  0  0  0  0
   -2.4876    0.2321   -0.2429 H   0  0  0  0  0  0  0  0  0  0  0  0
   -2.4945    2.7428   -0.3444 H   0  0  0  0  0  0  0  0  0  0  0  0
   -1.6130    2.1636    1.0709 H   0  0  0  0  0  0  0  0  0  0  0  0
   -0.7316    2.7428   -0.3444 H   0  0  0  0  0  0  0  0  0  0  0  0
  1  2  2  3
  1  7  1  0
  1  8  1  0
  2  3  1  0
  2  9  1  0
  3  4  1  0
  3  5  1  0
  4 10  1  0
  4 11  1  0
  4 12  1  0
  5  6  2  3
  5 13  1  0
  6 14  1  0
  6 15  1  0
 16 17  1  0
 16 19  1  0
 16 20  1  0
 16 21  1  0
 17 18  1  0
 17 22  1  0
 17 23  1  0
 18 24  1  0
 18 25  1  0
 18 26  1  0
M  RAD  1   3   2
M  END
>  <reaction>  (5) 
rxn_917

>  <mol_properties>  (5) 
{"1": {"label": "*0", "atom_type": "Cd"}, "2": {"label": "*1", "atom_type": "Cs"}, "15": {"label": "*4", "atom_type": "Cs"}, "16": {"label": "*3", "atom_type": "Cs"}, "21": {"label": "*2", "atom_type": "H0"}}

>  <type>  (5) 
unop_1

>  <geom_source>  (5) 
Heuristics

$$$$

     RDKit          3D

 26 24  0  0  0  0  0  0  0  0999 V2000
    1.3958    0.0637   -1.8726 C   0  0  0  0  0  0  0  0  0  0  0  0
    1.5810   -0.2836   -0.6093 C   0  0  0  0  0  0  0  0  0  0  0  0
    0.4890   -0.4494    0.4158 C   0  0  0  0  0  3  0  0  0  0  0  0
    0.6959    0.5114    1.5835 C   0  0  0  0  0  0  0  0  0  0  0  0
    0.4100   -1.9006    0.8208 C   0  0  0  0  0  0  0  0  0  0  0  0
    0.5799   -2.3947    2.0374 C   0  0  0  0  0  0  0  0  0  0  0  0
    2.2262    0.1650   -2.5601 H   0  0  0  0  0  0  0  0  0  0  0  0
    0.4039    0.2608   -2.2655 H   0  0  0  0  0  0  0  0  0  0  0  0
    2.5884   -0.4772   -0.2471 H   0  0  0  0  0  0  0  0  0  0  0  0
   -0.0989    0.4074    2.3241 H   0  0  0  0  0  0  0  0  0  0  0  0
    0.6998    1.5413    1.2259 H   0  0  0  0  0  0  0  0  0  0  0  0
    1.6505    0.3260    2.0814 H   0  0  0  0  0  0  0  0  0  0  0  0
    0.2068   -2.5838    0.0003 H   0  0  0  0  0  0  0  0  0  0  0  0
    0.7898   -1.7661    2.8943 H   0  0  0  0  0  0  0  0  0  0  0  0
    0.5108   -3.4596    2.2200 H   0  0  0  0  0  0  0  0  0  0  0  0
   -1.6123    0.8634   -1.9821 C   0  0  0  0  0  0  0  0  0  0  0  0
   -1.6123    0.8634   -0.4588 C   0  0  0  0  0  0  0  0  0  0  0  0
   -1.6123    2.2692    0.1279 C   0  0  0  0  0  0  0  0  0  0  0  0
   -0.7309    1.3776   -2.3728 H   0  0  0  0  0  0  0  0  0  0  0  0
   -2.4938    1.3776   -2.3728 H   0  0  0  0  0  0  0  0  0  0  0  0
   -1.6123   -0.1515   -2.3833 H   0  0  0  0  0  0  0  0  0  0  0  0
   -0.5629    0.2077   -0.0220 H   0  0  0  0  0  0  0  0  0  0  0  0
   -2.4869    0.3170   -0.0948 H   0  0  0  0  0  0  0  0  0  0  0  0
   -2.4938    2.8277   -0.1962 H   0  0  0  0  0  0  0  0  0  0  0  0
   -1.6123    2.2485    1.2190 H   0  0  0  0  0  0  0  0  0  0  0  0
   -0.7309    2.8277   -0.1962 H   0  0  0  0  0  0  0  0  0  0  0  0
  1  2  2  3
  1  7  1  0
  1  8  1  0
  2  3  1  0
  2  9  1  0
  3  4  1  0
  3  5  1  0
  4 10  1  0
  4 11  1  0
  4 12  1  0
  5  6  2  3
  5 13  1  0
  6 14  1  0
  6 15  1  0
 16 17  1  0
 16 19  1  0
 16 20  1  0
 16 21  1  0
 17 18  1  0
 17 22  1  0
 17 23  1  0
 18 24  1  0
 18 25  1  0
 18 26  1  0
M  RAD  1   3   2
M  END
>  <reaction>  (6) 
rxn_917

>  <mol_properties>  (6) 
{"1": {"label": "*0", "atom_type": "Cd"}, "2": {"label": "*1", "atom_type": "Cs"}, "15": {"label": "*4", "atom_type": "Cs"}, "16": {"label": "*3", "atom_type": "Cs"}, "21": {"label": "*2", "atom_type": "H0"}}

>  <type>  (6) 
unop_2

>  <geom_source>  (6) 
Heuristics

$$$$

     RDKit          3D

 26 24  0  0  0  0  0  0  0  0999 V2000
    0.6531    1.3179    1.9583 C   0  0  0  0  0  0  0  0  0  0  0  0
    0.8695    0.0627    1.5997 C   0  0  0  0  0  0  0  0  0  0  0  0
    0.4808   -0.5425    0.2755 C   0  0  0  0  0  3  0  0  0  0  0  0
   -0.4850   -1.7067    0.4780 C   0  0  0  0  0  0  0  0  0  0  0  0
    1.7316   -0.9070   -0.4854 C   0  0  0  0  0  0  0  0  0  0  0  0
    2.0837   -2.1138   -0.9007 C   0  0  0  0  0  0  0  0  0  0  0  0
    0.9590    1.6911    2.9276 H   0  0  0  0  0  0  0  0  0  0  0  0
    0.1598    2.0192    1.2935 H   0  0  0  0  0  0  0  0  0  0  0  0
    1.3695   -0.6147    2.2887 H   0  0  0  0  0  0  0  0  0  0  0  0
   -0.7825   -2.1419   -0.4775 H   0  0  0  0  0  0  0  0  0  0  0  0
   -1.3824   -1.3645    0.9941 H   0  0  0  0  0  0  0  0  0  0  0  0
   -0.0304   -2.4945    1.0832 H   0  0  0  0  0  0  0  0  0  0  0  0
    2.3963   -0.0697   -0.6811 H   0  0  0  0  0  0  0  0  0  0  0  0
    1.4666   -2.9881   -0.7316 H   0  0  0  0  0  0  0  0  0  0  0  0
    3.0129   -2.2696   -1.4340 H   0  0  0  0  0  0  0  0  0  0  0  0
   -1.6205    0.7703   -2.1225 C   0  0  0  0  0  0  0  0  0  0  0  0
   -1.6205    0.7703   -0.5991 C   0  0  0  0  0  0  0  0  0  0  0  0
   -1.6205    2.1761   -0.0124 C   0  0  0  0  0  0  0  0  0  0  0  0
   -0.7391    1.2846   -2.5131 H   0  0  0  0  0  0  0  0  0  0  0  0
   -2.5020    1.2846   -2.5131 H   0  0  0  0  0  0  0  0  0  0  0  0
   -1.6205   -0.2446   -2.5236 H   0  0  0  0  0  0  0  0  0  0  0  0
   -0.5711    0.1147   -0.1623 H   0  0  0  0  0  0  0  0  0  0  0  0
   -2.4951    0.2240   -0.2351 H   0  0  0  0  0  0  0  0  0  0  0  0
   -2.5020    2.7347   -0.3365 H   0  0  0  0  0  0  0  0  0  0  0  0
   -1.6205    2.1554    1.0787 H   0  0  0  0  0  0  0  0  0  0  0  0
   -0.7391    2.7347   -0.3365 H   0  0  0  0  0  0  0  0  0  0  0  0
  1  2  2  3
  1  7  1  0
  1  8  1  0
  2  3  1  0
  2  9  1  0
  3  4  1  0
  3  5  1  0
  4 10  1  0
  4 11  1  0
  4 12  1  0
  5  6  2  3
  5 13  1  0
  6 14  1  0
  6 15  1  0
 16 17  1  0
 16 19  1  0
 16 20  1  0
 16 21  1  0
 17 18  1  0
 17 22  1  0
 17 23  1  0
 18 24  1  0
 18 25  1  0
 18 26  1  0
M  RAD  1   3   2
M  END
>  <reaction>  (7) 
rxn_917

>  <mol_properties>  (7) 
{"1": {"label": "*0", "atom_type": "Cd"}, "2": {"label": "*1", "atom_type": "Cs"}, "15": {"label": "*4", "atom_type": "Cs"}, "16": {"label": "*3", "atom_type": "Cs"}, "21": {"label": "*2", "atom_type": "H0"}}

>  <type>  (7) 
unop_3

>  <geom_source>  (7) 
Heuristics

$$$$

     RDKit          3D

 26 24  0  0  0  0  0  0  0  0999 V2000
    0.0985   -2.1491   -1.4383 C   0  0  0  0  0  0  0  0  0  0  0  0
    0.6761   -1.7993   -0.3004 C   0  0  0  0  0  0  0  0  0  0  0  0
    0.7738   -0.3915    0.2283 C   0  0  0  0  0  3  0  0  0  0  0  0
    2.2337    0.0203    0.3975 C   0  0  0  0  0  0  0  0  0  0  0  0
   -0.0458   -0.2813    1.4901 C   0  0  0  0  0  0  0  0  0  0  0  0
    0.3936    0.0481    2.6948 C   0  0  0  0  0  0  0  0  0  0  0  0
    0.0617   -3.1819   -1.7611 H   0  0  0  0  0  0  0  0  0  0  0  0
   -0.3589   -1.4124   -2.0904 H   0  0  0  0  0  0  0  0  0  0  0  0
    1.1232   -2.5629    0.3326 H   0  0  0  0  0  0  0  0  0  0  0  0
    2.3133    1.0440    0.7669 H   0  0  0  0  0  0  0  0  0  0  0  0
    2.7542   -0.0417   -0.5585 H   0  0  0  0  0  0  0  0  0  0  0  0
    2.7487   -0.6363    1.1026 H   0  0  0  0  0  0  0  0  0  0  0  0
   -1.0986   -0.5196    1.3622 H   0  0  0  0  0  0  0  0  0  0  0  0
    1.4317    0.2910    2.8869 H   0  0  0  0  0  0  0  0  0  0  0  0
   -0.2807    0.0892    3.5410 H   0  0  0  0  0  0  0  0  0  0  0  0
   -1.3276    0.9212   -2.1697 C   0  0  0  0  0  0  0  0  0  0  0  0
   -1.3276    0.9212   -0.6464 C   0  0  0  0  0  0  0  0  0  0  0  0
   -1.3276    2.3270   -0.0596 C   0  0  0  0  0  0  0  0  0  0  0  0
   -0.4461    1.4355   -2.5603 H   0  0  0  0  0  0  0  0  0  0  0  0
   -2.2090    1.4355   -2.5603 H   0  0  0  0  0  0  0  0  0  0  0  0
   -1.3276   -0.0937   -2.5709 H   0  0  0  0  0  0  0  0  0  0  0  0
   -0.2781    0.2656   -0.2096 H   0  0  0  0  0  0  0  0  0  0  0  0
   -2.2021    0.3749   -0.2824 H   0  0  0  0  0  0  0  0  0  0  0  0
   -2.2090    2.8856   -0.3838 H   0  0  0  0  0  0  0  0  0  0  0  0
   -1.3276    2.3064    1.0315 H   0  0  0  0  0  0  0  0  0  0  0  0
   -0.4461    2.8856   -0.3838 H   0  0  0  0  0  0  0  0  0  0  0  0
  1  2  2  3
  1  7  1  0
  1  8  1  0
  2  3  1  0
  2  9  1  0
  3  4  1  0
  3  5  1  0
  4 10  1  0
  4 11  1  0
  4 12  1  0
  5  6  2  3
  5 13  1  0
  6 14  1  0
  6 15  1  0
 16 17  1  0
 16 19  1  0
 16 20  1  0
 16 21  1  0
 17 18  1  0
 17 22  1  0
 17 23  1  0
 18 24  1  0
 18 25  1  0
 18 26  1  0
M  RAD  1   3   2
M  END
>  <reaction>  (8) 
rxn_917

>  <mol_properties>  (8) 
{"1": {"label": "*0", "atom_type": "Cd"}, "2": {"label": "*1", "atom_type": "Cs"}, "15": {"label": "*4", "atom_type": "Cs"}, "16": {"label": "*3", "atom_type": "Cs"}, "21": {"label": "*2", "atom_type": "H0"}}

>  <type>  (8) 
unop_4

>  <geom_source>  (8) 
Heuristics

$$$$

     RDKit          3D

 26 24  0  0  0  0  0  0  0  0999 V2000
   -0.4904    0.0043    2.4831 C   0  0  0  0  0  0  0  0  0  0  0  0
    0.4322   -0.6092    1.7597 C   0  0  0  0  0  0  0  0  0  0  0  0
    0.4791   -0.6385    0.2538 C   0  0  0  0  0  3  0  0  0  0  0  0
    0.4008   -2.0736   -0.2598 C   0  0  0  0  0  0  0  0  0  0  0  0
    1.6979    0.1165   -0.2158 C   0  0  0  0  0  0  0  0  0  0  0  0
    2.7004   -0.3644   -0.9346 C   0  0  0  0  0  0  0  0  0  0  0  0
   -0.4658   -0.0126    3.5654 H   0  0  0  0  0  0  0  0  0  0  0  0
   -1.3066    0.5464    2.0171 H   0  0  0  0  0  0  0  0  0  0  0  0
    1.2396   -1.1419    2.2578 H   0  0  0  0  0  0  0  0  0  0  0  0
    0.4200   -2.1026   -1.3505 H   0  0  0  0  0  0  0  0  0  0  0  0
   -0.5221   -2.5441    0.0804 H   0  0  0  0  0  0  0  0  0  0  0  0
    1.2374   -2.6704    0.1106 H   0  0  0  0  0  0  0  0  0  0  0  0
    1.7302    1.1557    0.1011 H   0  0  0  0  0  0  0  0  0  0  0  0
    2.7283   -1.3923   -1.2757 H   0  0  0  0  0  0  0  0  0  0  0  0
    3.5373    0.2637   -1.2125 H   0  0  0  0  0  0  0  0  0  0  0  0
   -1.6223    0.6743   -2.1441 C   0  0  0  0  0  0  0  0  0  0  0  0
   -1.6223    0.6743   -0.6208 C   0  0  0  0  0  0  0  0  0  0  0  0
   -1.6223    2.0801   -0.0341 C   0  0  0  0  0  0  0  0  0  0  0  0
   -0.7408    1.1886   -2.5348 H   0  0  0  0  0  0  0  0  0  0  0  0
   -2.5037    1.1886   -2.5348 H   0  0  0  0  0  0  0  0  0  0  0  0
   -1.6223   -0.3406   -2.5453 H   0  0  0  0  0  0  0  0  0  0  0  0
   -0.5728    0.0187   -0.1840 H   0  0  0  0  0  0  0  0  0  0  0  0
   -2.4968    0.1279   -0.2568 H   0  0  0  0  0  0  0  0  0  0  0  0
   -2.5037    2.6387   -0.3582 H   0  0  0  0  0  0  0  0  0  0  0  0
   -1.6223    2.0594    1.0570 H   0  0  0  0  0  0  0  0  0  0  0  0
   -0.7408    2.6387   -0.3582 H   0  0  0  0  0  0  0  0  0  0  0  0
  1  2  2  3
  1  7  1  0
  1  8  1  0
  2  3  1  0
  2  9  1  0
  3  4  1  0
  3  5  1  0
  4 10  1  0
  4 11  1  0
  4 12  1  0
  5  6  2  3
  5 13  1  0
  6 14  1  0
  6 15  1  0
 16 17  1  0
 16 19  1  0
 16 20  1  0
 16 21  1  0
 17 18  1  0
 17 22  1  0
 17 23  1  0
 18 24  1  0
 18 25  1  0
 18 26  1  0
M  RAD  1   3   2
M  END
>  <reaction>  (9) 
rxn_917

>  <mol_properties>  (9) 
{"1": {"label": "*0", "atom_type": "Cd"}, "2": {"label": "*1", "atom_type": "Cs"}, "15": {"label": "*4", "atom_type": "Cs"}, "16": {"label": "*3", "atom_type": "Cs"}, "21": {"label": "*2", "atom_type": "H0"}}

>  <type>  (9) 
unop_5

>  <geom_source>  (9) 
Heuristics

$$$$

     RDKit          3D

 26 24  0  0  0  0  0  0  0  0999 V2000
   -0.4457   -2.6010   -0.5199 C   0  0  0  0  0  0  0  0  0  0  0  0
    0.3720   -1.9487    0.2905 C   0  0  0  0  0  0  0  0  0  0  0  0
    0.7748   -0.5044    0.1410 C   0  0  0  0  0  3  0  0  0  0  0  0
    2.2867   -0.3814   -0.0276 C   0  0  0  0  0  0  0  0  0  0  0  0
    0.2199    0.2844    1.3012 C   0  0  0  0  0  0  0  0  0  0  0  0
    0.9120    0.9754    2.1936 C   0  0  0  0  0  0  0  0  0  0  0  0
   -0.6957   -3.6416   -0.3553 H   0  0  0  0  0  0  0  0  0  0  0  0
   -0.8950   -2.1164   -1.3803 H   0  0  0  0  0  0  0  0  0  0  0  0
    0.8038   -2.4629    1.1466 H   0  0  0  0  0  0  0  0  0  0  0  0
    2.5854    0.6609   -0.1506 H   0  0  0  0  0  0  0  0  0  0  0  0
    2.6128   -0.9384   -0.9063 H   0  0  0  0  0  0  0  0  0  0  0  0
    2.8137   -0.7857    0.8398 H   0  0  0  0  0  0  0  0  0  0  0  0
   -0.8625    0.2453    1.3920 H   0  0  0  0  0  0  0  0  0  0  0  0
    1.9924    1.0479    2.1596 H   0  0  0  0  0  0  0  0  0  0  0  0
    0.4138    1.5018    2.9979 H   0  0  0  0  0  0  0  0  0  0  0  0
   -1.3265    0.8084   -2.2570 C   0  0  0  0  0  0  0  0  0  0  0  0
   -1.3265    0.8084   -0.7336 C   0  0  0  0  0  0  0  0  0  0  0  0
   -1.3265    2.2142   -0.1469 C   0  0  0  0  0  0  0  0  0  0  0  0
   -0.4451    1.3227   -2.6476 H   0  0  0  0  0  0  0  0  0  0  0  0
   -2.2080    1.3227   -2.6476 H   0  0  0  0  0  0  0  0  0  0  0  0
   -1.3265   -0.2065   -2.6581 H   0  0  0  0  0  0  0  0  0  0  0  0
   -0.2771    0.1528   -0.2968 H   0  0  0  0  0  0  0  0  0  0  0  0
   -2.2011    0.2621   -0.3696 H   0  0  0  0  0  0  0  0  0  0  0  0
   -2.2080    2.7728   -0.4711 H   0  0  0  0  0  0  0  0  0  0  0  0
   -1.3265    2.1936    0.9442 H   0  0  0  0  0  0  0  0  0  0  0  0
   -0.4451    2.7728   -0.4711 H   0  0  0  0  0  0  0  0  0  0  0  0
  1  2  2  3
  1  7  1  0
  1  8  1  0
  2  3  1  0
  2  9  1  0
  3  4  1  0
  3  5  1  0
  4 10  1  0
  4 11  1  0
  4 12  1  0
  5  6  2  3
  5 13  1  0
  6 14  1  0
  6 15  1  0
 16 17  1  0
 16 19  1  0
 16 20  1  0
 16 21  1  0
 17 18  1  0
 17 22  1  0
 17 23  1  0
 18 24  1  0
 18 25  1  0
 18 26  1  0
M  RAD  1   3   2
M  END
>  <reaction>  (10) 
rxn_917

>  <mol_properties>  (10) 
{"1": {"label": "*0", "atom_type": "Cd"}, "2": {"label": "*1", "atom_type": "Cs"}, "15": {"label": "*4", "atom_type": "Cs"}, "16": {"label": "*3", "atom_type": "Cs"}, "21": {"label": "*2", "atom_type": "H0"}}

>  <type>  (10) 
unop_6

>  <geom_source>  (10) 
Heuristics

$$$$

     RDKit          3D

 26 24  0  0  0  0  0  0  0  0999 V2000
   -0.8863   -2.4904    0.6829 C   0  0  0  0  0  0  0  0  0  0  0  0
    0.2019   -1.7834    0.9412 C   0  0  0  0  0  0  0  0  0  0  0  0
    0.7057   -0.6293    0.1135 C   0  0  0  0  0  3  0  0  0  0  0  0
    2.1055   -0.9200   -0.4206 C   0  0  0  0  0  0  0  0  0  0  0  0
    0.6090    0.6385    0.9257 C   0  0  0  0  0  0  0  0  0  0  0  0
    1.6065    1.4391    1.2676 C   0  0  0  0  0  0  0  0  0  0  0  0
   -1.1945   -3.3096    1.3203 H   0  0  0  0  0  0  0  0  0  0  0  0
   -1.5095   -2.2753   -0.1788 H   0  0  0  0  0  0  0  0  0  0  0  0
    0.8038   -2.0229    1.8153 H   0  0  0  0  0  0  0  0  0  0  0  0
    2.4722   -0.0946   -1.0330 H   0  0  0  0  0  0  0  0  0  0  0  0
    2.0940   -1.8228   -1.0318 H   0  0  0  0  0  0  0  0  0  0  0  0
    2.8136   -1.0776    0.3962 H   0  0  0  0  0  0  0  0  0  0  0  0
   -0.3964    0.8795    1.2611 H   0  0  0  0  0  0  0  0  0  0  0  0
    2.6304    1.2499    0.9685 H   0  0  0  0  0  0  0  0  0  0  0  0
    1.4294    2.3250    1.8643 H   0  0  0  0  0  0  0  0  0  0  0  0
   -1.3957    0.6835   -2.2845 C   0  0  0  0  0  0  0  0  0  0  0  0
   -1.3957    0.6835   -0.7611 C   0  0  0  0  0  0  0  0  0  0  0  0
   -1.3957    2.0893   -0.1744 C   0  0  0  0  0  0  0  0  0  0  0  0
   -0.5142    1.1977   -2.6751 H   0  0  0  0  0  0  0  0  0  0  0  0
   -2.2771    1.1977   -2.6751 H   0  0  0  0  0  0  0  0  0  0  0  0
   -1.3957   -0.3314   -2.6856 H   0  0  0  0  0  0  0  0  0  0  0  0
   -0.3462    0.0279   -0.3243 H   0  0  0  0  0  0  0  0  0  0  0  0
   -2.2702    0.1371   -0.3971 H   0  0  0  0  0  0  0  0  0  0  0  0
   -2.2771    2.6479   -0.4986 H   0  0  0  0  0  0  0  0  0  0  0  0
   -1.3957    2.0686    0.9167 H   0  0  0  0  0  0  0  0  0  0  0  0
   -0.5142    2.6479   -0.4986 H   0  0  0  0  0  0  0  0  0  0  0  0
  1  2  2  3
  1  7  1  0
  1  8  1  0
  2  3  1  0
  2  9  1  0
  3  4  1  0
  3  5  1  0
  4 10  1  0
  4 11  1  0
  4 12  1  0
  5  6  2  3
  5 13  1  0
  6 14  1  0
  6 15  1  0
 16 17  1  0
 16 19  1  0
 16 20  1  0
 16 21  1  0
 17 18  1  0
 17 22  1  0
 17 23  1  0
 18 24  1  0
 18 25  1  0
 18 26  1  0
M  RAD  1   3   2
M  END
>  <reaction>  (11) 
rxn_917

>  <mol_properties>  (11) 
{"1": {"label": "*0", "atom_type": "Cd"}, "2": {"label": "*1", "atom_type": "Cs"}, "15": {"label": "*4", "atom_type": "Cs"}, "16": {"label": "*3", "atom_type": "Cs"}, "21": {"label": "*2", "atom_type": "H0"}}

>  <type>  (11) 
unop_7

>  <geom_source>  (11) 
Heuristics

$$$$

     RDKit          3D

 26 24  0  0  0  0  0  0  0  0999 V2000
    1.8552    1.4321   -0.3980 C   0  0  0  0  0  0  0  0  0  0  0  0
    1.5899    0.4484    0.4464 C   0  0  0  0  0  0  0  0  0  0  0  0
    0.4685   -0.5470    0.2969 C   0  0  0  0  0  3  0  0  0  0  0  0
   -0.4842   -0.4680    1.4866 C   0  0  0  0  0  0  0  0  0  0  0  0
    1.0546   -1.9184    0.0690 C   0  0  0  0  0  0  0  0  0  0  0  0
    0.8845   -2.9896    0.8284 C   0  0  0  0  0  0  0  0  0  0  0  0
    2.6792    2.1146   -0.2321 H   0  0  0  0  0  0  0  0  0  0  0  0
    1.2553    1.5910   -1.2879 H   0  0  0  0  0  0  0  0  0  0  0  0
    2.2127    0.3143    1.3283 H   0  0  0  0  0  0  0  0  0  0  0  0
   -1.3072   -1.1765    1.3792 H   0  0  0  0  0  0  0  0  0  0  0  0
   -0.9026    0.5356    1.5663 H   0  0  0  0  0  0  0  0  0  0  0  0
    0.0350   -0.6898    2.4219 H   0  0  0  0  0  0  0  0  0  0  0  0
    1.6895   -1.9934   -0.8099 H   0  0  0  0  0  0  0  0  0  0  0  0
    0.2682   -2.9767    1.7193 H   0  0  0  0  0  0  0  0  0  0  0  0
    1.3604   -3.9296    0.5791 H   0  0  0  0  0  0  0  0  0  0  0  0
   -1.6328    0.7658   -2.1011 C   0  0  0  0  0  0  0  0  0  0  0  0
   -1.6328    0.7658   -0.5778 C   0  0  0  0  0  0  0  0  0  0  0  0
   -1.6328    2.1716    0.0089 C   0  0  0  0  0  0  0  0  0  0  0  0
   -0.7514    1.2801   -2.4917 H   0  0  0  0  0  0  0  0  0  0  0  0
   -2.5143    1.2800   -2.4917 H   0  0  0  0  0  0  0  0  0  0  0  0
   -1.6328   -0.2491   -2.5023 H   0  0  0  0  0  0  0  0  0  0  0  0
   -0.5834    0.1102   -0.1410 H   0  0  0  0  0  0  0  0  0  0  0  0
   -2.5074    0.2194   -0.2138 H   0  0  0  0  0  0  0  0  0  0  0  0
   -2.5143    2.7302   -0.3152 H   0  0  0  0  0  0  0  0  0  0  0  0
   -1.6328    2.1509    1.1001 H   0  0  0  0  0  0  0  0  0  0  0  0
   -0.7514    2.7302   -0.3152 H   0  0  0  0  0  0  0  0  0  0  0  0
  1  2  2  3
  1  7  1  0
  1  8  1  0
  2  3  1  0
  2  9  1  0
  3  4  1  0
  3  5  1  0
  4 10  1  0
  4 11  1  0
  4 12  1  0
  5  6  2  3
  5 13  1  0
  6 14  1  0
  6 15  1  0
 16 17  1  0
 16 19  1  0
 16 20  1  0
 16 21  1  0
 17 18  1  0
 17 22  1  0
 17 23  1  0
 18 24  1  0
 18 25  1  0
 18 26  1  0
M  RAD  1   3   2
M  END
>  <reaction>  (12) 
rxn_917

>  <mol_properties>  (12) 
{"1": {"label": "*0", "atom_type": "Cd"}, "2": {"label": "*1", "atom_type": "Cs"}, "15": {"label": "*4", "atom_type": "Cs"}, "16": {"label": "*3", "atom_type": "Cs"}, "21": {"label": "*2", "atom_type": "H0"}}

>  <type>  (12) 
unop_8

>  <geom_source>  (12) 
Heuristics

$$$$

     RDKit          3D

 26 24  0  0  0  0  0  0  0  0999 V2000
    0.5862   -1.4084   -1.9340 C   0  0  0  0  0  0  0  0  0  0  0  0
    1.0307   -1.3899   -0.6877 C   0  0  0  0  0  0  0  0  0  0  0  0
    0.7008   -0.3358    0.3374 C   0  0  0  0  0  3  0  0  0  0  0  0
    1.9696    0.3609    0.8212 C   0  0  0  0  0  0  0  0  0  0  0  0
   -0.1159   -0.9608    1.4412 C   0  0  0  0  0  0  0  0  0  0  0  0
    0.2027   -1.0245    2.7247 C   0  0  0  0  0  0  0  0  0  0  0  0
    0.8615   -2.1977   -2.6221 H   0  0  0  0  0  0  0  0  0  0  0  0
   -0.0702   -0.6317   -2.3121 H   0  0  0  0  0  0  0  0  0  0  0  0
    1.6854   -2.1855   -0.3386 H   0  0  0  0  0  0  0  0  0  0  0  0
    1.7380    1.1357    1.5539 H   0  0  0  0  0  0  0  0  0  0  0  0
    2.4862    0.8257   -0.0190 H   0  0  0  0  0  0  0  0  0  0  0  0
    2.6569   -0.3505    1.2849 H   0  0  0  0  0  0  0  0  0  0  0  0
   -1.0485   -1.4094    1.1088 H   0  0  0  0  0  0  0  0  0  0  0  0
    1.1199   -0.6010    3.1160 H   0  0  0  0  0  0  0  0  0  0  0  0
   -0.4540   -1.5067    3.4377 H   0  0  0  0  0  0  0  0  0  0  0  0
   -1.4005    0.9770   -2.0606 C   0  0  0  0  0  0  0  0  0  0  0  0
   -1.4005    0.9770   -0.5373 C   0  0  0  0  0  0  0  0  0  0  0  0
   -1.4005    2.3828    0.0494 C   0  0  0  0  0  0  0  0  0  0  0  0
   -0.5191    1.4913   -2.4512 H   0  0  0  0  0  0  0  0  0  0  0  0
   -2.2820    1.4913   -2.4512 H   0  0  0  0  0  0  0  0  0  0  0  0
   -1.4005   -0.0379   -2.4618 H   0  0  0  0  0  0  0  0  0  0  0  0
   -0.3511    0.3214   -0.1005 H   0  0  0  0  0  0  0  0  0  0  0  0
   -2.2751    0.4306   -0.1733 H   0  0  0  0  0  0  0  0  0  0  0  0
   -2.2820    2.9414   -0.2747 H   0  0  0  0  0  0  0  0  0  0  0  0
   -1.4005    2.3621    1.1405 H   0  0  0  0  0  0  0  0  0  0  0  0
   -0.5191    2.9414   -0.2747 H   0  0  0  0  0  0  0  0  0  0  0  0
  1  2  2  3
  1  7  1  0
  1  8  1  0
  2  3  1  0
  2  9  1  0
  3  4  1  0
  3  5  1  0
  4 10  1  0
  4 11  1  0
  4 12  1  0
  5  6  2  3
  5 13  1  0
  6 14  1  0
  6 15  1  0
 16 17  1  0
 16 19  1  0
 16 20  1  0
 16 21  1  0
 17 18  1  0
 17 22  1  0
 17 23  1  0
 18 24  1  0
 18 25  1  0
 18 26  1  0
M  RAD  1   3   2
M  END
>  <reaction>  (13) 
rxn_917

>  <mol_properties>  (13) 
{"1": {"label": "*0", "atom_type": "Cd"}, "2": {"label": "*1", "atom_type": "Cs"}, "15": {"label": "*4", "atom_type": "Cs"}, "16": {"label": "*3", "atom_type": "Cs"}, "21": {"label": "*2", "atom_type": "H0"}}

>  <type>  (13) 
unop_9

>  <geom_source>  (13) 
Heuristics

$$$$

     RDKit          3D

 26 24  0  0  0  0  0  0  0  0999 V2000
    1.7574    0.8012   -1.3357 C   0  0  0  0  0  0  0  0  0  0  0  0
    1.6781    0.1818   -0.1691 C   0  0  0  0  0  0  0  0  0  0  0  0
    0.4558   -0.5234    0.3596 C   0  0  0  0  0  3  0  0  0  0  0  0
   -0.0024    0.1044    1.6731 C   0  0  0  0  0  0  0  0  0  0  0  0
    0.7417   -2.0019    0.4521 C   0  0  0  0  0  0  0  0  0  0  0  0
    0.7097   -2.7489    1.5448 C   0  0  0  0  0  0  0  0  0  0  0  0
    2.6688    1.2894   -1.6573 H   0  0  0  0  0  0  0  0  0  0  0  0
    0.9106    0.8432   -2.0126 H   0  0  0  0  0  0  0  0  0  0  0  0
    2.5466    0.1552    0.4857 H   0  0  0  0  0  0  0  0  0  0  0  0
   -0.8959   -0.3918    2.0556 H   0  0  0  0  0  0  0  0  0  0  0  0
   -0.2324    1.1597    1.5245 H   0  0  0  0  0  0  0  0  0  0  0  0
    0.7771    0.0355    2.4353 H   0  0  0  0  0  0  0  0  0  0  0  0
    1.0142   -2.4650   -0.4927 H   0  0  0  0  0  0  0  0  0  0  0  0
    0.4507   -2.3447    2.5159 H   0  0  0  0  0  0  0  0  0  0  0  0
    0.9420   -3.8055    1.5034 H   0  0  0  0  0  0  0  0  0  0  0  0
   -1.6455    0.7894   -2.0384 C   0  0  0  0  0  0  0  0  0  0  0  0
   -1.6455    0.7894   -0.5151 C   0  0  0  0  0  0  0  0  0  0  0  0
   -1.6455    2.1952    0.0717 C   0  0  0  0  0  0  0  0  0  0  0  0
   -0.7641    1.3036   -2.4290 H   0  0  0  0  0  0  0  0  0  0  0  0
   -2.5270    1.3036   -2.4290 H   0  0  0  0  0  0  0  0  0  0  0  0
   -1.6455   -0.2255   -2.4395 H   0  0  0  0  0  0  0  0  0  0  0  0
   -0.5961    0.1338   -0.0783 H   0  0  0  0  0  0  0  0  0  0  0  0
   -2.5200    0.2430   -0.1511 H   0  0  0  0  0  0  0  0  0  0  0  0
   -2.5270    2.7538   -0.2525 H   0  0  0  0  0  0  0  0  0  0  0  0
   -1.6455    2.1745    1.1628 H   0  0  0  0  0  0  0  0  0  0  0  0
   -0.7641    2.7538   -0.2525 H   0  0  0  0  0  0  0  0  0  0  0  0
  1  2  2  3
  1  7  1  0
  1  8  1  0
  2  3  1  0
  2  9  1  0
  3  4  1  0
  3  5  1  0
  4 10  1  0
  4 11  1  0
  4 12  1  0
  5  6  2  3
  5 13  1  0
  6 14  1  0
  6 15  1  0
 16 17  1  0
 16 19  1  0
 16 20  1  0
 16 21  1  0
 17 18  1  0
 17 22  1  0
 17 23  1  0
 18 24  1  0
 18 25  1  0
 18 26  1  0
M  RAD  1   3   2
M  END
>  <reaction>  (14) 
rxn_917

>  <mol_properties>  (14) 
{"1": {"label": "*0", "atom_type": "Cd"}, "2": {"label": "*1", "atom_type": "Cs"}, "15": {"label": "*4", "atom_type": "Cs"}, "16": {"label": "*3", "atom_type": "Cs"}, "21": {"label": "*2", "atom_type": "H0"}}

>  <type>  (14) 
unop_10

>  <geom_source>  (14) 
Heuristics

$$$$

     RDKit          3D

 26 24  0  0  0  0  0  0  0  0999 V2000
   -1.0213   -1.6141    1.8706 C   0  0  0  0  0  0  0  0  0  0  0  0
    0.2096   -1.3156    1.4876 C   0  0  0  0  0  0  0  0  0  0  0  0
    0.5830   -0.7009    0.1634 C   0  0  0  0  0  3  0  0  0  0  0  0
    1.5234   -1.6202   -0.6112 C   0  0  0  0  0  0  0  0  0  0  0  0
    1.1346    0.6831    0.4010 C   0  0  0  0  0  0  0  0  0  0  0  0
    2.3425    1.1210    0.0814 C   0  0  0  0  0  0  0  0  0  0  0  0
   -1.2223   -2.0550    2.8389 H   0  0  0  0  0  0  0  0  0  0  0  0
   -1.8748   -1.4285    1.2270 H   0  0  0  0  0  0  0  0  0  0  0  0
    1.0437   -1.5116    2.1579 H   0  0  0  0  0  0  0  0  0  0  0  0
    1.7876   -1.1884   -1.5780 H   0  0  0  0  0  0  0  0  0  0  0  0
    1.0463   -2.5851   -0.7846 H   0  0  0  0  0  0  0  0  0  0  0  0
    2.4466   -1.7981   -0.0549 H   0  0  0  0  0  0  0  0  0  0  0  0
    0.4469    1.3588    0.9028 H   0  0  0  0  0  0  0  0  0  0  0  0
    3.0738    0.4944   -0.4149 H   0  0  0  0  0  0  0  0  0  0  0  0
    2.6437    2.1364    0.3059 H   0  0  0  0  0  0  0  0  0  0  0  0
   -1.5183    0.6119   -2.2346 C   0  0  0  0  0  0  0  0  0  0  0  0
   -1.5183    0.6119   -0.7112 C   0  0  0  0  0  0  0  0  0  0  0  0
   -1.5183    2.0177   -0.1245 C   0  0  0  0  0  0  0  0  0  0  0  0
   -0.6369    1.1262   -2.6252 H   0  0  0  0  0  0  0  0  0  0  0  0
   -2.3998    1.1261   -2.6252 H   0  0  0  0  0  0  0  0  0  0  0  0
   -1.5183   -0.4030   -2.6357 H   0  0  0  0  0  0  0  0  0  0  0  0
   -0.4689   -0.0437   -0.2744 H   0  0  0  0  0  0  0  0  0  0  0  0
   -2.3929    0.0655   -0.3472 H   0  0  0  0  0  0  0  0  0  0  0  0
   -2.3998    2.5763   -0.4487 H   0  0  0  0  0  0  0  0  0  0  0  0
   -1.5183    1.9970    0.9666 H   0  0  0  0  0  0  0  0  0  0  0  0
   -0.6369    2.5763   -0.4487 H   0  0  0  0  0  0  0  0  0  0  0  0
  1  2  2  3
  1  7  1  0
  1  8  1  0
  2  3  1  0
  2  9  1  0
  3  4  1  0
  3  5  1  0
  4 10  1  0
  4 11  1  0
  4 12  1  0
  5  6  2  3
  5 13  1  0
  6 14  1  0
  6 15  1  0
 16 17  1  0
 16 19  1  0
 16 20  1  0
 16 21  1  0
 17 18  1  0
 17 22  1  0
 17 23  1  0
 18 24  1  0
 18 25  1  0
 18 26  1  0
M  RAD  1   3   2
M  END
>  <reaction>  (15) 
rxn_917

>  <mol_properties>  (15) 
{"1": {"label": "*0", "atom_type": "Cd"}, "2": {"label": "*1", "atom_type": "Cs"}, "15": {"label": "*4", "atom_type": "Cs"}, "16": {"label": "*3", "atom_type": "Cs"}, "21": {"label": "*2", "atom_type": "H0"}}

>  <type>  (15) 
unop_11

>  <geom_source>  (15) 
Heuristics

$$$$

     RDKit          3D

 26 24  0  0  0  0  0  0  0  0999 V2000
    0.9868   -0.6523   -2.0514 C   0  0  0  0  0  0  0  0  0  0  0  0
    1.3495   -0.8417   -0.7930 C   0  0  0  0  0  0  0  0  0  0  0  0
    0.5842   -0.3636    0.4138 C   0  0  0  0  0  3  0  0  0  0  0  0
    1.4357    0.5884    1.2493 C   0  0  0  0  0  0  0  0  0  0  0  0
    0.0711   -1.5595    1.1772 C   0  0  0  0  0  0  0  0  0  0  0  0
    0.3525   -1.8807    2.4304 C   0  0  0  0  0  0  0  0  0  0  0  0
    1.5834   -1.0235   -2.8752 H   0  0  0  0  0  0  0  0  0  0  0  0
    0.0777   -0.1165   -2.3035 H   0  0  0  0  0  0  0  0  0  0  0  0
    2.2657   -1.3859   -0.5737 H   0  0  0  0  0  0  0  0  0  0  0  0
    0.8835    0.9504    2.1182 H   0  0  0  0  0  0  0  0  0  0  0  0
    1.7352    1.4483    0.6497 H   0  0  0  0  0  0  0  0  0  0  0  0
    2.3434    0.0955    1.6049 H   0  0  0  0  0  0  0  0  0  0  0  0
   -0.5817   -2.2111    0.6021 H   0  0  0  0  0  0  0  0  0  0  0  0
    1.0001   -1.2749    3.0527 H   0  0  0  0  0  0  0  0  0  0  0  0
   -0.0637   -2.7716    2.8834 H   0  0  0  0  0  0  0  0  0  0  0  0
   -1.5172    0.9492   -1.9842 C   0  0  0  0  0  0  0  0  0  0  0  0
   -1.5172    0.9492   -0.4608 C   0  0  0  0  0  0  0  0  0  0  0  0
   -1.5172    2.3550    0.1259 C   0  0  0  0  0  0  0  0  0  0  0  0
   -0.6357    1.4634   -2.3748 H   0  0  0  0  0  0  0  0  0  0  0  0
   -2.3986    1.4634   -2.3748 H   0  0  0  0  0  0  0  0  0  0  0  0
   -1.5172   -0.0657   -2.3853 H   0  0  0  0  0  0  0  0  0  0  0  0
   -0.4677    0.2936   -0.0240 H   0  0  0  0  0  0  0  0  0  0  0  0
   -2.3917    0.4028   -0.0968 H   0  0  0  0  0  0  0  0  0  0  0  0
   -2.3986    2.9136   -0.1982 H   0  0  0  0  0  0  0  0  0  0  0  0
   -1.5172    2.3343    1.2170 H   0  0  0  0  0  0  0  0  0  0  0  0
   -0.6357    2.9136   -0.1982 H   0  0  0  0  0  0  0  0  0  0  0  0
  1  2  2  3
  1  7  1  0
  1  8  1  0
  2  3  1  0
  2  9  1  0
  3  4  1  0
  3  5  1  0
  4 10  1  0
  4 11  1  0
  4 12  1  0
  5  6  2  3
  5 13  1  0
  6 14  1  0
  6 15  1  0
 16 17  1  0
 16 19  1  0
 16 20  1  0
 16 21  1  0
 17 18  1  0
 17 22  1  0
 17 23  1  0
 18 24  1  0
 18 25  1  0
 18 26  1  0
M  RAD  1   3   2
M  END
>  <reaction>  (16) 
rxn_917

>  <mol_properties>  (16) 
{"1": {"label": "*0", "atom_type": "Cd"}, "2": {"label": "*1", "atom_type": "Cs"}, "15": {"label": "*4", "atom_type": "Cs"}, "16": {"label": "*3", "atom_type": "Cs"}, "21": {"label": "*2", "atom_type": "H0"}}

>  <type>  (16) 
unop_12

>  <geom_source>  (16) 
Heuristics

$$$$

     RDKit          3D

 26 24  0  0  0  0  0  0  0  0999 V2000
   -0.8502    0.2240    0.3060 C   0  0  0  0  0  3  0  0  0  0  0  0
   -0.9750    0.5233   -1.1919 C   0  0  0  0  0  0  0  0  0  0  0  0
    2.2964    0.9435   -0.7502 C   0  0  0  0  0  0  0  0  0  0  0  0
    2.1499   -1.5389   -0.3346 C   0  0  0  0  0  0  0  0  0  0  0  0
    1.6880   -0.1568    0.1104 C   0  0  0  0  0  0  0  0  0  0  0  0
   -1.6804   -0.9761    0.6954 C   0  0  0  0  0  0  0  0  0  0  0  0
   -1.2096    1.4321    1.1395 C   0  0  0  0  0  0  0  0  0  0  0  0
   -1.3078   -2.2148    0.3618 C   0  0  0  0  0  0  0  0  0  0  0  0
   -2.4229    1.9971    1.1160 C   0  0  0  0  0  0  0  0  0  0  0  0
    0.4478   -0.0619    0.5628 H   0  0  0  0  0  0  0  0  0  0  0  0
   -2.0346    0.6971   -1.4769 H   0  0  0  0  0  0  0  0  0  0  0  0
   -0.3780    1.4237   -1.4503 H   0  0  0  0  0  0  0  0  0  0  0  0
   -0.5830   -0.3303   -1.7841 H   0  0  0  0  0  0  0  0  0  0  0  0
    2.0017    0.8056   -1.8119 H   0  0  0  0  0  0  0  0  0  0  0  0
    3.4042    0.9306   -0.6684 H   0  0  0  0  0  0  0  0  0  0  0  0
    1.9221    1.9292   -0.4038 H   0  0  0  0  0  0  0  0  0  0  0  0
    3.2533   -1.6270   -0.2402 H   0  0  0  0  0  0  0  0  0  0  0  0
    1.6720   -2.3091    0.3058 H   0  0  0  0  0  0  0  0  0  0  0  0
    1.8526   -1.7203   -1.3890 H   0  0  0  0  0  0  0  0  0  0  0  0
    1.9563    0.0058    1.1765 H   0  0  0  0  0  0  0  0  0  0  0  0
   -2.5965   -0.8447    1.2651 H   0  0  0  0  0  0  0  0  0  0  0  0
   -0.4473    1.8582    1.7844 H   0  0  0  0  0  0  0  0  0  0  0  0
   -1.9179   -3.0629    0.6550 H   0  0  0  0  0  0  0  0  0  0  0  0
   -0.3965   -2.3925   -0.2011 H   0  0  0  0  0  0  0  0  0  0  0  0
   -2.6288    2.8648    1.7341 H   0  0  0  0  0  0  0  0  0  0  0  0
   -3.2158    1.6002    0.4898 H   0  0  0  0  0  0  0  0  0  0  0  0
  1  2  1  0
  1  6  1  0
  1  7  1  0
  2 11  1  0
  2 12  1  0
  2 13  1  0
  3  5  1  0
  3 14  1  0
  3 15  1  0
  3 16  1  0
  4  5  1  0
  4 17  1  0
  4 18  1  0
  4 19  1  0
  5 10  1  0
  5 20  1  0
  6  8  2  3
  6 21  1  0
  7  9  2  3
  7 22  1  0
  8 23  1  0
  8 24  1  0
  9 25  1  0
  9 26  1  0
M  RAD  1   1   2
M  END
>  <reaction>  (17) 
rxn_917

>  <mol_properties>  (17) 
{"1": {"label": "*0", "atom_type": "Cd"}, "2": {"label": "*1", "atom_type": "Cs"}, "15": {"label": "*4", "atom_type": "Cs"}, "16": {"label": "*3", "atom_type": "Cs"}, "21": {"label": "*2", "atom_type": "H0"}}

>  <type>  (17) 
unop_13

>  <geom_source>  (17) 
AutoTST

$$$$
