
     RDKit          3D

  7  6  0  0  0  0  0  0  0  0999 V2000
   -2.1655    1.0146    0.0087 N   0  0  0  0  0  0  0  0  0  0  0  0
   -1.2095    0.3846    0.0054 C   0  0  0  0  0  0  0  0  0  0  0  0
   -0.0101   -0.4520    0.0013 C   0  0  0  0  0  0  0  0  0  0  0  0
    1.2256    0.3300   -0.0075 C   0  0  0  0  0  0  0  0  0  0  0  0
    2.2088    0.9164   -0.0144 N   0  0  0  0  0  0  0  0  0  0  0  0
   -0.0199   -1.0943    0.8846 H   0  0  0  0  0  0  0  0  0  0  0  0
   -0.0293   -1.0993   -0.8781 H   0  0  0  0  0  0  0  0  0  0  0  0
  1  2  3  0
  2  3  1  0
  3  4  1  0
  3  6  1  0
  3  7  1  0
  4  5  3  0
M  END
>  <reaction>  (1) 
rxn_3229

>  <mol_properties>  (1) 
{"2": {"label": "donator", "atom_type": "Cs"}, "5": {"label": "d_hydrogen", "atom_type": "H0"}}

>  <type>  (1) 
r1h

$$$$

     RDKit          3D

  7  6  0  0  0  0  0  0  0  0999 V2000
   -1.3059    0.5497   -0.1304 N   0  0  0  0  0  2  0  0  0  0  0  0
   -0.2700   -0.4288    0.0448 C   0  0  0  0  0  0  0  0  0  0  0  0
    1.1109    0.0669    0.0401 C   0  0  0  0  0  0  0  0  0  0  0  0
    2.1758    0.4925    0.0308 N   0  0  0  0  0  0  0  0  0  0  0  0
   -0.8815    1.4733   -0.2339 H   0  0  0  0  0  0  0  0  0  0  0  0
   -0.3767   -1.1909   -0.7373 H   0  0  0  0  0  0  0  0  0  0  0  0
   -0.4527   -0.9628    0.9858 H   0  0  0  0  0  0  0  0  0  0  0  0
  1  2  1  0
  1  5  1  0
  2  3  1  0
  2  6  1  0
  2  7  1  0
  3  4  3  0
M  RAD  1   1   2
M  END
>  <reaction>  (2) 
rxn_3229

>  <mol_properties>  (2) 
{"0": {"label": "acceptor", "atom_type": "N3s"}}

>  <type>  (2) 
r2

$$$$

     RDKit          3D

  8  7  0  0  0  0  0  0  0  0999 V2000
   -1.0805    0.5317    0.0204 N   0  0  0  0  0  0  0  0  0  0  0  0
   -0.1080   -0.5393    0.0956 C   0  0  0  0  0  0  0  0  0  0  0  0
    1.2945   -0.1247   -0.1005 C   0  0  0  0  0  0  0  0  0  0  0  0
    2.3714    0.2386   -0.2580 N   0  0  0  0  0  0  0  0  0  0  0  0
   -1.0516    0.9857   -0.8822 H   0  0  0  0  0  0  0  0  0  0  0  0
   -0.9009    1.2352    0.7235 H   0  0  0  0  0  0  0  0  0  0  0  0
   -0.3427   -1.2965   -0.6542 H   0  0  0  0  0  0  0  0  0  0  0  0
   -0.1810   -1.0288    1.0680 H   0  0  0  0  0  0  0  0  0  0  0  0
  1  2  1  0
  1  5  1  0
  1  6  1  0
  2  3  1  0
  2  7  1  0
  2  8  1  0
  3  4  3  0
M  END
>  <reaction>  (3) 
rxn_3229

>  <mol_properties>  (3) 
{"0": {"label": "acceptor", "atom_type": "N3s"}, "7": {"label": "a_hydrogen", "atom_type": "H0"}}

>  <type>  (3) 
r2h

$$$$

     RDKit          3D

 14 12  0  0  0  0  0  0  0  0999 V2000
    1.5338    0.4516    0.3517 N   0  0  0  0  0  2  0  0  0  0  0  0
    1.0468    1.0849    1.5631 C   0  0  0  0  0  0  0  0  0  0  0  0
    0.0508    2.1361    1.3252 C   0  0  0  0  0  0  0  0  0  0  0  0
   -0.7329    2.9324    1.0661 N   0  0  0  0  0  0  0  0  0  0  0  0
    1.7062    1.1733   -0.3510 H   0  0  0  0  0  0  0  0  0  0  0  0
    1.9052    1.5232    2.0849 H   0  0  0  0  0  0  0  0  0  0  0  0
    0.6216    0.3287    2.2253 H   0  0  0  0  0  0  0  0  0  0  0  0
   -0.0693   -2.1770   -2.5645 N   0  0  0  0  0  0  0  0  0  0  0  0
   -0.3444   -1.5103   -1.6715 C   0  0  0  0  0  0  0  0  0  0  0  0
   -0.6273   -0.6308   -0.5683 C   0  0  0  0  0  0  0  0  0  0  0  0
   -1.1901   -1.2451    0.6060 C   0  0  0  0  0  0  0  0  0  0  0  0
   -1.5809   -1.6787    1.5949 N   0  0  0  0  0  0  0  0  0  0  0  0
    0.5277   -0.2196   -0.1643 H   0  0  0  0  0  0  0  0  0  0  0  0
   -1.1733    0.2625   -0.8688 H   0  0  0  0  0  0  0  0  0  0  0  0
  1  2  1  0
  1  5  1  0
  2  3  1  0
  2  6  1  0
  2  7  1  0
  3  4  3  0
  8  9  3  0
  9 10  1  0
 10 11  1  0
 10 13  1  0
 10 14  1  0
 11 12  3  0
M  RAD  1   1   2
M  END
>  <reaction>  (4) 
rxn_3229

>  <mol_properties>  (4) 
{"0": {"label": "*3", "atom_type": "N3s"}, "1": {"label": "*4", "atom_type": "Cs"}, "8": {"label": "*0", "atom_type": "Ct"}, "9": {"label": "*1", "atom_type": "Cs"}, "12": {"label": "*2", "atom_type": "H0"}}

>  <type>  (4) 
ts

$$$$

     RDKit          3D

 14 12  0  0  0  0  0  0  0  0999 V2000
    1.2020    0.3184    0.6427 N   0  0  0  0  0  0  0  0  0  0  0  0
    0.8240    1.4801    1.4212 C   0  0  0  0  0  0  0  0  0  0  0  0
    0.9090    2.7672    0.7044 C   0  0  0  0  0  0  0  0  0  0  0  0
    0.9887    3.7465    0.1119 N   0  0  0  0  0  0  0  0  0  0  0  0
    2.1576    0.3917    0.3217 H   0  0  0  0  0  0  0  0  0  0  0  0
    1.4579    1.5461    2.3068 H   0  0  0  0  0  0  0  0  0  0  0  0
   -0.2003    1.3610    1.7777 H   0  0  0  0  0  0  0  0  0  0  0  0
   -0.8345   -0.9827   -2.7559 N   0  0  0  0  0  2  0  0  0  0  0  0
   -0.8345   -0.9827   -1.6111 C   0  0  0  0  0  0  0  0  0  0  0  0
   -0.8345   -0.9440   -0.1492 C   0  0  0  0  0  0  0  0  0  0  0  0
   -0.8345   -2.2769    0.4524 C   0  0  0  0  0  0  0  0  0  0  0  0
   -0.8345   -3.3076    0.9508 N   0  0  0  0  0  0  0  0  0  0  0  0
    0.2232   -0.2883    0.2621 H   0  0  0  0  0  0  0  0  0  0  0  0
   -1.7158   -0.3976    0.1935 H   0  0  0  0  0  0  0  0  0  0  0  0
  1  2  1  0
  1  5  1  0
  1 13  1  0
  2  3  1  0
  2  6  1  0
  2  7  1  0
  3  4  3  0
  8  9  2  0
  9 10  2  0
 10 11  1  0
 10 14  1  0
 11 12  3  0
M  RAD  1   8   2
M  END
>  <reaction>  (5) 
rxn_3229

>  <mol_properties>  (5) 
{"0": {"label": "*3", "atom_type": "N3s"}, "1": {"label": "*4", "atom_type": "Cs"}, "8": {"label": "*0", "atom_type": "Ct"}, "9": {"label": "*1", "atom_type": "Cs"}, "12": {"label": "*2", "atom_type": "H0"}}

>  <type>  (5) 
unop_1

>  <geom_source>  (5) 
Heuristics

$$$$

     RDKit          3D

 14 12  0  0  0  0  0  0  0  0999 V2000
    0.7456    0.9126    1.3522 N   0  0  0  0  0  0  0  0  0  0  0  0
    1.1406    1.9198    0.3889 C   0  0  0  0  0  0  0  0  0  0  0  0
    1.8918    1.4108   -0.7748 C   0  0  0  0  0  0  0  0  0  0  0  0
    2.4728    0.9749   -1.6631 N   0  0  0  0  0  0  0  0  0  0  0  0
    1.5527    0.4375    1.7324 H   0  0  0  0  0  0  0  0  0  0  0  0
    1.7560    2.6734    0.8827 H   0  0  0  0  0  0  0  0  0  0  0  0
    0.2535    2.4348    0.0171 H   0  0  0  0  0  0  0  0  0  0  0  0
   -1.2909   -0.3885   -2.0464 N   0  0  0  0  0  2  0  0  0  0  0  0
   -1.2909   -0.3885   -0.9015 C   0  0  0  0  0  0  0  0  0  0  0  0
   -1.2909   -0.3499    0.5603 C   0  0  0  0  0  0  0  0  0  0  0  0
   -1.2909   -1.6828    1.1619 C   0  0  0  0  0  0  0  0  0  0  0  0
   -1.2909   -2.7135    1.6603 N   0  0  0  0  0  0  0  0  0  0  0  0
   -0.2332    0.3058    0.9716 H   0  0  0  0  0  0  0  0  0  0  0  0
   -2.1723    0.1965    0.9031 H   0  0  0  0  0  0  0  0  0  0  0  0
  1  2  1  0
  1  5  1  0
  1 13  1  0
  2  3  1  0
  2  6  1  0
  2  7  1  0
  3  4  3  0
  8  9  2  0
  9 10  2  0
 10 11  1  0
 10 14  1  0
 11 12  3  0
M  RAD  1   8   2
M  END
>  <reaction>  (6) 
rxn_3229

>  <mol_properties>  (6) 
{"0": {"label": "*3", "atom_type": "N3s"}, "1": {"label": "*4", "atom_type": "Cs"}, "8": {"label": "*0", "atom_type": "Ct"}, "9": {"label": "*1", "atom_type": "Cs"}, "12": {"label": "*2", "atom_type": "H0"}}

>  <type>  (6) 
unop_2

>  <geom_source>  (6) 
Heuristics

$$$$

     RDKit          3D

 14 12  0  0  0  0  0  0  0  0999 V2000
    1.3397    0.4510    0.3044 N   0  0  0  0  0  0  0  0  0  0  0  0
    1.0810    1.1185    1.5637 C   0  0  0  0  0  0  0  0  0  0  0  0
    0.5807    2.5018    1.4465 C   0  0  0  0  0  0  0  0  0  0  0  0
    0.1936    3.5736    1.3121 N   0  0  0  0  0  0  0  0  0  0  0  0
    2.0339    0.9497   -0.2350 H   0  0  0  0  0  0  0  0  0  0  0  0
    1.9961    1.1413    2.1576 H   0  0  0  0  0  0  0  0  0  0  0  0
    0.3508    0.5444    2.1361 H   0  0  0  0  0  0  0  0  0  0  0  0
   -0.6968   -0.8501   -3.0942 N   0  0  0  0  0  2  0  0  0  0  0  0
   -0.6968   -0.8501   -1.9494 C   0  0  0  0  0  0  0  0  0  0  0  0
   -0.6968   -0.8114   -0.4875 C   0  0  0  0  0  0  0  0  0  0  0  0
   -0.6968   -2.1443    0.1141 C   0  0  0  0  0  0  0  0  0  0  0  0
   -0.6968   -3.1750    0.6125 N   0  0  0  0  0  0  0  0  0  0  0  0
    0.3609   -0.1557   -0.0762 H   0  0  0  0  0  0  0  0  0  0  0  0
   -1.5782   -0.2650   -0.1448 H   0  0  0  0  0  0  0  0  0  0  0  0
  1  2  1  0
  1  5  1  0
  1 13  1  0
  2  3  1  0
  2  6  1  0
  2  7  1  0
  3  4  3  0
  8  9  2  0
  9 10  2  0
 10 11  1  0
 10 14  1  0
 11 12  3  0
M  RAD  1   8   2
M  END
>  <reaction>  (7) 
rxn_3229

>  <mol_properties>  (7) 
{"0": {"label": "*3", "atom_type": "N3s"}, "1": {"label": "*4", "atom_type": "Cs"}, "8": {"label": "*0", "atom_type": "Ct"}, "9": {"label": "*1", "atom_type": "Cs"}, "12": {"label": "*2", "atom_type": "H0"}}

>  <type>  (7) 
unop_3

>  <geom_source>  (7) 
Heuristics

$$$$

     RDKit          3D

 14 12  0  0  0  0  0  0  0  0999 V2000
    0.7387    1.7444    0.9021 N   0  0  0  0  0  0  0  0  0  0  0  0
    1.9566    1.1033    0.4502 C   0  0  0  0  0  0  0  0  0  0  0  0
    1.8452   -0.3476    0.2055 C   0  0  0  0  0  0  0  0  0  0  0  0
    1.7168   -1.4737    0.0269 N   0  0  0  0  0  0  0  0  0  0  0  0
    0.4183    1.3425    1.7724 H   0  0  0  0  0  0  0  0  0  0  0  0
    2.7451    1.2602    1.1879 H   0  0  0  0  0  0  0  0  0  0  0  0
    2.2942    1.5751   -0.4739 H   0  0  0  0  0  0  0  0  0  0  0  0
   -1.2978    0.4433   -2.4965 N   0  0  0  0  0  2  0  0  0  0  0  0
   -1.2978    0.4433   -1.3516 C   0  0  0  0  0  0  0  0  0  0  0  0
   -1.2978    0.4819    0.1103 C   0  0  0  0  0  0  0  0  0  0  0  0
   -1.2978   -0.8510    0.7118 C   0  0  0  0  0  0  0  0  0  0  0  0
   -1.2978   -1.8817    1.2102 N   0  0  0  0  0  0  0  0  0  0  0  0
   -0.2401    1.1376    0.5215 H   0  0  0  0  0  0  0  0  0  0  0  0
   -2.1792    1.0283    0.4530 H   0  0  0  0  0  0  0  0  0  0  0  0
  1  2  1  0
  1  5  1  0
  1 13  1  0
  2  3  1  0
  2  6  1  0
  2  7  1  0
  3  4  3  0
  8  9  2  0
  9 10  2  0
 10 11  1  0
 10 14  1  0
 11 12  3  0
M  RAD  1   8   2
M  END
>  <reaction>  (8) 
rxn_3229

>  <mol_properties>  (8) 
{"0": {"label": "*3", "atom_type": "N3s"}, "1": {"label": "*4", "atom_type": "Cs"}, "8": {"label": "*0", "atom_type": "Ct"}, "9": {"label": "*1", "atom_type": "Cs"}, "12": {"label": "*2", "atom_type": "H0"}}

>  <type>  (8) 
unop_4

>  <geom_source>  (8) 
Heuristics

$$$$

     RDKit          3D

 14 12  0  0  0  0  0  0  0  0999 V2000
    1.4415    0.8635    0.0169 N   0  0  0  0  0  0  0  0  0  0  0  0
    1.4841    0.9277    1.4635 C   0  0  0  0  0  0  0  0  0  0  0  0
    0.3283    1.5946    2.0935 C   0  0  0  0  0  0  0  0  0  0  0  0
   -0.5870    2.1198    2.5439 N   0  0  0  0  0  0  0  0  0  0  0  0
    1.4048    1.7894   -0.3867 H   0  0  0  0  0  0  0  0  0  0  0  0
    2.3874    1.4529    1.7775 H   0  0  0  0  0  0  0  0  0  0  0  0
    1.5521   -0.0825    1.8702 H   0  0  0  0  0  0  0  0  0  0  0  0
   -0.5949   -0.4376   -3.3817 N   0  0  0  0  0  2  0  0  0  0  0  0
   -0.5949   -0.4376   -2.2368 C   0  0  0  0  0  0  0  0  0  0  0  0
   -0.5949   -0.3989   -0.7750 C   0  0  0  0  0  0  0  0  0  0  0  0
   -0.5949   -1.7319   -0.1734 C   0  0  0  0  0  0  0  0  0  0  0  0
   -0.5950   -2.7626    0.3250 N   0  0  0  0  0  0  0  0  0  0  0  0
    0.4628    0.2567   -0.3637 H   0  0  0  0  0  0  0  0  0  0  0  0
   -1.4763    0.1475   -0.4322 H   0  0  0  0  0  0  0  0  0  0  0  0
  1  2  1  0
  1  5  1  0
  1 13  1  0
  2  3  1  0
  2  6  1  0
  2  7  1  0
  3  4  3  0
  8  9  2  0
  9 10  2  0
 10 11  1  0
 10 14  1  0
 11 12  3  0
M  RAD  1   8   2
M  END
>  <reaction>  (9) 
rxn_3229

>  <mol_properties>  (9) 
{"0": {"label": "*3", "atom_type": "N3s"}, "1": {"label": "*4", "atom_type": "Cs"}, "8": {"label": "*0", "atom_type": "Ct"}, "9": {"label": "*1", "atom_type": "Cs"}, "12": {"label": "*2", "atom_type": "H0"}}

>  <type>  (9) 
unop_5

>  <geom_source>  (9) 
Heuristics

$$$$

     RDKit          3D

 14 12  0  0  0  0  0  0  0  0999 V2000
    0.8449    1.8189    0.5770 N   0  0  0  0  0  0  0  0  0  0  0  0
    1.9683    0.9252    0.7708 C   0  0  0  0  0  0  0  0  0  0  0  0
    1.6168   -0.5026    0.8945 C   0  0  0  0  0  0  0  0  0  0  0  0
    1.3016   -1.6021    0.9859 N   0  0  0  0  0  0  0  0  0  0  0  0
    0.1973    1.7613    1.3509 H   0  0  0  0  0  0  0  0  0  0  0  0
    2.5133    1.2163    1.6701 H   0  0  0  0  0  0  0  0  0  0  0  0
    2.6635    1.0291   -0.0637 H   0  0  0  0  0  0  0  0  0  0  0  0
   -1.1916    0.5178   -2.8216 N   0  0  0  0  0  2  0  0  0  0  0  0
   -1.1916    0.5178   -1.6768 C   0  0  0  0  0  0  0  0  0  0  0  0
   -1.1916    0.5565   -0.2149 C   0  0  0  0  0  0  0  0  0  0  0  0
   -1.1916   -0.7764    0.3867 C   0  0  0  0  0  0  0  0  0  0  0  0
   -1.1916   -1.8071    0.8851 N   0  0  0  0  0  0  0  0  0  0  0  0
   -0.1339    1.2122    0.1964 H   0  0  0  0  0  0  0  0  0  0  0  0
   -2.0730    1.1029    0.1278 H   0  0  0  0  0  0  0  0  0  0  0  0
  1  2  1  0
  1  5  1  0
  1 13  1  0
  2  3  1  0
  2  6  1  0
  2  7  1  0
  3  4  3  0
  8  9  2  0
  9 10  2  0
 10 11  1  0
 10 14  1  0
 11 12  3  0
M  RAD  1   8   2
M  END
>  <reaction>  (10) 
rxn_3229

>  <mol_properties>  (10) 
{"0": {"label": "*3", "atom_type": "N3s"}, "1": {"label": "*4", "atom_type": "Cs"}, "8": {"label": "*0", "atom_type": "Ct"}, "9": {"label": "*1", "atom_type": "Cs"}, "12": {"label": "*2", "atom_type": "H0"}}

>  <type>  (10) 
unop_6

>  <geom_source>  (10) 
Heuristics

$$$$

     RDKit          3D

 14 12  0  0  0  0  0  0  0  0999 V2000
    1.0324    1.7303    0.2418 N   0  0  0  0  0  0  0  0  0  0  0  0
    1.8729    0.8931    1.0731 C   0  0  0  0  0  0  0  0  0  0  0  0
    1.2151   -0.3126    1.6126 C   0  0  0  0  0  0  0  0  0  0  0  0
    0.6672   -1.2384    2.0117 N   0  0  0  0  0  0  0  0  0  0  0  0
    0.2285    2.0626    0.7565 H   0  0  0  0  0  0  0  0  0  0  0  0
    2.2476    1.4769    1.9153 H   0  0  0  0  0  0  0  0  0  0  0  0
    2.7454    0.5728    0.5016 H   0  0  0  0  0  0  0  0  0  0  0  0
   -1.0041    0.4292   -3.1568 N   0  0  0  0  0  2  0  0  0  0  0  0
   -1.0041    0.4292   -2.0120 C   0  0  0  0  0  0  0  0  0  0  0  0
   -1.0041    0.4679   -0.5501 C   0  0  0  0  0  0  0  0  0  0  0  0
   -1.0041   -0.8651    0.0515 C   0  0  0  0  0  0  0  0  0  0  0  0
   -1.0041   -1.8958    0.5498 N   0  0  0  0  0  0  0  0  0  0  0  0
    0.0536    1.1235   -0.1388 H   0  0  0  0  0  0  0  0  0  0  0  0
   -1.8855    1.0143   -0.2074 H   0  0  0  0  0  0  0  0  0  0  0  0
  1  2  1  0
  1  5  1  0
  1 13  1  0
  2  3  1  0
  2  6  1  0
  2  7  1  0
  3  4  3  0
  8  9  2  0
  9 10  2  0
 10 11  1  0
 10 14  1  0
 11 12  3  0
M  RAD  1   8   2
M  END
>  <reaction>  (11) 
rxn_3229

>  <mol_properties>  (11) 
{"0": {"label": "*3", "atom_type": "N3s"}, "1": {"label": "*4", "atom_type": "Cs"}, "8": {"label": "*0", "atom_type": "Ct"}, "9": {"label": "*1", "atom_type": "Cs"}, "12": {"label": "*2", "atom_type": "H0"}}

>  <type>  (11) 
unop_7

>  <geom_source>  (11) 
Heuristics

$$$$

     RDKit          3D

 14 12  0  0  0  0  0  0  0  0999 V2000
    1.0486    0.3693    0.9731 N   0  0  0  0  0  0  0  0  0  0  0  0
    0.7650    1.7837    1.1059 C   0  0  0  0  0  0  0  0  0  0  0  0
    1.2559    2.6260   -0.0018 C   0  0  0  0  0  0  0  0  0  0  0  0
    1.6535    3.2452   -0.8821 N   0  0  0  0  0  0  0  0  0  0  0  0
    2.0440    0.2019    0.9208 H   0  0  0  0  0  0  0  0  0  0  0  0
    1.2043    2.1570    2.0322 H   0  0  0  0  0  0  0  0  0  0  0  0
   -0.3128    1.9320    1.1887 H   0  0  0  0  0  0  0  0  0  0  0  0
   -0.9879   -0.9318   -2.4255 N   0  0  0  0  0  2  0  0  0  0  0  0
   -0.9879   -0.9318   -1.2806 C   0  0  0  0  0  0  0  0  0  0  0  0
   -0.9879   -0.8931    0.1813 C   0  0  0  0  0  0  0  0  0  0  0  0
   -0.9879   -2.2261    0.7828 C   0  0  0  0  0  0  0  0  0  0  0  0
   -0.9879   -3.2568    1.2812 N   0  0  0  0  0  0  0  0  0  0  0  0
    0.0698   -0.2375    0.5925 H   0  0  0  0  0  0  0  0  0  0  0  0
   -1.8693   -0.3467    0.5240 H   0  0  0  0  0  0  0  0  0  0  0  0
  1  2  1  0
  1  5  1  0
  1 13  1  0
  2  3  1  0
  2  6  1  0
  2  7  1  0
  3  4  3  0
  8  9  2  0
  9 10  2  0
 10 11  1  0
 10 14  1  0
 11 12  3  0
M  RAD  1   8   2
M  END
>  <reaction>  (12) 
rxn_3229

>  <mol_properties>  (12) 
{"0": {"label": "*3", "atom_type": "N3s"}, "1": {"label": "*4", "atom_type": "Cs"}, "8": {"label": "*0", "atom_type": "Ct"}, "9": {"label": "*1", "atom_type": "Cs"}, "12": {"label": "*2", "atom_type": "H0"}}

>  <type>  (12) 
unop_8

>  <geom_source>  (12) 
Heuristics

$$$$

     RDKit          3D

 14 12  0  0  0  0  0  0  0  0999 V2000
    0.6919    1.5522    1.1584 N   0  0  0  0  0  0  0  0  0  0  0  0
    1.7905    1.4054    0.2256 C   0  0  0  0  0  0  0  0  0  0  0  0
    1.9561    0.0511   -0.3365 C   0  0  0  0  0  0  0  0  0  0  0  0
    2.0507   -1.0150   -0.7501 N   0  0  0  0  0  0  0  0  0  0  0  0
    0.8051    0.9370    1.9523 H   0  0  0  0  0  0  0  0  0  0  0  0
    2.7244    1.6816    0.7176 H   0  0  0  0  0  0  0  0  0  0  0  0
    1.6571    2.1001   -0.6052 H   0  0  0  0  0  0  0  0  0  0  0  0
   -1.3445    0.2511   -2.2402 N   0  0  0  0  0  2  0  0  0  0  0  0
   -1.3445    0.2511   -1.0954 C   0  0  0  0  0  0  0  0  0  0  0  0
   -1.3445    0.2898    0.3665 C   0  0  0  0  0  0  0  0  0  0  0  0
   -1.3445   -1.0431    0.9681 C   0  0  0  0  0  0  0  0  0  0  0  0
   -1.3446   -2.0738    1.4664 N   0  0  0  0  0  0  0  0  0  0  0  0
   -0.2868    0.9455    0.7778 H   0  0  0  0  0  0  0  0  0  0  0  0
   -2.2259    0.8362    0.7092 H   0  0  0  0  0  0  0  0  0  0  0  0
  1  2  1  0
  1  5  1  0
  1 13  1  0
  2  3  1  0
  2  6  1  0
  2  7  1  0
  3  4  3  0
  8  9  2  0
  9 10  2  0
 10 11  1  0
 10 14  1  0
 11 12  3  0
M  RAD  1   8   2
M  END
>  <reaction>  (13) 
rxn_3229

>  <mol_properties>  (13) 
{"0": {"label": "*3", "atom_type": "N3s"}, "1": {"label": "*4", "atom_type": "Cs"}, "8": {"label": "*0", "atom_type": "Ct"}, "9": {"label": "*1", "atom_type": "Cs"}, "12": {"label": "*2", "atom_type": "H0"}}

>  <type>  (13) 
unop_9

>  <geom_source>  (13) 
Heuristics

$$$$

     RDKit          3D

 14 12  0  0  0  0  0  0  0  0999 V2000
    0.8809    0.5827    1.2306 N   0  0  0  0  0  0  0  0  0  0  0  0
    0.8803    1.9405    0.7258 C   0  0  0  0  0  0  0  0  0  0  0  0
    1.6171    2.1378   -0.5374 C   0  0  0  0  0  0  0  0  0  0  0  0
    2.1997    2.2488   -1.5196 N   0  0  0  0  0  0  0  0  0  0  0  0
    1.8227    0.2619    1.4087 H   0  0  0  0  0  0  0  0  0  0  0  0
    1.3121    2.6066    1.4744 H   0  0  0  0  0  0  0  0  0  0  0  0
   -0.1482    2.2698    0.5700 H   0  0  0  0  0  0  0  0  0  0  0  0
   -1.1556   -0.7184   -2.1680 N   0  0  0  0  0  2  0  0  0  0  0  0
   -1.1556   -0.7184   -1.0231 C   0  0  0  0  0  0  0  0  0  0  0  0
   -1.1556   -0.6798    0.4388 C   0  0  0  0  0  0  0  0  0  0  0  0
   -1.1556   -2.0127    1.0403 C   0  0  0  0  0  0  0  0  0  0  0  0
   -1.1556   -3.0434    1.5387 N   0  0  0  0  0  0  0  0  0  0  0  0
   -0.0979   -0.0241    0.8500 H   0  0  0  0  0  0  0  0  0  0  0  0
   -2.0370   -0.1334    0.7815 H   0  0  0  0  0  0  0  0  0  0  0  0
  1  2  1  0
  1  5  1  0
  1 13  1  0
  2  3  1  0
  2  6  1  0
  2  7  1  0
  3  4  3  0
  8  9  2  0
  9 10  2  0
 10 11  1  0
 10 14  1  0
 11 12  3  0
M  RAD  1   8   2
M  END
>  <reaction>  (14) 
rxn_3229

>  <mol_properties>  (14) 
{"0": {"label": "*3", "atom_type": "N3s"}, "1": {"label": "*4", "atom_type": "Cs"}, "8": {"label": "*0", "atom_type": "Ct"}, "9": {"label": "*1", "atom_type": "Cs"}, "12": {"label": "*2", "atom_type": "H0"}}

>  <type>  (14) 
unop_10

>  <geom_source>  (14) 
Heuristics

$$$$

     RDKit          3D

 14 12  0  0  0  0  0  0  0  0999 V2000
    1.2845    1.4180   -0.0023 N   0  0  0  0  0  0  0  0  0  0  0  0
    1.7294    0.9315    1.2876 C   0  0  0  0  0  0  0  0  0  0  0  0
    0.6675    0.3662    2.1422 C   0  0  0  0  0  0  0  0  0  0  0  0
   -0.1869   -0.0646    2.7754 N   0  0  0  0  0  0  0  0  0  0  0  0
    0.5973    2.1515    0.1036 H   0  0  0  0  0  0  0  0  0  0  0  0
    2.2066    1.7441    1.8376 H   0  0  0  0  0  0  0  0  0  0  0  0
    2.4898    0.1624    1.1433 H   0  0  0  0  0  0  0  0  0  0  0  0
   -0.7520    0.1169   -3.4009 N   0  0  0  0  0  2  0  0  0  0  0  0
   -0.7520    0.1169   -2.2561 C   0  0  0  0  0  0  0  0  0  0  0  0
   -0.7520    0.1556   -0.7942 C   0  0  0  0  0  0  0  0  0  0  0  0
   -0.7520   -1.1773   -0.1926 C   0  0  0  0  0  0  0  0  0  0  0  0
   -0.7520   -2.2080    0.3058 N   0  0  0  0  0  0  0  0  0  0  0  0
    0.3057    0.8113   -0.3829 H   0  0  0  0  0  0  0  0  0  0  0  0
   -1.6334    0.7020   -0.4515 H   0  0  0  0  0  0  0  0  0  0  0  0
  1  2  1  0
  1  5  1  0
  1 13  1  0
  2  3  1  0
  2  6  1  0
  2  7  1  0
  3  4  3  0
  8  9  2  0
  9 10  2  0
 10 11  1  0
 10 14  1  0
 11 12  3  0
M  RAD  1   8   2
M  END
>  <reaction>  (15) 
rxn_3229

>  <mol_properties>  (15) 
{"0": {"label": "*3", "atom_type": "N3s"}, "1": {"label": "*4", "atom_type": "Cs"}, "8": {"label": "*0", "atom_type": "Ct"}, "9": {"label": "*1", "atom_type": "Cs"}, "12": {"label": "*2", "atom_type": "H0"}}

>  <type>  (15) 
unop_11

>  <geom_source>  (15) 
Heuristics

$$$$

     RDKit          3D

 14 12  0  0  0  0  0  0  0  0999 V2000
    0.6865    1.2652    1.3183 N   0  0  0  0  0  0  0  0  0  0  0  0
    1.4838    1.7217    0.1983 C   0  0  0  0  0  0  0  0  0  0  0  0
    1.9917    0.6532   -0.6836 C   0  0  0  0  0  0  0  0  0  0  0  0
    2.3670   -0.2068   -1.3440 N   0  0  0  0  0  0  0  0  0  0  0  0
    1.2186    0.6463    1.9145 H   0  0  0  0  0  0  0  0  0  0  0  0
    2.3402    2.2873    0.5686 H   0  0  0  0  0  0  0  0  0  0  0  0
    0.8947    2.4088   -0.4110 H   0  0  0  0  0  0  0  0  0  0  0  0
   -1.3500   -0.0359   -2.0803 N   0  0  0  0  0  2  0  0  0  0  0  0
   -1.3500   -0.0359   -0.9354 C   0  0  0  0  0  0  0  0  0  0  0  0
   -1.3500    0.0028    0.5265 C   0  0  0  0  0  0  0  0  0  0  0  0
   -1.3500   -1.3301    1.1280 C   0  0  0  0  0  0  0  0  0  0  0  0
   -1.3500   -2.3608    1.6264 N   0  0  0  0  0  0  0  0  0  0  0  0
   -0.2923    0.6585    0.9377 H   0  0  0  0  0  0  0  0  0  0  0  0
   -2.2314    0.5492    0.8692 H   0  0  0  0  0  0  0  0  0  0  0  0
  1  2  1  0
  1  5  1  0
  1 13  1  0
  2  3  1  0
  2  6  1  0
  2  7  1  0
  3  4  3  0
  8  9  2  0
  9 10  2  0
 10 11  1  0
 10 14  1  0
 11 12  3  0
M  RAD  1   8   2
M  END
>  <reaction>  (16) 
rxn_3229

>  <mol_properties>  (16) 
{"0": {"label": "*3", "atom_type": "N3s"}, "1": {"label": "*4", "atom_type": "Cs"}, "8": {"label": "*0", "atom_type": "Ct"}, "9": {"label": "*1", "atom_type": "Cs"}, "12": {"label": "*2", "atom_type": "H0"}}

>  <type>  (16) 
unop_12

>  <geom_source>  (16) 
Heuristics

$$$$

     RDKit          3D

 14 12  0  0  0  0  0  0  0  0999 V2000
    0.7456    0.9126    1.3522 N   0  0  0  0  0  0  0  0  0  0  0  0
    1.1406    1.9198    0.3889 C   0  0  0  0  0  0  0  0  0  0  0  0
    1.8919    1.4108   -0.7748 C   0  0  0  0  0  0  0  0  0  0  0  0
    2.4728    0.9749   -1.6631 N   0  0  0  0  0  0  0  0  0  0  0  0
    1.5527    0.4375    1.7324 H   0  0  0  0  0  0  0  0  0  0  0  0
    1.7560    2.6734    0.8827 H   0  0  0  0  0  0  0  0  0  0  0  0
    0.2535    2.4348    0.0171 H   0  0  0  0  0  0  0  0  0  0  0  0
   -1.2909   -0.3885   -2.0464 N   0  0  0  0  0  2  0  0  0  0  0  0
   -1.2909   -0.3885   -0.9015 C   0  0  0  0  0  0  0  0  0  0  0  0
   -1.2909   -0.3499    0.5604 C   0  0  0  0  0  0  0  0  0  0  0  0
   -1.2909   -1.6828    1.1619 C   0  0  0  0  0  0  0  0  0  0  0  0
   -1.2909   -2.7135    1.6603 N   0  0  0  0  0  0  0  0  0  0  0  0
   -0.2332    0.3058    0.9716 H   0  0  0  0  0  0  0  0  0  0  0  0
   -2.1723    0.1966    0.9031 H   0  0  0  0  0  0  0  0  0  0  0  0
  1  2  1  0
  1  5  1  0
  1 13  1  0
  2  3  1  0
  2  6  1  0
  2  7  1  0
  3  4  3  0
  8  9  2  0
  9 10  2  0
 10 11  1  0
 10 14  1  0
 11 12  3  0
M  RAD  1   8   2
M  END
>  <reaction>  (17) 
rxn_3229

>  <mol_properties>  (17) 
{"0": {"label": "*3", "atom_type": "N3s"}, "1": {"label": "*4", "atom_type": "Cs"}, "8": {"label": "*0", "atom_type": "Ct"}, "9": {"label": "*1", "atom_type": "Cs"}, "12": {"label": "*2", "atom_type": "H0"}}

>  <type>  (17) 
unop_13

>  <geom_source>  (17) 
gaussian_log

$$$$
