
     RDKit          3D

  5  4  0  0  0  0  0  0  0  0999 V2000
   -0.4535    0.0104   -0.2352 N   0  0  0  0  0  0  0  0  0  0  0  0
    0.8506   -0.0148    0.3346 O   0  0  0  0  0  0  0  0  0  0  0  0
   -0.9090    0.8045    0.2022 H   0  0  0  0  0  0  0  0  0  0  0  0
   -0.9099   -0.8179    0.1325 H   0  0  0  0  0  0  0  0  0  0  0  0
    1.4218    0.0179   -0.4341 H   0  0  0  0  0  0  0  0  0  0  0  0
  1  2  1  0
  1  3  1  0
  1  4  1  0
  2  5  1  0
M  END
>  <reaction>  (1) 
rxn_709

>  <mol_properties>  (1) 
{"0": {"label": "donator", "atom_type": "N3s"}, "2": {"label": "d_hydrogen", "atom_type": "H0"}}

>  <type>  (1) 
r1h

$$$$

     RDKit          3D

  4  3  0  0  0  0  0  0  0  0999 V2000
    0.0000    0.0000    0.0000 C   0  0  0  0  0  3  0  0  0  0  0  0
    1.0638   -0.1747    0.0540 H   0  0  0  0  0  0  0  0  0  0  0  0
   -0.6833   -0.8351   -0.0280 H   0  0  0  0  0  0  0  0  0  0  0  0
   -0.3805    1.0098   -0.0260 H   0  0  0  0  0  0  0  0  0  0  0  0
  1  2  1  0
  1  3  1  0
  1  4  1  0
M  RAD  1   1   2
M  END
>  <reaction>  (2) 
rxn_709

>  <mol_properties>  (2) 
{"0": {"label": "acceptor", "atom_type": "Cs"}}

>  <type>  (2) 
r2

$$$$

     RDKit          3D

  5  4  0  0  0  0  0  0  0  0999 V2000
    0.0000    0.0000    0.0000 C   0  0  0  0  0  0  0  0  0  0  0  0
   -0.6486   -0.7720   -0.4113 H   0  0  0  0  0  0  0  0  0  0  0  0
   -0.3482    0.9787   -0.3267 H   0  0  0  0  0  0  0  0  0  0  0  0
   -0.0223   -0.0487    1.0876 H   0  0  0  0  0  0  0  0  0  0  0  0
    1.0191   -0.1580   -0.3496 H   0  0  0  0  0  0  0  0  0  0  0  0
  1  2  1  0
  1  3  1  0
  1  4  1  0
  1  5  1  0
M  END
>  <reaction>  (3) 
rxn_709

>  <mol_properties>  (3) 
{"0": {"label": "a_hydrogen", "atom_type": "H0"}, "1": {"label": "acceptor", "atom_type": "Cs"}}

>  <type>  (3) 
r2h

$$$$

     RDKit          3D

  9  7  0  0  0  0  0  0  0  0999 V2000
   -0.0916   -0.8782    0.2495 N   0  0  0  0  0  0  0  0  0  0  0  0
    0.2950   -0.7878   -1.0967 O   0  0  0  0  0  0  0  0  0  0  0  0
   -0.1799    0.2307    0.6287 H   0  0  0  0  0  0  0  0  0  0  0  0
    0.7709   -1.1757    0.7052 H   0  0  0  0  0  0  0  0  0  0  0  0
   -0.5250   -0.9288   -1.5742 H   0  0  0  0  0  0  0  0  0  0  0  0
   -0.0564    1.6153    1.0281 C   0  0  0  0  0  3  0  0  0  0  0  0
   -1.0646    1.9825    0.8645 H   0  0  0  0  0  0  0  0  0  0  0  0
    0.6885    2.0003    0.3400 H   0  0  0  0  0  0  0  0  0  0  0  0
    0.2512    1.5846    2.0683 H   0  0  0  0  0  0  0  0  0  0  0  0
  1  2  1  0
  1  3  1  0
  1  4  1  0
  2  5  1  0
  6  7  1  0
  6  8  1  0
  6  9  1  0
M  RAD  1   6   2
M  END
>  <reaction>  (4) 
rxn_709

>  <mol_properties>  (4) 
{"0": {"label": "*1", "atom_type": "N3s"}, "1": {"label": "*0", "atom_type": "O2s"}, "2": {"label": "*2", "atom_type": "H0"}, "5": {"label": "*3", "atom_type": "Cs"}, "6": {"label": "*4", "atom_type": "H0"}}

>  <type>  (4) 
ts

$$$$

     RDKit          3D

  9  7  0  0  0  0  0  0  0  0999 V2000
   -0.0059   -0.7852    0.2773 N   0  0  0  0  0  0  0  0  0  0  0  0
   -0.0059   -0.7852   -1.1461 O   0  0  0  0  0  0  0  0  0  0  0  0
   -0.0059    0.3928    0.5849 H   0  0  0  0  0  0  0  0  0  0  0  0
    0.9069   -1.1466    0.5336 H   0  0  0  0  0  0  0  0  0  0  0  0
   -0.7782   -1.3101   -1.3612 H   0  0  0  0  0  0  0  0  0  0  0  0
   -0.0059    1.6572    0.9150 C   0  0  0  0  0  3  0  0  0  0  0  0
   -0.8950    1.8787    1.5034 H   0  0  0  0  0  0  0  0  0  0  0  0
    0.3843    2.5788    0.4859 H   0  0  0  0  0  0  0  0  0  0  0  0
    0.6332    1.2467    1.6953 H   0  0  0  0  0  0  0  0  0  0  0  0
  1  2  1  0
  1  3  1  0
  1  4  1  0
  2  5  1  0
  6  7  1  0
  6  8  1  0
  6  9  1  0
M  RAD  1   6   2
M  END
>  <reaction>  (5) 
rxn_709

>  <mol_properties>  (5) 
{"0": {"label": "*1", "atom_type": "N3s"}, "1": {"label": "*0", "atom_type": "O2s"}, "2": {"label": "*2", "atom_type": "H0"}, "5": {"label": "*3", "atom_type": "Cs"}, "6": {"label": "*4", "atom_type": "H0"}}

>  <type>  (5) 
unop_1

>  <geom_source>  (5) 
Heuristics

$$$$

     RDKit          3D

  9  7  0  0  0  0  0  0  0  0999 V2000
   -0.0050   -0.7815    0.2876 N   0  0  0  0  0  0  0  0  0  0  0  0
   -0.0050   -0.7815   -1.1358 O   0  0  0  0  0  0  0  0  0  0  0  0
   -0.0050    0.3965    0.5952 H   0  0  0  0  0  0  0  0  0  0  0  0
    0.9078   -1.1429    0.5440 H   0  0  0  0  0  0  0  0  0  0  0  0
   -0.7773   -1.3064   -1.3509 H   0  0  0  0  0  0  0  0  0  0  0  0
   -0.0050    1.6609    0.9254 C   0  0  0  0  0  3  0  0  0  0  0  0
   -0.5183    2.2367    0.1568 H   0  0  0  0  0  0  0  0  0  0  0  0
    0.8863    2.1977    1.2466 H   0  0  0  0  0  0  0  0  0  0  0  0
   -0.2842    1.1049    1.8191 H   0  0  0  0  0  0  0  0  0  0  0  0
  1  2  1  0
  1  3  1  0
  1  4  1  0
  2  5  1  0
  6  7  1  0
  6  8  1  0
  6  9  1  0
M  RAD  1   6   2
M  END
>  <reaction>  (6) 
rxn_709

>  <mol_properties>  (6) 
{"0": {"label": "*1", "atom_type": "N3s"}, "1": {"label": "*0", "atom_type": "O2s"}, "2": {"label": "*2", "atom_type": "H0"}, "5": {"label": "*3", "atom_type": "Cs"}, "6": {"label": "*4", "atom_type": "H0"}}

>  <type>  (6) 
unop_2

>  <geom_source>  (6) 
Heuristics

$$$$

     RDKit          3D

  9  7  0  0  0  0  0  0  0  0999 V2000
   -0.0089   -0.7894    0.2790 N   0  0  0  0  0  0  0  0  0  0  0  0
   -0.0089   -0.7894   -1.1443 O   0  0  0  0  0  0  0  0  0  0  0  0
   -0.0089    0.3886    0.5867 H   0  0  0  0  0  0  0  0  0  0  0  0
    0.9039   -1.1508    0.5354 H   0  0  0  0  0  0  0  0  0  0  0  0
   -0.7812   -1.3143   -1.3595 H   0  0  0  0  0  0  0  0  0  0  0  0
   -0.0089    1.6530    0.9168 C   0  0  0  0  0  3  0  0  0  0  0  0
   -0.5222    1.7795    1.8688 H   0  0  0  0  0  0  0  0  0  0  0  0
   -0.1649    2.5367    0.3000 H   0  0  0  0  0  0  0  0  0  0  0  0
    0.9447    1.5761    1.4370 H   0  0  0  0  0  0  0  0  0  0  0  0
  1  2  1  0
  1  3  1  0
  1  4  1  0
  2  5  1  0
  6  7  1  0
  6  8  1  0
  6  9  1  0
M  RAD  1   6   2
M  END
>  <reaction>  (7) 
rxn_709

>  <mol_properties>  (7) 
{"0": {"label": "*1", "atom_type": "N3s"}, "1": {"label": "*0", "atom_type": "O2s"}, "2": {"label": "*2", "atom_type": "H0"}, "5": {"label": "*3", "atom_type": "Cs"}, "6": {"label": "*4", "atom_type": "H0"}}

>  <type>  (7) 
unop_3

>  <geom_source>  (7) 
Heuristics

$$$$

     RDKit          3D

  9  7  0  0  0  0  0  0  0  0999 V2000
   -0.0057   -0.7807    0.2826 N   0  0  0  0  0  0  0  0  0  0  0  0
   -0.0057   -0.7807   -1.1408 O   0  0  0  0  0  0  0  0  0  0  0  0
   -0.0057    0.3973    0.5902 H   0  0  0  0  0  0  0  0  0  0  0  0
    0.9071   -1.1421    0.5389 H   0  0  0  0  0  0  0  0  0  0  0  0
   -0.7780   -1.3056   -1.3559 H   0  0  0  0  0  0  0  0  0  0  0  0
   -0.0057    1.6616    0.9203 C   0  0  0  0  0  3  0  0  0  0  0  0
    0.8834    2.1425    0.5154 H   0  0  0  0  0  0  0  0  0  0  0  0
    0.2202    1.2493    1.9026 H   0  0  0  0  0  0  0  0  0  0  0  0
   -0.9909    2.1126    1.0290 H   0  0  0  0  0  0  0  0  0  0  0  0
  1  2  1  0
  1  3  1  0
  1  4  1  0
  2  5  1  0
  6  7  1  0
  6  8  1  0
  6  9  1  0
M  RAD  1   6   2
M  END
>  <reaction>  (8) 
rxn_709

>  <mol_properties>  (8) 
{"0": {"label": "*1", "atom_type": "N3s"}, "1": {"label": "*0", "atom_type": "O2s"}, "2": {"label": "*2", "atom_type": "H0"}, "5": {"label": "*3", "atom_type": "Cs"}, "6": {"label": "*4", "atom_type": "H0"}}

>  <type>  (8) 
unop_4

>  <geom_source>  (8) 
Heuristics

$$$$

     RDKit          3D

  9  7  0  0  0  0  0  0  0  0999 V2000
   -0.0039   -0.7937    0.2823 N   0  0  0  0  0  0  0  0  0  0  0  0
   -0.0039   -0.7937   -1.1411 O   0  0  0  0  0  0  0  0  0  0  0  0
   -0.0039    0.3844    0.5899 H   0  0  0  0  0  0  0  0  0  0  0  0
    0.9089   -1.1550    0.5386 H   0  0  0  0  0  0  0  0  0  0  0  0
   -0.7761   -1.3185   -1.3562 H   0  0  0  0  0  0  0  0  0  0  0  0
   -0.0039    1.6487    0.9200 C   0  0  0  0  0  3  0  0  0  0  0  0
   -0.0039    1.7406    2.0051 H   0  0  0  0  0  0  0  0  0  0  0  0
   -0.8930    2.1296    0.5150 H   0  0  0  0  0  0  0  0  0  0  0  0
    0.9285    2.2109    0.9420 H   0  0  0  0  0  0  0  0  0  0  0  0
  1  2  1  0
  1  3  1  0
  1  4  1  0
  2  5  1  0
  6  7  1  0
  6  8  1  0
  6  9  1  0
M  RAD  1   6   2
M  END
>  <reaction>  (9) 
rxn_709

>  <mol_properties>  (9) 
{"0": {"label": "*1", "atom_type": "N3s"}, "1": {"label": "*0", "atom_type": "O2s"}, "2": {"label": "*2", "atom_type": "H0"}, "5": {"label": "*3", "atom_type": "Cs"}, "6": {"label": "*4", "atom_type": "H0"}}

>  <type>  (9) 
unop_5

>  <geom_source>  (9) 
Heuristics

$$$$

     RDKit          3D

  9  7  0  0  0  0  0  0  0  0999 V2000
   -0.0036   -0.7833    0.2795 N   0  0  0  0  0  0  0  0  0  0  0  0
   -0.0036   -0.7833   -1.1438 O   0  0  0  0  0  0  0  0  0  0  0  0
   -0.0036    0.3948    0.5872 H   0  0  0  0  0  0  0  0  0  0  0  0
    0.9092   -1.1447    0.5359 H   0  0  0  0  0  0  0  0  0  0  0  0
   -0.7759   -1.3081   -1.3590 H   0  0  0  0  0  0  0  0  0  0  0  0
   -0.0036    1.6591    0.9173 C   0  0  0  0  0  3  0  0  0  0  0  0
    1.0230    2.0103    1.0090 H   0  0  0  0  0  0  0  0  0  0  0  0
   -0.2919    1.1383    1.8291 H   0  0  0  0  0  0  0  0  0  0  0  0
   -0.7099    2.4699    0.7454 H   0  0  0  0  0  0  0  0  0  0  0  0
  1  2  1  0
  1  3  1  0
  1  4  1  0
  2  5  1  0
  6  7  1  0
  6  8  1  0
  6  9  1  0
M  RAD  1   6   2
M  END
>  <reaction>  (10) 
rxn_709

>  <mol_properties>  (10) 
{"0": {"label": "*1", "atom_type": "N3s"}, "1": {"label": "*0", "atom_type": "O2s"}, "2": {"label": "*2", "atom_type": "H0"}, "5": {"label": "*3", "atom_type": "Cs"}, "6": {"label": "*4", "atom_type": "H0"}}

>  <type>  (10) 
unop_6

>  <geom_source>  (10) 
Heuristics

$$$$

     RDKit          3D

  9  7  0  0  0  0  0  0  0  0999 V2000
   -0.0003   -0.7861    0.2780 N   0  0  0  0  0  0  0  0  0  0  0  0
   -0.0003   -0.7861   -1.1454 O   0  0  0  0  0  0  0  0  0  0  0  0
   -0.0003    0.3919    0.5856 H   0  0  0  0  0  0  0  0  0  0  0  0
    0.9125   -1.1475    0.5343 H   0  0  0  0  0  0  0  0  0  0  0  0
   -0.7725   -1.3110   -1.3605 H   0  0  0  0  0  0  0  0  0  0  0  0
   -0.0003    1.6562    0.9157 C   0  0  0  0  0  3  0  0  0  0  0  0
    0.8889    1.8778    1.5041 H   0  0  0  0  0  0  0  0  0  0  0  0
   -0.7566    1.2055    1.5565 H   0  0  0  0  0  0  0  0  0  0  0  0
   -0.2615    2.6624    0.5916 H   0  0  0  0  0  0  0  0  0  0  0  0
  1  2  1  0
  1  3  1  0
  1  4  1  0
  2  5  1  0
  6  7  1  0
  6  8  1  0
  6  9  1  0
M  RAD  1   6   2
M  END
>  <reaction>  (11) 
rxn_709

>  <mol_properties>  (11) 
{"0": {"label": "*1", "atom_type": "N3s"}, "1": {"label": "*0", "atom_type": "O2s"}, "2": {"label": "*2", "atom_type": "H0"}, "5": {"label": "*3", "atom_type": "Cs"}, "6": {"label": "*4", "atom_type": "H0"}}

>  <type>  (11) 
unop_7

>  <geom_source>  (11) 
Heuristics

$$$$

     RDKit          3D

  9  7  0  0  0  0  0  0  0  0999 V2000
   -0.0024   -0.7837    0.2799 N   0  0  0  0  0  0  0  0  0  0  0  0
   -0.0024   -0.7837   -1.1435 O   0  0  0  0  0  0  0  0  0  0  0  0
   -0.0024    0.3944    0.5875 H   0  0  0  0  0  0  0  0  0  0  0  0
    0.9104   -1.1451    0.5362 H   0  0  0  0  0  0  0  0  0  0  0  0
   -0.7747   -1.3085   -1.3587 H   0  0  0  0  0  0  0  0  0  0  0  0
   -0.0024    1.6587    0.9176 C   0  0  0  0  0  3  0  0  0  0  0  0
   -1.0290    2.0099    1.0093 H   0  0  0  0  0  0  0  0  0  0  0  0
    0.6595    2.5090    0.7605 H   0  0  0  0  0  0  0  0  0  0  0  0
    0.3355    1.1173    1.7999 H   0  0  0  0  0  0  0  0  0  0  0  0
  1  2  1  0
  1  3  1  0
  1  4  1  0
  2  5  1  0
  6  7  1  0
  6  8  1  0
  6  9  1  0
M  RAD  1   6   2
M  END
>  <reaction>  (12) 
rxn_709

>  <mol_properties>  (12) 
{"0": {"label": "*1", "atom_type": "N3s"}, "1": {"label": "*0", "atom_type": "O2s"}, "2": {"label": "*2", "atom_type": "H0"}, "5": {"label": "*3", "atom_type": "Cs"}, "6": {"label": "*4", "atom_type": "H0"}}

>  <type>  (12) 
unop_8

>  <geom_source>  (12) 
Heuristics

$$$$

     RDKit          3D

  9  7  0  0  0  0  0  0  0  0999 V2000
   -0.0070   -0.7789    0.2856 N   0  0  0  0  0  0  0  0  0  0  0  0
   -0.0070   -0.7789   -1.1378 O   0  0  0  0  0  0  0  0  0  0  0  0
   -0.0070    0.3992    0.5932 H   0  0  0  0  0  0  0  0  0  0  0  0
    0.9058   -1.1402    0.5419 H   0  0  0  0  0  0  0  0  0  0  0  0
   -0.7793   -1.3037   -1.3530 H   0  0  0  0  0  0  0  0  0  0  0  0
   -0.0070    1.6635    0.9233 C   0  0  0  0  0  3  0  0  0  0  0  0
    0.5064    2.2394    0.1547 H   0  0  0  0  0  0  0  0  0  0  0  0
    0.6573    1.5208    1.7743 H   0  0  0  0  0  0  0  0  0  0  0  0
   -0.9926    1.6601    1.3862 H   0  0  0  0  0  0  0  0  0  0  0  0
  1  2  1  0
  1  3  1  0
  1  4  1  0
  2  5  1  0
  6  7  1  0
  6  8  1  0
  6  9  1  0
M  RAD  1   6   2
M  END
>  <reaction>  (13) 
rxn_709

>  <mol_properties>  (13) 
{"0": {"label": "*1", "atom_type": "N3s"}, "1": {"label": "*0", "atom_type": "O2s"}, "2": {"label": "*2", "atom_type": "H0"}, "5": {"label": "*3", "atom_type": "Cs"}, "6": {"label": "*4", "atom_type": "H0"}}

>  <type>  (13) 
unop_9

>  <geom_source>  (13) 
Heuristics

$$$$

     RDKit          3D

  9  7  0  0  0  0  0  0  0  0999 V2000
   -0.0023   -0.7830    0.2844 N   0  0  0  0  0  0  0  0  0  0  0  0
   -0.0023   -0.7830   -1.1390 O   0  0  0  0  0  0  0  0  0  0  0  0
   -0.0023    0.3950    0.5920 H   0  0  0  0  0  0  0  0  0  0  0  0
    0.9105   -1.1444    0.5407 H   0  0  0  0  0  0  0  0  0  0  0  0
   -0.7746   -1.3079   -1.3541 H   0  0  0  0  0  0  0  0  0  0  0  0
   -0.0023    1.6594    0.9221 C   0  0  0  0  0  3  0  0  0  0  0  0
   -0.8914    2.1402    0.5172 H   0  0  0  0  0  0  0  0  0  0  0  0
    0.7980    2.3923    1.0114 H   0  0  0  0  0  0  0  0  0  0  0  0
    0.0545    1.0741    1.8386 H   0  0  0  0  0  0  0  0  0  0  0  0
  1  2  1  0
  1  3  1  0
  1  4  1  0
  2  5  1  0
  6  7  1  0
  6  8  1  0
  6  9  1  0
M  RAD  1   6   2
M  END
>  <reaction>  (14) 
rxn_709

>  <mol_properties>  (14) 
{"0": {"label": "*1", "atom_type": "N3s"}, "1": {"label": "*0", "atom_type": "O2s"}, "2": {"label": "*2", "atom_type": "H0"}, "5": {"label": "*3", "atom_type": "Cs"}, "6": {"label": "*4", "atom_type": "H0"}}

>  <type>  (14) 
unop_10

>  <geom_source>  (14) 
Heuristics

$$$$

     RDKit          3D

  9  7  0  0  0  0  0  0  0  0999 V2000
    0.0018   -0.7904    0.2798 N   0  0  0  0  0  0  0  0  0  0  0  0
    0.0018   -0.7904   -1.1435 O   0  0  0  0  0  0  0  0  0  0  0  0
    0.0018    0.3876    0.5875 H   0  0  0  0  0  0  0  0  0  0  0  0
    0.9146   -1.1518    0.5362 H   0  0  0  0  0  0  0  0  0  0  0  0
   -0.7705   -1.3153   -1.3587 H   0  0  0  0  0  0  0  0  0  0  0  0
    0.0018    1.6519    0.9176 C   0  0  0  0  0  3  0  0  0  0  0  0
    0.5151    1.7785    1.8696 H   0  0  0  0  0  0  0  0  0  0  0  0
   -1.0640    1.5168    1.0951 H   0  0  0  0  0  0  0  0  0  0  0  0
    0.3285    2.6427    0.6054 H   0  0  0  0  0  0  0  0  0  0  0  0
  1  2  1  0
  1  3  1  0
  1  4  1  0
  2  5  1  0
  6  7  1  0
  6  8  1  0
  6  9  1  0
M  RAD  1   6   2
M  END
>  <reaction>  (15) 
rxn_709

>  <mol_properties>  (15) 
{"0": {"label": "*1", "atom_type": "N3s"}, "1": {"label": "*0", "atom_type": "O2s"}, "2": {"label": "*2", "atom_type": "H0"}, "5": {"label": "*3", "atom_type": "Cs"}, "6": {"label": "*4", "atom_type": "H0"}}

>  <type>  (15) 
unop_11

>  <geom_source>  (15) 
Heuristics

$$$$

     RDKit          3D

  9  7  0  0  0  0  0  0  0  0999 V2000
   -0.0072   -0.7793    0.2877 N   0  0  0  0  0  0  0  0  0  0  0  0
   -0.0072   -0.7793   -1.1357 O   0  0  0  0  0  0  0  0  0  0  0  0
   -0.0072    0.3987    0.5953 H   0  0  0  0  0  0  0  0  0  0  0  0
    0.9056   -1.1407    0.5440 H   0  0  0  0  0  0  0  0  0  0  0  0
   -0.7795   -1.3042   -1.3508 H   0  0  0  0  0  0  0  0  0  0  0  0
   -0.0072    1.6631    0.9254 C   0  0  0  0  0  3  0  0  0  0  0  0
   -0.0072    2.2736    0.0238 H   0  0  0  0  0  0  0  0  0  0  0  0
    0.8819    1.8846    1.5138 H   0  0  0  0  0  0  0  0  0  0  0  0
   -0.6926    1.2834    1.6817 H   0  0  0  0  0  0  0  0  0  0  0  0
  1  2  1  0
  1  3  1  0
  1  4  1  0
  2  5  1  0
  6  7  1  0
  6  8  1  0
  6  9  1  0
M  RAD  1   6   2
M  END
>  <reaction>  (16) 
rxn_709

>  <mol_properties>  (16) 
{"0": {"label": "*1", "atom_type": "N3s"}, "1": {"label": "*0", "atom_type": "O2s"}, "2": {"label": "*2", "atom_type": "H0"}, "5": {"label": "*3", "atom_type": "Cs"}, "6": {"label": "*4", "atom_type": "H0"}}

>  <type>  (16) 
unop_12

>  <geom_source>  (16) 
Heuristics

$$$$
