
     RDKit          3D

 12 12  0  0  0  0  0  0  0  0999 V2000
   -1.2385    0.6248   -0.0199 C   0  0  0  0  0  0  0  0  0  0  0  0
   -0.0779    1.3848   -0.0298 C   0  0  0  0  0  0  0  0  0  0  0  0
    1.1605    0.7600   -0.0100 C   0  0  0  0  0  0  0  0  0  0  0  0
    1.2385   -0.6248    0.0199 C   0  0  0  0  0  0  0  0  0  0  0  0
    0.0779   -1.3848    0.0298 C   0  0  0  0  0  0  0  0  0  0  0  0
   -1.1606   -0.7600    0.0100 C   0  0  0  0  0  0  0  0  0  0  0  0
   -2.2052    1.1125   -0.0354 H   0  0  0  0  0  0  0  0  0  0  0  0
   -0.1387    2.4657   -0.0531 H   0  0  0  0  0  0  0  0  0  0  0  0
    2.0664    1.3532   -0.0177 H   0  0  0  0  0  0  0  0  0  0  0  0
    2.2052   -1.1125    0.0354 H   0  0  0  0  0  0  0  0  0  0  0  0
    0.1387   -2.4657    0.0531 H   0  0  0  0  0  0  0  0  0  0  0  0
   -2.0664   -1.3532    0.0177 H   0  0  0  0  0  0  0  0  0  0  0  0
  1  2  2  0
  1  6  1  0
  1  7  1  0
  2  3  1  0
  2  8  1  0
  3  4  2  0
  3  9  1  0
  4  5  1  0
  4 10  1  0
  5  6  2  0
  5 11  1  0
  6 12  1  0
M  END
>  <reaction>  (1) 
rxn_277

>  <mol_properties>  (1) 
{"2": {"label": "donator", "atom_type": "Cd"}, "8": {"label": "d_hydrogen", "atom_type": "H0"}}

>  <type>  (1) 
r1h

$$$$

     RDKit          3D

  2  1  0  0  0  0  0  0  0  0999 V2000
    0.0000    0.0000    0.4855 O   0  0  0  0  0  1  0  0  0  0  0  0
    0.0000    0.0000   -0.4855 H   0  0  0  0  0  0  0  0  0  0  0  0
  1  2  1  0
M  RAD  1   1   2
M  END
>  <reaction>  (2) 
rxn_277

>  <mol_properties>  (2) 
{"0": {"label": "acceptor", "atom_type": "O2s"}}

>  <type>  (2) 
r2

$$$$

     RDKit          3D

  3  2  0  0  0  0  0  0  0  0999 V2000
   -0.0003    0.3867    0.0000 O   0  0  0  0  0  0  0  0  0  0  0  0
   -0.7617   -0.1940    0.0000 H   0  0  0  0  0  0  0  0  0  0  0  0
    0.7620   -0.1927    0.0000 H   0  0  0  0  0  0  0  0  0  0  0  0
  1  2  1  0
  1  3  1  0
M  END
>  <reaction>  (3) 
rxn_277

>  <mol_properties>  (3) 
{"0": {"label": "a_hydrogen", "atom_type": "H0"}, "1": {"label": "acceptor", "atom_type": "O2s"}}

>  <type>  (3) 
r2h

$$$$

     RDKit          3D

 14 13  0  0  0  0  0  0  0  0999 V2000
    0.0486   -1.2125   -1.4003 C   0  0  0  0  0  0  0  0  0  0  0  0
    0.1771   -1.2645   -0.0172 C   0  0  0  0  0  0  0  0  0  0  0  0
    0.1798   -0.0757    0.6800 C   0  0  0  0  0  0  0  0  0  0  0  0
    0.0443    1.1541    0.0731 C   0  0  0  0  0  0  0  0  0  0  0  0
   -0.0834    1.1912   -1.3106 C   0  0  0  0  0  0  0  0  0  0  0  0
   -0.0813    0.0115   -2.0412 C   0  0  0  0  0  0  0  0  0  0  0  0
    0.0496   -2.1300   -1.9754 H   0  0  0  0  0  0  0  0  0  0  0  0
    0.2801   -2.2103    0.4985 H   0  0  0  0  0  0  0  0  0  0  0  0
    0.3331   -0.1128    1.9000 H   0  0  0  0  0  0  0  0  0  0  0  0
    0.0454    2.0646    0.6580 H   0  0  0  0  0  0  0  0  0  0  0  0
   -0.1851    2.1435   -1.8159 H   0  0  0  0  0  0  0  0  0  0  0  0
   -0.1826    0.0461   -3.1185 H   0  0  0  0  0  0  0  0  0  0  0  0
    0.1694   -0.1684    3.1492 O   0  0  0  0  0  1  0  0  0  0  0  0
   -0.7949   -0.2228    3.1872 H   0  0  0  0  0  0  0  0  0  0  0  0
  1  2  2  0
  1  6  1  0
  1  7  1  0
  2  3  1  0
  2  8  1  0
  3  4  2  0
  3  9  1  0
  4  5  1  0
  4 10  1  0
  5  6  2  0
  5 11  1  0
  6 12  1  0
 13 14  1  0
M  RAD  1  13   2
M  END
>  <reaction>  (4) 
rxn_277

>  <mol_properties>  (4) 
{"1": {"label": "*0", "atom_type": "Cd"}, "2": {"label": "*1", "atom_type": "Cd"}, "8": {"label": "*2", "atom_type": "H0"}, "12": {"label": "*3", "atom_type": "O2s"}, "13": {"label": "*4", "atom_type": "H0"}}

>  <type>  (4) 
ts

$$$$

     RDKit          3D

 14 13  0  0  0  0  0  0  0  0999 V2000
   -0.0085   -1.2063   -1.3848 C   0  0  0  0  0  0  0  0  0  0  0  0
   -0.0085   -1.2063    0.0025 C   0  0  0  0  0  0  0  0  0  0  0  0
   -0.0085   -0.0049    0.6961 C   0  0  0  0  0  3  0  0  0  0  0  0
   -0.0085    1.1965    0.0025 C   0  0  0  0  0  0  0  0  0  0  0  0
   -0.0085    1.1965   -1.3848 C   0  0  0  0  0  0  0  0  0  0  0  0
   -0.0085   -0.0049   -2.0785 C   0  0  0  0  0  0  0  0  0  0  0  0
   -0.0085   -2.1441   -1.9262 H   0  0  0  0  0  0  0  0  0  0  0  0
   -0.0085   -2.1441    0.5440 H   0  0  0  0  0  0  0  0  0  0  0  0
   -0.0085   -0.0049    1.9955 H   0  0  0  0  0  0  0  0  0  0  0  0
   -0.0085    2.1343    0.5439 H   0  0  0  0  0  0  0  0  0  0  0  0
   -0.0085    2.1343   -1.9263 H   0  0  0  0  0  0  0  0  0  0  0  0
   -0.0085   -0.0049   -3.1613 H   0  0  0  0  0  0  0  0  0  0  0  0
   -0.0085   -0.0048    3.1446 O   0  0  0  0  0  0  0  0  0  0  0  0
    0.7909    0.4567    3.3994 H   0  0  0  0  0  0  0  0  0  0  0  0
  1  6  2  0
  1  2  1  0
  1  7  1  0
  2  3  2  0
  2  8  1  0
  3  4  1  0
  4  5  2  0
  4 10  1  0
  5  6  1  0
  5 11  1  0
  6 12  1  0
  9 13  1  0
 13 14  1  0
M  RAD  1   3   2
M  END
>  <reaction>  (5) 
rxn_277

>  <mol_properties>  (5) 
{"1": {"label": "*0", "atom_type": "Cd"}, "2": {"label": "*1", "atom_type": "Cd"}, "8": {"label": "*2", "atom_type": "H0"}, "12": {"label": "*3", "atom_type": "O2s"}, "13": {"label": "*4", "atom_type": "H0"}}

>  <type>  (5) 
unop_1

>  <geom_source>  (5) 
Heuristics

$$$$

     RDKit          3D

 14 13  0  0  0  0  0  0  0  0999 V2000
   -0.0049   -1.1930   -1.3848 C   0  0  0  0  0  0  0  0  0  0  0  0
   -0.0049   -1.1930    0.0025 C   0  0  0  0  0  0  0  0  0  0  0  0
   -0.0049    0.0085    0.6961 C   0  0  0  0  0  3  0  0  0  0  0  0
   -0.0049    1.2099    0.0025 C   0  0  0  0  0  0  0  0  0  0  0  0
   -0.0049    1.2099   -1.3848 C   0  0  0  0  0  0  0  0  0  0  0  0
   -0.0049    0.0084   -2.0785 C   0  0  0  0  0  0  0  0  0  0  0  0
   -0.0049   -2.1308   -1.9262 H   0  0  0  0  0  0  0  0  0  0  0  0
   -0.0049   -2.1307    0.5440 H   0  0  0  0  0  0  0  0  0  0  0  0
   -0.0049    0.0085    1.9955 H   0  0  0  0  0  0  0  0  0  0  0  0
   -0.0049    2.1477    0.5439 H   0  0  0  0  0  0  0  0  0  0  0  0
   -0.0049    2.1476   -1.9263 H   0  0  0  0  0  0  0  0  0  0  0  0
   -0.0049    0.0084   -3.1613 H   0  0  0  0  0  0  0  0  0  0  0  0
   -0.0049    0.0085    3.1446 O   0  0  0  0  0  0  0  0  0  0  0  0
    0.4566   -0.7909    3.3994 H   0  0  0  0  0  0  0  0  0  0  0  0
  1  6  2  0
  1  2  1  0
  1  7  1  0
  2  3  2  0
  2  8  1  0
  3  4  1  0
  4  5  2  0
  4 10  1  0
  5  6  1  0
  5 11  1  0
  6 12  1  0
  9 13  1  0
 13 14  1  0
M  RAD  1   3   2
M  END
>  <reaction>  (6) 
rxn_277

>  <mol_properties>  (6) 
{"1": {"label": "*0", "atom_type": "Cd"}, "2": {"label": "*1", "atom_type": "Cd"}, "8": {"label": "*2", "atom_type": "H0"}, "12": {"label": "*3", "atom_type": "O2s"}, "13": {"label": "*4", "atom_type": "H0"}}

>  <type>  (6) 
unop_2

>  <geom_source>  (6) 
Heuristics

$$$$

     RDKit          3D

 14 13  0  0  0  0  0  0  0  0999 V2000
   -0.0049   -1.2099   -1.3848 C   0  0  0  0  0  0  0  0  0  0  0  0
   -0.0049   -1.2099    0.0025 C   0  0  0  0  0  0  0  0  0  0  0  0
   -0.0049   -0.0085    0.6961 C   0  0  0  0  0  3  0  0  0  0  0  0
   -0.0049    1.1930    0.0025 C   0  0  0  0  0  0  0  0  0  0  0  0
   -0.0049    1.1929   -1.3848 C   0  0  0  0  0  0  0  0  0  0  0  0
   -0.0049   -0.0085   -2.0785 C   0  0  0  0  0  0  0  0  0  0  0  0
   -0.0049   -2.1477   -1.9262 H   0  0  0  0  0  0  0  0  0  0  0  0
   -0.0049   -2.1477    0.5440 H   0  0  0  0  0  0  0  0  0  0  0  0
   -0.0049   -0.0084    1.9955 H   0  0  0  0  0  0  0  0  0  0  0  0
   -0.0049    2.1308    0.5439 H   0  0  0  0  0  0  0  0  0  0  0  0
   -0.0049    2.1307   -1.9263 H   0  0  0  0  0  0  0  0  0  0  0  0
   -0.0049   -0.0085   -3.1613 H   0  0  0  0  0  0  0  0  0  0  0  0
   -0.0049   -0.0084    3.1446 O   0  0  0  0  0  0  0  0  0  0  0  0
    0.4566    0.7910    3.3994 H   0  0  0  0  0  0  0  0  0  0  0  0
  1  6  2  0
  1  2  1  0
  1  7  1  0
  2  3  2  0
  2  8  1  0
  3  4  1  0
  4  5  2  0
  4 10  1  0
  5  6  1  0
  5 11  1  0
  6 12  1  0
  9 13  1  0
 13 14  1  0
M  RAD  1   3   2
M  END
>  <reaction>  (7) 
rxn_277

>  <mol_properties>  (7) 
{"1": {"label": "*0", "atom_type": "Cd"}, "2": {"label": "*1", "atom_type": "Cd"}, "8": {"label": "*2", "atom_type": "H0"}, "12": {"label": "*3", "atom_type": "O2s"}, "13": {"label": "*4", "atom_type": "H0"}}

>  <type>  (7) 
unop_3

>  <geom_source>  (7) 
Heuristics

$$$$

     RDKit          3D

 14 13  0  0  0  0  0  0  0  0999 V2000
    0.0085   -1.1965   -1.3848 C   0  0  0  0  0  0  0  0  0  0  0  0
    0.0085   -1.1965    0.0025 C   0  0  0  0  0  0  0  0  0  0  0  0
    0.0085    0.0049    0.6961 C   0  0  0  0  0  3  0  0  0  0  0  0
    0.0085    1.2063    0.0025 C   0  0  0  0  0  0  0  0  0  0  0  0
    0.0085    1.2063   -1.3848 C   0  0  0  0  0  0  0  0  0  0  0  0
    0.0085    0.0049   -2.0785 C   0  0  0  0  0  0  0  0  0  0  0  0
    0.0085   -2.1343   -1.9262 H   0  0  0  0  0  0  0  0  0  0  0  0
    0.0085   -2.1343    0.5440 H   0  0  0  0  0  0  0  0  0  0  0  0
    0.0085    0.0049    1.9955 H   0  0  0  0  0  0  0  0  0  0  0  0
    0.0085    2.1441    0.5439 H   0  0  0  0  0  0  0  0  0  0  0  0
    0.0085    2.1441   -1.9263 H   0  0  0  0  0  0  0  0  0  0  0  0
    0.0085    0.0048   -3.1613 H   0  0  0  0  0  0  0  0  0  0  0  0
    0.0085    0.0049    3.1446 O   0  0  0  0  0  0  0  0  0  0  0  0
   -0.7909   -0.4566    3.3994 H   0  0  0  0  0  0  0  0  0  0  0  0
  1  6  2  0
  1  2  1  0
  1  7  1  0
  2  3  2  0
  2  8  1  0
  3  4  1  0
  4  5  2  0
  4 10  1  0
  5  6  1  0
  5 11  1  0
  6 12  1  0
  9 13  1  0
 13 14  1  0
M  RAD  1   3   2
M  END
>  <reaction>  (8) 
rxn_277

>  <mol_properties>  (8) 
{"1": {"label": "*0", "atom_type": "Cd"}, "2": {"label": "*1", "atom_type": "Cd"}, "8": {"label": "*2", "atom_type": "H0"}, "12": {"label": "*3", "atom_type": "O2s"}, "13": {"label": "*4", "atom_type": "H0"}}

>  <type>  (8) 
unop_4

>  <geom_source>  (8) 
Heuristics

$$$$

     RDKit          3D

 14 13  0  0  0  0  0  0  0  0999 V2000
   -0.0000   -1.2112   -1.3848 C   0  0  0  0  0  0  0  0  0  0  0  0
   -0.0000   -1.2112    0.0025 C   0  0  0  0  0  0  0  0  0  0  0  0
    0.0000   -0.0098    0.6961 C   0  0  0  0  0  3  0  0  0  0  0  0
    0.0000    1.1917    0.0025 C   0  0  0  0  0  0  0  0  0  0  0  0
    0.0000    1.1916   -1.3848 C   0  0  0  0  0  0  0  0  0  0  0  0
   -0.0000   -0.0098   -2.0785 C   0  0  0  0  0  0  0  0  0  0  0  0
   -0.0000   -2.1490   -1.9262 H   0  0  0  0  0  0  0  0  0  0  0  0
   -0.0000   -2.1490    0.5440 H   0  0  0  0  0  0  0  0  0  0  0  0
    0.0000   -0.0098    1.9955 H   0  0  0  0  0  0  0  0  0  0  0  0
    0.0000    2.1294    0.5439 H   0  0  0  0  0  0  0  0  0  0  0  0
    0.0000    2.1294   -1.9263 H   0  0  0  0  0  0  0  0  0  0  0  0
   -0.0000   -0.0098   -3.1613 H   0  0  0  0  0  0  0  0  0  0  0  0
    0.0000   -0.0097    3.1446 O   0  0  0  0  0  0  0  0  0  0  0  0
    0.0000    0.9133    3.3994 H   0  0  0  0  0  0  0  0  0  0  0  0
  1  6  2  0
  1  2  1  0
  1  7  1  0
  2  3  2  0
  2  8  1  0
  3  4  1  0
  4  5  2  0
  4 10  1  0
  5  6  1  0
  5 11  1  0
  6 12  1  0
  9 13  1  0
 13 14  1  0
M  RAD  1   3   2
M  END
>  <reaction>  (9) 
rxn_277

>  <mol_properties>  (9) 
{"1": {"label": "*0", "atom_type": "Cd"}, "2": {"label": "*1", "atom_type": "Cd"}, "8": {"label": "*2", "atom_type": "H0"}, "12": {"label": "*3", "atom_type": "O2s"}, "13": {"label": "*4", "atom_type": "H0"}}

>  <type>  (9) 
unop_5

>  <geom_source>  (9) 
Heuristics

$$$$

     RDKit          3D

 14 13  0  0  0  0  0  0  0  0999 V2000
    0.0098   -1.2014   -1.3848 C   0  0  0  0  0  0  0  0  0  0  0  0
    0.0098   -1.2014    0.0025 C   0  0  0  0  0  0  0  0  0  0  0  0
    0.0098    0.0000    0.6961 C   0  0  0  0  0  3  0  0  0  0  0  0
    0.0098    1.2014    0.0025 C   0  0  0  0  0  0  0  0  0  0  0  0
    0.0098    1.2014   -1.3848 C   0  0  0  0  0  0  0  0  0  0  0  0
    0.0098   -0.0000   -2.0785 C   0  0  0  0  0  0  0  0  0  0  0  0
    0.0098   -2.1392   -1.9262 H   0  0  0  0  0  0  0  0  0  0  0  0
    0.0098   -2.1392    0.5440 H   0  0  0  0  0  0  0  0  0  0  0  0
    0.0098    0.0000    1.9955 H   0  0  0  0  0  0  0  0  0  0  0  0
    0.0098    2.1392    0.5439 H   0  0  0  0  0  0  0  0  0  0  0  0
    0.0098    2.1392   -1.9263 H   0  0  0  0  0  0  0  0  0  0  0  0
    0.0098   -0.0001   -3.1613 H   0  0  0  0  0  0  0  0  0  0  0  0
    0.0098    0.0001    3.1446 O   0  0  0  0  0  0  0  0  0  0  0  0
   -0.9133    0.0001    3.3994 H   0  0  0  0  0  0  0  0  0  0  0  0
  1  6  2  0
  1  2  1  0
  1  7  1  0
  2  3  2  0
  2  8  1  0
  3  4  1  0
  4  5  2  0
  4 10  1  0
  5  6  1  0
  5 11  1  0
  6 12  1  0
  9 13  1  0
 13 14  1  0
M  RAD  1   3   2
M  END
>  <reaction>  (10) 
rxn_277

>  <mol_properties>  (10) 
{"1": {"label": "*0", "atom_type": "Cd"}, "2": {"label": "*1", "atom_type": "Cd"}, "8": {"label": "*2", "atom_type": "H0"}, "12": {"label": "*3", "atom_type": "O2s"}, "13": {"label": "*4", "atom_type": "H0"}}

>  <type>  (10) 
unop_6

>  <geom_source>  (10) 
Heuristics

$$$$

     RDKit          3D

 14 13  0  0  0  0  0  0  0  0999 V2000
    0.0085   -1.2063   -1.3848 C   0  0  0  0  0  0  0  0  0  0  0  0
    0.0085   -1.2063    0.0025 C   0  0  0  0  0  0  0  0  0  0  0  0
    0.0085   -0.0049    0.6961 C   0  0  0  0  0  3  0  0  0  0  0  0
    0.0085    1.1965    0.0025 C   0  0  0  0  0  0  0  0  0  0  0  0
    0.0085    1.1965   -1.3848 C   0  0  0  0  0  0  0  0  0  0  0  0
    0.0085   -0.0049   -2.0785 C   0  0  0  0  0  0  0  0  0  0  0  0
    0.0085   -2.1441   -1.9262 H   0  0  0  0  0  0  0  0  0  0  0  0
    0.0085   -2.1441    0.5440 H   0  0  0  0  0  0  0  0  0  0  0  0
    0.0085   -0.0049    1.9955 H   0  0  0  0  0  0  0  0  0  0  0  0
    0.0085    2.1343    0.5439 H   0  0  0  0  0  0  0  0  0  0  0  0
    0.0085    2.1343   -1.9263 H   0  0  0  0  0  0  0  0  0  0  0  0
    0.0085   -0.0049   -3.1613 H   0  0  0  0  0  0  0  0  0  0  0  0
    0.0085   -0.0048    3.1446 O   0  0  0  0  0  0  0  0  0  0  0  0
   -0.7909    0.4567    3.3994 H   0  0  0  0  0  0  0  0  0  0  0  0
  1  6  2  0
  1  2  1  0
  1  7  1  0
  2  3  2  0
  2  8  1  0
  3  4  1  0
  4  5  2  0
  4 10  1  0
  5  6  1  0
  5 11  1  0
  6 12  1  0
  9 13  1  0
 13 14  1  0
M  RAD  1   3   2
M  END
>  <reaction>  (11) 
rxn_277

>  <mol_properties>  (11) 
{"1": {"label": "*0", "atom_type": "Cd"}, "2": {"label": "*1", "atom_type": "Cd"}, "8": {"label": "*2", "atom_type": "H0"}, "12": {"label": "*3", "atom_type": "O2s"}, "13": {"label": "*4", "atom_type": "H0"}}

>  <type>  (11) 
unop_7

>  <geom_source>  (11) 
Heuristics

$$$$

     RDKit          3D

 14 13  0  0  0  0  0  0  0  0999 V2000
   -0.0098   -1.2014   -1.3848 C   0  0  0  0  0  0  0  0  0  0  0  0
   -0.0098   -1.2014    0.0025 C   0  0  0  0  0  0  0  0  0  0  0  0
   -0.0098    0.0000    0.6961 C   0  0  0  0  0  3  0  0  0  0  0  0
   -0.0098    1.2014    0.0025 C   0  0  0  0  0  0  0  0  0  0  0  0
   -0.0098    1.2014   -1.3848 C   0  0  0  0  0  0  0  0  0  0  0  0
   -0.0098   -0.0000   -2.0785 C   0  0  0  0  0  0  0  0  0  0  0  0
   -0.0098   -2.1392   -1.9262 H   0  0  0  0  0  0  0  0  0  0  0  0
   -0.0098   -2.1392    0.5440 H   0  0  0  0  0  0  0  0  0  0  0  0
   -0.0098    0.0000    1.9955 H   0  0  0  0  0  0  0  0  0  0  0  0
   -0.0098    2.1392    0.5439 H   0  0  0  0  0  0  0  0  0  0  0  0
   -0.0098    2.1392   -1.9263 H   0  0  0  0  0  0  0  0  0  0  0  0
   -0.0098   -0.0001   -3.1613 H   0  0  0  0  0  0  0  0  0  0  0  0
   -0.0098    0.0001    3.1446 O   0  0  0  0  0  0  0  0  0  0  0  0
    0.9133    0.0001    3.3994 H   0  0  0  0  0  0  0  0  0  0  0  0
  1  6  2  0
  1  2  1  0
  1  7  1  0
  2  3  2  0
  2  8  1  0
  3  4  1  0
  4  5  2  0
  4 10  1  0
  5  6  1  0
  5 11  1  0
  6 12  1  0
  9 13  1  0
 13 14  1  0
M  RAD  1   3   2
M  END
>  <reaction>  (12) 
rxn_277

>  <mol_properties>  (12) 
{"1": {"label": "*0", "atom_type": "Cd"}, "2": {"label": "*1", "atom_type": "Cd"}, "8": {"label": "*2", "atom_type": "H0"}, "12": {"label": "*3", "atom_type": "O2s"}, "13": {"label": "*4", "atom_type": "H0"}}

>  <type>  (12) 
unop_8

>  <geom_source>  (12) 
Heuristics

$$$$

     RDKit          3D

 14 13  0  0  0  0  0  0  0  0999 V2000
    0.0049   -1.1930   -1.3848 C   0  0  0  0  0  0  0  0  0  0  0  0
    0.0049   -1.1930    0.0025 C   0  0  0  0  0  0  0  0  0  0  0  0
    0.0049    0.0085    0.6961 C   0  0  0  0  0  3  0  0  0  0  0  0
    0.0049    1.2099    0.0025 C   0  0  0  0  0  0  0  0  0  0  0  0
    0.0049    1.2099   -1.3848 C   0  0  0  0  0  0  0  0  0  0  0  0
    0.0049    0.0084   -2.0785 C   0  0  0  0  0  0  0  0  0  0  0  0
    0.0049   -2.1308   -1.9262 H   0  0  0  0  0  0  0  0  0  0  0  0
    0.0049   -2.1307    0.5440 H   0  0  0  0  0  0  0  0  0  0  0  0
    0.0049    0.0085    1.9955 H   0  0  0  0  0  0  0  0  0  0  0  0
    0.0049    2.1477    0.5439 H   0  0  0  0  0  0  0  0  0  0  0  0
    0.0049    2.1476   -1.9263 H   0  0  0  0  0  0  0  0  0  0  0  0
    0.0049    0.0084   -3.1613 H   0  0  0  0  0  0  0  0  0  0  0  0
    0.0049    0.0085    3.1446 O   0  0  0  0  0  0  0  0  0  0  0  0
   -0.4566   -0.7909    3.3994 H   0  0  0  0  0  0  0  0  0  0  0  0
  1  6  2  0
  1  2  1  0
  1  7  1  0
  2  3  2  0
  2  8  1  0
  3  4  1  0
  4  5  2  0
  4 10  1  0
  5  6  1  0
  5 11  1  0
  6 12  1  0
  9 13  1  0
 13 14  1  0
M  RAD  1   3   2
M  END
>  <reaction>  (13) 
rxn_277

>  <mol_properties>  (13) 
{"1": {"label": "*0", "atom_type": "Cd"}, "2": {"label": "*1", "atom_type": "Cd"}, "8": {"label": "*2", "atom_type": "H0"}, "12": {"label": "*3", "atom_type": "O2s"}, "13": {"label": "*4", "atom_type": "H0"}}

>  <type>  (13) 
unop_9

>  <geom_source>  (13) 
Heuristics

$$$$

     RDKit          3D

 14 13  0  0  0  0  0  0  0  0999 V2000
   -0.0085   -1.1965   -1.3848 C   0  0  0  0  0  0  0  0  0  0  0  0
   -0.0085   -1.1965    0.0025 C   0  0  0  0  0  0  0  0  0  0  0  0
   -0.0085    0.0049    0.6961 C   0  0  0  0  0  3  0  0  0  0  0  0
   -0.0085    1.2063    0.0025 C   0  0  0  0  0  0  0  0  0  0  0  0
   -0.0085    1.2063   -1.3848 C   0  0  0  0  0  0  0  0  0  0  0  0
   -0.0085    0.0049   -2.0785 C   0  0  0  0  0  0  0  0  0  0  0  0
   -0.0085   -2.1343   -1.9262 H   0  0  0  0  0  0  0  0  0  0  0  0
   -0.0085   -2.1343    0.5440 H   0  0  0  0  0  0  0  0  0  0  0  0
   -0.0085    0.0049    1.9955 H   0  0  0  0  0  0  0  0  0  0  0  0
   -0.0085    2.1441    0.5439 H   0  0  0  0  0  0  0  0  0  0  0  0
   -0.0085    2.1441   -1.9263 H   0  0  0  0  0  0  0  0  0  0  0  0
   -0.0085    0.0048   -3.1613 H   0  0  0  0  0  0  0  0  0  0  0  0
   -0.0085    0.0049    3.1446 O   0  0  0  0  0  0  0  0  0  0  0  0
    0.7909   -0.4566    3.3994 H   0  0  0  0  0  0  0  0  0  0  0  0
  1  6  2  0
  1  2  1  0
  1  7  1  0
  2  3  2  0
  2  8  1  0
  3  4  1  0
  4  5  2  0
  4 10  1  0
  5  6  1  0
  5 11  1  0
  6 12  1  0
  9 13  1  0
 13 14  1  0
M  RAD  1   3   2
M  END
>  <reaction>  (14) 
rxn_277

>  <mol_properties>  (14) 
{"1": {"label": "*0", "atom_type": "Cd"}, "2": {"label": "*1", "atom_type": "Cd"}, "8": {"label": "*2", "atom_type": "H0"}, "12": {"label": "*3", "atom_type": "O2s"}, "13": {"label": "*4", "atom_type": "H0"}}

>  <type>  (14) 
unop_10

>  <geom_source>  (14) 
Heuristics

$$$$

     RDKit          3D

 14 13  0  0  0  0  0  0  0  0999 V2000
    0.0049   -1.2099   -1.3848 C   0  0  0  0  0  0  0  0  0  0  0  0
    0.0049   -1.2099    0.0025 C   0  0  0  0  0  0  0  0  0  0  0  0
    0.0049   -0.0085    0.6961 C   0  0  0  0  0  3  0  0  0  0  0  0
    0.0049    1.1930    0.0025 C   0  0  0  0  0  0  0  0  0  0  0  0
    0.0049    1.1929   -1.3848 C   0  0  0  0  0  0  0  0  0  0  0  0
    0.0049   -0.0085   -2.0785 C   0  0  0  0  0  0  0  0  0  0  0  0
    0.0049   -2.1477   -1.9262 H   0  0  0  0  0  0  0  0  0  0  0  0
    0.0049   -2.1477    0.5440 H   0  0  0  0  0  0  0  0  0  0  0  0
    0.0049   -0.0084    1.9955 H   0  0  0  0  0  0  0  0  0  0  0  0
    0.0049    2.1308    0.5439 H   0  0  0  0  0  0  0  0  0  0  0  0
    0.0049    2.1307   -1.9263 H   0  0  0  0  0  0  0  0  0  0  0  0
    0.0049   -0.0085   -3.1613 H   0  0  0  0  0  0  0  0  0  0  0  0
    0.0049   -0.0084    3.1446 O   0  0  0  0  0  0  0  0  0  0  0  0
   -0.4566    0.7910    3.3994 H   0  0  0  0  0  0  0  0  0  0  0  0
  1  6  2  0
  1  2  1  0
  1  7  1  0
  2  3  2  0
  2  8  1  0
  3  4  1  0
  4  5  2  0
  4 10  1  0
  5  6  1  0
  5 11  1  0
  6 12  1  0
  9 13  1  0
 13 14  1  0
M  RAD  1   3   2
M  END
>  <reaction>  (15) 
rxn_277

>  <mol_properties>  (15) 
{"1": {"label": "*0", "atom_type": "Cd"}, "2": {"label": "*1", "atom_type": "Cd"}, "8": {"label": "*2", "atom_type": "H0"}, "12": {"label": "*3", "atom_type": "O2s"}, "13": {"label": "*4", "atom_type": "H0"}}

>  <type>  (15) 
unop_11

>  <geom_source>  (15) 
Heuristics

$$$$

     RDKit          3D

 14 13  0  0  0  0  0  0  0  0999 V2000
   -0.0000   -1.1917   -1.3848 C   0  0  0  0  0  0  0  0  0  0  0  0
   -0.0000   -1.1917    0.0025 C   0  0  0  0  0  0  0  0  0  0  0  0
    0.0000    0.0098    0.6961 C   0  0  0  0  0  3  0  0  0  0  0  0
    0.0000    1.2112    0.0025 C   0  0  0  0  0  0  0  0  0  0  0  0
    0.0000    1.2112   -1.3848 C   0  0  0  0  0  0  0  0  0  0  0  0
   -0.0000    0.0098   -2.0785 C   0  0  0  0  0  0  0  0  0  0  0  0
   -0.0000   -2.1294   -1.9262 H   0  0  0  0  0  0  0  0  0  0  0  0
   -0.0000   -2.1294    0.5440 H   0  0  0  0  0  0  0  0  0  0  0  0
    0.0000    0.0098    1.9955 H   0  0  0  0  0  0  0  0  0  0  0  0
    0.0000    2.1490    0.5439 H   0  0  0  0  0  0  0  0  0  0  0  0
    0.0000    2.1490   -1.9263 H   0  0  0  0  0  0  0  0  0  0  0  0
   -0.0000    0.0097   -3.1613 H   0  0  0  0  0  0  0  0  0  0  0  0
    0.0000    0.0098    3.1446 O   0  0  0  0  0  0  0  0  0  0  0  0
   -0.0000   -0.9132    3.3994 H   0  0  0  0  0  0  0  0  0  0  0  0
  1  6  2  0
  1  2  1  0
  1  7  1  0
  2  3  2  0
  2  8  1  0
  3  4  1  0
  4  5  2  0
  4 10  1  0
  5  6  1  0
  5 11  1  0
  6 12  1  0
  9 13  1  0
 13 14  1  0
M  RAD  1   3   2
M  END
>  <reaction>  (16) 
rxn_277

>  <mol_properties>  (16) 
{"1": {"label": "*0", "atom_type": "Cd"}, "2": {"label": "*1", "atom_type": "Cd"}, "8": {"label": "*2", "atom_type": "H0"}, "12": {"label": "*3", "atom_type": "O2s"}, "13": {"label": "*4", "atom_type": "H0"}}

>  <type>  (16) 
unop_12

>  <geom_source>  (16) 
Heuristics

$$$$

     RDKit          3D

 14 13  0  0  0  0  0  0  0  0999 V2000
    2.6585   -0.0144    0.0623 O   0  0  0  0  0  0  0  0  0  0  0  0
   -1.5993    0.1095    0.8616 C   0  0  0  0  0  0  0  0  0  0  0  0
   -1.0322    1.2977    0.3879 C   0  0  0  0  0  0  0  0  0  0  0  0
   -1.1142   -1.1243    0.4139 C   0  0  0  0  0  0  0  0  0  0  0  0
    0.0198    1.2515   -0.5334 C   0  0  0  0  0  0  0  0  0  0  0  0
   -0.0622   -1.1691   -0.5074 C   0  0  0  0  0  0  0  0  0  0  0  0
    0.5041    0.0185   -0.9804 C   0  0  0  0  0  3  0  0  0  0  0  0
   -1.4071    2.2522    0.7340 H   0  0  0  0  0  0  0  0  0  0  0  0
   -2.4131    0.1447    1.5743 H   0  0  0  0  0  0  0  0  0  0  0  0
   -1.5526   -2.0436    0.7801 H   0  0  0  0  0  0  0  0  0  0  0  0
    0.4606    2.1681   -0.9018 H   0  0  0  0  0  0  0  0  0  0  0  0
    0.3154   -2.1212   -0.8557 H   0  0  0  0  0  0  0  0  0  0  0  0
    3.4084   -0.6047   -0.2019 H   0  0  0  0  0  0  0  0  0  0  0  0
    1.8140   -0.1648   -0.8336 H   0  0  0  0  0  0  0  0  0  0  0  0
  1 13  1  0
  1 14  1  0
  2  3  2  0
  2  4  1  0
  2  9  1  0
  3  5  1  0
  3  8  1  0
  4  6  2  0
  4 10  1  0
  5  7  2  0
  5 11  1  0
  6  7  1  0
  6 12  1  0
M  RAD  1   7   2
M  END
>  <reaction>  (17) 
rxn_277

>  <mol_properties>  (17) 
{"1": {"label": "*0", "atom_type": "Cd"}, "2": {"label": "*1", "atom_type": "Cd"}, "8": {"label": "*2", "atom_type": "H0"}, "12": {"label": "*3", "atom_type": "O2s"}, "13": {"label": "*4", "atom_type": "H0"}}

>  <type>  (17) 
unop_13

>  <geom_source>  (17) 
AutoTST

$$$$
