
     RDKit          3D

  9  8  0  0  0  0  0  0  0  0999 V2000
    1.1303   -0.2933   -0.7510 C   0  0  0  0  0  0  0  0  0  0  0  0
    0.2866    0.4560   -0.0588 C   0  0  0  0  0  0  0  0  0  0  0  0
   -0.9719   -0.0331    0.5823 C   0  0  0  0  0  0  0  0  0  0  0  0
    2.0274    0.1230   -1.1916 H   0  0  0  0  0  0  0  0  0  0  0  0
    0.9532   -1.3530   -0.9023 H   0  0  0  0  0  0  0  0  0  0  0  0
    0.5065    1.5132    0.0659 H   0  0  0  0  0  0  0  0  0  0  0  0
   -0.9526    0.1426    1.6610 H   0  0  0  0  0  0  0  0  0  0  0  0
   -1.1182   -1.1002    0.4106 H   0  0  0  0  0  0  0  0  0  0  0  0
   -1.8412    0.5010    0.1901 H   0  0  0  0  0  0  0  0  0  0  0  0
  1  2  2  3
  1  4  1  0
  1  5  1  0
  2  3  1  0
  2  6  1  0
  3  7  1  0
  3  8  1  0
  3  9  1  0
M  END
>  <reaction>  (1) 
rxn_742

>  <mol_properties>  (1) 
{"2": {"label": "donator", "atom_type": "Cs"}, "6": {"label": "d_hydrogen", "atom_type": "H0"}}

>  <type>  (1) 
r1h

$$$$

     RDKit          3D

 18 19  0  0  0  0  0  0  0  0999 V2000
    1.4897    0.5883    0.1105 C   0  0  0  0  0  0  0  0  0  0  0  0
    1.1311   -0.8051   -0.5162 C   0  0  0  0  0  0  0  0  0  0  0  0
   -0.3169   -1.0404   -0.0394 C   0  0  0  0  0  0  0  0  0  0  0  0
   -1.2543   -0.0684   -0.7849 C   0  0  0  0  0  0  0  0  0  0  0  0
   -0.8937    1.3243   -0.1581 C   0  0  0  0  0  0  0  0  0  0  0  0
    0.1924    0.9172    0.8069 C   0  0  0  0  0  3  0  0  0  0  0  0
   -0.2799   -0.4064    1.3705 C   0  0  0  0  0  0  0  0  0  0  0  0
    1.7637    1.3287   -0.6409 H   0  0  0  0  0  0  0  0  0  0  0  0
    2.3187    0.4966    0.8138 H   0  0  0  0  0  0  0  0  0  0  0  0
    1.7945   -1.5849   -0.1392 H   0  0  0  0  0  0  0  0  0  0  0  0
    1.2076   -0.8023   -1.6044 H   0  0  0  0  0  0  0  0  0  0  0  0
   -0.6324   -2.0820   -0.0940 H   0  0  0  0  0  0  0  0  0  0  0  0
   -1.0930   -0.0918   -1.8636 H   0  0  0  0  0  0  0  0  0  0  0  0
   -2.2997   -0.3205   -0.6004 H   0  0  0  0  0  0  0  0  0  0  0  0
   -0.5487    2.0429   -0.9014 H   0  0  0  0  0  0  0  0  0  0  0  0
   -1.7551    1.7547    0.3548 H   0  0  0  0  0  0  0  0  0  0  0  0
    0.4357   -0.8873    2.0385 H   0  0  0  0  0  0  0  0  0  0  0  0
   -1.2599   -0.3636    1.8475 H   0  0  0  0  0  0  0  0  0  0  0  0
  1  2  1  0
  1  6  1  0
  1  8  1  0
  1  9  1  0
  2  3  1  0
  2 10  1  0
  2 11  1  0
  3  4  1  0
  3  7  1  0
  3 12  1  0
  4  5  1  0
  4 13  1  0
  4 14  1  0
  5  6  1  0
  5 15  1  0
  5 16  1  0
  6  7  1  0
  7 17  1  0
  7 18  1  0
M  RAD  1   6   2
M  END
>  <reaction>  (2) 
rxn_742

>  <mol_properties>  (2) 
{"5": {"label": "acceptor", "atom_type": "Cs"}}

>  <type>  (2) 
r2

$$$$

     RDKit          3D

 19 20  0  0  0  0  0  0  0  0999 V2000
    1.1087   -0.4716   -0.9619 C   0  0  0  0  0  0  0  0  0  0  0  0
    0.9355    1.0407   -0.6470 C   0  0  0  0  0  0  0  0  0  0  0  0
   -0.0085    1.0377    0.5657 C   0  0  0  0  0  0  0  0  0  0  0  0
   -1.4093    0.6181    0.0927 C   0  0  0  0  0  0  0  0  0  0  0  0
   -1.2361   -0.8942   -0.2222 C   0  0  0  0  0  0  0  0  0  0  0  0
    0.2422   -1.1516    0.1099 C   0  0  0  0  0  0  0  0  0  0  0  0
    0.4537   -0.2211    1.3118 C   0  0  0  0  0  0  0  0  0  0  0  0
    2.1524   -0.7752   -0.8653 H   0  0  0  0  0  0  0  0  0  0  0  0
    0.7855   -0.7316   -1.9710 H   0  0  0  0  0  0  0  0  0  0  0  0
    1.8918    1.5001   -0.3916 H   0  0  0  0  0  0  0  0  0  0  0  0
    0.5184    1.6005   -1.4855 H   0  0  0  0  0  0  0  0  0  0  0  0
    0.0038    1.9661    1.1351 H   0  0  0  0  0  0  0  0  0  0  0  0
   -1.7351    1.1944   -0.7746 H   0  0  0  0  0  0  0  0  0  0  0  0
   -2.1465    0.7723    0.8824 H   0  0  0  0  0  0  0  0  0  0  0  0
   -1.4680   -1.1377   -1.2601 H   0  0  0  0  0  0  0  0  0  0  0  0
   -1.8859   -1.5030    0.4087 H   0  0  0  0  0  0  0  0  0  0  0  0
    0.4812   -2.2025    0.2673 H   0  0  0  0  0  0  0  0  0  0  0  0
    1.4942   -0.1701    1.6391 H   0  0  0  0  0  0  0  0  0  0  0  0
   -0.1779   -0.4714    2.1666 H   0  0  0  0  0  0  0  0  0  0  0  0
  1  2  1  0
  1  6  1  0
  1  8  1  0
  1  9  1  0
  2  3  1  0
  2 10  1  0
  2 11  1  0
  3  4  1  0
  3  7  1  0
  3 12  1  0
  4  5  1  0
  4 13  1  0
  4 14  1  0
  5  6  1  0
  5 15  1  0
  5 16  1  0
  6  7  1  0
  6 17  1  0
  7 18  1  0
  7 19  1  0
M  END
>  <reaction>  (3) 
rxn_742

>  <mol_properties>  (3) 
{"0": {"label": "a_hydrogen", "atom_type": "H0"}, "6": {"label": "acceptor", "atom_type": "Cs"}}

>  <type>  (3) 
r2h

$$$$

     RDKit          3D

 27 27  0  0  0  0  0  0  0  0999 V2000
    1.4425   -0.7509   -3.3409 C   0  0  0  0  0  0  0  0  0  0  0  0
    1.5340   -1.4381   -2.2033 C   0  0  0  0  0  0  0  0  0  0  0  0
    2.2156   -0.9781   -0.9897 C   0  0  0  0  0  0  0  0  0  0  0  0
    0.8868   -1.1303   -4.1887 H   0  0  0  0  0  0  0  0  0  0  0  0
    1.9317    0.2101   -3.4602 H   0  0  0  0  0  0  0  0  0  0  0  0
    1.0246   -2.3960   -2.1359 H   0  0  0  0  0  0  0  0  0  0  0  0
    1.3360   -0.4793   -0.2332 H   0  0  0  0  0  0  0  0  0  0  0  0
    2.9142   -0.1581   -1.1509 H   0  0  0  0  0  0  0  0  0  0  0  0
    2.6562   -1.7701   -0.3868 H   0  0  0  0  0  0  0  0  0  0  0  0
    0.4513    0.3898    1.9480 C   0  0  0  0  0  0  0  0  0  0  0  0
   -1.0220    0.5210    2.4562 C   0  0  0  0  0  0  0  0  0  0  0  0
   -1.8554    0.2869    1.1812 C   0  0  0  0  0  0  0  0  0  0  0  0
   -1.6995    1.5066    0.2534 C   0  0  0  0  0  0  0  0  0  0  0  0
   -0.2272    1.3770   -0.2535 C   0  0  0  0  0  0  0  0  0  0  0  0
    0.2327    0.1246    0.4701 C   0  0  0  0  0  3  0  0  0  0  0  0
   -1.0011   -0.7648    0.4472 C   0  0  0  0  0  0  0  0  0  0  0  0
    0.9603   -0.4445    2.4340 H   0  0  0  0  0  0  0  0  0  0  0  0
    1.0402    1.2899    2.1259 H   0  0  0  0  0  0  0  0  0  0  0  0
   -1.2236    1.4962    2.9017 H   0  0  0  0  0  0  0  0  0  0  0  0
   -1.2445   -0.2374    3.2086 H   0  0  0  0  0  0  0  0  0  0  0  0
   -2.8917    0.0149    1.3792 H   0  0  0  0  0  0  0  0  0  0  0  0
   -1.8782    2.4450    0.7803 H   0  0  0  0  0  0  0  0  0  0  0  0
   -2.4056    1.4546   -0.5768 H   0  0  0  0  0  0  0  0  0  0  0  0
   -0.1926    1.2373   -1.3356 H   0  0  0  0  0  0  0  0  0  0  0  0
    0.3828    2.2463   -0.0065 H   0  0  0  0  0  0  0  0  0  0  0  0
   -1.3576   -0.9874   -0.5597 H   0  0  0  0  0  0  0  0  0  0  0  0
   -0.8830   -1.6933    1.0084 H   0  0  0  0  0  0  0  0  0  0  0  0
  1  2  2  3
  1  4  1  0
  1  5  1  0
  2  3  1  0
  2  6  1  0
  3  7  1  0
  3  8  1  0
  3  9  1  0
 10 11  1  0
 10 15  1  0
 10 17  1  0
 10 18  1  0
 11 12  1  0
 11 19  1  0
 11 20  1  0
 12 13  1  0
 12 16  1  0
 12 21  1  0
 13 14  1  0
 13 22  1  0
 13 23  1  0
 14 15  1  0
 14 24  1  0
 14 25  1  0
 15 16  1  0
 16 26  1  0
 16 27  1  0
M  RAD  1  15   2
M  END
>  <reaction>  (4) 
rxn_742

>  <mol_properties>  (4) 
{"1": {"label": "*0", "atom_type": "Cd"}, "2": {"label": "*1", "atom_type": "Cs"}, "6": {"label": "*2", "atom_type": "H0"}, "14": {"label": "*3", "atom_type": "Cs"}, "15": {"label": "*4", "atom_type": "Cs"}}

>  <type>  (4) 
ts

$$$$

     RDKit          3D

 27 27  0  0  0  0  0  0  0  0999 V2000
    1.9897   -1.4825   -3.3917 C   0  0  0  0  0  0  0  0  0  0  0  0
    1.9897   -1.4825   -2.0680 C   0  0  0  0  0  0  0  0  0  0  0  0
    1.9897   -0.2603   -1.2074 C   0  0  0  0  0  3  0  0  0  0  0  0
    1.9897   -2.4052   -3.9582 H   0  0  0  0  0  0  0  0  0  0  0  0
    1.9897   -0.5569   -3.9577 H   0  0  0  0  0  0  0  0  0  0  0  0
    1.9897   -2.4351   -1.5444 H   0  0  0  0  0  0  0  0  0  0  0  0
    0.9365   -0.2397   -0.4260 H   0  0  0  0  0  0  0  0  0  0  0  0
    1.9897    0.6502   -1.8080 H   0  0  0  0  0  0  0  0  0  0  0  0
    2.8674   -0.2432   -0.5562 H   0  0  0  0  0  0  0  0  0  0  0  0
    0.2263   -0.2010    1.8515 C   0  0  0  0  0  0  0  0  0  0  0  0
   -1.0594    0.3887    2.4962 C   0  0  0  0  0  0  0  0  0  0  0  0
   -1.9742    0.6344    1.2860 C   0  0  0  0  0  0  0  0  0  0  0  0
   -1.4133    1.8184    0.4827 C   0  0  0  0  0  0  0  0  0  0  0  0
   -0.1277    1.2288   -0.1620 C   0  0  0  0  0  0  0  0  0  0  0  0
   -0.1130   -0.2193    0.3527 C   0  0  0  0  0  0  0  0  0  0  0  0
   -1.6112   -0.5505    0.3809 C   0  0  0  0  0  0  0  0  0  0  0  0
    0.4202   -1.2110    2.2165 H   0  0  0  0  0  0  0  0  0  0  0  0
    1.1146    0.3972    2.0600 H   0  0  0  0  0  0  0  0  0  0  0  0
   -0.8680    1.3065    3.0542 H   0  0  0  0  0  0  0  0  0  0  0  0
   -1.5141   -0.3238    3.1865 H   0  0  0  0  0  0  0  0  0  0  0  0
   -3.0273    0.7374    1.5443 H   0  0  0  0  0  0  0  0  0  0  0  0
   -1.2082    2.6806    1.1190 H   0  0  0  0  0  0  0  0  0  0  0  0
   -2.1237    2.1386   -0.2813 H   0  0  0  0  0  0  0  0  0  0  0  0
   -0.1894    1.2514   -1.2513 H   0  0  0  0  0  0  0  0  0  0  0  0
    0.7744    1.7713    0.1248 H   0  0  0  0  0  0  0  0  0  0  0  0
   -2.0818   -0.5007   -0.6032 H   0  0  0  0  0  0  0  0  0  0  0  0
   -1.8294   -1.5203    0.8327 H   0  0  0  0  0  0  0  0  0  0  0  0
  1  2  2  3
  1  4  1  0
  1  5  1  0
  2  3  1  0
  2  6  1  0
  3  8  1  0
  3  9  1  0
  7 15  1  0
 10 11  1  0
 10 15  1  0
 10 17  1  0
 10 18  1  0
 11 12  1  0
 11 19  1  0
 11 20  1  0
 12 13  1  0
 12 16  1  0
 12 21  1  0
 13 14  1  0
 13 22  1  0
 13 23  1  0
 14 15  1  0
 14 24  1  0
 14 25  1  0
 15 16  1  0
 16 26  1  0
 16 27  1  0
M  RAD  1   3   2
M  END
>  <reaction>  (5) 
rxn_742

>  <mol_properties>  (5) 
{"1": {"label": "*0", "atom_type": "Cd"}, "2": {"label": "*1", "atom_type": "Cs"}, "6": {"label": "*2", "atom_type": "H0"}, "14": {"label": "*3", "atom_type": "Cs"}, "15": {"label": "*4", "atom_type": "Cs"}}

>  <type>  (5) 
unop_1

>  <geom_source>  (5) 
Heuristics

$$$$

     RDKit          3D

 27 27  0  0  0  0  0  0  0  0999 V2000
    2.0007   -1.0456   -3.5908 C   0  0  0  0  0  0  0  0  0  0  0  0
    2.0007   -1.0456   -2.2670 C   0  0  0  0  0  0  0  0  0  0  0  0
    2.0007    0.1766   -1.4065 C   0  0  0  0  0  3  0  0  0  0  0  0
    2.0007   -1.9683   -4.1573 H   0  0  0  0  0  0  0  0  0  0  0  0
    2.0007   -0.1200   -4.1568 H   0  0  0  0  0  0  0  0  0  0  0  0
    2.0007   -1.9982   -1.7435 H   0  0  0  0  0  0  0  0  0  0  0  0
    0.9474    0.1971   -0.6251 H   0  0  0  0  0  0  0  0  0  0  0  0
    2.0007    1.0871   -2.0071 H   0  0  0  0  0  0  0  0  0  0  0  0
    2.8784    0.1937   -0.7553 H   0  0  0  0  0  0  0  0  0  0  0  0
   -0.6131   -1.1784    0.5435 C   0  0  0  0  0  0  0  0  0  0  0  0
   -1.8536   -0.8651    1.4262 C   0  0  0  0  0  0  0  0  0  0  0  0
   -1.8979    0.6711    1.4316 C   0  0  0  0  0  0  0  0  0  0  0  0
   -0.7266    1.1900    2.2806 C   0  0  0  0  0  0  0  0  0  0  0  0
    0.5138    0.8768    1.3978 C   0  0  0  0  0  0  0  0  0  0  0  0
   -0.1021    0.2176    0.1536 C   0  0  0  0  0  0  0  0  0  0  0  0
   -1.4162    0.9973    0.0115 C   0  0  0  0  0  0  0  0  0  0  0  0
   -0.8966   -1.7480   -0.3431 H   0  0  0  0  0  0  0  0  0  0  0  0
    0.1460   -1.7559    1.0732 H   0  0  0  0  0  0  0  0  0  0  0  0
   -1.7670   -1.2729    2.4345 H   0  0  0  0  0  0  0  0  0  0  0  0
   -2.7629   -1.2767    0.9850 H   0  0  0  0  0  0  0  0  0  0  0  0
   -2.8649    1.0824    1.7179 H   0  0  0  0  0  0  0  0  0  0  0  0
   -0.6838    0.7023    3.2556 H   0  0  0  0  0  0  0  0  0  0  0  0
   -0.8219    2.2628    2.4565 H   0  0  0  0  0  0  0  0  0  0  0  0
    1.0444    1.7915    1.1283 H   0  0  0  0  0  0  0  0  0  0  0  0
    1.2291    0.2193    1.8943 H   0  0  0  0  0  0  0  0  0  0  0  0
   -1.2669    2.0656   -0.1578 H   0  0  0  0  0  0  0  0  0  0  0  0
   -2.0706    0.6000   -0.7671 H   0  0  0  0  0  0  0  0  0  0  0  0
  1  2  2  3
  1  4  1  0
  1  5  1  0
  2  3  1  0
  2  6  1  0
  3  8  1  0
  3  9  1  0
  7 15  1  0
 10 11  1  0
 10 15  1  0
 10 17  1  0
 10 18  1  0
 11 12  1  0
 11 19  1  0
 11 20  1  0
 12 13  1  0
 12 16  1  0
 12 21  1  0
 13 14  1  0
 13 22  1  0
 13 23  1  0
 14 15  1  0
 14 24  1  0
 14 25  1  0
 15 16  1  0
 16 26  1  0
 16 27  1  0
M  RAD  1   3   2
M  END
>  <reaction>  (6) 
rxn_742

>  <mol_properties>  (6) 
{"1": {"label": "*0", "atom_type": "Cd"}, "2": {"label": "*1", "atom_type": "Cs"}, "6": {"label": "*2", "atom_type": "H0"}, "14": {"label": "*3", "atom_type": "Cs"}, "15": {"label": "*4", "atom_type": "Cs"}}

>  <type>  (6) 
unop_2

>  <geom_source>  (6) 
Heuristics

$$$$

     RDKit          3D

 27 27  0  0  0  0  0  0  0  0999 V2000
    2.1650   -1.3172   -3.2730 C   0  0  0  0  0  0  0  0  0  0  0  0
    2.1650   -1.3172   -1.9492 C   0  0  0  0  0  0  0  0  0  0  0  0
    2.1650   -0.0950   -1.0887 C   0  0  0  0  0  3  0  0  0  0  0  0
    2.1650   -2.2399   -3.8395 H   0  0  0  0  0  0  0  0  0  0  0  0
    2.1650   -0.3916   -3.8390 H   0  0  0  0  0  0  0  0  0  0  0  0
    2.1650   -2.2698   -1.4257 H   0  0  0  0  0  0  0  0  0  0  0  0
    1.1118   -0.0744   -0.3072 H   0  0  0  0  0  0  0  0  0  0  0  0
    2.1650    0.8155   -1.6893 H   0  0  0  0  0  0  0  0  0  0  0  0
    3.0427   -0.0779   -0.4375 H   0  0  0  0  0  0  0  0  0  0  0  0
    0.2956    0.6660    1.8090 C   0  0  0  0  0  0  0  0  0  0  0  0
   -1.1406    0.8118    2.3854 C   0  0  0  0  0  0  0  0  0  0  0  0
   -2.0169    0.1571    1.3059 C   0  0  0  0  0  0  0  0  0  0  0  0
   -2.0414    1.0757    0.0740 C   0  0  0  0  0  0  0  0  0  0  0  0
   -0.6053    0.9299   -0.5024 C   0  0  0  0  0  0  0  0  0  0  0  0
    0.0623   -0.0540    0.4714 C   0  0  0  0  0  0  0  0  0  0  0  0
   -1.1089   -0.9815    0.8220 C   0  0  0  0  0  0  0  0  0  0  0  0
    0.9234    0.0639    2.4680 H   0  0  0  0  0  0  0  0  0  0  0  0
    0.7942    1.6268    1.6720 H   0  0  0  0  0  0  0  0  0  0  0  0
   -1.4206    1.8516    2.5609 H   0  0  0  0  0  0  0  0  0  0  0  0
   -1.2374    0.2833    3.3352 H   0  0  0  0  0  0  0  0  0  0  0  0
   -3.0058   -0.1329    1.6582 H   0  0  0  0  0  0  0  0  0  0  0  0
   -2.2864    2.1053    0.3394 H   0  0  0  0  0  0  0  0  0  0  0  0
   -2.7890    0.7378   -0.6456 H   0  0  0  0  0  0  0  0  0  0  0  0
   -0.6282    0.5184   -1.5128 H   0  0  0  0  0  0  0  0  0  0  0  0
   -0.0716    1.8804   -0.5494 H   0  0  0  0  0  0  0  0  0  0  0  0
   -1.5100   -1.5144   -0.0426 H   0  0  0  0  0  0  0  0  0  0  0  0
   -0.8676   -1.7025    1.6057 H   0  0  0  0  0  0  0  0  0  0  0  0
  1  2  2  3
  1  4  1  0
  1  5  1  0
  2  3  1  0
  2  6  1  0
  3  8  1  0
  3  9  1  0
  7 15  1  0
 10 11  1  0
 10 15  1  0
 10 17  1  0
 10 18  1  0
 11 12  1  0
 11 19  1  0
 11 20  1  0
 12 13  1  0
 12 16  1  0
 12 21  1  0
 13 14  1  0
 13 22  1  0
 13 23  1  0
 14 15  1  0
 14 24  1  0
 14 25  1  0
 15 16  1  0
 16 26  1  0
 16 27  1  0
M  RAD  1   3   2
M  END
>  <reaction>  (7) 
rxn_742

>  <mol_properties>  (7) 
{"1": {"label": "*0", "atom_type": "Cd"}, "2": {"label": "*1", "atom_type": "Cs"}, "6": {"label": "*2", "atom_type": "H0"}, "14": {"label": "*3", "atom_type": "Cs"}, "15": {"label": "*4", "atom_type": "Cs"}}

>  <type>  (7) 
unop_3

>  <geom_source>  (7) 
Heuristics

$$$$

     RDKit          3D

 27 27  0  0  0  0  0  0  0  0999 V2000
    2.0298   -1.4744   -3.3467 C   0  0  0  0  0  0  0  0  0  0  0  0
    2.0298   -1.4744   -2.0229 C   0  0  0  0  0  0  0  0  0  0  0  0
    2.0298   -0.2522   -1.1624 C   0  0  0  0  0  3  0  0  0  0  0  0
    2.0298   -2.3971   -3.9132 H   0  0  0  0  0  0  0  0  0  0  0  0
    2.0298   -0.5488   -3.9127 H   0  0  0  0  0  0  0  0  0  0  0  0
    2.0298   -2.4270   -1.4994 H   0  0  0  0  0  0  0  0  0  0  0  0
    0.9766   -0.2317   -0.3810 H   0  0  0  0  0  0  0  0  0  0  0  0
    2.0298    0.6582   -1.7630 H   0  0  0  0  0  0  0  0  0  0  0  0
    2.9075   -0.2351   -0.5112 H   0  0  0  0  0  0  0  0  0  0  0  0
   -1.4092   -0.2100   -0.3614 C   0  0  0  0  0  0  0  0  0  0  0  0
   -2.1774    0.9792    0.2802 C   0  0  0  0  0  0  0  0  0  0  0  0
   -1.1850    1.5105    1.3266 C   0  0  0  0  0  0  0  0  0  0  0  0
   -1.0961    0.4934    2.4753 C   0  0  0  0  0  0  0  0  0  0  0  0
   -0.3279   -0.6959    1.8337 C   0  0  0  0  0  0  0  0  0  0  0  0
   -0.0729   -0.2112    0.3977 C   0  0  0  0  0  0  0  0  0  0  0  0
    0.1574    1.2901    0.6165 C   0  0  0  0  0  0  0  0  0  0  0  0
   -1.2481   -0.0432   -1.4277 H   0  0  0  0  0  0  0  0  0  0  0  0
   -1.9375   -1.1589   -0.2560 H   0  0  0  0  0  0  0  0  0  0  0  0
   -3.1221    0.6751    0.7335 H   0  0  0  0  0  0  0  0  0  0  0  0
   -2.4039    1.7461   -0.4624 H   0  0  0  0  0  0  0  0  0  0  0  0
   -1.3943    2.5277    1.6548 H   0  0  0  0  0  0  0  0  0  0  0  0
   -2.0829    0.2082    2.8432 H   0  0  0  0  0  0  0  0  0  0  0  0
   -0.5416    0.9094    3.3181 H   0  0  0  0  0  0  0  0  0  0  0  0
    0.6142   -0.8799    2.3528 H   0  0  0  0  0  0  0  0  0  0  0  0
   -0.8982   -1.6258    1.8537 H   0  0  0  0  0  0  0  0  0  0  0  0
    1.0202    1.5056    1.2501 H   0  0  0  0  0  0  0  0  0  0  0  0
    0.2491    1.8521   -0.3152 H   0  0  0  0  0  0  0  0  0  0  0  0
  1  2  2  3
  1  4  1  0
  1  5  1  0
  2  3  1  0
  2  6  1  0
  3  8  1  0
  3  9  1  0
  7 15  1  0
 10 11  1  0
 10 15  1  0
 10 17  1  0
 10 18  1  0
 11 12  1  0
 11 19  1  0
 11 20  1  0
 12 13  1  0
 12 16  1  0
 12 21  1  0
 13 14  1  0
 13 22  1  0
 13 23  1  0
 14 15  1  0
 14 24  1  0
 14 25  1  0
 15 16  1  0
 16 26  1  0
 16 27  1  0
M  RAD  1   3   2
M  END
>  <reaction>  (8) 
rxn_742

>  <mol_properties>  (8) 
{"1": {"label": "*0", "atom_type": "Cd"}, "2": {"label": "*1", "atom_type": "Cs"}, "6": {"label": "*2", "atom_type": "H0"}, "14": {"label": "*3", "atom_type": "Cs"}, "15": {"label": "*4", "atom_type": "Cs"}}

>  <type>  (8) 
unop_4

>  <geom_source>  (8) 
Heuristics

$$$$

     RDKit          3D

 27 27  0  0  0  0  0  0  0  0999 V2000
    2.1034   -0.9682   -3.4846 C   0  0  0  0  0  0  0  0  0  0  0  0
    2.1034   -0.9682   -2.1608 C   0  0  0  0  0  0  0  0  0  0  0  0
    2.1034    0.2540   -1.3003 C   0  0  0  0  0  3  0  0  0  0  0  0
    2.1034   -1.8909   -4.0510 H   0  0  0  0  0  0  0  0  0  0  0  0
    2.1034   -0.0426   -4.0506 H   0  0  0  0  0  0  0  0  0  0  0  0
    2.1034   -1.9208   -1.6373 H   0  0  0  0  0  0  0  0  0  0  0  0
    1.0501    0.2745   -0.5188 H   0  0  0  0  0  0  0  0  0  0  0  0
    2.1034    1.1644   -1.9009 H   0  0  0  0  0  0  0  0  0  0  0  0
    2.9811    0.2711   -0.6491 H   0  0  0  0  0  0  0  0  0  0  0  0
   -0.0681    1.5264    1.1769 C   0  0  0  0  0  0  0  0  0  0  0  0
   -1.0599    1.0825    2.2883 C   0  0  0  0  0  0  0  0  0  0  0  0
   -1.4353   -0.3476    1.8689 C   0  0  0  0  0  0  0  0  0  0  0  0
   -2.3254   -0.2716    0.6184 C   0  0  0  0  0  0  0  0  0  0  0  0
   -1.3335    0.1723   -0.4931 C   0  0  0  0  0  0  0  0  0  0  0  0
    0.0006    0.2950    0.2599 C   0  0  0  0  0  0  0  0  0  0  0  0
   -0.1128   -0.8505    1.2747 C   0  0  0  0  0  0  0  0  0  0  0  0
    0.9141    1.7523    1.5952 H   0  0  0  0  0  0  0  0  0  0  0  0
   -0.4062    2.4143    0.6405 H   0  0  0  0  0  0  0  0  0  0  0  0
   -1.9357    1.7298    2.3546 H   0  0  0  0  0  0  0  0  0  0  0  0
   -0.5781    1.0845    3.2675 H   0  0  0  0  0  0  0  0  0  0  0  0
   -1.8588   -0.9456    2.6747 H   0  0  0  0  0  0  0  0  0  0  0  0
   -3.1519    0.4284    0.7496 H   0  0  0  0  0  0  0  0  0  0  0  0
   -2.7575   -1.2476    0.3914 H   0  0  0  0  0  0  0  0  0  0  0  0
   -1.2653   -0.5798   -1.2809 H   0  0  0  0  0  0  0  0  0  0  0  0
   -1.6224    1.1129   -0.9644 H   0  0  0  0  0  0  0  0  0  0  0  0
   -0.1972   -1.8336    0.8068 H   0  0  0  0  0  0  0  0  0  0  0  0
    0.7052   -0.8679    1.9977 H   0  0  0  0  0  0  0  0  0  0  0  0
  1  2  2  3
  1  4  1  0
  1  5  1  0
  2  3  1  0
  2  6  1  0
  3  8  1  0
  3  9  1  0
  7 15  1  0
 10 11  1  0
 10 15  1  0
 10 17  1  0
 10 18  1  0
 11 12  1  0
 11 19  1  0
 11 20  1  0
 12 13  1  0
 12 16  1  0
 12 21  1  0
 13 14  1  0
 13 22  1  0
 13 23  1  0
 14 15  1  0
 14 24  1  0
 14 25  1  0
 15 16  1  0
 16 26  1  0
 16 27  1  0
M  RAD  1   3   2
M  END
>  <reaction>  (9) 
rxn_742

>  <mol_properties>  (9) 
{"1": {"label": "*0", "atom_type": "Cd"}, "2": {"label": "*1", "atom_type": "Cs"}, "6": {"label": "*2", "atom_type": "H0"}, "14": {"label": "*3", "atom_type": "Cs"}, "15": {"label": "*4", "atom_type": "Cs"}}

>  <type>  (9) 
unop_5

>  <geom_source>  (9) 
Heuristics

$$$$

     RDKit          3D

 27 27  0  0  0  0  0  0  0  0999 V2000
    1.8300   -1.5151   -3.5069 C   0  0  0  0  0  0  0  0  0  0  0  0
    1.8300   -1.5151   -2.1832 C   0  0  0  0  0  0  0  0  0  0  0  0
    1.8300   -0.2929   -1.3226 C   0  0  0  0  0  3  0  0  0  0  0  0
    1.8300   -2.4378   -4.0734 H   0  0  0  0  0  0  0  0  0  0  0  0
    1.8300   -0.5895   -4.0729 H   0  0  0  0  0  0  0  0  0  0  0  0
    1.8300   -2.4677   -1.6596 H   0  0  0  0  0  0  0  0  0  0  0  0
    0.7767   -0.2723   -0.5412 H   0  0  0  0  0  0  0  0  0  0  0  0
    1.8300    0.6176   -1.9232 H   0  0  0  0  0  0  0  0  0  0  0  0
    2.7077   -0.2758   -0.6714 H   0  0  0  0  0  0  0  0  0  0  0  0
   -1.4906    0.4533   -0.3803 C   0  0  0  0  0  0  0  0  0  0  0  0
   -1.7858    1.5964    0.6307 C   0  0  0  0  0  0  0  0  0  0  0  0
   -0.7001    1.4030    1.7012 C   0  0  0  0  0  0  0  0  0  0  0  0
   -1.0277    0.1346    2.5048 C   0  0  0  0  0  0  0  0  0  0  0  0
   -0.7325   -1.0086    1.4937 C   0  0  0  0  0  0  0  0  0  0  0  0
   -0.2728   -0.2519    0.2375 C   0  0  0  0  0  0  0  0  0  0  0  0
    0.4878    0.9307    0.8523 C   0  0  0  0  0  0  0  0  0  0  0  0
   -1.2466    0.8544   -1.3655 H   0  0  0  0  0  0  0  0  0  0  0  0
   -2.3343   -0.2271   -0.5052 H   0  0  0  0  0  0  0  0  0  0  0  0
   -2.7895    1.5357    1.0540 H   0  0  0  0  0  0  0  0  0  0  0  0
   -1.6907    2.5743    0.1558 H   0  0  0  0  0  0  0  0  0  0  0  0
   -0.5298    2.2836    2.3192 H   0  0  0  0  0  0  0  0  0  0  0  0
   -2.0609    0.1308    2.8552 H   0  0  0  0  0  0  0  0  0  0  0  0
   -0.3851    0.0566    3.3834 H   0  0  0  0  0  0  0  0  0  0  0  0
    0.0590   -1.6633    1.8622 H   0  0  0  0  0  0  0  0  0  0  0  0
   -1.6057   -1.6321    1.2960 H   0  0  0  0  0  0  0  0  0  0  0  0
    1.3493    0.6250    1.4494 H   0  0  0  0  0  0  0  0  0  0  0  0
    0.8087    1.6675    0.1130 H   0  0  0  0  0  0  0  0  0  0  0  0
  1  2  2  3
  1  4  1  0
  1  5  1  0
  2  3  1  0
  2  6  1  0
  3  8  1  0
  3  9  1  0
  7 15  1  0
 10 11  1  0
 10 15  1  0
 10 17  1  0
 10 18  1  0
 11 12  1  0
 11 19  1  0
 11 20  1  0
 12 13  1  0
 12 16  1  0
 12 21  1  0
 13 14  1  0
 13 22  1  0
 13 23  1  0
 14 15  1  0
 14 24  1  0
 14 25  1  0
 15 16  1  0
 16 26  1  0
 16 27  1  0
M  RAD  1   3   2
M  END
>  <reaction>  (10) 
rxn_742

>  <mol_properties>  (10) 
{"1": {"label": "*0", "atom_type": "Cd"}, "2": {"label": "*1", "atom_type": "Cs"}, "6": {"label": "*2", "atom_type": "H0"}, "14": {"label": "*3", "atom_type": "Cs"}, "15": {"label": "*4", "atom_type": "Cs"}}

>  <type>  (10) 
unop_6

>  <geom_source>  (10) 
Heuristics

$$$$

     RDKit          3D

 27 27  0  0  0  0  0  0  0  0999 V2000
    1.6892   -1.3500   -3.6840 C   0  0  0  0  0  0  0  0  0  0  0  0
    1.6892   -1.3500   -2.3603 C   0  0  0  0  0  0  0  0  0  0  0  0
    1.6892   -0.1278   -1.4998 C   0  0  0  0  0  3  0  0  0  0  0  0
    1.6892   -2.2727   -4.2505 H   0  0  0  0  0  0  0  0  0  0  0  0
    1.6892   -0.4244   -4.2500 H   0  0  0  0  0  0  0  0  0  0  0  0
    1.6892   -2.3026   -1.8368 H   0  0  0  0  0  0  0  0  0  0  0  0
    0.6359   -0.1072   -0.7183 H   0  0  0  0  0  0  0  0  0  0  0  0
    1.6892    0.7827   -2.1004 H   0  0  0  0  0  0  0  0  0  0  0  0
    2.5669   -0.1107   -0.8486 H   0  0  0  0  0  0  0  0  0  0  0  0
   -1.3201    1.1360   -0.1516 C   0  0  0  0  0  0  0  0  0  0  0  0
   -1.3109    1.8265    1.2410 C   0  0  0  0  0  0  0  0  0  0  0  0
   -0.4002    0.9129    2.0764 C   0  0  0  0  0  0  0  0  0  0  0  0
   -1.1452   -0.4040    2.3459 C   0  0  0  0  0  0  0  0  0  0  0  0
   -1.1545   -1.0945    0.9534 C   0  0  0  0  0  0  0  0  0  0  0  0
   -0.4136   -0.0868    0.0604 C   0  0  0  0  0  0  0  0  0  0  0  0
    0.6343    0.4724    1.0320 C   0  0  0  0  0  0  0  0  0  0  0  0
   -0.9085    1.7943   -0.9184 H   0  0  0  0  0  0  0  0  0  0  0  0
   -2.3224    0.8483   -0.4725 H   0  0  0  0  0  0  0  0  0  0  0  0
   -2.3081    1.9132    1.6750 H   0  0  0  0  0  0  0  0  0  0  0  0
   -0.8946    2.8333    1.1767 H   0  0  0  0  0  0  0  0  0  0  0  0
   -0.0057    1.3869    2.9741 H   0  0  0  0  0  0  0  0  0  0  0  0
   -2.1490   -0.2306    2.7369 H   0  0  0  0  0  0  0  0  0  0  0  0
   -0.6093   -1.0083    3.0797 H   0  0  0  0  0  0  0  0  0  0  0  0
   -0.6233   -2.0473    0.9846 H   0  0  0  0  0  0  0  0  0  0  0  0
   -2.1632   -1.2954    0.5894 H   0  0  0  0  0  0  0  0  0  0  0  0
    1.3253   -0.2870    1.4040 H   0  0  0  0  0  0  0  0  0  0  0  0
    1.2072    1.3037    0.6160 H   0  0  0  0  0  0  0  0  0  0  0  0
  1  2  2  3
  1  4  1  0
  1  5  1  0
  2  3  1  0
  2  6  1  0
  3  8  1  0
  3  9  1  0
  7 15  1  0
 10 11  1  0
 10 15  1  0
 10 17  1  0
 10 18  1  0
 11 12  1  0
 11 19  1  0
 11 20  1  0
 12 13  1  0
 12 16  1  0
 12 21  1  0
 13 14  1  0
 13 22  1  0
 13 23  1  0
 14 15  1  0
 14 24  1  0
 14 25  1  0
 15 16  1  0
 16 26  1  0
 16 27  1  0
M  RAD  1   3   2
M  END
>  <reaction>  (11) 
rxn_742

>  <mol_properties>  (11) 
{"1": {"label": "*0", "atom_type": "Cd"}, "2": {"label": "*1", "atom_type": "Cs"}, "6": {"label": "*2", "atom_type": "H0"}, "14": {"label": "*3", "atom_type": "Cs"}, "15": {"label": "*4", "atom_type": "Cs"}}

>  <type>  (11) 
unop_7

>  <geom_source>  (11) 
Heuristics

$$$$

     RDKit          3D

 27 27  0  0  0  0  0  0  0  0999 V2000
    1.8679   -1.3974   -3.5724 C   0  0  0  0  0  0  0  0  0  0  0  0
    1.8679   -1.3974   -2.2486 C   0  0  0  0  0  0  0  0  0  0  0  0
    1.8679   -0.1752   -1.3881 C   0  0  0  0  0  3  0  0  0  0  0  0
    1.8679   -2.3201   -4.1388 H   0  0  0  0  0  0  0  0  0  0  0  0
    1.8679   -0.4718   -4.1384 H   0  0  0  0  0  0  0  0  0  0  0  0
    1.8679   -2.3500   -1.7251 H   0  0  0  0  0  0  0  0  0  0  0  0
    0.8147   -0.1546   -0.6066 H   0  0  0  0  0  0  0  0  0  0  0  0
    1.8679    0.7353   -1.9887 H   0  0  0  0  0  0  0  0  0  0  0  0
    2.7456   -0.1581   -0.7369 H   0  0  0  0  0  0  0  0  0  0  0  0
   -0.0141   -0.8199    1.5296 C   0  0  0  0  0  0  0  0  0  0  0  0
   -1.1296   -0.2046    2.4202 C   0  0  0  0  0  0  0  0  0  0  0  0
   -1.8498    0.7566    1.4613 C   0  0  0  0  0  0  0  0  0  0  0  0
   -0.9259    1.9531    1.1847 C   0  0  0  0  0  0  0  0  0  0  0  0
    0.1897    1.3378    0.2941 C   0  0  0  0  0  0  0  0  0  0  0  0
   -0.2349   -0.1342    0.1721 C   0  0  0  0  0  0  0  0  0  0  0  0
   -1.7640   -0.0109    0.1352 C   0  0  0  0  0  0  0  0  0  0  0  0
   -0.1346   -1.9009    1.4411 H   0  0  0  0  0  0  0  0  0  0  0  0
    0.9875   -0.6344    1.9206 H   0  0  0  0  0  0  0  0  0  0  0  0
   -0.7328    0.3144    3.2940 H   0  0  0  0  0  0  0  0  0  0  0  0
   -1.8130   -0.9751    2.7810 H   0  0  0  0  0  0  0  0  0  0  0  0
   -2.8491    1.0391    1.7899 H   0  0  0  0  0  0  0  0  0  0  0  0
   -0.5370    2.3882    2.1066 H   0  0  0  0  0  0  0  0  0  0  0  0
   -1.4620    2.7410    0.6531 H   0  0  0  0  0  0  0  0  0  0  0  0
    0.2163    1.8153   -0.6868 H   0  0  0  0  0  0  0  0  0  0  0  0
    1.1833    1.4393    0.7332 H   0  0  0  0  0  0  0  0  0  0  0  0
   -2.1294    0.5630   -0.7189 H   0  0  0  0  0  0  0  0  0  0  0  0
   -2.2747   -0.9757    0.1622 H   0  0  0  0  0  0  0  0  0  0  0  0
  1  2  2  3
  1  4  1  0
  1  5  1  0
  2  3  1  0
  2  6  1  0
  3  8  1  0
  3  9  1  0
  7 15  1  0
 10 11  1  0
 10 15  1  0
 10 17  1  0
 10 18  1  0
 11 12  1  0
 11 19  1  0
 11 20  1  0
 12 13  1  0
 12 16  1  0
 12 21  1  0
 13 14  1  0
 13 22  1  0
 13 23  1  0
 14 15  1  0
 14 24  1  0
 14 25  1  0
 15 16  1  0
 16 26  1  0
 16 27  1  0
M  RAD  1   3   2
M  END
>  <reaction>  (12) 
rxn_742

>  <mol_properties>  (12) 
{"1": {"label": "*0", "atom_type": "Cd"}, "2": {"label": "*1", "atom_type": "Cs"}, "6": {"label": "*2", "atom_type": "H0"}, "14": {"label": "*3", "atom_type": "Cs"}, "15": {"label": "*4", "atom_type": "Cs"}}

>  <type>  (12) 
unop_8

>  <geom_source>  (12) 
Heuristics

$$$$

     RDKit          3D

 27 27  0  0  0  0  0  0  0  0999 V2000
    2.1638   -1.2774   -3.3104 C   0  0  0  0  0  0  0  0  0  0  0  0
    2.1638   -1.2774   -1.9866 C   0  0  0  0  0  0  0  0  0  0  0  0
    2.1638   -0.0552   -1.1261 C   0  0  0  0  0  3  0  0  0  0  0  0
    2.1638   -2.2001   -3.8769 H   0  0  0  0  0  0  0  0  0  0  0  0
    2.1638   -0.3518   -3.8764 H   0  0  0  0  0  0  0  0  0  0  0  0
    2.1638   -2.2300   -1.4631 H   0  0  0  0  0  0  0  0  0  0  0  0
    1.1106   -0.0346   -0.3447 H   0  0  0  0  0  0  0  0  0  0  0  0
    2.1638    0.8553   -1.7267 H   0  0  0  0  0  0  0  0  0  0  0  0
    3.0415   -0.0381   -0.4749 H   0  0  0  0  0  0  0  0  0  0  0  0
   -1.1693   -0.7147   -0.1638 C   0  0  0  0  0  0  0  0  0  0  0  0
   -2.3496    0.1741    0.3189 C   0  0  0  0  0  0  0  0  0  0  0  0
   -1.6476    1.2726    1.1329 C   0  0  0  0  0  0  0  0  0  0  0  0
   -1.1224    0.6530    2.4375 C   0  0  0  0  0  0  0  0  0  0  0  0
    0.0578   -0.2359    1.9548 C   0  0  0  0  0  0  0  0  0  0  0  0
    0.0610   -0.0142    0.4340 C   0  0  0  0  0  0  0  0  0  0  0  0
   -0.3487    1.4616    0.3378 C   0  0  0  0  0  0  0  0  0  0  0  0
   -1.1124   -0.7332   -1.2535 H   0  0  0  0  0  0  0  0  0  0  0  0
   -1.2537   -1.7481    0.1758 H   0  0  0  0  0  0  0  0  0  0  0  0
   -3.0739   -0.3774    0.9202 H   0  0  0  0  0  0  0  0  0  0  0  0
   -2.8882    0.6042   -0.5272 H   0  0  0  0  0  0  0  0  0  0  0  0
   -2.2541    2.1648    1.2825 H   0  0  0  0  0  0  0  0  0  0  0  0
   -1.8945    0.0828    2.9564 H   0  0  0  0  0  0  0  0  0  0  0  0
   -0.7747    1.4288    3.1217 H   0  0  0  0  0  0  0  0  0  0  0  0
    1.0010    0.0915    2.3954 H   0  0  0  0  0  0  0  0  0  0  0  0
   -0.0744   -1.2879    2.2120 H   0  0  0  0  0  0  0  0  0  0  0  0
    0.3586    2.1374    0.8228 H   0  0  0  0  0  0  0  0  0  0  0  0
   -0.5165    1.7960   -0.6880 H   0  0  0  0  0  0  0  0  0  0  0  0
  1  2  2  3
  1  4  1  0
  1  5  1  0
  2  3  1  0
  2  6  1  0
  3  8  1  0
  3  9  1  0
  7 15  1  0
 10 11  1  0
 10 15  1  0
 10 17  1  0
 10 18  1  0
 11 12  1  0
 11 19  1  0
 11 20  1  0
 12 13  1  0
 12 16  1  0
 12 21  1  0
 13 14  1  0
 13 22  1  0
 13 23  1  0
 14 15  1  0
 14 24  1  0
 14 25  1  0
 15 16  1  0
 16 26  1  0
 16 27  1  0
M  RAD  1   3   2
M  END
>  <reaction>  (13) 
rxn_742

>  <mol_properties>  (13) 
{"1": {"label": "*0", "atom_type": "Cd"}, "2": {"label": "*1", "atom_type": "Cs"}, "6": {"label": "*2", "atom_type": "H0"}, "14": {"label": "*3", "atom_type": "Cs"}, "15": {"label": "*4", "atom_type": "Cs"}}

>  <type>  (13) 
unop_9

>  <geom_source>  (13) 
Heuristics

$$$$

     RDKit          3D

 27 27  0  0  0  0  0  0  0  0999 V2000
    1.8747   -1.1976   -3.6563 C   0  0  0  0  0  0  0  0  0  0  0  0
    1.8747   -1.1976   -2.3326 C   0  0  0  0  0  0  0  0  0  0  0  0
    1.8747    0.0246   -1.4720 C   0  0  0  0  0  3  0  0  0  0  0  0
    1.8747   -2.1203   -4.2228 H   0  0  0  0  0  0  0  0  0  0  0  0
    1.8747   -0.2720   -4.2223 H   0  0  0  0  0  0  0  0  0  0  0  0
    1.8747   -2.1502   -1.8090 H   0  0  0  0  0  0  0  0  0  0  0  0
    0.8214    0.0451   -0.6906 H   0  0  0  0  0  0  0  0  0  0  0  0
    1.8747    0.9350   -2.0726 H   0  0  0  0  0  0  0  0  0  0  0  0
    2.7524    0.0417   -0.8208 H   0  0  0  0  0  0  0  0  0  0  0  0
   -0.3186   -1.1378    1.0398 C   0  0  0  0  0  0  0  0  0  0  0  0
   -1.4226   -0.7083    2.0461 C   0  0  0  0  0  0  0  0  0  0  0  0
   -1.8264    0.6873    1.5450 C   0  0  0  0  0  0  0  0  0  0  0  0
   -0.6801    1.6651    1.8479 C   0  0  0  0  0  0  0  0  0  0  0  0
    0.4239    1.2356    0.8416 C   0  0  0  0  0  0  0  0  0  0  0  0
   -0.2281    0.0656    0.0881 C   0  0  0  0  0  0  0  0  0  0  0  0
   -1.6930    0.5187    0.0256 C   0  0  0  0  0  0  0  0  0  0  0  0
   -0.6111   -2.0385    0.4976 H   0  0  0  0  0  0  0  0  0  0  0  0
    0.6364   -1.3450    1.5251 H   0  0  0  0  0  0  0  0  0  0  0  0
   -1.0662   -0.6827    3.0770 H   0  0  0  0  0  0  0  0  0  0  0  0
   -2.2722   -1.3924    2.0117 H   0  0  0  0  0  0  0  0  0  0  0  0
   -2.7973    1.0214    1.9085 H   0  0  0  0  0  0  0  0  0  0  0  0
   -0.3526    1.5983    2.8865 H   0  0  0  0  0  0  0  0  0  0  0  0
   -0.9933    2.6952    1.6704 H   0  0  0  0  0  0  0  0  0  0  0  0
    0.6678    2.0491    0.1562 H   0  0  0  0  0  0  0  0  0  0  0  0
    1.3500    0.9360    1.3346 H   0  0  0  0  0  0  0  0  0  0  0  0
   -1.8322    1.4512   -0.5251 H   0  0  0  0  0  0  0  0  0  0  0  0
   -2.3617   -0.2413   -0.3838 H   0  0  0  0  0  0  0  0  0  0  0  0
  1  2  2  3
  1  4  1  0
  1  5  1  0
  2  3  1  0
  2  6  1  0
  3  8  1  0
  3  9  1  0
  7 15  1  0
 10 11  1  0
 10 15  1  0
 10 17  1  0
 10 18  1  0
 11 12  1  0
 11 19  1  0
 11 20  1  0
 12 13  1  0
 12 16  1  0
 12 21  1  0
 13 14  1  0
 13 22  1  0
 13 23  1  0
 14 15  1  0
 14 24  1  0
 14 25  1  0
 15 16  1  0
 16 26  1  0
 16 27  1  0
M  RAD  1   3   2
M  END
>  <reaction>  (14) 
rxn_742

>  <mol_properties>  (14) 
{"1": {"label": "*0", "atom_type": "Cd"}, "2": {"label": "*1", "atom_type": "Cs"}, "6": {"label": "*2", "atom_type": "H0"}, "14": {"label": "*3", "atom_type": "Cs"}, "15": {"label": "*4", "atom_type": "Cs"}}

>  <type>  (14) 
unop_10

>  <geom_source>  (14) 
Heuristics

$$$$

     RDKit          3D

 27 27  0  0  0  0  0  0  0  0999 V2000
    1.7606   -1.0486   -3.7351 C   0  0  0  0  0  0  0  0  0  0  0  0
    1.7606   -1.0486   -2.4114 C   0  0  0  0  0  0  0  0  0  0  0  0
    1.7606    0.1736   -1.5509 C   0  0  0  0  0  3  0  0  0  0  0  0
    1.7606   -1.9713   -4.3016 H   0  0  0  0  0  0  0  0  0  0  0  0
    1.7606   -0.1230   -4.3011 H   0  0  0  0  0  0  0  0  0  0  0  0
    1.7606   -2.0012   -1.8879 H   0  0  0  0  0  0  0  0  0  0  0  0
    0.7073    0.1942   -0.7694 H   0  0  0  0  0  0  0  0  0  0  0  0
    1.7606    1.0841   -2.1515 H   0  0  0  0  0  0  0  0  0  0  0  0
    2.6383    0.1907   -0.8997 H   0  0  0  0  0  0  0  0  0  0  0  0
   -0.8281    1.6300    0.3591 C   0  0  0  0  0  0  0  0  0  0  0  0
   -0.9768    1.5788    1.9055 C   0  0  0  0  0  0  0  0  0  0  0  0
   -0.5575    0.1405    2.2480 C   0  0  0  0  0  0  0  0  0  0  0  0
   -1.6563   -0.8172    1.7609 C   0  0  0  0  0  0  0  0  0  0  0  0
   -1.5076   -0.7660    0.2145 C   0  0  0  0  0  0  0  0  0  0  0  0
   -0.3422    0.2146    0.0093 C   0  0  0  0  0  0  0  0  0  0  0  0
    0.5493   -0.1110    1.2152 C   0  0  0  0  0  0  0  0  0  0  0  0
   -0.0906    2.3770    0.0606 H   0  0  0  0  0  0  0  0  0  0  0  0
   -1.7635    1.8753   -0.1462 H   0  0  0  0  0  0  0  0  0  0  0  0
   -1.9928    1.7963    2.2385 H   0  0  0  0  0  0  0  0  0  0  0  0
   -0.3144    2.2999    2.3873 H   0  0  0  0  0  0  0  0  0  0  0  0
   -0.2820   -0.0006    3.2923 H   0  0  0  0  0  0  0  0  0  0  0  0
   -2.6459   -0.5065    2.0995 H   0  0  0  0  0  0  0  0  0  0  0  0
   -1.4846   -1.8267    2.1381 H   0  0  0  0  0  0  0  0  0  0  0  0
   -1.2609   -1.7497   -0.1885 H   0  0  0  0  0  0  0  0  0  0  0  0
   -2.4165   -0.4276   -0.2852 H   0  0  0  0  0  0  0  0  0  0  0  0
    0.9134   -1.1404    1.2161 H   0  0  0  0  0  0  0  0  0  0  0  0
    1.3979    0.5682    1.3193 H   0  0  0  0  0  0  0  0  0  0  0  0
  1  2  2  3
  1  4  1  0
  1  5  1  0
  2  3  1  0
  2  6  1  0
  3  8  1  0
  3  9  1  0
  7 15  1  0
 10 11  1  0
 10 15  1  0
 10 17  1  0
 10 18  1  0
 11 12  1  0
 11 19  1  0
 11 20  1  0
 12 13  1  0
 12 16  1  0
 12 21  1  0
 13 14  1  0
 13 22  1  0
 13 23  1  0
 14 15  1  0
 14 24  1  0
 14 25  1  0
 15 16  1  0
 16 26  1  0
 16 27  1  0
M  RAD  1   3   2
M  END
>  <reaction>  (15) 
rxn_742

>  <mol_properties>  (15) 
{"1": {"label": "*0", "atom_type": "Cd"}, "2": {"label": "*1", "atom_type": "Cs"}, "6": {"label": "*2", "atom_type": "H0"}, "14": {"label": "*3", "atom_type": "Cs"}, "15": {"label": "*4", "atom_type": "Cs"}}

>  <type>  (15) 
unop_11

>  <geom_source>  (15) 
Heuristics

$$$$

     RDKit          3D

 27 27  0  0  0  0  0  0  0  0999 V2000
    2.1440   -1.0772   -3.4269 C   0  0  0  0  0  0  0  0  0  0  0  0
    2.1440   -1.0772   -2.1032 C   0  0  0  0  0  0  0  0  0  0  0  0
    2.1440    0.1449   -1.2427 C   0  0  0  0  0  3  0  0  0  0  0  0
    2.1440   -2.0000   -3.9934 H   0  0  0  0  0  0  0  0  0  0  0  0
    2.1440   -0.1516   -3.9929 H   0  0  0  0  0  0  0  0  0  0  0  0
    2.1440   -2.0299   -1.5796 H   0  0  0  0  0  0  0  0  0  0  0  0
    1.0907    0.1655   -0.4612 H   0  0  0  0  0  0  0  0  0  0  0  0
    2.1440    1.0554   -1.8432 H   0  0  0  0  0  0  0  0  0  0  0  0
    3.0217    0.1621   -0.5914 H   0  0  0  0  0  0  0  0  0  0  0  0
   -0.8871   -1.0260    0.1402 C   0  0  0  0  0  0  0  0  0  0  0  0
   -2.2266   -0.5367    0.7585 C   0  0  0  0  0  0  0  0  0  0  0  0
   -1.8980    0.8943    1.2126 C   0  0  0  0  0  0  0  0  0  0  0  0
   -0.9612    0.8174    2.4284 C   0  0  0  0  0  0  0  0  0  0  0  0
    0.3784    0.3281    1.8101 C   0  0  0  0  0  0  0  0  0  0  0  0
    0.0412    0.1859    0.3175 C   0  0  0  0  0  0  0  0  0  0  0  0
   -0.9338    1.3527    0.1103 C   0  0  0  0  0  0  0  0  0  0  0  0
   -1.0086   -1.2687   -0.9168 H   0  0  0  0  0  0  0  0  0  0  0  0
   -0.4941   -1.9150    0.6358 H   0  0  0  0  0  0  0  0  0  0  0  0
   -2.5599   -1.1604    1.5893 H   0  0  0  0  0  0  0  0  0  0  0  0
   -3.0240   -0.5325    0.0135 H   0  0  0  0  0  0  0  0  0  0  0  0
   -2.7767    1.5177    1.3729 H   0  0  0  0  0  0  0  0  0  0  0  0
   -1.3437    0.1410    3.1943 H   0  0  0  0  0  0  0  0  0  0  0  0
   -0.8446    1.7996    2.8896 H   0  0  0  0  0  0  0  0  0  0  0  0
    1.1708    1.0634    1.9593 H   0  0  0  0  0  0  0  0  0  0  0  0
    0.7221   -0.6136    2.2408 H   0  0  0  0  0  0  0  0  0  0  0  0
   -0.4859    2.3286    0.3083 H   0  0  0  0  0  0  0  0  0  0  0  0
   -1.3883    1.3630   -0.8826 H   0  0  0  0  0  0  0  0  0  0  0  0
  1  2  2  3
  1  4  1  0
  1  5  1  0
  2  3  1  0
  2  6  1  0
  3  8  1  0
  3  9  1  0
  7 15  1  0
 10 11  1  0
 10 15  1  0
 10 17  1  0
 10 18  1  0
 11 12  1  0
 11 19  1  0
 11 20  1  0
 12 13  1  0
 12 16  1  0
 12 21  1  0
 13 14  1  0
 13 22  1  0
 13 23  1  0
 14 15  1  0
 14 24  1  0
 14 25  1  0
 15 16  1  0
 16 26  1  0
 16 27  1  0
M  RAD  1   3   2
M  END
>  <reaction>  (16) 
rxn_742

>  <mol_properties>  (16) 
{"1": {"label": "*0", "atom_type": "Cd"}, "2": {"label": "*1", "atom_type": "Cs"}, "6": {"label": "*2", "atom_type": "H0"}, "14": {"label": "*3", "atom_type": "Cs"}, "15": {"label": "*4", "atom_type": "Cs"}}

>  <type>  (16) 
unop_12

>  <geom_source>  (16) 
Heuristics

$$$$

     RDKit          3D

 27 26  0  0  0  0  0  0  0  0999 V2000
   -2.2060    0.1484    1.0188 C   0  0  0  0  0  0  0  0  0  0  0  0
   -0.2171    0.2916    0.0506 C   0  0  0  0  0  0  0  0  0  0  0  0
   -0.8261    0.6401    1.3882 C   0  0  0  0  0  0  0  0  0  0  0  0
   -2.5036    0.9682   -0.2497 C   0  0  0  0  0  0  0  0  0  0  0  0
   -1.9222   -1.3079    0.6081 C   0  0  0  0  0  0  0  0  0  0  0  0
   -1.1235    1.0673   -0.9211 C   0  0  0  0  0  0  0  0  0  0  0  0
   -0.5422   -1.2080   -0.0635 C   0  0  0  0  0  0  0  0  0  0  0  0
    3.4269   -0.2286   -0.9269 C   0  0  0  0  0  3  0  0  0  0  0  0
    2.1963    0.6156   -0.8384 C   0  0  0  0  0  2  0  0  0  0  0  0
    4.0563   -0.6368    0.1760 C   0  0  0  0  0  0  0  0  0  0  0  0
   -2.9682    0.2555    1.8199 H   0  0  0  0  0  0  0  0  0  0  0  0
    1.0687    0.5774   -0.0626 H   0  0  0  0  0  0  0  0  0  0  0  0
   -0.3722    0.0733    2.2340 H   0  0  0  0  0  0  0  0  0  0  0  0
   -0.7961    1.7324    1.6087 H   0  0  0  0  0  0  0  0  0  0  0  0
   -3.2480    0.4677   -0.9070 H   0  0  0  0  0  0  0  0  0  0  0  0
   -2.8779    1.9793    0.0241 H   0  0  0  0  0  0  0  0  0  0  0  0
   -2.6930   -1.7047   -0.0883 H   0  0  0  0  0  0  0  0  0  0  0  0
   -1.8717   -1.9592    1.5084 H   0  0  0  0  0  0  0  0  0  0  0  0
   -1.1255    0.6206   -1.9393 H   0  0  0  0  0  0  0  0  0  0  0  0
   -0.7953    2.1278   -0.9865 H   0  0  0  0  0  0  0  0  0  0  0  0
    0.2098   -1.8063    0.4963 H   0  0  0  0  0  0  0  0  0  0  0  0
   -0.5706   -1.5513   -1.1207 H   0  0  0  0  0  0  0  0  0  0  0  0
    3.8200   -0.5021   -1.9016 H   0  0  0  0  0  0  0  0  0  0  0  0
    1.3854    0.0532   -0.3291 H   0  0  0  0  0  0  0  0  0  0  0  0
    1.8583    0.9011   -1.8565 H   0  0  0  0  0  0  0  0  0  0  0  0
    4.9521   -1.2442    0.0968 H   0  0  0  0  0  0  0  0  0  0  0  0
    3.6855   -0.3702    1.1614 H   0  0  0  0  0  0  0  0  0  0  0  0
  1  4  1  0
  1  5  1  0
  1  3  1  0
  1 11  1  0
  2  6  1  0
  2  7  1  0
  2  3  1  0
  2 12  1  0
  3 13  1  0
  3 14  1  0
  4  6  1  0
  4 15  1  0
  4 16  1  0
  5  7  1  0
  5 17  1  0
  5 18  1  0
  6 19  1  0
  6 20  1  0
  7 21  1  0
  7 22  1  0
  8 10  2  3
  8 23  1  0
  9 24  1  0
  9 25  1  0
 10 26  1  0
 10 27  1  0
M  RAD  2   8   2   9   3
M  END
>  <reaction>  (17) 
rxn_742

>  <mol_properties>  (17) 
{"1": {"label": "*0", "atom_type": "Cd"}, "2": {"label": "*1", "atom_type": "Cs"}, "6": {"label": "*2", "atom_type": "H0"}, "14": {"label": "*3", "atom_type": "Cs"}, "15": {"label": "*4", "atom_type": "Cs"}}

>  <type>  (17) 
unop_13

>  <geom_source>  (17) 
AutoTST

$$$$

     RDKit          3D

 27 27  0  0  0  0  0  0  0  0999 V2000
    2.0007   -1.0456   -3.5908 C   0  0  0  0  0  0  0  0  0  0  0  0
    2.0007   -1.0456   -2.2670 C   0  0  0  0  0  0  0  0  0  0  0  0
    2.0007    0.1766   -1.4065 C   0  0  0  0  0  3  0  0  0  0  0  0
    2.0007   -1.9683   -4.1573 H   0  0  0  0  0  0  0  0  0  0  0  0
    2.0007   -0.1200   -4.1568 H   0  0  0  0  0  0  0  0  0  0  0  0
    2.0007   -1.9982   -1.7435 H   0  0  0  0  0  0  0  0  0  0  0  0
    0.9475    0.1971   -0.6251 H   0  0  0  0  0  0  0  0  0  0  0  0
    2.0007    1.0871   -2.0071 H   0  0  0  0  0  0  0  0  0  0  0  0
    2.8784    0.1937   -0.7553 H   0  0  0  0  0  0  0  0  0  0  0  0
   -0.6131   -1.1784    0.5435 C   0  0  0  0  0  0  0  0  0  0  0  0
   -1.8536   -0.8651    1.4262 C   0  0  0  0  0  0  0  0  0  0  0  0
   -1.8979    0.6711    1.4316 C   0  0  0  0  0  0  0  0  0  0  0  0
   -0.7266    1.1900    2.2806 C   0  0  0  0  0  0  0  0  0  0  0  0
    0.5138    0.8768    1.3978 C   0  0  0  0  0  0  0  0  0  0  0  0
   -0.1021    0.2176    0.1536 C   0  0  0  0  0  0  0  0  0  0  0  0
   -1.4162    0.9973    0.0115 C   0  0  0  0  0  0  0  0  0  0  0  0
   -0.8966   -1.7480   -0.3431 H   0  0  0  0  0  0  0  0  0  0  0  0
    0.1460   -1.7559    1.0732 H   0  0  0  0  0  0  0  0  0  0  0  0
   -1.7670   -1.2729    2.4345 H   0  0  0  0  0  0  0  0  0  0  0  0
   -2.7629   -1.2767    0.9850 H   0  0  0  0  0  0  0  0  0  0  0  0
   -2.8649    1.0824    1.7179 H   0  0  0  0  0  0  0  0  0  0  0  0
   -0.6838    0.7023    3.2556 H   0  0  0  0  0  0  0  0  0  0  0  0
   -0.8219    2.2628    2.4564 H   0  0  0  0  0  0  0  0  0  0  0  0
    1.0444    1.7915    1.1283 H   0  0  0  0  0  0  0  0  0  0  0  0
    1.2291    0.2193    1.8943 H   0  0  0  0  0  0  0  0  0  0  0  0
   -1.2669    2.0656   -0.1578 H   0  0  0  0  0  0  0  0  0  0  0  0
   -2.0706    0.6000   -0.7671 H   0  0  0  0  0  0  0  0  0  0  0  0
  1  2  2  3
  1  4  1  0
  1  5  1  0
  2  3  1  0
  2  6  1  0
  3  8  1  0
  3  9  1  0
  7 15  1  0
 10 11  1  0
 10 15  1  0
 10 17  1  0
 10 18  1  0
 11 12  1  0
 11 19  1  0
 11 20  1  0
 12 13  1  0
 12 16  1  0
 12 21  1  0
 13 14  1  0
 13 22  1  0
 13 23  1  0
 14 15  1  0
 14 24  1  0
 14 25  1  0
 15 16  1  0
 16 26  1  0
 16 27  1  0
M  RAD  1   3   2
M  END
>  <reaction>  (18) 
rxn_742

>  <mol_properties>  (18) 
{"1": {"label": "*0", "atom_type": "Cd"}, "2": {"label": "*1", "atom_type": "Cs"}, "6": {"label": "*2", "atom_type": "H0"}, "14": {"label": "*3", "atom_type": "Cs"}, "15": {"label": "*4", "atom_type": "Cs"}}

>  <type>  (18) 
unop_14

>  <geom_source>  (18) 
gaussian_log

$$$$
