
     RDKit          3D

 18 18  0  0  0  0  0  0  0  0999 V2000
   -2.4852    0.3210   -0.3966 C   0  0  0  0  0  0  0  0  0  0  0  0
   -1.5917   -0.2708    0.6941 C   0  0  0  0  0  0  0  0  0  0  0  0
   -0.1292   -0.1692    0.3493 C   0  0  0  0  0  0  0  0  0  0  0  0
    0.6099    0.9558    0.7015 C   0  0  0  0  0  0  0  0  0  0  0  0
    1.9447    1.0728    0.3458 C   0  0  0  0  0  0  0  0  0  0  0  0
    2.5646    0.0613   -0.3720 C   0  0  0  0  0  0  0  0  0  0  0  0
    1.8399   -1.0657   -0.7287 C   0  0  0  0  0  0  0  0  0  0  0  0
    0.5055   -1.1769   -0.3700 C   0  0  0  0  0  0  0  0  0  0  0  0
   -2.3325   -0.1971   -1.3452 H   0  0  0  0  0  0  0  0  0  0  0  0
   -2.2554    1.3763   -0.5546 H   0  0  0  0  0  0  0  0  0  0  0  0
   -3.5397    0.2376   -0.1280 H   0  0  0  0  0  0  0  0  0  0  0  0
   -1.7801    0.2462    1.6380 H   0  0  0  0  0  0  0  0  0  0  0  0
   -1.8568   -1.3190    0.8516 H   0  0  0  0  0  0  0  0  0  0  0  0
    0.1327    1.7497    1.2656 H   0  0  0  0  0  0  0  0  0  0  0  0
    2.5033    1.9550    0.6330 H   0  0  0  0  0  0  0  0  0  0  0  0
    3.6077    0.1491   -0.6484 H   0  0  0  0  0  0  0  0  0  0  0  0
    2.3163   -1.8632   -1.2854 H   0  0  0  0  0  0  0  0  0  0  0  0
   -0.0540   -2.0629   -0.6500 H   0  0  0  0  0  0  0  0  0  0  0  0
  1  2  1  0
  1  9  1  0
  1 10  1  0
  1 11  1  0
  2  3  1  0
  2 12  1  0
  2 13  1  0
  3  4  2  0
  3  8  1  0
  4  5  1  0
  4 14  1  0
  5  6  2  0
  5 15  1  0
  6  7  1  0
  6 16  1  0
  7  8  2  0
  7 17  1  0
  8 18  1  0
M  END
>  <reaction>  (1) 
rxn_1500

>  <mol_properties>  (1) 
{"1": {"label": "donator", "atom_type": "Cs"}, "11": {"label": "d_hydrogen", "atom_type": "H0"}}

>  <type>  (1) 
r1h

$$$$

     RDKit          3D

  8  7  0  0  0  0  0  0  0  0999 V2000
   -1.0607    0.1793   -0.1423 C   0  0  0  0  0  0  0  0  0  0  0  0
    0.2796    0.0327    0.4820 C   0  0  0  0  0  3  0  0  0  0  0  0
    0.8817   -1.4663    1.0791 S   0  0  0  0  0  0  0  0  0  0  0  0
   -1.3043    1.2328   -0.2850 H   0  0  0  0  0  0  0  0  0  0  0  0
   -1.8444   -0.2641    0.4799 H   0  0  0  0  0  0  0  0  0  0  0  0
   -1.1164   -0.3100   -1.1237 H   0  0  0  0  0  0  0  0  0  0  0  0
    1.0449    0.7826    0.3391 H   0  0  0  0  0  0  0  0  0  0  0  0
   -0.2993   -2.0726    1.2718 H   0  0  0  0  0  0  0  0  0  0  0  0
  1  2  1  0
  1  4  1  0
  1  5  1  0
  1  6  1  0
  2  3  1  0
  2  7  1  0
  3  8  1  0
M  RAD  1   2   2
M  END
>  <reaction>  (2) 
rxn_1500

>  <mol_properties>  (2) 
{"1": {"label": "acceptor", "atom_type": "Cs"}}

>  <type>  (2) 
r2

$$$$

     RDKit          3D

  9  8  0  0  0  0  0  0  0  0999 V2000
   -0.8818   -0.3578    0.1297 C   0  0  0  0  0  0  0  0  0  0  0  0
    0.6153   -0.3021   -0.1188 C   0  0  0  0  0  0  0  0  0  0  0  0
    1.5354   -1.7170    0.5545 S   0  0  0  0  0  0  0  0  0  0  0  0
   -1.1018   -0.3317    1.1984 H   0  0  0  0  0  0  0  0  0  0  0  0
   -1.3114   -1.2723   -0.2799 H   0  0  0  0  0  0  0  0  0  0  0  0
   -1.3767    0.4976   -0.3363 H   0  0  0  0  0  0  0  0  0  0  0  0
    1.0467    0.6194    0.2718 H   0  0  0  0  0  0  0  0  0  0  0  0
    0.8295   -0.3275   -1.1882 H   0  0  0  0  0  0  0  0  0  0  0  0
    1.2306   -1.5077    1.8423 H   0  0  0  0  0  0  0  0  0  0  0  0
  1  2  1  0
  1  4  1  0
  1  5  1  0
  1  6  1  0
  2  3  1  0
  2  7  1  0
  2  8  1  0
  3  9  1  0
M  END
>  <reaction>  (3) 
rxn_1500

>  <mol_properties>  (3) 
{"1": {"label": "acceptor", "atom_type": "Cs"}, "8": {"label": "a_hydrogen", "atom_type": "H0"}}

>  <type>  (3) 
r2h

$$$$

     RDKit          3D

 26 25  0  0  0  0  0  0  0  0999 V2000
   -1.6659   -1.8855   -0.1970 C   0  0  0  0  0  0  0  0  0  0  0  0
   -0.3421   -2.4919    0.1812 C   0  0  0  0  0  3  0  0  0  0  0  0
    0.1171   -2.4649    1.8923 S   0  0  0  0  0  0  0  0  0  0  0  0
   -1.8159   -1.9469   -1.2770 H   0  0  0  0  0  0  0  0  0  0  0  0
   -1.7024   -0.8313    0.0872 H   0  0  0  0  0  0  0  0  0  0  0  0
   -2.4987   -2.3969    0.2937 H   0  0  0  0  0  0  0  0  0  0  0  0
   -0.1698   -3.4949   -0.2054 H   0  0  0  0  0  0  0  0  0  0  0  0
   -0.1409   -1.1652    2.1022 H   0  0  0  0  0  0  0  0  0  0  0  0
    1.1214   -1.1345   -2.5947 C   0  0  0  0  0  0  0  0  0  0  0  0
    1.3633   -0.8696   -1.1295 C   0  0  0  0  0  0  0  0  0  0  0  0
    0.9976    0.4379   -0.5604 C   0  0  0  0  0  0  0  0  0  0  0  0
    0.0699    1.2892   -1.1673 C   0  0  0  0  0  0  0  0  0  0  0  0
   -0.3096    2.4780   -0.5646 C   0  0  0  0  0  0  0  0  0  0  0  0
    0.2246    2.8468    0.6606 C   0  0  0  0  0  0  0  0  0  0  0  0
    1.1513    2.0154    1.2758 C   0  0  0  0  0  0  0  0  0  0  0  0
    1.5321    0.8302    0.6730 C   0  0  0  0  0  0  0  0  0  0  0  0
    1.6691   -0.4305   -3.2284 H   0  0  0  0  0  0  0  0  0  0  0  0
    0.0634   -1.0531   -2.8534 H   0  0  0  0  0  0  0  0  0  0  0  0
    1.4444   -2.1424   -2.8576 H   0  0  0  0  0  0  0  0  0  0  0  0
    0.5868   -1.7183   -0.4915 H   0  0  0  0  0  0  0  0  0  0  0  0
    2.3397   -1.2098   -0.7854 H   0  0  0  0  0  0  0  0  0  0  0  0
   -0.3602    1.0229   -2.1244 H   0  0  0  0  0  0  0  0  0  0  0  0
   -1.0277    3.1219   -1.0574 H   0  0  0  0  0  0  0  0  0  0  0  0
   -0.0727    3.7760    1.1295 H   0  0  0  0  0  0  0  0  0  0  0  0
    1.5828    2.2959    2.2288 H   0  0  0  0  0  0  0  0  0  0  0  0
    2.2548    0.1855    1.1600 H   0  0  0  0  0  0  0  0  0  0  0  0
  1  2  1  0
  1  4  1  0
  1  5  1  0
  1  6  1  0
  2  3  1  0
  2  7  1  0
  3  8  1  0
  9 10  1  0
  9 17  1  0
  9 18  1  0
  9 19  1  0
 10 11  1  0
 10 20  1  0
 10 21  1  0
 11 12  2  0
 11 16  1  0
 12 13  1  0
 12 22  1  0
 13 14  2  0
 13 23  1  0
 14 15  1  0
 14 24  1  0
 15 16  2  0
 15 25  1  0
 16 26  1  0
M  RAD  1   2   2
M  END
>  <reaction>  (4) 
rxn_1500

>  <mol_properties>  (4) 
{"1": {"label": "*3", "atom_type": "Cs"}, "2": {"label": "*4", "atom_type": "S2s"}, "9": {"label": "*1", "atom_type": "Cs"}, "10": {"label": "*0", "atom_type": "Cd"}, "19": {"label": "*2", "atom_type": "H0"}}

>  <type>  (4) 
ts

$$$$

     RDKit          3D

 26 25  0  0  0  0  0  0  0  0999 V2000
   -0.6294   -3.1507    1.0844 C   0  0  0  0  0  0  0  0  0  0  0  0
   -1.0320   -1.9587    0.2340 C   0  0  0  0  0  0  0  0  0  0  0  0
   -2.7549   -2.0022   -0.3417 S   0  0  0  0  0  0  0  0  0  0  0  0
    0.4010   -3.0401    1.4307 H   0  0  0  0  0  0  0  0  0  0  0  0
   -0.6936   -4.0782    0.5126 H   0  0  0  0  0  0  0  0  0  0  0  0
   -1.2793   -3.2464    1.9546 H   0  0  0  0  0  0  0  0  0  0  0  0
   -0.9651   -1.0345    0.8099 H   0  0  0  0  0  0  0  0  0  0  0  0
   -2.6535   -3.1255   -1.0650 H   0  0  0  0  0  0  0  0  0  0  0  0
    1.0693   -0.6603   -2.1655 C   0  0  0  0  0  0  0  0  0  0  0  0
    1.0693   -0.6603   -0.6364 C   0  0  0  0  0  0  0  0  0  0  0  0
    1.0693    0.7340   -0.0670 C   0  0  0  0  0  0  0  0  0  0  0  0
   -0.1253    1.4029    0.1807 C   0  0  0  0  0  3  0  0  0  0  0  0
   -0.1286    2.7032    0.6617 C   0  0  0  0  0  0  0  0  0  0  0  0
    1.0693    3.3585    0.9035 C   0  0  0  0  0  0  0  0  0  0  0  0
    2.2671    2.7032    0.6617 C   0  0  0  0  0  0  0  0  0  0  0  0
    2.2638    1.4029    0.1807 C   0  0  0  0  0  0  0  0  0  0  0  0
    1.9505   -0.1452   -2.5524 H   0  0  0  0  0  0  0  0  0  0  0  0
    0.1880   -0.1452   -2.5524 H   0  0  0  0  0  0  0  0  0  0  0  0
    1.0693   -1.6787   -2.5578 H   0  0  0  0  0  0  0  0  0  0  0  0
    0.0173   -1.3103   -0.2007 H   0  0  0  0  0  0  0  0  0  0  0  0
    1.9459   -1.2020   -0.2733 H   0  0  0  0  0  0  0  0  0  0  0  0
   -1.0662    0.8958   -0.0030 H   0  0  0  0  0  0  0  0  0  0  0  0
   -1.0693    3.2049    0.8516 H   0  0  0  0  0  0  0  0  0  0  0  0
    1.0693    4.3729    1.2818 H   0  0  0  0  0  0  0  0  0  0  0  0
    3.2078    3.2049    0.8516 H   0  0  0  0  0  0  0  0  0  0  0  0
    3.2047    0.8958   -0.0030 H   0  0  0  0  0  0  0  0  0  0  0  0
  1  2  1  0
  1  4  1  0
  1  5  1  0
  1  6  1  0
  2  3  1  0
  2  7  1  0
  2 20  1  0
  3  8  1  0
  9 10  1  0
  9 17  1  0
  9 18  1  0
  9 19  1  0
 10 11  2  3
 10 21  1  0
 11 12  1  0
 11 16  1  0
 12 13  1  0
 12 22  1  0
 13 14  2  0
 13 23  1  0
 14 15  1  0
 14 24  1  0
 15 16  2  0
 15 25  1  0
 16 26  1  0
M  RAD  1  12   2
M  END
>  <reaction>  (5) 
rxn_1500

>  <mol_properties>  (5) 
{"1": {"label": "*3", "atom_type": "Cs"}, "2": {"label": "*4", "atom_type": "S2s"}, "9": {"label": "*1", "atom_type": "Cs"}, "10": {"label": "*0", "atom_type": "Cd"}, "19": {"label": "*2", "atom_type": "H0"}}

>  <type>  (5) 
unop_1

>  <geom_source>  (5) 
Heuristics

$$$$

     RDKit          3D

 26 25  0  0  0  0  0  0  0  0999 V2000
   -1.4358   -3.2391   -0.8347 C   0  0  0  0  0  0  0  0  0  0  0  0
   -1.0195   -2.1499    0.1384 C   0  0  0  0  0  0  0  0  0  0  0  0
   -2.4091   -1.2823    0.9246 S   0  0  0  0  0  0  0  0  0  0  0  0
   -0.5557   -3.7463   -1.2369 H   0  0  0  0  0  0  0  0  0  0  0  0
   -1.9949   -2.8207   -1.6736 H   0  0  0  0  0  0  0  0  0  0  0  0
   -2.0688   -3.9791   -0.3444 H   0  0  0  0  0  0  0  0  0  0  0  0
   -0.4604   -2.5733    0.9741 H   0  0  0  0  0  0  0  0  0  0  0  0
   -2.9391   -0.7788   -0.1982 H   0  0  0  0  0  0  0  0  0  0  0  0
    1.0817   -0.8516   -2.2611 C   0  0  0  0  0  0  0  0  0  0  0  0
    1.0817   -0.8516   -0.7320 C   0  0  0  0  0  0  0  0  0  0  0  0
    1.0817    0.5427   -0.1626 C   0  0  0  0  0  0  0  0  0  0  0  0
   -0.1128    1.2116    0.0851 C   0  0  0  0  0  3  0  0  0  0  0  0
   -0.1161    2.5119    0.5661 C   0  0  0  0  0  0  0  0  0  0  0  0
    1.0817    3.1672    0.8079 C   0  0  0  0  0  0  0  0  0  0  0  0
    2.2795    2.5119    0.5661 C   0  0  0  0  0  0  0  0  0  0  0  0
    2.2762    1.2116    0.0851 C   0  0  0  0  0  0  0  0  0  0  0  0
    1.9630   -0.3365   -2.6480 H   0  0  0  0  0  0  0  0  0  0  0  0
    0.2004   -0.3365   -2.6480 H   0  0  0  0  0  0  0  0  0  0  0  0
    1.0817   -1.8700   -2.6534 H   0  0  0  0  0  0  0  0  0  0  0  0
    0.0298   -1.5016   -0.2963 H   0  0  0  0  0  0  0  0  0  0  0  0
    1.9584   -1.3932   -0.3689 H   0  0  0  0  0  0  0  0  0  0  0  0
   -1.0537    0.7045   -0.0986 H   0  0  0  0  0  0  0  0  0  0  0  0
   -1.0569    3.0136    0.7560 H   0  0  0  0  0  0  0  0  0  0  0  0
    1.0817    4.1816    1.1862 H   0  0  0  0  0  0  0  0  0  0  0  0
    3.2203    3.0136    0.7560 H   0  0  0  0  0  0  0  0  0  0  0  0
    3.2171    0.7045   -0.0986 H   0  0  0  0  0  0  0  0  0  0  0  0
  1  2  1  0
  1  4  1  0
  1  5  1  0
  1  6  1  0
  2  3  1  0
  2  7  1  0
  2 20  1  0
  3  8  1  0
  9 10  1  0
  9 17  1  0
  9 18  1  0
  9 19  1  0
 10 11  2  3
 10 21  1  0
 11 12  1  0
 11 16  1  0
 12 13  1  0
 12 22  1  0
 13 14  2  0
 13 23  1  0
 14 15  1  0
 14 24  1  0
 15 16  2  0
 15 25  1  0
 16 26  1  0
M  RAD  1  12   2
M  END
>  <reaction>  (6) 
rxn_1500

>  <mol_properties>  (6) 
{"1": {"label": "*3", "atom_type": "Cs"}, "2": {"label": "*4", "atom_type": "S2s"}, "9": {"label": "*1", "atom_type": "Cs"}, "10": {"label": "*0", "atom_type": "Cd"}, "19": {"label": "*2", "atom_type": "H0"}}

>  <type>  (6) 
unop_2

>  <geom_source>  (6) 
Heuristics

$$$$

     RDKit          3D

 26 25  0  0  0  0  0  0  0  0999 V2000
   -0.8329   -2.5138    1.6085 C   0  0  0  0  0  0  0  0  0  0  0  0
   -1.1097   -1.8530    0.2694 C   0  0  0  0  0  0  0  0  0  0  0  0
   -2.3813   -2.6877   -0.7246 S   0  0  0  0  0  0  0  0  0  0  0  0
   -0.0927   -1.9393    2.1703 H   0  0  0  0  0  0  0  0  0  0  0  0
   -0.4414   -3.5235    1.4724 H   0  0  0  0  0  0  0  0  0  0  0  0
   -1.7431   -2.5835    2.2046 H   0  0  0  0  0  0  0  0  0  0  0  0
   -1.4998   -0.8440    0.4112 H   0  0  0  0  0  0  0  0  0  0  0  0
   -1.7365   -3.8540   -0.8624 H   0  0  0  0  0  0  0  0  0  0  0  0
    0.9915   -0.5546   -2.1301 C   0  0  0  0  0  0  0  0  0  0  0  0
    0.9915   -0.5546   -0.6010 C   0  0  0  0  0  0  0  0  0  0  0  0
    0.9915    0.8397   -0.0316 C   0  0  0  0  0  0  0  0  0  0  0  0
   -0.2030    1.5086    0.2162 C   0  0  0  0  0  3  0  0  0  0  0  0
   -0.2063    2.8088    0.6971 C   0  0  0  0  0  0  0  0  0  0  0  0
    0.9915    3.4642    0.9389 C   0  0  0  0  0  0  0  0  0  0  0  0
    2.1893    2.8088    0.6971 C   0  0  0  0  0  0  0  0  0  0  0  0
    2.1861    1.5086    0.2162 C   0  0  0  0  0  0  0  0  0  0  0  0
    1.8728   -0.0395   -2.5169 H   0  0  0  0  0  0  0  0  0  0  0  0
    0.1102   -0.0395   -2.5169 H   0  0  0  0  0  0  0  0  0  0  0  0
    0.9915   -1.5730   -2.5224 H   0  0  0  0  0  0  0  0  0  0  0  0
   -0.0604   -1.2046   -0.1652 H   0  0  0  0  0  0  0  0  0  0  0  0
    1.8682   -1.0963   -0.2378 H   0  0  0  0  0  0  0  0  0  0  0  0
   -1.1439    1.0015    0.0324 H   0  0  0  0  0  0  0  0  0  0  0  0
   -1.1471    3.3105    0.8870 H   0  0  0  0  0  0  0  0  0  0  0  0
    0.9915    4.4785    1.3173 H   0  0  0  0  0  0  0  0  0  0  0  0
    3.1301    3.3105    0.8870 H   0  0  0  0  0  0  0  0  0  0  0  0
    3.1269    1.0015    0.0324 H   0  0  0  0  0  0  0  0  0  0  0  0
  1  2  1  0
  1  4  1  0
  1  5  1  0
  1  6  1  0
  2  3  1  0
  2  7  1  0
  2 20  1  0
  3  8  1  0
  9 10  1  0
  9 17  1  0
  9 18  1  0
  9 19  1  0
 10 11  2  3
 10 21  1  0
 11 12  1  0
 11 16  1  0
 12 13  1  0
 12 22  1  0
 13 14  2  0
 13 23  1  0
 14 15  1  0
 14 24  1  0
 15 16  2  0
 15 25  1  0
 16 26  1  0
M  RAD  1  12   2
M  END
>  <reaction>  (7) 
rxn_1500

>  <mol_properties>  (7) 
{"1": {"label": "*3", "atom_type": "Cs"}, "2": {"label": "*4", "atom_type": "S2s"}, "9": {"label": "*1", "atom_type": "Cs"}, "10": {"label": "*0", "atom_type": "Cd"}, "19": {"label": "*2", "atom_type": "H0"}}

>  <type>  (7) 
unop_3

>  <geom_source>  (7) 
Heuristics

$$$$

     RDKit          3D

 26 25  0  0  0  0  0  0  0  0999 V2000
   -2.6100   -1.6148   -0.5573 C   0  0  0  0  0  0  0  0  0  0  0  0
   -1.3238   -2.2609   -0.0728 C   0  0  0  0  0  0  0  0  0  0  0  0
   -0.7555   -1.6659    1.5473 S   0  0  0  0  0  0  0  0  0  0  0  0
   -2.9162   -2.0470   -1.5128 H   0  0  0  0  0  0  0  0  0  0  0  0
   -2.4776   -0.5410   -0.7016 H   0  0  0  0  0  0  0  0  0  0  0  0
   -3.4152   -1.7605    0.1632 H   0  0  0  0  0  0  0  0  0  0  0  0
   -1.4614   -3.3339    0.0688 H   0  0  0  0  0  0  0  0  0  0  0  0
   -0.5740   -0.3866    1.1931 H   0  0  0  0  0  0  0  0  0  0  0  0
    0.7774   -0.9625   -2.4723 C   0  0  0  0  0  0  0  0  0  0  0  0
    0.7774   -0.9625   -0.9432 C   0  0  0  0  0  0  0  0  0  0  0  0
    0.7774    0.4317   -0.3738 C   0  0  0  0  0  0  0  0  0  0  0  0
   -0.4171    1.1007   -0.1261 C   0  0  0  0  0  3  0  0  0  0  0  0
   -0.4204    2.4009    0.3548 C   0  0  0  0  0  0  0  0  0  0  0  0
    0.7774    3.0563    0.5966 C   0  0  0  0  0  0  0  0  0  0  0  0
    1.9752    2.4009    0.3548 C   0  0  0  0  0  0  0  0  0  0  0  0
    1.9719    1.1007   -0.1261 C   0  0  0  0  0  0  0  0  0  0  0  0
    1.6587   -0.4475   -2.8592 H   0  0  0  0  0  0  0  0  0  0  0  0
   -0.1039   -0.4475   -2.8592 H   0  0  0  0  0  0  0  0  0  0  0  0
    0.7774   -1.9810   -2.8647 H   0  0  0  0  0  0  0  0  0  0  0  0
   -0.2746   -1.6126   -0.5075 H   0  0  0  0  0  0  0  0  0  0  0  0
    1.6540   -1.5042   -0.5801 H   0  0  0  0  0  0  0  0  0  0  0  0
   -1.3580    0.5935   -0.3098 H   0  0  0  0  0  0  0  0  0  0  0  0
   -1.3612    2.9026    0.5448 H   0  0  0  0  0  0  0  0  0  0  0  0
    0.7774    4.0706    0.9750 H   0  0  0  0  0  0  0  0  0  0  0  0
    2.9160    2.9026    0.5447 H   0  0  0  0  0  0  0  0  0  0  0  0
    2.9128    0.5935   -0.3098 H   0  0  0  0  0  0  0  0  0  0  0  0
  1  2  1  0
  1  4  1  0
  1  5  1  0
  1  6  1  0
  2  3  1  0
  2  7  1  0
  2 20  1  0
  3  8  1  0
  9 10  1  0
  9 17  1  0
  9 18  1  0
  9 19  1  0
 10 11  2  3
 10 21  1  0
 11 12  1  0
 11 16  1  0
 12 13  1  0
 12 22  1  0
 13 14  2  0
 13 23  1  0
 14 15  1  0
 14 24  1  0
 15 16  2  0
 15 25  1  0
 16 26  1  0
M  RAD  1  12   2
M  END
>  <reaction>  (8) 
rxn_1500

>  <mol_properties>  (8) 
{"1": {"label": "*3", "atom_type": "Cs"}, "2": {"label": "*4", "atom_type": "S2s"}, "9": {"label": "*1", "atom_type": "Cs"}, "10": {"label": "*0", "atom_type": "Cd"}, "19": {"label": "*2", "atom_type": "H0"}}

>  <type>  (8) 
unop_4

>  <geom_source>  (8) 
Heuristics

$$$$

     RDKit          3D

 26 25  0  0  0  0  0  0  0  0999 V2000
   -1.3640   -1.7804    1.7263 C   0  0  0  0  0  0  0  0  0  0  0  0
   -1.3224   -1.7547    0.2084 C   0  0  0  0  0  0  0  0  0  0  0  0
   -1.3642   -3.3980   -0.5659 S   0  0  0  0  0  0  0  0  0  0  0  0
   -1.3791   -0.7627    2.1236 H   0  0  0  0  0  0  0  0  0  0  0  0
   -0.4865   -2.2865    2.1327 H   0  0  0  0  0  0  0  0  0  0  0  0
   -2.2504   -2.3052    2.0834 H   0  0  0  0  0  0  0  0  0  0  0  0
   -2.2010   -1.2471   -0.1924 H   0  0  0  0  0  0  0  0  0  0  0  0
   -0.2195   -3.8525   -0.0385 H   0  0  0  0  0  0  0  0  0  0  0  0
    0.7788   -0.4563   -2.1911 C   0  0  0  0  0  0  0  0  0  0  0  0
    0.7788   -0.4563   -0.6620 C   0  0  0  0  0  0  0  0  0  0  0  0
    0.7788    0.9379   -0.0926 C   0  0  0  0  0  0  0  0  0  0  0  0
   -0.4157    1.6069    0.1552 C   0  0  0  0  0  3  0  0  0  0  0  0
   -0.4190    2.9071    0.6361 C   0  0  0  0  0  0  0  0  0  0  0  0
    0.7788    3.5625    0.8779 C   0  0  0  0  0  0  0  0  0  0  0  0
    1.9766    2.9071    0.6361 C   0  0  0  0  0  0  0  0  0  0  0  0
    1.9733    1.6069    0.1552 C   0  0  0  0  0  0  0  0  0  0  0  0
    1.6601    0.0587   -2.5779 H   0  0  0  0  0  0  0  0  0  0  0  0
   -0.1025    0.0587   -2.5779 H   0  0  0  0  0  0  0  0  0  0  0  0
    0.7788   -1.4748   -2.5834 H   0  0  0  0  0  0  0  0  0  0  0  0
   -0.2731   -1.1064   -0.2262 H   0  0  0  0  0  0  0  0  0  0  0  0
    1.6555   -0.9980   -0.2989 H   0  0  0  0  0  0  0  0  0  0  0  0
   -1.3566    1.0997   -0.0286 H   0  0  0  0  0  0  0  0  0  0  0  0
   -1.3598    3.4088    0.8260 H   0  0  0  0  0  0  0  0  0  0  0  0
    0.7788    4.5768    1.2562 H   0  0  0  0  0  0  0  0  0  0  0  0
    2.9174    3.4088    0.8260 H   0  0  0  0  0  0  0  0  0  0  0  0
    2.9142    1.0997   -0.0286 H   0  0  0  0  0  0  0  0  0  0  0  0
  1  2  1  0
  1  4  1  0
  1  5  1  0
  1  6  1  0
  2  3  1  0
  2  7  1  0
  2 20  1  0
  3  8  1  0
  9 10  1  0
  9 17  1  0
  9 18  1  0
  9 19  1  0
 10 11  2  3
 10 21  1  0
 11 12  1  0
 11 16  1  0
 12 13  1  0
 12 22  1  0
 13 14  2  0
 13 23  1  0
 14 15  1  0
 14 24  1  0
 15 16  2  0
 15 25  1  0
 16 26  1  0
M  RAD  1  12   2
M  END
>  <reaction>  (9) 
rxn_1500

>  <mol_properties>  (9) 
{"1": {"label": "*3", "atom_type": "Cs"}, "2": {"label": "*4", "atom_type": "S2s"}, "9": {"label": "*1", "atom_type": "Cs"}, "10": {"label": "*0", "atom_type": "Cd"}, "19": {"label": "*2", "atom_type": "H0"}}

>  <type>  (9) 
unop_5

>  <geom_source>  (9) 
Heuristics

$$$$

     RDKit          3D

 26 25  0  0  0  0  0  0  0  0999 V2000
   -2.6311   -1.2305    0.0868 C   0  0  0  0  0  0  0  0  0  0  0  0
   -1.4453   -2.1616   -0.0962 C   0  0  0  0  0  0  0  0  0  0  0  0
   -0.3088   -2.2079    1.3208 S   0  0  0  0  0  0  0  0  0  0  0  0
   -3.2933   -1.2831   -0.7806 H   0  0  0  0  0  0  0  0  0  0  0  0
   -2.3021   -0.1955    0.1956 H   0  0  0  0  0  0  0  0  0  0  0  0
   -3.2027   -1.4970    0.9761 H   0  0  0  0  0  0  0  0  0  0  0  0
   -1.7798   -3.1943   -0.2055 H   0  0  0  0  0  0  0  0  0  0  0  0
    0.0523   -0.9183    1.2784 H   0  0  0  0  0  0  0  0  0  0  0  0
    0.6559   -0.8632   -2.4957 C   0  0  0  0  0  0  0  0  0  0  0  0
    0.6559   -0.8632   -0.9666 C   0  0  0  0  0  0  0  0  0  0  0  0
    0.6559    0.5311   -0.3972 C   0  0  0  0  0  0  0  0  0  0  0  0
   -0.5386    1.2000   -0.1495 C   0  0  0  0  0  3  0  0  0  0  0  0
   -0.5419    2.5002    0.3315 C   0  0  0  0  0  0  0  0  0  0  0  0
    0.6559    3.1556    0.5733 C   0  0  0  0  0  0  0  0  0  0  0  0
    1.8537    2.5002    0.3315 C   0  0  0  0  0  0  0  0  0  0  0  0
    1.8504    1.2000   -0.1495 C   0  0  0  0  0  0  0  0  0  0  0  0
    1.5372   -0.3482   -2.8826 H   0  0  0  0  0  0  0  0  0  0  0  0
   -0.2254   -0.3482   -2.8826 H   0  0  0  0  0  0  0  0  0  0  0  0
    0.6559   -1.8816   -2.8880 H   0  0  0  0  0  0  0  0  0  0  0  0
   -0.3961   -1.5132   -0.5309 H   0  0  0  0  0  0  0  0  0  0  0  0
    1.5325   -1.4049   -0.6035 H   0  0  0  0  0  0  0  0  0  0  0  0
   -1.4795    0.6928   -0.3332 H   0  0  0  0  0  0  0  0  0  0  0  0
   -1.4827    3.0019    0.5214 H   0  0  0  0  0  0  0  0  0  0  0  0
    0.6559    4.1699    0.9516 H   0  0  0  0  0  0  0  0  0  0  0  0
    2.7945    3.0019    0.5214 H   0  0  0  0  0  0  0  0  0  0  0  0
    2.7913    0.6928   -0.3332 H   0  0  0  0  0  0  0  0  0  0  0  0
  1  2  1  0
  1  4  1  0
  1  5  1  0
  1  6  1  0
  2  3  1  0
  2  7  1  0
  2 20  1  0
  3  8  1  0
  9 10  1  0
  9 17  1  0
  9 18  1  0
  9 19  1  0
 10 11  2  3
 10 21  1  0
 11 12  1  0
 11 16  1  0
 12 13  1  0
 12 22  1  0
 13 14  2  0
 13 23  1  0
 14 15  1  0
 14 24  1  0
 15 16  2  0
 15 25  1  0
 16 26  1  0
M  RAD  1  12   2
M  END
>  <reaction>  (10) 
rxn_1500

>  <mol_properties>  (10) 
{"1": {"label": "*3", "atom_type": "Cs"}, "2": {"label": "*4", "atom_type": "S2s"}, "9": {"label": "*1", "atom_type": "Cs"}, "10": {"label": "*0", "atom_type": "Cd"}, "19": {"label": "*2", "atom_type": "H0"}}

>  <type>  (10) 
unop_6

>  <geom_source>  (10) 
Heuristics

$$$$

     RDKit          3D

 26 25  0  0  0  0  0  0  0  0999 V2000
   -2.4080   -1.1243    0.7915 C   0  0  0  0  0  0  0  0  0  0  0  0
   -1.5220   -2.0176   -0.0589 C   0  0  0  0  0  0  0  0  0  0  0  0
   -0.1412   -2.7763    0.8463 S   0  0  0  0  0  0  0  0  0  0  0  0
   -3.2390   -0.7365    0.1975 H   0  0  0  0  0  0  0  0  0  0  0  0
   -1.8465   -0.2725    1.1794 H   0  0  0  0  0  0  0  0  0  0  0  0
   -2.8153   -1.6734    1.6407 H   0  0  0  0  0  0  0  0  0  0  0  0
   -2.0883   -2.8666   -0.4448 H   0  0  0  0  0  0  0  0  0  0  0  0
    0.4730   -1.6353    1.1867 H   0  0  0  0  0  0  0  0  0  0  0  0
    0.5792   -0.7193   -2.4584 C   0  0  0  0  0  0  0  0  0  0  0  0
    0.5792   -0.7193   -0.9293 C   0  0  0  0  0  0  0  0  0  0  0  0
    0.5792    0.6750   -0.3599 C   0  0  0  0  0  0  0  0  0  0  0  0
   -0.6153    1.3439   -0.1122 C   0  0  0  0  0  3  0  0  0  0  0  0
   -0.6186    2.6442    0.3688 C   0  0  0  0  0  0  0  0  0  0  0  0
    0.5792    3.2995    0.6105 C   0  0  0  0  0  0  0  0  0  0  0  0
    1.7770    2.6442    0.3688 C   0  0  0  0  0  0  0  0  0  0  0  0
    1.7737    1.3439   -0.1122 C   0  0  0  0  0  0  0  0  0  0  0  0
    1.4605   -0.2042   -2.8453 H   0  0  0  0  0  0  0  0  0  0  0  0
   -0.3021   -0.2042   -2.8453 H   0  0  0  0  0  0  0  0  0  0  0  0
    0.5792   -1.7377   -2.8508 H   0  0  0  0  0  0  0  0  0  0  0  0
   -0.4728   -1.3693   -0.4936 H   0  0  0  0  0  0  0  0  0  0  0  0
    1.4558   -1.2609   -0.5662 H   0  0  0  0  0  0  0  0  0  0  0  0
   -1.5562    0.8368   -0.2959 H   0  0  0  0  0  0  0  0  0  0  0  0
   -1.5594    3.1459    0.5587 H   0  0  0  0  0  0  0  0  0  0  0  0
    0.5792    4.3139    0.9889 H   0  0  0  0  0  0  0  0  0  0  0  0
    2.7178    3.1459    0.5587 H   0  0  0  0  0  0  0  0  0  0  0  0
    2.7146    0.8368   -0.2959 H   0  0  0  0  0  0  0  0  0  0  0  0
  1  2  1  0
  1  4  1  0
  1  5  1  0
  1  6  1  0
  2  3  1  0
  2  7  1  0
  2 20  1  0
  3  8  1  0
  9 10  1  0
  9 17  1  0
  9 18  1  0
  9 19  1  0
 10 11  2  3
 10 21  1  0
 11 12  1  0
 11 16  1  0
 12 13  1  0
 12 22  1  0
 13 14  2  0
 13 23  1  0
 14 15  1  0
 14 24  1  0
 15 16  2  0
 15 25  1  0
 16 26  1  0
M  RAD  1  12   2
M  END
>  <reaction>  (11) 
rxn_1500

>  <mol_properties>  (11) 
{"1": {"label": "*3", "atom_type": "Cs"}, "2": {"label": "*4", "atom_type": "S2s"}, "9": {"label": "*1", "atom_type": "Cs"}, "10": {"label": "*0", "atom_type": "Cd"}, "19": {"label": "*2", "atom_type": "H0"}}

>  <type>  (11) 
unop_7

>  <geom_source>  (11) 
Heuristics

$$$$

     RDKit          3D

 26 25  0  0  0  0  0  0  0  0999 V2000
   -0.7100   -3.4961    0.3767 C   0  0  0  0  0  0  0  0  0  0  0  0
   -1.0122   -2.0191    0.1937 C   0  0  0  0  0  0  0  0  0  0  0  0
   -2.7847   -1.6219    0.1449 S   0  0  0  0  0  0  0  0  0  0  0  0
    0.3686   -3.6586    0.4400 H   0  0  0  0  0  0  0  0  0  0  0  0
   -1.0885   -4.0796   -0.4645 H   0  0  0  0  0  0  0  0  0  0  0  0
   -1.1724   -3.8791    1.2868 H   0  0  0  0  0  0  0  0  0  0  0  0
   -0.6310   -1.4407    1.0365 H   0  0  0  0  0  0  0  0  0  0  0  0
   -3.0784   -2.3354   -0.9504 H   0  0  0  0  0  0  0  0  0  0  0  0
    1.0890   -0.7208   -2.2058 C   0  0  0  0  0  0  0  0  0  0  0  0
    1.0890   -0.7208   -0.6767 C   0  0  0  0  0  0  0  0  0  0  0  0
    1.0890    0.6735   -0.1073 C   0  0  0  0  0  0  0  0  0  0  0  0
   -0.1055    1.3425    0.1405 C   0  0  0  0  0  3  0  0  0  0  0  0
   -0.1088    2.6427    0.6214 C   0  0  0  0  0  0  0  0  0  0  0  0
    1.0890    3.2980    0.8632 C   0  0  0  0  0  0  0  0  0  0  0  0
    2.2868    2.6427    0.6214 C   0  0  0  0  0  0  0  0  0  0  0  0
    2.2835    1.3425    0.1405 C   0  0  0  0  0  0  0  0  0  0  0  0
    1.9703   -0.2057   -2.5926 H   0  0  0  0  0  0  0  0  0  0  0  0
    0.2077   -0.2057   -2.5926 H   0  0  0  0  0  0  0  0  0  0  0  0
    1.0890   -1.7392   -2.5981 H   0  0  0  0  0  0  0  0  0  0  0  0
    0.0371   -1.3708   -0.2409 H   0  0  0  0  0  0  0  0  0  0  0  0
    1.9657   -1.2624   -0.3135 H   0  0  0  0  0  0  0  0  0  0  0  0
   -1.0464    0.8353   -0.0433 H   0  0  0  0  0  0  0  0  0  0  0  0
   -1.0496    3.1444    0.8113 H   0  0  0  0  0  0  0  0  0  0  0  0
    1.0890    4.3124    1.2416 H   0  0  0  0  0  0  0  0  0  0  0  0
    3.2276    3.1444    0.8113 H   0  0  0  0  0  0  0  0  0  0  0  0
    3.2244    0.8353   -0.0433 H   0  0  0  0  0  0  0  0  0  0  0  0
  1  2  1  0
  1  4  1  0
  1  5  1  0
  1  6  1  0
  2  3  1  0
  2  7  1  0
  2 20  1  0
  3  8  1  0
  9 10  1  0
  9 17  1  0
  9 18  1  0
  9 19  1  0
 10 11  2  3
 10 21  1  0
 11 12  1  0
 11 16  1  0
 12 13  1  0
 12 22  1  0
 13 14  2  0
 13 23  1  0
 14 15  1  0
 14 24  1  0
 15 16  2  0
 15 25  1  0
 16 26  1  0
M  RAD  1  12   2
M  END
>  <reaction>  (12) 
rxn_1500

>  <mol_properties>  (12) 
{"1": {"label": "*3", "atom_type": "Cs"}, "2": {"label": "*4", "atom_type": "S2s"}, "9": {"label": "*1", "atom_type": "Cs"}, "10": {"label": "*0", "atom_type": "Cd"}, "19": {"label": "*2", "atom_type": "H0"}}

>  <type>  (12) 
unop_8

>  <geom_source>  (12) 
Heuristics

$$$$

     RDKit          3D

 26 25  0  0  0  0  0  0  0  0999 V2000
   -2.3473   -2.1764   -0.9764 C   0  0  0  0  0  0  0  0  0  0  0  0
   -1.1870   -2.2913   -0.0034 C   0  0  0  0  0  0  0  0  0  0  0  0
   -1.3728   -1.2870    1.4995 S   0  0  0  0  0  0  0  0  0  0  0  0
   -2.1913   -2.8354   -1.8338 H   0  0  0  0  0  0  0  0  0  0  0  0
   -2.4437   -1.1557   -1.3508 H   0  0  0  0  0  0  0  0  0  0  0  0
   -3.2875   -2.4486   -0.4963 H   0  0  0  0  0  0  0  0  0  0  0  0
   -1.0946   -3.3133    0.3669 H   0  0  0  0  0  0  0  0  0  0  0  0
   -1.4038   -0.0935    0.8915 H   0  0  0  0  0  0  0  0  0  0  0  0
    0.9143   -0.9929   -2.4029 C   0  0  0  0  0  0  0  0  0  0  0  0
    0.9143   -0.9929   -0.8738 C   0  0  0  0  0  0  0  0  0  0  0  0
    0.9143    0.4014   -0.3044 C   0  0  0  0  0  0  0  0  0  0  0  0
   -0.2803    1.0703   -0.0566 C   0  0  0  0  0  3  0  0  0  0  0  0
   -0.2836    2.3705    0.4243 C   0  0  0  0  0  0  0  0  0  0  0  0
    0.9143    3.0259    0.6661 C   0  0  0  0  0  0  0  0  0  0  0  0
    2.1121    2.3705    0.4243 C   0  0  0  0  0  0  0  0  0  0  0  0
    2.1088    1.0703   -0.0566 C   0  0  0  0  0  0  0  0  0  0  0  0
    1.7955   -0.4778   -2.7897 H   0  0  0  0  0  0  0  0  0  0  0  0
    0.0330   -0.4778   -2.7897 H   0  0  0  0  0  0  0  0  0  0  0  0
    0.9143   -2.0113   -2.7952 H   0  0  0  0  0  0  0  0  0  0  0  0
   -0.1377   -1.6429   -0.4380 H   0  0  0  0  0  0  0  0  0  0  0  0
    1.7909   -1.5346   -0.5106 H   0  0  0  0  0  0  0  0  0  0  0  0
   -1.2212    0.5632   -0.2404 H   0  0  0  0  0  0  0  0  0  0  0  0
   -1.2243    2.8722    0.6142 H   0  0  0  0  0  0  0  0  0  0  0  0
    0.9143    4.0402    1.0445 H   0  0  0  0  0  0  0  0  0  0  0  0
    3.0528    2.8722    0.6142 H   0  0  0  0  0  0  0  0  0  0  0  0
    3.0497    0.5632   -0.2404 H   0  0  0  0  0  0  0  0  0  0  0  0
  1  2  1  0
  1  4  1  0
  1  5  1  0
  1  6  1  0
  2  3  1  0
  2  7  1  0
  2 20  1  0
  3  8  1  0
  9 10  1  0
  9 17  1  0
  9 18  1  0
  9 19  1  0
 10 11  2  3
 10 21  1  0
 11 12  1  0
 11 16  1  0
 12 13  1  0
 12 22  1  0
 13 14  2  0
 13 23  1  0
 14 15  1  0
 14 24  1  0
 15 16  2  0
 15 25  1  0
 16 26  1  0
M  RAD  1  12   2
M  END
>  <reaction>  (13) 
rxn_1500

>  <mol_properties>  (13) 
{"1": {"label": "*3", "atom_type": "Cs"}, "2": {"label": "*4", "atom_type": "S2s"}, "9": {"label": "*1", "atom_type": "Cs"}, "10": {"label": "*0", "atom_type": "Cd"}, "19": {"label": "*2", "atom_type": "H0"}}

>  <type>  (13) 
unop_9

>  <geom_source>  (13) 
Heuristics

$$$$

     RDKit          3D

 26 25  0  0  0  0  0  0  0  0999 V2000
   -1.0055   -3.5120   -0.3168 C   0  0  0  0  0  0  0  0  0  0  0  0
   -1.0079   -2.0727    0.1676 C   0  0  0  0  0  0  0  0  0  0  0  0
   -2.6570   -1.4255    0.5720 S   0  0  0  0  0  0  0  0  0  0  0  0
    0.0173   -3.8497   -0.5005 H   0  0  0  0  0  0  0  0  0  0  0  0
   -1.5643   -3.6115   -1.2491 H   0  0  0  0  0  0  0  0  0  0  0  0
   -1.4616   -4.1727    0.4208 H   0  0  0  0  0  0  0  0  0  0  0  0
   -0.4473   -1.9788    1.0988 H   0  0  0  0  0  0  0  0  0  0  0  0
   -3.1809   -1.5446   -0.6554 H   0  0  0  0  0  0  0  0  0  0  0  0
    1.0933   -0.7743   -2.2319 C   0  0  0  0  0  0  0  0  0  0  0  0
    1.0933   -0.7743   -0.7028 C   0  0  0  0  0  0  0  0  0  0  0  0
    1.0933    0.6200   -0.1334 C   0  0  0  0  0  0  0  0  0  0  0  0
   -0.1012    1.2889    0.1144 C   0  0  0  0  0  3  0  0  0  0  0  0
   -0.1045    2.5891    0.5953 C   0  0  0  0  0  0  0  0  0  0  0  0
    1.0933    3.2445    0.8371 C   0  0  0  0  0  0  0  0  0  0  0  0
    2.2911    2.5891    0.5953 C   0  0  0  0  0  0  0  0  0  0  0  0
    2.2878    1.2889    0.1144 C   0  0  0  0  0  0  0  0  0  0  0  0
    1.9746   -0.2593   -2.6187 H   0  0  0  0  0  0  0  0  0  0  0  0
    0.2120   -0.2593   -2.6187 H   0  0  0  0  0  0  0  0  0  0  0  0
    1.0933   -1.7927   -2.6242 H   0  0  0  0  0  0  0  0  0  0  0  0
    0.0414   -1.4243   -0.2670 H   0  0  0  0  0  0  0  0  0  0  0  0
    1.9700   -1.3160   -0.3396 H   0  0  0  0  0  0  0  0  0  0  0  0
   -1.0421    0.7817   -0.0694 H   0  0  0  0  0  0  0  0  0  0  0  0
   -1.0453    3.0908    0.7852 H   0  0  0  0  0  0  0  0  0  0  0  0
    1.0933    4.2588    1.2155 H   0  0  0  0  0  0  0  0  0  0  0  0
    3.2319    3.0908    0.7852 H   0  0  0  0  0  0  0  0  0  0  0  0
    3.2287    0.7817   -0.0694 H   0  0  0  0  0  0  0  0  0  0  0  0
  1  2  1  0
  1  4  1  0
  1  5  1  0
  1  6  1  0
  2  3  1  0
  2  7  1  0
  2 20  1  0
  3  8  1  0
  9 10  1  0
  9 17  1  0
  9 18  1  0
  9 19  1  0
 10 11  2  3
 10 21  1  0
 11 12  1  0
 11 16  1  0
 12 13  1  0
 12 22  1  0
 13 14  2  0
 13 23  1  0
 14 15  1  0
 14 24  1  0
 15 16  2  0
 15 25  1  0
 16 26  1  0
M  RAD  1  12   2
M  END
>  <reaction>  (14) 
rxn_1500

>  <mol_properties>  (14) 
{"1": {"label": "*3", "atom_type": "Cs"}, "2": {"label": "*4", "atom_type": "S2s"}, "9": {"label": "*1", "atom_type": "Cs"}, "10": {"label": "*0", "atom_type": "Cd"}, "19": {"label": "*2", "atom_type": "H0"}}

>  <type>  (14) 
unop_10

>  <geom_source>  (14) 
Heuristics

$$$$

     RDKit          3D

 26 25  0  0  0  0  0  0  0  0999 V2000
   -1.9756   -1.3077    1.3874 C   0  0  0  0  0  0  0  0  0  0  0  0
   -1.5084   -1.8509    0.0484 C   0  0  0  0  0  0  0  0  0  0  0  0
   -0.4001   -3.2856    0.1721 S   0  0  0  0  0  0  0  0  0  0  0  0
   -2.6694   -0.4767    1.2395 H   0  0  0  0  0  0  0  0  0  0  0  0
   -1.1327   -0.9406    1.9757 H   0  0  0  0  0  0  0  0  0  0  0  0
   -2.4794   -2.0810    1.9677 H   0  0  0  0  0  0  0  0  0  0  0  0
   -2.3546   -2.2154   -0.5358 H   0  0  0  0  0  0  0  0  0  0  0  0
    0.5861   -2.6689    0.8371 H   0  0  0  0  0  0  0  0  0  0  0  0
    0.5929   -0.5525   -2.3512 C   0  0  0  0  0  0  0  0  0  0  0  0
    0.5929   -0.5525   -0.8221 C   0  0  0  0  0  0  0  0  0  0  0  0
    0.5929    0.8418   -0.2526 C   0  0  0  0  0  0  0  0  0  0  0  0
   -0.6017    1.5107   -0.0049 C   0  0  0  0  0  3  0  0  0  0  0  0
   -0.6049    2.8109    0.4760 C   0  0  0  0  0  0  0  0  0  0  0  0
    0.5929    3.4663    0.7178 C   0  0  0  0  0  0  0  0  0  0  0  0
    1.7907    2.8109    0.4760 C   0  0  0  0  0  0  0  0  0  0  0  0
    1.7874    1.5107   -0.0049 C   0  0  0  0  0  0  0  0  0  0  0  0
    1.4741   -0.0375   -2.7380 H   0  0  0  0  0  0  0  0  0  0  0  0
   -0.2884   -0.0375   -2.7380 H   0  0  0  0  0  0  0  0  0  0  0  0
    0.5929   -1.5709   -2.7435 H   0  0  0  0  0  0  0  0  0  0  0  0
   -0.4591   -1.2025   -0.3863 H   0  0  0  0  0  0  0  0  0  0  0  0
    1.4695   -1.0942   -0.4589 H   0  0  0  0  0  0  0  0  0  0  0  0
   -1.5426    1.0035   -0.1886 H   0  0  0  0  0  0  0  0  0  0  0  0
   -1.5457    3.3126    0.6659 H   0  0  0  0  0  0  0  0  0  0  0  0
    0.5929    4.4806    1.0962 H   0  0  0  0  0  0  0  0  0  0  0  0
    2.7315    3.3126    0.6659 H   0  0  0  0  0  0  0  0  0  0  0  0
    2.7283    1.0035   -0.1886 H   0  0  0  0  0  0  0  0  0  0  0  0
  1  2  1  0
  1  4  1  0
  1  5  1  0
  1  6  1  0
  2  3  1  0
  2  7  1  0
  2 20  1  0
  3  8  1  0
  9 10  1  0
  9 17  1  0
  9 18  1  0
  9 19  1  0
 10 11  2  3
 10 21  1  0
 11 12  1  0
 11 16  1  0
 12 13  1  0
 12 22  1  0
 13 14  2  0
 13 23  1  0
 14 15  1  0
 14 24  1  0
 15 16  2  0
 15 25  1  0
 16 26  1  0
M  RAD  1  12   2
M  END
>  <reaction>  (15) 
rxn_1500

>  <mol_properties>  (15) 
{"1": {"label": "*3", "atom_type": "Cs"}, "2": {"label": "*4", "atom_type": "S2s"}, "9": {"label": "*1", "atom_type": "Cs"}, "10": {"label": "*0", "atom_type": "Cd"}, "19": {"label": "*2", "atom_type": "H0"}}

>  <type>  (15) 
unop_11

>  <geom_source>  (15) 
Heuristics

$$$$

     RDKit          3D

 26 25  0  0  0  0  0  0  0  0999 V2000
   -1.9167   -2.7618   -1.0719 C   0  0  0  0  0  0  0  0  0  0  0  0
   -1.0748   -2.2416    0.0799 C   0  0  0  0  0  0  0  0  0  0  0  0
   -1.9812   -1.1841    1.2470 S   0  0  0  0  0  0  0  0  0  0  0  0
   -1.3233   -3.4221   -1.7088 H   0  0  0  0  0  0  0  0  0  0  0  0
   -2.2838   -1.9403   -1.6898 H   0  0  0  0  0  0  0  0  0  0  0  0
   -2.7796   -3.3178   -0.7045 H   0  0  0  0  0  0  0  0  0  0  0  0
   -0.7098   -3.0665    0.6935 H   0  0  0  0  0  0  0  0  0  0  0  0
   -2.2949   -0.2162    0.3754 H   0  0  0  0  0  0  0  0  0  0  0  0
    1.0264   -0.9432   -2.3196 C   0  0  0  0  0  0  0  0  0  0  0  0
    1.0264   -0.9432   -0.7905 C   0  0  0  0  0  0  0  0  0  0  0  0
    1.0264    0.4511   -0.2211 C   0  0  0  0  0  0  0  0  0  0  0  0
   -0.1681    1.1200    0.0267 C   0  0  0  0  0  3  0  0  0  0  0  0
   -0.1714    2.4202    0.5076 C   0  0  0  0  0  0  0  0  0  0  0  0
    1.0264    3.0756    0.7494 C   0  0  0  0  0  0  0  0  0  0  0  0
    2.2242    2.4202    0.5076 C   0  0  0  0  0  0  0  0  0  0  0  0
    2.2210    1.1200    0.0267 C   0  0  0  0  0  0  0  0  0  0  0  0
    1.9077   -0.4281   -2.7064 H   0  0  0  0  0  0  0  0  0  0  0  0
    0.1452   -0.4281   -2.7064 H   0  0  0  0  0  0  0  0  0  0  0  0
    1.0264   -1.9616   -2.7119 H   0  0  0  0  0  0  0  0  0  0  0  0
   -0.0255   -1.5932   -0.3547 H   0  0  0  0  0  0  0  0  0  0  0  0
    1.9031   -1.4849   -0.4273 H   0  0  0  0  0  0  0  0  0  0  0  0
   -1.1090    0.6129   -0.1571 H   0  0  0  0  0  0  0  0  0  0  0  0
   -1.1122    2.9219    0.6975 H   0  0  0  0  0  0  0  0  0  0  0  0
    1.0264    4.0899    1.1278 H   0  0  0  0  0  0  0  0  0  0  0  0
    3.1650    2.9219    0.6975 H   0  0  0  0  0  0  0  0  0  0  0  0
    3.1619    0.6129   -0.1571 H   0  0  0  0  0  0  0  0  0  0  0  0
  1  2  1  0
  1  4  1  0
  1  5  1  0
  1  6  1  0
  2  3  1  0
  2  7  1  0
  2 20  1  0
  3  8  1  0
  9 10  1  0
  9 17  1  0
  9 18  1  0
  9 19  1  0
 10 11  2  3
 10 21  1  0
 11 12  1  0
 11 16  1  0
 12 13  1  0
 12 22  1  0
 13 14  2  0
 13 23  1  0
 14 15  1  0
 14 24  1  0
 15 16  2  0
 15 25  1  0
 16 26  1  0
M  RAD  1  12   2
M  END
>  <reaction>  (16) 
rxn_1500

>  <mol_properties>  (16) 
{"1": {"label": "*3", "atom_type": "Cs"}, "2": {"label": "*4", "atom_type": "S2s"}, "9": {"label": "*1", "atom_type": "Cs"}, "10": {"label": "*0", "atom_type": "Cd"}, "19": {"label": "*2", "atom_type": "H0"}}

>  <type>  (16) 
unop_12

>  <geom_source>  (16) 
Heuristics

$$$$

     RDKit          3D

 26 25  0  0  0  0  0  0  0  0999 V2000
   -3.1616    0.8423    1.8261 S   0  0  0  0  0  0  0  0  0  0  0  0
   -2.6205   -0.0924    0.3636 C   0  0  0  0  0  0  0  0  0  0  0  0
   -3.1310    0.5733   -0.9041 C   0  0  0  0  0  0  0  0  0  0  0  0
   -0.1019   -2.1971    0.0730 C   0  0  0  0  0  0  0  0  0  0  0  0
    1.0791   -0.0023    0.2084 C   0  0  0  0  0  0  0  0  0  0  0  0
   -0.1161   -0.7894    0.6544 C   0  0  0  0  0  0  0  0  0  0  0  0
    0.9641    0.8790   -0.8759 C   0  0  0  0  0  3  0  0  0  0  0  0
    2.3207   -0.1616    0.8447 C   0  0  0  0  0  0  0  0  0  0  0  0
    2.0779    1.6037   -1.3127 C   0  0  0  0  0  0  0  0  0  0  0  0
    3.3108    1.4473   -0.6721 C   0  0  0  0  0  0  0  0  0  0  0  0
    3.4323    0.5646    0.4053 C   0  0  0  0  0  0  0  0  0  0  0  0
   -3.0134   -1.1294    0.4253 H   0  0  0  0  0  0  0  0  0  0  0  0
   -1.2757   -0.1330    0.3362 H   0  0  0  0  0  0  0  0  0  0  0  0
   -2.7915   -0.0053   -1.7884 H   0  0  0  0  0  0  0  0  0  0  0  0
   -2.7315    1.6067   -0.9781 H   0  0  0  0  0  0  0  0  0  0  0  0
   -4.2412    0.6060   -0.8999 H   0  0  0  0  0  0  0  0  0  0  0  0
   -0.0846   -2.1517   -1.0365 H   0  0  0  0  0  0  0  0  0  0  0  0
   -1.0187   -2.7347    0.3923 H   0  0  0  0  0  0  0  0  0  0  0  0
    0.7872   -2.7564    0.4348 H   0  0  0  0  0  0  0  0  0  0  0  0
   -0.1711   -0.8276    1.7639 H   0  0  0  0  0  0  0  0  0  0  0  0
    0.0143    1.0035   -1.3812 H   0  0  0  0  0  0  0  0  0  0  0  0
    1.9857    2.2849   -2.1487 H   0  0  0  0  0  0  0  0  0  0  0  0
    2.4259   -0.8465    1.6771 H   0  0  0  0  0  0  0  0  0  0  0  0
    4.1719    2.0082   -1.0117 H   0  0  0  0  0  0  0  0  0  0  0  0
    4.3878    0.4418    0.8985 H   0  0  0  0  0  0  0  0  0  0  0  0
   -2.4987   -0.0339    2.7060 H   0  0  0  0  0  0  0  0  0  0  0  0
  1  2  1  0
  1 26  1  0
  2  3  1  0
  2 12  1  0
  2 13  1  0
  3 14  1  0
  3 15  1  0
  3 16  1  0
  4  6  1  0
  4 17  1  0
  4 18  1  0
  4 19  1  0
  5  6  2  3
  5  7  1  0
  5  8  1  0
  6 20  1  0
  7  9  1  0
  7 21  1  0
  8 11  2  0
  8 23  1  0
  9 10  2  0
  9 22  1  0
 10 11  1  0
 10 24  1  0
 11 25  1  0
M  RAD  1   7   2
M  END
>  <reaction>  (17) 
rxn_1500

>  <mol_properties>  (17) 
{"1": {"label": "*3", "atom_type": "Cs"}, "2": {"label": "*4", "atom_type": "S2s"}, "9": {"label": "*1", "atom_type": "Cs"}, "10": {"label": "*0", "atom_type": "Cd"}, "19": {"label": "*2", "atom_type": "H0"}}

>  <type>  (17) 
unop_13

>  <geom_source>  (17) 
AutoTST

$$$$
