
     RDKit          3D

  6  5  0  0  0  0  0  0  0  0999 V2000
   -0.5072   -0.0291   -0.0097 C   0  0  0  0  0  0  0  0  0  0  0  0
    1.1321   -0.1527   -0.7687 S   0  0  0  0  0  0  0  0  0  0  0  0
   -0.6174   -0.7330    0.8127 H   0  0  0  0  0  0  0  0  0  0  0  0
   -0.5863    0.9827    0.3845 H   0  0  0  0  0  0  0  0  0  0  0  0
   -1.2962   -0.1800   -0.7434 H   0  0  0  0  0  0  0  0  0  0  0  0
    1.0312   -1.4237   -1.1764 H   0  0  0  0  0  0  0  0  0  0  0  0
  1  2  1  0
  1  3  1  0
  1  4  1  0
  1  5  1  0
  2  6  1  0
M  END
>  <reaction>  (1) 
rxn_1844

>  <mol_properties>  (1) 
{"0": {"label": "donator", "atom_type": "Cs"}, "2": {"label": "d_hydrogen", "atom_type": "H0"}}

>  <type>  (1) 
r1h

$$$$

     RDKit          3D

 11 10  0  0  0  0  0  0  0  0999 V2000
    1.0781   -1.0166   -0.1159 C   0  0  0  0  0  0  0  0  0  0  0  0
    0.2180    0.1942   -0.2297 C   0  0  0  0  0  3  0  0  0  0  0  0
    0.9343    1.7769   -0.3011 S   0  0  0  0  0  0  0  0  0  0  0  0
   -1.1949    0.1490    0.2439 C   0  0  0  0  0  0  0  0  0  0  0  0
    1.4718   -1.1461    0.9024 H   0  0  0  0  0  0  0  0  0  0  0  0
    1.9367   -0.9751   -0.7902 H   0  0  0  0  0  0  0  0  0  0  0  0
    0.5033   -1.9136   -0.3576 H   0  0  0  0  0  0  0  0  0  0  0  0
    2.1166    1.4195   -0.8209 H   0  0  0  0  0  0  0  0  0  0  0  0
   -1.2620    0.0939    1.3399 H   0  0  0  0  0  0  0  0  0  0  0  0
   -1.7600    1.0270   -0.0739 H   0  0  0  0  0  0  0  0  0  0  0  0
   -1.6972   -0.7380   -0.1506 H   0  0  0  0  0  0  0  0  0  0  0  0
  1  2  1  0
  1  5  1  0
  1  6  1  0
  1  7  1  0
  2  4  1  0
  2  3  1  0
  3  8  1  0
  4  9  1  0
  4 10  1  0
  4 11  1  0
M  RAD  1   2   2
M  END
>  <reaction>  (2) 
rxn_1844

>  <mol_properties>  (2) 
{"1": {"label": "acceptor", "atom_type": "Cs"}}

>  <type>  (2) 
r2

$$$$

     RDKit          3D

 12 11  0  0  0  0  0  0  0  0999 V2000
    1.2394   -0.3763   -0.3020 C   0  0  0  0  0  0  0  0  0  0  0  0
    0.1007    0.3023    0.4464 C   0  0  0  0  0  0  0  0  0  0  0  0
   -0.1187    2.0399   -0.0725 S   0  0  0  0  0  0  0  0  0  0  0  0
   -1.1974   -0.4877    0.3552 C   0  0  0  0  0  0  0  0  0  0  0  0
    2.1681    0.1849   -0.2048 H   0  0  0  0  0  0  0  0  0  0  0  0
    1.0031   -0.4606   -1.3656 H   0  0  0  0  0  0  0  0  0  0  0  0
    1.3994   -1.3856    0.0860 H   0  0  0  0  0  0  0  0  0  0  0  0
    0.3796    0.4050    1.4981 H   0  0  0  0  0  0  0  0  0  0  0  0
   -0.4500    1.7779   -1.3452 H   0  0  0  0  0  0  0  0  0  0  0  0
   -1.0545   -1.4978    0.7479 H   0  0  0  0  0  0  0  0  0  0  0  0
   -1.5206   -0.5759   -0.6849 H   0  0  0  0  0  0  0  0  0  0  0  0
   -1.9957   -0.0054    0.9183 H   0  0  0  0  0  0  0  0  0  0  0  0
  1  2  1  0
  1  5  1  0
  1  6  1  0
  1  7  1  0
  2  4  1  0
  2  3  1  0
  2  8  1  0
  3  9  1  0
  4 10  1  0
  4 11  1  0
  4 12  1  0
M  END
>  <reaction>  (3) 
rxn_1844

>  <mol_properties>  (3) 
{"1": {"label": "acceptor", "atom_type": "Cs"}, "11": {"label": "a_hydrogen", "atom_type": "H0"}}

>  <type>  (3) 
r2h

$$$$

     RDKit          3D

 17 15  0  0  0  0  0  0  0  0999 V2000
   -1.3480    1.5437   -0.0996 C   0  0  0  0  0  0  0  0  0  0  0  0
   -0.4883    0.6988    0.8078 C   0  0  0  0  0  0  0  0  0  0  0  0
    1.1875    1.2941    1.0309 S   0  0  0  0  0  0  0  0  0  0  0  0
   -1.1107    0.3567    2.1411 C   0  0  0  0  0  0  0  0  0  0  0  0
   -0.8989    1.6415   -1.0899 H   0  0  0  0  0  0  0  0  0  0  0  0
   -1.4926    2.5475    0.3107 H   0  0  0  0  0  0  0  0  0  0  0  0
   -2.3303    1.0796   -0.2193 H   0  0  0  0  0  0  0  0  0  0  0  0
    1.4312    1.5723   -0.2570 H   0  0  0  0  0  0  0  0  0  0  0  0
   -2.0663   -0.1474    1.9824 H   0  0  0  0  0  0  0  0  0  0  0  0
   -0.4699   -0.3062    2.7251 H   0  0  0  0  0  0  0  0  0  0  0  0
   -1.3015    1.2555    2.7360 H   0  0  0  0  0  0  0  0  0  0  0  0
   -0.2407   -1.6019   -0.5668 C   0  0  0  0  0  3  0  0  0  0  0  0
    0.9179   -1.3046   -1.8682 S   0  0  0  0  0  0  0  0  0  0  0  0
   -0.3688   -0.4434    0.1705 H   0  0  0  0  0  0  0  0  0  0  0  0
   -1.2268   -1.7887   -0.9843 H   0  0  0  0  0  0  0  0  0  0  0  0
    0.0631   -2.3610    0.1491 H   0  0  0  0  0  0  0  0  0  0  0  0
    2.0050   -1.1759   -1.0958 H   0  0  0  0  0  0  0  0  0  0  0  0
  1  2  1  0
  1  5  1  0
  1  6  1  0
  1  7  1  0
  2  4  1  0
  2  3  1  0
  2 14  1  0
  3  8  1  0
  4  9  1  0
  4 10  1  0
  4 11  1  0
 12 13  1  0
 12 15  1  0
 12 16  1  0
 13 17  1  0
M  RAD  1  12   2
M  END
>  <reaction>  (4) 
rxn_1844

>  <mol_properties>  (4) 
{"1": {"label": "*1", "atom_type": "Cs"}, "2": {"label": "*0", "atom_type": "S2s"}, "11": {"label": "*3", "atom_type": "Cs"}, "12": {"label": "*4", "atom_type": "S2s"}, "13": {"label": "*2", "atom_type": "H0"}}

>  <type>  (4) 
ts

$$$$

     RDKit          3D

 17 15  0  0  0  0  0  0  0  0999 V2000
   -1.3939    0.7817    1.6835 C   0  0  0  0  0  0  0  0  0  0  0  0
   -0.1466    0.5848    0.8332 C   0  0  0  0  0  3  0  0  0  0  0  0
    0.4231    2.1496    0.0826 S   0  0  0  0  0  0  0  0  0  0  0  0
    0.9655   -0.1177    1.5994 C   0  0  0  0  0  0  0  0  0  0  0  0
   -2.1905    1.2596    1.1144 H   0  0  0  0  0  0  0  0  0  0  0  0
   -1.1721    1.4090    2.5504 H   0  0  0  0  0  0  0  0  0  0  0  0
   -1.7573   -0.1812    2.0517 H   0  0  0  0  0  0  0  0  0  0  0  0
    0.7034    2.7773    1.2340 H   0  0  0  0  0  0  0  0  0  0  0  0
    0.6186   -1.0869    1.9670 H   0  0  0  0  0  0  0  0  0  0  0  0
    1.8409   -0.2771    0.9708 H   0  0  0  0  0  0  0  0  0  0  0  0
    1.2714    0.4776    2.4633 H   0  0  0  0  0  0  0  0  0  0  0  0
   -0.1466   -1.8524   -0.1206 C   0  0  0  0  0  0  0  0  0  0  0  0
   -0.1466   -1.8524   -1.9312 S   0  0  0  0  0  0  0  0  0  0  0  0
   -0.1466   -0.6366    0.3552 H   0  0  0  0  0  0  0  0  0  0  0  0
   -1.0673   -2.3466    0.1854 H   0  0  0  0  0  0  0  0  0  0  0  0
    0.6977   -2.4124    0.2759 H   0  0  0  0  0  0  0  0  0  0  0  0
    1.0237   -1.2243   -2.0976 H   0  0  0  0  0  0  0  0  0  0  0  0
  1  2  1  0
  1  5  1  0
  1  6  1  0
  1  7  1  0
  2  4  1  0
  2  3  1  0
  3  8  1  0
  4  9  1  0
  4 10  1  0
  4 11  1  0
 12 13  1  0
 12 14  1  0
 12 15  1  0
 12 16  1  0
 13 17  1  0
M  RAD  1   2   2
M  END
>  <reaction>  (5) 
rxn_1844

>  <mol_properties>  (5) 
{"1": {"label": "*1", "atom_type": "Cs"}, "2": {"label": "*0", "atom_type": "S2s"}, "11": {"label": "*3", "atom_type": "Cs"}, "12": {"label": "*4", "atom_type": "S2s"}, "13": {"label": "*2", "atom_type": "H0"}}

>  <type>  (5) 
unop_1

>  <geom_source>  (5) 
Heuristics

$$$$

     RDKit          3D

 17 15  0  0  0  0  0  0  0  0999 V2000
   -0.9533    1.5948   -0.3023 C   0  0  0  0  0  0  0  0  0  0  0  0
   -0.2332    0.6809    0.6794 C   0  0  0  0  0  3  0  0  0  0  0  0
    1.3812    1.3647    1.1919 S   0  0  0  0  0  0  0  0  0  0  0  0
   -1.1050    0.3216    1.8745 C   0  0  0  0  0  0  0  0  0  0  0  0
   -0.3283    1.8206   -1.1656 H   0  0  0  0  0  0  0  0  0  0  0  0
   -1.2223    2.5384    0.1786 H   0  0  0  0  0  0  0  0  0  0  0  0
   -1.8750    1.1231   -0.6526 H   0  0  0  0  0  0  0  0  0  0  0  0
    0.8975    2.4587    1.7980 H   0  0  0  0  0  0  0  0  0  0  0  0
   -2.0278   -0.1590    1.5394 H   0  0  0  0  0  0  0  0  0  0  0  0
   -0.5875   -0.3548    2.5539 H   0  0  0  0  0  0  0  0  0  0  0  0
   -1.3795    1.2198    2.4330 H   0  0  0  0  0  0  0  0  0  0  0  0
   -0.2332   -1.7563   -0.2743 C   0  0  0  0  0  0  0  0  0  0  0  0
   -0.2332   -1.7563   -2.0850 S   0  0  0  0  0  0  0  0  0  0  0  0
   -0.2332   -0.5405    0.2015 H   0  0  0  0  0  0  0  0  0  0  0  0
   -1.1538   -2.2505    0.0316 H   0  0  0  0  0  0  0  0  0  0  0  0
    0.6112   -2.3163    0.1222 H   0  0  0  0  0  0  0  0  0  0  0  0
    0.9371   -1.1282   -2.2514 H   0  0  0  0  0  0  0  0  0  0  0  0
  1  2  1  0
  1  5  1  0
  1  6  1  0
  1  7  1  0
  2  4  1  0
  2  3  1  0
  3  8  1  0
  4  9  1  0
  4 10  1  0
  4 11  1  0
 12 13  1  0
 12 14  1  0
 12 15  1  0
 12 16  1  0
 13 17  1  0
M  RAD  1   2   2
M  END
>  <reaction>  (6) 
rxn_1844

>  <mol_properties>  (6) 
{"1": {"label": "*1", "atom_type": "Cs"}, "2": {"label": "*0", "atom_type": "S2s"}, "11": {"label": "*3", "atom_type": "Cs"}, "12": {"label": "*4", "atom_type": "S2s"}, "13": {"label": "*2", "atom_type": "H0"}}

>  <type>  (6) 
unop_2

>  <geom_source>  (6) 
Heuristics

$$$$

     RDKit          3D

 17 15  0  0  0  0  0  0  0  0999 V2000
   -0.7244    0.5701    2.2594 C   0  0  0  0  0  0  0  0  0  0  0  0
   -0.0043    0.5653    0.9181 C   0  0  0  0  0  3  0  0  0  0  0  0
   -0.4132    2.0376   -0.0826 S   0  0  0  0  0  0  0  0  0  0  0  0
    1.4989    0.3820    1.0743 C   0  0  0  0  0  0  0  0  0  0  0  0
   -1.8013    0.6735    2.1310 H   0  0  0  0  0  0  0  0  0  0  0  0
   -0.3749    1.3993    2.8794 H   0  0  0  0  0  0  0  0  0  0  0  0
   -0.5250   -0.3589    2.7998 H   0  0  0  0  0  0  0  0  0  0  0  0
    0.1108    2.9425    0.7569 H   0  0  0  0  0  0  0  0  0  0  0  0
    1.7138   -0.5482    1.6064 H   0  0  0  0  0  0  0  0  0  0  0  0
    1.9975    0.3522    0.1061 H   0  0  0  0  0  0  0  0  0  0  0  0
    1.9276    1.2045    1.6521 H   0  0  0  0  0  0  0  0  0  0  0  0
   -0.0043   -1.8720   -0.0356 C   0  0  0  0  0  0  0  0  0  0  0  0
   -0.0043   -1.8720   -1.8463 S   0  0  0  0  0  0  0  0  0  0  0  0
   -0.0043   -0.6561    0.4402 H   0  0  0  0  0  0  0  0  0  0  0  0
   -0.9250   -2.3661    0.2703 H   0  0  0  0  0  0  0  0  0  0  0  0
    0.8401   -2.4320    0.3609 H   0  0  0  0  0  0  0  0  0  0  0  0
    1.1660   -1.2438   -2.0126 H   0  0  0  0  0  0  0  0  0  0  0  0
  1  2  1  0
  1  5  1  0
  1  6  1  0
  1  7  1  0
  2  4  1  0
  2  3  1  0
  3  8  1  0
  4  9  1  0
  4 10  1  0
  4 11  1  0
 12 13  1  0
 12 14  1  0
 12 15  1  0
 12 16  1  0
 13 17  1  0
M  RAD  1   2   2
M  END
>  <reaction>  (7) 
rxn_1844

>  <mol_properties>  (7) 
{"1": {"label": "*1", "atom_type": "Cs"}, "2": {"label": "*0", "atom_type": "S2s"}, "11": {"label": "*3", "atom_type": "Cs"}, "12": {"label": "*4", "atom_type": "S2s"}, "13": {"label": "*2", "atom_type": "H0"}}

>  <type>  (7) 
unop_3

>  <geom_source>  (7) 
Heuristics

$$$$

     RDKit          3D

 17 15  0  0  0  0  0  0  0  0999 V2000
    1.1283    1.7298   -0.0055 C   0  0  0  0  0  0  0  0  0  0  0  0
   -0.1190    1.0080    0.4853 C   0  0  0  0  0  3  0  0  0  0  0  0
    0.2328   -0.0658    1.9204 S   0  0  0  0  0  0  0  0  0  0  0  0
   -1.2673    1.9688    0.7606 C   0  0  0  0  0  0  0  0  0  0  0  0
    1.9320    1.0280   -0.2253 H   0  0  0  0  0  0  0  0  0  0  0  0
    1.4876    2.4321    0.7506 H   0  0  0  0  0  0  0  0  0  0  0  0
    0.9046    2.2991   -0.9114 H   0  0  0  0  0  0  0  0  0  0  0  0
    0.5986    0.9151    2.7583 H   0  0  0  0  0  0  0  0  0  0  0  0
   -1.5076    2.5398   -0.1400 H   0  0  0  0  0  0  0  0  0  0  0  0
   -2.1612    1.4364    1.0837 H   0  0  0  0  0  0  0  0  0  0  0  0
   -0.9933    2.6797    1.5440 H   0  0  0  0  0  0  0  0  0  0  0  0
   -0.1190   -1.4292   -0.4684 C   0  0  0  0  0  0  0  0  0  0  0  0
   -0.1190   -1.4292   -2.2791 S   0  0  0  0  0  0  0  0  0  0  0  0
   -0.1190   -0.2134    0.0073 H   0  0  0  0  0  0  0  0  0  0  0  0
   -1.0397   -1.9233   -0.1625 H   0  0  0  0  0  0  0  0  0  0  0  0
    0.7254   -1.9892   -0.0720 H   0  0  0  0  0  0  0  0  0  0  0  0
    1.0513   -0.8011   -2.4455 H   0  0  0  0  0  0  0  0  0  0  0  0
  1  2  1  0
  1  5  1  0
  1  6  1  0
  1  7  1  0
  2  4  1  0
  2  3  1  0
  3  8  1  0
  4  9  1  0
  4 10  1  0
  4 11  1  0
 12 13  1  0
 12 14  1  0
 12 15  1  0
 12 16  1  0
 13 17  1  0
M  RAD  1   2   2
M  END
>  <reaction>  (8) 
rxn_1844

>  <mol_properties>  (8) 
{"1": {"label": "*1", "atom_type": "Cs"}, "2": {"label": "*0", "atom_type": "S2s"}, "11": {"label": "*3", "atom_type": "Cs"}, "12": {"label": "*4", "atom_type": "S2s"}, "13": {"label": "*2", "atom_type": "H0"}}

>  <type>  (8) 
unop_4

>  <geom_source>  (8) 
Heuristics

$$$$

     RDKit          3D

 17 15  0  0  0  0  0  0  0  0999 V2000
    0.2536    0.6004    2.4155 C   0  0  0  0  0  0  0  0  0  0  0  0
    0.2536    0.6659    0.8946 C   0  0  0  0  0  3  0  0  0  0  0  0
   -1.3112    1.3433    0.2395 S   0  0  0  0  0  0  0  0  0  0  0  0
    1.4670    1.4080    0.3520 C   0  0  0  0  0  0  0  0  0  0  0  0
   -0.6048    0.0428    2.7885 H   0  0  0  0  0  0  0  0  0  0  0  0
    0.2175    1.6056    2.8427 H   0  0  0  0  0  0  0  0  0  0  0  0
    1.1662    0.1172    2.7739 H   0  0  0  0  0  0  0  0  0  0  0  0
   -1.1907    2.5614    0.7871 H   0  0  0  0  0  0  0  0  0  0  0  0
    2.3881    0.9304    0.6959 H   0  0  0  0  0  0  0  0  0  0  0  0
    1.4686    1.4225   -0.7374 H   0  0  0  0  0  0  0  0  0  0  0  0
    1.4742    2.4419    0.7057 H   0  0  0  0  0  0  0  0  0  0  0  0
    0.2536   -1.7713   -0.0592 C   0  0  0  0  0  0  0  0  0  0  0  0
    0.2536   -1.7713   -1.8698 S   0  0  0  0  0  0  0  0  0  0  0  0
    0.2536   -0.5555    0.4166 H   0  0  0  0  0  0  0  0  0  0  0  0
   -0.6671   -2.2655    0.2468 H   0  0  0  0  0  0  0  0  0  0  0  0
    1.0979   -2.3313    0.3373 H   0  0  0  0  0  0  0  0  0  0  0  0
    1.4239   -1.1432   -2.0362 H   0  0  0  0  0  0  0  0  0  0  0  0
  1  2  1  0
  1  5  1  0
  1  6  1  0
  1  7  1  0
  2  4  1  0
  2  3  1  0
  3  8  1  0
  4  9  1  0
  4 10  1  0
  4 11  1  0
 12 13  1  0
 12 14  1  0
 12 15  1  0
 12 16  1  0
 13 17  1  0
M  RAD  1   2   2
M  END
>  <reaction>  (9) 
rxn_1844

>  <mol_properties>  (9) 
{"1": {"label": "*1", "atom_type": "Cs"}, "2": {"label": "*0", "atom_type": "S2s"}, "11": {"label": "*3", "atom_type": "Cs"}, "12": {"label": "*4", "atom_type": "S2s"}, "13": {"label": "*2", "atom_type": "H0"}}

>  <type>  (9) 
unop_5

>  <geom_source>  (9) 
Heuristics

$$$$

     RDKit          3D

 17 15  0  0  0  0  0  0  0  0999 V2000
    1.5018    1.5144    0.6665 C   0  0  0  0  0  0  0  0  0  0  0  0
    0.0616    1.0550    0.4867 C   0  0  0  0  0  3  0  0  0  0  0  0
   -0.4306   -0.1637    1.7552 S   0  0  0  0  0  0  0  0  0  0  0  0
   -0.9093    2.2253    0.4139 C   0  0  0  0  0  0  0  0  0  0  0  0
    2.1881    0.6686    0.6886 H   0  0  0  0  0  0  0  0  0  0  0  0
    1.6141    2.0676    1.6022 H   0  0  0  0  0  0  0  0  0  0  0  0
    1.7925    2.1784   -0.1516 H   0  0  0  0  0  0  0  0  0  0  0  0
   -0.3001    0.6537    2.8102 H   0  0  0  0  0  0  0  0  0  0  0  0
   -0.6354    2.8943   -0.4060 H   0  0  0  0  0  0  0  0  0  0  0  0
   -1.9317    1.8833    0.2570 H   0  0  0  0  0  0  0  0  0  0  0  0
   -0.8830    2.8038    1.3406 H   0  0  0  0  0  0  0  0  0  0  0  0
    0.0616   -1.3822   -0.4670 C   0  0  0  0  0  0  0  0  0  0  0  0
    0.0616   -1.3822   -2.2776 S   0  0  0  0  0  0  0  0  0  0  0  0
    0.0616   -0.1664    0.0088 H   0  0  0  0  0  0  0  0  0  0  0  0
   -0.8591   -1.8764   -0.1610 H   0  0  0  0  0  0  0  0  0  0  0  0
    0.9060   -1.9422   -0.0705 H   0  0  0  0  0  0  0  0  0  0  0  0
    1.2319   -0.7541   -2.4440 H   0  0  0  0  0  0  0  0  0  0  0  0
  1  2  1  0
  1  5  1  0
  1  6  1  0
  1  7  1  0
  2  4  1  0
  2  3  1  0
  3  8  1  0
  4  9  1  0
  4 10  1  0
  4 11  1  0
 12 13  1  0
 12 14  1  0
 12 15  1  0
 12 16  1  0
 13 17  1  0
M  RAD  1   2   2
M  END
>  <reaction>  (10) 
rxn_1844

>  <mol_properties>  (10) 
{"1": {"label": "*1", "atom_type": "Cs"}, "2": {"label": "*0", "atom_type": "S2s"}, "11": {"label": "*3", "atom_type": "Cs"}, "12": {"label": "*4", "atom_type": "S2s"}, "13": {"label": "*2", "atom_type": "H0"}}

>  <type>  (10) 
unop_6

>  <geom_source>  (10) 
Heuristics

$$$$

     RDKit          3D

 17 15  0  0  0  0  0  0  0  0999 V2000
    1.4885    1.2200    1.4170 C   0  0  0  0  0  0  0  0  0  0  0  0
    0.2412    1.0230    0.5667 C   0  0  0  0  0  3  0  0  0  0  0  0
   -0.9991   -0.0241    1.4045 S   0  0  0  0  0  0  0  0  0  0  0  0
   -0.3510    2.3460    0.1012 C   0  0  0  0  0  0  0  0  0  0  0  0
    1.9173    0.2652    1.7192 H   0  0  0  0  0  0  0  0  0  0  0  0
    1.2512    1.7871    2.3205 H   0  0  0  0  0  0  0  0  0  0  0  0
    2.2429    1.7803    0.8588 H   0  0  0  0  0  0  0  0  0  0  0  0
   -1.2277    0.8049    2.4335 H   0  0  0  0  0  0  0  0  0  0  0  0
    0.3906    2.9142   -0.4662 H   0  0  0  0  0  0  0  0  0  0  0  0
   -1.2257    2.1891   -0.5290 H   0  0  0  0  0  0  0  0  0  0  0  0
   -0.6538    2.9532    0.9578 H   0  0  0  0  0  0  0  0  0  0  0  0
    0.2412   -1.4142   -0.3871 C   0  0  0  0  0  0  0  0  0  0  0  0
    0.2412   -1.4142   -2.1977 S   0  0  0  0  0  0  0  0  0  0  0  0
    0.2412   -0.1984    0.0887 H   0  0  0  0  0  0  0  0  0  0  0  0
   -0.6795   -1.9084   -0.0811 H   0  0  0  0  0  0  0  0  0  0  0  0
    1.0856   -1.9742    0.0094 H   0  0  0  0  0  0  0  0  0  0  0  0
    1.4115   -0.7861   -2.3641 H   0  0  0  0  0  0  0  0  0  0  0  0
  1  2  1  0
  1  5  1  0
  1  6  1  0
  1  7  1  0
  2  4  1  0
  2  3  1  0
  3  8  1  0
  4  9  1  0
  4 10  1  0
  4 11  1  0
 12 13  1  0
 12 14  1  0
 12 15  1  0
 12 16  1  0
 13 17  1  0
M  RAD  1   2   2
M  END
>  <reaction>  (11) 
rxn_1844

>  <mol_properties>  (11) 
{"1": {"label": "*1", "atom_type": "Cs"}, "2": {"label": "*0", "atom_type": "S2s"}, "11": {"label": "*3", "atom_type": "Cs"}, "12": {"label": "*4", "atom_type": "S2s"}, "13": {"label": "*2", "atom_type": "H0"}}

>  <type>  (11) 
unop_7

>  <geom_source>  (11) 
Heuristics

$$$$

     RDKit          3D

 17 15  0  0  0  0  0  0  0  0999 V2000
   -1.6265    1.0751    0.9336 C   0  0  0  0  0  0  0  0  0  0  0  0
   -0.1863    0.6158    0.7539 C   0  0  0  0  0  3  0  0  0  0  0  0
    0.9422    2.0151    0.4301 S   0  0  0  0  0  0  0  0  0  0  0  0
    0.2912   -0.2442    1.9157 C   0  0  0  0  0  0  0  0  0  0  0  0
   -1.9637    1.6654    0.0823 H   0  0  0  0  0  0  0  0  0  0  0  0
   -1.7241    1.6887    1.8326 H   0  0  0  0  0  0  0  0  0  0  0  0
   -2.2883    0.2122    1.0441 H   0  0  0  0  0  0  0  0  0  0  0  0
    0.7627    2.6308    1.6078 H   0  0  0  0  0  0  0  0  0  0  0  0
   -0.3572   -1.1163    2.0330 H   0  0  0  0  0  0  0  0  0  0  0  0
    1.3130   -0.5889    1.7604 H   0  0  0  0  0  0  0  0  0  0  0  0
    0.2619    0.3223    2.8497 H   0  0  0  0  0  0  0  0  0  0  0  0
   -0.1863   -1.8215   -0.1999 C   0  0  0  0  0  0  0  0  0  0  0  0
   -0.1863   -1.8215   -2.0105 S   0  0  0  0  0  0  0  0  0  0  0  0
   -0.1863   -0.6056    0.2759 H   0  0  0  0  0  0  0  0  0  0  0  0
   -1.1070   -2.3156    0.1061 H   0  0  0  0  0  0  0  0  0  0  0  0
    0.6581   -2.3815    0.1966 H   0  0  0  0  0  0  0  0  0  0  0  0
    0.9840   -1.1933   -2.1769 H   0  0  0  0  0  0  0  0  0  0  0  0
  1  2  1  0
  1  5  1  0
  1  6  1  0
  1  7  1  0
  2  4  1  0
  2  3  1  0
  3  8  1  0
  4  9  1  0
  4 10  1  0
  4 11  1  0
 12 13  1  0
 12 14  1  0
 12 15  1  0
 12 16  1  0
 13 17  1  0
M  RAD  1   2   2
M  END
>  <reaction>  (12) 
rxn_1844

>  <mol_properties>  (12) 
{"1": {"label": "*1", "atom_type": "Cs"}, "2": {"label": "*0", "atom_type": "S2s"}, "11": {"label": "*3", "atom_type": "Cs"}, "12": {"label": "*4", "atom_type": "S2s"}, "13": {"label": "*2", "atom_type": "H0"}}

>  <type>  (12) 
unop_8

>  <geom_source>  (12) 
Heuristics

$$$$

     RDKit          3D

 17 15  0  0  0  0  0  0  0  0999 V2000
    0.4768    1.8133   -0.4352 C   0  0  0  0  0  0  0  0  0  0  0  0
   -0.2433    0.8994    0.5465 C   0  0  0  0  0  3  0  0  0  0  0  0
    0.8754    0.2807    1.8512 S   0  0  0  0  0  0  0  0  0  0  0  0
   -1.4909    1.5503    1.1273 C   0  0  0  0  0  0  0  0  0  0  0  0
    1.3510    1.3246   -0.8640 H   0  0  0  0  0  0  0  0  0  0  0  0
    0.8088    2.7269    0.0639 H   0  0  0  0  0  0  0  0  0  0  0  0
   -0.1955    2.1014   -1.2476 H   0  0  0  0  0  0  0  0  0  0  0  0
    1.1486    1.4750    2.3963 H   0  0  0  0  0  0  0  0  0  0  0  0
   -2.1769    1.8365    0.3259 H   0  0  0  0  0  0  0  0  0  0  0  0
   -2.0112    0.8752    1.8059 H   0  0  0  0  0  0  0  0  0  0  0  0
   -1.2290    2.4545    1.6822 H   0  0  0  0  0  0  0  0  0  0  0  0
   -0.2433   -1.5378   -0.4072 C   0  0  0  0  0  0  0  0  0  0  0  0
   -0.2433   -1.5378   -2.2179 S   0  0  0  0  0  0  0  0  0  0  0  0
   -0.2433   -0.3220    0.0685 H   0  0  0  0  0  0  0  0  0  0  0  0
   -1.1640   -2.0319   -0.1013 H   0  0  0  0  0  0  0  0  0  0  0  0
    0.6011   -2.0978   -0.0108 H   0  0  0  0  0  0  0  0  0  0  0  0
    0.9270   -0.9097   -2.3843 H   0  0  0  0  0  0  0  0  0  0  0  0
  1  2  1  0
  1  5  1  0
  1  6  1  0
  1  7  1  0
  2  4  1  0
  2  3  1  0
  3  8  1  0
  4  9  1  0
  4 10  1  0
  4 11  1  0
 12 13  1  0
 12 14  1  0
 12 15  1  0
 12 16  1  0
 13 17  1  0
M  RAD  1   2   2
M  END
>  <reaction>  (13) 
rxn_1844

>  <mol_properties>  (13) 
{"1": {"label": "*1", "atom_type": "Cs"}, "2": {"label": "*0", "atom_type": "S2s"}, "11": {"label": "*3", "atom_type": "Cs"}, "12": {"label": "*4", "atom_type": "S2s"}, "13": {"label": "*2", "atom_type": "H0"}}

>  <type>  (13) 
unop_9

>  <geom_source>  (13) 
Heuristics

$$$$

     RDKit          3D

 17 15  0  0  0  0  0  0  0  0999 V2000
   -1.4470    1.3621    0.2181 C   0  0  0  0  0  0  0  0  0  0  0  0
   -0.1997    0.6403    0.7089 C   0  0  0  0  0  3  0  0  0  0  0  0
    1.2413    1.7582    0.8112 S   0  0  0  0  0  0  0  0  0  0  0  0
   -0.4417   -0.0985    2.0178 C   0  0  0  0  0  0  0  0  0  0  0  0
   -1.2673    1.8625   -0.7328 H   0  0  0  0  0  0  0  0  0  0  0  0
   -1.7650    2.1149    0.9435 H   0  0  0  0  0  0  0  0  0  0  0  0
   -2.2690    0.6532    0.0895 H   0  0  0  0  0  0  0  0  0  0  0  0
    0.7373    2.5703    1.7518 H   0  0  0  0  0  0  0  0  0  0  0  0
   -1.2567   -0.8176    1.9018 H   0  0  0  0  0  0  0  0  0  0  0  0
    0.4504   -0.6331    2.3423 H   0  0  0  0  0  0  0  0  0  0  0  0
   -0.7239    0.6023    2.8073 H   0  0  0  0  0  0  0  0  0  0  0  0
   -0.1997   -1.7969   -0.2448 C   0  0  0  0  0  0  0  0  0  0  0  0
   -0.1997   -1.7969   -2.0555 S   0  0  0  0  0  0  0  0  0  0  0  0
   -0.1997   -0.5811    0.2310 H   0  0  0  0  0  0  0  0  0  0  0  0
   -1.1204   -2.2911    0.0611 H   0  0  0  0  0  0  0  0  0  0  0  0
    0.6446   -2.3569    0.1517 H   0  0  0  0  0  0  0  0  0  0  0  0
    0.9706   -1.1688   -2.2219 H   0  0  0  0  0  0  0  0  0  0  0  0
  1  2  1  0
  1  5  1  0
  1  6  1  0
  1  7  1  0
  2  4  1  0
  2  3  1  0
  3  8  1  0
  4  9  1  0
  4 10  1  0
  4 11  1  0
 12 13  1  0
 12 14  1  0
 12 15  1  0
 12 16  1  0
 13 17  1  0
M  RAD  1   2   2
M  END
>  <reaction>  (14) 
rxn_1844

>  <mol_properties>  (14) 
{"1": {"label": "*1", "atom_type": "Cs"}, "2": {"label": "*0", "atom_type": "S2s"}, "11": {"label": "*3", "atom_type": "Cs"}, "12": {"label": "*4", "atom_type": "S2s"}, "13": {"label": "*2", "atom_type": "H0"}}

>  <type>  (14) 
unop_10

>  <geom_source>  (14) 
Heuristics

$$$$

     RDKit          3D

 17 15  0  0  0  0  0  0  0  0999 V2000
    1.0705    0.8934    2.0628 C   0  0  0  0  0  0  0  0  0  0  0  0
    0.3504    0.8886    0.7215 C   0  0  0  0  0  3  0  0  0  0  0  0
   -1.4104    0.4339    0.8926 S   0  0  0  0  0  0  0  0  0  0  0  0
    0.5298    2.1997   -0.0311 C   0  0  0  0  0  0  0  0  0  0  0  0
    0.9572   -0.0602    2.5772 H   0  0  0  0  0  0  0  0  0  0  0  0
    0.6710    1.6782    2.7098 H   0  0  0  0  0  0  0  0  0  0  0  0
    2.1365    1.0883    1.9197 H   0  0  0  0  0  0  0  0  0  0  0  0
   -1.7673    1.4872    1.6419 H   0  0  0  0  0  0  0  0  0  0  0  0
    1.5920    2.4036   -0.1888 H   0  0  0  0  0  0  0  0  0  0  0  0
    0.0333    2.1717   -1.0004 H   0  0  0  0  0  0  0  0  0  0  0  0
    0.1110    3.0310    0.5414 H   0  0  0  0  0  0  0  0  0  0  0  0
    0.3504   -1.5487   -0.2322 C   0  0  0  0  0  0  0  0  0  0  0  0
    0.3504   -1.5487   -2.0429 S   0  0  0  0  0  0  0  0  0  0  0  0
    0.3504   -0.3328    0.2436 H   0  0  0  0  0  0  0  0  0  0  0  0
   -0.5703   -2.0428    0.0737 H   0  0  0  0  0  0  0  0  0  0  0  0
    1.1948   -2.1087    0.1643 H   0  0  0  0  0  0  0  0  0  0  0  0
    1.5207   -0.9205   -2.2093 H   0  0  0  0  0  0  0  0  0  0  0  0
  1  2  1  0
  1  5  1  0
  1  6  1  0
  1  7  1  0
  2  4  1  0
  2  3  1  0
  3  8  1  0
  4  9  1  0
  4 10  1  0
  4 11  1  0
 12 13  1  0
 12 14  1  0
 12 15  1  0
 12 16  1  0
 13 17  1  0
M  RAD  1   2   2
M  END
>  <reaction>  (15) 
rxn_1844

>  <mol_properties>  (15) 
{"1": {"label": "*1", "atom_type": "Cs"}, "2": {"label": "*0", "atom_type": "S2s"}, "11": {"label": "*3", "atom_type": "Cs"}, "12": {"label": "*4", "atom_type": "S2s"}, "13": {"label": "*2", "atom_type": "H0"}}

>  <type>  (15) 
unop_11

>  <geom_source>  (15) 
Heuristics

$$$$

     RDKit          3D

 17 15  0  0  0  0  0  0  0  0999 V2000
   -0.2715    1.7549   -0.5346 C   0  0  0  0  0  0  0  0  0  0  0  0
   -0.2715    0.7707    0.6268 C   0  0  0  0  0  3  0  0  0  0  0  0
    1.2933    0.8235    1.5677 S   0  0  0  0  0  0  0  0  0  0  0  0
   -1.4849    0.9474    1.5290 C   0  0  0  0  0  0  0  0  0  0  0  0
    0.5868    1.5985   -1.1870 H   0  0  0  0  0  0  0  0  0  0  0  0
   -0.2355    2.7830   -0.1662 H   0  0  0  0  0  0  0  0  0  0  0  0
   -1.1841    1.6432   -1.1257 H   0  0  0  0  0  0  0  0  0  0  0  0
    1.1727    2.0898    1.9923 H   0  0  0  0  0  0  0  0  0  0  0  0
   -2.4060    0.8301    0.9522 H   0  0  0  0  0  0  0  0  0  0  0  0
   -1.4865    0.2187    2.3389 H   0  0  0  0  0  0  0  0  0  0  0  0
   -1.4921    1.9467    1.9709 H   0  0  0  0  0  0  0  0  0  0  0  0
   -0.2715   -1.6665   -0.3269 C   0  0  0  0  0  0  0  0  0  0  0  0
   -0.2715   -1.6665   -2.1376 S   0  0  0  0  0  0  0  0  0  0  0  0
   -0.2715   -0.4507    0.1489 H   0  0  0  0  0  0  0  0  0  0  0  0
   -1.1922   -2.1607   -0.0210 H   0  0  0  0  0  0  0  0  0  0  0  0
    0.5729   -2.2265    0.0696 H   0  0  0  0  0  0  0  0  0  0  0  0
    0.8988   -1.0384   -2.3040 H   0  0  0  0  0  0  0  0  0  0  0  0
  1  2  1  0
  1  5  1  0
  1  6  1  0
  1  7  1  0
  2  4  1  0
  2  3  1  0
  3  8  1  0
  4  9  1  0
  4 10  1  0
  4 11  1  0
 12 13  1  0
 12 14  1  0
 12 15  1  0
 12 16  1  0
 13 17  1  0
M  RAD  1   2   2
M  END
>  <reaction>  (16) 
rxn_1844

>  <mol_properties>  (16) 
{"1": {"label": "*1", "atom_type": "Cs"}, "2": {"label": "*0", "atom_type": "S2s"}, "11": {"label": "*3", "atom_type": "Cs"}, "12": {"label": "*4", "atom_type": "S2s"}, "13": {"label": "*2", "atom_type": "H0"}}

>  <type>  (16) 
unop_12

>  <geom_source>  (16) 
Heuristics

$$$$

     RDKit          3D

 17 15  0  0  0  0  0  0  0  0999 V2000
   -0.1001    1.2663   -1.5059 S   0  0  0  0  0  0  0  0  0  0  0  0
    3.0420    0.6224    1.0481 S   0  0  0  0  0  0  0  0  0  0  0  0
   -0.5886    0.0172   -0.2712 C   0  0  0  0  0  3  0  0  0  0  0  0
   -1.3144    0.6875    0.8943 C   0  0  0  0  0  0  0  0  0  0  0  0
   -1.4716   -1.0395   -0.9306 C   0  0  0  0  0  0  0  0  0  0  0  0
    1.8367   -0.5757    0.4132 C   0  0  0  0  0  0  0  0  0  0  0  0
    0.5345   -0.5891    0.2014 H   0  0  0  0  0  0  0  0  0  0  0  0
   -1.5978   -0.0718    1.6536 H   0  0  0  0  0  0  0  0  0  0  0  0
   -0.6458    1.4295    1.3790 H   0  0  0  0  0  0  0  0  0  0  0  0
   -2.2309    1.2055    0.5387 H   0  0  0  0  0  0  0  0  0  0  0  0
   -0.9179   -1.5265   -1.7608 H   0  0  0  0  0  0  0  0  0  0  0  0
   -2.3981   -0.5789   -1.3358 H   0  0  0  0  0  0  0  0  0  0  0  0
   -1.7475   -1.8207   -0.1910 H   0  0  0  0  0  0  0  0  0  0  0  0
    2.1726   -0.9536   -0.5746 H   0  0  0  0  0  0  0  0  0  0  0  0
    1.7511   -1.4244    1.1225 H   0  0  0  0  0  0  0  0  0  0  0  0
    0.8493    1.8538   -0.6481 H   0  0  0  0  0  0  0  0  0  0  0  0
    2.8266    1.4979   -0.0327 H   0  0  0  0  0  0  0  0  0  0  0  0
  1  3  1  0
  1 16  1  0
  2  6  1  0
  2 17  1  0
  3  4  1  0
  3  5  1  0
  4  8  1  0
  4  9  1  0
  4 10  1  0
  5 11  1  0
  5 12  1  0
  5 13  1  0
  6  7  1  0
  6 14  1  0
  6 15  1  0
M  RAD  1   3   2
M  END
>  <reaction>  (17) 
rxn_1844

>  <mol_properties>  (17) 
{"1": {"label": "*1", "atom_type": "Cs"}, "2": {"label": "*0", "atom_type": "S2s"}, "11": {"label": "*3", "atom_type": "Cs"}, "12": {"label": "*4", "atom_type": "S2s"}, "13": {"label": "*2", "atom_type": "H0"}}

>  <type>  (17) 
unop_13

>  <geom_source>  (17) 
AutoTST

$$$$
