
     RDKit          3D

 13 12  0  0  0  0  0  0  0  0999 V2000
    2.2975   -0.6134    0.7685 C   0  0  0  0  0  0  0  0  0  0  0  0
    1.1676   -0.5248    0.3802 C   0  0  0  0  0  0  0  0  0  0  0  0
   -0.2109   -0.3926   -0.0948 C   0  0  0  0  0  0  0  0  0  0  0  0
   -0.2501    0.2584   -1.4808 C   0  0  0  0  0  0  0  0  0  0  0  0
   -1.0633    0.3831    0.9141 C   0  0  0  0  0  0  0  0  0  0  0  0
    3.2999   -0.6974    1.1133 H   0  0  0  0  0  0  0  0  0  0  0  0
   -0.6209   -1.4038   -0.1814 H   0  0  0  0  0  0  0  0  0  0  0  0
    0.3402   -0.3102   -2.1992 H   0  0  0  0  0  0  0  0  0  0  0  0
    0.1511    1.2724   -1.4369 H   0  0  0  0  0  0  0  0  0  0  0  0
   -1.2791    0.3109   -1.8407 H   0  0  0  0  0  0  0  0  0  0  0  0
   -0.6861    1.4008    1.0287 H   0  0  0  0  0  0  0  0  0  0  0  0
   -1.0492   -0.0971    1.8924 H   0  0  0  0  0  0  0  0  0  0  0  0
   -2.0971    0.4363    0.5680 H   0  0  0  0  0  0  0  0  0  0  0  0
  1  2  3  0
  1  6  1  0
  2  3  1  0
  3  4  1  0
  3  5  1  0
  3  7  1  0
  4  8  1  0
  4  9  1  0
  4 10  1  0
  5 11  1  0
  5 12  1  0
  5 13  1  0
M  END
>  <reaction>  (1) 
rxn_1331

>  <mol_properties>  (1) 
{"2": {"label": "donator", "atom_type": "Cs"}, "6": {"label": "d_hydrogen", "atom_type": "H0"}}

>  <type>  (1) 
r1h

$$$$

     RDKit          3D

  9  8  0  0  0  0  0  0  0  0999 V2000
    2.3991   -0.1292   -0.2384 S   0  0  0  0  0  0  0  0  0  0  0  0
    0.7460    0.2807    0.0931 C   0  0  0  0  0  3  0  0  0  0  0  0
   -0.3131   -0.5719   -0.2043 C   0  0  0  0  0  0  0  0  0  0  0  0
   -0.2286   -1.8095   -0.7775 C   0  0  0  0  0  0  0  0  0  0  0  0
    2.9373    1.0009    0.2312 H   0  0  0  0  0  0  0  0  0  0  0  0
    0.5618    1.2421    0.5487 H   0  0  0  0  0  0  0  0  0  0  0  0
   -1.2978   -0.1954    0.0537 H   0  0  0  0  0  0  0  0  0  0  0  0
    0.7207   -2.2479   -1.0607 H   0  0  0  0  0  0  0  0  0  0  0  0
   -1.1177   -2.3938   -0.9670 H   0  0  0  0  0  0  0  0  0  0  0  0
  1  2  1  0
  1  5  1  0
  2  3  1  0
  2  6  1  0
  3  4  2  3
  3  7  1  0
  4  8  1  0
  4  9  1  0
M  RAD  1   2   2
M  END
>  <reaction>  (2) 
rxn_1331

>  <mol_properties>  (2) 
{"1": {"label": "acceptor", "atom_type": "Cs"}}

>  <type>  (2) 
r2

$$$$

     RDKit          3D

 10  9  0  0  0  0  0  0  0  0999 V2000
    2.2097   -0.5315    0.2575 S   0  0  0  0  0  0  0  0  0  0  0  0
    0.5401   -0.7188   -0.4494 C   0  0  0  0  0  0  0  0  0  0  0  0
   -0.5263   -0.1678    0.4365 C   0  0  0  0  0  0  0  0  0  0  0  0
   -1.3394    0.8185    0.0912 C   0  0  0  0  0  0  0  0  0  0  0  0
    2.1701    0.8016    0.3806 H   0  0  0  0  0  0  0  0  0  0  0  0
    0.4238   -1.7978   -0.5701 H   0  0  0  0  0  0  0  0  0  0  0  0
    0.5053   -0.2663   -1.4400 H   0  0  0  0  0  0  0  0  0  0  0  0
   -0.6005   -0.6141    1.4236 H   0  0  0  0  0  0  0  0  0  0  0  0
   -2.0960    1.1907    0.7700 H   0  0  0  0  0  0  0  0  0  0  0  0
   -1.2784    1.2877   -0.8850 H   0  0  0  0  0  0  0  0  0  0  0  0
  1  2  1  0
  1  5  1  0
  2  3  1  0
  2  6  1  0
  2  7  1  0
  3  4  2  3
  3  8  1  0
  4  9  1  0
  4 10  1  0
M  END
>  <reaction>  (3) 
rxn_1331

>  <mol_properties>  (3) 
{"0": {"label": "a_hydrogen", "atom_type": "H0"}, "2": {"label": "acceptor", "atom_type": "Cs"}}

>  <type>  (3) 
r2h

$$$$

     RDKit          3D

 22 20  0  0  0  0  0  0  0  0999 V2000
    0.7303    0.7565   -2.6585 C   0  0  0  0  0  0  0  0  0  0  0  0
    0.3419    1.0904   -1.5688 C   0  0  0  0  0  0  0  0  0  0  0  0
   -0.1155    1.4008   -0.2525 C   0  0  0  0  0  3  0  0  0  0  0  0
   -1.5827    1.7562   -0.1452 C   0  0  0  0  0  0  0  0  0  0  0  0
    0.8266    2.2399    0.5828 C   0  0  0  0  0  0  0  0  0  0  0  0
    1.0690    0.4945   -3.6318 H   0  0  0  0  0  0  0  0  0  0  0  0
   -0.0579    0.1842    0.3388 H   0  0  0  0  0  0  0  0  0  0  0  0
   -2.2021    1.0281   -0.6686 H   0  0  0  0  0  0  0  0  0  0  0  0
   -1.7767    2.7433   -0.5757 H   0  0  0  0  0  0  0  0  0  0  0  0
   -1.8875    1.7806    0.9030 H   0  0  0  0  0  0  0  0  0  0  0  0
    0.8564    3.2709    0.2176 H   0  0  0  0  0  0  0  0  0  0  0  0
    1.8391    1.8377    0.5552 H   0  0  0  0  0  0  0  0  0  0  0  0
    0.4906    2.2605    1.6214 H   0  0  0  0  0  0  0  0  0  0  0  0
    1.7388   -1.4650    0.7446 S   0  0  0  0  0  0  0  0  0  0  0  0
    0.0147   -1.0382    0.8779 C   0  0  0  0  0  0  0  0  0  0  0  0
   -0.9701   -1.8350    0.1492 C   0  0  0  0  0  0  0  0  0  0  0  0
   -2.2260   -2.0262    0.5517 C   0  0  0  0  0  0  0  0  0  0  0  0
    1.8354   -1.2762   -0.5807 H   0  0  0  0  0  0  0  0  0  0  0  0
   -0.2333   -0.8518    1.9215 H   0  0  0  0  0  0  0  0  0  0  0  0
   -0.6484   -2.2402   -0.8056 H   0  0  0  0  0  0  0  0  0  0  0  0
   -2.5832   -1.6367    1.4987 H   0  0  0  0  0  0  0  0  0  0  0  0
   -2.9310   -2.5833   -0.0510 H   0  0  0  0  0  0  0  0  0  0  0  0
  1  2  3  0
  1  6  1  0
  2  3  1  0
  3  4  1  0
  3  5  1  0
  4  8  1  0
  4  9  1  0
  4 10  1  0
  5 11  1  0
  5 12  1  0
  5 13  1  0
  7 15  1  0
 14 15  1  0
 14 18  1  0
 15 16  1  0
 15 19  1  0
 16 17  2  3
 16 20  1  0
 17 21  1  0
 17 22  1  0
M  RAD  1   3   2
M  END
>  <reaction>  (4) 
rxn_1331

>  <mol_properties>  (4) 
{"1": {"label": "*4", "atom_type": "Ct"}, "2": {"label": "*3", "atom_type": "Cs"}, "6": {"label": "*2", "atom_type": "H0"}, "13": {"label": "*0", "atom_type": "S2s"}, "14": {"label": "*1", "atom_type": "Cs"}}

>  <type>  (4) 
ts

$$$$

     RDKit          3D

 22 20  0  0  0  0  0  0  0  0999 V2000
   -0.1382    1.4767   -2.9969 C   0  0  0  0  0  0  0  0  0  0  0  0
   -0.1382    1.4767   -1.7988 C   0  0  0  0  0  0  0  0  0  0  0  0
   -0.1382    1.5006   -0.3350 C   0  0  0  0  0  3  0  0  0  0  0  0
   -1.4043    2.1771    0.1993 C   0  0  0  0  0  0  0  0  0  0  0  0
    1.1280    2.1770    0.1993 C   0  0  0  0  0  0  0  0  0  0  0  0
   -0.1382    1.4767   -4.0602 H   0  0  0  0  0  0  0  0  0  0  0  0
   -0.1382    0.2520    0.0729 H   0  0  0  0  0  0  0  0  0  0  0  0
   -2.3013    1.6778   -0.1666 H   0  0  0  0  0  0  0  0  0  0  0  0
   -1.4416    3.2206   -0.1182 H   0  0  0  0  0  0  0  0  0  0  0  0
   -1.4116    2.1491    1.2904 H   0  0  0  0  0  0  0  0  0  0  0  0
    1.1653    3.2206   -0.1182 H   0  0  0  0  0  0  0  0  0  0  0  0
    2.0250    1.6777   -0.1666 H   0  0  0  0  0  0  0  0  0  0  0  0
    1.1353    2.1490    1.2904 H   0  0  0  0  0  0  0  0  0  0  0  0
    1.3935   -1.1382    1.4572 S   0  0  0  0  0  0  0  0  0  0  0  0
   -0.1382   -0.9935    0.4797 C   0  0  0  0  0  0  0  0  0  0  0  0
   -0.6194   -2.3082   -0.0359 C   0  0  0  0  0  0  0  0  0  0  0  0
   -1.7919   -2.8403    0.2729 C   0  0  0  0  0  0  0  0  0  0  0  0
    0.9081   -1.9916    2.3683 H   0  0  0  0  0  0  0  0  0  0  0  0
   -0.9066   -0.4936    1.0685 H   0  0  0  0  0  0  0  0  0  0  0  0
    0.0660   -2.8420   -0.6872 H   0  0  0  0  0  0  0  0  0  0  0  0
   -2.4897   -2.3318    0.9296 H   0  0  0  0  0  0  0  0  0  0  0  0
   -2.0972   -3.8013   -0.1208 H   0  0  0  0  0  0  0  0  0  0  0  0
  1  2  3  0
  1  6  1  0
  2  3  1  0
  3  4  1  0
  3  5  1  0
  4  8  1  0
  4  9  1  0
  4 10  1  0
  5 11  1  0
  5 12  1  0
  5 13  1  0
  7 15  1  0
 14 15  1  0
 14 18  1  0
 15 16  1  0
 15 19  1  0
 16 17  2  3
 16 20  1  0
 17 21  1  0
 17 22  1  0
M  RAD  1   3   2
M  END
>  <reaction>  (5) 
rxn_1331

>  <mol_properties>  (5) 
{"1": {"label": "*4", "atom_type": "Ct"}, "2": {"label": "*3", "atom_type": "Cs"}, "6": {"label": "*2", "atom_type": "H0"}, "13": {"label": "*0", "atom_type": "S2s"}, "14": {"label": "*1", "atom_type": "Cs"}}

>  <type>  (5) 
unop_1

>  <geom_source>  (5) 
Heuristics

$$$$

     RDKit          3D

 22 20  0  0  0  0  0  0  0  0999 V2000
    0.0356    1.5308   -2.7542 C   0  0  0  0  0  0  0  0  0  0  0  0
    0.0356    1.5308   -1.5561 C   0  0  0  0  0  0  0  0  0  0  0  0
    0.0356    1.5548   -0.0923 C   0  0  0  0  0  3  0  0  0  0  0  0
   -1.2305    2.2313    0.4421 C   0  0  0  0  0  0  0  0  0  0  0  0
    1.3017    2.2312    0.4421 C   0  0  0  0  0  0  0  0  0  0  0  0
    0.0356    1.5308   -3.8175 H   0  0  0  0  0  0  0  0  0  0  0  0
    0.0356    0.3061    0.3156 H   0  0  0  0  0  0  0  0  0  0  0  0
   -2.1276    1.7320    0.0761 H   0  0  0  0  0  0  0  0  0  0  0  0
   -1.2678    3.2748    0.1245 H   0  0  0  0  0  0  0  0  0  0  0  0
   -1.2378    2.2033    1.5331 H   0  0  0  0  0  0  0  0  0  0  0  0
    1.3391    3.2747    0.1245 H   0  0  0  0  0  0  0  0  0  0  0  0
    2.1988    1.7319    0.0761 H   0  0  0  0  0  0  0  0  0  0  0  0
    1.3091    2.2032    1.5331 H   0  0  0  0  0  0  0  0  0  0  0  0
    0.9199   -1.8342   -0.5965 S   0  0  0  0  0  0  0  0  0  0  0  0
    0.0356   -0.9394    0.7225 C   0  0  0  0  0  0  0  0  0  0  0  0
   -1.1557   -1.6834    1.2253 C   0  0  0  0  0  0  0  0  0  0  0  0
   -1.3011   -2.0891    2.4774 C   0  0  0  0  0  0  0  0  0  0  0  0
    1.1682   -2.9410    0.1157 H   0  0  0  0  0  0  0  0  0  0  0  0
    0.7240   -0.6999    1.5323 H   0  0  0  0  0  0  0  0  0  0  0  0
   -1.9227   -1.9042    0.4891 H   0  0  0  0  0  0  0  0  0  0  0  0
   -0.5446   -1.8901    3.2289 H   0  0  0  0  0  0  0  0  0  0  0  0
   -2.1814   -2.6321    2.7965 H   0  0  0  0  0  0  0  0  0  0  0  0
  1  2  3  0
  1  6  1  0
  2  3  1  0
  3  4  1  0
  3  5  1  0
  4  8  1  0
  4  9  1  0
  4 10  1  0
  5 11  1  0
  5 12  1  0
  5 13  1  0
  7 15  1  0
 14 15  1  0
 14 18  1  0
 15 16  1  0
 15 19  1  0
 16 17  2  3
 16 20  1  0
 17 21  1  0
 17 22  1  0
M  RAD  1   3   2
M  END
>  <reaction>  (6) 
rxn_1331

>  <mol_properties>  (6) 
{"1": {"label": "*4", "atom_type": "Ct"}, "2": {"label": "*3", "atom_type": "Cs"}, "6": {"label": "*2", "atom_type": "H0"}, "13": {"label": "*0", "atom_type": "S2s"}, "14": {"label": "*1", "atom_type": "Cs"}}

>  <type>  (6) 
unop_2

>  <geom_source>  (6) 
Heuristics

$$$$

     RDKit          3D

 22 20  0  0  0  0  0  0  0  0999 V2000
   -0.1541    1.4561   -3.0224 C   0  0  0  0  0  0  0  0  0  0  0  0
   -0.1541    1.4561   -1.8243 C   0  0  0  0  0  0  0  0  0  0  0  0
   -0.1541    1.4801   -0.3605 C   0  0  0  0  0  3  0  0  0  0  0  0
   -1.4202    2.1565    0.1738 C   0  0  0  0  0  0  0  0  0  0  0  0
    1.1121    2.1565    0.1738 C   0  0  0  0  0  0  0  0  0  0  0  0
   -0.1541    1.4561   -4.0857 H   0  0  0  0  0  0  0  0  0  0  0  0
   -0.1541    0.2314    0.0474 H   0  0  0  0  0  0  0  0  0  0  0  0
   -2.3172    1.6572   -0.1921 H   0  0  0  0  0  0  0  0  0  0  0  0
   -1.4575    3.2001   -0.1437 H   0  0  0  0  0  0  0  0  0  0  0  0
   -1.4275    2.1285    1.2649 H   0  0  0  0  0  0  0  0  0  0  0  0
    1.1494    3.2000   -0.1437 H   0  0  0  0  0  0  0  0  0  0  0  0
    2.0091    1.6572   -0.1921 H   0  0  0  0  0  0  0  0  0  0  0  0
    1.1194    2.1285    1.2649 H   0  0  0  0  0  0  0  0  0  0  0  0
    0.7302   -0.9577    2.0471 S   0  0  0  0  0  0  0  0  0  0  0  0
   -0.1541   -1.0141    0.4542 C   0  0  0  0  0  0  0  0  0  0  0  0
    0.1085   -2.2700   -0.3069 C   0  0  0  0  0  0  0  0  0  0  0  0
   -0.8298   -3.1410   -0.6447 C   0  0  0  0  0  0  0  0  0  0  0  0
    0.1996   -2.0794    2.5512 H   0  0  0  0  0  0  0  0  0  0  0  0
   -1.2210   -0.8660    0.6184 H   0  0  0  0  0  0  0  0  0  0  0  0
    1.1455   -2.4584   -0.5680 H   0  0  0  0  0  0  0  0  0  0  0  0
   -1.8711   -2.9808   -0.3864 H   0  0  0  0  0  0  0  0  0  0  0  0
   -0.5917   -4.0435   -1.1929 H   0  0  0  0  0  0  0  0  0  0  0  0
  1  2  3  0
  1  6  1  0
  2  3  1  0
  3  4  1  0
  3  5  1  0
  4  8  1  0
  4  9  1  0
  4 10  1  0
  5 11  1  0
  5 12  1  0
  5 13  1  0
  7 15  1  0
 14 15  1  0
 14 18  1  0
 15 16  1  0
 15 19  1  0
 16 17  2  3
 16 20  1  0
 17 21  1  0
 17 22  1  0
M  RAD  1   3   2
M  END
>  <reaction>  (7) 
rxn_1331

>  <mol_properties>  (7) 
{"1": {"label": "*4", "atom_type": "Ct"}, "2": {"label": "*3", "atom_type": "Cs"}, "6": {"label": "*2", "atom_type": "H0"}, "13": {"label": "*0", "atom_type": "S2s"}, "14": {"label": "*1", "atom_type": "Cs"}}

>  <type>  (7) 
unop_3

>  <geom_source>  (7) 
Heuristics

$$$$

     RDKit          3D

 22 20  0  0  0  0  0  0  0  0999 V2000
    0.3372    1.2185   -3.0449 C   0  0  0  0  0  0  0  0  0  0  0  0
    0.3372    1.2185   -1.8468 C   0  0  0  0  0  0  0  0  0  0  0  0
    0.3372    1.2424   -0.3830 C   0  0  0  0  0  3  0  0  0  0  0  0
   -0.9289    1.9189    0.1513 C   0  0  0  0  0  0  0  0  0  0  0  0
    1.6033    1.9188    0.1513 C   0  0  0  0  0  0  0  0  0  0  0  0
    0.3372    1.2185   -4.1082 H   0  0  0  0  0  0  0  0  0  0  0  0
    0.3372   -0.0062    0.0248 H   0  0  0  0  0  0  0  0  0  0  0  0
   -1.8260    1.4196   -0.2146 H   0  0  0  0  0  0  0  0  0  0  0  0
   -0.9662    2.9624   -0.1662 H   0  0  0  0  0  0  0  0  0  0  0  0
   -0.9362    1.8909    1.2424 H   0  0  0  0  0  0  0  0  0  0  0  0
    1.6407    2.9624   -0.1662 H   0  0  0  0  0  0  0  0  0  0  0  0
    2.5004    1.4195   -0.2146 H   0  0  0  0  0  0  0  0  0  0  0  0
    1.6107    1.8908    1.2424 H   0  0  0  0  0  0  0  0  0  0  0  0
   -1.1945   -1.9455   -0.2720 S   0  0  0  0  0  0  0  0  0  0  0  0
    0.3372   -1.2518    0.4317 C   0  0  0  0  0  0  0  0  0  0  0  0
    0.1248   -0.6233    1.7680 C   0  0  0  0  0  0  0  0  0  0  0  0
    0.7220   -1.0262    2.8790 C   0  0  0  0  0  0  0  0  0  0  0  0
   -1.4586   -2.7804    0.7415 H   0  0  0  0  0  0  0  0  0  0  0  0
    1.1065   -2.0221    0.4739 H   0  0  0  0  0  0  0  0  0  0  0  0
   -0.5821    0.2002    1.7979 H   0  0  0  0  0  0  0  0  0  0  0  0
    1.4241   -1.8531    2.8771 H   0  0  0  0  0  0  0  0  0  0  0  0
    0.5327   -0.5432    3.8290 H   0  0  0  0  0  0  0  0  0  0  0  0
  1  2  3  0
  1  6  1  0
  2  3  1  0
  3  4  1  0
  3  5  1  0
  4  8  1  0
  4  9  1  0
  4 10  1  0
  5 11  1  0
  5 12  1  0
  5 13  1  0
  7 15  1  0
 14 15  1  0
 14 18  1  0
 15 16  1  0
 15 19  1  0
 16 17  2  3
 16 20  1  0
 17 21  1  0
 17 22  1  0
M  RAD  1   3   2
M  END
>  <reaction>  (8) 
rxn_1331

>  <mol_properties>  (8) 
{"1": {"label": "*4", "atom_type": "Ct"}, "2": {"label": "*3", "atom_type": "Cs"}, "6": {"label": "*2", "atom_type": "H0"}, "13": {"label": "*0", "atom_type": "S2s"}, "14": {"label": "*1", "atom_type": "Cs"}}

>  <type>  (8) 
unop_4

>  <geom_source>  (8) 
Heuristics

$$$$

     RDKit          3D

 22 20  0  0  0  0  0  0  0  0999 V2000
   -0.2216    1.3656   -3.0801 C   0  0  0  0  0  0  0  0  0  0  0  0
   -0.2216    1.3656   -1.8820 C   0  0  0  0  0  0  0  0  0  0  0  0
   -0.2216    1.3896   -0.4182 C   0  0  0  0  0  3  0  0  0  0  0  0
   -1.4877    2.0661    0.1161 C   0  0  0  0  0  0  0  0  0  0  0  0
    1.0445    2.0660    0.1161 C   0  0  0  0  0  0  0  0  0  0  0  0
   -0.2216    1.3656   -4.1434 H   0  0  0  0  0  0  0  0  0  0  0  0
   -0.2216    0.1409   -0.0103 H   0  0  0  0  0  0  0  0  0  0  0  0
   -2.3848    1.5668   -0.2498 H   0  0  0  0  0  0  0  0  0  0  0  0
   -1.5251    3.1096   -0.2014 H   0  0  0  0  0  0  0  0  0  0  0  0
   -1.4951    2.0381    1.2072 H   0  0  0  0  0  0  0  0  0  0  0  0
    1.0819    3.1095   -0.2014 H   0  0  0  0  0  0  0  0  0  0  0  0
    1.9416    1.5667   -0.2498 H   0  0  0  0  0  0  0  0  0  0  0  0
    1.0518    2.0380    1.2072 H   0  0  0  0  0  0  0  0  0  0  0  0
   -0.2217   -0.9746    2.2146 S   0  0  0  0  0  0  0  0  0  0  0  0
   -0.2217   -1.1046    0.3965 C   0  0  0  0  0  0  0  0  0  0  0  0
    0.9695   -1.8327   -0.1295 C   0  0  0  0  0  0  0  0  0  0  0  0
    0.9019   -2.9552   -0.8286 C   0  0  0  0  0  0  0  0  0  0  0  0
   -0.1755   -2.2909    2.4576 H   0  0  0  0  0  0  0  0  0  0  0  0
   -1.1491   -1.5662    0.0590 H   0  0  0  0  0  0  0  0  0  0  0  0
    1.9351   -1.3974    0.1091 H   0  0  0  0  0  0  0  0  0  0  0  0
   -0.0500   -3.4154   -1.0709 H   0  0  0  0  0  0  0  0  0  0  0  0
    1.7945   -3.4528   -1.1855 H   0  0  0  0  0  0  0  0  0  0  0  0
  1  2  3  0
  1  6  1  0
  2  3  1  0
  3  4  1  0
  3  5  1  0
  4  8  1  0
  4  9  1  0
  4 10  1  0
  5 11  1  0
  5 12  1  0
  5 13  1  0
  7 15  1  0
 14 15  1  0
 14 18  1  0
 15 16  1  0
 15 19  1  0
 16 17  2  3
 16 20  1  0
 17 21  1  0
 17 22  1  0
M  RAD  1   3   2
M  END
>  <reaction>  (9) 
rxn_1331

>  <mol_properties>  (9) 
{"1": {"label": "*4", "atom_type": "Ct"}, "2": {"label": "*3", "atom_type": "Cs"}, "6": {"label": "*2", "atom_type": "H0"}, "13": {"label": "*0", "atom_type": "S2s"}, "14": {"label": "*1", "atom_type": "Cs"}}

>  <type>  (9) 
unop_5

>  <geom_source>  (9) 
Heuristics

$$$$

     RDKit          3D

 22 20  0  0  0  0  0  0  0  0999 V2000
    0.2119    1.1375   -3.1802 C   0  0  0  0  0  0  0  0  0  0  0  0
    0.2119    1.1375   -1.9821 C   0  0  0  0  0  0  0  0  0  0  0  0
    0.2119    1.1615   -0.5183 C   0  0  0  0  0  3  0  0  0  0  0  0
   -1.0542    1.8379    0.0161 C   0  0  0  0  0  0  0  0  0  0  0  0
    1.4780    1.8379    0.0161 C   0  0  0  0  0  0  0  0  0  0  0  0
    0.2119    1.1375   -4.2435 H   0  0  0  0  0  0  0  0  0  0  0  0
    0.2118   -0.0872   -0.1104 H   0  0  0  0  0  0  0  0  0  0  0  0
   -1.9513    1.3386   -0.3499 H   0  0  0  0  0  0  0  0  0  0  0  0
   -1.0916    2.8814   -0.3015 H   0  0  0  0  0  0  0  0  0  0  0  0
   -1.0616    1.8099    1.1071 H   0  0  0  0  0  0  0  0  0  0  0  0
    1.5154    2.8814   -0.3015 H   0  0  0  0  0  0  0  0  0  0  0  0
    2.3750    1.3386   -0.3499 H   0  0  0  0  0  0  0  0  0  0  0  0
    1.4853    1.8099    1.1071 H   0  0  0  0  0  0  0  0  0  0  0  0
   -1.5568   -1.7519    0.4334 S   0  0  0  0  0  0  0  0  0  0  0  0
    0.2118   -1.3327    0.2965 C   0  0  0  0  0  0  0  0  0  0  0  0
    0.7241   -0.5973    1.4891 C   0  0  0  0  0  0  0  0  0  0  0  0
    1.6919   -1.0437    2.2748 C   0  0  0  0  0  0  0  0  0  0  0  0
   -1.4548   -2.4574    1.5673 H   0  0  0  0  0  0  0  0  0  0  0  0
    0.7921   -2.2355    0.1083 H   0  0  0  0  0  0  0  0  0  0  0  0
    0.2393    0.3495    1.7069 H   0  0  0  0  0  0  0  0  0  0  0  0
    2.1847   -1.9912    2.0845 H   0  0  0  0  0  0  0  0  0  0  0  0
    2.0278   -0.4778    3.1343 H   0  0  0  0  0  0  0  0  0  0  0  0
  1  2  3  0
  1  6  1  0
  2  3  1  0
  3  4  1  0
  3  5  1  0
  4  8  1  0
  4  9  1  0
  4 10  1  0
  5 11  1  0
  5 12  1  0
  5 13  1  0
  7 15  1  0
 14 15  1  0
 14 18  1  0
 15 16  1  0
 15 19  1  0
 16 17  2  3
 16 20  1  0
 17 21  1  0
 17 22  1  0
M  RAD  1   3   2
M  END
>  <reaction>  (10) 
rxn_1331

>  <mol_properties>  (10) 
{"1": {"label": "*4", "atom_type": "Ct"}, "2": {"label": "*3", "atom_type": "Cs"}, "6": {"label": "*2", "atom_type": "H0"}, "13": {"label": "*0", "atom_type": "S2s"}, "14": {"label": "*1", "atom_type": "Cs"}}

>  <type>  (10) 
unop_6

>  <geom_source>  (10) 
Heuristics

$$$$

     RDKit          3D

 22 20  0  0  0  0  0  0  0  0999 V2000
    0.0170    1.1255   -3.2388 C   0  0  0  0  0  0  0  0  0  0  0  0
    0.0170    1.1255   -2.0407 C   0  0  0  0  0  0  0  0  0  0  0  0
    0.0170    1.1495   -0.5769 C   0  0  0  0  0  3  0  0  0  0  0  0
   -1.2491    1.8259   -0.0426 C   0  0  0  0  0  0  0  0  0  0  0  0
    1.2831    1.8259   -0.0425 C   0  0  0  0  0  0  0  0  0  0  0  0
    0.0170    1.1255   -4.3021 H   0  0  0  0  0  0  0  0  0  0  0  0
    0.0170   -0.0992   -0.1690 H   0  0  0  0  0  0  0  0  0  0  0  0
   -2.1462    1.3266   -0.4085 H   0  0  0  0  0  0  0  0  0  0  0  0
   -1.2865    2.8695   -0.3601 H   0  0  0  0  0  0  0  0  0  0  0  0
   -1.2565    1.7979    1.0485 H   0  0  0  0  0  0  0  0  0  0  0  0
    1.3205    2.8694   -0.3601 H   0  0  0  0  0  0  0  0  0  0  0  0
    2.1802    1.3266   -0.4085 H   0  0  0  0  0  0  0  0  0  0  0  0
    1.2904    1.7979    1.0485 H   0  0  0  0  0  0  0  0  0  0  0  0
   -1.5147   -1.4893    1.2154 S   0  0  0  0  0  0  0  0  0  0  0  0
    0.0169   -1.3447    0.2378 C   0  0  0  0  0  0  0  0  0  0  0  0
    1.1496   -0.7722    1.0221 C   0  0  0  0  0  0  0  0  0  0  0  0
    2.2851   -1.4114    1.2572 C   0  0  0  0  0  0  0  0  0  0  0  0
   -1.0041   -2.2695    2.1768 H   0  0  0  0  0  0  0  0  0  0  0  0
    0.2781   -2.3141   -0.1854 H   0  0  0  0  0  0  0  0  0  0  0  0
    0.9923    0.2239    1.4246 H   0  0  0  0  0  0  0  0  0  0  0  0
    2.4623   -2.4111    0.8750 H   0  0  0  0  0  0  0  0  0  0  0  0
    3.0786   -0.9583    1.8375 H   0  0  0  0  0  0  0  0  0  0  0  0
  1  2  3  0
  1  6  1  0
  2  3  1  0
  3  4  1  0
  3  5  1  0
  4  8  1  0
  4  9  1  0
  4 10  1  0
  5 11  1  0
  5 12  1  0
  5 13  1  0
  7 15  1  0
 14 15  1  0
 14 18  1  0
 15 16  1  0
 15 19  1  0
 16 17  2  3
 16 20  1  0
 17 21  1  0
 17 22  1  0
M  RAD  1   3   2
M  END
>  <reaction>  (11) 
rxn_1331

>  <mol_properties>  (11) 
{"1": {"label": "*4", "atom_type": "Ct"}, "2": {"label": "*3", "atom_type": "Cs"}, "6": {"label": "*2", "atom_type": "H0"}, "13": {"label": "*0", "atom_type": "S2s"}, "14": {"label": "*1", "atom_type": "Cs"}}

>  <type>  (11) 
unop_7

>  <geom_source>  (11) 
Heuristics

$$$$

     RDKit          3D

 22 20  0  0  0  0  0  0  0  0999 V2000
   -0.1455    1.4985   -2.9315 C   0  0  0  0  0  0  0  0  0  0  0  0
   -0.1455    1.4985   -1.7335 C   0  0  0  0  0  0  0  0  0  0  0  0
   -0.1455    1.5224   -0.2697 C   0  0  0  0  0  3  0  0  0  0  0  0
   -1.4116    2.1989    0.2647 C   0  0  0  0  0  0  0  0  0  0  0  0
    1.1206    2.1988    0.2647 C   0  0  0  0  0  0  0  0  0  0  0  0
   -0.1455    1.4985   -3.9949 H   0  0  0  0  0  0  0  0  0  0  0  0
   -0.1455    0.2738    0.1382 H   0  0  0  0  0  0  0  0  0  0  0  0
   -2.3087    1.6996   -0.1012 H   0  0  0  0  0  0  0  0  0  0  0  0
   -1.4490    3.2424   -0.0528 H   0  0  0  0  0  0  0  0  0  0  0  0
   -1.4190    2.1709    1.3558 H   0  0  0  0  0  0  0  0  0  0  0  0
    1.1580    3.2424   -0.0528 H   0  0  0  0  0  0  0  0  0  0  0  0
    2.0176    1.6995   -0.1012 H   0  0  0  0  0  0  0  0  0  0  0  0
    1.1279    2.1708    1.3558 H   0  0  0  0  0  0  0  0  0  0  0  0
    1.6230   -1.3910    0.6820 S   0  0  0  0  0  0  0  0  0  0  0  0
   -0.1456   -0.9718    0.5451 C   0  0  0  0  0  0  0  0  0  0  0  0
   -1.0142   -2.1762    0.4016 C   0  0  0  0  0  0  0  0  0  0  0  0
   -1.9618   -2.5125    1.2630 C   0  0  0  0  0  0  0  0  0  0  0  0
    1.5072   -2.1717    1.7641 H   0  0  0  0  0  0  0  0  0  0  0  0
   -0.4484   -0.3641    1.3973 H   0  0  0  0  0  0  0  0  0  0  0  0
   -0.8182   -2.8020   -0.4638 H   0  0  0  0  0  0  0  0  0  0  0  0
   -2.1698   -1.9097    2.1406 H   0  0  0  0  0  0  0  0  0  0  0  0
   -2.5647   -3.4003    1.1213 H   0  0  0  0  0  0  0  0  0  0  0  0
  1  2  3  0
  1  6  1  0
  2  3  1  0
  3  4  1  0
  3  5  1  0
  4  8  1  0
  4  9  1  0
  4 10  1  0
  5 11  1  0
  5 12  1  0
  5 13  1  0
  7 15  1  0
 14 15  1  0
 14 18  1  0
 15 16  1  0
 15 19  1  0
 16 17  2  3
 16 20  1  0
 17 21  1  0
 17 22  1  0
M  RAD  1   3   2
M  END
>  <reaction>  (12) 
rxn_1331

>  <mol_properties>  (12) 
{"1": {"label": "*4", "atom_type": "Ct"}, "2": {"label": "*3", "atom_type": "Cs"}, "6": {"label": "*2", "atom_type": "H0"}, "13": {"label": "*0", "atom_type": "S2s"}, "14": {"label": "*1", "atom_type": "Cs"}}

>  <type>  (12) 
unop_8

>  <geom_source>  (12) 
Heuristics

$$$$

     RDKit          3D

 22 20  0  0  0  0  0  0  0  0999 V2000
    0.3453    1.3441   -2.8828 C   0  0  0  0  0  0  0  0  0  0  0  0
    0.3453    1.3441   -1.6847 C   0  0  0  0  0  0  0  0  0  0  0  0
    0.3453    1.3680   -0.2209 C   0  0  0  0  0  3  0  0  0  0  0  0
   -0.9208    2.0445    0.3134 C   0  0  0  0  0  0  0  0  0  0  0  0
    1.6114    2.0444    0.3134 C   0  0  0  0  0  0  0  0  0  0  0  0
    0.3453    1.3441   -3.9461 H   0  0  0  0  0  0  0  0  0  0  0  0
    0.3453    0.1194    0.1870 H   0  0  0  0  0  0  0  0  0  0  0  0
   -1.8179    1.5452   -0.0525 H   0  0  0  0  0  0  0  0  0  0  0  0
   -0.9581    3.0880   -0.0041 H   0  0  0  0  0  0  0  0  0  0  0  0
   -0.9281    2.0165    1.4045 H   0  0  0  0  0  0  0  0  0  0  0  0
    1.6488    3.0880   -0.0041 H   0  0  0  0  0  0  0  0  0  0  0  0
    2.5085    1.5451   -0.0525 H   0  0  0  0  0  0  0  0  0  0  0  0
    1.6188    2.0164    1.4045 H   0  0  0  0  0  0  0  0  0  0  0  0
   -0.5390   -2.0209   -0.7252 S   0  0  0  0  0  0  0  0  0  0  0  0
    0.3453   -1.1262    0.5938 C   0  0  0  0  0  0  0  0  0  0  0  0
   -0.5103   -0.8665    1.7880 C   0  0  0  0  0  0  0  0  0  0  0  0
   -0.2489   -1.3290    3.0009 C   0  0  0  0  0  0  0  0  0  0  0  0
   -0.8669   -3.0888    0.0138 H   0  0  0  0  0  0  0  0  0  0  0  0
    1.2506   -1.6682    0.8653 H   0  0  0  0  0  0  0  0  0  0  0  0
   -1.4027   -0.2735    1.6124 H   0  0  0  0  0  0  0  0  0  0  0  0
    0.6305   -1.9323    3.1999 H   0  0  0  0  0  0  0  0  0  0  0  0
   -0.9024   -1.1199    3.8381 H   0  0  0  0  0  0  0  0  0  0  0  0
  1  2  3  0
  1  6  1  0
  2  3  1  0
  3  4  1  0
  3  5  1  0
  4  8  1  0
  4  9  1  0
  4 10  1  0
  5 11  1  0
  5 12  1  0
  5 13  1  0
  7 15  1  0
 14 15  1  0
 14 18  1  0
 15 16  1  0
 15 19  1  0
 16 17  2  3
 16 20  1  0
 17 21  1  0
 17 22  1  0
M  RAD  1   3   2
M  END
>  <reaction>  (13) 
rxn_1331

>  <mol_properties>  (13) 
{"1": {"label": "*4", "atom_type": "Ct"}, "2": {"label": "*3", "atom_type": "Cs"}, "6": {"label": "*2", "atom_type": "H0"}, "13": {"label": "*0", "atom_type": "S2s"}, "14": {"label": "*1", "atom_type": "Cs"}}

>  <type>  (13) 
unop_9

>  <geom_source>  (13) 
Heuristics

$$$$

     RDKit          3D

 22 20  0  0  0  0  0  0  0  0999 V2000
   -0.0999    1.5268   -2.8325 C   0  0  0  0  0  0  0  0  0  0  0  0
   -0.0999    1.5268   -1.6344 C   0  0  0  0  0  0  0  0  0  0  0  0
   -0.0999    1.5508   -0.1706 C   0  0  0  0  0  3  0  0  0  0  0  0
   -1.3660    2.2273    0.3637 C   0  0  0  0  0  0  0  0  0  0  0  0
    1.1662    2.2272    0.3637 C   0  0  0  0  0  0  0  0  0  0  0  0
   -0.0999    1.5268   -3.8958 H   0  0  0  0  0  0  0  0  0  0  0  0
   -0.0999    0.3021    0.2373 H   0  0  0  0  0  0  0  0  0  0  0  0
   -2.2631    1.7279   -0.0022 H   0  0  0  0  0  0  0  0  0  0  0  0
   -1.4034    3.2708    0.0462 H   0  0  0  0  0  0  0  0  0  0  0  0
   -1.3734    2.1992    1.4548 H   0  0  0  0  0  0  0  0  0  0  0  0
    1.2036    3.2707    0.0462 H   0  0  0  0  0  0  0  0  0  0  0  0
    2.0633    1.7279   -0.0022 H   0  0  0  0  0  0  0  0  0  0  0  0
    1.1735    2.1992    1.4548 H   0  0  0  0  0  0  0  0  0  0  0  0
    1.4317   -1.6372   -0.0595 S   0  0  0  0  0  0  0  0  0  0  0  0
   -0.1000   -0.9434    0.6441 C   0  0  0  0  0  0  0  0  0  0  0  0
   -1.1627   -1.9722    0.8389 C   0  0  0  0  0  0  0  0  0  0  0  0
   -1.6876   -2.2811    2.0146 C   0  0  0  0  0  0  0  0  0  0  0  0
    1.6463   -2.5363    0.9096 H   0  0  0  0  0  0  0  0  0  0  0  0
    0.1235   -0.4234    1.5752 H   0  0  0  0  0  0  0  0  0  0  0  0
   -1.4894   -2.4921   -0.0566 H   0  0  0  0  0  0  0  0  0  0  0  0
   -1.3707   -1.7835    2.9250 H   0  0  0  0  0  0  0  0  0  0  0  0
   -2.4537   -3.0398    2.1092 H   0  0  0  0  0  0  0  0  0  0  0  0
  1  2  3  0
  1  6  1  0
  2  3  1  0
  3  4  1  0
  3  5  1  0
  4  8  1  0
  4  9  1  0
  4 10  1  0
  5 11  1  0
  5 12  1  0
  5 13  1  0
  7 15  1  0
 14 15  1  0
 14 18  1  0
 15 16  1  0
 15 19  1  0
 16 17  2  3
 16 20  1  0
 17 21  1  0
 17 22  1  0
M  RAD  1   3   2
M  END
>  <reaction>  (14) 
rxn_1331

>  <mol_properties>  (14) 
{"1": {"label": "*4", "atom_type": "Ct"}, "2": {"label": "*3", "atom_type": "Cs"}, "6": {"label": "*2", "atom_type": "H0"}, "13": {"label": "*0", "atom_type": "S2s"}, "14": {"label": "*1", "atom_type": "Cs"}}

>  <type>  (14) 
unop_10

>  <geom_source>  (14) 
Heuristics

$$$$

     RDKit          3D

 22 20  0  0  0  0  0  0  0  0999 V2000
   -0.1704    1.2074   -3.1937 C   0  0  0  0  0  0  0  0  0  0  0  0
   -0.1704    1.2074   -1.9956 C   0  0  0  0  0  0  0  0  0  0  0  0
   -0.1704    1.2314   -0.5318 C   0  0  0  0  0  3  0  0  0  0  0  0
   -1.4365    1.9078    0.0025 C   0  0  0  0  0  0  0  0  0  0  0  0
    1.0958    1.9078    0.0025 C   0  0  0  0  0  0  0  0  0  0  0  0
   -0.1704    1.2074   -4.2570 H   0  0  0  0  0  0  0  0  0  0  0  0
   -0.1704   -0.0173   -0.1239 H   0  0  0  0  0  0  0  0  0  0  0  0
   -2.3335    1.4085   -0.3634 H   0  0  0  0  0  0  0  0  0  0  0  0
   -1.4738    2.9513   -0.3150 H   0  0  0  0  0  0  0  0  0  0  0  0
   -1.4438    1.8798    1.0936 H   0  0  0  0  0  0  0  0  0  0  0  0
    1.1331    2.9513   -0.3150 H   0  0  0  0  0  0  0  0  0  0  0  0
    1.9928    1.4085   -0.3634 H   0  0  0  0  0  0  0  0  0  0  0  0
    1.1031    1.8798    1.0936 H   0  0  0  0  0  0  0  0  0  0  0  0
   -1.0547   -1.2064    1.8758 S   0  0  0  0  0  0  0  0  0  0  0  0
   -0.1704   -1.2628    0.2829 C   0  0  0  0  0  0  0  0  0  0  0  0
    1.3107   -1.1821    0.4425 C   0  0  0  0  0  0  0  0  0  0  0  0
    2.1502   -2.1289    0.0525 C   0  0  0  0  0  0  0  0  0  0  0  0
   -0.4565   -2.2763    2.4156 H   0  0  0  0  0  0  0  0  0  0  0  0
   -0.4613   -2.1556   -0.2699 H   0  0  0  0  0  0  0  0  0  0  0  0
    1.6874   -0.2868    0.9278 H   0  0  0  0  0  0  0  0  0  0  0  0
    1.7979   -3.0370   -0.4251 H   0  0  0  0  0  0  0  0  0  0  0  0
    3.2187   -2.0297    0.1942 H   0  0  0  0  0  0  0  0  0  0  0  0
  1  2  3  0
  1  6  1  0
  2  3  1  0
  3  4  1  0
  3  5  1  0
  4  8  1  0
  4  9  1  0
  4 10  1  0
  5 11  1  0
  5 12  1  0
  5 13  1  0
  7 15  1  0
 14 15  1  0
 14 18  1  0
 15 16  1  0
 15 19  1  0
 16 17  2  3
 16 20  1  0
 17 21  1  0
 17 22  1  0
M  RAD  1   3   2
M  END
>  <reaction>  (15) 
rxn_1331

>  <mol_properties>  (15) 
{"1": {"label": "*4", "atom_type": "Ct"}, "2": {"label": "*3", "atom_type": "Cs"}, "6": {"label": "*2", "atom_type": "H0"}, "13": {"label": "*0", "atom_type": "S2s"}, "14": {"label": "*1", "atom_type": "Cs"}}

>  <type>  (15) 
unop_11

>  <geom_source>  (15) 
Heuristics

$$$$

     RDKit          3D

 22 20  0  0  0  0  0  0  0  0999 V2000
    0.2217    1.4684   -2.7654 C   0  0  0  0  0  0  0  0  0  0  0  0
    0.2217    1.4684   -1.5673 C   0  0  0  0  0  0  0  0  0  0  0  0
    0.2217    1.4924   -0.1035 C   0  0  0  0  0  3  0  0  0  0  0  0
   -1.0444    2.1688    0.4308 C   0  0  0  0  0  0  0  0  0  0  0  0
    1.4878    2.1688    0.4308 C   0  0  0  0  0  0  0  0  0  0  0  0
    0.2217    1.4684   -3.8287 H   0  0  0  0  0  0  0  0  0  0  0  0
    0.2216    0.2437    0.3043 H   0  0  0  0  0  0  0  0  0  0  0  0
   -1.9415    1.6695    0.0649 H   0  0  0  0  0  0  0  0  0  0  0  0
   -1.0818    3.2124    0.1133 H   0  0  0  0  0  0  0  0  0  0  0  0
   -1.0518    2.1408    1.5219 H   0  0  0  0  0  0  0  0  0  0  0  0
    1.5252    3.2123    0.1133 H   0  0  0  0  0  0  0  0  0  0  0  0
    2.3848    1.6695    0.0649 H   0  0  0  0  0  0  0  0  0  0  0  0
    1.4951    2.1408    1.5219 H   0  0  0  0  0  0  0  0  0  0  0  0
    0.2216   -1.9702   -0.8330 S   0  0  0  0  0  0  0  0  0  0  0  0
    0.2216   -1.0018    0.7112 C   0  0  0  0  0  0  0  0  0  0  0  0
   -0.9695   -1.2790    1.5656 C   0  0  0  0  0  0  0  0  0  0  0  0
   -0.9020   -1.7723    2.7926 C   0  0  0  0  0  0  0  0  0  0  0  0
    0.1754   -3.1761   -0.2521 H   0  0  0  0  0  0  0  0  0  0  0  0
    1.1491   -1.1751    1.2561 H   0  0  0  0  0  0  0  0  0  0  0  0
   -1.9352   -1.0684    1.1160 H   0  0  0  0  0  0  0  0  0  0  0  0
    0.0500   -2.0007    3.2598 H   0  0  0  0  0  0  0  0  0  0  0  0
   -1.7946   -1.9633    3.3744 H   0  0  0  0  0  0  0  0  0  0  0  0
  1  2  3  0
  1  6  1  0
  2  3  1  0
  3  4  1  0
  3  5  1  0
  4  8  1  0
  4  9  1  0
  4 10  1  0
  5 11  1  0
  5 12  1  0
  5 13  1  0
  7 15  1  0
 14 15  1  0
 14 18  1  0
 15 16  1  0
 15 19  1  0
 16 17  2  3
 16 20  1  0
 17 21  1  0
 17 22  1  0
M  RAD  1   3   2
M  END
>  <reaction>  (16) 
rxn_1331

>  <mol_properties>  (16) 
{"1": {"label": "*4", "atom_type": "Ct"}, "2": {"label": "*3", "atom_type": "Cs"}, "6": {"label": "*2", "atom_type": "H0"}, "13": {"label": "*0", "atom_type": "S2s"}, "14": {"label": "*1", "atom_type": "Cs"}}

>  <type>  (16) 
unop_12

>  <geom_source>  (16) 
Heuristics

$$$$

     RDKit          3D

 22 20  0  0  0  0  0  0  0  0999 V2000
   -0.8823    2.8365   -0.9313 S   0  0  0  0  0  0  0  0  0  0  0  0
   -0.8947    1.0175   -0.9348 C   0  0  0  0  0  3  0  0  0  0  0  0
    0.5694   -1.2846    1.5152 C   0  0  0  0  0  0  0  0  0  0  0  0
    1.3024   -0.8986   -0.8718 C   0  0  0  0  0  0  0  0  0  0  0  0
    0.9027   -0.2424    0.4489 C   0  0  0  0  0  0  0  0  0  0  0  0
   -2.2885    0.4958   -0.7479 C   0  0  0  0  0  0  0  0  0  0  0  0
   -2.5230   -0.8166   -0.6902 C   0  0  0  0  0  0  0  0  0  0  0  0
    1.9653    0.6582    0.9208 C   0  0  0  0  0  0  0  0  0  0  0  0
    2.8359    1.3972    1.3077 C   0  0  0  0  0  0  0  0  0  0  0  0
   -0.4898    0.6596   -1.9050 H   0  0  0  0  0  0  0  0  0  0  0  0
   -0.0992    0.5664    0.0710 H   0  0  0  0  0  0  0  0  0  0  0  0
   -0.2640   -1.9295    1.1651 H   0  0  0  0  0  0  0  0  0  0  0  0
    0.2457   -0.7798    2.4503 H   0  0  0  0  0  0  0  0  0  0  0  0
    1.4536   -1.9221    1.7337 H   0  0  0  0  0  0  0  0  0  0  0  0
    0.4745   -1.5405   -1.2400 H   0  0  0  0  0  0  0  0  0  0  0  0
    2.2140   -1.5216   -0.7426 H   0  0  0  0  0  0  0  0  0  0  0  0
    1.5010   -0.1187   -1.6375 H   0  0  0  0  0  0  0  0  0  0  0  0
   -3.1230    1.1849   -0.6526 H   0  0  0  0  0  0  0  0  0  0  0  0
   -3.5355   -1.1821   -0.5523 H   0  0  0  0  0  0  0  0  0  0  0  0
   -1.7118   -1.5331   -0.7794 H   0  0  0  0  0  0  0  0  0  0  0  0
   -1.2528    2.9076    0.4253 H   0  0  0  0  0  0  0  0  0  0  0  0
    3.6001    2.0457    1.6473 H   0  0  0  0  0  0  0  0  0  0  0  0
  1  2  1  0
  1 21  1  0
  2  6  1  0
  2 10  1  0
  3  5  1  0
  3 12  1  0
  3 13  1  0
  3 14  1  0
  4  5  1  0
  4 15  1  0
  4 16  1  0
  4 17  1  0
  5  8  1  0
  5 11  1  0
  6  7  2  3
  6 18  1  0
  7 19  1  0
  7 20  1  0
  8  9  3  0
  9 22  1  0
M  RAD  1   2   2
M  END
>  <reaction>  (17) 
rxn_1331

>  <mol_properties>  (17) 
{"1": {"label": "*4", "atom_type": "Ct"}, "2": {"label": "*3", "atom_type": "Cs"}, "6": {"label": "*2", "atom_type": "H0"}, "13": {"label": "*0", "atom_type": "S2s"}, "14": {"label": "*1", "atom_type": "Cs"}}

>  <type>  (17) 
unop_13

>  <geom_source>  (17) 
AutoTST

$$$$
