
     RDKit          3D

 12 11  0  0  0  0  0  0  0  0999 V2000
    2.1696    0.6854    1.1310 C   0  0  0  0  0  0  0  0  0  0  0  0
    1.2518    0.4145    0.4134 C   0  0  0  0  0  0  0  0  0  0  0  0
    0.1391    0.0443   -0.4683 C   0  0  0  0  0  0  0  0  0  0  0  0
   -0.2054   -1.4492   -0.3339 C   0  0  0  0  0  0  0  0  0  0  0  0
   -1.0375    0.8853   -0.2222 C   0  0  0  0  0  0  0  0  0  0  0  0
   -2.0160    1.5463   -0.0311 C   0  0  0  0  0  0  0  0  0  0  0  0
    2.9819    0.9356    1.7702 H   0  0  0  0  0  0  0  0  0  0  0  0
    0.4629    0.2285   -1.4981 H   0  0  0  0  0  0  0  0  0  0  0  0
   -0.5327   -1.6703    0.6812 H   0  0  0  0  0  0  0  0  0  0  0  0
    0.6727   -2.0535   -0.5593 H   0  0  0  0  0  0  0  0  0  0  0  0
   -1.0064   -1.7081   -1.0256 H   0  0  0  0  0  0  0  0  0  0  0  0
   -2.8802    2.1413    0.1426 H   0  0  0  0  0  0  0  0  0  0  0  0
  1  2  3  0
  1  7  1  0
  2  3  1  0
  3  4  1  0
  3  5  1  0
  3  8  1  0
  4  9  1  0
  4 10  1  0
  4 11  1  0
  5  6  3  0
  6 12  1  0
M  END
>  <reaction>  (1) 
rxn_1413

>  <mol_properties>  (1) 
{"2": {"label": "donator", "atom_type": "Cs"}, "7": {"label": "d_hydrogen", "atom_type": "H0"}}

>  <type>  (1) 
r1h

$$$$

     RDKit          3D

 11 10  0  0  0  0  0  0  0  0999 V2000
    1.0781   -1.0166   -0.1159 C   0  0  0  0  0  0  0  0  0  0  0  0
    0.2180    0.1942   -0.2297 C   0  0  0  0  0  3  0  0  0  0  0  0
    0.9343    1.7769   -0.3011 S   0  0  0  0  0  0  0  0  0  0  0  0
   -1.1949    0.1490    0.2439 C   0  0  0  0  0  0  0  0  0  0  0  0
    1.4718   -1.1461    0.9024 H   0  0  0  0  0  0  0  0  0  0  0  0
    1.9367   -0.9751   -0.7902 H   0  0  0  0  0  0  0  0  0  0  0  0
    0.5033   -1.9136   -0.3576 H   0  0  0  0  0  0  0  0  0  0  0  0
    2.1166    1.4195   -0.8209 H   0  0  0  0  0  0  0  0  0  0  0  0
   -1.2620    0.0939    1.3399 H   0  0  0  0  0  0  0  0  0  0  0  0
   -1.7600    1.0270   -0.0739 H   0  0  0  0  0  0  0  0  0  0  0  0
   -1.6972   -0.7380   -0.1506 H   0  0  0  0  0  0  0  0  0  0  0  0
  1  2  1  0
  1  5  1  0
  1  6  1  0
  1  7  1  0
  2  4  1  0
  2  3  1  0
  3  8  1  0
  4  9  1  0
  4 10  1  0
  4 11  1  0
M  RAD  1   2   2
M  END
>  <reaction>  (2) 
rxn_1413

>  <mol_properties>  (2) 
{"1": {"label": "acceptor", "atom_type": "Cs"}}

>  <type>  (2) 
r2

$$$$

     RDKit          3D

 12 11  0  0  0  0  0  0  0  0999 V2000
    1.2394   -0.3763   -0.3020 C   0  0  0  0  0  0  0  0  0  0  0  0
    0.1007    0.3023    0.4464 C   0  0  0  0  0  0  0  0  0  0  0  0
   -0.1187    2.0399   -0.0725 S   0  0  0  0  0  0  0  0  0  0  0  0
   -1.1974   -0.4877    0.3552 C   0  0  0  0  0  0  0  0  0  0  0  0
    2.1681    0.1849   -0.2048 H   0  0  0  0  0  0  0  0  0  0  0  0
    1.0031   -0.4606   -1.3656 H   0  0  0  0  0  0  0  0  0  0  0  0
    1.3994   -1.3856    0.0860 H   0  0  0  0  0  0  0  0  0  0  0  0
    0.3796    0.4050    1.4981 H   0  0  0  0  0  0  0  0  0  0  0  0
   -0.4500    1.7779   -1.3452 H   0  0  0  0  0  0  0  0  0  0  0  0
   -1.0545   -1.4978    0.7479 H   0  0  0  0  0  0  0  0  0  0  0  0
   -1.5206   -0.5759   -0.6849 H   0  0  0  0  0  0  0  0  0  0  0  0
   -1.9957   -0.0054    0.9183 H   0  0  0  0  0  0  0  0  0  0  0  0
  1  2  1  0
  1  5  1  0
  1  6  1  0
  1  7  1  0
  2  4  1  0
  2  3  1  0
  2  8  1  0
  3  9  1  0
  4 10  1  0
  4 11  1  0
  4 12  1  0
M  END
>  <reaction>  (3) 
rxn_1413

>  <mol_properties>  (3) 
{"0": {"label": "a_hydrogen", "atom_type": "H0"}, "2": {"label": "acceptor", "atom_type": "Cs"}}

>  <type>  (3) 
r2h

$$$$

     RDKit          3D

 23 21  0  0  0  0  0  0  0  0999 V2000
   -0.7949   -0.8420   -2.5374 C   0  0  0  0  0  0  0  0  0  0  0  0
   -1.0912   -0.3033   -1.5061 C   0  0  0  0  0  0  0  0  0  0  0  0
   -1.3650    0.3705   -0.2634 C   0  0  0  0  0  0  0  0  0  0  0  0
   -1.7069    1.8497   -0.3965 C   0  0  0  0  0  0  0  0  0  0  0  0
   -2.1899   -0.3685    0.6570 C   0  0  0  0  0  0  0  0  0  0  0  0
   -2.8381   -0.9615    1.4750 C   0  0  0  0  0  0  0  0  0  0  0  0
   -0.5644   -1.3244   -3.4565 H   0  0  0  0  0  0  0  0  0  0  0  0
   -0.1967    0.3958    0.3083 H   0  0  0  0  0  0  0  0  0  0  0  0
   -2.6526    1.9864   -0.9237 H   0  0  0  0  0  0  0  0  0  0  0  0
   -0.9189    2.3606   -0.9502 H   0  0  0  0  0  0  0  0  0  0  0  0
   -1.7935    2.2999    0.5924 H   0  0  0  0  0  0  0  0  0  0  0  0
   -3.4305   -1.4926    2.1804 H   0  0  0  0  0  0  0  0  0  0  0  0
    0.8261    1.0923    2.2248 C   0  0  0  0  0  0  0  0  0  0  0  0
    1.0577    0.3704    0.9236 C   0  0  0  0  0  3  0  0  0  0  0  0
    2.1187    1.2798   -0.1709 S   0  0  0  0  0  0  0  0  0  0  0  0
    1.2985   -1.1116    1.0249 C   0  0  0  0  0  0  0  0  0  0  0  0
    0.6027    2.1484    2.0667 H   0  0  0  0  0  0  0  0  0  0  0  0
    1.7025    1.0240    2.8781 H   0  0  0  0  0  0  0  0  0  0  0  0
   -0.0176    0.6375    2.7482 H   0  0  0  0  0  0  0  0  0  0  0  0
    2.0853    0.4071   -1.1876 H   0  0  0  0  0  0  0  0  0  0  0  0
    0.5049   -1.5744    1.6157 H   0  0  0  0  0  0  0  0  0  0  0  0
    1.3025   -1.5821    0.0404 H   0  0  0  0  0  0  0  0  0  0  0  0
    2.2575   -1.3203    1.5095 H   0  0  0  0  0  0  0  0  0  0  0  0
  1  2  3  0
  1  7  1  0
  2  3  1  0
  3  4  1  0
  3  5  1  0
  3  8  1  0
  4  9  1  0
  4 10  1  0
  4 11  1  0
  5  6  3  0
  6 12  1  0
 13 14  1  0
 13 17  1  0
 13 18  1  0
 13 19  1  0
 14 16  1  0
 14 15  1  0
 15 20  1  0
 16 21  1  0
 16 22  1  0
 16 23  1  0
M  RAD  1  14   2
M  END
>  <reaction>  (4) 
rxn_1413

>  <mol_properties>  (4) 
{"1": {"label": "*0", "atom_type": "Ct"}, "2": {"label": "*1", "atom_type": "Cs"}, "7": {"label": "*2", "atom_type": "H0"}, "13": {"label": "*3", "atom_type": "Cs"}, "14": {"label": "*4", "atom_type": "S2s"}}

>  <type>  (4) 
ts

$$$$

     RDKit          3D

 23 21  0  0  0  0  0  0  0  0999 V2000
   -1.2981    0.2580   -2.8882 C   0  0  0  0  0  0  0  0  0  0  0  0
   -1.2981    0.2580   -1.6920 C   0  0  0  0  0  0  0  0  0  0  0  0
   -1.2981    0.2980   -0.2255 C   0  0  0  0  0  3  0  0  0  0  0  0
   -1.9362    1.5973    0.2965 C   0  0  0  0  0  0  0  0  0  0  0  0
   -1.9600   -0.8832    0.3393 C   0  0  0  0  0  0  0  0  0  0  0  0
   -2.5082   -1.8285    0.8258 C   0  0  0  0  0  0  0  0  0  0  0  0
   -1.2981    0.2580   -3.9516 H   0  0  0  0  0  0  0  0  0  0  0  0
   -0.0446    0.2708    0.1677 H   0  0  0  0  0  0  0  0  0  0  0  0
   -2.9794    1.6545   -0.0112 H   0  0  0  0  0  0  0  0  0  0  0  0
   -1.4036    2.4587   -0.1051 H   0  0  0  0  0  0  0  0  0  0  0  0
   -1.8890    1.6217    1.3847 H   0  0  0  0  0  0  0  0  0  0  0  0
   -2.9957   -2.6689    1.2583 H   0  0  0  0  0  0  0  0  0  0  0  0
    1.5002    1.5049    1.3604 C   0  0  0  0  0  0  0  0  0  0  0  0
    1.2067    0.2436    0.5601 C   0  0  0  0  0  0  0  0  0  0  0  0
    2.6973   -0.3948   -0.2808 S   0  0  0  0  0  0  0  0  0  0  0  0
    0.5260   -0.8258    1.4030 C   0  0  0  0  0  0  0  0  0  0  0  0
    1.9611    2.2712    0.7382 H   0  0  0  0  0  0  0  0  0  0  0  0
    2.1794    1.2849    2.1877 H   0  0  0  0  0  0  0  0  0  0  0  0
    0.5767    1.9081    1.7841 H   0  0  0  0  0  0  0  0  0  0  0  0
    3.3950   -0.6661    0.8317 H   0  0  0  0  0  0  0  0  0  0  0  0
   -0.4042   -0.4388    1.8270 H   0  0  0  0  0  0  0  0  0  0  0  0
    0.2966   -1.7111    0.8110 H   0  0  0  0  0  0  0  0  0  0  0  0
    1.1706   -1.1288    2.2318 H   0  0  0  0  0  0  0  0  0  0  0  0
  1  2  3  0
  1  7  1  0
  2  3  1  0
  3  4  1  0
  3  5  1  0
  4  9  1  0
  4 10  1  0
  4 11  1  0
  5  6  3  0
  6 12  1  0
  8 14  1  0
 13 14  1  0
 13 17  1  0
 13 18  1  0
 13 19  1  0
 14 16  1  0
 14 15  1  0
 15 20  1  0
 16 21  1  0
 16 22  1  0
 16 23  1  0
M  RAD  1   3   2
M  END
>  <reaction>  (5) 
rxn_1413

>  <mol_properties>  (5) 
{"1": {"label": "*0", "atom_type": "Ct"}, "2": {"label": "*1", "atom_type": "Cs"}, "7": {"label": "*2", "atom_type": "H0"}, "13": {"label": "*3", "atom_type": "Cs"}, "14": {"label": "*4", "atom_type": "S2s"}}

>  <type>  (5) 
unop_1

>  <geom_source>  (5) 
Heuristics

$$$$

     RDKit          3D

 23 21  0  0  0  0  0  0  0  0999 V2000
   -1.2277    0.3219   -3.0187 C   0  0  0  0  0  0  0  0  0  0  0  0
   -1.2277    0.3219   -1.8225 C   0  0  0  0  0  0  0  0  0  0  0  0
   -1.2277    0.3619   -0.3559 C   0  0  0  0  0  3  0  0  0  0  0  0
   -1.8657    1.6612    0.1661 C   0  0  0  0  0  0  0  0  0  0  0  0
   -1.8895   -0.8193    0.2088 C   0  0  0  0  0  0  0  0  0  0  0  0
   -2.4378   -1.7646    0.6953 C   0  0  0  0  0  0  0  0  0  0  0  0
   -1.2277    0.3219   -4.0821 H   0  0  0  0  0  0  0  0  0  0  0  0
    0.0259    0.3347    0.0372 H   0  0  0  0  0  0  0  0  0  0  0  0
   -2.9090    1.7184   -0.1417 H   0  0  0  0  0  0  0  0  0  0  0  0
   -1.3331    2.5226   -0.2356 H   0  0  0  0  0  0  0  0  0  0  0  0
   -1.8185    1.6856    1.2543 H   0  0  0  0  0  0  0  0  0  0  0  0
   -2.9252   -2.6050    1.1278 H   0  0  0  0  0  0  0  0  0  0  0  0
    2.1417    0.9730   -0.6321 C   0  0  0  0  0  0  0  0  0  0  0  0
    1.2772    0.3075    0.4296 C   0  0  0  0  0  0  0  0  0  0  0  0
    1.9459   -1.3146    0.9376 S   0  0  0  0  0  0  0  0  0  0  0  0
    1.0287    1.2202    1.6224 C   0  0  0  0  0  0  0  0  0  0  0  0
    2.2877    0.3196   -1.4916 H   0  0  0  0  0  0  0  0  0  0  0  0
    3.1243    1.2236   -0.2250 H   0  0  0  0  0  0  0  0  0  0  0  0
    1.6748    1.9003   -0.9741 H   0  0  0  0  0  0  0  0  0  0  0  0
    3.0937   -0.8511    1.4533 H   0  0  0  0  0  0  0  0  0  0  0  0
    0.5541    2.1492    1.2962 H   0  0  0  0  0  0  0  0  0  0  0  0
    0.3860    0.7419    2.3607 H   0  0  0  0  0  0  0  0  0  0  0  0
    1.9716    1.4796    2.1099 H   0  0  0  0  0  0  0  0  0  0  0  0
  1  2  3  0
  1  7  1  0
  2  3  1  0
  3  4  1  0
  3  5  1  0
  4  9  1  0
  4 10  1  0
  4 11  1  0
  5  6  3  0
  6 12  1  0
  8 14  1  0
 13 14  1  0
 13 17  1  0
 13 18  1  0
 13 19  1  0
 14 16  1  0
 14 15  1  0
 15 20  1  0
 16 21  1  0
 16 22  1  0
 16 23  1  0
M  RAD  1   3   2
M  END
>  <reaction>  (6) 
rxn_1413

>  <mol_properties>  (6) 
{"1": {"label": "*0", "atom_type": "Ct"}, "2": {"label": "*1", "atom_type": "Cs"}, "7": {"label": "*2", "atom_type": "H0"}, "13": {"label": "*3", "atom_type": "Cs"}, "14": {"label": "*4", "atom_type": "S2s"}}

>  <type>  (6) 
unop_2

>  <geom_source>  (6) 
Heuristics

$$$$

     RDKit          3D

 23 21  0  0  0  0  0  0  0  0999 V2000
   -1.3125    0.1459   -2.8159 C   0  0  0  0  0  0  0  0  0  0  0  0
   -1.3125    0.1459   -1.6197 C   0  0  0  0  0  0  0  0  0  0  0  0
   -1.3125    0.1860   -0.1532 C   0  0  0  0  0  3  0  0  0  0  0  0
   -1.9505    1.4852    0.3688 C   0  0  0  0  0  0  0  0  0  0  0  0
   -1.9744   -0.9953    0.4116 C   0  0  0  0  0  0  0  0  0  0  0  0
   -2.5226   -1.9406    0.8981 C   0  0  0  0  0  0  0  0  0  0  0  0
   -1.3125    0.1459   -3.8793 H   0  0  0  0  0  0  0  0  0  0  0  0
   -0.0589    0.1587    0.2400 H   0  0  0  0  0  0  0  0  0  0  0  0
   -2.9938    1.5424    0.0611 H   0  0  0  0  0  0  0  0  0  0  0  0
   -1.4179    2.3466   -0.0328 H   0  0  0  0  0  0  0  0  0  0  0  0
   -1.9034    1.5096    1.4570 H   0  0  0  0  0  0  0  0  0  0  0  0
   -3.0100   -2.7810    1.3306 H   0  0  0  0  0  0  0  0  0  0  0  0
    1.3126    0.8846    1.9499 C   0  0  0  0  0  0  0  0  0  0  0  0
    1.1923    0.1315    0.6324 C   0  0  0  0  0  0  0  0  0  0  0  0
    2.6029    0.4677   -0.4784 S   0  0  0  0  0  0  0  0  0  0  0  0
    0.9750   -1.3606    0.8418 C   0  0  0  0  0  0  0  0  0  0  0  0
    1.4393    1.9540    1.7854 H   0  0  0  0  0  0  0  0  0  0  0  0
    2.1720    0.5243    2.5206 H   0  0  0  0  0  0  0  0  0  0  0  0
    0.4179    0.7287    2.5583 H   0  0  0  0  0  0  0  0  0  0  0  0
    3.5479   -0.0639    0.3108 H   0  0  0  0  0  0  0  0  0  0  0  0
    0.0780   -1.5322    1.4424 H   0  0  0  0  0  0  0  0  0  0  0  0
    0.8626   -1.8822   -0.1081 H   0  0  0  0  0  0  0  0  0  0  0  0
    1.8224   -1.8008    1.3730 H   0  0  0  0  0  0  0  0  0  0  0  0
  1  2  3  0
  1  7  1  0
  2  3  1  0
  3  4  1  0
  3  5  1  0
  4  9  1  0
  4 10  1  0
  4 11  1  0
  5  6  3  0
  6 12  1  0
  8 14  1  0
 13 14  1  0
 13 17  1  0
 13 18  1  0
 13 19  1  0
 14 16  1  0
 14 15  1  0
 15 20  1  0
 16 21  1  0
 16 22  1  0
 16 23  1  0
M  RAD  1   3   2
M  END
>  <reaction>  (7) 
rxn_1413

>  <mol_properties>  (7) 
{"1": {"label": "*0", "atom_type": "Ct"}, "2": {"label": "*1", "atom_type": "Cs"}, "7": {"label": "*2", "atom_type": "H0"}, "13": {"label": "*3", "atom_type": "Cs"}, "14": {"label": "*4", "atom_type": "S2s"}}

>  <type>  (7) 
unop_3

>  <geom_source>  (7) 
Heuristics

$$$$

     RDKit          3D

 23 21  0  0  0  0  0  0  0  0999 V2000
   -0.9792    0.2178   -3.1899 C   0  0  0  0  0  0  0  0  0  0  0  0
   -0.9792    0.2178   -1.9937 C   0  0  0  0  0  0  0  0  0  0  0  0
   -0.9792    0.2579   -0.5272 C   0  0  0  0  0  3  0  0  0  0  0  0
   -1.6172    1.5571   -0.0052 C   0  0  0  0  0  0  0  0  0  0  0  0
   -1.6410   -0.9233    0.0376 C   0  0  0  0  0  0  0  0  0  0  0  0
   -2.1892   -1.8686    0.5241 C   0  0  0  0  0  0  0  0  0  0  0  0
   -0.9792    0.2178   -4.2533 H   0  0  0  0  0  0  0  0  0  0  0  0
    0.2744    0.2307   -0.1340 H   0  0  0  0  0  0  0  0  0  0  0  0
   -2.6604    1.6144   -0.3129 H   0  0  0  0  0  0  0  0  0  0  0  0
   -1.0846    2.4185   -0.4068 H   0  0  0  0  0  0  0  0  0  0  0  0
   -1.5700    1.5816    1.0831 H   0  0  0  0  0  0  0  0  0  0  0  0
   -2.6767   -2.7090    0.9566 H   0  0  0  0  0  0  0  0  0  0  0  0
    2.1733   -1.0783   -0.2468 C   0  0  0  0  0  0  0  0  0  0  0  0
    1.5257    0.2035    0.2584 C   0  0  0  0  0  0  0  0  0  0  0  0
    0.5444   -0.0775    1.7732 S   0  0  0  0  0  0  0  0  0  0  0  0
    2.5377    1.3269    0.4353 C   0  0  0  0  0  0  0  0  0  0  0  0
    1.4339   -1.8644   -0.3957 H   0  0  0  0  0  0  0  0  0  0  0  0
    2.9155   -1.4409    0.4686 H   0  0  0  0  0  0  0  0  0  0  0  0
    2.6845   -0.8959   -1.1956 H   0  0  0  0  0  0  0  0  0  0  0  0
    1.5699   -0.4535    2.5511 H   0  0  0  0  0  0  0  0  0  0  0  0
    3.0514    1.5261   -0.5088 H   0  0  0  0  0  0  0  0  0  0  0  0
    2.0564    2.2452    0.7698 H   0  0  0  0  0  0  0  0  0  0  0  0
    3.2928    1.0500    1.1750 H   0  0  0  0  0  0  0  0  0  0  0  0
  1  2  3  0
  1  7  1  0
  2  3  1  0
  3  4  1  0
  3  5  1  0
  4  9  1  0
  4 10  1  0
  4 11  1  0
  5  6  3  0
  6 12  1  0
  8 14  1  0
 13 14  1  0
 13 17  1  0
 13 18  1  0
 13 19  1  0
 14 16  1  0
 14 15  1  0
 15 20  1  0
 16 21  1  0
 16 22  1  0
 16 23  1  0
M  RAD  1   3   2
M  END
>  <reaction>  (8) 
rxn_1413

>  <mol_properties>  (8) 
{"1": {"label": "*0", "atom_type": "Ct"}, "2": {"label": "*1", "atom_type": "Cs"}, "7": {"label": "*2", "atom_type": "H0"}, "13": {"label": "*3", "atom_type": "Cs"}, "14": {"label": "*4", "atom_type": "S2s"}}

>  <type>  (8) 
unop_4

>  <geom_source>  (8) 
Heuristics

$$$$

     RDKit          3D

 23 21  0  0  0  0  0  0  0  0999 V2000
   -1.2394   -0.0643   -2.8347 C   0  0  0  0  0  0  0  0  0  0  0  0
   -1.2394   -0.0643   -1.6385 C   0  0  0  0  0  0  0  0  0  0  0  0
   -1.2394   -0.0242   -0.1720 C   0  0  0  0  0  3  0  0  0  0  0  0
   -1.8775    1.2750    0.3500 C   0  0  0  0  0  0  0  0  0  0  0  0
   -1.9013   -1.2054    0.3928 C   0  0  0  0  0  0  0  0  0  0  0  0
   -2.4495   -2.1507    0.8793 C   0  0  0  0  0  0  0  0  0  0  0  0
   -1.2394   -0.0643   -3.8981 H   0  0  0  0  0  0  0  0  0  0  0  0
    0.0142   -0.0514    0.2212 H   0  0  0  0  0  0  0  0  0  0  0  0
   -2.9207    1.3323    0.0423 H   0  0  0  0  0  0  0  0  0  0  0  0
   -1.3448    2.1364   -0.0516 H   0  0  0  0  0  0  0  0  0  0  0  0
   -1.8303    1.2995    1.4382 H   0  0  0  0  0  0  0  0  0  0  0  0
   -2.9369   -2.9911    1.3118 H   0  0  0  0  0  0  0  0  0  0  0  0
    1.3063   -0.0383    2.1348 C   0  0  0  0  0  0  0  0  0  0  0  0
    1.2654   -0.0786    0.6136 C   0  0  0  0  0  0  0  0  0  0  0  0
    1.9424    1.4467   -0.1292 S   0  0  0  0  0  0  0  0  0  0  0  0
    1.9307   -1.3285    0.0544 C   0  0  0  0  0  0  0  0  0  0  0  0
    0.8022    0.8466    2.5218 H   0  0  0  0  0  0  0  0  0  0  0  0
    2.3394   -0.0238    2.4906 H   0  0  0  0  0  0  0  0  0  0  0  0
    0.8218   -0.9256    2.5504 H   0  0  0  0  0  0  0  0  0  0  0  0
    3.1916    1.3009    0.3362 H   0  0  0  0  0  0  0  0  0  0  0  0
    1.4506   -2.2249    0.4555 H   0  0  0  0  0  0  0  0  0  0  0  0
    1.8691   -1.3580   -1.0329 H   0  0  0  0  0  0  0  0  0  0  0  0
    2.9860   -1.3600    0.3360 H   0  0  0  0  0  0  0  0  0  0  0  0
  1  2  3  0
  1  7  1  0
  2  3  1  0
  3  4  1  0
  3  5  1  0
  4  9  1  0
  4 10  1  0
  4 11  1  0
  5  6  3  0
  6 12  1  0
  8 14  1  0
 13 14  1  0
 13 17  1  0
 13 18  1  0
 13 19  1  0
 14 16  1  0
 14 15  1  0
 15 20  1  0
 16 21  1  0
 16 22  1  0
 16 23  1  0
M  RAD  1   3   2
M  END
>  <reaction>  (9) 
rxn_1413

>  <mol_properties>  (9) 
{"1": {"label": "*0", "atom_type": "Ct"}, "2": {"label": "*1", "atom_type": "Cs"}, "7": {"label": "*2", "atom_type": "H0"}, "13": {"label": "*3", "atom_type": "Cs"}, "14": {"label": "*4", "atom_type": "S2s"}}

>  <type>  (9) 
unop_5

>  <geom_source>  (9) 
Heuristics

$$$$

     RDKit          3D

 23 21  0  0  0  0  0  0  0  0999 V2000
   -0.9458    0.0716   -3.1874 C   0  0  0  0  0  0  0  0  0  0  0  0
   -0.9458    0.0716   -1.9912 C   0  0  0  0  0  0  0  0  0  0  0  0
   -0.9458    0.1117   -0.5246 C   0  0  0  0  0  3  0  0  0  0  0  0
   -1.5838    1.4109   -0.0026 C   0  0  0  0  0  0  0  0  0  0  0  0
   -1.6077   -1.0696    0.0401 C   0  0  0  0  0  0  0  0  0  0  0  0
   -2.1559   -2.0148    0.5266 C   0  0  0  0  0  0  0  0  0  0  0  0
   -0.9458    0.0716   -4.2508 H   0  0  0  0  0  0  0  0  0  0  0  0
    0.3078    0.0844   -0.1315 H   0  0  0  0  0  0  0  0  0  0  0  0
   -2.6271    1.4682   -0.3104 H   0  0  0  0  0  0  0  0  0  0  0  0
   -1.0512    2.2723   -0.4043 H   0  0  0  0  0  0  0  0  0  0  0  0
   -1.5367    1.4353    1.0856 H   0  0  0  0  0  0  0  0  0  0  0  0
   -2.6433   -2.8553    0.9591 H   0  0  0  0  0  0  0  0  0  0  0  0
    1.9860   -1.3920    0.4478 C   0  0  0  0  0  0  0  0  0  0  0  0
    1.5590    0.0572    0.2609 C   0  0  0  0  0  0  0  0  0  0  0  0
    0.4472    0.6200    1.5965 S   0  0  0  0  0  0  0  0  0  0  0  0
    2.7502    0.9880    0.0810 C   0  0  0  0  0  0  0  0  0  0  0  0
    1.1234   -2.0500    0.5469 H   0  0  0  0  0  0  0  0  0  0  0  0
    2.5995   -1.4984    1.3458 H   0  0  0  0  0  0  0  0  0  0  0  0
    2.5822   -1.7243   -0.4060 H   0  0  0  0  0  0  0  0  0  0  0  0
    1.3320    0.4899    2.5957 H   0  0  0  0  0  0  0  0  0  0  0  0
    3.3517    0.6722   -0.7753 H   0  0  0  0  0  0  0  0  0  0  0  0
    2.4292    2.0166   -0.0798 H   0  0  0  0  0  0  0  0  0  0  0  0
    3.3909    0.9664    0.9660 H   0  0  0  0  0  0  0  0  0  0  0  0
  1  2  3  0
  1  7  1  0
  2  3  1  0
  3  4  1  0
  3  5  1  0
  4  9  1  0
  4 10  1  0
  4 11  1  0
  5  6  3  0
  6 12  1  0
  8 14  1  0
 13 14  1  0
 13 17  1  0
 13 18  1  0
 13 19  1  0
 14 16  1  0
 14 15  1  0
 15 20  1  0
 16 21  1  0
 16 22  1  0
 16 23  1  0
M  RAD  1   3   2
M  END
>  <reaction>  (10) 
rxn_1413

>  <mol_properties>  (10) 
{"1": {"label": "*0", "atom_type": "Ct"}, "2": {"label": "*1", "atom_type": "Cs"}, "7": {"label": "*2", "atom_type": "H0"}, "13": {"label": "*3", "atom_type": "Cs"}, "14": {"label": "*4", "atom_type": "S2s"}}

>  <type>  (10) 
unop_6

>  <geom_source>  (10) 
Heuristics

$$$$

     RDKit          3D

 23 21  0  0  0  0  0  0  0  0999 V2000
   -0.9714   -0.0702   -3.1176 C   0  0  0  0  0  0  0  0  0  0  0  0
   -0.9714   -0.0702   -1.9214 C   0  0  0  0  0  0  0  0  0  0  0  0
   -0.9714   -0.0301   -0.4549 C   0  0  0  0  0  3  0  0  0  0  0  0
   -1.6094    1.2691    0.0671 C   0  0  0  0  0  0  0  0  0  0  0  0
   -1.6332   -1.2114    0.1099 C   0  0  0  0  0  0  0  0  0  0  0  0
   -2.1814   -2.1566    0.5964 C   0  0  0  0  0  0  0  0  0  0  0  0
   -0.9714   -0.0702   -4.1810 H   0  0  0  0  0  0  0  0  0  0  0  0
    0.2822   -0.0574   -0.0617 H   0  0  0  0  0  0  0  0  0  0  0  0
   -2.6526    1.3264   -0.2406 H   0  0  0  0  0  0  0  0  0  0  0  0
   -1.0768    2.1305   -0.3345 H   0  0  0  0  0  0  0  0  0  0  0  0
   -1.5622    1.2935    1.1554 H   0  0  0  0  0  0  0  0  0  0  0  0
   -2.6689   -2.9971    1.0289 H   0  0  0  0  0  0  0  0  0  0  0  0
    1.7514   -1.3157    1.1991 C   0  0  0  0  0  0  0  0  0  0  0  0
    1.5335   -0.0845    0.3307 C   0  0  0  0  0  0  0  0  0  0  0  0
    0.5855    1.2094    1.2045 S   0  0  0  0  0  0  0  0  0  0  0  0
    2.8380    0.4530   -0.2409 C   0  0  0  0  0  0  0  0  0  0  0  0
    0.8075   -1.7060    1.5781 H   0  0  0  0  0  0  0  0  0  0  0  0
    2.3871   -1.0741    2.0545 H   0  0  0  0  0  0  0  0  0  0  0  0
    2.2484   -2.1015    0.6244 H   0  0  0  0  0  0  0  0  0  0  0  0
    1.4907    1.4371    2.1673 H   0  0  0  0  0  0  0  0  0  0  0  0
    3.3425   -0.3205   -0.8257 H   0  0  0  0  0  0  0  0  0  0  0  0
    2.6641    1.3161   -0.8825 H   0  0  0  0  0  0  0  0  0  0  0  0
    3.5124    0.7576    0.5631 H   0  0  0  0  0  0  0  0  0  0  0  0
  1  2  3  0
  1  7  1  0
  2  3  1  0
  3  4  1  0
  3  5  1  0
  4  9  1  0
  4 10  1  0
  4 11  1  0
  5  6  3  0
  6 12  1  0
  8 14  1  0
 13 14  1  0
 13 17  1  0
 13 18  1  0
 13 19  1  0
 14 16  1  0
 14 15  1  0
 15 20  1  0
 16 21  1  0
 16 22  1  0
 16 23  1  0
M  RAD  1   3   2
M  END
>  <reaction>  (11) 
rxn_1413

>  <mol_properties>  (11) 
{"1": {"label": "*0", "atom_type": "Ct"}, "2": {"label": "*1", "atom_type": "Cs"}, "7": {"label": "*2", "atom_type": "H0"}, "13": {"label": "*3", "atom_type": "Cs"}, "14": {"label": "*4", "atom_type": "S2s"}}

>  <type>  (11) 
unop_7

>  <geom_source>  (11) 
Heuristics

$$$$

     RDKit          3D

 23 21  0  0  0  0  0  0  0  0999 V2000
   -1.2768    0.2874   -2.9543 C   0  0  0  0  0  0  0  0  0  0  0  0
   -1.2768    0.2874   -1.7582 C   0  0  0  0  0  0  0  0  0  0  0  0
   -1.2768    0.3275   -0.2916 C   0  0  0  0  0  3  0  0  0  0  0  0
   -1.9148    1.6267    0.2304 C   0  0  0  0  0  0  0  0  0  0  0  0
   -1.9387   -0.8538    0.2732 C   0  0  0  0  0  0  0  0  0  0  0  0
   -2.4869   -1.7990    0.7596 C   0  0  0  0  0  0  0  0  0  0  0  0
   -1.2768    0.2874   -4.0178 H   0  0  0  0  0  0  0  0  0  0  0  0
   -0.0232    0.3002    0.1015 H   0  0  0  0  0  0  0  0  0  0  0  0
   -2.9581    1.6839   -0.0774 H   0  0  0  0  0  0  0  0  0  0  0  0
   -1.3822    2.4881   -0.1713 H   0  0  0  0  0  0  0  0  0  0  0  0
   -1.8677    1.6511    1.3186 H   0  0  0  0  0  0  0  0  0  0  0  0
   -2.9743   -2.6395    1.1922 H   0  0  0  0  0  0  0  0  0  0  0  0
    1.7422    1.7018    0.6022 C   0  0  0  0  0  0  0  0  0  0  0  0
    1.2280    0.2730    0.4939 C   0  0  0  0  0  0  0  0  0  0  0  0
    2.5665   -0.9076    0.1054 S   0  0  0  0  0  0  0  0  0  0  0  0
    0.4371   -0.1472    1.7249 C   0  0  0  0  0  0  0  0  0  0  0  0
    2.2816    1.9985   -0.2967 H   0  0  0  0  0  0  0  0  0  0  0  0
    2.4196    1.8022    1.4537 H   0  0  0  0  0  0  0  0  0  0  0  0
    0.9095    2.3936    0.7538 H   0  0  0  0  0  0  0  0  0  0  0  0
    3.2681   -0.7184    1.2324 H   0  0  0  0  0  0  0  0  0  0  0  0
   -0.4046    0.5316    1.8844 H   0  0  0  0  0  0  0  0  0  0  0  0
    0.0517   -1.1610    1.6217 H   0  0  0  0  0  0  0  0  0  0  0  0
    1.0681   -0.1127    2.6165 H   0  0  0  0  0  0  0  0  0  0  0  0
  1  2  3  0
  1  7  1  0
  2  3  1  0
  3  4  1  0
  3  5  1  0
  4  9  1  0
  4 10  1  0
  4 11  1  0
  5  6  3  0
  6 12  1  0
  8 14  1  0
 13 14  1  0
 13 17  1  0
 13 18  1  0
 13 19  1  0
 14 16  1  0
 14 15  1  0
 15 20  1  0
 16 21  1  0
 16 22  1  0
 16 23  1  0
M  RAD  1   3   2
M  END
>  <reaction>  (12) 
rxn_1413

>  <mol_properties>  (12) 
{"1": {"label": "*0", "atom_type": "Ct"}, "2": {"label": "*1", "atom_type": "Cs"}, "7": {"label": "*2", "atom_type": "H0"}, "13": {"label": "*3", "atom_type": "Cs"}, "14": {"label": "*4", "atom_type": "S2s"}}

>  <type>  (12) 
unop_8

>  <geom_source>  (12) 
Heuristics

$$$$

     RDKit          3D

 23 21  0  0  0  0  0  0  0  0999 V2000
   -1.0597    0.3217   -3.1375 C   0  0  0  0  0  0  0  0  0  0  0  0
   -1.0597    0.3217   -1.9414 C   0  0  0  0  0  0  0  0  0  0  0  0
   -1.0597    0.3618   -0.4748 C   0  0  0  0  0  3  0  0  0  0  0  0
   -1.6978    1.6610    0.0472 C   0  0  0  0  0  0  0  0  0  0  0  0
   -1.7216   -0.8195    0.0900 C   0  0  0  0  0  0  0  0  0  0  0  0
   -2.2698   -1.7648    0.5765 C   0  0  0  0  0  0  0  0  0  0  0  0
   -1.0597    0.3217   -4.2010 H   0  0  0  0  0  0  0  0  0  0  0  0
    0.1939    0.3345   -0.0817 H   0  0  0  0  0  0  0  0  0  0  0  0
   -2.7410    1.7182   -0.2606 H   0  0  0  0  0  0  0  0  0  0  0  0
   -1.1651    2.5224   -0.3545 H   0  0  0  0  0  0  0  0  0  0  0  0
   -1.6506    1.6854    1.1354 H   0  0  0  0  0  0  0  0  0  0  0  0
   -2.7572   -2.6052    1.0090 H   0  0  0  0  0  0  0  0  0  0  0  0
    2.2660   -0.4662   -0.7117 C   0  0  0  0  0  0  0  0  0  0  0  0
    1.4451    0.3073    0.3107 C   0  0  0  0  0  0  0  0  0  0  0  0
    0.8853   -0.7578    1.6850 S   0  0  0  0  0  0  0  0  0  0  0  0
    2.1723    1.5476    0.8110 C   0  0  0  0  0  0  0  0  0  0  0  0
    1.7223   -1.3347   -1.0817 H   0  0  0  0  0  0  0  0  0  0  0  0
    3.2017   -0.8147   -0.2678 H   0  0  0  0  0  0  0  0  0  0  0  0
    2.5169    0.1759   -1.5600 H   0  0  0  0  0  0  0  0  0  0  0  0
    2.1059   -1.0554    2.1537 H   0  0  0  0  0  0  0  0  0  0  0  0
    2.4226    2.2037   -0.0267 H   0  0  0  0  0  0  0  0  0  0  0  0
    1.5623    2.1062    1.5201 H   0  0  0  0  0  0  0  0  0  0  0  0
    3.1048    1.2708    1.3091 H   0  0  0  0  0  0  0  0  0  0  0  0
  1  2  3  0
  1  7  1  0
  2  3  1  0
  3  4  1  0
  3  5  1  0
  4  9  1  0
  4 10  1  0
  4 11  1  0
  5  6  3  0
  6 12  1  0
  8 14  1  0
 13 14  1  0
 13 17  1  0
 13 18  1  0
 13 19  1  0
 14 16  1  0
 14 15  1  0
 15 20  1  0
 16 21  1  0
 16 22  1  0
 16 23  1  0
M  RAD  1   3   2
M  END
>  <reaction>  (13) 
rxn_1413

>  <mol_properties>  (13) 
{"1": {"label": "*0", "atom_type": "Ct"}, "2": {"label": "*1", "atom_type": "Cs"}, "7": {"label": "*2", "atom_type": "H0"}, "13": {"label": "*3", "atom_type": "Cs"}, "14": {"label": "*4", "atom_type": "S2s"}}

>  <type>  (13) 
unop_9

>  <geom_source>  (13) 
Heuristics

$$$$

     RDKit          3D

 23 21  0  0  0  0  0  0  0  0999 V2000
   -1.2593    0.2967   -2.9920 C   0  0  0  0  0  0  0  0  0  0  0  0
   -1.2593    0.2967   -1.7959 C   0  0  0  0  0  0  0  0  0  0  0  0
   -1.2593    0.3367   -0.3293 C   0  0  0  0  0  3  0  0  0  0  0  0
   -1.8974    1.6360    0.1927 C   0  0  0  0  0  0  0  0  0  0  0  0
   -1.9212   -0.8445    0.2355 C   0  0  0  0  0  0  0  0  0  0  0  0
   -2.4694   -1.7898    0.7220 C   0  0  0  0  0  0  0  0  0  0  0  0
   -1.2593    0.2967   -4.0555 H   0  0  0  0  0  0  0  0  0  0  0  0
   -0.0057    0.3095    0.0638 H   0  0  0  0  0  0  0  0  0  0  0  0
   -2.9406    1.6932   -0.1151 H   0  0  0  0  0  0  0  0  0  0  0  0
   -1.3647    2.4974   -0.2090 H   0  0  0  0  0  0  0  0  0  0  0  0
   -1.8502    1.6604    1.2809 H   0  0  0  0  0  0  0  0  0  0  0  0
   -2.9568   -2.6302    1.1545 H   0  0  0  0  0  0  0  0  0  0  0  0
    1.9687    1.4930   -0.1171 C   0  0  0  0  0  0  0  0  0  0  0  0
    1.2455    0.2823    0.4562 C   0  0  0  0  0  0  0  0  0  0  0  0
    2.3236   -1.1908    0.5204 S   0  0  0  0  0  0  0  0  0  0  0  0
    0.6075    0.5807    1.8058 C   0  0  0  0  0  0  0  0  0  0  0  0
    2.3958    1.2735   -1.0950 H   0  0  0  0  0  0  0  0  0  0  0  0
    2.7796    1.8049    0.5457 H   0  0  0  0  0  0  0  0  0  0  0  0
    1.2777    2.3338   -0.2188 H   0  0  0  0  0  0  0  0  0  0  0  0
    3.2143   -0.6897    1.3887 H   0  0  0  0  0  0  0  0  0  0  0  0
   -0.0930    1.4151    1.7175 H   0  0  0  0  0  0  0  0  0  0  0  0
    0.0701   -0.2853    2.1907 H   0  0  0  0  0  0  0  0  0  0  0  0
    1.3699    0.8600    2.5372 H   0  0  0  0  0  0  0  0  0  0  0  0
  1  2  3  0
  1  7  1  0
  2  3  1  0
  3  4  1  0
  3  5  1  0
  4  9  1  0
  4 10  1  0
  4 11  1  0
  5  6  3  0
  6 12  1  0
  8 14  1  0
 13 14  1  0
 13 17  1  0
 13 18  1  0
 13 19  1  0
 14 16  1  0
 14 15  1  0
 15 20  1  0
 16 21  1  0
 16 22  1  0
 16 23  1  0
M  RAD  1   3   2
M  END
>  <reaction>  (14) 
rxn_1413

>  <mol_properties>  (14) 
{"1": {"label": "*0", "atom_type": "Ct"}, "2": {"label": "*1", "atom_type": "Cs"}, "7": {"label": "*2", "atom_type": "H0"}, "13": {"label": "*3", "atom_type": "Cs"}, "14": {"label": "*4", "atom_type": "S2s"}}

>  <type>  (14) 
unop_10

>  <geom_source>  (14) 
Heuristics

$$$$

     RDKit          3D

 23 21  0  0  0  0  0  0  0  0999 V2000
   -1.0731   -0.1513   -2.9836 C   0  0  0  0  0  0  0  0  0  0  0  0
   -1.0731   -0.1513   -1.7875 C   0  0  0  0  0  0  0  0  0  0  0  0
   -1.0731   -0.1112   -0.3209 C   0  0  0  0  0  3  0  0  0  0  0  0
   -1.7111    1.1880    0.2011 C   0  0  0  0  0  0  0  0  0  0  0  0
   -1.7349   -1.2924    0.2439 C   0  0  0  0  0  0  0  0  0  0  0  0
   -2.2832   -2.2377    0.7304 C   0  0  0  0  0  0  0  0  0  0  0  0
   -1.0731   -0.1513   -4.0471 H   0  0  0  0  0  0  0  0  0  0  0  0
    0.1805   -0.1384    0.0722 H   0  0  0  0  0  0  0  0  0  0  0  0
   -2.7544    1.2453   -0.1067 H   0  0  0  0  0  0  0  0  0  0  0  0
   -1.1785    2.0494   -0.2006 H   0  0  0  0  0  0  0  0  0  0  0  0
   -1.6639    1.2124    1.2893 H   0  0  0  0  0  0  0  0  0  0  0  0
   -2.7706   -3.0781    1.1629 H   0  0  0  0  0  0  0  0  0  0  0  0
    1.5084   -0.8516    1.8215 C   0  0  0  0  0  0  0  0  0  0  0  0
    1.4317   -0.1656    0.4646 C   0  0  0  0  0  0  0  0  0  0  0  0
    1.0437    1.6126    0.6185 S   0  0  0  0  0  0  0  0  0  0  0  0
    2.6811   -0.4059   -0.3714 C   0  0  0  0  0  0  0  0  0  0  0  0
    0.5969   -0.6949    2.3972 H   0  0  0  0  0  0  0  0  0  0  0  0
    2.3481   -0.4614    2.4017 H   0  0  0  0  0  0  0  0  0  0  0  0
    1.6604   -1.9266    1.6945 H   0  0  0  0  0  0  0  0  0  0  0  0
    2.1570    1.9542    1.2834 H   0  0  0  0  0  0  0  0  0  0  0  0
    2.8413   -1.4777   -0.5138 H   0  0  0  0  0  0  0  0  0  0  0  0
    2.6006    0.0667   -1.3497 H   0  0  0  0  0  0  0  0  0  0  0  0
    3.5626    0.0002    0.1307 H   0  0  0  0  0  0  0  0  0  0  0  0
  1  2  3  0
  1  7  1  0
  2  3  1  0
  3  4  1  0
  3  5  1  0
  4  9  1  0
  4 10  1  0
  4 11  1  0
  5  6  3  0
  6 12  1  0
  8 14  1  0
 13 14  1  0
 13 17  1  0
 13 18  1  0
 13 19  1  0
 14 16  1  0
 14 15  1  0
 15 20  1  0
 16 21  1  0
 16 22  1  0
 16 23  1  0
M  RAD  1   3   2
M  END
>  <reaction>  (15) 
rxn_1413

>  <mol_properties>  (15) 
{"1": {"label": "*0", "atom_type": "Ct"}, "2": {"label": "*1", "atom_type": "Cs"}, "7": {"label": "*2", "atom_type": "H0"}, "13": {"label": "*3", "atom_type": "Cs"}, "14": {"label": "*4", "atom_type": "S2s"}}

>  <type>  (15) 
unop_11

>  <geom_source>  (15) 
Heuristics

$$$$

     RDKit          3D

 23 21  0  0  0  0  0  0  0  0999 V2000
   -1.1577    0.3493   -3.0666 C   0  0  0  0  0  0  0  0  0  0  0  0
   -1.1577    0.3493   -1.8705 C   0  0  0  0  0  0  0  0  0  0  0  0
   -1.1577    0.3894   -0.4039 C   0  0  0  0  0  3  0  0  0  0  0  0
   -1.7957    1.6886    0.1181 C   0  0  0  0  0  0  0  0  0  0  0  0
   -1.8196   -0.7919    0.1609 C   0  0  0  0  0  0  0  0  0  0  0  0
   -2.3678   -1.7372    0.6474 C   0  0  0  0  0  0  0  0  0  0  0  0
   -1.1577    0.3493   -4.1301 H   0  0  0  0  0  0  0  0  0  0  0  0
    0.0959    0.3621   -0.0108 H   0  0  0  0  0  0  0  0  0  0  0  0
   -2.8390    1.7458   -0.1897 H   0  0  0  0  0  0  0  0  0  0  0  0
   -1.2631    2.5500   -0.2836 H   0  0  0  0  0  0  0  0  0  0  0  0
   -1.7486    1.7130    1.2063 H   0  0  0  0  0  0  0  0  0  0  0  0
   -2.8552   -2.5776    1.0799 H   0  0  0  0  0  0  0  0  0  0  0  0
    2.2474    0.2741   -0.8445 C   0  0  0  0  0  0  0  0  0  0  0  0
    1.3471    0.3349    0.3816 C   0  0  0  0  0  0  0  0  0  0  0  0
    1.4181   -1.2066    1.3589 S   0  0  0  0  0  0  0  0  0  0  0  0
    1.6230    1.5644    1.2360 C   0  0  0  0  0  0  0  0  0  0  0  0
    2.0199   -0.5949   -1.4609 H   0  0  0  0  0  0  0  0  0  0  0  0
    3.2972    0.2144   -0.5470 H   0  0  0  0  0  0  0  0  0  0  0  0
    2.1224    1.1747   -1.4512 H   0  0  0  0  0  0  0  0  0  0  0  0
    2.7139   -1.1162    1.6918 H   0  0  0  0  0  0  0  0  0  0  0  0
    1.4936    2.4739    0.6437 H   0  0  0  0  0  0  0  0  0  0  0  0
    0.9530    1.6097    2.0938 H   0  0  0  0  0  0  0  0  0  0  0  0
    2.6505    1.5506    1.6076 H   0  0  0  0  0  0  0  0  0  0  0  0
  1  2  3  0
  1  7  1  0
  2  3  1  0
  3  4  1  0
  3  5  1  0
  4  9  1  0
  4 10  1  0
  4 11  1  0
  5  6  3  0
  6 12  1  0
  8 14  1  0
 13 14  1  0
 13 17  1  0
 13 18  1  0
 13 19  1  0
 14 16  1  0
 14 15  1  0
 15 20  1  0
 16 21  1  0
 16 22  1  0
 16 23  1  0
M  RAD  1   3   2
M  END
>  <reaction>  (16) 
rxn_1413

>  <mol_properties>  (16) 
{"1": {"label": "*0", "atom_type": "Ct"}, "2": {"label": "*1", "atom_type": "Cs"}, "7": {"label": "*2", "atom_type": "H0"}, "13": {"label": "*3", "atom_type": "Cs"}, "14": {"label": "*4", "atom_type": "S2s"}}

>  <type>  (16) 
unop_12

>  <geom_source>  (16) 
Heuristics

$$$$

     RDKit          3D

 23 21  0  0  0  0  0  0  0  0999 V2000
    1.8085   -1.7530   -0.1580 S   0  0  0  0  0  0  0  0  0  0  0  0
    1.3697   -0.0046    0.1148 C   0  0  0  0  0  0  0  0  0  0  0  0
    2.0046    0.8701   -0.9652 C   0  0  0  0  0  0  0  0  0  0  0  0
    1.8247    0.4283    1.5066 C   0  0  0  0  0  0  0  0  0  0  0  0
   -1.7753   -1.7473   -0.3016 C   0  0  0  0  0  0  0  0  0  0  0  0
   -1.1947   -0.3493   -0.1088 C   0  0  0  0  0  3  0  0  0  0  0  0
   -1.6177    0.2158    1.1783 C   0  0  0  0  0  0  0  0  0  0  0  0
   -1.6101    0.5406   -1.1998 C   0  0  0  0  0  0  0  0  0  0  0  0
   -1.9639    0.6793    2.2363 C   0  0  0  0  0  0  0  0  0  0  0  0
   -1.9500    1.2711   -2.0970 C   0  0  0  0  0  0  0  0  0  0  0  0
    0.0473    0.1173    0.0437 H   0  0  0  0  0  0  0  0  0  0  0  0
    1.6382    0.5600   -1.9664 H   0  0  0  0  0  0  0  0  0  0  0  0
    1.7245    1.9332   -0.8077 H   0  0  0  0  0  0  0  0  0  0  0  0
    3.1117    0.7789   -0.9419 H   0  0  0  0  0  0  0  0  0  0  0  0
    1.3372   -0.2071    2.2758 H   0  0  0  0  0  0  0  0  0  0  0  0
    2.9274    0.3329    1.6058 H   0  0  0  0  0  0  0  0  0  0  0  0
    1.5334    1.4839    1.6917 H   0  0  0  0  0  0  0  0  0  0  0  0
   -1.4300   -2.4157    0.5158 H   0  0  0  0  0  0  0  0  0  0  0  0
   -2.8871   -1.7189   -0.3013 H   0  0  0  0  0  0  0  0  0  0  0  0
   -1.4242   -2.1723   -1.2660 H   0  0  0  0  0  0  0  0  0  0  0  0
    1.0419   -1.8414   -1.3356 H   0  0  0  0  0  0  0  0  0  0  0  0
   -2.2679    1.0861    3.1648 H   0  0  0  0  0  0  0  0  0  0  0  0
   -2.2484    1.9121   -2.8843 H   0  0  0  0  0  0  0  0  0  0  0  0
  1  2  1  0
  1 21  1  0
  2  3  1  0
  2  4  1  0
  2 11  1  0
  3 12  1  0
  3 13  1  0
  3 14  1  0
  4 15  1  0
  4 16  1  0
  4 17  1  0
  5  6  1  0
  5 18  1  0
  5 19  1  0
  5 20  1  0
  6  7  1  0
  6  8  1  0
  7  9  3  0
  8 10  3  0
  9 22  1  0
 10 23  1  0
M  RAD  1   6   2
M  END
>  <reaction>  (17) 
rxn_1413

>  <mol_properties>  (17) 
{"1": {"label": "*0", "atom_type": "Ct"}, "2": {"label": "*1", "atom_type": "Cs"}, "7": {"label": "*2", "atom_type": "H0"}, "13": {"label": "*3", "atom_type": "Cs"}, "14": {"label": "*4", "atom_type": "S2s"}}

>  <type>  (17) 
unop_13

>  <geom_source>  (17) 
AutoTST

$$$$
