
     RDKit          3D

 25 26  0  0  0  0  0  0  0  0999 V2000
    2.0298   -1.1515    0.0571 C   0  0  0  0  0  0  0  0  0  0  0  0
    2.2278    0.2445    0.6528 C   0  0  0  0  0  0  0  0  0  0  0  0
    1.2292    1.2625    0.0947 C   0  0  0  0  0  0  0  0  0  0  0  0
   -0.1869    0.7454    0.2762 C   0  0  0  0  0  0  0  0  0  0  0  0
   -1.3415    1.5501   -0.3122 C   0  0  0  0  0  0  0  0  0  0  0  0
   -2.5060    0.5338   -0.4178 C   0  0  0  0  0  0  0  0  0  0  0  0
   -1.8709   -0.8658   -0.2234 C   0  0  0  0  0  0  0  0  0  0  0  0
   -0.3715   -0.6265   -0.3693 C   0  0  0  0  0  0  0  0  0  0  0  0
    0.5898   -1.6500    0.2086 C   0  0  0  0  0  0  0  0  0  0  0  0
    2.2820   -1.1226   -1.0088 H   0  0  0  0  0  0  0  0  0  0  0  0
    2.7243   -1.8549    0.5221 H   0  0  0  0  0  0  0  0  0  0  0  0
    2.1030    0.1885    1.7400 H   0  0  0  0  0  0  0  0  0  0  0  0
    3.2514    0.5819    0.4743 H   0  0  0  0  0  0  0  0  0  0  0  0
    1.3611    2.2304    0.5855 H   0  0  0  0  0  0  0  0  0  0  0  0
    1.4198    1.4194   -0.9737 H   0  0  0  0  0  0  0  0  0  0  0  0
   -0.3675    0.6209    1.3539 H   0  0  0  0  0  0  0  0  0  0  0  0
   -1.5992    2.4249    0.2862 H   0  0  0  0  0  0  0  0  0  0  0  0
   -1.0595    1.9116   -1.3055 H   0  0  0  0  0  0  0  0  0  0  0  0
   -3.2666    0.7244    0.3399 H   0  0  0  0  0  0  0  0  0  0  0  0
   -3.0030    0.6112   -1.3853 H   0  0  0  0  0  0  0  0  0  0  0  0
   -2.2549   -1.6039   -0.9288 H   0  0  0  0  0  0  0  0  0  0  0  0
   -2.0796   -1.2429    0.7821 H   0  0  0  0  0  0  0  0  0  0  0  0
   -0.1432   -0.5121   -1.4391 H   0  0  0  0  0  0  0  0  0  0  0  0
    0.4720   -2.6209   -0.2799 H   0  0  0  0  0  0  0  0  0  0  0  0
    0.3601   -1.7986    1.2704 H   0  0  0  0  0  0  0  0  0  0  0  0
  1  2  1  0
  1  9  1  0
  1 10  1  0
  1 11  1  0
  2  3  1  0
  2 12  1  0
  2 13  1  0
  3  4  1  0
  3 14  1  0
  3 15  1  0
  4  5  1  0
  4  8  1  0
  4 16  1  0
  5  6  1  0
  5 17  1  0
  5 18  1  0
  6  7  1  0
  6 19  1  0
  6 20  1  0
  7  8  1  0
  7 21  1  0
  7 22  1  0
  8  9  1  0
  8 23  1  0
  9 24  1  0
  9 25  1  0
M  END
>  <reaction>  (1) 
rxn_610

>  <mol_properties>  (1) 
{"5": {"label": "donator", "atom_type": "Cs"}, "18": {"label": "d_hydrogen", "atom_type": "H0"}}

>  <type>  (1) 
r1h

$$$$

     RDKit          3D

 12 11  0  0  0  0  0  0  0  0999 V2000
    2.5164   -0.5559   -0.0242 C   0  0  0  0  0  0  0  0  0  0  0  0
    1.3287   -0.2938   -0.0132 C   0  0  0  0  0  0  0  0  0  0  0  0
   -0.0146    0.0027   -0.0006 C   0  0  0  0  0  3  0  0  0  0  0  0
   -1.0396   -1.0729   -0.1642 C   0  0  0  0  0  0  0  0  0  0  0  0
   -0.4887    1.4091    0.1769 C   0  0  0  0  0  0  0  0  0  0  0  0
    3.5543   -0.7850   -0.0339 H   0  0  0  0  0  0  0  0  0  0  0  0
   -1.7064   -1.1056    0.7044 H   0  0  0  0  0  0  0  0  0  0  0  0
   -0.5831   -2.0533   -0.2854 H   0  0  0  0  0  0  0  0  0  0  0  0
   -1.6716   -0.8741   -1.0367 H   0  0  0  0  0  0  0  0  0  0  0  0
   -1.0951    1.7228   -0.6798 H   0  0  0  0  0  0  0  0  0  0  0  0
    0.3401    2.1059    0.2861 H   0  0  0  0  0  0  0  0  0  0  0  0
   -1.1300    1.4913    1.0613 H   0  0  0  0  0  0  0  0  0  0  0  0
  1  2  3  0
  1  6  1  0
  2  3  1  0
  3  4  1  0
  3  5  1  0
  4  7  1  0
  4  8  1  0
  4  9  1  0
  5 10  1  0
  5 11  1  0
  5 12  1  0
M  RAD  1   3   2
M  END
>  <reaction>  (2) 
rxn_610

>  <mol_properties>  (2) 
{"2": {"label": "acceptor", "atom_type": "Cs"}}

>  <type>  (2) 
r2

$$$$

     RDKit          3D

 13 12  0  0  0  0  0  0  0  0999 V2000
    2.2975   -0.6134    0.7685 C   0  0  0  0  0  0  0  0  0  0  0  0
    1.1676   -0.5248    0.3802 C   0  0  0  0  0  0  0  0  0  0  0  0
   -0.2109   -0.3926   -0.0948 C   0  0  0  0  0  0  0  0  0  0  0  0
   -0.2501    0.2584   -1.4808 C   0  0  0  0  0  0  0  0  0  0  0  0
   -1.0633    0.3831    0.9141 C   0  0  0  0  0  0  0  0  0  0  0  0
    3.2999   -0.6974    1.1133 H   0  0  0  0  0  0  0  0  0  0  0  0
   -0.6209   -1.4038   -0.1814 H   0  0  0  0  0  0  0  0  0  0  0  0
    0.3402   -0.3102   -2.1992 H   0  0  0  0  0  0  0  0  0  0  0  0
    0.1511    1.2724   -1.4369 H   0  0  0  0  0  0  0  0  0  0  0  0
   -1.2791    0.3109   -1.8407 H   0  0  0  0  0  0  0  0  0  0  0  0
   -0.6861    1.4008    1.0287 H   0  0  0  0  0  0  0  0  0  0  0  0
   -1.0492   -0.0971    1.8924 H   0  0  0  0  0  0  0  0  0  0  0  0
   -2.0971    0.4363    0.5680 H   0  0  0  0  0  0  0  0  0  0  0  0
  1  2  3  0
  1  6  1  0
  2  3  1  0
  3  4  1  0
  3  5  1  0
  3  7  1  0
  4  8  1  0
  4  9  1  0
  4 10  1  0
  5 11  1  0
  5 12  1  0
  5 13  1  0
M  END
>  <reaction>  (3) 
rxn_610

>  <mol_properties>  (3) 
{"2": {"label": "acceptor", "atom_type": "Cs"}, "12": {"label": "a_hydrogen", "atom_type": "H0"}}

>  <type>  (3) 
r2h

$$$$

     RDKit          3D

 37 37  0  0  0  0  0  0  0  0999 V2000
   -2.2783    1.4813    1.1128 C   0  0  0  0  0  0  0  0  0  0  0  0
   -1.2613    2.0148    0.7537 C   0  0  0  0  0  0  0  0  0  0  0  0
   -0.0354    2.6042    0.3001 C   0  0  0  0  0  0  0  0  0  0  0  0
    0.9845    2.8448    1.3976 C   0  0  0  0  0  0  0  0  0  0  0  0
   -0.2211    3.7735   -0.6494 C   0  0  0  0  0  0  0  0  0  0  0  0
   -3.1807    1.0215    1.4359 H   0  0  0  0  0  0  0  0  0  0  0  0
    1.9536    3.0959    0.9607 H   0  0  0  0  0  0  0  0  0  0  0  0
    1.1058    1.9601    2.0231 H   0  0  0  0  0  0  0  0  0  0  0  0
    0.6786    3.6743    2.0419 H   0  0  0  0  0  0  0  0  0  0  0  0
   -0.6413    4.6394   -0.1301 H   0  0  0  0  0  0  0  0  0  0  0  0
   -0.8926    3.5111   -1.4675 H   0  0  0  0  0  0  0  0  0  0  0  0
    0.7415    4.0667   -1.0738 H   0  0  0  0  0  0  0  0  0  0  0  0
   -1.1660   -3.4173   -0.3431 C   0  0  0  0  0  0  0  0  0  0  0  0
   -0.3717   -3.2478    0.9548 C   0  0  0  0  0  0  0  0  0  0  0  0
    0.9319   -2.4705    0.7464 C   0  0  0  0  0  0  0  0  0  0  0  0
    0.6248   -1.1479    0.0700 C   0  0  0  0  0  0  0  0  0  0  0  0
    1.7683   -0.2193   -0.3240 C   0  0  0  0  0  0  0  0  0  0  0  0
    1.0874    0.7381   -1.2836 C   0  0  0  0  0  3  0  0  0  0  0  0
   -0.1208    0.0369   -1.8917 C   0  0  0  0  0  0  0  0  0  0  0  0
   -0.1007   -1.3602   -1.2600 C   0  0  0  0  0  0  0  0  0  0  0  0
   -1.4191   -2.0847   -1.0543 C   0  0  0  0  0  0  0  0  0  0  0  0
   -0.6073   -4.0750   -1.0185 H   0  0  0  0  0  0  0  0  0  0  0  0
   -2.1131   -3.9199   -0.1335 H   0  0  0  0  0  0  0  0  0  0  0  0
   -0.9881   -2.7064    1.6809 H   0  0  0  0  0  0  0  0  0  0  0  0
   -0.1631   -4.2273    1.3913 H   0  0  0  0  0  0  0  0  0  0  0  0
    1.4359   -2.3162    1.7041 H   0  0  0  0  0  0  0  0  0  0  0  0
    1.6150   -3.0524    0.1160 H   0  0  0  0  0  0  0  0  0  0  0  0
   -0.0525   -0.5798    0.7222 H   0  0  0  0  0  0  0  0  0  0  0  0
    2.2360    0.2851    0.5249 H   0  0  0  0  0  0  0  0  0  0  0  0
    2.5572   -0.7876   -0.8344 H   0  0  0  0  0  0  0  0  0  0  0  0
    0.5181    1.6973   -0.4547 H   0  0  0  0  0  0  0  0  0  0  0  0
    1.7158    1.3368   -1.9386 H   0  0  0  0  0  0  0  0  0  0  0  0
   -0.0820    0.0051   -2.9826 H   0  0  0  0  0  0  0  0  0  0  0  0
   -1.0482    0.5570   -1.6228 H   0  0  0  0  0  0  0  0  0  0  0  0
    0.5457   -2.0012   -1.8761 H   0  0  0  0  0  0  0  0  0  0  0  0
   -1.9288   -2.2556   -2.0062 H   0  0  0  0  0  0  0  0  0  0  0  0
   -2.0785   -1.4544   -0.4464 H   0  0  0  0  0  0  0  0  0  0  0  0
  1  2  3  0
  1  6  1  0
  2  3  1  0
  3  4  1  0
  3  5  1  0
  3 31  1  0
  4  7  1  0
  4  8  1  0
  4  9  1  0
  5 10  1  0
  5 11  1  0
  5 12  1  0
 13 14  1  0
 13 21  1  0
 13 22  1  0
 13 23  1  0
 14 15  1  0
 14 24  1  0
 14 25  1  0
 15 16  1  0
 15 26  1  0
 15 27  1  0
 16 17  1  0
 16 20  1  0
 16 28  1  0
 17 18  1  0
 17 29  1  0
 17 30  1  0
 18 19  1  0
 18 32  1  0
 19 20  1  0
 19 33  1  0
 19 34  1  0
 20 21  1  0
 20 35  1  0
 21 36  1  0
 21 37  1  0
M  RAD  1  18   2
M  END
>  <reaction>  (4) 
rxn_610

>  <mol_properties>  (4) 
{"1": {"label": "*0", "atom_type": "Ct"}, "2": {"label": "*1", "atom_type": "Cs"}, "16": {"label": "*4", "atom_type": "Cs"}, "17": {"label": "*3", "atom_type": "Cs"}, "30": {"label": "*2", "atom_type": "H0"}}

>  <type>  (4) 
ts

$$$$

     RDKit          3D

 37 37  0  0  0  0  0  0  0  0999 V2000
    1.9185    4.6285    0.2888 C   0  0  0  0  0  0  0  0  0  0  0  0
    1.0903    3.7769    0.4448 C   0  0  0  0  0  0  0  0  0  0  0  0
    0.0613    2.7520    0.6294 C   0  0  0  0  0  3  0  0  0  0  0  0
   -0.6772    2.4779   -0.6842 C   0  0  0  0  0  0  0  0  0  0  0  0
   -0.9087    3.1481    1.7467 C   0  0  0  0  0  0  0  0  0  0  0  0
    2.6535    5.3843    0.1504 H   0  0  0  0  0  0  0  0  0  0  0  0
   -1.4106    1.6821   -0.5423 H   0  0  0  0  0  0  0  0  0  0  0  0
    0.0157    2.1751   -1.4692 H   0  0  0  0  0  0  0  0  0  0  0  0
   -1.2023    3.3737   -1.0202 H   0  0  0  0  0  0  0  0  0  0  0  0
   -1.4406    4.0638    1.4825 H   0  0  0  0  0  0  0  0  0  0  0  0
   -0.3798    3.3203    2.6840 H   0  0  0  0  0  0  0  0  0  0  0  0
   -1.6435    2.3563    1.9027 H   0  0  0  0  0  0  0  0  0  0  0  0
   -1.1214   -3.7886   -1.0263 C   0  0  0  0  0  0  0  0  0  0  0  0
   -1.1214   -3.7886    0.5043 C   0  0  0  0  0  0  0  0  0  0  0  0
    0.0217   -2.9522    1.0863 C   0  0  0  0  0  0  0  0  0  0  0  0
   -0.0179   -1.5512    0.5022 C   0  0  0  0  0  0  0  0  0  0  0  0
    1.1012   -0.5775    0.8577 C   0  0  0  0  0  0  0  0  0  0  0  0
    1.0512    0.4931   -0.2610 C   0  0  0  0  0  0  0  0  0  0  0  0
    0.1577   -0.0987   -1.3796 C   0  0  0  0  0  0  0  0  0  0  0  0
    0.0327   -1.5769   -1.0242 C   0  0  0  0  0  0  0  0  0  0  0  0
   -1.1214   -2.3722   -1.6083 C   0  0  0  0  0  0  0  0  0  0  0  0
   -0.2289   -4.3154   -1.3822 H   0  0  0  0  0  0  0  0  0  0  0  0
   -1.9823   -4.3497   -1.3970 H   0  0  0  0  0  0  0  0  0  0  0  0
   -2.0735   -3.3795    0.8602 H   0  0  0  0  0  0  0  0  0  0  0  0
   -1.0658   -4.8147    0.8750 H   0  0  0  0  0  0  0  0  0  0  0  0
   -0.0455   -2.9263    2.1772 H   0  0  0  0  0  0  0  0  0  0  0  0
    0.9833   -3.4174    0.8383 H   0  0  0  0  0  0  0  0  0  0  0  0
   -0.9766   -1.0924    0.7847 H   0  0  0  0  0  0  0  0  0  0  0  0
    0.9924   -0.1495    1.8551 H   0  0  0  0  0  0  0  0  0  0  0  0
    2.0588   -1.1060    0.8372 H   0  0  0  0  0  0  0  0  0  0  0  0
    0.5572    1.6204    0.1833 H   0  0  0  0  0  0  0  0  0  0  0  0
    2.0524    0.7156   -0.6312 H   0  0  0  0  0  0  0  0  0  0  0  0
    0.5674    0.0661   -2.3770 H   0  0  0  0  0  0  0  0  0  0  0  0
   -0.8343    0.3620   -1.3592 H   0  0  0  0  0  0  0  0  0  0  0  0
    0.9691   -2.0797   -1.3067 H   0  0  0  0  0  0  0  0  0  0  0  0
   -1.0607   -2.4111   -2.6991 H   0  0  0  0  0  0  0  0  0  0  0  0
   -2.0645   -1.8709   -1.3602 H   0  0  0  0  0  0  0  0  0  0  0  0
  1  2  3  0
  1  6  1  0
  2  3  1  0
  3  4  1  0
  3  5  1  0
  4  7  1  0
  4  8  1  0
  4  9  1  0
  5 10  1  0
  5 11  1  0
  5 12  1  0
 13 14  1  0
 13 21  1  0
 13 22  1  0
 13 23  1  0
 14 15  1  0
 14 24  1  0
 14 25  1  0
 15 16  1  0
 15 26  1  0
 15 27  1  0
 16 17  1  0
 16 20  1  0
 16 28  1  0
 17 18  1  0
 17 29  1  0
 17 30  1  0
 18 19  1  0
 18 31  1  0
 18 32  1  0
 19 20  1  0
 19 33  1  0
 19 34  1  0
 20 21  1  0
 20 35  1  0
 21 36  1  0
 21 37  1  0
M  RAD  1   3   2
M  END
>  <reaction>  (5) 
rxn_610

>  <mol_properties>  (5) 
{"1": {"label": "*0", "atom_type": "Ct"}, "2": {"label": "*1", "atom_type": "Cs"}, "16": {"label": "*4", "atom_type": "Cs"}, "17": {"label": "*3", "atom_type": "Cs"}, "30": {"label": "*2", "atom_type": "H0"}}

>  <type>  (5) 
unop_1

>  <geom_source>  (5) 
Heuristics

$$$$

     RDKit          3D

 37 37  0  0  0  0  0  0  0  0999 V2000
    0.7125    3.0233    2.9787 C   0  0  0  0  0  0  0  0  0  0  0  0
    0.4344    2.9285    1.8172 C   0  0  0  0  0  0  0  0  0  0  0  0
    0.0904    2.8362    0.3972 C   0  0  0  0  0  3  0  0  0  0  0  0
    1.0549    3.6689   -0.4528 C   0  0  0  0  0  0  0  0  0  0  0  0
   -1.3657    3.2489    0.1609 C   0  0  0  0  0  0  0  0  0  0  0  0
    0.9593    3.1074    4.0096 H   0  0  0  0  0  0  0  0  0  0  0  0
    0.8137    3.5563   -1.5113 H   0  0  0  0  0  0  0  0  0  0  0  0
    2.0872    3.3559   -0.2969 H   0  0  0  0  0  0  0  0  0  0  0  0
    0.9765    4.7260   -0.1927 H   0  0  0  0  0  0  0  0  0  0  0  0
   -1.5155    4.2935    0.4391 H   0  0  0  0  0  0  0  0  0  0  0  0
   -2.0483    2.6382    0.7516 H   0  0  0  0  0  0  0  0  0  0  0  0
   -1.6208    3.1338   -0.8940 H   0  0  0  0  0  0  0  0  0  0  0  0
   -1.0923   -3.7044   -1.2585 C   0  0  0  0  0  0  0  0  0  0  0  0
   -1.0923   -3.7044    0.2721 C   0  0  0  0  0  0  0  0  0  0  0  0
    0.0508   -2.8680    0.8541 C   0  0  0  0  0  0  0  0  0  0  0  0
    0.0112   -1.4670    0.2700 C   0  0  0  0  0  0  0  0  0  0  0  0
    1.1303   -0.4932    0.6255 C   0  0  0  0  0  0  0  0  0  0  0  0
    1.0803    0.5773   -0.4932 C   0  0  0  0  0  0  0  0  0  0  0  0
    0.1868   -0.0145   -1.6118 C   0  0  0  0  0  0  0  0  0  0  0  0
    0.0617   -1.4926   -1.2563 C   0  0  0  0  0  0  0  0  0  0  0  0
   -1.0923   -2.2879   -1.8405 C   0  0  0  0  0  0  0  0  0  0  0  0
   -0.1999   -4.2312   -1.6144 H   0  0  0  0  0  0  0  0  0  0  0  0
   -1.9532   -4.2655   -1.6292 H   0  0  0  0  0  0  0  0  0  0  0  0
   -2.0444   -3.2952    0.6281 H   0  0  0  0  0  0  0  0  0  0  0  0
   -1.0368   -4.7305    0.6429 H   0  0  0  0  0  0  0  0  0  0  0  0
   -0.0164   -2.8420    1.9450 H   0  0  0  0  0  0  0  0  0  0  0  0
    1.0124   -3.3331    0.6061 H   0  0  0  0  0  0  0  0  0  0  0  0
   -0.9476   -1.0082    0.5526 H   0  0  0  0  0  0  0  0  0  0  0  0
    1.0214   -0.0653    1.6229 H   0  0  0  0  0  0  0  0  0  0  0  0
    2.0879   -1.0218    0.6050 H   0  0  0  0  0  0  0  0  0  0  0  0
    0.5863    1.7046   -0.0488 H   0  0  0  0  0  0  0  0  0  0  0  0
    2.0815    0.7998   -0.8634 H   0  0  0  0  0  0  0  0  0  0  0  0
    0.5965    0.1504   -2.6092 H   0  0  0  0  0  0  0  0  0  0  0  0
   -0.8052    0.4462   -1.5914 H   0  0  0  0  0  0  0  0  0  0  0  0
    0.9982   -1.9955   -1.5389 H   0  0  0  0  0  0  0  0  0  0  0  0
   -1.0316   -2.3269   -2.9313 H   0  0  0  0  0  0  0  0  0  0  0  0
   -2.0355   -1.7866   -1.5924 H   0  0  0  0  0  0  0  0  0  0  0  0
  1  2  3  0
  1  6  1  0
  2  3  1  0
  3  4  1  0
  3  5  1  0
  4  7  1  0
  4  8  1  0
  4  9  1  0
  5 10  1  0
  5 11  1  0
  5 12  1  0
 13 14  1  0
 13 21  1  0
 13 22  1  0
 13 23  1  0
 14 15  1  0
 14 24  1  0
 14 25  1  0
 15 16  1  0
 15 26  1  0
 15 27  1  0
 16 17  1  0
 16 20  1  0
 16 28  1  0
 17 18  1  0
 17 29  1  0
 17 30  1  0
 18 19  1  0
 18 31  1  0
 18 32  1  0
 19 20  1  0
 19 33  1  0
 19 34  1  0
 20 21  1  0
 20 35  1  0
 21 36  1  0
 21 37  1  0
M  RAD  1   3   2
M  END
>  <reaction>  (6) 
rxn_610

>  <mol_properties>  (6) 
{"1": {"label": "*0", "atom_type": "Ct"}, "2": {"label": "*1", "atom_type": "Cs"}, "16": {"label": "*4", "atom_type": "Cs"}, "17": {"label": "*3", "atom_type": "Cs"}, "30": {"label": "*2", "atom_type": "H0"}}

>  <type>  (6) 
unop_2

>  <geom_source>  (6) 
Heuristics

$$$$

     RDKit          3D

 37 37  0  0  0  0  0  0  0  0999 V2000
    1.2291    4.7250   -0.7501 C   0  0  0  0  0  0  0  0  0  0  0  0
    0.7409    3.8322   -0.1176 C   0  0  0  0  0  0  0  0  0  0  0  0
    0.1252    2.7550    0.6593 C   0  0  0  0  0  3  0  0  0  0  0  0
   -1.1793    2.2883    0.0060 C   0  0  0  0  0  0  0  0  0  0  0  0
   -0.0980    3.1886    2.1113 C   0  0  0  0  0  0  0  0  0  0  0  0
    1.6624    5.5173   -1.3114 H   0  0  0  0  0  0  0  0  0  0  0  0
   -1.6044    1.4569    0.5710 H   0  0  0  0  0  0  0  0  0  0  0  0
   -1.0101    1.9603   -1.0196 H   0  0  0  0  0  0  0  0  0  0  0  0
   -1.9082    3.1004   -0.0118 H   0  0  0  0  0  0  0  0  0  0  0  0
   -0.7950    4.0272    2.1556 H   0  0  0  0  0  0  0  0  0  0  0  0
    0.8372    3.4985    2.5774 H   0  0  0  0  0  0  0  0  0  0  0  0
   -0.5168    2.3624    2.6886 H   0  0  0  0  0  0  0  0  0  0  0  0
   -1.0575   -3.7857   -0.9963 C   0  0  0  0  0  0  0  0  0  0  0  0
   -1.0575   -3.7857    0.5343 C   0  0  0  0  0  0  0  0  0  0  0  0
    0.0856   -2.9493    1.1163 C   0  0  0  0  0  0  0  0  0  0  0  0
    0.0460   -1.5483    0.5322 C   0  0  0  0  0  0  0  0  0  0  0  0
    1.1650   -0.5745    0.8876 C   0  0  0  0  0  0  0  0  0  0  0  0
    1.1151    0.4961   -0.2310 C   0  0  0  0  0  0  0  0  0  0  0  0
    0.2216   -0.0958   -1.3497 C   0  0  0  0  0  0  0  0  0  0  0  0
    0.0965   -1.5739   -0.9942 C   0  0  0  0  0  0  0  0  0  0  0  0
   -1.0575   -2.3692   -1.5783 C   0  0  0  0  0  0  0  0  0  0  0  0
   -0.1651   -4.3125   -1.3523 H   0  0  0  0  0  0  0  0  0  0  0  0
   -1.9184   -4.3467   -1.3671 H   0  0  0  0  0  0  0  0  0  0  0  0
   -2.0097   -3.3765    0.8902 H   0  0  0  0  0  0  0  0  0  0  0  0
   -1.0020   -4.8117    0.9050 H   0  0  0  0  0  0  0  0  0  0  0  0
    0.0183   -2.9233    2.2071 H   0  0  0  0  0  0  0  0  0  0  0  0
    1.0471   -3.4144    0.8682 H   0  0  0  0  0  0  0  0  0  0  0  0
   -0.9128   -1.0894    0.8147 H   0  0  0  0  0  0  0  0  0  0  0  0
    1.0562   -0.1466    1.8850 H   0  0  0  0  0  0  0  0  0  0  0  0
    2.1226   -1.1030    0.8672 H   0  0  0  0  0  0  0  0  0  0  0  0
    0.6211    1.6233    0.2133 H   0  0  0  0  0  0  0  0  0  0  0  0
    2.1163    0.7185   -0.6013 H   0  0  0  0  0  0  0  0  0  0  0  0
    0.6312    0.0691   -2.3471 H   0  0  0  0  0  0  0  0  0  0  0  0
   -0.7705    0.3650   -1.3292 H   0  0  0  0  0  0  0  0  0  0  0  0
    1.0330   -2.0768   -1.2767 H   0  0  0  0  0  0  0  0  0  0  0  0
   -0.9969   -2.4082   -2.6692 H   0  0  0  0  0  0  0  0  0  0  0  0
   -2.0007   -1.8679   -1.3303 H   0  0  0  0  0  0  0  0  0  0  0  0
  1  2  3  0
  1  6  1  0
  2  3  1  0
  3  4  1  0
  3  5  1  0
  4  7  1  0
  4  8  1  0
  4  9  1  0
  5 10  1  0
  5 11  1  0
  5 12  1  0
 13 14  1  0
 13 21  1  0
 13 22  1  0
 13 23  1  0
 14 15  1  0
 14 24  1  0
 14 25  1  0
 15 16  1  0
 15 26  1  0
 15 27  1  0
 16 17  1  0
 16 20  1  0
 16 28  1  0
 17 18  1  0
 17 29  1  0
 17 30  1  0
 18 19  1  0
 18 31  1  0
 18 32  1  0
 19 20  1  0
 19 33  1  0
 19 34  1  0
 20 21  1  0
 20 35  1  0
 21 36  1  0
 21 37  1  0
M  RAD  1   3   2
M  END
>  <reaction>  (7) 
rxn_610

>  <mol_properties>  (7) 
{"1": {"label": "*0", "atom_type": "Ct"}, "2": {"label": "*1", "atom_type": "Cs"}, "16": {"label": "*4", "atom_type": "Cs"}, "17": {"label": "*3", "atom_type": "Cs"}, "30": {"label": "*2", "atom_type": "H0"}}

>  <type>  (7) 
unop_3

>  <geom_source>  (7) 
Heuristics

$$$$

     RDKit          3D

 37 37  0  0  0  0  0  0  0  0999 V2000
   -2.1481    2.3984    1.4091 C   0  0  0  0  0  0  0  0  0  0  0  0
   -1.0338    2.6102    1.0232 C   0  0  0  0  0  0  0  0  0  0  0  0
    0.3212    2.8912    0.5454 C   0  0  0  0  0  3  0  0  0  0  0  0
    0.9543    4.0355    1.3428 C   0  0  0  0  0  0  0  0  0  0  0  0
    0.3189    3.1881   -0.9573 C   0  0  0  0  0  0  0  0  0  0  0  0
   -3.1371    2.2104    1.7515 H   0  0  0  0  0  0  0  0  0  0  0  0
    1.9784    4.2049    1.0056 H   0  0  0  0  0  0  0  0  0  0  0  0
    0.9731    3.8088    2.4087 H   0  0  0  0  0  0  0  0  0  0  0  0
    0.3884    4.9577    1.2005 H   0  0  0  0  0  0  0  0  0  0  0  0
   -0.2658    4.0853   -1.1674 H   0  0  0  0  0  0  0  0  0  0  0  0
   -0.1125    2.3610   -1.5210 H   0  0  0  0  0  0  0  0  0  0  0  0
    1.3394    3.3526   -1.3079 H   0  0  0  0  0  0  0  0  0  0  0  0
   -0.8615   -3.6494   -1.1103 C   0  0  0  0  0  0  0  0  0  0  0  0
   -0.8615   -3.6494    0.4203 C   0  0  0  0  0  0  0  0  0  0  0  0
    0.2816   -2.8130    1.0023 C   0  0  0  0  0  0  0  0  0  0  0  0
    0.2420   -1.4121    0.4182 C   0  0  0  0  0  0  0  0  0  0  0  0
    1.3610   -0.4383    0.7736 C   0  0  0  0  0  0  0  0  0  0  0  0
    1.3111    0.6323   -0.3450 C   0  0  0  0  0  0  0  0  0  0  0  0
    0.4176    0.0404   -1.4636 C   0  0  0  0  0  0  0  0  0  0  0  0
    0.2925   -1.4377   -1.1082 C   0  0  0  0  0  0  0  0  0  0  0  0
   -0.8615   -2.2330   -1.6923 C   0  0  0  0  0  0  0  0  0  0  0  0
    0.0309   -4.1763   -1.4662 H   0  0  0  0  0  0  0  0  0  0  0  0
   -1.7224   -4.2105   -1.4810 H   0  0  0  0  0  0  0  0  0  0  0  0
   -1.8137   -3.2403    0.7762 H   0  0  0  0  0  0  0  0  0  0  0  0
   -0.8060   -4.6755    0.7910 H   0  0  0  0  0  0  0  0  0  0  0  0
    0.2143   -2.7871    2.0932 H   0  0  0  0  0  0  0  0  0  0  0  0
    1.2431   -3.2782    0.7543 H   0  0  0  0  0  0  0  0  0  0  0  0
   -0.7168   -0.9532    0.7007 H   0  0  0  0  0  0  0  0  0  0  0  0
    1.2522   -0.0103    1.7711 H   0  0  0  0  0  0  0  0  0  0  0  0
    2.3187   -0.9668    0.7532 H   0  0  0  0  0  0  0  0  0  0  0  0
    0.8171    1.7595    0.0993 H   0  0  0  0  0  0  0  0  0  0  0  0
    2.3123    0.8547   -0.7152 H   0  0  0  0  0  0  0  0  0  0  0  0
    0.8272    0.2053   -2.4610 H   0  0  0  0  0  0  0  0  0  0  0  0
   -0.5744    0.5012   -1.4432 H   0  0  0  0  0  0  0  0  0  0  0  0
    1.2290   -1.9405   -1.3907 H   0  0  0  0  0  0  0  0  0  0  0  0
   -0.8009   -2.2720   -2.7831 H   0  0  0  0  0  0  0  0  0  0  0  0
   -1.8047   -1.7317   -1.4442 H   0  0  0  0  0  0  0  0  0  0  0  0
  1  2  3  0
  1  6  1  0
  2  3  1  0
  3  4  1  0
  3  5  1  0
  4  7  1  0
  4  8  1  0
  4  9  1  0
  5 10  1  0
  5 11  1  0
  5 12  1  0
 13 14  1  0
 13 21  1  0
 13 22  1  0
 13 23  1  0
 14 15  1  0
 14 24  1  0
 14 25  1  0
 15 16  1  0
 15 26  1  0
 15 27  1  0
 16 17  1  0
 16 20  1  0
 16 28  1  0
 17 18  1  0
 17 29  1  0
 17 30  1  0
 18 19  1  0
 18 31  1  0
 18 32  1  0
 19 20  1  0
 19 33  1  0
 19 34  1  0
 20 21  1  0
 20 35  1  0
 21 36  1  0
 21 37  1  0
M  RAD  1   3   2
M  END
>  <reaction>  (8) 
rxn_610

>  <mol_properties>  (8) 
{"1": {"label": "*0", "atom_type": "Ct"}, "2": {"label": "*1", "atom_type": "Cs"}, "16": {"label": "*4", "atom_type": "Cs"}, "17": {"label": "*3", "atom_type": "Cs"}, "30": {"label": "*2", "atom_type": "H0"}}

>  <type>  (8) 
unop_4

>  <geom_source>  (8) 
Heuristics

$$$$

     RDKit          3D

 37 37  0  0  0  0  0  0  0  0999 V2000
    0.1410    4.4825   -1.3721 C   0  0  0  0  0  0  0  0  0  0  0  0
    0.1537    3.6990   -0.4658 C   0  0  0  0  0  0  0  0  0  0  0  0
    0.1598    2.7584    0.6560 C   0  0  0  0  0  3  0  0  0  0  0  0
   -1.2646    2.4923    1.1524 C   0  0  0  0  0  0  0  0  0  0  0  0
    1.0630    3.2627    1.7857 C   0  0  0  0  0  0  0  0  0  0  0  0
    0.1297    5.1779   -2.1764 H   0  0  0  0  0  0  0  0  0  0  0  0
   -1.2488    1.7572    1.9590 H   0  0  0  0  0  0  0  0  0  0  0  0
   -1.8965    2.1128    0.3495 H   0  0  0  0  0  0  0  0  0  0  0  0
   -1.7132    3.4114    1.5335 H   0  0  0  0  0  0  0  0  0  0  0  0
    0.6831    4.2045    2.1854 H   0  0  0  0  0  0  0  0  0  0  0  0
    2.0802    3.4290    1.4315 H   0  0  0  0  0  0  0  0  0  0  0  0
    1.0923    2.5320    2.5959 H   0  0  0  0  0  0  0  0  0  0  0  0
   -1.0229   -3.7822   -0.9997 C   0  0  0  0  0  0  0  0  0  0  0  0
   -1.0229   -3.7822    0.5310 C   0  0  0  0  0  0  0  0  0  0  0  0
    0.1202   -2.9459    1.1129 C   0  0  0  0  0  0  0  0  0  0  0  0
    0.0806   -1.5449    0.5288 C   0  0  0  0  0  0  0  0  0  0  0  0
    1.1997   -0.5711    0.8843 C   0  0  0  0  0  0  0  0  0  0  0  0
    1.1497    0.4995   -0.2344 C   0  0  0  0  0  0  0  0  0  0  0  0
    0.2562   -0.0924   -1.3530 C   0  0  0  0  0  0  0  0  0  0  0  0
    0.1311   -1.5705   -0.9975 C   0  0  0  0  0  0  0  0  0  0  0  0
   -1.0229   -2.3658   -1.5816 C   0  0  0  0  0  0  0  0  0  0  0  0
   -0.1305   -4.3091   -1.3556 H   0  0  0  0  0  0  0  0  0  0  0  0
   -1.8838   -4.3433   -1.3704 H   0  0  0  0  0  0  0  0  0  0  0  0
   -1.9750   -3.3731    0.8869 H   0  0  0  0  0  0  0  0  0  0  0  0
   -0.9674   -4.8083    0.9017 H   0  0  0  0  0  0  0  0  0  0  0  0
    0.0530   -2.9199    2.2038 H   0  0  0  0  0  0  0  0  0  0  0  0
    1.0818   -3.4110    0.8649 H   0  0  0  0  0  0  0  0  0  0  0  0
   -0.8782   -1.0860    0.8114 H   0  0  0  0  0  0  0  0  0  0  0  0
    1.0908   -0.1431    1.8817 H   0  0  0  0  0  0  0  0  0  0  0  0
    2.1573   -1.0996    0.8638 H   0  0  0  0  0  0  0  0  0  0  0  0
    0.6557    1.6267    0.2100 H   0  0  0  0  0  0  0  0  0  0  0  0
    2.1509    0.7219   -0.6046 H   0  0  0  0  0  0  0  0  0  0  0  0
    0.6659    0.0725   -2.3504 H   0  0  0  0  0  0  0  0  0  0  0  0
   -0.7358    0.3684   -1.3326 H   0  0  0  0  0  0  0  0  0  0  0  0
    1.0676   -2.0733   -1.2801 H   0  0  0  0  0  0  0  0  0  0  0  0
   -0.9622   -2.4048   -2.6725 H   0  0  0  0  0  0  0  0  0  0  0  0
   -1.9661   -1.8645   -1.3336 H   0  0  0  0  0  0  0  0  0  0  0  0
  1  2  3  0
  1  6  1  0
  2  3  1  0
  3  4  1  0
  3  5  1  0
  4  7  1  0
  4  8  1  0
  4  9  1  0
  5 10  1  0
  5 11  1  0
  5 12  1  0
 13 14  1  0
 13 21  1  0
 13 22  1  0
 13 23  1  0
 14 15  1  0
 14 24  1  0
 14 25  1  0
 15 16  1  0
 15 26  1  0
 15 27  1  0
 16 17  1  0
 16 20  1  0
 16 28  1  0
 17 18  1  0
 17 29  1  0
 17 30  1  0
 18 19  1  0
 18 31  1  0
 18 32  1  0
 19 20  1  0
 19 33  1  0
 19 34  1  0
 20 21  1  0
 20 35  1  0
 21 36  1  0
 21 37  1  0
M  RAD  1   3   2
M  END
>  <reaction>  (9) 
rxn_610

>  <mol_properties>  (9) 
{"1": {"label": "*0", "atom_type": "Ct"}, "2": {"label": "*1", "atom_type": "Cs"}, "16": {"label": "*4", "atom_type": "Cs"}, "17": {"label": "*3", "atom_type": "Cs"}, "30": {"label": "*2", "atom_type": "H0"}}

>  <type>  (9) 
unop_5

>  <geom_source>  (9) 
Heuristics

$$$$

     RDKit          3D

 37 37  0  0  0  0  0  0  0  0999 V2000
   -2.3327    2.7784    0.2577 C   0  0  0  0  0  0  0  0  0  0  0  0
   -1.1472    2.8033    0.4289 C   0  0  0  0  0  0  0  0  0  0  0  0
    0.3016    2.8569    0.6322 C   0  0  0  0  0  3  0  0  0  0  0  0
    0.6594    3.8403    1.7507 C   0  0  0  0  0  0  0  0  0  0  0  0
    1.0229    3.2050   -0.6734 C   0  0  0  0  0  0  0  0  0  0  0  0
   -3.3849    2.7563    0.1057 H   0  0  0  0  0  0  0  0  0  0  0  0
    1.7375    3.8378    1.9207 H   0  0  0  0  0  0  0  0  0  0  0  0
    0.1605    3.5745    2.6826 H   0  0  0  0  0  0  0  0  0  0  0  0
    0.3565    4.8530    1.4789 H   0  0  0  0  0  0  0  0  0  0  0  0
    0.7308    4.1990   -1.0168 H   0  0  0  0  0  0  0  0  0  0  0  0
    0.7817    2.4891   -1.4591 H   0  0  0  0  0  0  0  0  0  0  0  0
    2.1032    3.1988   -0.5175 H   0  0  0  0  0  0  0  0  0  0  0  0
   -0.8811   -3.6837   -1.0235 C   0  0  0  0  0  0  0  0  0  0  0  0
   -0.8811   -3.6837    0.5071 C   0  0  0  0  0  0  0  0  0  0  0  0
    0.2620   -2.8473    1.0891 C   0  0  0  0  0  0  0  0  0  0  0  0
    0.2224   -1.4463    0.5050 C   0  0  0  0  0  0  0  0  0  0  0  0
    1.3415   -0.4726    0.8604 C   0  0  0  0  0  0  0  0  0  0  0  0
    1.2915    0.5980   -0.2582 C   0  0  0  0  0  0  0  0  0  0  0  0
    0.3980    0.0062   -1.3768 C   0  0  0  0  0  0  0  0  0  0  0  0
    0.2730   -1.4720   -1.0214 C   0  0  0  0  0  0  0  0  0  0  0  0
   -0.8811   -2.2673   -1.6055 C   0  0  0  0  0  0  0  0  0  0  0  0
    0.0113   -4.2105   -1.3794 H   0  0  0  0  0  0  0  0  0  0  0  0
   -1.7420   -4.2448   -1.3942 H   0  0  0  0  0  0  0  0  0  0  0  0
   -1.8332   -3.2746    0.8630 H   0  0  0  0  0  0  0  0  0  0  0  0
   -0.8256   -4.7098    0.8778 H   0  0  0  0  0  0  0  0  0  0  0  0
    0.1948   -2.8214    2.1800 H   0  0  0  0  0  0  0  0  0  0  0  0
    1.2236   -3.3125    0.8411 H   0  0  0  0  0  0  0  0  0  0  0  0
   -0.7364   -0.9875    0.7875 H   0  0  0  0  0  0  0  0  0  0  0  0
    1.2326   -0.0446    1.8579 H   0  0  0  0  0  0  0  0  0  0  0  0
    2.2991   -1.0011    0.8400 H   0  0  0  0  0  0  0  0  0  0  0  0
    0.7975    1.7253    0.1861 H   0  0  0  0  0  0  0  0  0  0  0  0
    2.2927    0.8205   -0.6284 H   0  0  0  0  0  0  0  0  0  0  0  0
    0.8077    0.1710   -2.3742 H   0  0  0  0  0  0  0  0  0  0  0  0
   -0.5940    0.4669   -1.3564 H   0  0  0  0  0  0  0  0  0  0  0  0
    1.2094   -1.9748   -1.3039 H   0  0  0  0  0  0  0  0  0  0  0  0
   -0.8204   -2.3062   -2.6963 H   0  0  0  0  0  0  0  0  0  0  0  0
   -1.8243   -1.7660   -1.3574 H   0  0  0  0  0  0  0  0  0  0  0  0
  1  2  3  0
  1  6  1  0
  2  3  1  0
  3  4  1  0
  3  5  1  0
  4  7  1  0
  4  8  1  0
  4  9  1  0
  5 10  1  0
  5 11  1  0
  5 12  1  0
 13 14  1  0
 13 21  1  0
 13 22  1  0
 13 23  1  0
 14 15  1  0
 14 24  1  0
 14 25  1  0
 15 16  1  0
 15 26  1  0
 15 27  1  0
 16 17  1  0
 16 20  1  0
 16 28  1  0
 17 18  1  0
 17 29  1  0
 17 30  1  0
 18 19  1  0
 18 31  1  0
 18 32  1  0
 19 20  1  0
 19 33  1  0
 19 34  1  0
 20 21  1  0
 20 35  1  0
 21 36  1  0
 21 37  1  0
M  RAD  1   3   2
M  END
>  <reaction>  (10) 
rxn_610

>  <mol_properties>  (10) 
{"1": {"label": "*0", "atom_type": "Ct"}, "2": {"label": "*1", "atom_type": "Cs"}, "16": {"label": "*4", "atom_type": "Cs"}, "17": {"label": "*3", "atom_type": "Cs"}, "30": {"label": "*2", "atom_type": "H0"}}

>  <type>  (10) 
unop_6

>  <geom_source>  (10) 
Heuristics

$$$$

     RDKit          3D

 37 37  0  0  0  0  0  0  0  0999 V2000
   -1.9304    3.3546   -0.7584 C   0  0  0  0  0  0  0  0  0  0  0  0
   -0.9546    3.1001   -0.1116 C   0  0  0  0  0  0  0  0  0  0  0  0
    0.2435    2.8123    0.6790 C   0  0  0  0  0  3  0  0  0  0  0  0
    0.1774    3.5076    2.0422 C   0  0  0  0  0  0  0  0  0  0  0  0
    1.5102    3.2018   -0.0891 C   0  0  0  0  0  0  0  0  0  0  0  0
   -2.7965    3.5805   -1.3324 H   0  0  0  0  0  0  0  0  0  0  0  0
    1.0554    3.2496    2.6370 H   0  0  0  0  0  0  0  0  0  0  0  0
   -0.7147    3.2095    2.5929 H   0  0  0  0  0  0  0  0  0  0  0  0
    0.1537    4.5914    1.9163 H   0  0  0  0  0  0  0  0  0  0  0  0
    1.5259    4.2767   -0.2779 H   0  0  0  0  0  0  0  0  0  0  0  0
    1.5625    2.6871   -1.0483 H   0  0  0  0  0  0  0  0  0  0  0  0
    2.3959    2.9420    0.4934 H   0  0  0  0  0  0  0  0  0  0  0  0
   -0.9392   -3.7283   -0.9767 C   0  0  0  0  0  0  0  0  0  0  0  0
   -0.9392   -3.7283    0.5539 C   0  0  0  0  0  0  0  0  0  0  0  0
    0.2039   -2.8919    1.1359 C   0  0  0  0  0  0  0  0  0  0  0  0
    0.1643   -1.4909    0.5518 C   0  0  0  0  0  0  0  0  0  0  0  0
    1.2834   -0.5172    0.9072 C   0  0  0  0  0  0  0  0  0  0  0  0
    1.2334    0.5534   -0.2114 C   0  0  0  0  0  0  0  0  0  0  0  0
    0.3399   -0.0384   -1.3300 C   0  0  0  0  0  0  0  0  0  0  0  0
    0.2149   -1.5166   -0.9746 C   0  0  0  0  0  0  0  0  0  0  0  0
   -0.9392   -2.3119   -1.5587 C   0  0  0  0  0  0  0  0  0  0  0  0
   -0.0467   -4.2551   -1.3326 H   0  0  0  0  0  0  0  0  0  0  0  0
   -1.8000   -4.2894   -1.3474 H   0  0  0  0  0  0  0  0  0  0  0  0
   -1.8913   -3.3192    0.9098 H   0  0  0  0  0  0  0  0  0  0  0  0
   -0.8836   -4.7544    0.9246 H   0  0  0  0  0  0  0  0  0  0  0  0
    0.1367   -2.8660    2.2267 H   0  0  0  0  0  0  0  0  0  0  0  0
    1.1655   -3.3571    0.8878 H   0  0  0  0  0  0  0  0  0  0  0  0
   -0.7944   -1.0321    0.8343 H   0  0  0  0  0  0  0  0  0  0  0  0
    1.1746   -0.0892    1.9047 H   0  0  0  0  0  0  0  0  0  0  0  0
    2.2410   -1.0457    0.8868 H   0  0  0  0  0  0  0  0  0  0  0  0
    0.7394    1.6807    0.2329 H   0  0  0  0  0  0  0  0  0  0  0  0
    2.2346    0.7759   -0.5817 H   0  0  0  0  0  0  0  0  0  0  0  0
    0.7496    0.1264   -2.3274 H   0  0  0  0  0  0  0  0  0  0  0  0
   -0.6521    0.4223   -1.3096 H   0  0  0  0  0  0  0  0  0  0  0  0
    1.1513   -2.0194   -1.2571 H   0  0  0  0  0  0  0  0  0  0  0  0
   -0.8785   -2.3508   -2.6495 H   0  0  0  0  0  0  0  0  0  0  0  0
   -1.8823   -1.8105   -1.3106 H   0  0  0  0  0  0  0  0  0  0  0  0
  1  2  3  0
  1  6  1  0
  2  3  1  0
  3  4  1  0
  3  5  1  0
  4  7  1  0
  4  8  1  0
  4  9  1  0
  5 10  1  0
  5 11  1  0
  5 12  1  0
 13 14  1  0
 13 21  1  0
 13 22  1  0
 13 23  1  0
 14 15  1  0
 14 24  1  0
 14 25  1  0
 15 16  1  0
 15 26  1  0
 15 27  1  0
 16 17  1  0
 16 20  1  0
 16 28  1  0
 17 18  1  0
 17 29  1  0
 17 30  1  0
 18 19  1  0
 18 31  1  0
 18 32  1  0
 19 20  1  0
 19 33  1  0
 19 34  1  0
 20 21  1  0
 20 35  1  0
 21 36  1  0
 21 37  1  0
M  RAD  1   3   2
M  END
>  <reaction>  (11) 
rxn_610

>  <mol_properties>  (11) 
{"1": {"label": "*0", "atom_type": "Ct"}, "2": {"label": "*1", "atom_type": "Cs"}, "16": {"label": "*4", "atom_type": "Cs"}, "17": {"label": "*3", "atom_type": "Cs"}, "30": {"label": "*2", "atom_type": "H0"}}

>  <type>  (11) 
unop_7

>  <geom_source>  (11) 
Heuristics

$$$$

     RDKit          3D

 37 37  0  0  0  0  0  0  0  0999 V2000
    2.0511    4.2293    1.4505 C   0  0  0  0  0  0  0  0  0  0  0  0
    1.1407    3.5605    1.0514 C   0  0  0  0  0  0  0  0  0  0  0  0
    0.0178    2.7630    0.5550 C   0  0  0  0  0  3  0  0  0  0  0  0
   -0.0741    2.8419   -0.9719 C   0  0  0  0  0  0  0  0  0  0  0  0
   -1.2932    3.1941    1.2194 C   0  0  0  0  0  0  0  0  0  0  0  0
    2.8591    4.8229    1.8046 H   0  0  0  0  0  0  0  0  0  0  0  0
   -0.8875    2.2089   -1.3312 H   0  0  0  0  0  0  0  0  0  0  0  0
    0.8539    2.5130   -1.4394 H   0  0  0  0  0  0  0  0  0  0  0  0
   -0.2706    3.8675   -1.2892 H   0  0  0  0  0  0  0  0  0  0  0  0
   -1.5257    4.2301    0.9668 H   0  0  0  0  0  0  0  0  0  0  0  0
   -1.2289    3.1147    2.3045 H   0  0  0  0  0  0  0  0  0  0  0  0
   -2.1136    2.5631    0.8729 H   0  0  0  0  0  0  0  0  0  0  0  0
   -1.1649   -3.7776   -1.1007 C   0  0  0  0  0  0  0  0  0  0  0  0
   -1.1649   -3.7776    0.4299 C   0  0  0  0  0  0  0  0  0  0  0  0
   -0.0217   -2.9412    1.0119 C   0  0  0  0  0  0  0  0  0  0  0  0
   -0.0614   -1.5403    0.4278 C   0  0  0  0  0  0  0  0  0  0  0  0
    1.0577   -0.5665    0.7832 C   0  0  0  0  0  0  0  0  0  0  0  0
    1.0077    0.5041   -0.3354 C   0  0  0  0  0  0  0  0  0  0  0  0
    0.1142   -0.0878   -1.4540 C   0  0  0  0  0  0  0  0  0  0  0  0
   -0.0108   -1.5659   -1.0986 C   0  0  0  0  0  0  0  0  0  0  0  0
   -1.1649   -2.3612   -1.6827 C   0  0  0  0  0  0  0  0  0  0  0  0
   -0.2724   -4.3044   -1.4566 H   0  0  0  0  0  0  0  0  0  0  0  0
   -2.0257   -4.3387   -1.4714 H   0  0  0  0  0  0  0  0  0  0  0  0
   -2.1170   -3.3685    0.7858 H   0  0  0  0  0  0  0  0  0  0  0  0
   -1.1093   -4.8037    0.8006 H   0  0  0  0  0  0  0  0  0  0  0  0
   -0.0890   -2.9153    2.1027 H   0  0  0  0  0  0  0  0  0  0  0  0
    0.9398   -3.4064    0.7639 H   0  0  0  0  0  0  0  0  0  0  0  0
   -1.0201   -1.0814    0.7103 H   0  0  0  0  0  0  0  0  0  0  0  0
    0.9489   -0.1385    1.7807 H   0  0  0  0  0  0  0  0  0  0  0  0
    2.0153   -1.0950    0.7628 H   0  0  0  0  0  0  0  0  0  0  0  0
    0.5137    1.6313    0.1089 H   0  0  0  0  0  0  0  0  0  0  0  0
    2.0089    0.7266   -0.7057 H   0  0  0  0  0  0  0  0  0  0  0  0
    0.5239    0.0771   -2.4514 H   0  0  0  0  0  0  0  0  0  0  0  0
   -0.8778    0.3730   -1.4336 H   0  0  0  0  0  0  0  0  0  0  0  0
    0.9256   -2.0687   -1.3811 H   0  0  0  0  0  0  0  0  0  0  0  0
   -1.1042   -2.4002   -2.7735 H   0  0  0  0  0  0  0  0  0  0  0  0
   -2.1080   -1.8599   -1.4346 H   0  0  0  0  0  0  0  0  0  0  0  0
  1  2  3  0
  1  6  1  0
  2  3  1  0
  3  4  1  0
  3  5  1  0
  4  7  1  0
  4  8  1  0
  4  9  1  0
  5 10  1  0
  5 11  1  0
  5 12  1  0
 13 14  1  0
 13 21  1  0
 13 22  1  0
 13 23  1  0
 14 15  1  0
 14 24  1  0
 14 25  1  0
 15 16  1  0
 15 26  1  0
 15 27  1  0
 16 17  1  0
 16 20  1  0
 16 28  1  0
 17 18  1  0
 17 29  1  0
 17 30  1  0
 18 19  1  0
 18 31  1  0
 18 32  1  0
 19 20  1  0
 19 33  1  0
 19 34  1  0
 20 21  1  0
 20 35  1  0
 21 36  1  0
 21 37  1  0
M  RAD  1   3   2
M  END
>  <reaction>  (12) 
rxn_610

>  <mol_properties>  (12) 
{"1": {"label": "*0", "atom_type": "Ct"}, "2": {"label": "*1", "atom_type": "Cs"}, "16": {"label": "*4", "atom_type": "Cs"}, "17": {"label": "*3", "atom_type": "Cs"}, "30": {"label": "*2", "atom_type": "H0"}}

>  <type>  (12) 
unop_8

>  <geom_source>  (12) 
Heuristics

$$$$

     RDKit          3D

 37 37  0  0  0  0  0  0  0  0999 V2000
   -1.4375    2.3116    2.3937 C   0  0  0  0  0  0  0  0  0  0  0  0
   -0.6587    2.5667    1.5198 C   0  0  0  0  0  0  0  0  0  0  0  0
    0.2831    2.9000    0.4496 C   0  0  0  0  0  3  0  0  0  0  0  0
    1.1654    4.0866    0.8496 C   0  0  0  0  0  0  0  0  0  0  0  0
   -0.4571    3.1685   -0.8642 C   0  0  0  0  0  0  0  0  0  0  0  0
   -2.1287    2.0853    3.1694 H   0  0  0  0  0  0  0  0  0  0  0  0
    1.8908    4.2961    0.0615 H   0  0  0  0  0  0  0  0  0  0  0  0
    1.7062    3.8808    1.7732 H   0  0  0  0  0  0  0  0  0  0  0  0
    0.5566    4.9793    1.0029 H   0  0  0  0  0  0  0  0  0  0  0  0
   -1.1137    4.0342   -0.7615 H   0  0  0  0  0  0  0  0  0  0  0  0
   -1.0657    2.3124   -1.1548 H   0  0  0  0  0  0  0  0  0  0  0  0
    0.2589    3.3727   -1.6623 H   0  0  0  0  0  0  0  0  0  0  0  0
   -0.8996   -3.6406   -1.2060 C   0  0  0  0  0  0  0  0  0  0  0  0
   -0.8996   -3.6406    0.3246 C   0  0  0  0  0  0  0  0  0  0  0  0
    0.2435   -2.8042    0.9066 C   0  0  0  0  0  0  0  0  0  0  0  0
    0.2039   -1.4032    0.3225 C   0  0  0  0  0  0  0  0  0  0  0  0
    1.3230   -0.4294    0.6779 C   0  0  0  0  0  0  0  0  0  0  0  0
    1.2730    0.6411   -0.4407 C   0  0  0  0  0  0  0  0  0  0  0  0
    0.3795    0.0493   -1.5593 C   0  0  0  0  0  0  0  0  0  0  0  0
    0.2545   -1.4289   -1.2039 C   0  0  0  0  0  0  0  0  0  0  0  0
   -0.8996   -2.2242   -1.7880 C   0  0  0  0  0  0  0  0  0  0  0  0
   -0.0071   -4.1674   -1.5619 H   0  0  0  0  0  0  0  0  0  0  0  0
   -1.7605   -4.2017   -1.5767 H   0  0  0  0  0  0  0  0  0  0  0  0
   -1.8517   -3.2314    0.6805 H   0  0  0  0  0  0  0  0  0  0  0  0
   -0.8441   -4.6667    0.6953 H   0  0  0  0  0  0  0  0  0  0  0  0
    0.1763   -2.7783    1.9974 H   0  0  0  0  0  0  0  0  0  0  0  0
    1.2051   -3.2693    0.6585 H   0  0  0  0  0  0  0  0  0  0  0  0
   -0.7549   -0.9444    0.6050 H   0  0  0  0  0  0  0  0  0  0  0  0
    1.2141   -0.0015    1.6753 H   0  0  0  0  0  0  0  0  0  0  0  0
    2.2806   -0.9580    0.6575 H   0  0  0  0  0  0  0  0  0  0  0  0
    0.7790    1.7684    0.0036 H   0  0  0  0  0  0  0  0  0  0  0  0
    2.2742    0.8636   -0.8110 H   0  0  0  0  0  0  0  0  0  0  0  0
    0.7892    0.2142   -2.5568 H   0  0  0  0  0  0  0  0  0  0  0  0
   -0.6125    0.5100   -1.5389 H   0  0  0  0  0  0  0  0  0  0  0  0
    1.1909   -1.9317   -1.4864 H   0  0  0  0  0  0  0  0  0  0  0  0
   -0.8389   -2.2631   -2.8789 H   0  0  0  0  0  0  0  0  0  0  0  0
   -1.8427   -1.7228   -1.5400 H   0  0  0  0  0  0  0  0  0  0  0  0
  1  2  3  0
  1  6  1  0
  2  3  1  0
  3  4  1  0
  3  5  1  0
  4  7  1  0
  4  8  1  0
  4  9  1  0
  5 10  1  0
  5 11  1  0
  5 12  1  0
 13 14  1  0
 13 21  1  0
 13 22  1  0
 13 23  1  0
 14 15  1  0
 14 24  1  0
 14 25  1  0
 15 16  1  0
 15 26  1  0
 15 27  1  0
 16 17  1  0
 16 20  1  0
 16 28  1  0
 17 18  1  0
 17 29  1  0
 17 30  1  0
 18 19  1  0
 18 31  1  0
 18 32  1  0
 19 20  1  0
 19 33  1  0
 19 34  1  0
 20 21  1  0
 20 35  1  0
 21 36  1  0
 21 37  1  0
M  RAD  1   3   2
M  END
>  <reaction>  (13) 
rxn_610

>  <mol_properties>  (13) 
{"1": {"label": "*0", "atom_type": "Ct"}, "2": {"label": "*1", "atom_type": "Cs"}, "16": {"label": "*4", "atom_type": "Cs"}, "17": {"label": "*3", "atom_type": "Cs"}, "30": {"label": "*2", "atom_type": "H0"}}

>  <type>  (13) 
unop_9

>  <geom_source>  (13) 
Heuristics

$$$$

     RDKit          3D

 37 37  0  0  0  0  0  0  0  0999 V2000
    1.6069    3.6412    2.4308 C   0  0  0  0  0  0  0  0  0  0  0  0
    0.8972    3.2493    1.5486 C   0  0  0  0  0  0  0  0  0  0  0  0
    0.0251    2.7932    0.4648 C   0  0  0  0  0  3  0  0  0  0  0  0
    0.5515    3.2650   -0.8940 C   0  0  0  0  0  0  0  0  0  0  0  0
   -1.4183    3.2502    0.6972 C   0  0  0  0  0  0  0  0  0  0  0  0
    2.2367    3.9890    3.2137 H   0  0  0  0  0  0  0  0  0  0  0  0
   -0.0832    2.8817   -1.6949 H   0  0  0  0  0  0  0  0  0  0  0  0
    1.5708    2.9182   -1.0630 H   0  0  0  0  0  0  0  0  0  0  0  0
    0.5496    4.3552   -0.9456 H   0  0  0  0  0  0  0  0  0  0  0  0
   -1.4782    4.3399    0.6926 H   0  0  0  0  0  0  0  0  0  0  0  0
   -1.7945    2.8928    1.6557 H   0  0  0  0  0  0  0  0  0  0  0  0
   -2.0644    2.8668   -0.0945 H   0  0  0  0  0  0  0  0  0  0  0  0
   -1.1576   -3.7474   -1.1909 C   0  0  0  0  0  0  0  0  0  0  0  0
   -1.1576   -3.7474    0.3398 C   0  0  0  0  0  0  0  0  0  0  0  0
   -0.0145   -2.9111    0.9217 C   0  0  0  0  0  0  0  0  0  0  0  0
   -0.0541   -1.5101    0.3376 C   0  0  0  0  0  0  0  0  0  0  0  0
    1.0649   -0.5363    0.6931 C   0  0  0  0  0  0  0  0  0  0  0  0
    1.0150    0.5343   -0.4255 C   0  0  0  0  0  0  0  0  0  0  0  0
    0.1215   -0.0576   -1.5442 C   0  0  0  0  0  0  0  0  0  0  0  0
   -0.0036   -1.5357   -1.1887 C   0  0  0  0  0  0  0  0  0  0  0  0
   -1.1576   -2.3310   -1.7728 C   0  0  0  0  0  0  0  0  0  0  0  0
   -0.2652   -4.2743   -1.5468 H   0  0  0  0  0  0  0  0  0  0  0  0
   -2.0185   -4.3085   -1.5616 H   0  0  0  0  0  0  0  0  0  0  0  0
   -2.1098   -3.3383    0.6957 H   0  0  0  0  0  0  0  0  0  0  0  0
   -1.1021   -4.7735    0.7105 H   0  0  0  0  0  0  0  0  0  0  0  0
   -0.0818   -2.8851    2.0126 H   0  0  0  0  0  0  0  0  0  0  0  0
    0.9470   -3.3762    0.6737 H   0  0  0  0  0  0  0  0  0  0  0  0
   -1.0129   -1.0512    0.6202 H   0  0  0  0  0  0  0  0  0  0  0  0
    0.9561   -0.1083    1.6905 H   0  0  0  0  0  0  0  0  0  0  0  0
    2.0226   -1.0648    0.6726 H   0  0  0  0  0  0  0  0  0  0  0  0
    0.5210    1.6615    0.0188 H   0  0  0  0  0  0  0  0  0  0  0  0
    2.0162    0.7567   -0.7958 H   0  0  0  0  0  0  0  0  0  0  0  0
    0.5311    0.1073   -2.5416 H   0  0  0  0  0  0  0  0  0  0  0  0
   -0.8705    0.4032   -1.5237 H   0  0  0  0  0  0  0  0  0  0  0  0
    0.9329   -2.0385   -1.4713 H   0  0  0  0  0  0  0  0  0  0  0  0
   -1.0970   -2.3700   -2.8637 H   0  0  0  0  0  0  0  0  0  0  0  0
   -2.1008   -1.8297   -1.5248 H   0  0  0  0  0  0  0  0  0  0  0  0
  1  2  3  0
  1  6  1  0
  2  3  1  0
  3  4  1  0
  3  5  1  0
  4  7  1  0
  4  8  1  0
  4  9  1  0
  5 10  1  0
  5 11  1  0
  5 12  1  0
 13 14  1  0
 13 21  1  0
 13 22  1  0
 13 23  1  0
 14 15  1  0
 14 24  1  0
 14 25  1  0
 15 16  1  0
 15 26  1  0
 15 27  1  0
 16 17  1  0
 16 20  1  0
 16 28  1  0
 17 18  1  0
 17 29  1  0
 17 30  1  0
 18 19  1  0
 18 31  1  0
 18 32  1  0
 19 20  1  0
 19 33  1  0
 19 34  1  0
 20 21  1  0
 20 35  1  0
 21 36  1  0
 21 37  1  0
M  RAD  1   3   2
M  END
>  <reaction>  (14) 
rxn_610

>  <mol_properties>  (14) 
{"1": {"label": "*0", "atom_type": "Ct"}, "2": {"label": "*1", "atom_type": "Cs"}, "16": {"label": "*4", "atom_type": "Cs"}, "17": {"label": "*3", "atom_type": "Cs"}, "30": {"label": "*2", "atom_type": "H0"}}

>  <type>  (14) 
unop_10

>  <geom_source>  (14) 
Heuristics

$$$$

     RDKit          3D

 37 37  0  0  0  0  0  0  0  0999 V2000
   -1.0312    3.9769   -1.3651 C   0  0  0  0  0  0  0  0  0  0  0  0
   -0.4860    3.4262   -0.4514 C   0  0  0  0  0  0  0  0  0  0  0  0
    0.1841    2.7745    0.6754 C   0  0  0  0  0  3  0  0  0  0  0  0
   -0.5721    3.0317    1.9823 C   0  0  0  0  0  0  0  0  0  0  0  0
    1.6453    3.2231    0.7745 C   0  0  0  0  0  0  0  0  0  0  0  0
   -1.5151    4.4657   -2.1760 H   0  0  0  0  0  0  0  0  0  0  0  0
   -0.0865    2.5048    2.8057 H   0  0  0  0  0  0  0  0  0  0  0  0
   -1.6048    2.6902    1.9130 H   0  0  0  0  0  0  0  0  0  0  0  0
   -0.5807    4.0982    2.2140 H   0  0  0  0  0  0  0  0  0  0  0  0
    1.7021    4.2953    0.9705 H   0  0  0  0  0  0  0  0  0  0  0  0
    2.1835    3.0174   -0.1506 H   0  0  0  0  0  0  0  0  0  0  0  0
    2.1437    2.6974    1.5908 H   0  0  0  0  0  0  0  0  0  0  0  0
   -0.9986   -3.7661   -0.9803 C   0  0  0  0  0  0  0  0  0  0  0  0
   -0.9986   -3.7661    0.5503 C   0  0  0  0  0  0  0  0  0  0  0  0
    0.1445   -2.9298    1.1323 C   0  0  0  0  0  0  0  0  0  0  0  0
    0.1049   -1.5288    0.5482 C   0  0  0  0  0  0  0  0  0  0  0  0
    1.2239   -0.5550    0.9036 C   0  0  0  0  0  0  0  0  0  0  0  0
    1.1740    0.5156   -0.2150 C   0  0  0  0  0  0  0  0  0  0  0  0
    0.2805   -0.0763   -1.3336 C   0  0  0  0  0  0  0  0  0  0  0  0
    0.1554   -1.5544   -0.9782 C   0  0  0  0  0  0  0  0  0  0  0  0
   -0.9986   -2.3497   -1.5623 C   0  0  0  0  0  0  0  0  0  0  0  0
   -0.1062   -4.2930   -1.3362 H   0  0  0  0  0  0  0  0  0  0  0  0
   -1.8595   -4.3272   -1.3510 H   0  0  0  0  0  0  0  0  0  0  0  0
   -1.9508   -3.3570    0.9062 H   0  0  0  0  0  0  0  0  0  0  0  0
   -0.9431   -4.7922    0.9210 H   0  0  0  0  0  0  0  0  0  0  0  0
    0.0772   -2.9038    2.2231 H   0  0  0  0  0  0  0  0  0  0  0  0
    1.1060   -3.3949    0.8842 H   0  0  0  0  0  0  0  0  0  0  0  0
   -0.8539   -1.0699    0.8307 H   0  0  0  0  0  0  0  0  0  0  0  0
    1.1151   -0.1271    1.9010 H   0  0  0  0  0  0  0  0  0  0  0  0
    2.1816   -1.0835    0.8832 H   0  0  0  0  0  0  0  0  0  0  0  0
    0.6800    1.6428    0.2293 H   0  0  0  0  0  0  0  0  0  0  0  0
    2.1752    0.7380   -0.5853 H   0  0  0  0  0  0  0  0  0  0  0  0
    0.6901    0.0886   -2.3310 H   0  0  0  0  0  0  0  0  0  0  0  0
   -0.7115    0.3845   -1.3132 H   0  0  0  0  0  0  0  0  0  0  0  0
    1.0919   -2.0572   -1.2607 H   0  0  0  0  0  0  0  0  0  0  0  0
   -0.9380   -2.3887   -2.6531 H   0  0  0  0  0  0  0  0  0  0  0  0
   -1.9418   -1.8484   -1.3142 H   0  0  0  0  0  0  0  0  0  0  0  0
  1  2  3  0
  1  6  1  0
  2  3  1  0
  3  4  1  0
  3  5  1  0
  4  7  1  0
  4  8  1  0
  4  9  1  0
  5 10  1  0
  5 11  1  0
  5 12  1  0
 13 14  1  0
 13 21  1  0
 13 22  1  0
 13 23  1  0
 14 15  1  0
 14 24  1  0
 14 25  1  0
 15 16  1  0
 15 26  1  0
 15 27  1  0
 16 17  1  0
 16 20  1  0
 16 28  1  0
 17 18  1  0
 17 29  1  0
 17 30  1  0
 18 19  1  0
 18 31  1  0
 18 32  1  0
 19 20  1  0
 19 33  1  0
 19 34  1  0
 20 21  1  0
 20 35  1  0
 21 36  1  0
 21 37  1  0
M  RAD  1   3   2
M  END
>  <reaction>  (15) 
rxn_610

>  <mol_properties>  (15) 
{"1": {"label": "*0", "atom_type": "Ct"}, "2": {"label": "*1", "atom_type": "Cs"}, "16": {"label": "*4", "atom_type": "Cs"}, "17": {"label": "*3", "atom_type": "Cs"}, "30": {"label": "*2", "atom_type": "H0"}}

>  <type>  (15) 
unop_11

>  <geom_source>  (15) 
Heuristics

$$$$

     RDKit          3D

 37 37  0  0  0  0  0  0  0  0999 V2000
   -0.3953    2.5388    2.9631 C   0  0  0  0  0  0  0  0  0  0  0  0
   -0.1271    2.6813    1.8041 C   0  0  0  0  0  0  0  0  0  0  0  0
    0.1928    2.8780    0.3891 C   0  0  0  0  0  3  0  0  0  0  0  0
    1.2570    3.9661    0.2167 C   0  0  0  0  0  0  0  0  0  0  0  0
   -1.0706    3.1957   -0.4166 C   0  0  0  0  0  0  0  0  0  0  0  0
   -0.6333    2.4123    3.9917 H   0  0  0  0  0  0  0  0  0  0  0  0
    1.5171    4.0717   -0.8380 H   0  0  0  0  0  0  0  0  0  0  0  0
    2.1615    3.7236    0.7745 H   0  0  0  0  0  0  0  0  0  0  0  0
    0.8821    4.9260    0.5763 H   0  0  0  0  0  0  0  0  0  0  0  0
   -1.5141    4.1329   -0.0757 H   0  0  0  0  0  0  0  0  0  0  0  0
   -1.8152    2.4074   -0.3075 H   0  0  0  0  0  0  0  0  0  0  0  0
   -0.8240    3.2968   -1.4750 H   0  0  0  0  0  0  0  0  0  0  0  0
   -0.9899   -3.6626   -1.2666 C   0  0  0  0  0  0  0  0  0  0  0  0
   -0.9899   -3.6626    0.2640 C   0  0  0  0  0  0  0  0  0  0  0  0
    0.1532   -2.8262    0.8460 C   0  0  0  0  0  0  0  0  0  0  0  0
    0.1136   -1.4252    0.2619 C   0  0  0  0  0  0  0  0  0  0  0  0
    1.2327   -0.4514    0.6174 C   0  0  0  0  0  0  0  0  0  0  0  0
    1.1827    0.6191   -0.5013 C   0  0  0  0  0  0  0  0  0  0  0  0
    0.2892    0.0273   -1.6199 C   0  0  0  0  0  0  0  0  0  0  0  0
    0.1642   -1.4508   -1.2644 C   0  0  0  0  0  0  0  0  0  0  0  0
   -0.9899   -2.2461   -1.8486 C   0  0  0  0  0  0  0  0  0  0  0  0
   -0.0974   -4.1894   -1.6225 H   0  0  0  0  0  0  0  0  0  0  0  0
   -1.8508   -4.2237   -1.6373 H   0  0  0  0  0  0  0  0  0  0  0  0
   -1.9420   -3.2534    0.6200 H   0  0  0  0  0  0  0  0  0  0  0  0
   -0.9343   -4.6887    0.6348 H   0  0  0  0  0  0  0  0  0  0  0  0
    0.0860   -2.8002    1.9369 H   0  0  0  0  0  0  0  0  0  0  0  0
    1.1148   -3.2913    0.5980 H   0  0  0  0  0  0  0  0  0  0  0  0
   -0.8452   -0.9664    0.5445 H   0  0  0  0  0  0  0  0  0  0  0  0
    1.1238   -0.0235    1.6148 H   0  0  0  0  0  0  0  0  0  0  0  0
    2.1903   -0.9800    0.5969 H   0  0  0  0  0  0  0  0  0  0  0  0
    0.6887    1.7464   -0.0569 H   0  0  0  0  0  0  0  0  0  0  0  0
    2.1839    0.8416   -0.8715 H   0  0  0  0  0  0  0  0  0  0  0  0
    0.6989    0.1922   -2.6173 H   0  0  0  0  0  0  0  0  0  0  0  0
   -0.7028    0.4880   -1.5995 H   0  0  0  0  0  0  0  0  0  0  0  0
    1.1006   -1.9537   -1.5470 H   0  0  0  0  0  0  0  0  0  0  0  0
   -0.9292   -2.2851   -2.9394 H   0  0  0  0  0  0  0  0  0  0  0  0
   -1.9330   -1.7448   -1.6005 H   0  0  0  0  0  0  0  0  0  0  0  0
  1  2  3  0
  1  6  1  0
  2  3  1  0
  3  4  1  0
  3  5  1  0
  4  7  1  0
  4  8  1  0
  4  9  1  0
  5 10  1  0
  5 11  1  0
  5 12  1  0
 13 14  1  0
 13 21  1  0
 13 22  1  0
 13 23  1  0
 14 15  1  0
 14 24  1  0
 14 25  1  0
 15 16  1  0
 15 26  1  0
 15 27  1  0
 16 17  1  0
 16 20  1  0
 16 28  1  0
 17 18  1  0
 17 29  1  0
 17 30  1  0
 18 19  1  0
 18 31  1  0
 18 32  1  0
 19 20  1  0
 19 33  1  0
 19 34  1  0
 20 21  1  0
 20 35  1  0
 21 36  1  0
 21 37  1  0
M  RAD  1   3   2
M  END
>  <reaction>  (16) 
rxn_610

>  <mol_properties>  (16) 
{"1": {"label": "*0", "atom_type": "Ct"}, "2": {"label": "*1", "atom_type": "Cs"}, "16": {"label": "*4", "atom_type": "Cs"}, "17": {"label": "*3", "atom_type": "Cs"}, "30": {"label": "*2", "atom_type": "H0"}}

>  <type>  (16) 
unop_12

>  <geom_source>  (16) 
Heuristics

$$$$

     RDKit          3D

 37 37  0  0  0  0  0  0  0  0999 V2000
   -1.6755    1.2018    0.0885 C   0  0  0  0  0  0  0  0  0  0  0  0
   -1.6039    0.3239   -1.1665 C   0  0  0  0  0  0  0  0  0  0  0  0
    3.0477   -0.3809    0.1165 C   0  0  0  0  0  3  0  0  0  0  0  0
   -3.0377    1.1776    0.8144 C   0  0  0  0  0  0  0  0  0  0  0  0
   -2.2592   -1.0630   -0.9701 C   0  0  0  0  0  0  0  0  0  0  0  0
   -3.6221   -0.2309    0.9622 C   0  0  0  0  0  0  0  0  0  0  0  0
   -3.6675   -0.9427   -0.3896 C   0  0  0  0  0  0  0  0  0  0  0  0
   -0.4908    0.7668    0.9475 C   0  0  0  0  0  0  0  0  0  0  0  0
   -0.1016    0.1766   -1.4077 C   0  0  0  0  0  0  0  0  0  0  0  0
    3.7342   -0.2278   -1.2412 C   0  0  0  0  0  0  0  0  0  0  0  0
    3.4639   -1.6850    0.7979 C   0  0  0  0  0  0  0  0  0  0  0  0
    0.5584    0.2471   -0.0313 C   0  0  0  0  0  0  0  0  0  0  0  0
    3.3728    0.7654    0.9789 C   0  0  0  0  0  0  0  0  0  0  0  0
    3.6382    1.7054    1.6858 C   0  0  0  0  0  0  0  0  0  0  0  0
   -1.4867    2.2554   -0.2230 H   0  0  0  0  0  0  0  0  0  0  0  0
   -2.0891    0.8394   -2.0255 H   0  0  0  0  0  0  0  0  0  0  0  0
    1.7082   -0.4037   -0.0773 H   0  0  0  0  0  0  0  0  0  0  0  0
   -2.9363    1.6434    1.8185 H   0  0  0  0  0  0  0  0  0  0  0  0
   -3.7573    1.7974    0.2352 H   0  0  0  0  0  0  0  0  0  0  0  0
   -3.0190   -0.8237    1.6832 H   0  0  0  0  0  0  0  0  0  0  0  0
   -4.6535   -0.1555    1.3692 H   0  0  0  0  0  0  0  0  0  0  0  0
   -4.3217   -0.3829   -1.0939 H   0  0  0  0  0  0  0  0  0  0  0  0
   -4.0962   -1.9590   -0.2540 H   0  0  0  0  0  0  0  0  0  0  0  0
   -2.3156   -1.5828   -1.9511 H   0  0  0  0  0  0  0  0  0  0  0  0
   -1.6438   -1.6942   -0.2903 H   0  0  0  0  0  0  0  0  0  0  0  0
   -0.7707   -0.0612    1.6317 H   0  0  0  0  0  0  0  0  0  0  0  0
   -0.0984    1.6171    1.5468 H   0  0  0  0  0  0  0  0  0  0  0  0
    0.1592   -0.7749   -1.9194 H   0  0  0  0  0  0  0  0  0  0  0  0
    0.2555    1.0248   -2.0331 H   0  0  0  0  0  0  0  0  0  0  0  0
    3.4009    0.7115   -1.7323 H   0  0  0  0  0  0  0  0  0  0  0  0
    3.4614   -1.0779   -1.9018 H   0  0  0  0  0  0  0  0  0  0  0  0
    4.8396   -0.2021   -1.1248 H   0  0  0  0  0  0  0  0  0  0  0  0
    4.5609   -1.7047    0.9777 H   0  0  0  0  0  0  0  0  0  0  0  0
    3.1882   -2.5510    0.1594 H   0  0  0  0  0  0  0  0  0  0  0  0
    2.9366   -1.7915    1.7701 H   0  0  0  0  0  0  0  0  0  0  0  0
    1.4496    0.9114   -0.0566 H   0  0  0  0  0  0  0  0  0  0  0  0
    3.8712    2.5304    2.3063 H   0  0  0  0  0  0  0  0  0  0  0  0
  1  4  1  0
  1  8  1  0
  1  2  1  0
  1 15  1  0
  2  5  1  0
  2  9  1  0
  2 16  1  0
  3 10  1  0
  3 11  1  0
  3 13  1  0
  4  6  1  0
  4 18  1  0
  4 19  1  0
  5  7  1  0
  5 24  1  0
  5 25  1  0
  6  7  1  0
  6 20  1  0
  6 21  1  0
  7 22  1  0
  7 23  1  0
  8 12  1  0
  8 26  1  0
  8 27  1  0
  9 12  1  0
  9 28  1  0
  9 29  1  0
 10 30  1  0
 10 31  1  0
 10 32  1  0
 11 33  1  0
 11 34  1  0
 11 35  1  0
 12 17  1  0
 12 36  1  0
 13 14  3  0
 14 37  1  0
M  RAD  1   3   2
M  END
>  <reaction>  (17) 
rxn_610

>  <mol_properties>  (17) 
{"1": {"label": "*0", "atom_type": "Ct"}, "2": {"label": "*1", "atom_type": "Cs"}, "16": {"label": "*4", "atom_type": "Cs"}, "17": {"label": "*3", "atom_type": "Cs"}, "30": {"label": "*2", "atom_type": "H0"}}

>  <type>  (17) 
unop_13

>  <geom_source>  (17) 
AutoTST

$$$$
