
     RDKit          3D

 25 26  0  0  0  0  0  0  0  0999 V2000
    2.0298   -1.1515    0.0571 C   0  0  0  0  0  0  0  0  0  0  0  0
    2.2278    0.2445    0.6528 C   0  0  0  0  0  0  0  0  0  0  0  0
    1.2292    1.2625    0.0947 C   0  0  0  0  0  0  0  0  0  0  0  0
   -0.1869    0.7454    0.2762 C   0  0  0  0  0  0  0  0  0  0  0  0
   -1.3415    1.5501   -0.3122 C   0  0  0  0  0  0  0  0  0  0  0  0
   -2.5060    0.5338   -0.4178 C   0  0  0  0  0  0  0  0  0  0  0  0
   -1.8709   -0.8658   -0.2234 C   0  0  0  0  0  0  0  0  0  0  0  0
   -0.3715   -0.6265   -0.3693 C   0  0  0  0  0  0  0  0  0  0  0  0
    0.5898   -1.6500    0.2086 C   0  0  0  0  0  0  0  0  0  0  0  0
    2.2820   -1.1226   -1.0088 H   0  0  0  0  0  0  0  0  0  0  0  0
    2.7243   -1.8549    0.5221 H   0  0  0  0  0  0  0  0  0  0  0  0
    2.1030    0.1885    1.7400 H   0  0  0  0  0  0  0  0  0  0  0  0
    3.2514    0.5819    0.4743 H   0  0  0  0  0  0  0  0  0  0  0  0
    1.3611    2.2304    0.5855 H   0  0  0  0  0  0  0  0  0  0  0  0
    1.4198    1.4194   -0.9737 H   0  0  0  0  0  0  0  0  0  0  0  0
   -0.3675    0.6209    1.3539 H   0  0  0  0  0  0  0  0  0  0  0  0
   -1.5992    2.4249    0.2862 H   0  0  0  0  0  0  0  0  0  0  0  0
   -1.0595    1.9116   -1.3055 H   0  0  0  0  0  0  0  0  0  0  0  0
   -3.2666    0.7244    0.3399 H   0  0  0  0  0  0  0  0  0  0  0  0
   -3.0030    0.6112   -1.3853 H   0  0  0  0  0  0  0  0  0  0  0  0
   -2.2549   -1.6039   -0.9288 H   0  0  0  0  0  0  0  0  0  0  0  0
   -2.0796   -1.2429    0.7821 H   0  0  0  0  0  0  0  0  0  0  0  0
   -0.1432   -0.5121   -1.4391 H   0  0  0  0  0  0  0  0  0  0  0  0
    0.4720   -2.6209   -0.2799 H   0  0  0  0  0  0  0  0  0  0  0  0
    0.3601   -1.7986    1.2704 H   0  0  0  0  0  0  0  0  0  0  0  0
  1  2  1  0
  1  9  1  0
  1 10  1  0
  1 11  1  0
  2  3  1  0
  2 12  1  0
  2 13  1  0
  3  4  1  0
  3 14  1  0
  3 15  1  0
  4  5  1  0
  4  8  1  0
  4 16  1  0
  5  6  1  0
  5 17  1  0
  5 18  1  0
  6  7  1  0
  6 19  1  0
  6 20  1  0
  7  8  1  0
  7 21  1  0
  7 22  1  0
  8  9  1  0
  8 23  1  0
  9 24  1  0
  9 25  1  0
M  END
>  <reaction>  (1) 
rxn_615

>  <mol_properties>  (1) 
{"5": {"label": "donator", "atom_type": "Cs"}, "18": {"label": "d_hydrogen", "atom_type": "H0"}}

>  <type>  (1) 
r1h

$$$$

     RDKit          3D

 20 20  0  0  0  0  0  0  0  0999 V2000
   -2.4774    0.8083    0.1488 C   0  0  0  0  0  0  0  0  0  0  0  0
   -1.4172   -0.1696   -0.2476 C   0  0  0  0  0  3  0  0  0  0  0  0
   -0.2904    0.2932   -1.1156 C   0  0  0  0  0  0  0  0  0  0  0  0
   -1.4797   -1.5204    0.1947 C   0  0  0  0  0  0  0  0  0  0  0  0
   -0.4907   -2.4664   -0.1650 C   0  0  0  0  0  0  0  0  0  0  0  0
   -0.5559   -3.7750    0.2665 C   0  0  0  0  0  0  0  0  0  0  0  0
   -1.6038   -4.2041    1.0733 C   0  0  0  0  0  0  0  0  0  0  0  0
   -2.5899   -3.2959    1.4424 C   0  0  0  0  0  0  0  0  0  0  0  0
   -2.5339   -1.9852    1.0162 C   0  0  0  0  0  0  0  0  0  0  0  0
   -3.4697    0.4933   -0.1924 H   0  0  0  0  0  0  0  0  0  0  0  0
   -2.5434    0.9184    1.2368 H   0  0  0  0  0  0  0  0  0  0  0  0
   -2.2829    1.7944   -0.2706 H   0  0  0  0  0  0  0  0  0  0  0  0
   -0.2452   -0.2661   -2.0565 H   0  0  0  0  0  0  0  0  0  0  0  0
   -0.3905    1.3487   -1.3647 H   0  0  0  0  0  0  0  0  0  0  0  0
    0.6811    0.1589   -0.6274 H   0  0  0  0  0  0  0  0  0  0  0  0
    0.3373   -2.1635   -0.7918 H   0  0  0  0  0  0  0  0  0  0  0  0
    0.2187   -4.4725   -0.0281 H   0  0  0  0  0  0  0  0  0  0  0  0
   -1.6513   -5.2316    1.4097 H   0  0  0  0  0  0  0  0  0  0  0  0
   -3.4116   -3.6175    2.0706 H   0  0  0  0  0  0  0  0  0  0  0  0
   -3.3164   -1.3029    1.3205 H   0  0  0  0  0  0  0  0  0  0  0  0
  1  2  1  0
  1 10  1  0
  1 11  1  0
  1 12  1  0
  2  3  1  0
  2  4  1  0
  3 13  1  0
  3 14  1  0
  3 15  1  0
  4  5  2  0
  4  9  1  0
  5  6  1  0
  5 16  1  0
  6  7  2  0
  6 17  1  0
  7  8  1  0
  7 18  1  0
  8  9  2  0
  8 19  1  0
  9 20  1  0
M  RAD  1   2   2
M  END
>  <reaction>  (2) 
rxn_615

>  <mol_properties>  (2) 
{"1": {"label": "acceptor", "atom_type": "Cs"}}

>  <type>  (2) 
r2

$$$$

     RDKit          3D

 21 21  0  0  0  0  0  0  0  0999 V2000
   -1.3695    1.3367   -1.0719 C   0  0  0  0  0  0  0  0  0  0  0  0
   -1.4091   -0.0981   -0.5428 C   0  0  0  0  0  0  0  0  0  0  0  0
   -0.1819   -0.3999    0.3191 C   0  0  0  0  0  0  0  0  0  0  0  0
   -1.5636   -1.1028   -1.6652 C   0  0  0  0  0  0  0  0  0  0  0  0
   -0.5920   -1.2314   -2.6553 C   0  0  0  0  0  0  0  0  0  0  0  0
   -0.7353   -2.1509   -3.6809 C   0  0  0  0  0  0  0  0  0  0  0  0
   -1.8582   -2.9642   -3.7377 C   0  0  0  0  0  0  0  0  0  0  0  0
   -2.8325   -2.8475   -2.7602 C   0  0  0  0  0  0  0  0  0  0  0  0
   -2.6828   -1.9241   -1.7351 C   0  0  0  0  0  0  0  0  0  0  0  0
   -0.4920    1.4974   -1.7025 H   0  0  0  0  0  0  0  0  0  0  0  0
   -2.2553    1.5607   -1.6679 H   0  0  0  0  0  0  0  0  0  0  0  0
   -1.3211    2.0496   -0.2461 H   0  0  0  0  0  0  0  0  0  0  0  0
   -2.2930   -0.1918    0.0948 H   0  0  0  0  0  0  0  0  0  0  0  0
   -0.1215    0.2955    1.1588 H   0  0  0  0  0  0  0  0  0  0  0  0
   -0.2200   -1.4155    0.7159 H   0  0  0  0  0  0  0  0  0  0  0  0
    0.7383   -0.3016   -0.2615 H   0  0  0  0  0  0  0  0  0  0  0  0
    0.2915   -0.6040   -2.6263 H   0  0  0  0  0  0  0  0  0  0  0  0
    0.0326   -2.2338   -4.4401 H   0  0  0  0  0  0  0  0  0  0  0  0
   -1.9712   -3.6833   -4.5391 H   0  0  0  0  0  0  0  0  0  0  0  0
   -3.7135   -3.4765   -2.7932 H   0  0  0  0  0  0  0  0  0  0  0  0
   -3.4509   -1.8400   -0.9743 H   0  0  0  0  0  0  0  0  0  0  0  0
  1  2  1  0
  1 10  1  0
  1 11  1  0
  1 12  1  0
  2  3  1  0
  2  4  1  0
  2 13  1  0
  3 14  1  0
  3 15  1  0
  3 16  1  0
  4  5  2  0
  4  9  1  0
  5  6  1  0
  5 17  1  0
  6  7  2  0
  6 18  1  0
  7  8  1  0
  7 19  1  0
  8  9  2  0
  8 20  1  0
  9 21  1  0
M  END
>  <reaction>  (3) 
rxn_615

>  <mol_properties>  (3) 
{"1": {"label": "acceptor", "atom_type": "Cs"}, "20": {"label": "a_hydrogen", "atom_type": "H0"}}

>  <type>  (3) 
r2h

$$$$

     RDKit          3D

 45 46  0  0  0  0  0  0  0  0999 V2000
    2.1777    2.4078    1.6320 C   0  0  0  0  0  0  0  0  0  0  0  0
    1.3020    2.0939    0.4352 C   0  0  0  0  0  0  0  0  0  0  0  0
    1.4869    3.0886   -0.6941 C   0  0  0  0  0  0  0  0  0  0  0  0
   -0.0966    1.6834    0.7312 C   0  0  0  0  0  0  0  0  0  0  0  0
   -1.0809    1.6811   -0.2643 C   0  0  0  0  0  0  0  0  0  0  0  0
   -2.3433    1.1620   -0.0341 C   0  0  0  0  0  0  0  0  0  0  0  0
   -2.6709    0.6329    1.2049 C   0  0  0  0  0  0  0  0  0  0  0  0
   -1.7212    0.6523    2.2147 C   0  0  0  0  0  0  0  0  0  0  0  0
   -0.4591    1.1727    1.9827 C   0  0  0  0  0  0  0  0  0  0  0  0
    2.2670    1.5618    2.3145 H   0  0  0  0  0  0  0  0  0  0  0  0
    3.1860    2.6594    1.3002 H   0  0  0  0  0  0  0  0  0  0  0  0
    1.7900    3.2586    2.2019 H   0  0  0  0  0  0  0  0  0  0  0  0
    1.0173    4.0494   -0.4593 H   0  0  0  0  0  0  0  0  0  0  0  0
    2.5498    3.2678   -0.8635 H   0  0  0  0  0  0  0  0  0  0  0  0
    1.0684    2.7359   -1.6369 H   0  0  0  0  0  0  0  0  0  0  0  0
   -0.8578    2.0766   -1.2456 H   0  0  0  0  0  0  0  0  0  0  0  0
   -3.0756    1.1675   -0.8323 H   0  0  0  0  0  0  0  0  0  0  0  0
   -3.6553    0.2199    1.3837 H   0  0  0  0  0  0  0  0  0  0  0  0
   -1.9625    0.2560    3.1933 H   0  0  0  0  0  0  0  0  0  0  0  0
    0.2592    1.1645    2.7908 H   0  0  0  0  0  0  0  0  0  0  0  0
   -1.2257   -3.2741   -1.6773 C   0  0  0  0  0  0  0  0  0  0  0  0
   -1.3669   -3.2729   -0.1526 C   0  0  0  0  0  0  0  0  0  0  0  0
   -0.0366   -2.9994    0.5555 C   0  0  0  0  0  0  0  0  0  0  0  0
    0.5513   -1.7079    0.0206 C   0  0  0  0  0  0  0  0  0  0  0  0
    1.9097   -1.2329    0.5251 C   0  0  0  0  0  0  0  0  0  0  0  0
    2.3257   -0.2152   -0.5236 C   0  0  0  0  0  3  0  0  0  0  0  0
    1.5352   -0.4854   -1.7985 C   0  0  0  0  0  0  0  0  0  0  0  0
    0.7517   -1.7667   -1.4931 C   0  0  0  0  0  0  0  0  0  0  0  0
   -0.5696   -1.9949   -2.2060 C   0  0  0  0  0  0  0  0  0  0  0  0
   -0.6147   -4.1327   -1.9778 H   0  0  0  0  0  0  0  0  0  0  0  0
   -2.2060   -3.4136   -2.1392 H   0  0  0  0  0  0  0  0  0  0  0  0
   -2.0793   -2.4930    0.1386 H   0  0  0  0  0  0  0  0  0  0  0  0
   -1.7871   -4.2247    0.1806 H   0  0  0  0  0  0  0  0  0  0  0  0
   -0.1908   -2.9403    1.6362 H   0  0  0  0  0  0  0  0  0  0  0  0
    0.6611   -3.8262    0.3746 H   0  0  0  0  0  0  0  0  0  0  0  0
   -0.1740   -0.9109    0.2188 H   0  0  0  0  0  0  0  0  0  0  0  0
    1.8676   -0.8128    1.5338 H   0  0  0  0  0  0  0  0  0  0  0  0
    2.6176   -2.0713    0.5571 H   0  0  0  0  0  0  0  0  0  0  0  0
    1.8234    1.0067   -0.0325 H   0  0  0  0  0  0  0  0  0  0  0  0
    3.3869   -0.0000   -0.6213 H   0  0  0  0  0  0  0  0  0  0  0  0
    2.1739   -0.5779   -2.6792 H   0  0  0  0  0  0  0  0  0  0  0  0
    0.8335    0.3320   -2.0042 H   0  0  0  0  0  0  0  0  0  0  0  0
    1.4072   -2.6240   -1.7022 H   0  0  0  0  0  0  0  0  0  0  0  0
   -0.4304   -2.0611   -3.2885 H   0  0  0  0  0  0  0  0  0  0  0  0
   -1.2255   -1.1369   -2.0165 H   0  0  0  0  0  0  0  0  0  0  0  0
  1  2  1  0
  1 10  1  0
  1 11  1  0
  1 12  1  0
  2  3  1  0
  2  4  1  0
  2 39  1  0
  3 13  1  0
  3 14  1  0
  3 15  1  0
  4  5  2  0
  4  9  1  0
  5  6  1  0
  5 16  1  0
  6  7  2  0
  6 17  1  0
  7  8  1  0
  7 18  1  0
  8  9  2  0
  8 19  1  0
  9 20  1  0
 21 22  1  0
 21 29  1  0
 21 30  1  0
 21 31  1  0
 22 23  1  0
 22 32  1  0
 22 33  1  0
 23 24  1  0
 23 34  1  0
 23 35  1  0
 24 25  1  0
 24 28  1  0
 24 36  1  0
 25 26  1  0
 25 37  1  0
 25 38  1  0
 26 27  1  0
 26 40  1  0
 27 28  1  0
 27 41  1  0
 27 42  1  0
 28 29  1  0
 28 43  1  0
 29 44  1  0
 29 45  1  0
M  RAD  1  26   2
M  END
>  <reaction>  (4) 
rxn_615

>  <mol_properties>  (4) 
{"1": {"label": "*1", "atom_type": "Cs"}, "3": {"label": "*0", "atom_type": "Cd"}, "24": {"label": "*4", "atom_type": "Cs"}, "25": {"label": "*3", "atom_type": "Cs"}, "38": {"label": "*2", "atom_type": "H0"}}

>  <type>  (4) 
ts

$$$$

     RDKit          3D

 45 46  0  0  0  0  0  0  0  0999 V2000
    1.7332    3.1325   -0.3215 C   0  0  0  0  0  0  0  0  0  0  0  0
    0.6659    2.0529   -0.1337 C   0  0  0  0  0  3  0  0  0  0  0  0
   -0.0630    1.7664   -1.4477 C   0  0  0  0  0  0  0  0  0  0  0  0
   -0.3017    2.4114    0.9746 C   0  0  0  0  0  0  0  0  0  0  0  0
   -1.1085    3.5439    0.8877 C   0  0  0  0  0  0  0  0  0  0  0  0
   -1.9928    3.8700    1.9024 C   0  0  0  0  0  0  0  0  0  0  0  0
   -2.0887    3.0667    3.0299 C   0  0  0  0  0  0  0  0  0  0  0  0
   -1.2928    1.9377    3.1301 C   0  0  0  0  0  0  0  0  0  0  0  0
   -0.4088    1.6165    2.1098 C   0  0  0  0  0  0  0  0  0  0  0  0
    2.2694    3.3217    0.6095 H   0  0  0  0  0  0  0  0  0  0  0  0
    2.4575    2.8290   -1.0802 H   0  0  0  0  0  0  0  0  0  0  0  0
    1.2848    4.0741   -0.6470 H   0  0  0  0  0  0  0  0  0  0  0  0
   -0.5760    2.6588   -1.8137 H   0  0  0  0  0  0  0  0  0  0  0  0
    0.6432    1.4490   -2.2177 H   0  0  0  0  0  0  0  0  0  0  0  0
   -0.8089    0.9804   -1.3205 H   0  0  0  0  0  0  0  0  0  0  0  0
   -1.0465    4.1825    0.0140 H   0  0  0  0  0  0  0  0  0  0  0  0
   -2.6104    4.7552    1.8137 H   0  0  0  0  0  0  0  0  0  0  0  0
   -2.7796    3.3208    3.8237 H   0  0  0  0  0  0  0  0  0  0  0  0
   -1.3583    1.3026    4.0049 H   0  0  0  0  0  0  0  0  0  0  0  0
    0.2102    0.7305    2.1972 H   0  0  0  0  0  0  0  0  0  0  0  0
   -0.5172   -4.4869   -1.7891 C   0  0  0  0  0  0  0  0  0  0  0  0
   -0.5172   -4.4869   -0.2585 C   0  0  0  0  0  0  0  0  0  0  0  0
    0.6260   -3.6506    0.3235 C   0  0  0  0  0  0  0  0  0  0  0  0
    0.5863   -2.2496   -0.2606 C   0  0  0  0  0  0  0  0  0  0  0  0
    1.7054   -1.2758    0.0948 C   0  0  0  0  0  0  0  0  0  0  0  0
    1.6554   -0.2052   -1.0238 C   0  0  0  0  0  0  0  0  0  0  0  0
    0.7620   -0.7971   -2.1424 C   0  0  0  0  0  0  0  0  0  0  0  0
    0.6369   -2.2752   -1.7870 C   0  0  0  0  0  0  0  0  0  0  0  0
   -0.5172   -3.0705   -2.3711 C   0  0  0  0  0  0  0  0  0  0  0  0
    0.3753   -5.0138   -2.1450 H   0  0  0  0  0  0  0  0  0  0  0  0
   -1.3780   -5.0480   -2.1598 H   0  0  0  0  0  0  0  0  0  0  0  0
   -1.4693   -4.0778    0.0974 H   0  0  0  0  0  0  0  0  0  0  0  0
   -0.4616   -5.5130    0.1122 H   0  0  0  0  0  0  0  0  0  0  0  0
    0.5587   -3.6246    1.4143 H   0  0  0  0  0  0  0  0  0  0  0  0
    1.5875   -4.1157    0.0755 H   0  0  0  0  0  0  0  0  0  0  0  0
   -0.3724   -1.7907    0.0219 H   0  0  0  0  0  0  0  0  0  0  0  0
    1.5966   -0.8478    1.0923 H   0  0  0  0  0  0  0  0  0  0  0  0
    2.6630   -1.8043    0.0744 H   0  0  0  0  0  0  0  0  0  0  0  0
    1.1615    0.9220   -0.5795 H   0  0  0  0  0  0  0  0  0  0  0  0
    2.6566    0.0172   -1.3941 H   0  0  0  0  0  0  0  0  0  0  0  0
    1.1716   -0.6322   -3.1398 H   0  0  0  0  0  0  0  0  0  0  0  0
   -0.2301   -0.3363   -2.1220 H   0  0  0  0  0  0  0  0  0  0  0  0
    1.5733   -2.7780   -2.0695 H   0  0  0  0  0  0  0  0  0  0  0  0
   -0.4565   -3.1095   -3.4619 H   0  0  0  0  0  0  0  0  0  0  0  0
   -1.4603   -2.5692   -2.1230 H   0  0  0  0  0  0  0  0  0  0  0  0
  1  2  1  0
  1 10  1  0
  1 11  1  0
  1 12  1  0
  2  3  1  0
  2  4  1  0
  3 13  1  0
  3 14  1  0
  3 15  1  0
  4  5  2  0
  4  9  1  0
  5  6  1  0
  5 16  1  0
  6  7  2  0
  6 17  1  0
  7  8  1  0
  7 18  1  0
  8  9  2  0
  8 19  1  0
  9 20  1  0
 21 22  1  0
 21 29  1  0
 21 30  1  0
 21 31  1  0
 22 23  1  0
 22 32  1  0
 22 33  1  0
 23 24  1  0
 23 34  1  0
 23 35  1  0
 24 25  1  0
 24 28  1  0
 24 36  1  0
 25 26  1  0
 25 37  1  0
 25 38  1  0
 26 27  1  0
 26 39  1  0
 26 40  1  0
 27 28  1  0
 27 41  1  0
 27 42  1  0
 28 29  1  0
 28 43  1  0
 29 44  1  0
 29 45  1  0
M  RAD  1   2   2
M  END
>  <reaction>  (5) 
rxn_615

>  <mol_properties>  (5) 
{"1": {"label": "*1", "atom_type": "Cs"}, "3": {"label": "*0", "atom_type": "Cd"}, "24": {"label": "*4", "atom_type": "Cs"}, "25": {"label": "*3", "atom_type": "Cs"}, "38": {"label": "*2", "atom_type": "H0"}}

>  <type>  (5) 
unop_1

>  <geom_source>  (5) 
Heuristics

$$$$

     RDKit          3D

 45 46  0  0  0  0  0  0  0  0999 V2000
    1.2491    2.1362    2.0583 C   0  0  0  0  0  0  0  0  0  0  0  0
    0.8956    2.0285    0.5739 C   0  0  0  0  0  3  0  0  0  0  0  0
    1.8609    2.8507   -0.2818 C   0  0  0  0  0  0  0  0  0  0  0  0
   -0.5460    2.4124    0.3142 C   0  0  0  0  0  0  0  0  0  0  0  0
   -1.0089    3.6980    0.5857 C   0  0  0  0  0  0  0  0  0  0  0  0
   -2.3278    4.0471    0.3475 C   0  0  0  0  0  0  0  0  0  0  0  0
   -3.2147    3.1133   -0.1695 C   0  0  0  0  0  0  0  0  0  0  0  0
   -2.7687    1.8312   -0.4443 C   0  0  0  0  0  0  0  0  0  0  0  0
   -1.4458    1.4879   -0.2032 C   0  0  0  0  0  0  0  0  0  0  0  0
    0.5755    1.5322    2.6679 H   0  0  0  0  0  0  0  0  0  0  0  0
    2.2715    1.7963    2.2356 H   0  0  0  0  0  0  0  0  0  0  0  0
    1.1772    3.1700    2.4041 H   0  0  0  0  0  0  0  0  0  0  0  0
    1.8110    3.9102   -0.0203 H   0  0  0  0  0  0  0  0  0  0  0  0
    2.8895    2.5179   -0.1282 H   0  0  0  0  0  0  0  0  0  0  0  0
    1.6240    2.7566   -1.3426 H   0  0  0  0  0  0  0  0  0  0  0  0
   -0.3297    4.4399    0.9898 H   0  0  0  0  0  0  0  0  0  0  0  0
   -2.6659    5.0525    0.5660 H   0  0  0  0  0  0  0  0  0  0  0  0
   -4.2459    3.3852   -0.3561 H   0  0  0  0  0  0  0  0  0  0  0  0
   -3.4509    1.0934   -0.8479 H   0  0  0  0  0  0  0  0  0  0  0  0
   -1.1058    0.4817   -0.4216 H   0  0  0  0  0  0  0  0  0  0  0  0
   -0.2874   -4.5113   -1.0814 C   0  0  0  0  0  0  0  0  0  0  0  0
   -0.2874   -4.5113    0.4492 C   0  0  0  0  0  0  0  0  0  0  0  0
    0.8557   -3.6749    1.0312 C   0  0  0  0  0  0  0  0  0  0  0  0
    0.8161   -2.2739    0.4471 C   0  0  0  0  0  0  0  0  0  0  0  0
    1.9351   -1.3002    0.8025 C   0  0  0  0  0  0  0  0  0  0  0  0
    1.8852   -0.2296   -0.3161 C   0  0  0  0  0  0  0  0  0  0  0  0
    0.9917   -0.8214   -1.4347 C   0  0  0  0  0  0  0  0  0  0  0  0
    0.8666   -2.2996   -1.0793 C   0  0  0  0  0  0  0  0  0  0  0  0
   -0.2874   -3.0949   -1.6634 C   0  0  0  0  0  0  0  0  0  0  0  0
    0.6050   -5.0381   -1.4373 H   0  0  0  0  0  0  0  0  0  0  0  0
   -1.1483   -5.0724   -1.4521 H   0  0  0  0  0  0  0  0  0  0  0  0
   -1.2396   -4.1022    0.8051 H   0  0  0  0  0  0  0  0  0  0  0  0
   -0.2319   -5.5374    0.8199 H   0  0  0  0  0  0  0  0  0  0  0  0
    0.7884   -3.6490    2.1220 H   0  0  0  0  0  0  0  0  0  0  0  0
    1.8172   -4.1401    0.7831 H   0  0  0  0  0  0  0  0  0  0  0  0
   -0.1427   -1.8151    0.7296 H   0  0  0  0  0  0  0  0  0  0  0  0
    1.8263   -0.8722    1.7999 H   0  0  0  0  0  0  0  0  0  0  0  0
    2.8928   -1.8287    0.7821 H   0  0  0  0  0  0  0  0  0  0  0  0
    1.3912    0.8977    0.1282 H   0  0  0  0  0  0  0  0  0  0  0  0
    2.8864   -0.0071   -0.6864 H   0  0  0  0  0  0  0  0  0  0  0  0
    1.4013   -0.6566   -2.4322 H   0  0  0  0  0  0  0  0  0  0  0  0
   -0.0003   -0.3607   -1.4143 H   0  0  0  0  0  0  0  0  0  0  0  0
    1.8031   -2.8024   -1.3618 H   0  0  0  0  0  0  0  0  0  0  0  0
   -0.2268   -3.1338   -2.7542 H   0  0  0  0  0  0  0  0  0  0  0  0
   -1.2306   -2.5936   -1.4154 H   0  0  0  0  0  0  0  0  0  0  0  0
  1  2  1  0
  1 10  1  0
  1 11  1  0
  1 12  1  0
  2  3  1  0
  2  4  1  0
  3 13  1  0
  3 14  1  0
  3 15  1  0
  4  5  2  0
  4  9  1  0
  5  6  1  0
  5 16  1  0
  6  7  2  0
  6 17  1  0
  7  8  1  0
  7 18  1  0
  8  9  2  0
  8 19  1  0
  9 20  1  0
 21 22  1  0
 21 29  1  0
 21 30  1  0
 21 31  1  0
 22 23  1  0
 22 32  1  0
 22 33  1  0
 23 24  1  0
 23 34  1  0
 23 35  1  0
 24 25  1  0
 24 28  1  0
 24 36  1  0
 25 26  1  0
 25 37  1  0
 25 38  1  0
 26 27  1  0
 26 39  1  0
 26 40  1  0
 27 28  1  0
 27 41  1  0
 27 42  1  0
 28 29  1  0
 28 43  1  0
 29 44  1  0
 29 45  1  0
M  RAD  1   2   2
M  END
>  <reaction>  (6) 
rxn_615

>  <mol_properties>  (6) 
{"1": {"label": "*1", "atom_type": "Cs"}, "3": {"label": "*0", "atom_type": "Cd"}, "24": {"label": "*4", "atom_type": "Cs"}, "25": {"label": "*3", "atom_type": "Cs"}, "38": {"label": "*2", "atom_type": "H0"}}

>  <type>  (6) 
unop_2

>  <geom_source>  (6) 
Heuristics

$$$$

     RDKit          3D

 45 46  0  0  0  0  0  0  0  0999 V2000
    0.9059    3.1724   -1.1488 C   0  0  0  0  0  0  0  0  0  0  0  0
    0.2693    2.0382   -0.3437 C   0  0  0  0  0  3  0  0  0  0  0  0
   -1.0255    1.5573   -1.0010 C   0  0  0  0  0  0  0  0  0  0  0  0
    0.0479    2.4351    1.1009 C   0  0  0  0  0  0  0  0  0  0  0  0
   -0.8042    3.4849    1.4366 C   0  0  0  0  0  0  0  0  0  0  0  0
   -1.0053    3.8462    2.7583 C   0  0  0  0  0  0  0  0  0  0  0  0
   -0.3555    3.1621    3.7759 C   0  0  0  0  0  0  0  0  0  0  0  0
    0.4947    2.1163    3.4571 C   0  0  0  0  0  0  0  0  0  0  0  0
    0.6918    1.7592    2.1307 C   0  0  0  0  0  0  0  0  0  0  0  0
    1.8414    3.5010   -0.6935 H   0  0  0  0  0  0  0  0  0  0  0  0
    1.1157    2.8480   -2.1701 H   0  0  0  0  0  0  0  0  0  0  0  0
    0.2390    4.0358   -1.2039 H   0  0  0  0  0  0  0  0  0  0  0  0
   -1.7620    2.3626   -1.0509 H   0  0  0  0  0  0  0  0  0  0  0  0
   -0.8353    1.2166   -2.0209 H   0  0  0  0  0  0  0  0  0  0  0  0
   -1.4688    0.7331   -0.4404 H   0  0  0  0  0  0  0  0  0  0  0  0
   -1.3199    4.0300    0.6544 H   0  0  0  0  0  0  0  0  0  0  0  0
   -1.6723    4.6656    2.9963 H   0  0  0  0  0  0  0  0  0  0  0  0
   -0.5120    3.4439    4.8094 H   0  0  0  0  0  0  0  0  0  0  0  0
    1.0078    1.5745    4.2420 H   0  0  0  0  0  0  0  0  0  0  0  0
    1.3593    0.9390    1.8909 H   0  0  0  0  0  0  0  0  0  0  0  0
   -0.9137   -4.5017   -1.9990 C   0  0  0  0  0  0  0  0  0  0  0  0
   -0.9137   -4.5017   -0.4684 C   0  0  0  0  0  0  0  0  0  0  0  0
    0.2294   -3.6653    0.1136 C   0  0  0  0  0  0  0  0  0  0  0  0
    0.1898   -2.2643   -0.4705 C   0  0  0  0  0  0  0  0  0  0  0  0
    1.3088   -1.2905   -0.1151 C   0  0  0  0  0  0  0  0  0  0  0  0
    1.2589   -0.2200   -1.2337 C   0  0  0  0  0  0  0  0  0  0  0  0
    0.3654   -0.8118   -2.3523 C   0  0  0  0  0  0  0  0  0  0  0  0
    0.2403   -2.2899   -1.9969 C   0  0  0  0  0  0  0  0  0  0  0  0
   -0.9137   -3.0852   -2.5810 C   0  0  0  0  0  0  0  0  0  0  0  0
   -0.0213   -5.0285   -2.3549 H   0  0  0  0  0  0  0  0  0  0  0  0
   -1.7746   -5.0628   -2.3697 H   0  0  0  0  0  0  0  0  0  0  0  0
   -1.8659   -4.0925   -0.1125 H   0  0  0  0  0  0  0  0  0  0  0  0
   -0.8582   -5.5278   -0.0977 H   0  0  0  0  0  0  0  0  0  0  0  0
    0.1621   -3.6393    1.2044 H   0  0  0  0  0  0  0  0  0  0  0  0
    1.1909   -4.1304   -0.1345 H   0  0  0  0  0  0  0  0  0  0  0  0
   -0.7690   -1.8055   -0.1880 H   0  0  0  0  0  0  0  0  0  0  0  0
    1.2000   -0.8626    0.8823 H   0  0  0  0  0  0  0  0  0  0  0  0
    2.2664   -1.8191   -0.1355 H   0  0  0  0  0  0  0  0  0  0  0  0
    0.7649    0.9073   -0.7894 H   0  0  0  0  0  0  0  0  0  0  0  0
    2.2601    0.0025   -1.6040 H   0  0  0  0  0  0  0  0  0  0  0  0
    0.7750   -0.6469   -3.3498 H   0  0  0  0  0  0  0  0  0  0  0  0
   -0.6267   -0.3511   -2.3319 H   0  0  0  0  0  0  0  0  0  0  0  0
    1.1768   -2.7928   -2.2794 H   0  0  0  0  0  0  0  0  0  0  0  0
   -0.8531   -3.1242   -3.6719 H   0  0  0  0  0  0  0  0  0  0  0  0
   -1.8569   -2.5839   -2.3330 H   0  0  0  0  0  0  0  0  0  0  0  0
  1  2  1  0
  1 10  1  0
  1 11  1  0
  1 12  1  0
  2  3  1  0
  2  4  1  0
  3 13  1  0
  3 14  1  0
  3 15  1  0
  4  5  2  0
  4  9  1  0
  5  6  1  0
  5 16  1  0
  6  7  2  0
  6 17  1  0
  7  8  1  0
  7 18  1  0
  8  9  2  0
  8 19  1  0
  9 20  1  0
 21 22  1  0
 21 29  1  0
 21 30  1  0
 21 31  1  0
 22 23  1  0
 22 32  1  0
 22 33  1  0
 23 24  1  0
 23 34  1  0
 23 35  1  0
 24 25  1  0
 24 28  1  0
 24 36  1  0
 25 26  1  0
 25 37  1  0
 25 38  1  0
 26 27  1  0
 26 39  1  0
 26 40  1  0
 27 28  1  0
 27 41  1  0
 27 42  1  0
 28 29  1  0
 28 43  1  0
 29 44  1  0
 29 45  1  0
M  RAD  1   2   2
M  END
>  <reaction>  (7) 
rxn_615

>  <mol_properties>  (7) 
{"1": {"label": "*1", "atom_type": "Cs"}, "3": {"label": "*0", "atom_type": "Cd"}, "24": {"label": "*4", "atom_type": "Cs"}, "25": {"label": "*3", "atom_type": "Cs"}, "38": {"label": "*2", "atom_type": "H0"}}

>  <type>  (7) 
unop_3

>  <geom_source>  (7) 
Heuristics

$$$$

     RDKit          3D

 45 46  0  0  0  0  0  0  0  0999 V2000
   -0.4516    1.7808    2.2875 C   0  0  0  0  0  0  0  0  0  0  0  0
    0.5350    2.1166    1.1677 C   0  0  0  0  0  3  0  0  0  0  0  0
    1.4292    3.2947    1.5582 C   0  0  0  0  0  0  0  0  0  0  0  0
   -0.1758    2.3668   -0.1459 C   0  0  0  0  0  0  0  0  0  0  0  0
   -1.0777    3.4191   -0.2875 C   0  0  0  0  0  0  0  0  0  0  0  0
   -1.7267    3.6461   -1.4897 C   0  0  0  0  0  0  0  0  0  0  0  0
   -1.4858    2.8218   -2.5797 C   0  0  0  0  0  0  0  0  0  0  0  0
   -0.5916    1.7717   -2.4537 C   0  0  0  0  0  0  0  0  0  0  0  0
    0.0553    1.5496   -1.2462 C   0  0  0  0  0  0  0  0  0  0  0  0
   -1.0746    0.9263    2.0197 H   0  0  0  0  0  0  0  0  0  0  0  0
    0.0812    1.5423    3.2103 H   0  0  0  0  0  0  0  0  0  0  0  0
   -1.1127    2.6258    2.4934 H   0  0  0  0  0  0  0  0  0  0  0  0
    0.8357    4.1941    1.7379 H   0  0  0  0  0  0  0  0  0  0  0  0
    1.9809    3.0714    2.4737 H   0  0  0  0  0  0  0  0  0  0  0  0
    2.1486    3.5207    0.7698 H   0  0  0  0  0  0  0  0  0  0  0  0
   -1.2777    4.0728    0.5538 H   0  0  0  0  0  0  0  0  0  0  0  0
   -2.4239    4.4702   -1.5772 H   0  0  0  0  0  0  0  0  0  0  0  0
   -1.9926    2.9985   -3.5199 H   0  0  0  0  0  0  0  0  0  0  0  0
   -0.3950    1.1212   -3.2969 H   0  0  0  0  0  0  0  0  0  0  0  0
    0.7537    0.7249   -1.1571 H   0  0  0  0  0  0  0  0  0  0  0  0
   -0.6481   -4.4232   -0.4877 C   0  0  0  0  0  0  0  0  0  0  0  0
   -0.6481   -4.4232    1.0429 C   0  0  0  0  0  0  0  0  0  0  0  0
    0.4950   -3.5868    1.6249 C   0  0  0  0  0  0  0  0  0  0  0  0
    0.4554   -2.1859    1.0408 C   0  0  0  0  0  0  0  0  0  0  0  0
    1.5745   -1.2121    1.3963 C   0  0  0  0  0  0  0  0  0  0  0  0
    1.5245   -0.1415    0.2776 C   0  0  0  0  0  0  0  0  0  0  0  0
    0.6310   -0.7334   -0.8410 C   0  0  0  0  0  0  0  0  0  0  0  0
    0.5060   -2.2115   -0.4855 C   0  0  0  0  0  0  0  0  0  0  0  0
   -0.6481   -3.0068   -1.0697 C   0  0  0  0  0  0  0  0  0  0  0  0
    0.2444   -4.9500   -0.8436 H   0  0  0  0  0  0  0  0  0  0  0  0
   -1.5089   -4.9843   -0.8584 H   0  0  0  0  0  0  0  0  0  0  0  0
   -1.6002   -4.0141    1.3989 H   0  0  0  0  0  0  0  0  0  0  0  0
   -0.5925   -5.4493    1.4137 H   0  0  0  0  0  0  0  0  0  0  0  0
    0.4278   -3.5609    2.7158 H   0  0  0  0  0  0  0  0  0  0  0  0
    1.4566   -4.0520    1.3769 H   0  0  0  0  0  0  0  0  0  0  0  0
   -0.5033   -1.7270    1.3233 H   0  0  0  0  0  0  0  0  0  0  0  0
    1.4657   -0.7841    2.3937 H   0  0  0  0  0  0  0  0  0  0  0  0
    2.5321   -1.7406    1.3758 H   0  0  0  0  0  0  0  0  0  0  0  0
    1.0305    0.9857    0.7219 H   0  0  0  0  0  0  0  0  0  0  0  0
    2.5257    0.0810   -0.0926 H   0  0  0  0  0  0  0  0  0  0  0  0
    1.0407   -0.5685   -1.8384 H   0  0  0  0  0  0  0  0  0  0  0  0
   -0.3610   -0.2726   -0.8206 H   0  0  0  0  0  0  0  0  0  0  0  0
    1.4424   -2.7143   -0.7681 H   0  0  0  0  0  0  0  0  0  0  0  0
   -0.5874   -3.0458   -2.1605 H   0  0  0  0  0  0  0  0  0  0  0  0
   -1.5912   -2.5055   -0.8216 H   0  0  0  0  0  0  0  0  0  0  0  0
  1  2  1  0
  1 10  1  0
  1 11  1  0
  1 12  1  0
  2  3  1  0
  2  4  1  0
  3 13  1  0
  3 14  1  0
  3 15  1  0
  4  5  2  0
  4  9  1  0
  5  6  1  0
  5 16  1  0
  6  7  2  0
  6 17  1  0
  7  8  1  0
  7 18  1  0
  8  9  2  0
  8 19  1  0
  9 20  1  0
 21 22  1  0
 21 29  1  0
 21 30  1  0
 21 31  1  0
 22 23  1  0
 22 32  1  0
 22 33  1  0
 23 24  1  0
 23 34  1  0
 23 35  1  0
 24 25  1  0
 24 28  1  0
 24 36  1  0
 25 26  1  0
 25 37  1  0
 25 38  1  0
 26 27  1  0
 26 39  1  0
 26 40  1  0
 27 28  1  0
 27 41  1  0
 27 42  1  0
 28 29  1  0
 28 43  1  0
 29 44  1  0
 29 45  1  0
M  RAD  1   2   2
M  END
>  <reaction>  (8) 
rxn_615

>  <mol_properties>  (8) 
{"1": {"label": "*1", "atom_type": "Cs"}, "3": {"label": "*0", "atom_type": "Cd"}, "24": {"label": "*4", "atom_type": "Cs"}, "25": {"label": "*3", "atom_type": "Cs"}, "38": {"label": "*2", "atom_type": "H0"}}

>  <type>  (8) 
unop_4

>  <geom_source>  (8) 
Heuristics

$$$$

     RDKit          3D

 45 46  0  0  0  0  0  0  0  0999 V2000
   -0.3861    2.9827   -1.3604 C   0  0  0  0  0  0  0  0  0  0  0  0
   -0.3747    1.9909   -0.1959 C   0  0  0  0  0  3  0  0  0  0  0  0
   -1.7940    1.7108    0.3013 C   0  0  0  0  0  0  0  0  0  0  0  0
    0.5279    2.4584    0.9266 C   0  0  0  0  0  0  0  0  0  0  0  0
    0.2686    3.6425    1.6133 C   0  0  0  0  0  0  0  0  0  0  0  0
    1.0952    4.0683    2.6396 C   0  0  0  0  0  0  0  0  0  0  0  0
    2.2031    3.3152    3.0018 C   0  0  0  0  0  0  0  0  0  0  0  0
    2.4734    2.1357    2.3280 C   0  0  0  0  0  0  0  0  0  0  0  0
    1.6410    1.7147    1.3005 C   0  0  0  0  0  0  0  0  0  0  0  0
    0.6235    3.1660   -1.7310 H   0  0  0  0  0  0  0  0  0  0  0  0
   -0.9912    2.6003   -2.1850 H   0  0  0  0  0  0  0  0  0  0  0  0
   -0.8094    3.9420   -1.0536 H   0  0  0  0  0  0  0  0  0  0  0  0
   -2.2679    2.6243    0.6679 H   0  0  0  0  0  0  0  0  0  0  0  0
   -2.4132    1.3155   -0.5066 H   0  0  0  0  0  0  0  0  0  0  0  0
   -1.7892    0.9862    1.1168 H   0  0  0  0  0  0  0  0  0  0  0  0
   -0.5926    4.2430    1.3434 H   0  0  0  0  0  0  0  0  0  0  0  0
    0.8745    4.9922    3.1598 H   0  0  0  0  0  0  0  0  0  0  0  0
    2.8499    3.6472    3.8039 H   0  0  0  0  0  0  0  0  0  0  0  0
    3.3349    1.5390    2.6012 H   0  0  0  0  0  0  0  0  0  0  0  0
    1.8608    0.7899    0.7788 H   0  0  0  0  0  0  0  0  0  0  0  0
   -1.5577   -4.5490   -1.8512 C   0  0  0  0  0  0  0  0  0  0  0  0
   -1.5577   -4.5490   -0.3206 C   0  0  0  0  0  0  0  0  0  0  0  0
   -0.4146   -3.7126    0.2614 C   0  0  0  0  0  0  0  0  0  0  0  0
   -0.4542   -2.3116   -0.3228 C   0  0  0  0  0  0  0  0  0  0  0  0
    0.6648   -1.3378    0.0327 C   0  0  0  0  0  0  0  0  0  0  0  0
    0.6149   -0.2673   -1.0859 C   0  0  0  0  0  0  0  0  0  0  0  0
   -0.2786   -0.8591   -2.2046 C   0  0  0  0  0  0  0  0  0  0  0  0
   -0.4037   -2.3372   -1.8491 C   0  0  0  0  0  0  0  0  0  0  0  0
   -1.5577   -3.1325   -2.4332 C   0  0  0  0  0  0  0  0  0  0  0  0
   -0.6653   -5.0758   -2.2072 H   0  0  0  0  0  0  0  0  0  0  0  0
   -2.4186   -5.1101   -2.2220 H   0  0  0  0  0  0  0  0  0  0  0  0
   -2.5099   -4.1398    0.0353 H   0  0  0  0  0  0  0  0  0  0  0  0
   -1.5022   -5.5751    0.0501 H   0  0  0  0  0  0  0  0  0  0  0  0
   -0.4819   -3.6866    1.3522 H   0  0  0  0  0  0  0  0  0  0  0  0
    0.5469   -4.1777    0.0133 H   0  0  0  0  0  0  0  0  0  0  0  0
   -1.4130   -1.8528   -0.0402 H   0  0  0  0  0  0  0  0  0  0  0  0
    0.5560   -0.9099    1.0301 H   0  0  0  0  0  0  0  0  0  0  0  0
    1.6225   -1.8664    0.0123 H   0  0  0  0  0  0  0  0  0  0  0  0
    0.1209    0.8600   -0.6416 H   0  0  0  0  0  0  0  0  0  0  0  0
    1.6161   -0.0448   -1.4562 H   0  0  0  0  0  0  0  0  0  0  0  0
    0.1310   -0.6942   -3.2020 H   0  0  0  0  0  0  0  0  0  0  0  0
   -1.2706   -0.3984   -2.1841 H   0  0  0  0  0  0  0  0  0  0  0  0
    0.5328   -2.8401   -2.1317 H   0  0  0  0  0  0  0  0  0  0  0  0
   -1.4971   -3.1715   -3.5241 H   0  0  0  0  0  0  0  0  0  0  0  0
   -2.5009   -2.6312   -2.1852 H   0  0  0  0  0  0  0  0  0  0  0  0
  1  2  1  0
  1 10  1  0
  1 11  1  0
  1 12  1  0
  2  3  1  0
  2  4  1  0
  3 13  1  0
  3 14  1  0
  3 15  1  0
  4  5  2  0
  4  9  1  0
  5  6  1  0
  5 16  1  0
  6  7  2  0
  6 17  1  0
  7  8  1  0
  7 18  1  0
  8  9  2  0
  8 19  1  0
  9 20  1  0
 21 22  1  0
 21 29  1  0
 21 30  1  0
 21 31  1  0
 22 23  1  0
 22 32  1  0
 22 33  1  0
 23 24  1  0
 23 34  1  0
 23 35  1  0
 24 25  1  0
 24 28  1  0
 24 36  1  0
 25 26  1  0
 25 37  1  0
 25 38  1  0
 26 27  1  0
 26 39  1  0
 26 40  1  0
 27 28  1  0
 27 41  1  0
 27 42  1  0
 28 29  1  0
 28 43  1  0
 29 44  1  0
 29 45  1  0
M  RAD  1   2   2
M  END
>  <reaction>  (9) 
rxn_615

>  <mol_properties>  (9) 
{"1": {"label": "*1", "atom_type": "Cs"}, "3": {"label": "*0", "atom_type": "Cd"}, "24": {"label": "*4", "atom_type": "Cs"}, "25": {"label": "*3", "atom_type": "Cs"}, "38": {"label": "*2", "atom_type": "H0"}}

>  <type>  (9) 
unop_5

>  <geom_source>  (9) 
Heuristics

$$$$

     RDKit          3D

 45 46  0  0  0  0  0  0  0  0999 V2000
   -1.2896    1.8187    1.7921 C   0  0  0  0  0  0  0  0  0  0  0  0
    0.1276    2.0999    1.2896 C   0  0  0  0  0  3  0  0  0  0  0  0
    0.7763    3.2361    2.0822 C   0  0  0  0  0  0  0  0  0  0  0  0
    0.1473    2.3758   -0.1992 C   0  0  0  0  0  0  0  0  0  0  0  0
   -0.5273    3.4693   -0.7379 C   0  0  0  0  0  0  0  0  0  0  0  0
   -0.5079    3.7199   -2.0998 C   0  0  0  0  0  0  0  0  0  0  0  0
    0.1895    2.8783   -2.9547 C   0  0  0  0  0  0  0  0  0  0  0  0
    0.8649    1.7872   -2.4335 C   0  0  0  0  0  0  0  0  0  0  0  0
    0.8415    1.5418   -1.0678 C   0  0  0  0  0  0  0  0  0  0  0  0
   -1.7452    0.9934    1.2430 H   0  0  0  0  0  0  0  0  0  0  0  0
   -1.2770    1.5605    2.8531 H   0  0  0  0  0  0  0  0  0  0  0  0
   -1.9296    2.6956    1.6703 H   0  0  0  0  0  0  0  0  0  0  0  0
    0.2106    4.1640    1.9708 H   0  0  0  0  0  0  0  0  0  0  0  0
    0.8097    2.9922    3.1461 H   0  0  0  0  0  0  0  0  0  0  0  0
    1.7953    3.4225    1.7401 H   0  0  0  0  0  0  0  0  0  0  0  0
   -1.0771    4.1370   -0.0845 H   0  0  0  0  0  0  0  0  0  0  0  0
   -1.0395    4.5759   -2.4967 H   0  0  0  0  0  0  0  0  0  0  0  0
    0.2052    3.0733   -4.0195 H   0  0  0  0  0  0  0  0  0  0  0  0
    1.4129    1.1229   -3.0901 H   0  0  0  0  0  0  0  0  0  0  0  0
    1.3733    0.6851   -0.6689 H   0  0  0  0  0  0  0  0  0  0  0  0
   -1.0555   -4.4399   -0.3658 C   0  0  0  0  0  0  0  0  0  0  0  0
   -1.0555   -4.4399    1.1648 C   0  0  0  0  0  0  0  0  0  0  0  0
    0.0876   -3.6035    1.7468 C   0  0  0  0  0  0  0  0  0  0  0  0
    0.0480   -2.2026    1.1627 C   0  0  0  0  0  0  0  0  0  0  0  0
    1.1671   -1.2288    1.5182 C   0  0  0  0  0  0  0  0  0  0  0  0
    1.1171   -0.1582    0.3995 C   0  0  0  0  0  0  0  0  0  0  0  0
    0.2236   -0.7501   -0.7191 C   0  0  0  0  0  0  0  0  0  0  0  0
    0.0986   -2.2282   -0.3636 C   0  0  0  0  0  0  0  0  0  0  0  0
   -1.0555   -3.0235   -0.9478 C   0  0  0  0  0  0  0  0  0  0  0  0
   -0.1630   -4.9667   -0.7217 H   0  0  0  0  0  0  0  0  0  0  0  0
   -1.9164   -5.0010   -0.7365 H   0  0  0  0  0  0  0  0  0  0  0  0
   -2.0076   -4.0308    1.5208 H   0  0  0  0  0  0  0  0  0  0  0  0
   -0.9999   -5.4660    1.5356 H   0  0  0  0  0  0  0  0  0  0  0  0
    0.0204   -3.5776    2.8377 H   0  0  0  0  0  0  0  0  0  0  0  0
    1.0492   -4.0687    1.4988 H   0  0  0  0  0  0  0  0  0  0  0  0
   -0.9107   -1.7437    1.4453 H   0  0  0  0  0  0  0  0  0  0  0  0
    1.0583   -0.8008    2.5156 H   0  0  0  0  0  0  0  0  0  0  0  0
    2.1247   -1.7573    1.4977 H   0  0  0  0  0  0  0  0  0  0  0  0
    0.6231    0.9690    0.8439 H   0  0  0  0  0  0  0  0  0  0  0  0
    2.1183    0.0643    0.0293 H   0  0  0  0  0  0  0  0  0  0  0  0
    0.6333   -0.5852   -1.7165 H   0  0  0  0  0  0  0  0  0  0  0  0
   -0.7684   -0.2893   -0.6987 H   0  0  0  0  0  0  0  0  0  0  0  0
    1.0350   -2.7310   -0.6462 H   0  0  0  0  0  0  0  0  0  0  0  0
   -0.9948   -3.0625   -2.0386 H   0  0  0  0  0  0  0  0  0  0  0  0
   -1.9986   -2.5222   -0.6997 H   0  0  0  0  0  0  0  0  0  0  0  0
  1  2  1  0
  1 10  1  0
  1 11  1  0
  1 12  1  0
  2  3  1  0
  2  4  1  0
  3 13  1  0
  3 14  1  0
  3 15  1  0
  4  5  2  0
  4  9  1  0
  5  6  1  0
  5 16  1  0
  6  7  2  0
  6 17  1  0
  7  8  1  0
  7 18  1  0
  8  9  2  0
  8 19  1  0
  9 20  1  0
 21 22  1  0
 21 29  1  0
 21 30  1  0
 21 31  1  0
 22 23  1  0
 22 32  1  0
 22 33  1  0
 23 24  1  0
 23 34  1  0
 23 35  1  0
 24 25  1  0
 24 28  1  0
 24 36  1  0
 25 26  1  0
 25 37  1  0
 25 38  1  0
 26 27  1  0
 26 39  1  0
 26 40  1  0
 27 28  1  0
 27 41  1  0
 27 42  1  0
 28 29  1  0
 28 43  1  0
 29 44  1  0
 29 45  1  0
M  RAD  1   2   2
M  END
>  <reaction>  (10) 
rxn_615

>  <mol_properties>  (10) 
{"1": {"label": "*1", "atom_type": "Cs"}, "3": {"label": "*0", "atom_type": "Cd"}, "24": {"label": "*4", "atom_type": "Cs"}, "25": {"label": "*3", "atom_type": "Cs"}, "38": {"label": "*2", "atom_type": "H0"}}

>  <type>  (10) 
unop_6

>  <geom_source>  (10) 
Heuristics

$$$$

     RDKit          3D

 45 46  0  0  0  0  0  0  0  0999 V2000
   -1.8588    2.3528    0.0657 C   0  0  0  0  0  0  0  0  0  0  0  0
   -0.6052    2.0414    0.8850 C   0  0  0  0  0  3  0  0  0  0  0  0
   -0.6572    2.7273    2.2513 C   0  0  0  0  0  0  0  0  0  0  0  0
    0.6580    2.3974    0.1296 C   0  0  0  0  0  0  0  0  0  0  0  0
    0.9273    3.7123   -0.2438 C   0  0  0  0  0  0  0  0  0  0  0  0
    2.0831    4.0358   -0.9347 C   0  0  0  0  0  0  0  0  0  0  0  0
    2.9974    3.0465   -1.2678 C   0  0  0  0  0  0  0  0  0  0  0  0
    2.7431    1.7348   -0.9032 C   0  0  0  0  0  0  0  0  0  0  0  0
    1.5829    1.4173   -0.2110 C   0  0  0  0  0  0  0  0  0  0  0  0
   -1.8336    1.8458   -0.9000 H   0  0  0  0  0  0  0  0  0  0  0  0
   -2.7561    2.0323    0.5992 H   0  0  0  0  0  0  0  0  0  0  0  0
   -1.9479    3.4254   -0.1214 H   0  0  0  0  0  0  0  0  0  0  0  0
   -0.7031    3.8134    2.1428 H   0  0  0  0  0  0  0  0  0  0  0  0
   -1.5424    2.4105    2.8069 H   0  0  0  0  0  0  0  0  0  0  0  0
    0.2256    2.4876    2.8457 H   0  0  0  0  0  0  0  0  0  0  0  0
    0.2239    4.4976    0.0084 H   0  0  0  0  0  0  0  0  0  0  0  0
    2.2721    5.0648   -1.2148 H   0  0  0  0  0  0  0  0  0  0  0  0
    3.9013    3.2984   -1.8079 H   0  0  0  0  0  0  0  0  0  0  0  0
    3.4487    0.9536   -1.1573 H   0  0  0  0  0  0  0  0  0  0  0  0
    1.3924    0.3876    0.0702 H   0  0  0  0  0  0  0  0  0  0  0  0
   -1.7882   -4.4985   -0.7703 C   0  0  0  0  0  0  0  0  0  0  0  0
   -1.7882   -4.4985    0.7603 C   0  0  0  0  0  0  0  0  0  0  0  0
   -0.6451   -3.6621    1.3423 C   0  0  0  0  0  0  0  0  0  0  0  0
   -0.6847   -2.2611    0.7581 C   0  0  0  0  0  0  0  0  0  0  0  0
    0.4343   -1.2873    1.1136 C   0  0  0  0  0  0  0  0  0  0  0  0
    0.3844   -0.2168   -0.0050 C   0  0  0  0  0  0  0  0  0  0  0  0
   -0.5091   -0.8086   -1.1237 C   0  0  0  0  0  0  0  0  0  0  0  0
   -0.6342   -2.2867   -0.7682 C   0  0  0  0  0  0  0  0  0  0  0  0
   -1.7882   -3.0820   -1.3523 C   0  0  0  0  0  0  0  0  0  0  0  0
   -0.8958   -5.0253   -1.1263 H   0  0  0  0  0  0  0  0  0  0  0  0
   -2.6491   -5.0596   -1.1411 H   0  0  0  0  0  0  0  0  0  0  0  0
   -2.7403   -4.0893    1.1162 H   0  0  0  0  0  0  0  0  0  0  0  0
   -1.7327   -5.5246    1.1310 H   0  0  0  0  0  0  0  0  0  0  0  0
   -0.7123   -3.6361    2.4331 H   0  0  0  0  0  0  0  0  0  0  0  0
    0.3164   -4.1272    1.0942 H   0  0  0  0  0  0  0  0  0  0  0  0
   -1.6435   -1.8023    1.0407 H   0  0  0  0  0  0  0  0  0  0  0  0
    0.3255   -0.8594    2.1110 H   0  0  0  0  0  0  0  0  0  0  0  0
    1.3920   -1.8159    1.0932 H   0  0  0  0  0  0  0  0  0  0  0  0
   -0.1096    0.9105    0.4393 H   0  0  0  0  0  0  0  0  0  0  0  0
    1.3856    0.0057   -0.3753 H   0  0  0  0  0  0  0  0  0  0  0  0
   -0.0995   -0.6437   -2.1211 H   0  0  0  0  0  0  0  0  0  0  0  0
   -1.5011   -0.3479   -1.1032 H   0  0  0  0  0  0  0  0  0  0  0  0
    0.3023   -2.7896   -1.0507 H   0  0  0  0  0  0  0  0  0  0  0  0
   -1.7276   -3.1210   -2.4432 H   0  0  0  0  0  0  0  0  0  0  0  0
   -2.7314   -2.5807   -1.1043 H   0  0  0  0  0  0  0  0  0  0  0  0
  1  2  1  0
  1 10  1  0
  1 11  1  0
  1 12  1  0
  2  3  1  0
  2  4  1  0
  3 13  1  0
  3 14  1  0
  3 15  1  0
  4  5  2  0
  4  9  1  0
  5  6  1  0
  5 16  1  0
  6  7  2  0
  6 17  1  0
  7  8  1  0
  7 18  1  0
  8  9  2  0
  8 19  1  0
  9 20  1  0
 21 22  1  0
 21 29  1  0
 21 30  1  0
 21 31  1  0
 22 23  1  0
 22 32  1  0
 22 33  1  0
 23 24  1  0
 23 34  1  0
 23 35  1  0
 24 25  1  0
 24 28  1  0
 24 36  1  0
 25 26  1  0
 25 37  1  0
 25 38  1  0
 26 27  1  0
 26 39  1  0
 26 40  1  0
 27 28  1  0
 27 41  1  0
 27 42  1  0
 28 29  1  0
 28 43  1  0
 29 44  1  0
 29 45  1  0
M  RAD  1   2   2
M  END
>  <reaction>  (11) 
rxn_615

>  <mol_properties>  (11) 
{"1": {"label": "*1", "atom_type": "Cs"}, "3": {"label": "*0", "atom_type": "Cd"}, "24": {"label": "*4", "atom_type": "Cs"}, "25": {"label": "*3", "atom_type": "Cs"}, "38": {"label": "*2", "atom_type": "H0"}}

>  <type>  (11) 
unop_7

>  <geom_source>  (11) 
Heuristics

$$$$

     RDKit          3D

 45 46  0  0  0  0  0  0  0  0999 V2000
    1.9944    2.8665    0.6384 C   0  0  0  0  0  0  0  0  0  0  0  0
    0.8293    2.0238    0.1164 C   0  0  0  0  0  3  0  0  0  0  0  0
    0.7428    2.0910   -1.4093 C   0  0  0  0  0  0  0  0  0  0  0  0
   -0.4799    2.4174    0.7676 C   0  0  0  0  0  0  0  0  0  0  0  0
   -1.0085    3.6963    0.6064 C   0  0  0  0  0  0  0  0  0  0  0  0
   -2.2060    4.0543    1.2028 C   0  0  0  0  0  0  0  0  0  0  0  0
   -2.9026    3.1365    1.9761 C   0  0  0  0  0  0  0  0  0  0  0  0
   -2.3894    1.8613    2.1453 C   0  0  0  0  0  0  0  0  0  0  0  0
   -1.1889    1.5090    1.5449 C   0  0  0  0  0  0  0  0  0  0  0  0
    2.0714    2.8012    1.7247 H   0  0  0  0  0  0  0  0  0  0  0  0
    2.9379    2.5276    0.2056 H   0  0  0  0  0  0  0  0  0  0  0  0
    1.8657    3.9187    0.3744 H   0  0  0  0  0  0  0  0  0  0  0  0
    0.5691    3.1154   -1.7470 H   0  0  0  0  0  0  0  0  0  0  0  0
    1.6737    1.7444   -1.8627 H   0  0  0  0  0  0  0  0  0  0  0  0
   -0.0736    1.4723   -1.7847 H   0  0  0  0  0  0  0  0  0  0  0  0
   -0.4774    4.4257    0.0055 H   0  0  0  0  0  0  0  0  0  0  0  0
   -2.5982    5.0542    1.0639 H   0  0  0  0  0  0  0  0  0  0  0  0
   -3.8389    3.4154    2.4428 H   0  0  0  0  0  0  0  0  0  0  0  0
   -2.9235    1.1359    2.7465 H   0  0  0  0  0  0  0  0  0  0  0  0
   -0.7949    0.5082    1.6831 H   0  0  0  0  0  0  0  0  0  0  0  0
   -0.3537   -4.5161   -1.5389 C   0  0  0  0  0  0  0  0  0  0  0  0
   -0.3537   -4.5161   -0.0083 C   0  0  0  0  0  0  0  0  0  0  0  0
    0.7894   -3.6797    0.5737 C   0  0  0  0  0  0  0  0  0  0  0  0
    0.7498   -2.2787   -0.0105 C   0  0  0  0  0  0  0  0  0  0  0  0
    1.8688   -1.3049    0.3450 C   0  0  0  0  0  0  0  0  0  0  0  0
    1.8189   -0.2344   -0.7736 C   0  0  0  0  0  0  0  0  0  0  0  0
    0.9254   -0.8262   -1.8923 C   0  0  0  0  0  0  0  0  0  0  0  0
    0.8003   -2.3043   -1.5368 C   0  0  0  0  0  0  0  0  0  0  0  0
   -0.3537   -3.0996   -2.1209 C   0  0  0  0  0  0  0  0  0  0  0  0
    0.5387   -5.0429   -1.8949 H   0  0  0  0  0  0  0  0  0  0  0  0
   -1.2146   -5.0772   -1.9097 H   0  0  0  0  0  0  0  0  0  0  0  0
   -1.3059   -4.1069    0.3476 H   0  0  0  0  0  0  0  0  0  0  0  0
   -0.2982   -5.5422    0.3624 H   0  0  0  0  0  0  0  0  0  0  0  0
    0.7221   -3.6537    1.6645 H   0  0  0  0  0  0  0  0  0  0  0  0
    1.7509   -4.1448    0.3256 H   0  0  0  0  0  0  0  0  0  0  0  0
   -0.2090   -1.8199    0.2721 H   0  0  0  0  0  0  0  0  0  0  0  0
    1.7600   -0.8770    1.3424 H   0  0  0  0  0  0  0  0  0  0  0  0
    2.8265   -1.8335    0.3246 H   0  0  0  0  0  0  0  0  0  0  0  0
    1.3249    0.8929   -0.3293 H   0  0  0  0  0  0  0  0  0  0  0  0
    2.8201   -0.0119   -1.1439 H   0  0  0  0  0  0  0  0  0  0  0  0
    1.3350   -0.6613   -2.8897 H   0  0  0  0  0  0  0  0  0  0  0  0
   -0.0666   -0.3655   -1.8718 H   0  0  0  0  0  0  0  0  0  0  0  0
    1.7368   -2.8072   -1.8193 H   0  0  0  0  0  0  0  0  0  0  0  0
   -0.2931   -3.1386   -3.2118 H   0  0  0  0  0  0  0  0  0  0  0  0
   -1.2969   -2.5983   -1.8729 H   0  0  0  0  0  0  0  0  0  0  0  0
  1  2  1  0
  1 10  1  0
  1 11  1  0
  1 12  1  0
  2  3  1  0
  2  4  1  0
  3 13  1  0
  3 14  1  0
  3 15  1  0
  4  5  2  0
  4  9  1  0
  5  6  1  0
  5 16  1  0
  6  7  2  0
  6 17  1  0
  7  8  1  0
  7 18  1  0
  8  9  2  0
  8 19  1  0
  9 20  1  0
 21 22  1  0
 21 29  1  0
 21 30  1  0
 21 31  1  0
 22 23  1  0
 22 32  1  0
 22 33  1  0
 23 24  1  0
 23 34  1  0
 23 35  1  0
 24 25  1  0
 24 28  1  0
 24 36  1  0
 25 26  1  0
 25 37  1  0
 25 38  1  0
 26 27  1  0
 26 39  1  0
 26 40  1  0
 27 28  1  0
 27 41  1  0
 27 42  1  0
 28 29  1  0
 28 43  1  0
 29 44  1  0
 29 45  1  0
M  RAD  1   2   2
M  END
>  <reaction>  (12) 
rxn_615

>  <mol_properties>  (12) 
{"1": {"label": "*1", "atom_type": "Cs"}, "3": {"label": "*0", "atom_type": "Cd"}, "24": {"label": "*4", "atom_type": "Cs"}, "25": {"label": "*3", "atom_type": "Cs"}, "38": {"label": "*2", "atom_type": "H0"}}

>  <type>  (12) 
unop_8

>  <geom_source>  (12) 
Heuristics

$$$$

     RDKit          3D

 45 46  0  0  0  0  0  0  0  0999 V2000
    1.7903    2.4906    1.4714 C   0  0  0  0  0  0  0  0  0  0  0  0
    0.8865    2.0037    0.3374 C   0  0  0  0  0  3  0  0  0  0  0  0
    1.4145    2.4644   -1.0224 C   0  0  0  0  0  0  0  0  0  0  0  0
   -0.5521    2.4260    0.5497 C   0  0  0  0  0  0  0  0  0  0  0  0
   -0.9090    3.7721    0.5894 C   0  0  0  0  0  0  0  0  0  0  0  0
   -2.2253    4.1561    0.7837 C   0  0  0  0  0  0  0  0  0  0  0  0
   -3.2161    3.1977    0.9431 C   0  0  0  0  0  0  0  0  0  0  0  0
   -2.8761    1.8555    0.9060 C   0  0  0  0  0  0  0  0  0  0  0  0
   -1.5552    1.4774    0.7109 C   0  0  0  0  0  0  0  0  0  0  0  0
    1.4277    2.1436    2.4400 H   0  0  0  0  0  0  0  0  0  0  0  0
    2.8099    2.1244    1.3345 H   0  0  0  0  0  0  0  0  0  0  0  0
    1.8294    3.5820    1.4999 H   0  0  0  0  0  0  0  0  0  0  0  0
    1.4400    3.5548   -1.0836 H   0  0  0  0  0  0  0  0  0  0  0  0
    2.4303    2.0979   -1.1845 H   0  0  0  0  0  0  0  0  0  0  0  0
    0.7836    2.0986   -1.8338 H   0  0  0  0  0  0  0  0  0  0  0  0
   -0.1478    4.5340    0.4666 H   0  0  0  0  0  0  0  0  0  0  0  0
   -2.4801    5.2084    0.8110 H   0  0  0  0  0  0  0  0  0  0  0  0
   -4.2454    3.4969    1.0951 H   0  0  0  0  0  0  0  0  0  0  0  0
   -3.6400    1.0978    1.0291 H   0  0  0  0  0  0  0  0  0  0  0  0
   -1.2987    0.4242    0.6833 H   0  0  0  0  0  0  0  0  0  0  0  0
   -0.2965   -4.5362   -1.3180 C   0  0  0  0  0  0  0  0  0  0  0  0
   -0.2965   -4.5362    0.2126 C   0  0  0  0  0  0  0  0  0  0  0  0
    0.8466   -3.6998    0.7946 C   0  0  0  0  0  0  0  0  0  0  0  0
    0.8070   -2.2988    0.2105 C   0  0  0  0  0  0  0  0  0  0  0  0
    1.9261   -1.3250    0.5659 C   0  0  0  0  0  0  0  0  0  0  0  0
    1.8761   -0.2545   -0.5527 C   0  0  0  0  0  0  0  0  0  0  0  0
    0.9826   -0.8463   -1.6713 C   0  0  0  0  0  0  0  0  0  0  0  0
    0.8575   -2.3244   -1.3159 C   0  0  0  0  0  0  0  0  0  0  0  0
   -0.2965   -3.1197   -1.9000 C   0  0  0  0  0  0  0  0  0  0  0  0
    0.5959   -5.0630   -1.6739 H   0  0  0  0  0  0  0  0  0  0  0  0
   -1.1574   -5.0973   -1.6887 H   0  0  0  0  0  0  0  0  0  0  0  0
   -1.2486   -4.1270    0.5685 H   0  0  0  0  0  0  0  0  0  0  0  0
   -0.2410   -5.5623    0.5833 H   0  0  0  0  0  0  0  0  0  0  0  0
    0.7794   -3.6738    1.8854 H   0  0  0  0  0  0  0  0  0  0  0  0
    1.8081   -4.1649    0.5466 H   0  0  0  0  0  0  0  0  0  0  0  0
   -0.1518   -1.8400    0.4930 H   0  0  0  0  0  0  0  0  0  0  0  0
    1.8172   -0.8971    1.5634 H   0  0  0  0  0  0  0  0  0  0  0  0
    2.8837   -1.8536    0.5455 H   0  0  0  0  0  0  0  0  0  0  0  0
    1.3821    0.8728   -0.1084 H   0  0  0  0  0  0  0  0  0  0  0  0
    2.8773   -0.0320   -0.9230 H   0  0  0  0  0  0  0  0  0  0  0  0
    1.3922   -0.6814   -2.6687 H   0  0  0  0  0  0  0  0  0  0  0  0
   -0.0094   -0.3856   -1.6509 H   0  0  0  0  0  0  0  0  0  0  0  0
    1.7940   -2.8273   -1.5984 H   0  0  0  0  0  0  0  0  0  0  0  0
   -0.2359   -3.1587   -2.9908 H   0  0  0  0  0  0  0  0  0  0  0  0
   -1.2397   -2.6184   -1.6519 H   0  0  0  0  0  0  0  0  0  0  0  0
  1  2  1  0
  1 10  1  0
  1 11  1  0
  1 12  1  0
  2  3  1  0
  2  4  1  0
  3 13  1  0
  3 14  1  0
  3 15  1  0
  4  5  2  0
  4  9  1  0
  5  6  1  0
  5 16  1  0
  6  7  2  0
  6 17  1  0
  7  8  1  0
  7 18  1  0
  8  9  2  0
  8 19  1  0
  9 20  1  0
 21 22  1  0
 21 29  1  0
 21 30  1  0
 21 31  1  0
 22 23  1  0
 22 32  1  0
 22 33  1  0
 23 24  1  0
 23 34  1  0
 23 35  1  0
 24 25  1  0
 24 28  1  0
 24 36  1  0
 25 26  1  0
 25 37  1  0
 25 38  1  0
 26 27  1  0
 26 39  1  0
 26 40  1  0
 27 28  1  0
 27 41  1  0
 27 42  1  0
 28 29  1  0
 28 43  1  0
 29 44  1  0
 29 45  1  0
M  RAD  1   2   2
M  END
>  <reaction>  (13) 
rxn_615

>  <mol_properties>  (13) 
{"1": {"label": "*1", "atom_type": "Cs"}, "3": {"label": "*0", "atom_type": "Cd"}, "24": {"label": "*4", "atom_type": "Cs"}, "25": {"label": "*3", "atom_type": "Cs"}, "38": {"label": "*2", "atom_type": "H0"}}

>  <type>  (13) 
unop_9

>  <geom_source>  (13) 
Heuristics

$$$$

     RDKit          3D

 45 46  0  0  0  0  0  0  0  0999 V2000
   -1.4172    2.7019   -0.7855 C   0  0  0  0  0  0  0  0  0  0  0  0
   -0.7138    2.0112    0.3842 C   0  0  0  0  0  3  0  0  0  0  0  0
   -1.4594    2.2580    1.6968 C   0  0  0  0  0  0  0  0  0  0  0  0
    0.7403    2.4223    0.4824 C   0  0  0  0  0  0  0  0  0  0  0  0
    1.0994    3.7463    0.7253 C   0  0  0  0  0  0  0  0  0  0  0  0
    2.4299    4.1202    0.8148 C   0  0  0  0  0  0  0  0  0  0  0  0
    3.4330    3.1735    0.6626 C   0  0  0  0  0  0  0  0  0  0  0  0
    3.0910    1.8533    0.4207 C   0  0  0  0  0  0  0  0  0  0  0  0
    1.7559    1.4853    0.3322 C   0  0  0  0  0  0  0  0  0  0  0  0
   -0.8993    2.5079   -1.7259 H   0  0  0  0  0  0  0  0  0  0  0  0
   -2.4455    2.3468   -0.8795 H   0  0  0  0  0  0  0  0  0  0  0  0
   -1.4505    3.7840   -0.6387 H   0  0  0  0  0  0  0  0  0  0  0  0
   -1.4943    3.3241    1.9330 H   0  0  0  0  0  0  0  0  0  0  0  0
   -2.4882    1.8984    1.6279 H   0  0  0  0  0  0  0  0  0  0  0  0
   -0.9717    1.7472    2.5283 H   0  0  0  0  0  0  0  0  0  0  0  0
    0.3287    4.4989    0.8468 H   0  0  0  0  0  0  0  0  0  0  0  0
    2.6861    5.1553    1.0043 H   0  0  0  0  0  0  0  0  0  0  0  0
    4.4733    3.4648    0.7324 H   0  0  0  0  0  0  0  0  0  0  0  0
    3.8644    1.1049    0.3001 H   0  0  0  0  0  0  0  0  0  0  0  0
    1.4979    0.4493    0.1425 H   0  0  0  0  0  0  0  0  0  0  0  0
   -1.8968   -4.5286   -1.2712 C   0  0  0  0  0  0  0  0  0  0  0  0
   -1.8968   -4.5286    0.2594 C   0  0  0  0  0  0  0  0  0  0  0  0
   -0.7537   -3.6922    0.8414 C   0  0  0  0  0  0  0  0  0  0  0  0
   -0.7933   -2.2912    0.2573 C   0  0  0  0  0  0  0  0  0  0  0  0
    0.3257   -1.3175    0.6127 C   0  0  0  0  0  0  0  0  0  0  0  0
    0.2758   -0.2469   -0.5059 C   0  0  0  0  0  0  0  0  0  0  0  0
   -0.6177   -0.8387   -1.6245 C   0  0  0  0  0  0  0  0  0  0  0  0
   -0.7428   -2.3169   -1.2691 C   0  0  0  0  0  0  0  0  0  0  0  0
   -1.8968   -3.1122   -1.8532 C   0  0  0  0  0  0  0  0  0  0  0  0
   -1.0044   -5.0554   -1.6271 H   0  0  0  0  0  0  0  0  0  0  0  0
   -2.7577   -5.0897   -1.6419 H   0  0  0  0  0  0  0  0  0  0  0  0
   -2.8490   -4.1195    0.6153 H   0  0  0  0  0  0  0  0  0  0  0  0
   -1.8413   -5.5547    0.6301 H   0  0  0  0  0  0  0  0  0  0  0  0
   -0.8210   -3.6663    1.9322 H   0  0  0  0  0  0  0  0  0  0  0  0
    0.2078   -4.1574    0.5933 H   0  0  0  0  0  0  0  0  0  0  0  0
   -1.7521   -1.8324    0.5398 H   0  0  0  0  0  0  0  0  0  0  0  0
    0.2169   -0.8895    1.6101 H   0  0  0  0  0  0  0  0  0  0  0  0
    1.2833   -1.8460    0.5923 H   0  0  0  0  0  0  0  0  0  0  0  0
   -0.2182    0.8804   -0.0616 H   0  0  0  0  0  0  0  0  0  0  0  0
    1.2770   -0.0244   -0.8762 H   0  0  0  0  0  0  0  0  0  0  0  0
   -0.2081   -0.6739   -2.6219 H   0  0  0  0  0  0  0  0  0  0  0  0
   -1.6098   -0.3780   -1.6041 H   0  0  0  0  0  0  0  0  0  0  0  0
    0.1936   -2.8197   -1.5516 H   0  0  0  0  0  0  0  0  0  0  0  0
   -1.8362   -3.1511   -2.9440 H   0  0  0  0  0  0  0  0  0  0  0  0
   -2.8400   -2.6109   -1.6051 H   0  0  0  0  0  0  0  0  0  0  0  0
  1  2  1  0
  1 10  1  0
  1 11  1  0
  1 12  1  0
  2  3  1  0
  2  4  1  0
  3 13  1  0
  3 14  1  0
  3 15  1  0
  4  5  2  0
  4  9  1  0
  5  6  1  0
  5 16  1  0
  6  7  2  0
  6 17  1  0
  7  8  1  0
  7 18  1  0
  8  9  2  0
  8 19  1  0
  9 20  1  0
 21 22  1  0
 21 29  1  0
 21 30  1  0
 21 31  1  0
 22 23  1  0
 22 32  1  0
 22 33  1  0
 23 24  1  0
 23 34  1  0
 23 35  1  0
 24 25  1  0
 24 28  1  0
 24 36  1  0
 25 26  1  0
 25 37  1  0
 25 38  1  0
 26 27  1  0
 26 39  1  0
 26 40  1  0
 27 28  1  0
 27 41  1  0
 27 42  1  0
 28 29  1  0
 28 43  1  0
 29 44  1  0
 29 45  1  0
M  RAD  1   2   2
M  END
>  <reaction>  (14) 
rxn_615

>  <mol_properties>  (14) 
{"1": {"label": "*1", "atom_type": "Cs"}, "3": {"label": "*0", "atom_type": "Cd"}, "24": {"label": "*4", "atom_type": "Cs"}, "25": {"label": "*3", "atom_type": "Cs"}, "38": {"label": "*2", "atom_type": "H0"}}

>  <type>  (14) 
unop_10

>  <geom_source>  (14) 
Heuristics

$$$$

     RDKit          3D

 45 46  0  0  0  0  0  0  0  0999 V2000
    0.4686    1.8921    2.3570 C   0  0  0  0  0  0  0  0  0  0  0  0
    0.8071    2.0855    0.8778 C   0  0  0  0  0  3  0  0  0  0  0  0
    1.8765    3.1640    0.6953 C   0  0  0  0  0  0  0  0  0  0  0  0
   -0.4301    2.3816    0.0563 C   0  0  0  0  0  0  0  0  0  0  0  0
   -1.1910    3.5256    0.2872 C   0  0  0  0  0  0  0  0  0  0  0  0
   -2.3221    3.7945   -0.4652 C   0  0  0  0  0  0  0  0  0  0  0  0
   -2.7172    2.9211   -1.4685 C   0  0  0  0  0  0  0  0  0  0  0  0
   -1.9705    1.7797   -1.7095 C   0  0  0  0  0  0  0  0  0  0  0  0
   -0.8381    1.5161   -0.9519 C   0  0  0  0  0  0  0  0  0  0  0  0
   -0.2773    1.1073    2.4905 H   0  0  0  0  0  0  0  0  0  0  0  0
    1.3614    1.6179    2.9228 H   0  0  0  0  0  0  0  0  0  0  0  0
    0.0687    2.8115    2.7907 H   0  0  0  0  0  0  0  0  0  0  0  0
    1.5271    4.1292    1.0693 H   0  0  0  0  0  0  0  0  0  0  0  0
    2.7834    2.9027    1.2444 H   0  0  0  0  0  0  0  0  0  0  0  0
    2.1354    3.2871   -0.3573 H   0  0  0  0  0  0  0  0  0  0  0  0
   -0.8968    4.2187    1.0670 H   0  0  0  0  0  0  0  0  0  0  0  0
   -2.8987    4.6899   -0.2683 H   0  0  0  0  0  0  0  0  0  0  0  0
   -3.6013    3.1304   -2.0573 H   0  0  0  0  0  0  0  0  0  0  0  0
   -2.2683    1.0901   -2.4897 H   0  0  0  0  0  0  0  0  0  0  0  0
   -0.2598    0.6200   -1.1479 H   0  0  0  0  0  0  0  0  0  0  0  0
   -0.3760   -4.4543   -0.7776 C   0  0  0  0  0  0  0  0  0  0  0  0
   -0.3760   -4.4543    0.7530 C   0  0  0  0  0  0  0  0  0  0  0  0
    0.7672   -3.6179    1.3350 C   0  0  0  0  0  0  0  0  0  0  0  0
    0.7275   -2.2169    0.7509 C   0  0  0  0  0  0  0  0  0  0  0  0
    1.8466   -1.2431    1.1064 C   0  0  0  0  0  0  0  0  0  0  0  0
    1.7966   -0.1726   -0.0123 C   0  0  0  0  0  0  0  0  0  0  0  0
    0.9031   -0.7644   -1.1309 C   0  0  0  0  0  0  0  0  0  0  0  0
    0.7781   -2.2426   -0.7754 C   0  0  0  0  0  0  0  0  0  0  0  0
   -0.3760   -3.0379   -1.3595 C   0  0  0  0  0  0  0  0  0  0  0  0
    0.5165   -4.9811   -1.1335 H   0  0  0  0  0  0  0  0  0  0  0  0
   -1.2368   -5.0154   -1.1483 H   0  0  0  0  0  0  0  0  0  0  0  0
   -1.3281   -4.0451    1.1090 H   0  0  0  0  0  0  0  0  0  0  0  0
   -0.3204   -5.4804    1.1238 H   0  0  0  0  0  0  0  0  0  0  0  0
    0.6999   -3.5920    2.4259 H   0  0  0  0  0  0  0  0  0  0  0  0
    1.7287   -4.0830    1.0870 H   0  0  0  0  0  0  0  0  0  0  0  0
   -0.2312   -1.7581    1.0335 H   0  0  0  0  0  0  0  0  0  0  0  0
    1.7378   -0.8152    2.1038 H   0  0  0  0  0  0  0  0  0  0  0  0
    2.8042   -1.7717    1.0859 H   0  0  0  0  0  0  0  0  0  0  0  0
    1.3026    0.9547    0.4321 H   0  0  0  0  0  0  0  0  0  0  0  0
    2.7978    0.0499   -0.3825 H   0  0  0  0  0  0  0  0  0  0  0  0
    1.3128   -0.5996   -2.1283 H   0  0  0  0  0  0  0  0  0  0  0  0
   -0.0889   -0.3037   -1.1105 H   0  0  0  0  0  0  0  0  0  0  0  0
    1.7145   -2.7454   -1.0580 H   0  0  0  0  0  0  0  0  0  0  0  0
   -0.3153   -3.0768   -2.4504 H   0  0  0  0  0  0  0  0  0  0  0  0
   -1.3191   -2.5365   -1.1115 H   0  0  0  0  0  0  0  0  0  0  0  0
  1  2  1  0
  1 10  1  0
  1 11  1  0
  1 12  1  0
  2  3  1  0
  2  4  1  0
  3 13  1  0
  3 14  1  0
  3 15  1  0
  4  5  2  0
  4  9  1  0
  5  6  1  0
  5 16  1  0
  6  7  2  0
  6 17  1  0
  7  8  1  0
  7 18  1  0
  8  9  2  0
  8 19  1  0
  9 20  1  0
 21 22  1  0
 21 29  1  0
 21 30  1  0
 21 31  1  0
 22 23  1  0
 22 32  1  0
 22 33  1  0
 23 24  1  0
 23 34  1  0
 23 35  1  0
 24 25  1  0
 24 28  1  0
 24 36  1  0
 25 26  1  0
 25 37  1  0
 25 38  1  0
 26 27  1  0
 26 39  1  0
 26 40  1  0
 27 28  1  0
 27 41  1  0
 27 42  1  0
 28 29  1  0
 28 43  1  0
 29 44  1  0
 29 45  1  0
M  RAD  1   2   2
M  END
>  <reaction>  (15) 
rxn_615

>  <mol_properties>  (15) 
{"1": {"label": "*1", "atom_type": "Cs"}, "3": {"label": "*0", "atom_type": "Cd"}, "24": {"label": "*4", "atom_type": "Cs"}, "25": {"label": "*3", "atom_type": "Cs"}, "38": {"label": "*2", "atom_type": "H0"}}

>  <type>  (15) 
unop_11

>  <geom_source>  (15) 
Heuristics

$$$$

     RDKit          3D

 45 46  0  0  0  0  0  0  0  0999 V2000
   -2.6146   -0.5559   -0.1290 C   0  0  0  0  0  0  0  0  0  0  0  0
   -2.0521    0.8514   -0.1587 C   0  0  0  0  0  0  0  0  0  0  0  0
    2.2470   -1.4664    0.0408 C   0  0  0  0  0  3  0  0  0  0  0  0
   -3.9780   -0.6101   -0.8467 C   0  0  0  0  0  0  0  0  0  0  0  0
   -2.8943    1.7909    0.7271 C   0  0  0  0  0  0  0  0  0  0  0  0
   -4.8027    0.6844   -0.6165 C   0  0  0  0  0  0  0  0  0  0  0  0
   -4.4036    1.4330    0.6754 C   0  0  0  0  0  0  0  0  0  0  0  0
   -1.5028   -1.4074   -0.7234 C   0  0  0  0  0  0  0  0  0  0  0  0
   -0.5941    0.6737    0.2392 C   0  0  0  0  0  0  0  0  0  0  0  0
    2.9236   -2.4118   -0.9570 C   0  0  0  0  0  0  0  0  0  0  0  0
    2.1510   -2.1048    1.4302 C   0  0  0  0  0  0  0  0  0  0  0  0
    2.9605   -0.1306    0.0999 C   0  0  0  0  0  0  0  0  0  0  0  0
   -0.2079   -0.7098   -0.2936 C   0  0  0  0  0  0  0  0  0  0  0  0
    4.3015   -0.0387    0.5221 C   0  0  0  0  0  0  0  0  0  0  0  0
    2.2815    1.0436   -0.2708 C   0  0  0  0  0  0  0  0  0  0  0  0
    4.9443    1.2019    0.5706 C   0  0  0  0  0  0  0  0  0  0  0  0
    4.2591    2.3611    0.1998 C   0  0  0  0  0  0  0  0  0  0  0  0
    2.9294    2.2818   -0.2204 C   0  0  0  0  0  0  0  0  0  0  0  0
   -2.7585   -0.8701    0.9325 H   0  0  0  0  0  0  0  0  0  0  0  0
   -2.0775    1.2332   -1.2073 H   0  0  0  0  0  0  0  0  0  0  0  0
    0.9780   -1.2827   -0.3935 H   0  0  0  0  0  0  0  0  0  0  0  0
   -4.5464   -1.4863   -0.4657 H   0  0  0  0  0  0  0  0  0  0  0  0
   -3.8387   -0.7518   -1.9406 H   0  0  0  0  0  0  0  0  0  0  0  0
   -5.8845    0.4327   -0.5789 H   0  0  0  0  0  0  0  0  0  0  0  0
   -4.6527    1.3703   -1.4791 H   0  0  0  0  0  0  0  0  0  0  0  0
   -4.6552    0.7879    1.5458 H   0  0  0  0  0  0  0  0  0  0  0  0
   -5.0078    2.3612    0.7667 H   0  0  0  0  0  0  0  0  0  0  0  0
   -2.7475    2.8361    0.3779 H   0  0  0  0  0  0  0  0  0  0  0  0
   -2.5540    1.7405    1.7843 H   0  0  0  0  0  0  0  0  0  0  0  0
   -1.5673   -1.4255   -1.8339 H   0  0  0  0  0  0  0  0  0  0  0  0
   -1.5371   -2.4453   -0.3300 H   0  0  0  0  0  0  0  0  0  0  0  0
   -0.4796    0.6704    1.3444 H   0  0  0  0  0  0  0  0  0  0  0  0
    0.0429    1.4726   -0.1986 H   0  0  0  0  0  0  0  0  0  0  0  0
    2.9808   -1.9296   -1.9560 H   0  0  0  0  0  0  0  0  0  0  0  0
    2.3280   -3.3439   -1.0562 H   0  0  0  0  0  0  0  0  0  0  0  0
    3.9492   -2.6795   -0.6254 H   0  0  0  0  0  0  0  0  0  0  0  0
    1.6566   -1.4034    2.1355 H   0  0  0  0  0  0  0  0  0  0  0  0
    3.1566   -2.3646    1.8238 H   0  0  0  0  0  0  0  0  0  0  0  0
    1.5403   -3.0308    1.3779 H   0  0  0  0  0  0  0  0  0  0  0  0
    0.4922   -0.6248   -1.1532 H   0  0  0  0  0  0  0  0  0  0  0  0
    4.8506   -0.9245    0.8136 H   0  0  0  0  0  0  0  0  0  0  0  0
    5.9747    1.2644    0.8960 H   0  0  0  0  0  0  0  0  0  0  0  0
    4.7584    3.3206    0.2380 H   0  0  0  0  0  0  0  0  0  0  0  0
    2.3996    3.1809   -0.5074 H   0  0  0  0  0  0  0  0  0  0  0  0
    1.2508    1.0060   -0.5995 H   0  0  0  0  0  0  0  0  0  0  0  0
  1  4  1  0
  1  8  1  0
  1  2  1  0
  1 19  1  0
  2  5  1  0
  2  9  1  0
  2 20  1  0
  3 10  1  0
  3 11  1  0
  3 12  1  0
  4  6  1  0
  4 22  1  0
  4 23  1  0
  5  7  1  0
  5 28  1  0
  5 29  1  0
  6  7  1  0
  6 24  1  0
  6 25  1  0
  7 26  1  0
  7 27  1  0
  8 13  1  0
  8 30  1  0
  8 31  1  0
  9 13  1  0
  9 32  1  0
  9 33  1  0
 10 34  1  0
 10 35  1  0
 10 36  1  0
 11 37  1  0
 11 38  1  0
 11 39  1  0
 12 14  2  0
 12 15  1  0
 13 21  1  0
 13 40  1  0
 14 16  1  0
 14 41  1  0
 15 18  2  0
 15 45  1  0
 16 17  2  0
 16 42  1  0
 17 18  1  0
 17 43  1  0
 18 44  1  0
M  RAD  1   3   2
M  END
>  <reaction>  (16) 
rxn_615

>  <mol_properties>  (16) 
{"1": {"label": "*1", "atom_type": "Cs"}, "3": {"label": "*0", "atom_type": "Cd"}, "24": {"label": "*4", "atom_type": "Cs"}, "25": {"label": "*3", "atom_type": "Cs"}, "38": {"label": "*2", "atom_type": "H0"}}

>  <type>  (16) 
unop_12

>  <geom_source>  (16) 
AutoTST

$$$$

     RDKit          3D

 45 46  0  0  0  0  0  0  0  0999 V2000
    1.2491    2.1362    2.0583 C   0  0  0  0  0  0  0  0  0  0  0  0
    0.8956    2.0285    0.5739 C   0  0  0  0  0  3  0  0  0  0  0  0
    1.8609    2.8507   -0.2818 C   0  0  0  0  0  0  0  0  0  0  0  0
   -0.5460    2.4124    0.3142 C   0  0  0  0  0  0  0  0  0  0  0  0
   -1.0089    3.6980    0.5857 C   0  0  0  0  0  0  0  0  0  0  0  0
   -2.3278    4.0471    0.3475 C   0  0  0  0  0  0  0  0  0  0  0  0
   -3.2147    3.1133   -0.1695 C   0  0  0  0  0  0  0  0  0  0  0  0
   -2.7687    1.8312   -0.4443 C   0  0  0  0  0  0  0  0  0  0  0  0
   -1.4458    1.4879   -0.2032 C   0  0  0  0  0  0  0  0  0  0  0  0
    0.5755    1.5322    2.6679 H   0  0  0  0  0  0  0  0  0  0  0  0
    2.2715    1.7963    2.2356 H   0  0  0  0  0  0  0  0  0  0  0  0
    1.1772    3.1700    2.4041 H   0  0  0  0  0  0  0  0  0  0  0  0
    1.8110    3.9102   -0.0203 H   0  0  0  0  0  0  0  0  0  0  0  0
    2.8895    2.5179   -0.1282 H   0  0  0  0  0  0  0  0  0  0  0  0
    1.6240    2.7566   -1.3426 H   0  0  0  0  0  0  0  0  0  0  0  0
   -0.3297    4.4399    0.9898 H   0  0  0  0  0  0  0  0  0  0  0  0
   -2.6659    5.0525    0.5660 H   0  0  0  0  0  0  0  0  0  0  0  0
   -4.2458    3.3852   -0.3561 H   0  0  0  0  0  0  0  0  0  0  0  0
   -3.4509    1.0934   -0.8479 H   0  0  0  0  0  0  0  0  0  0  0  0
   -1.1058    0.4817   -0.4216 H   0  0  0  0  0  0  0  0  0  0  0  0
   -0.2874   -4.5113   -1.0814 C   0  0  0  0  0  0  0  0  0  0  0  0
   -0.2874   -4.5113    0.4492 C   0  0  0  0  0  0  0  0  0  0  0  0
    0.8557   -3.6749    1.0312 C   0  0  0  0  0  0  0  0  0  0  0  0
    0.8161   -2.2739    0.4471 C   0  0  0  0  0  0  0  0  0  0  0  0
    1.9351   -1.3002    0.8025 C   0  0  0  0  0  0  0  0  0  0  0  0
    1.8852   -0.2296   -0.3161 C   0  0  0  0  0  0  0  0  0  0  0  0
    0.9917   -0.8214   -1.4347 C   0  0  0  0  0  0  0  0  0  0  0  0
    0.8666   -2.2996   -1.0793 C   0  0  0  0  0  0  0  0  0  0  0  0
   -0.2874   -3.0949   -1.6634 C   0  0  0  0  0  0  0  0  0  0  0  0
    0.6050   -5.0381   -1.4373 H   0  0  0  0  0  0  0  0  0  0  0  0
   -1.1483   -5.0724   -1.4521 H   0  0  0  0  0  0  0  0  0  0  0  0
   -1.2396   -4.1022    0.8051 H   0  0  0  0  0  0  0  0  0  0  0  0
   -0.2319   -5.5374    0.8199 H   0  0  0  0  0  0  0  0  0  0  0  0
    0.7884   -3.6490    2.1220 H   0  0  0  0  0  0  0  0  0  0  0  0
    1.8172   -4.1401    0.7831 H   0  0  0  0  0  0  0  0  0  0  0  0
   -0.1427   -1.8151    0.7296 H   0  0  0  0  0  0  0  0  0  0  0  0
    1.8263   -0.8722    1.7999 H   0  0  0  0  0  0  0  0  0  0  0  0
    2.8928   -1.8287    0.7821 H   0  0  0  0  0  0  0  0  0  0  0  0
    1.3912    0.8976    0.1282 H   0  0  0  0  0  0  0  0  0  0  0  0
    2.8864   -0.0071   -0.6864 H   0  0  0  0  0  0  0  0  0  0  0  0
    1.4013   -0.6566   -2.4322 H   0  0  0  0  0  0  0  0  0  0  0  0
   -0.0003   -0.3607   -1.4143 H   0  0  0  0  0  0  0  0  0  0  0  0
    1.8031   -2.8024   -1.3618 H   0  0  0  0  0  0  0  0  0  0  0  0
   -0.2268   -3.1338   -2.7542 H   0  0  0  0  0  0  0  0  0  0  0  0
   -1.2306   -2.5936   -1.4154 H   0  0  0  0  0  0  0  0  0  0  0  0
  1  2  1  0
  1 10  1  0
  1 11  1  0
  1 12  1  0
  2  3  1  0
  2  4  1  0
  3 13  1  0
  3 14  1  0
  3 15  1  0
  4  5  2  0
  4  9  1  0
  5  6  1  0
  5 16  1  0
  6  7  2  0
  6 17  1  0
  7  8  1  0
  7 18  1  0
  8  9  2  0
  8 19  1  0
  9 20  1  0
 21 22  1  0
 21 29  1  0
 21 30  1  0
 21 31  1  0
 22 23  1  0
 22 32  1  0
 22 33  1  0
 23 24  1  0
 23 34  1  0
 23 35  1  0
 24 25  1  0
 24 28  1  0
 24 36  1  0
 25 26  1  0
 25 37  1  0
 25 38  1  0
 26 27  1  0
 26 39  1  0
 26 40  1  0
 27 28  1  0
 27 41  1  0
 27 42  1  0
 28 29  1  0
 28 43  1  0
 29 44  1  0
 29 45  1  0
M  RAD  1   2   2
M  END
>  <reaction>  (17) 
rxn_615

>  <mol_properties>  (17) 
{"1": {"label": "*1", "atom_type": "Cs"}, "3": {"label": "*0", "atom_type": "Cd"}, "24": {"label": "*4", "atom_type": "Cs"}, "25": {"label": "*3", "atom_type": "Cs"}, "38": {"label": "*2", "atom_type": "H0"}}

>  <type>  (17) 
unop_13

>  <geom_source>  (17) 
gaussian_log

$$$$
