
     RDKit          3D

 25 26  0  0  0  0  0  0  0  0999 V2000
    2.0298   -1.1515    0.0571 C   0  0  0  0  0  0  0  0  0  0  0  0
    2.2278    0.2445    0.6528 C   0  0  0  0  0  0  0  0  0  0  0  0
    1.2292    1.2625    0.0947 C   0  0  0  0  0  0  0  0  0  0  0  0
   -0.1869    0.7454    0.2762 C   0  0  0  0  0  0  0  0  0  0  0  0
   -1.3415    1.5501   -0.3122 C   0  0  0  0  0  0  0  0  0  0  0  0
   -2.5060    0.5338   -0.4178 C   0  0  0  0  0  0  0  0  0  0  0  0
   -1.8709   -0.8658   -0.2234 C   0  0  0  0  0  0  0  0  0  0  0  0
   -0.3715   -0.6265   -0.3693 C   0  0  0  0  0  0  0  0  0  0  0  0
    0.5898   -1.6500    0.2086 C   0  0  0  0  0  0  0  0  0  0  0  0
    2.2820   -1.1226   -1.0088 H   0  0  0  0  0  0  0  0  0  0  0  0
    2.7243   -1.8549    0.5221 H   0  0  0  0  0  0  0  0  0  0  0  0
    2.1030    0.1885    1.7400 H   0  0  0  0  0  0  0  0  0  0  0  0
    3.2514    0.5819    0.4743 H   0  0  0  0  0  0  0  0  0  0  0  0
    1.3611    2.2304    0.5855 H   0  0  0  0  0  0  0  0  0  0  0  0
    1.4198    1.4194   -0.9737 H   0  0  0  0  0  0  0  0  0  0  0  0
   -0.3675    0.6209    1.3539 H   0  0  0  0  0  0  0  0  0  0  0  0
   -1.5992    2.4249    0.2862 H   0  0  0  0  0  0  0  0  0  0  0  0
   -1.0595    1.9116   -1.3055 H   0  0  0  0  0  0  0  0  0  0  0  0
   -3.2666    0.7244    0.3399 H   0  0  0  0  0  0  0  0  0  0  0  0
   -3.0030    0.6112   -1.3853 H   0  0  0  0  0  0  0  0  0  0  0  0
   -2.2549   -1.6039   -0.9288 H   0  0  0  0  0  0  0  0  0  0  0  0
   -2.0796   -1.2429    0.7821 H   0  0  0  0  0  0  0  0  0  0  0  0
   -0.1432   -0.5121   -1.4391 H   0  0  0  0  0  0  0  0  0  0  0  0
    0.4720   -2.6209   -0.2799 H   0  0  0  0  0  0  0  0  0  0  0  0
    0.3601   -1.7986    1.2704 H   0  0  0  0  0  0  0  0  0  0  0  0
  1  2  1  0
  1  9  1  0
  1 10  1  0
  1 11  1  0
  2  3  1  0
  2 12  1  0
  2 13  1  0
  3  4  1  0
  3 14  1  0
  3 15  1  0
  4  5  1  0
  4  8  1  0
  4 16  1  0
  5  6  1  0
  5 17  1  0
  5 18  1  0
  6  7  1  0
  6 19  1  0
  6 20  1  0
  7  8  1  0
  7 21  1  0
  7 22  1  0
  8  9  1  0
  8 23  1  0
  9 24  1  0
  9 25  1  0
M  END
>  <reaction>  (1) 
rxn_616

>  <mol_properties>  (1) 
{"5": {"label": "donator", "atom_type": "Cs"}, "18": {"label": "d_hydrogen", "atom_type": "H0"}}

>  <type>  (1) 
r1h

$$$$

     RDKit          3D

  5  4  0  0  0  0  0  0  0  0999 V2000
    0.0397    0.7134    0.0000 C   0  0  0  0  0  3  0  0  0  0  0  0
    0.0458   -0.5870    0.0000 C   0  0  0  0  0  0  0  0  0  0  0  0
   -0.6871    1.5118    0.0000 H   0  0  0  0  0  0  0  0  0  0  0  0
   -0.8806   -1.1637    0.0000 H   0  0  0  0  0  0  0  0  0  0  0  0
    0.9690   -1.1600    0.0000 H   0  0  0  0  0  0  0  0  0  0  0  0
  1  2  2  3
  1  3  1  0
  2  4  1  0
  2  5  1  0
M  RAD  1   1   2
M  END
>  <reaction>  (2) 
rxn_616

>  <mol_properties>  (2) 
{"0": {"label": "acceptor", "atom_type": "Cd"}}

>  <type>  (2) 
r2

$$$$

     RDKit          3D

  6  5  0  0  0  0  0  0  0  0999 V2000
    0.6594    0.0438   -0.0050 C   0  0  0  0  0  0  0  0  0  0  0  0
   -0.6594   -0.0438    0.0050 C   0  0  0  0  0  0  0  0  0  0  0  0
    1.1706    0.8681   -0.4881 H   0  0  0  0  0  0  0  0  0  0  0  0
    1.2824   -0.7051    0.4696 H   0  0  0  0  0  0  0  0  0  0  0  0
   -1.2824    0.7051   -0.4696 H   0  0  0  0  0  0  0  0  0  0  0  0
   -1.1706   -0.8681    0.4881 H   0  0  0  0  0  0  0  0  0  0  0  0
  1  2  2  3
  1  3  1  0
  1  4  1  0
  2  5  1  0
  2  6  1  0
M  END
>  <reaction>  (3) 
rxn_616

>  <mol_properties>  (3) 
{"0": {"label": "acceptor", "atom_type": "Cd"}, "5": {"label": "a_hydrogen", "atom_type": "H0"}}

>  <type>  (3) 
r2h

$$$$

     RDKit          3D

 30 30  0  0  0  0  0  0  0  0999 V2000
    0.0723    3.4778    0.6973 C   0  0  0  0  0  3  0  0  0  0  0  0
   -0.6162    3.1471    1.7644 C   0  0  0  0  0  0  0  0  0  0  0  0
    0.1453    4.4518    0.2268 H   0  0  0  0  0  0  0  0  0  0  0  0
   -1.2185    3.8697    2.3115 H   0  0  0  0  0  0  0  0  0  0  0  0
   -0.6158    2.1317    2.1505 H   0  0  0  0  0  0  0  0  0  0  0  0
   -1.2024   -2.5973   -0.8920 C   0  0  0  0  0  0  0  0  0  0  0  0
   -1.1091   -2.5319    0.6346 C   0  0  0  0  0  0  0  0  0  0  0  0
    0.1628   -1.8245    1.1118 C   0  0  0  0  0  0  0  0  0  0  0  0
    0.2600   -0.4571    0.4606 C   0  0  1  0  0  0  0  0  0  0  0  0
    1.5010    0.3953    0.7020 C   0  0  0  0  0  0  0  0  0  0  0  0
    1.4268    1.4382   -0.4120 C   0  0  0  0  0  0  0  0  0  0  0  0
    0.5284    0.8699   -1.5193 C   0  0  0  0  0  0  0  0  0  0  0  0
    0.2230   -0.5592   -1.0640 C   0  0  2  0  0  0  0  0  0  0  0  0
   -1.0561   -1.2202   -1.5459 C   0  0  0  0  0  0  0  0  0  0  0  0
   -0.4087   -3.2518   -1.2693 H   0  0  0  0  0  0  0  0  0  0  0  0
   -2.1494   -3.0562   -1.1854 H   0  0  0  0  0  0  0  0  0  0  0  0
   -1.9788   -1.9891    1.0212 H   0  0  0  0  0  0  0  0  0  0  0  0
   -1.1606   -3.5399    1.0523 H   0  0  0  0  0  0  0  0  0  0  0  0
    0.1640   -1.7431    2.2020 H   0  0  0  0  0  0  0  0  0  0  0  0
    1.0424   -2.4182    0.8362 H   0  0  0  0  0  0  0  0  0  0  0  0
   -0.6182    0.1304    0.7655 H   0  0  0  0  0  0  0  0  0  0  0  0
    1.5386    0.8448    1.6968 H   0  0  0  0  0  0  0  0  0  0  0  0
    2.3999   -0.2227    0.5938 H   0  0  0  0  0  0  0  0  0  0  0  0
    0.8441    2.4348    0.0662 H   0  0  0  0  0  0  0  0  0  0  0  0
    2.3860    1.8361   -0.7389 H   0  0  0  0  0  0  0  0  0  0  0  0
    0.9979    0.9074   -2.5034 H   0  0  0  0  0  0  0  0  0  0  0  0
   -0.4020    1.4444   -1.5867 H   0  0  0  0  0  0  0  0  0  0  0  0
    1.0664   -1.1990   -1.3602 H   0  0  0  0  0  0  0  0  0  0  0  0
   -1.0642   -1.3159   -2.6349 H   0  0  0  0  0  0  0  0  0  0  0  0
   -1.9103   -0.5883   -1.2756 H   0  0  0  0  0  0  0  0  0  0  0  0
  1  2  2  3
  1  3  1  0
  2  4  1  0
  2  5  1  0
  6  7  1  0
  6 14  1  0
  6 15  1  0
  6 16  1  0
  7  8  1  0
  7 17  1  0
  7 18  1  0
  8  9  1  0
  8 19  1  0
  8 20  1  0
  9 10  1  0
  9 13  1  0
  9 21  1  1
 10 11  1  0
 10 22  1  0
 10 23  1  0
 11 12  1  0
 11 24  1  0
 11 25  1  0
 12 13  1  0
 12 26  1  0
 12 27  1  0
 13 14  1  0
 13 28  1  6
 14 29  1  0
 14 30  1  0
M  RAD  1   1   2
M  END
>  <reaction>  (4) 
rxn_616

>  <mol_properties>  (4) 
{"0": {"label": "*3", "atom_type": "Cd"}, "1": {"label": "*4", "atom_type": "Cd"}, "9": {"label": "*0", "atom_type": "Cs"}, "10": {"label": "*1", "atom_type": "Cs"}, "23": {"label": "*2", "atom_type": "H0"}}

>  <type>  (4) 
ts

$$$$

     RDKit          3D

 30 30  0  0  0  0  0  0  0  0999 V2000
    0.0878    3.6219    0.7322 C   0  0  0  0  0  0  0  0  0  0  0  0
    0.7850    4.7443    0.7012 C   0  0  0  0  0  0  0  0  0  0  0  0
   -0.9463    3.5860    0.4106 H   0  0  0  0  0  0  0  0  0  0  0  0
    0.3504    5.6739    0.3529 H   0  0  0  0  0  0  0  0  0  0  0  0
    1.8192    4.7802    1.0227 H   0  0  0  0  0  0  0  0  0  0  0  0
   -1.0999   -2.9074   -0.9190 C   0  0  0  0  0  0  0  0  0  0  0  0
   -1.0999   -2.9074    0.6116 C   0  0  0  0  0  0  0  0  0  0  0  0
    0.0433   -2.0710    1.1936 C   0  0  0  0  0  0  0  0  0  0  0  0
    0.0036   -0.6700    0.6095 C   0  0  0  0  0  0  0  0  0  0  0  0
    1.1227    0.3038    0.9649 C   0  0  0  0  0  0  0  0  0  0  0  0
    1.0727    1.3744   -0.1537 C   0  0  0  0  0  3  0  0  0  0  0  0
    0.1793    0.7825   -1.2723 C   0  0  0  0  0  0  0  0  0  0  0  0
    0.0542   -0.6956   -0.9169 C   0  0  0  0  0  0  0  0  0  0  0  0
   -1.0999   -1.4909   -1.5010 C   0  0  0  0  0  0  0  0  0  0  0  0
   -0.2074   -3.4342   -1.2749 H   0  0  0  0  0  0  0  0  0  0  0  0
   -1.9607   -3.4684   -1.2897 H   0  0  0  0  0  0  0  0  0  0  0  0
   -2.0520   -2.4982    0.9675 H   0  0  0  0  0  0  0  0  0  0  0  0
   -1.0443   -3.9334    0.9823 H   0  0  0  0  0  0  0  0  0  0  0  0
   -0.0240   -2.0450    2.2845 H   0  0  0  0  0  0  0  0  0  0  0  0
    1.0048   -2.5361    0.9456 H   0  0  0  0  0  0  0  0  0  0  0  0
   -0.9551   -0.2111    0.8920 H   0  0  0  0  0  0  0  0  0  0  0  0
    1.0139    0.7317    1.9624 H   0  0  0  0  0  0  0  0  0  0  0  0
    2.0803   -0.2247    0.9445 H   0  0  0  0  0  0  0  0  0  0  0  0
    0.5788    2.5016    0.2906 H   0  0  0  0  0  0  0  0  0  0  0  0
    2.0739    1.5968   -0.5239 H   0  0  0  0  0  0  0  0  0  0  0  0
    0.5889    0.9474   -2.2697 H   0  0  0  0  0  0  0  0  0  0  0  0
   -0.8128    1.2433   -1.2519 H   0  0  0  0  0  0  0  0  0  0  0  0
    0.9906   -1.1985   -1.1994 H   0  0  0  0  0  0  0  0  0  0  0  0
   -1.0392   -1.5299   -2.5918 H   0  0  0  0  0  0  0  0  0  0  0  0
   -2.0430   -0.9896   -1.2529 H   0  0  0  0  0  0  0  0  0  0  0  0
  1  2  2  3
  1  3  1  0
  1 24  1  0
  2  4  1  0
  2  5  1  0
  6  7  1  0
  6 14  1  0
  6 15  1  0
  6 16  1  0
  7  8  1  0
  7 17  1  0
  7 18  1  0
  8  9  1  0
  8 19  1  0
  8 20  1  0
  9 10  1  0
  9 13  1  0
  9 21  1  0
 10 11  1  0
 10 22  1  0
 10 23  1  0
 11 12  1  0
 11 25  1  0
 12 13  1  0
 12 26  1  0
 12 27  1  0
 13 14  1  0
 13 28  1  0
 14 29  1  0
 14 30  1  0
M  RAD  1  11   2
M  END
>  <reaction>  (5) 
rxn_616

>  <mol_properties>  (5) 
{"0": {"label": "*3", "atom_type": "Cd"}, "1": {"label": "*4", "atom_type": "Cd"}, "9": {"label": "*0", "atom_type": "Cs"}, "10": {"label": "*1", "atom_type": "Cs"}, "23": {"label": "*2", "atom_type": "H0"}}

>  <type>  (5) 
unop_1

>  <geom_source>  (5) 
Heuristics

$$$$

     RDKit          3D

 30 30  0  0  0  0  0  0  0  0999 V2000
    0.1370    3.6908    0.6081 C   0  0  0  0  0  0  0  0  0  0  0  0
    0.2832    4.0630    1.8679 C   0  0  0  0  0  0  0  0  0  0  0  0
   -0.1355    4.3986   -0.1658 H   0  0  0  0  0  0  0  0  0  0  0  0
    0.1363    5.0910    2.1775 H   0  0  0  0  0  0  0  0  0  0  0  0
    0.5557    3.3552    2.6418 H   0  0  0  0  0  0  0  0  0  0  0  0
   -1.0507   -2.8384   -1.0431 C   0  0  0  0  0  0  0  0  0  0  0  0
   -1.0507   -2.8384    0.4875 C   0  0  0  0  0  0  0  0  0  0  0  0
    0.0924   -2.0020    1.0695 C   0  0  0  0  0  0  0  0  0  0  0  0
    0.0528   -0.6011    0.4854 C   0  0  0  0  0  0  0  0  0  0  0  0
    1.1719    0.3727    0.8409 C   0  0  0  0  0  0  0  0  0  0  0  0
    1.1219    1.4433   -0.2778 C   0  0  0  0  0  3  0  0  0  0  0  0
    0.2284    0.8514   -1.3964 C   0  0  0  0  0  0  0  0  0  0  0  0
    0.1034   -0.6267   -1.0409 C   0  0  0  0  0  0  0  0  0  0  0  0
   -1.0507   -1.4220   -1.6250 C   0  0  0  0  0  0  0  0  0  0  0  0
   -0.1582   -3.3653   -1.3990 H   0  0  0  0  0  0  0  0  0  0  0  0
   -1.9116   -3.3995   -1.4138 H   0  0  0  0  0  0  0  0  0  0  0  0
   -2.0028   -2.4293    0.8435 H   0  0  0  0  0  0  0  0  0  0  0  0
   -0.9952   -3.8645    0.8583 H   0  0  0  0  0  0  0  0  0  0  0  0
    0.0252   -1.9761    2.1604 H   0  0  0  0  0  0  0  0  0  0  0  0
    1.0540   -2.4672    0.8215 H   0  0  0  0  0  0  0  0  0  0  0  0
   -0.9060   -0.1422    0.7680 H   0  0  0  0  0  0  0  0  0  0  0  0
    1.0630    0.8007    1.8383 H   0  0  0  0  0  0  0  0  0  0  0  0
    2.1295   -0.1558    0.8204 H   0  0  0  0  0  0  0  0  0  0  0  0
    0.6279    2.5705    0.1666 H   0  0  0  0  0  0  0  0  0  0  0  0
    2.1231    1.6657   -0.6480 H   0  0  0  0  0  0  0  0  0  0  0  0
    0.6381    1.0163   -2.3938 H   0  0  0  0  0  0  0  0  0  0  0  0
   -0.7636    1.3122   -1.3760 H   0  0  0  0  0  0  0  0  0  0  0  0
    1.0398   -1.1295   -1.3235 H   0  0  0  0  0  0  0  0  0  0  0  0
   -0.9900   -1.4610   -2.7159 H   0  0  0  0  0  0  0  0  0  0  0  0
   -1.9938   -0.9207   -1.3770 H   0  0  0  0  0  0  0  0  0  0  0  0
  1  2  2  3
  1  3  1  0
  1 24  1  0
  2  4  1  0
  2  5  1  0
  6  7  1  0
  6 14  1  0
  6 15  1  0
  6 16  1  0
  7  8  1  0
  7 17  1  0
  7 18  1  0
  8  9  1  0
  8 19  1  0
  8 20  1  0
  9 10  1  0
  9 13  1  0
  9 21  1  0
 10 11  1  0
 10 22  1  0
 10 23  1  0
 11 12  1  0
 11 25  1  0
 12 13  1  0
 12 26  1  0
 12 27  1  0
 13 14  1  0
 13 28  1  0
 14 29  1  0
 14 30  1  0
M  RAD  1  11   2
M  END
>  <reaction>  (6) 
rxn_616

>  <mol_properties>  (6) 
{"0": {"label": "*3", "atom_type": "Cd"}, "1": {"label": "*4", "atom_type": "Cd"}, "9": {"label": "*0", "atom_type": "Cs"}, "10": {"label": "*1", "atom_type": "Cs"}, "23": {"label": "*2", "atom_type": "H0"}}

>  <type>  (6) 
unop_2

>  <geom_source>  (6) 
Heuristics

$$$$

     RDKit          3D

 30 30  0  0  0  0  0  0  0  0999 V2000
    0.1205    3.6187    0.7749 C   0  0  0  0  0  0  0  0  0  0  0  0
    0.4852    4.7834    0.2674 C   0  0  0  0  0  0  0  0  0  0  0  0
   -0.9008    3.4277    1.0827 H   0  0  0  0  0  0  0  0  0  0  0  0
   -0.2223    5.5939    0.1387 H   0  0  0  0  0  0  0  0  0  0  0  0
    1.5065    4.9744   -0.0404 H   0  0  0  0  0  0  0  0  0  0  0  0
   -1.0672   -2.9105   -0.8763 C   0  0  0  0  0  0  0  0  0  0  0  0
   -1.0672   -2.9105    0.6543 C   0  0  0  0  0  0  0  0  0  0  0  0
    0.0759   -2.0741    1.2363 C   0  0  0  0  0  0  0  0  0  0  0  0
    0.0363   -0.6731    0.6522 C   0  0  0  0  0  0  0  0  0  0  0  0
    1.1554    0.3007    1.0077 C   0  0  0  0  0  0  0  0  0  0  0  0
    1.1054    1.3712   -0.1110 C   0  0  0  0  0  3  0  0  0  0  0  0
    0.2119    0.7794   -1.2296 C   0  0  0  0  0  0  0  0  0  0  0  0
    0.0868   -0.6987   -0.8741 C   0  0  0  0  0  0  0  0  0  0  0  0
   -1.0672   -1.4940   -1.4582 C   0  0  0  0  0  0  0  0  0  0  0  0
   -0.1748   -3.4373   -1.2322 H   0  0  0  0  0  0  0  0  0  0  0  0
   -1.9281   -3.4716   -1.2470 H   0  0  0  0  0  0  0  0  0  0  0  0
   -2.0193   -2.5013    1.0103 H   0  0  0  0  0  0  0  0  0  0  0  0
   -1.0117   -3.9366    1.0251 H   0  0  0  0  0  0  0  0  0  0  0  0
    0.0087   -2.0481    2.3272 H   0  0  0  0  0  0  0  0  0  0  0  0
    1.0374   -2.5392    0.9883 H   0  0  0  0  0  0  0  0  0  0  0  0
   -0.9225   -0.2143    0.9348 H   0  0  0  0  0  0  0  0  0  0  0  0
    1.0465    0.7286    2.0051 H   0  0  0  0  0  0  0  0  0  0  0  0
    2.1130   -0.2279    0.9872 H   0  0  0  0  0  0  0  0  0  0  0  0
    0.6114    2.4985    0.3334 H   0  0  0  0  0  0  0  0  0  0  0  0
    2.1066    1.5937   -0.4812 H   0  0  0  0  0  0  0  0  0  0  0  0
    0.6215    0.9443   -2.2270 H   0  0  0  0  0  0  0  0  0  0  0  0
   -0.7801    1.2401   -1.2092 H   0  0  0  0  0  0  0  0  0  0  0  0
    1.0233   -1.2016   -1.1567 H   0  0  0  0  0  0  0  0  0  0  0  0
   -1.0066   -1.5330   -2.5491 H   0  0  0  0  0  0  0  0  0  0  0  0
   -2.0104   -0.9927   -1.2102 H   0  0  0  0  0  0  0  0  0  0  0  0
  1  2  2  3
  1  3  1  0
  1 24  1  0
  2  4  1  0
  2  5  1  0
  6  7  1  0
  6 14  1  0
  6 15  1  0
  6 16  1  0
  7  8  1  0
  7 17  1  0
  7 18  1  0
  8  9  1  0
  8 19  1  0
  8 20  1  0
  9 10  1  0
  9 13  1  0
  9 21  1  0
 10 11  1  0
 10 22  1  0
 10 23  1  0
 11 12  1  0
 11 25  1  0
 12 13  1  0
 12 26  1  0
 12 27  1  0
 13 14  1  0
 13 28  1  0
 14 29  1  0
 14 30  1  0
M  RAD  1  11   2
M  END
>  <reaction>  (7) 
rxn_616

>  <mol_properties>  (7) 
{"0": {"label": "*3", "atom_type": "Cd"}, "1": {"label": "*4", "atom_type": "Cd"}, "9": {"label": "*0", "atom_type": "Cs"}, "10": {"label": "*1", "atom_type": "Cs"}, "23": {"label": "*2", "atom_type": "H0"}}

>  <type>  (7) 
unop_3

>  <geom_source>  (7) 
Heuristics

$$$$

     RDKit          3D

 30 30  0  0  0  0  0  0  0  0999 V2000
    0.2668    3.7195    0.6812 C   0  0  0  0  0  0  0  0  0  0  0  0
   -0.9538    3.7915    1.1830 C   0  0  0  0  0  0  0  0  0  0  0  0
    0.7109    4.5499    0.1450 H   0  0  0  0  0  0  0  0  0  0  0  0
   -1.5596    4.6839    1.0785 H   0  0  0  0  0  0  0  0  0  0  0  0
   -1.3979    2.9611    1.7191 H   0  0  0  0  0  0  0  0  0  0  0  0
   -0.9209   -2.8097   -0.9700 C   0  0  0  0  0  0  0  0  0  0  0  0
   -0.9209   -2.8097    0.5606 C   0  0  0  0  0  0  0  0  0  0  0  0
    0.2222   -1.9733    1.1426 C   0  0  0  0  0  0  0  0  0  0  0  0
    0.1826   -0.5723    0.5585 C   0  0  0  0  0  0  0  0  0  0  0  0
    1.3017    0.4015    0.9139 C   0  0  0  0  0  0  0  0  0  0  0  0
    1.2517    1.4720   -0.2047 C   0  0  0  0  0  3  0  0  0  0  0  0
    0.3582    0.8802   -1.3233 C   0  0  0  0  0  0  0  0  0  0  0  0
    0.2332   -0.5980   -0.9679 C   0  0  0  0  0  0  0  0  0  0  0  0
   -0.9209   -1.3933   -1.5520 C   0  0  0  0  0  0  0  0  0  0  0  0
   -0.0284   -3.3365   -1.3259 H   0  0  0  0  0  0  0  0  0  0  0  0
   -1.7818   -3.3708   -1.3407 H   0  0  0  0  0  0  0  0  0  0  0  0
   -1.8730   -2.4005    0.9165 H   0  0  0  0  0  0  0  0  0  0  0  0
   -0.8654   -3.8358    0.9313 H   0  0  0  0  0  0  0  0  0  0  0  0
    0.1550   -1.9474    2.2334 H   0  0  0  0  0  0  0  0  0  0  0  0
    1.1838   -2.4384    0.8945 H   0  0  0  0  0  0  0  0  0  0  0  0
   -0.7762   -0.1135    0.8410 H   0  0  0  0  0  0  0  0  0  0  0  0
    1.1928    0.8294    1.9113 H   0  0  0  0  0  0  0  0  0  0  0  0
    2.2593   -0.1271    0.8935 H   0  0  0  0  0  0  0  0  0  0  0  0
    0.7577    2.5993    0.2396 H   0  0  0  0  0  0  0  0  0  0  0  0
    2.2529    1.6945   -0.5750 H   0  0  0  0  0  0  0  0  0  0  0  0
    0.7679    1.0450   -2.3208 H   0  0  0  0  0  0  0  0  0  0  0  0
   -0.6338    1.3409   -1.3029 H   0  0  0  0  0  0  0  0  0  0  0  0
    1.1696   -1.1008   -1.2504 H   0  0  0  0  0  0  0  0  0  0  0  0
   -0.8602   -1.4322   -2.6429 H   0  0  0  0  0  0  0  0  0  0  0  0
   -1.8641   -0.8919   -1.3040 H   0  0  0  0  0  0  0  0  0  0  0  0
  1  2  2  3
  1  3  1  0
  1 24  1  0
  2  4  1  0
  2  5  1  0
  6  7  1  0
  6 14  1  0
  6 15  1  0
  6 16  1  0
  7  8  1  0
  7 17  1  0
  7 18  1  0
  8  9  1  0
  8 19  1  0
  8 20  1  0
  9 10  1  0
  9 13  1  0
  9 21  1  0
 10 11  1  0
 10 22  1  0
 10 23  1  0
 11 12  1  0
 11 25  1  0
 12 13  1  0
 12 26  1  0
 12 27  1  0
 13 14  1  0
 13 28  1  0
 14 29  1  0
 14 30  1  0
M  RAD  1  11   2
M  END
>  <reaction>  (8) 
rxn_616

>  <mol_properties>  (8) 
{"0": {"label": "*3", "atom_type": "Cd"}, "1": {"label": "*4", "atom_type": "Cd"}, "9": {"label": "*0", "atom_type": "Cs"}, "10": {"label": "*1", "atom_type": "Cs"}, "23": {"label": "*2", "atom_type": "H0"}}

>  <type>  (8) 
unop_4

>  <geom_source>  (8) 
Heuristics

$$$$

     RDKit          3D

 30 30  0  0  0  0  0  0  0  0999 V2000
    0.1649    3.6281    0.7973 C   0  0  0  0  0  0  0  0  0  0  0  0
    0.0294    4.6828    0.0124 C   0  0  0  0  0  0  0  0  0  0  0  0
   -0.1277    3.6545    1.8404 H   0  0  0  0  0  0  0  0  0  0  0  0
   -0.3797    5.6164    0.3804 H   0  0  0  0  0  0  0  0  0  0  0  0
    0.3219    4.6565   -1.0307 H   0  0  0  0  0  0  0  0  0  0  0  0
   -1.0228   -2.9011   -0.8538 C   0  0  0  0  0  0  0  0  0  0  0  0
   -1.0228   -2.9011    0.6768 C   0  0  0  0  0  0  0  0  0  0  0  0
    0.1203   -2.0647    1.2587 C   0  0  0  0  0  0  0  0  0  0  0  0
    0.0807   -0.6637    0.6746 C   0  0  0  0  0  0  0  0  0  0  0  0
    1.1997    0.3101    1.0301 C   0  0  0  0  0  0  0  0  0  0  0  0
    1.1498    1.3806   -0.0885 C   0  0  0  0  0  3  0  0  0  0  0  0
    0.2563    0.7888   -1.2072 C   0  0  0  0  0  0  0  0  0  0  0  0
    0.1312   -0.6894   -0.8517 C   0  0  0  0  0  0  0  0  0  0  0  0
   -1.0228   -1.4847   -1.4358 C   0  0  0  0  0  0  0  0  0  0  0  0
   -0.1304   -3.4279   -1.2098 H   0  0  0  0  0  0  0  0  0  0  0  0
   -1.8837   -3.4622   -1.2246 H   0  0  0  0  0  0  0  0  0  0  0  0
   -1.9749   -2.4919    1.0327 H   0  0  0  0  0  0  0  0  0  0  0  0
   -0.9673   -3.9272    1.0475 H   0  0  0  0  0  0  0  0  0  0  0  0
    0.0531   -2.0388    2.3496 H   0  0  0  0  0  0  0  0  0  0  0  0
    1.0818   -2.5298    1.0107 H   0  0  0  0  0  0  0  0  0  0  0  0
   -0.8781   -0.2049    0.9572 H   0  0  0  0  0  0  0  0  0  0  0  0
    1.0909    0.7380    2.0275 H   0  0  0  0  0  0  0  0  0  0  0  0
    2.1574   -0.2185    1.0097 H   0  0  0  0  0  0  0  0  0  0  0  0
    0.6558    2.5079    0.3558 H   0  0  0  0  0  0  0  0  0  0  0  0
    2.1510    1.6031   -0.4588 H   0  0  0  0  0  0  0  0  0  0  0  0
    0.6659    0.9536   -2.2046 H   0  0  0  0  0  0  0  0  0  0  0  0
   -0.7357    1.2495   -1.1867 H   0  0  0  0  0  0  0  0  0  0  0  0
    1.0677   -1.1922   -1.1343 H   0  0  0  0  0  0  0  0  0  0  0  0
   -0.9622   -1.5236   -2.5267 H   0  0  0  0  0  0  0  0  0  0  0  0
   -1.9660   -0.9833   -1.1878 H   0  0  0  0  0  0  0  0  0  0  0  0
  1  2  2  3
  1  3  1  0
  1 24  1  0
  2  4  1  0
  2  5  1  0
  6  7  1  0
  6 14  1  0
  6 15  1  0
  6 16  1  0
  7  8  1  0
  7 17  1  0
  7 18  1  0
  8  9  1  0
  8 19  1  0
  8 20  1  0
  9 10  1  0
  9 13  1  0
  9 21  1  0
 10 11  1  0
 10 22  1  0
 10 23  1  0
 11 12  1  0
 11 25  1  0
 12 13  1  0
 12 26  1  0
 12 27  1  0
 13 14  1  0
 13 28  1  0
 14 29  1  0
 14 30  1  0
M  RAD  1  11   2
M  END
>  <reaction>  (9) 
rxn_616

>  <mol_properties>  (9) 
{"0": {"label": "*3", "atom_type": "Cd"}, "1": {"label": "*4", "atom_type": "Cd"}, "9": {"label": "*0", "atom_type": "Cs"}, "10": {"label": "*1", "atom_type": "Cs"}, "23": {"label": "*2", "atom_type": "H0"}}

>  <type>  (9) 
unop_5

>  <geom_source>  (9) 
Heuristics

$$$$

     RDKit          3D

 30 30  0  0  0  0  0  0  0  0999 V2000
    0.2723    3.7020    0.7332 C   0  0  0  0  0  0  0  0  0  0  0  0
   -1.0238    3.9569    0.6872 C   0  0  0  0  0  0  0  0  0  0  0  0
    1.0091    4.4552    0.4800 H   0  0  0  0  0  0  0  0  0  0  0  0
   -1.4018    4.9294    0.3944 H   0  0  0  0  0  0  0  0  0  0  0  0
   -1.7606    3.2037    0.9404 H   0  0  0  0  0  0  0  0  0  0  0  0
   -0.9154   -2.8272   -0.9180 C   0  0  0  0  0  0  0  0  0  0  0  0
   -0.9154   -2.8272    0.6126 C   0  0  0  0  0  0  0  0  0  0  0  0
    0.2277   -1.9908    1.1946 C   0  0  0  0  0  0  0  0  0  0  0  0
    0.1881   -0.5898    0.6105 C   0  0  0  0  0  0  0  0  0  0  0  0
    1.3072    0.3840    0.9660 C   0  0  0  0  0  0  0  0  0  0  0  0
    1.2572    1.4545   -0.1527 C   0  0  0  0  0  3  0  0  0  0  0  0
    0.3637    0.8627   -1.2713 C   0  0  0  0  0  0  0  0  0  0  0  0
    0.2386   -0.6155   -0.9158 C   0  0  0  0  0  0  0  0  0  0  0  0
   -0.9154   -1.4108   -1.4999 C   0  0  0  0  0  0  0  0  0  0  0  0
   -0.0230   -3.3540   -1.2739 H   0  0  0  0  0  0  0  0  0  0  0  0
   -1.7763   -3.3883   -1.2887 H   0  0  0  0  0  0  0  0  0  0  0  0
   -1.8675   -2.4180    0.9686 H   0  0  0  0  0  0  0  0  0  0  0  0
   -0.8599   -3.8533    0.9834 H   0  0  0  0  0  0  0  0  0  0  0  0
    0.1605   -1.9649    2.2855 H   0  0  0  0  0  0  0  0  0  0  0  0
    1.1892   -2.4559    0.9466 H   0  0  0  0  0  0  0  0  0  0  0  0
   -0.7707   -0.1310    0.8931 H   0  0  0  0  0  0  0  0  0  0  0  0
    1.1983    0.8119    1.9634 H   0  0  0  0  0  0  0  0  0  0  0  0
    2.2648   -0.1446    0.9455 H   0  0  0  0  0  0  0  0  0  0  0  0
    0.7632    2.5818    0.2917 H   0  0  0  0  0  0  0  0  0  0  0  0
    2.2584    1.6770   -0.5229 H   0  0  0  0  0  0  0  0  0  0  0  0
    0.7733    1.0275   -2.2687 H   0  0  0  0  0  0  0  0  0  0  0  0
   -0.6283    1.3234   -1.2509 H   0  0  0  0  0  0  0  0  0  0  0  0
    1.1751   -1.1183   -1.1984 H   0  0  0  0  0  0  0  0  0  0  0  0
   -0.8548   -1.4497   -2.5908 H   0  0  0  0  0  0  0  0  0  0  0  0
   -1.8586   -0.9094   -1.2519 H   0  0  0  0  0  0  0  0  0  0  0  0
  1  2  2  3
  1  3  1  0
  1 24  1  0
  2  4  1  0
  2  5  1  0
  6  7  1  0
  6 14  1  0
  6 15  1  0
  6 16  1  0
  7  8  1  0
  7 17  1  0
  7 18  1  0
  8  9  1  0
  8 19  1  0
  8 20  1  0
  9 10  1  0
  9 13  1  0
  9 21  1  0
 10 11  1  0
 10 22  1  0
 10 23  1  0
 11 12  1  0
 11 25  1  0
 12 13  1  0
 12 26  1  0
 12 27  1  0
 13 14  1  0
 13 28  1  0
 14 29  1  0
 14 30  1  0
M  RAD  1  11   2
M  END
>  <reaction>  (10) 
rxn_616

>  <mol_properties>  (10) 
{"0": {"label": "*3", "atom_type": "Cd"}, "1": {"label": "*4", "atom_type": "Cd"}, "9": {"label": "*0", "atom_type": "Cs"}, "10": {"label": "*1", "atom_type": "Cs"}, "23": {"label": "*2", "atom_type": "H0"}}

>  <type>  (10) 
unop_6

>  <geom_source>  (10) 
Heuristics

$$$$

     RDKit          3D

 30 30  0  0  0  0  0  0  0  0999 V2000
    0.2515    3.6760    0.7767 C   0  0  0  0  0  0  0  0  0  0  0  0
   -0.8429    4.2055    0.2582 C   0  0  0  0  0  0  0  0  0  0  0  0
    1.1327    4.2741    0.9763 H   0  0  0  0  0  0  0  0  0  0  0  0
   -0.9029    5.2591    0.0119 H   0  0  0  0  0  0  0  0  0  0  0  0
   -1.7242    3.6074    0.0586 H   0  0  0  0  0  0  0  0  0  0  0  0
   -0.9362   -2.8532   -0.8745 C   0  0  0  0  0  0  0  0  0  0  0  0
   -0.9362   -2.8532    0.6561 C   0  0  0  0  0  0  0  0  0  0  0  0
    0.2069   -2.0168    1.2381 C   0  0  0  0  0  0  0  0  0  0  0  0
    0.1673   -0.6158    0.6540 C   0  0  0  0  0  0  0  0  0  0  0  0
    1.2863    0.3580    1.0095 C   0  0  0  0  0  0  0  0  0  0  0  0
    1.2364    1.4285   -0.1092 C   0  0  0  0  0  3  0  0  0  0  0  0
    0.3429    0.8367   -1.2278 C   0  0  0  0  0  0  0  0  0  0  0  0
    0.2178   -0.6415   -0.8723 C   0  0  0  0  0  0  0  0  0  0  0  0
   -0.9362   -1.4368   -1.4564 C   0  0  0  0  0  0  0  0  0  0  0  0
   -0.0438   -3.3800   -1.2304 H   0  0  0  0  0  0  0  0  0  0  0  0
   -1.7971   -3.4143   -1.2452 H   0  0  0  0  0  0  0  0  0  0  0  0
   -1.8884   -2.4440    1.0121 H   0  0  0  0  0  0  0  0  0  0  0  0
   -0.8807   -3.8793    1.0269 H   0  0  0  0  0  0  0  0  0  0  0  0
    0.1396   -1.9909    2.3290 H   0  0  0  0  0  0  0  0  0  0  0  0
    1.1684   -2.4819    0.9901 H   0  0  0  0  0  0  0  0  0  0  0  0
   -0.7915   -0.1570    0.9366 H   0  0  0  0  0  0  0  0  0  0  0  0
    1.1775    0.7859    2.0069 H   0  0  0  0  0  0  0  0  0  0  0  0
    2.2440   -0.1706    0.9890 H   0  0  0  0  0  0  0  0  0  0  0  0
    0.7424    2.5558    0.3352 H   0  0  0  0  0  0  0  0  0  0  0  0
    2.2376    1.6510   -0.4794 H   0  0  0  0  0  0  0  0  0  0  0  0
    0.7525    1.0015   -2.2252 H   0  0  0  0  0  0  0  0  0  0  0  0
   -0.6491    1.2974   -1.2074 H   0  0  0  0  0  0  0  0  0  0  0  0
    1.1543   -1.1443   -1.1549 H   0  0  0  0  0  0  0  0  0  0  0  0
   -0.8756   -1.4757   -2.5473 H   0  0  0  0  0  0  0  0  0  0  0  0
   -1.8794   -0.9354   -1.2084 H   0  0  0  0  0  0  0  0  0  0  0  0
  1  2  2  3
  1  3  1  0
  1 24  1  0
  2  4  1  0
  2  5  1  0
  6  7  1  0
  6 14  1  0
  6 15  1  0
  6 16  1  0
  7  8  1  0
  7 17  1  0
  7 18  1  0
  8  9  1  0
  8 19  1  0
  8 20  1  0
  9 10  1  0
  9 13  1  0
  9 21  1  0
 10 11  1  0
 10 22  1  0
 10 23  1  0
 11 12  1  0
 11 25  1  0
 12 13  1  0
 12 26  1  0
 12 27  1  0
 13 14  1  0
 13 28  1  0
 14 29  1  0
 14 30  1  0
M  RAD  1  11   2
M  END
>  <reaction>  (11) 
rxn_616

>  <mol_properties>  (11) 
{"0": {"label": "*3", "atom_type": "Cd"}, "1": {"label": "*4", "atom_type": "Cd"}, "9": {"label": "*0", "atom_type": "Cs"}, "10": {"label": "*1", "atom_type": "Cs"}, "23": {"label": "*2", "atom_type": "H0"}}

>  <type>  (11) 
unop_7

>  <geom_source>  (11) 
Heuristics

$$$$

     RDKit          3D

 30 30  0  0  0  0  0  0  0  0999 V2000
    0.0789    3.6380    0.6806 C   0  0  0  0  0  0  0  0  0  0  0  0
    0.8516    4.5776    1.1975 C   0  0  0  0  0  0  0  0  0  0  0  0
   -0.7341    3.8783    0.0057 H   0  0  0  0  0  0  0  0  0  0  0  0
    0.7030    5.6260    0.9671 H   0  0  0  0  0  0  0  0  0  0  0  0
    1.6646    4.3374    1.8723 H   0  0  0  0  0  0  0  0  0  0  0  0
   -1.1088   -2.8912   -0.9706 C   0  0  0  0  0  0  0  0  0  0  0  0
   -1.1088   -2.8912    0.5600 C   0  0  0  0  0  0  0  0  0  0  0  0
    0.0344   -2.0548    1.1420 C   0  0  0  0  0  0  0  0  0  0  0  0
   -0.0053   -0.6538    0.5579 C   0  0  0  0  0  0  0  0  0  0  0  0
    1.1138    0.3200    0.9134 C   0  0  0  0  0  0  0  0  0  0  0  0
    1.0638    1.3905   -0.2053 C   0  0  0  0  0  3  0  0  0  0  0  0
    0.1703    0.7987   -1.3239 C   0  0  0  0  0  0  0  0  0  0  0  0
    0.0453   -0.6795   -0.9684 C   0  0  0  0  0  0  0  0  0  0  0  0
   -1.1088   -1.4748   -1.5526 C   0  0  0  0  0  0  0  0  0  0  0  0
   -0.2163   -3.4180   -1.3265 H   0  0  0  0  0  0  0  0  0  0  0  0
   -1.9696   -3.4523   -1.3413 H   0  0  0  0  0  0  0  0  0  0  0  0
   -2.0609   -2.4820    0.9160 H   0  0  0  0  0  0  0  0  0  0  0  0
   -1.0532   -3.9173    0.9308 H   0  0  0  0  0  0  0  0  0  0  0  0
   -0.0329   -2.0289    2.2329 H   0  0  0  0  0  0  0  0  0  0  0  0
    0.9959   -2.5199    0.8940 H   0  0  0  0  0  0  0  0  0  0  0  0
   -0.9640   -0.1950    0.8404 H   0  0  0  0  0  0  0  0  0  0  0  0
    1.0050    0.7479    1.9108 H   0  0  0  0  0  0  0  0  0  0  0  0
    2.0714   -0.2086    0.8929 H   0  0  0  0  0  0  0  0  0  0  0  0
    0.5698    2.5178    0.2391 H   0  0  0  0  0  0  0  0  0  0  0  0
    2.0650    1.6130   -0.5755 H   0  0  0  0  0  0  0  0  0  0  0  0
    0.5800    0.9636   -2.3213 H   0  0  0  0  0  0  0  0  0  0  0  0
   -0.8217    1.2594   -1.3035 H   0  0  0  0  0  0  0  0  0  0  0  0
    0.9817   -1.1823   -1.2510 H   0  0  0  0  0  0  0  0  0  0  0  0
   -1.0481   -1.5137   -2.6434 H   0  0  0  0  0  0  0  0  0  0  0  0
   -2.0519   -0.9734   -1.3045 H   0  0  0  0  0  0  0  0  0  0  0  0
  1  2  2  3
  1  3  1  0
  1 24  1  0
  2  4  1  0
  2  5  1  0
  6  7  1  0
  6 14  1  0
  6 15  1  0
  6 16  1  0
  7  8  1  0
  7 17  1  0
  7 18  1  0
  8  9  1  0
  8 19  1  0
  8 20  1  0
  9 10  1  0
  9 13  1  0
  9 21  1  0
 10 11  1  0
 10 22  1  0
 10 23  1  0
 11 12  1  0
 11 25  1  0
 12 13  1  0
 12 26  1  0
 12 27  1  0
 13 14  1  0
 13 28  1  0
 14 29  1  0
 14 30  1  0
M  RAD  1  11   2
M  END
>  <reaction>  (12) 
rxn_616

>  <mol_properties>  (12) 
{"0": {"label": "*3", "atom_type": "Cd"}, "1": {"label": "*4", "atom_type": "Cd"}, "9": {"label": "*0", "atom_type": "Cs"}, "10": {"label": "*1", "atom_type": "Cs"}, "23": {"label": "*2", "atom_type": "H0"}}

>  <type>  (12) 
unop_8

>  <geom_source>  (12) 
Heuristics

$$$$

     RDKit          3D

 30 30  0  0  0  0  0  0  0  0999 V2000
    0.2361    3.7235    0.6351 C   0  0  0  0  0  0  0  0  0  0  0  0
   -0.6522    3.7534    1.6134 C   0  0  0  0  0  0  0  0  0  0  0  0
    0.3840    4.5706   -0.0244 H   0  0  0  0  0  0  0  0  0  0  0  0
   -1.2682    4.6262    1.7954 H   0  0  0  0  0  0  0  0  0  0  0  0
   -0.8001    2.9064    2.2729 H   0  0  0  0  0  0  0  0  0  0  0  0
   -0.9516   -2.8057   -1.0161 C   0  0  0  0  0  0  0  0  0  0  0  0
   -0.9516   -2.8057    0.5145 C   0  0  0  0  0  0  0  0  0  0  0  0
    0.1915   -1.9693    1.0965 C   0  0  0  0  0  0  0  0  0  0  0  0
    0.1519   -0.5683    0.5124 C   0  0  0  0  0  0  0  0  0  0  0  0
    1.2709    0.4055    0.8678 C   0  0  0  0  0  0  0  0  0  0  0  0
    1.2210    1.4761   -0.2508 C   0  0  0  0  0  3  0  0  0  0  0  0
    0.3275    0.8842   -1.3694 C   0  0  0  0  0  0  0  0  0  0  0  0
    0.2024   -0.5939   -1.0140 C   0  0  0  0  0  0  0  0  0  0  0  0
   -0.9516   -1.3892   -1.5981 C   0  0  0  0  0  0  0  0  0  0  0  0
   -0.0592   -3.3325   -1.3720 H   0  0  0  0  0  0  0  0  0  0  0  0
   -1.8125   -3.3668   -1.3868 H   0  0  0  0  0  0  0  0  0  0  0  0
   -1.9038   -2.3965    0.8704 H   0  0  0  0  0  0  0  0  0  0  0  0
   -0.8961   -3.8318    0.8852 H   0  0  0  0  0  0  0  0  0  0  0  0
    0.1242   -1.9433    2.1873 H   0  0  0  0  0  0  0  0  0  0  0  0
    1.1530   -2.4344    0.8484 H   0  0  0  0  0  0  0  0  0  0  0  0
   -0.8069   -0.1094    0.7949 H   0  0  0  0  0  0  0  0  0  0  0  0
    1.1621    0.8334    1.8652 H   0  0  0  0  0  0  0  0  0  0  0  0
    2.2285   -0.1231    0.8474 H   0  0  0  0  0  0  0  0  0  0  0  0
    0.7270    2.6033    0.1935 H   0  0  0  0  0  0  0  0  0  0  0  0
    2.2222    1.6985   -0.6211 H   0  0  0  0  0  0  0  0  0  0  0  0
    0.7371    1.0491   -2.3669 H   0  0  0  0  0  0  0  0  0  0  0  0
   -0.6646    1.3450   -1.3490 H   0  0  0  0  0  0  0  0  0  0  0  0
    1.1389   -1.0968   -1.2965 H   0  0  0  0  0  0  0  0  0  0  0  0
   -0.8910   -1.4282   -2.6889 H   0  0  0  0  0  0  0  0  0  0  0  0
   -1.8948   -0.8879   -1.3501 H   0  0  0  0  0  0  0  0  0  0  0  0
  1  2  2  3
  1  3  1  0
  1 24  1  0
  2  4  1  0
  2  5  1  0
  6  7  1  0
  6 14  1  0
  6 15  1  0
  6 16  1  0
  7  8  1  0
  7 17  1  0
  7 18  1  0
  8  9  1  0
  8 19  1  0
  8 20  1  0
  9 10  1  0
  9 13  1  0
  9 21  1  0
 10 11  1  0
 10 22  1  0
 10 23  1  0
 11 12  1  0
 11 25  1  0
 12 13  1  0
 12 26  1  0
 12 27  1  0
 13 14  1  0
 13 28  1  0
 14 29  1  0
 14 30  1  0
M  RAD  1  11   2
M  END
>  <reaction>  (13) 
rxn_616

>  <mol_properties>  (13) 
{"0": {"label": "*3", "atom_type": "Cd"}, "1": {"label": "*4", "atom_type": "Cd"}, "9": {"label": "*0", "atom_type": "Cs"}, "10": {"label": "*1", "atom_type": "Cs"}, "23": {"label": "*2", "atom_type": "H0"}}

>  <type>  (13) 
unop_9

>  <geom_source>  (13) 
Heuristics

$$$$

     RDKit          3D

 30 30  0  0  0  0  0  0  0  0999 V2000
    0.0969    3.6633    0.6349 C   0  0  0  0  0  0  0  0  0  0  0  0
    0.6678    4.3283    1.6242 C   0  0  0  0  0  0  0  0  0  0  0  0
   -0.4274    4.1732   -0.1647 H   0  0  0  0  0  0  0  0  0  0  0  0
    0.6346    5.4102    1.6755 H   0  0  0  0  0  0  0  0  0  0  0  0
    1.1921    3.8183    2.4238 H   0  0  0  0  0  0  0  0  0  0  0  0
   -1.0908   -2.8659   -1.0163 C   0  0  0  0  0  0  0  0  0  0  0  0
   -1.0908   -2.8659    0.5143 C   0  0  0  0  0  0  0  0  0  0  0  0
    0.0523   -2.0296    1.0963 C   0  0  0  0  0  0  0  0  0  0  0  0
    0.0127   -0.6286    0.5122 C   0  0  0  0  0  0  0  0  0  0  0  0
    1.1317    0.3452    0.8677 C   0  0  0  0  0  0  0  0  0  0  0  0
    1.0818    1.4158   -0.2510 C   0  0  0  0  0  3  0  0  0  0  0  0
    0.1883    0.8239   -1.3696 C   0  0  0  0  0  0  0  0  0  0  0  0
    0.0632   -0.6542   -1.0141 C   0  0  0  0  0  0  0  0  0  0  0  0
   -1.0908   -1.4495   -1.5982 C   0  0  0  0  0  0  0  0  0  0  0  0
   -0.1984   -3.3928   -1.3722 H   0  0  0  0  0  0  0  0  0  0  0  0
   -1.9517   -3.4270   -1.3870 H   0  0  0  0  0  0  0  0  0  0  0  0
   -2.0430   -2.4568    0.8703 H   0  0  0  0  0  0  0  0  0  0  0  0
   -1.0353   -3.8920    0.8851 H   0  0  0  0  0  0  0  0  0  0  0  0
   -0.0150   -2.0036    2.1872 H   0  0  0  0  0  0  0  0  0  0  0  0
    1.0138   -2.4947    0.8483 H   0  0  0  0  0  0  0  0  0  0  0  0
   -0.9461   -0.1697    0.7948 H   0  0  0  0  0  0  0  0  0  0  0  0
    1.0229    0.7732    1.8651 H   0  0  0  0  0  0  0  0  0  0  0  0
    2.0894   -0.1833    0.8472 H   0  0  0  0  0  0  0  0  0  0  0  0
    0.5878    2.5430    0.1934 H   0  0  0  0  0  0  0  0  0  0  0  0
    2.0830    1.6382   -0.6212 H   0  0  0  0  0  0  0  0  0  0  0  0
    0.5979    0.9888   -2.3670 H   0  0  0  0  0  0  0  0  0  0  0  0
   -0.8037    1.2847   -1.3492 H   0  0  0  0  0  0  0  0  0  0  0  0
    0.9997   -1.1570   -1.2967 H   0  0  0  0  0  0  0  0  0  0  0  0
   -1.0302   -1.4885   -2.6891 H   0  0  0  0  0  0  0  0  0  0  0  0
   -2.0340   -0.9482   -1.3502 H   0  0  0  0  0  0  0  0  0  0  0  0
  1  2  2  3
  1  3  1  0
  1 24  1  0
  2  4  1  0
  2  5  1  0
  6  7  1  0
  6 14  1  0
  6 15  1  0
  6 16  1  0
  7  8  1  0
  7 17  1  0
  7 18  1  0
  8  9  1  0
  8 19  1  0
  8 20  1  0
  9 10  1  0
  9 13  1  0
  9 21  1  0
 10 11  1  0
 10 22  1  0
 10 23  1  0
 11 12  1  0
 11 25  1  0
 12 13  1  0
 12 26  1  0
 12 27  1  0
 13 14  1  0
 13 28  1  0
 14 29  1  0
 14 30  1  0
M  RAD  1  11   2
M  END
>  <reaction>  (14) 
rxn_616

>  <mol_properties>  (14) 
{"0": {"label": "*3", "atom_type": "Cd"}, "1": {"label": "*4", "atom_type": "Cd"}, "9": {"label": "*0", "atom_type": "Cs"}, "10": {"label": "*1", "atom_type": "Cs"}, "23": {"label": "*2", "atom_type": "H0"}}

>  <type>  (14) 
unop_10

>  <geom_source>  (14) 
Heuristics

$$$$

     RDKit          3D

 30 30  0  0  0  0  0  0  0  0999 V2000
    0.2111    3.6487    0.7996 C   0  0  0  0  0  0  0  0  0  0  0  0
   -0.4586    4.4710    0.0106 C   0  0  0  0  0  0  0  0  0  0  0  0
    0.8808    4.0173    1.5675 H   0  0  0  0  0  0  0  0  0  0  0  0
   -0.3647    5.5468    0.1000 H   0  0  0  0  0  0  0  0  0  0  0  0
   -1.1284    4.1024   -0.7573 H   0  0  0  0  0  0  0  0  0  0  0  0
   -0.9766   -2.8805   -0.8516 C   0  0  0  0  0  0  0  0  0  0  0  0
   -0.9766   -2.8805    0.6790 C   0  0  0  0  0  0  0  0  0  0  0  0
    0.1665   -2.0441    1.2610 C   0  0  0  0  0  0  0  0  0  0  0  0
    0.1269   -0.6431    0.6769 C   0  0  0  0  0  0  0  0  0  0  0  0
    1.2459    0.3307    1.0323 C   0  0  0  0  0  0  0  0  0  0  0  0
    1.1960    1.4012   -0.0863 C   0  0  0  0  0  3  0  0  0  0  0  0
    0.3025    0.8094   -1.2049 C   0  0  0  0  0  0  0  0  0  0  0  0
    0.1774   -0.6688   -0.8495 C   0  0  0  0  0  0  0  0  0  0  0  0
   -0.9766   -1.4641   -1.4336 C   0  0  0  0  0  0  0  0  0  0  0  0
   -0.0842   -3.4073   -1.2075 H   0  0  0  0  0  0  0  0  0  0  0  0
   -1.8375   -3.4416   -1.2223 H   0  0  0  0  0  0  0  0  0  0  0  0
   -1.9288   -2.4713    1.0349 H   0  0  0  0  0  0  0  0  0  0  0  0
   -0.9211   -3.9066    1.0497 H   0  0  0  0  0  0  0  0  0  0  0  0
    0.0992   -2.0182    2.3518 H   0  0  0  0  0  0  0  0  0  0  0  0
    1.1280   -2.5092    1.0129 H   0  0  0  0  0  0  0  0  0  0  0  0
   -0.8319   -0.1843    0.9594 H   0  0  0  0  0  0  0  0  0  0  0  0
    1.1371    0.7586    2.0297 H   0  0  0  0  0  0  0  0  0  0  0  0
    2.2035   -0.1979    1.0119 H   0  0  0  0  0  0  0  0  0  0  0  0
    0.7020    2.5285    0.3580 H   0  0  0  0  0  0  0  0  0  0  0  0
    2.1972    1.6237   -0.4566 H   0  0  0  0  0  0  0  0  0  0  0  0
    0.7121    0.9742   -2.2024 H   0  0  0  0  0  0  0  0  0  0  0  0
   -0.6896    1.2701   -1.1845 H   0  0  0  0  0  0  0  0  0  0  0  0
    1.1139   -1.1716   -1.1320 H   0  0  0  0  0  0  0  0  0  0  0  0
   -0.9160   -1.5030   -2.5245 H   0  0  0  0  0  0  0  0  0  0  0  0
   -1.9198   -0.9627   -1.1856 H   0  0  0  0  0  0  0  0  0  0  0  0
  1  2  2  3
  1  3  1  0
  1 24  1  0
  2  4  1  0
  2  5  1  0
  6  7  1  0
  6 14  1  0
  6 15  1  0
  6 16  1  0
  7  8  1  0
  7 17  1  0
  7 18  1  0
  8  9  1  0
  8 19  1  0
  8 20  1  0
  9 10  1  0
  9 13  1  0
  9 21  1  0
 10 11  1  0
 10 22  1  0
 10 23  1  0
 11 12  1  0
 11 25  1  0
 12 13  1  0
 12 26  1  0
 12 27  1  0
 13 14  1  0
 13 28  1  0
 14 29  1  0
 14 30  1  0
M  RAD  1  11   2
M  END
>  <reaction>  (15) 
rxn_616

>  <mol_properties>  (15) 
{"0": {"label": "*3", "atom_type": "Cd"}, "1": {"label": "*4", "atom_type": "Cd"}, "9": {"label": "*0", "atom_type": "Cs"}, "10": {"label": "*1", "atom_type": "Cs"}, "23": {"label": "*2", "atom_type": "H0"}}

>  <type>  (15) 
unop_11

>  <geom_source>  (15) 
Heuristics

$$$$

     RDKit          3D

 30 30  0  0  0  0  0  0  0  0999 V2000
    0.1883    3.7129    0.6081 C   0  0  0  0  0  0  0  0  0  0  0  0
   -0.1997    3.8527    1.8638 C   0  0  0  0  0  0  0  0  0  0  0  0
    0.1129    4.5263   -0.1040 H   0  0  0  0  0  0  0  0  0  0  0  0
   -0.6087    4.7863    2.2318 H   0  0  0  0  0  0  0  0  0  0  0  0
   -0.1242    3.0394    2.5759 H   0  0  0  0  0  0  0  0  0  0  0  0
   -0.9994   -2.8163   -1.0431 C   0  0  0  0  0  0  0  0  0  0  0  0
   -0.9994   -2.8163    0.4875 C   0  0  0  0  0  0  0  0  0  0  0  0
    0.1437   -1.9799    1.0695 C   0  0  0  0  0  0  0  0  0  0  0  0
    0.1041   -0.5789    0.4854 C   0  0  0  0  0  0  0  0  0  0  0  0
    1.2232    0.3949    0.8409 C   0  0  0  0  0  0  0  0  0  0  0  0
    1.1732    1.4655   -0.2778 C   0  0  0  0  0  3  0  0  0  0  0  0
    0.2797    0.8736   -1.3964 C   0  0  0  0  0  0  0  0  0  0  0  0
    0.1546   -0.6045   -1.0410 C   0  0  0  0  0  0  0  0  0  0  0  0
   -0.9994   -1.3998   -1.6251 C   0  0  0  0  0  0  0  0  0  0  0  0
   -0.1070   -3.3431   -1.3990 H   0  0  0  0  0  0  0  0  0  0  0  0
   -1.8603   -3.3773   -1.4138 H   0  0  0  0  0  0  0  0  0  0  0  0
   -1.9515   -2.4071    0.8434 H   0  0  0  0  0  0  0  0  0  0  0  0
   -0.9439   -3.8423    0.8582 H   0  0  0  0  0  0  0  0  0  0  0  0
    0.0765   -1.9539    2.1604 H   0  0  0  0  0  0  0  0  0  0  0  0
    1.1052   -2.4450    0.8215 H   0  0  0  0  0  0  0  0  0  0  0  0
   -0.8547   -0.1200    0.7679 H   0  0  0  0  0  0  0  0  0  0  0  0
    1.1143    0.8228    1.8383 H   0  0  0  0  0  0  0  0  0  0  0  0
    2.1808   -0.1336    0.8204 H   0  0  0  0  0  0  0  0  0  0  0  0
    0.6792    2.5927    0.1665 H   0  0  0  0  0  0  0  0  0  0  0  0
    2.1744    1.6879   -0.6480 H   0  0  0  0  0  0  0  0  0  0  0  0
    0.6893    1.0385   -2.3938 H   0  0  0  0  0  0  0  0  0  0  0  0
   -0.7123    1.3344   -1.3760 H   0  0  0  0  0  0  0  0  0  0  0  0
    1.0911   -1.1074   -1.3235 H   0  0  0  0  0  0  0  0  0  0  0  0
   -0.9388   -1.4388   -2.7159 H   0  0  0  0  0  0  0  0  0  0  0  0
   -1.9426   -0.8985   -1.3770 H   0  0  0  0  0  0  0  0  0  0  0  0
  1  2  2  3
  1  3  1  0
  1 24  1  0
  2  4  1  0
  2  5  1  0
  6  7  1  0
  6 14  1  0
  6 15  1  0
  6 16  1  0
  7  8  1  0
  7 17  1  0
  7 18  1  0
  8  9  1  0
  8 19  1  0
  8 20  1  0
  9 10  1  0
  9 13  1  0
  9 21  1  0
 10 11  1  0
 10 22  1  0
 10 23  1  0
 11 12  1  0
 11 25  1  0
 12 13  1  0
 12 26  1  0
 12 27  1  0
 13 14  1  0
 13 28  1  0
 14 29  1  0
 14 30  1  0
M  RAD  1  11   2
M  END
>  <reaction>  (16) 
rxn_616

>  <mol_properties>  (16) 
{"0": {"label": "*3", "atom_type": "Cd"}, "1": {"label": "*4", "atom_type": "Cd"}, "9": {"label": "*0", "atom_type": "Cs"}, "10": {"label": "*1", "atom_type": "Cs"}, "23": {"label": "*2", "atom_type": "H0"}}

>  <type>  (16) 
unop_12

>  <geom_source>  (16) 
Heuristics

$$$$

     RDKit          3D

 30 30  0  0  0  0  0  0  0  0999 V2000
   -0.8349    0.1514   -0.8013 C   0  0  0  0  0  0  0  0  0  0  0  0
   -0.6369   -0.2223    0.6543 C   0  0  0  0  0  0  0  0  0  0  0  0
   -2.1658   -0.4182   -1.3314 C   0  0  0  0  0  0  0  0  0  0  0  0
   -1.6548    0.5153    1.5468 C   0  0  0  0  0  0  0  0  0  0  0  0
   -3.2753   -0.3959   -0.2464 C   0  0  0  0  0  0  0  0  0  0  0  0
   -3.0307    0.6701    0.8456 C   0  0  0  0  0  0  0  0  0  0  0  0
    0.4319   -0.3430   -1.4842 C   0  0  0  0  0  0  0  0  0  0  0  0
    0.8320    0.0777    0.9129 C   0  0  0  0  0  0  0  0  0  0  0  0
    1.5277   -0.2102   -0.4217 C   0  0  0  0  0  3  0  0  0  0  0  0
    5.0522    0.3021    0.0312 C   0  0  0  0  0  0  0  0  0  0  0  0
    4.0252   -0.5357    0.1475 C   0  0  0  0  0  0  0  0  0  0  0  0
   -0.8622    1.2636   -0.8928 H   0  0  0  0  0  0  0  0  0  0  0  0
   -0.7897   -1.3216    0.7739 H   0  0  0  0  0  0  0  0  0  0  0  0
   -2.0315   -1.4654   -1.6797 H   0  0  0  0  0  0  0  0  0  0  0  0
   -2.4887    0.1866   -2.2064 H   0  0  0  0  0  0  0  0  0  0  0  0
   -4.2604   -0.2133   -0.7275 H   0  0  0  0  0  0  0  0  0  0  0  0
   -3.3265   -1.3933    0.2432 H   0  0  0  0  0  0  0  0  0  0  0  0
   -3.0879    1.6752    0.3728 H   0  0  0  0  0  0  0  0  0  0  0  0
   -3.8413    0.6154    1.6040 H   0  0  0  0  0  0  0  0  0  0  0  0
   -1.7807   -0.0571    2.4914 H   0  0  0  0  0  0  0  0  0  0  0  0
   -1.2785    1.5263    1.8160 H   0  0  0  0  0  0  0  0  0  0  0  0
    0.6639    0.2608   -2.3882 H   0  0  0  0  0  0  0  0  0  0  0  0
    0.3416   -1.4143   -1.7653 H   0  0  0  0  0  0  0  0  0  0  0  0
    0.9765    1.1461    1.1874 H   0  0  0  0  0  0  0  0  0  0  0  0
    1.2402   -0.5728    1.7151 H   0  0  0  0  0  0  0  0  0  0  0  0
    2.2336    0.6099   -0.6775 H   0  0  0  0  0  0  0  0  0  0  0  0
    4.9663    1.1847   -0.5937 H   0  0  0  0  0  0  0  0  0  0  0  0
    5.9798    0.1077    0.5599 H   0  0  0  0  0  0  0  0  0  0  0  0
    4.1079   -1.4195    0.7718 H   0  0  0  0  0  0  0  0  0  0  0  0
    2.9669   -0.3104   -0.4580 H   0  0  0  0  0  0  0  0  0  0  0  0
  1  3  1  0
  1  7  1  0
  1  2  1  0
  1 12  1  0
  2  4  1  0
  2  8  1  0
  2 13  1  0
  3  5  1  0
  3 14  1  0
  3 15  1  0
  4  6  1  0
  4 20  1  0
  4 21  1  0
  5  6  1  0
  5 16  1  0
  5 17  1  0
  6 18  1  0
  6 19  1  0
  7  9  1  0
  7 22  1  0
  7 23  1  0
  8  9  1  0
  8 24  1  0
  8 25  1  0
  9 26  1  0
 10 11  2  3
 10 27  1  0
 10 28  1  0
 11 29  1  0
 11 30  1  0
M  RAD  1   9   2
M  END
>  <reaction>  (17) 
rxn_616

>  <mol_properties>  (17) 
{"0": {"label": "*3", "atom_type": "Cd"}, "1": {"label": "*4", "atom_type": "Cd"}, "9": {"label": "*0", "atom_type": "Cs"}, "10": {"label": "*1", "atom_type": "Cs"}, "23": {"label": "*2", "atom_type": "H0"}}

>  <type>  (17) 
unop_13

>  <geom_source>  (17) 
AutoTST

$$$$

     RDKit          3D

 30 30  0  0  0  0  0  0  0  0999 V2000
    0.1370    3.6908    0.6081 C   0  0  0  0  0  0  0  0  0  0  0  0
    0.2832    4.0630    1.8679 C   0  0  0  0  0  0  0  0  0  0  0  0
   -0.1355    4.3986   -0.1658 H   0  0  0  0  0  0  0  0  0  0  0  0
    0.1363    5.0910    2.1775 H   0  0  0  0  0  0  0  0  0  0  0  0
    0.5557    3.3552    2.6418 H   0  0  0  0  0  0  0  0  0  0  0  0
   -1.0507   -2.8384   -1.0431 C   0  0  0  0  0  0  0  0  0  0  0  0
   -1.0507   -2.8384    0.4875 C   0  0  0  0  0  0  0  0  0  0  0  0
    0.0924   -2.0021    1.0695 C   0  0  0  0  0  0  0  0  0  0  0  0
    0.0528   -0.6011    0.4854 C   0  0  0  0  0  0  0  0  0  0  0  0
    1.1719    0.3727    0.8409 C   0  0  0  0  0  0  0  0  0  0  0  0
    1.1219    1.4433   -0.2778 C   0  0  0  0  0  3  0  0  0  0  0  0
    0.2284    0.8514   -1.3964 C   0  0  0  0  0  0  0  0  0  0  0  0
    0.1034   -0.6267   -1.0409 C   0  0  0  0  0  0  0  0  0  0  0  0
   -1.0507   -1.4220   -1.6251 C   0  0  0  0  0  0  0  0  0  0  0  0
   -0.1583   -3.3653   -1.3990 H   0  0  0  0  0  0  0  0  0  0  0  0
   -1.9116   -3.3995   -1.4138 H   0  0  0  0  0  0  0  0  0  0  0  0
   -2.0028   -2.4293    0.8435 H   0  0  0  0  0  0  0  0  0  0  0  0
   -0.9951   -3.8645    0.8583 H   0  0  0  0  0  0  0  0  0  0  0  0
    0.0252   -1.9761    2.1604 H   0  0  0  0  0  0  0  0  0  0  0  0
    1.0540   -2.4672    0.8215 H   0  0  0  0  0  0  0  0  0  0  0  0
   -0.9060   -0.1422    0.7680 H   0  0  0  0  0  0  0  0  0  0  0  0
    1.0631    0.8007    1.8383 H   0  0  0  0  0  0  0  0  0  0  0  0
    2.1295   -0.1558    0.8204 H   0  0  0  0  0  0  0  0  0  0  0  0
    0.6279    2.5705    0.1666 H   0  0  0  0  0  0  0  0  0  0  0  0
    2.1231    1.6658   -0.6480 H   0  0  0  0  0  0  0  0  0  0  0  0
    0.6381    1.0163   -2.3938 H   0  0  0  0  0  0  0  0  0  0  0  0
   -0.7636    1.3122   -1.3760 H   0  0  0  0  0  0  0  0  0  0  0  0
    1.0398   -1.1295   -1.3235 H   0  0  0  0  0  0  0  0  0  0  0  0
   -0.9900   -1.4610   -2.7159 H   0  0  0  0  0  0  0  0  0  0  0  0
   -1.9938   -0.9207   -1.3770 H   0  0  0  0  0  0  0  0  0  0  0  0
  1  2  2  3
  1  3  1  0
  1 24  1  0
  2  4  1  0
  2  5  1  0
  6  7  1  0
  6 14  1  0
  6 15  1  0
  6 16  1  0
  7  8  1  0
  7 17  1  0
  7 18  1  0
  8  9  1  0
  8 19  1  0
  8 20  1  0
  9 10  1  0
  9 13  1  0
  9 21  1  0
 10 11  1  0
 10 22  1  0
 10 23  1  0
 11 12  1  0
 11 25  1  0
 12 13  1  0
 12 26  1  0
 12 27  1  0
 13 14  1  0
 13 28  1  0
 14 29  1  0
 14 30  1  0
M  RAD  1  11   2
M  END
>  <reaction>  (18) 
rxn_616

>  <mol_properties>  (18) 
{"0": {"label": "*3", "atom_type": "Cd"}, "1": {"label": "*4", "atom_type": "Cd"}, "9": {"label": "*0", "atom_type": "Cs"}, "10": {"label": "*1", "atom_type": "Cs"}, "23": {"label": "*2", "atom_type": "H0"}}

>  <type>  (18) 
unop_14

>  <geom_source>  (18) 
gaussian_log

$$$$
