
     RDKit          3D

  3  2  0  0  0  0  0  0  0  0999 V2000
   -0.0003    0.3867    0.0000 O   0  0  0  0  0  0  0  0  0  0  0  0
   -0.7617   -0.1940    0.0000 H   0  0  0  0  0  0  0  0  0  0  0  0
    0.7620   -0.1927    0.0000 H   0  0  0  0  0  0  0  0  0  0  0  0
  1  2  1  0
  1  3  1  0
M  END
>  <reaction>  (1) 
rxn_3120

>  <mol_properties>  (1) 
{"0": {"label": "donator", "atom_type": "O2s"}, "1": {"label": "d_hydrogen", "atom_type": "H0"}}

>  <type>  (1) 
r1h

$$$$

     RDKit          3D

  6  6  0  0  0  0  0  0  0  0999 V2000
    1.9594    0.0134   -0.3734 N   0  0  0  0  0  2  0  0  0  0  0  0
    0.7437    0.0051   -0.0788 C   0  0  0  0  0  0  0  0  0  0  0  0
   -0.0745    1.0868    0.0233 O   0  0  0  0  0  0  0  0  0  0  0  0
   -1.3223    0.5972    0.3682 N   0  0  0  0  0  0  0  0  0  0  0  0
   -1.2899   -0.6150    0.4676 N   0  0  0  0  0  0  0  0  0  0  0  0
   -0.0165   -1.0874    0.2015 O   0  0  0  0  0  0  0  0  0  0  0  0
  1  2  2  0
  2  3  1  0
  2  6  1  0
  3  4  1  0
  4  5  2  0
  5  6  1  0
M  RAD  1   1   2
M  END
>  <reaction>  (2) 
rxn_3120

>  <mol_properties>  (2) 
{"0": {"label": "acceptor", "atom_type": "N3d"}}

>  <type>  (2) 
r2

$$$$

     RDKit          3D

  7  7  0  0  0  0  0  0  0  0999 V2000
    1.6064   -0.4313    0.1905 N   0  0  0  0  0  0  0  0  0  0  0  0
    0.3982   -0.1725    0.0701 C   0  0  0  0  0  0  0  0  0  0  0  0
   -0.6051   -1.0481    0.3497 O   0  0  0  0  0  0  0  0  0  0  0  0
   -1.7906   -0.4044    0.0958 N   0  0  0  0  0  0  0  0  0  0  0  0
   -1.5819    0.7348   -0.2956 N   0  0  0  0  0  0  0  0  0  0  0  0
   -0.2229    0.9708   -0.3436 O   0  0  0  0  0  0  0  0  0  0  0  0
    2.1958    0.3506   -0.0669 H   0  0  0  0  0  0  0  0  0  0  0  0
  1  2  2  3
  1  7  1  0
  2  3  1  0
  2  6  1  0
  3  4  1  0
  4  5  2  0
  5  6  1  0
M  END
>  <reaction>  (3) 
rxn_3120

>  <mol_properties>  (3) 
{"0": {"label": "acceptor", "atom_type": "N3d"}, "6": {"label": "a_hydrogen", "atom_type": "H0"}}

>  <type>  (3) 
r2h

$$$$

     RDKit          3D

  9  8  0  0  0  0  0  0  0  0999 V2000
    0.0760   -0.7084    1.4099 N   0  0  0  0  0  0  0  0  0  0  0  0
    0.0135    0.0565    0.4275 C   0  0  0  0  0  0  0  0  0  0  0  0
    0.1719    1.4037    0.5100 O   0  0  0  0  0  0  0  0  0  0  0  0
    0.0459    1.9014   -0.7676 N   0  0  0  0  0  0  0  0  0  0  0  0
   -0.1631    0.9942   -1.5562 N   0  0  0  0  0  0  0  0  0  0  0  0
   -0.2010   -0.2145   -0.8869 O   0  0  0  0  0  0  0  0  0  0  0  0
   -0.3160   -2.8649    0.5071 O   0  0  0  0  0  1  0  0  0  0  0  0
   -0.1311   -1.7998    1.2129 H   0  0  0  0  0  0  0  0  0  0  0  0
    0.5038   -2.9787    0.0070 H   0  0  0  0  0  0  0  0  0  0  0  0
  1  2  2  3
  1  8  1  0
  2  3  1  0
  2  6  1  0
  3  4  1  0
  4  5  2  0
  5  6  1  0
  7  9  1  0
M  RAD  1   7   2
M  END
>  <reaction>  (4) 
rxn_3120

>  <mol_properties>  (4) 
{"0": {"label": "*1", "atom_type": "N3d"}, "1": {"label": "*0", "atom_type": "Cd"}, "6": {"label": "*3", "atom_type": "O2s"}, "7": {"label": "*2", "atom_type": "H0"}, "8": {"label": "*4", "atom_type": "H0"}}

>  <type>  (4) 
ts

$$$$

     RDKit          3D

  9  8  0  0  0  0  0  0  0  0999 V2000
    1.3224   -0.0499   -0.8315 N   0  0  0  0  0  2  0  0  0  0  0  0
    0.3283    0.2532   -0.1524 C   0  0  0  0  0  0  0  0  0  0  0  0
    0.3685    1.0402    0.9568 O   0  0  0  0  0  0  0  0  0  0  0  0
   -0.9164    1.1463    1.4282 N   0  0  0  0  0  0  0  0  0  0  0  0
   -1.6844    0.5129    0.7189 N   0  0  0  0  0  0  0  0  0  0  0  0
   -0.9847   -0.0868   -0.3086 O   0  0  0  0  0  0  0  0  0  0  0  0
    1.3224   -2.3287   -1.4605 O   0  0  0  0  0  0  0  0  0  0  0  0
    1.3224   -1.2210   -1.1548 H   0  0  0  0  0  0  0  0  0  0  0  0
    1.3224   -2.3287   -2.4181 H   0  0  0  0  0  0  0  0  0  0  0  0
  1  2  2  0
  2  3  1  0
  2  6  1  0
  3  4  1  0
  4  5  2  0
  5  6  1  0
  7  8  1  0
  7  9  1  0
M  RAD  1   1   2
M  END
>  <reaction>  (5) 
rxn_3120

>  <mol_properties>  (5) 
{"0": {"label": "*1", "atom_type": "N3d"}, "1": {"label": "*0", "atom_type": "Cd"}, "6": {"label": "*3", "atom_type": "O2s"}, "7": {"label": "*2", "atom_type": "H0"}, "8": {"label": "*4", "atom_type": "H0"}}

>  <type>  (5) 
unop_1

>  <geom_source>  (5) 
Heuristics

$$$$

     RDKit          3D

  9  8  0  0  0  0  0  0  0  0999 V2000
    0.7823   -0.6232    1.2139 N   0  0  0  0  0  2  0  0  0  0  0  0
    0.2083    0.0971    0.3814 C   0  0  0  0  0  0  0  0  0  0  0  0
   -0.2604    1.3474    0.6431 O   0  0  0  0  0  0  0  0  0  0  0  0
   -0.8264    1.8211   -0.5143 N   0  0  0  0  0  0  0  0  0  0  0  0
   -0.7358    0.9887   -1.4050 N   0  0  0  0  0  0  0  0  0  0  0  0
   -0.0940   -0.1367   -0.9292 O   0  0  0  0  0  0  0  0  0  0  0  0
    0.7823   -2.9020    0.5849 O   0  0  0  0  0  0  0  0  0  0  0  0
    0.7823   -1.7943    0.8906 H   0  0  0  0  0  0  0  0  0  0  0  0
    0.7823   -2.9020   -0.3727 H   0  0  0  0  0  0  0  0  0  0  0  0
  1  2  2  0
  2  3  1  0
  2  6  1  0
  3  4  1  0
  4  5  2  0
  5  6  1  0
  7  8  1  0
  7  9  1  0
M  RAD  1   1   2
M  END
>  <reaction>  (6) 
rxn_3120

>  <mol_properties>  (6) 
{"0": {"label": "*1", "atom_type": "N3d"}, "1": {"label": "*0", "atom_type": "Cd"}, "6": {"label": "*3", "atom_type": "O2s"}, "7": {"label": "*2", "atom_type": "H0"}, "8": {"label": "*4", "atom_type": "H0"}}

>  <type>  (6) 
unop_2

>  <geom_source>  (6) 
Heuristics

$$$$

     RDKit          3D

  9  8  0  0  0  0  0  0  0  0999 V2000
    0.7512    0.0921   -1.3625 N   0  0  0  0  0  2  0  0  0  0  0  0
    0.1772    0.2834   -0.2784 C   0  0  0  0  0  0  0  0  0  0  0  0
    0.5229    1.2529    0.6115 O   0  0  0  0  0  0  0  0  0  0  0  0
   -0.3342    1.1509    1.6789 N   0  0  0  0  0  0  0  0  0  0  0  0
   -1.1276    0.2378    1.5028 N   0  0  0  0  0  0  0  0  0  0  0  0
   -0.8795   -0.3693    0.2884 O   0  0  0  0  0  0  0  0  0  0  0  0
    0.7512   -2.1867   -1.9916 O   0  0  0  0  0  0  0  0  0  0  0  0
    0.7512   -1.0791   -1.6858 H   0  0  0  0  0  0  0  0  0  0  0  0
    0.7512   -2.1867   -2.9491 H   0  0  0  0  0  0  0  0  0  0  0  0
  1  2  2  0
  2  3  1  0
  2  6  1  0
  3  4  1  0
  4  5  2  0
  5  6  1  0
  7  8  1  0
  7  9  1  0
M  RAD  1   1   2
M  END
>  <reaction>  (7) 
rxn_3120

>  <mol_properties>  (7) 
{"0": {"label": "*1", "atom_type": "N3d"}, "1": {"label": "*0", "atom_type": "Cd"}, "6": {"label": "*3", "atom_type": "O2s"}, "7": {"label": "*2", "atom_type": "H0"}, "8": {"label": "*4", "atom_type": "H0"}}

>  <type>  (7) 
unop_3

>  <geom_source>  (7) 
Heuristics

$$$$

     RDKit          3D

  9  8  0  0  0  0  0  0  0  0999 V2000
   -1.3474   -0.4656    0.6595 N   0  0  0  0  0  2  0  0  0  0  0  0
   -0.3533    0.1429    0.2320 C   0  0  0  0  0  0  0  0  0  0  0  0
    0.2604    1.1651    0.8877 O   0  0  0  0  0  0  0  0  0  0  0  0
    1.3116    1.5775    0.1071 N   0  0  0  0  0  0  0  0  0  0  0  0
    1.3698    0.9112   -0.9162 N   0  0  0  0  0  0  0  0  0  0  0  0
    0.3539   -0.0231   -0.9239 O   0  0  0  0  0  0  0  0  0  0  0  0
   -1.3474   -2.7444    0.0304 O   0  0  0  0  0  0  0  0  0  0  0  0
   -1.3474   -1.6367    0.3362 H   0  0  0  0  0  0  0  0  0  0  0  0
   -1.3474   -2.7444   -0.9271 H   0  0  0  0  0  0  0  0  0  0  0  0
  1  2  2  0
  2  3  1  0
  2  6  1  0
  3  4  1  0
  4  5  2  0
  5  6  1  0
  7  8  1  0
  7  9  1  0
M  RAD  1   1   2
M  END
>  <reaction>  (8) 
rxn_3120

>  <mol_properties>  (8) 
{"0": {"label": "*1", "atom_type": "N3d"}, "1": {"label": "*0", "atom_type": "Cd"}, "6": {"label": "*3", "atom_type": "O2s"}, "7": {"label": "*2", "atom_type": "H0"}, "8": {"label": "*4", "atom_type": "H0"}}

>  <type>  (8) 
unop_4

>  <geom_source>  (8) 
Heuristics

$$$$

     RDKit          3D

  9  8  0  0  0  0  0  0  0  0999 V2000
    0.0000    0.1374   -1.5499 N   0  0  0  0  0  2  0  0  0  0  0  0
    0.0000    0.2878   -0.3175 C   0  0  0  0  0  0  0  0  0  0  0  0
   -0.0000    1.4965    0.3074 O   0  0  0  0  0  0  0  0  0  0  0  0
   -0.0000    1.2567    1.6590 N   0  0  0  0  0  0  0  0  0  0  0  0
   -0.0000    0.0542    1.8786 N   0  0  0  0  0  0  0  0  0  0  0  0
    0.0000   -0.6389    0.6850 O   0  0  0  0  0  0  0  0  0  0  0  0
    0.0000   -2.1414   -2.1789 O   0  0  0  0  0  0  0  0  0  0  0  0
    0.0000   -1.0337   -1.8731 H   0  0  0  0  0  0  0  0  0  0  0  0
    0.0000   -2.1414   -3.1364 H   0  0  0  0  0  0  0  0  0  0  0  0
  1  2  2  0
  2  3  1  0
  2  6  1  0
  3  4  1  0
  4  5  2  0
  5  6  1  0
  7  8  1  0
  7  9  1  0
M  RAD  1   1   2
M  END
>  <reaction>  (9) 
rxn_3120

>  <mol_properties>  (9) 
{"0": {"label": "*1", "atom_type": "N3d"}, "1": {"label": "*0", "atom_type": "Cd"}, "6": {"label": "*3", "atom_type": "O2s"}, "7": {"label": "*2", "atom_type": "H0"}, "8": {"label": "*4", "atom_type": "H0"}}

>  <type>  (9) 
unop_5

>  <geom_source>  (9) 
Heuristics

$$$$

     RDKit          3D

  9  8  0  0  0  0  0  0  0  0999 V2000
   -1.5436   -0.2549   -0.0907 N   0  0  0  0  0  2  0  0  0  0  0  0
   -0.3957    0.2009    0.0351 C   0  0  0  0  0  0  0  0  0  0  0  0
   -0.0066    1.0319    1.0399 O   0  0  0  0  0  0  0  0  0  0  0  0
    1.3214    1.3174    0.8416 N   0  0  0  0  0  0  0  0  0  0  0  0
    1.7354    0.7475   -0.1575 N   0  0  0  0  0  0  0  0  0  0  0  0
    0.7169    0.0160   -0.7342 O   0  0  0  0  0  0  0  0  0  0  0  0
   -1.5436   -2.5337   -0.7197 O   0  0  0  0  0  0  0  0  0  0  0  0
   -1.5436   -1.4261   -0.4140 H   0  0  0  0  0  0  0  0  0  0  0  0
   -1.5436   -2.5337   -1.6773 H   0  0  0  0  0  0  0  0  0  0  0  0
  1  2  2  0
  2  3  1  0
  2  6  1  0
  3  4  1  0
  4  5  2  0
  5  6  1  0
  7  8  1  0
  7  9  1  0
M  RAD  1   1   2
M  END
>  <reaction>  (10) 
rxn_3120

>  <mol_properties>  (10) 
{"0": {"label": "*1", "atom_type": "N3d"}, "1": {"label": "*0", "atom_type": "Cd"}, "6": {"label": "*3", "atom_type": "O2s"}, "7": {"label": "*2", "atom_type": "H0"}, "8": {"label": "*4", "atom_type": "H0"}}

>  <type>  (10) 
unop_6

>  <geom_source>  (10) 
Heuristics

$$$$

     RDKit          3D

  9  8  0  0  0  0  0  0  0  0999 V2000
   -1.3224   -0.0499   -0.8315 N   0  0  0  0  0  2  0  0  0  0  0  0
   -0.3283    0.2532   -0.1524 C   0  0  0  0  0  0  0  0  0  0  0  0
   -0.3685    1.0402    0.9568 O   0  0  0  0  0  0  0  0  0  0  0  0
    0.9164    1.1463    1.4282 N   0  0  0  0  0  0  0  0  0  0  0  0
    1.6844    0.5129    0.7189 N   0  0  0  0  0  0  0  0  0  0  0  0
    0.9847   -0.0868   -0.3086 O   0  0  0  0  0  0  0  0  0  0  0  0
   -1.3224   -2.3287   -1.4605 O   0  0  0  0  0  0  0  0  0  0  0  0
   -1.3224   -1.2210   -1.1548 H   0  0  0  0  0  0  0  0  0  0  0  0
   -1.3224   -2.3287   -2.4181 H   0  0  0  0  0  0  0  0  0  0  0  0
  1  2  2  0
  2  3  1  0
  2  6  1  0
  3  4  1  0
  4  5  2  0
  5  6  1  0
  7  8  1  0
  7  9  1  0
M  RAD  1   1   2
M  END
>  <reaction>  (11) 
rxn_3120

>  <mol_properties>  (11) 
{"0": {"label": "*1", "atom_type": "N3d"}, "1": {"label": "*0", "atom_type": "Cd"}, "6": {"label": "*3", "atom_type": "O2s"}, "7": {"label": "*2", "atom_type": "H0"}, "8": {"label": "*4", "atom_type": "H0"}}

>  <type>  (11) 
unop_7

>  <geom_source>  (11) 
Heuristics

$$$$

     RDKit          3D

  9  8  0  0  0  0  0  0  0  0999 V2000
    1.5436   -0.2549   -0.0907 N   0  0  0  0  0  2  0  0  0  0  0  0
    0.3957    0.2009    0.0351 C   0  0  0  0  0  0  0  0  0  0  0  0
    0.0066    1.0319    1.0399 O   0  0  0  0  0  0  0  0  0  0  0  0
   -1.3214    1.3174    0.8416 N   0  0  0  0  0  0  0  0  0  0  0  0
   -1.7354    0.7475   -0.1575 N   0  0  0  0  0  0  0  0  0  0  0  0
   -0.7169    0.0160   -0.7342 O   0  0  0  0  0  0  0  0  0  0  0  0
    1.5436   -2.5337   -0.7197 O   0  0  0  0  0  0  0  0  0  0  0  0
    1.5436   -1.4261   -0.4140 H   0  0  0  0  0  0  0  0  0  0  0  0
    1.5436   -2.5337   -1.6773 H   0  0  0  0  0  0  0  0  0  0  0  0
  1  2  2  0
  2  3  1  0
  2  6  1  0
  3  4  1  0
  4  5  2  0
  5  6  1  0
  7  8  1  0
  7  9  1  0
M  RAD  1   1   2
M  END
>  <reaction>  (12) 
rxn_3120

>  <mol_properties>  (12) 
{"0": {"label": "*1", "atom_type": "N3d"}, "1": {"label": "*0", "atom_type": "Cd"}, "6": {"label": "*3", "atom_type": "O2s"}, "7": {"label": "*2", "atom_type": "H0"}, "8": {"label": "*4", "atom_type": "H0"}}

>  <type>  (12) 
unop_8

>  <geom_source>  (12) 
Heuristics

$$$$

     RDKit          3D

  9  8  0  0  0  0  0  0  0  0999 V2000
   -0.7823   -0.6232    1.2139 N   0  0  0  0  0  2  0  0  0  0  0  0
   -0.2083    0.0971    0.3814 C   0  0  0  0  0  0  0  0  0  0  0  0
    0.2604    1.3474    0.6431 O   0  0  0  0  0  0  0  0  0  0  0  0
    0.8264    1.8211   -0.5143 N   0  0  0  0  0  0  0  0  0  0  0  0
    0.7358    0.9887   -1.4050 N   0  0  0  0  0  0  0  0  0  0  0  0
    0.0940   -0.1367   -0.9292 O   0  0  0  0  0  0  0  0  0  0  0  0
   -0.7823   -2.9020    0.5849 O   0  0  0  0  0  0  0  0  0  0  0  0
   -0.7823   -1.7943    0.8906 H   0  0  0  0  0  0  0  0  0  0  0  0
   -0.7823   -2.9020   -0.3727 H   0  0  0  0  0  0  0  0  0  0  0  0
  1  2  2  0
  2  3  1  0
  2  6  1  0
  3  4  1  0
  4  5  2  0
  5  6  1  0
  7  8  1  0
  7  9  1  0
M  RAD  1   1   2
M  END
>  <reaction>  (13) 
rxn_3120

>  <mol_properties>  (13) 
{"0": {"label": "*1", "atom_type": "N3d"}, "1": {"label": "*0", "atom_type": "Cd"}, "6": {"label": "*3", "atom_type": "O2s"}, "7": {"label": "*2", "atom_type": "H0"}, "8": {"label": "*4", "atom_type": "H0"}}

>  <type>  (13) 
unop_9

>  <geom_source>  (13) 
Heuristics

$$$$

     RDKit          3D

  9  8  0  0  0  0  0  0  0  0999 V2000
    1.3474   -0.4656    0.6595 N   0  0  0  0  0  2  0  0  0  0  0  0
    0.3533    0.1429    0.2320 C   0  0  0  0  0  0  0  0  0  0  0  0
   -0.2604    1.1651    0.8877 O   0  0  0  0  0  0  0  0  0  0  0  0
   -1.3116    1.5775    0.1071 N   0  0  0  0  0  0  0  0  0  0  0  0
   -1.3698    0.9112   -0.9162 N   0  0  0  0  0  0  0  0  0  0  0  0
   -0.3539   -0.0231   -0.9239 O   0  0  0  0  0  0  0  0  0  0  0  0
    1.3474   -2.7444    0.0304 O   0  0  0  0  0  0  0  0  0  0  0  0
    1.3474   -1.6367    0.3362 H   0  0  0  0  0  0  0  0  0  0  0  0
    1.3474   -2.7444   -0.9271 H   0  0  0  0  0  0  0  0  0  0  0  0
  1  2  2  0
  2  3  1  0
  2  6  1  0
  3  4  1  0
  4  5  2  0
  5  6  1  0
  7  8  1  0
  7  9  1  0
M  RAD  1   1   2
M  END
>  <reaction>  (14) 
rxn_3120

>  <mol_properties>  (14) 
{"0": {"label": "*1", "atom_type": "N3d"}, "1": {"label": "*0", "atom_type": "Cd"}, "6": {"label": "*3", "atom_type": "O2s"}, "7": {"label": "*2", "atom_type": "H0"}, "8": {"label": "*4", "atom_type": "H0"}}

>  <type>  (14) 
unop_10

>  <geom_source>  (14) 
Heuristics

$$$$

     RDKit          3D

  9  8  0  0  0  0  0  0  0  0999 V2000
   -0.7512    0.0921   -1.3625 N   0  0  0  0  0  2  0  0  0  0  0  0
   -0.1772    0.2834   -0.2784 C   0  0  0  0  0  0  0  0  0  0  0  0
   -0.5229    1.2529    0.6115 O   0  0  0  0  0  0  0  0  0  0  0  0
    0.3342    1.1509    1.6789 N   0  0  0  0  0  0  0  0  0  0  0  0
    1.1276    0.2378    1.5028 N   0  0  0  0  0  0  0  0  0  0  0  0
    0.8795   -0.3693    0.2884 O   0  0  0  0  0  0  0  0  0  0  0  0
   -0.7512   -2.1867   -1.9916 O   0  0  0  0  0  0  0  0  0  0  0  0
   -0.7512   -1.0791   -1.6858 H   0  0  0  0  0  0  0  0  0  0  0  0
   -0.7512   -2.1867   -2.9491 H   0  0  0  0  0  0  0  0  0  0  0  0
  1  2  2  0
  2  3  1  0
  2  6  1  0
  3  4  1  0
  4  5  2  0
  5  6  1  0
  7  8  1  0
  7  9  1  0
M  RAD  1   1   2
M  END
>  <reaction>  (15) 
rxn_3120

>  <mol_properties>  (15) 
{"0": {"label": "*1", "atom_type": "N3d"}, "1": {"label": "*0", "atom_type": "Cd"}, "6": {"label": "*3", "atom_type": "O2s"}, "7": {"label": "*2", "atom_type": "H0"}, "8": {"label": "*4", "atom_type": "H0"}}

>  <type>  (15) 
unop_11

>  <geom_source>  (15) 
Heuristics

$$$$

     RDKit          3D

  9  8  0  0  0  0  0  0  0  0999 V2000
   -0.0000   -0.6818    1.4181 N   0  0  0  0  0  2  0  0  0  0  0  0
   -0.0000    0.0794    0.4374 C   0  0  0  0  0  0  0  0  0  0  0  0
    0.0000    1.4376    0.5210 O   0  0  0  0  0  0  0  0  0  0  0  0
    0.0000    1.9250   -0.7622 N   0  0  0  0  0  0  0  0  0  0  0  0
    0.0000    1.0054   -1.5676 N   0  0  0  0  0  0  0  0  0  0  0  0
   -0.0000   -0.2018   -0.8985 O   0  0  0  0  0  0  0  0  0  0  0  0
   -0.0000   -2.9606    0.7891 O   0  0  0  0  0  0  0  0  0  0  0  0
   -0.0000   -1.8530    1.0949 H   0  0  0  0  0  0  0  0  0  0  0  0
   -0.0000   -2.9606   -0.1684 H   0  0  0  0  0  0  0  0  0  0  0  0
  1  2  2  0
  2  3  1  0
  2  6  1  0
  3  4  1  0
  4  5  2  0
  5  6  1  0
  7  8  1  0
  7  9  1  0
M  RAD  1   1   2
M  END
>  <reaction>  (16) 
rxn_3120

>  <mol_properties>  (16) 
{"0": {"label": "*1", "atom_type": "N3d"}, "1": {"label": "*0", "atom_type": "Cd"}, "6": {"label": "*3", "atom_type": "O2s"}, "7": {"label": "*2", "atom_type": "H0"}, "8": {"label": "*4", "atom_type": "H0"}}

>  <type>  (16) 
unop_12

>  <geom_source>  (16) 
Heuristics

$$$$

     RDKit          3D

  9  8  0  0  0  0  0  0  0  0999 V2000
    1.3474   -0.4656    0.6595 N   0  0  0  0  0  2  0  0  0  0  0  0
    0.3533    0.1429    0.2320 C   0  0  0  0  0  0  0  0  0  0  0  0
   -0.2604    1.1651    0.8877 O   0  0  0  0  0  0  0  0  0  0  0  0
   -1.3116    1.5775    0.1071 N   0  0  0  0  0  0  0  0  0  0  0  0
   -1.3698    0.9113   -0.9162 N   0  0  0  0  0  0  0  0  0  0  0  0
   -0.3539   -0.0231   -0.9239 O   0  0  0  0  0  0  0  0  0  0  0  0
    1.3474   -2.7444    0.0305 O   0  0  0  0  0  0  0  0  0  0  0  0
    1.3474   -1.6367    0.3362 H   0  0  0  0  0  0  0  0  0  0  0  0
    1.3474   -2.7444   -0.9271 H   0  0  0  0  0  0  0  0  0  0  0  0
  1  2  2  0
  2  3  1  0
  2  6  1  0
  3  4  1  0
  4  5  2  0
  5  6  1  0
  7  8  1  0
  7  9  1  0
M  RAD  1   1   2
M  END
>  <reaction>  (17) 
rxn_3120

>  <mol_properties>  (17) 
{"0": {"label": "*1", "atom_type": "N3d"}, "1": {"label": "*0", "atom_type": "Cd"}, "6": {"label": "*3", "atom_type": "O2s"}, "7": {"label": "*2", "atom_type": "H0"}, "8": {"label": "*4", "atom_type": "H0"}}

>  <type>  (17) 
unop_13

>  <geom_source>  (17) 
gaussian_log

$$$$
