
     RDKit          3D

  6  5  0  0  0  0  0  0  0  0999 V2000
   -0.5072   -0.0291   -0.0097 C   0  0  0  0  0  0  0  0  0  0  0  0
    1.1321   -0.1527   -0.7687 S   0  0  0  0  0  0  0  0  0  0  0  0
   -0.6174   -0.7330    0.8127 H   0  0  0  0  0  0  0  0  0  0  0  0
   -0.5863    0.9827    0.3845 H   0  0  0  0  0  0  0  0  0  0  0  0
   -1.2962   -0.1800   -0.7434 H   0  0  0  0  0  0  0  0  0  0  0  0
    1.0312   -1.4237   -1.1764 H   0  0  0  0  0  0  0  0  0  0  0  0
  1  2  1  0
  1  3  1  0
  1  4  1  0
  1  5  1  0
  2  6  1  0
M  END
>  <reaction>  (1) 
rxn_1851

>  <mol_properties>  (1) 
{"0": {"label": "donator", "atom_type": "Cs"}, "2": {"label": "d_hydrogen", "atom_type": "H0"}}

>  <type>  (1) 
r1h

$$$$

     RDKit          3D

 12 11  0  0  0  0  0  0  0  0999 V2000
   -0.9951    0.1196   -0.8321 C   0  0  0  0  0  0  0  0  0  0  0  0
   -0.3760    0.2571    0.5231 C   0  0  0  0  0  3  0  0  0  0  0  0
    0.9330   -0.1537    0.7810 C   0  0  0  0  0  0  0  0  0  0  0  0
    1.5987   -0.1880    1.9734 C   0  0  0  0  0  0  0  0  0  0  0  0
   -1.4483    0.9449    1.7152 S   0  0  0  0  0  0  0  0  0  0  0  0
   -1.9164   -0.4696   -0.7936 H   0  0  0  0  0  0  0  0  0  0  0  0
   -1.2565    1.0958   -1.2506 H   0  0  0  0  0  0  0  0  0  0  0  0
   -0.3088   -0.3780   -1.5170 H   0  0  0  0  0  0  0  0  0  0  0  0
    1.4783   -0.4898   -0.0971 H   0  0  0  0  0  0  0  0  0  0  0  0
    2.6278   -0.5153    2.0142 H   0  0  0  0  0  0  0  0  0  0  0  0
    1.1316    0.0690    2.9151 H   0  0  0  0  0  0  0  0  0  0  0  0
   -0.5306    1.3052    2.6211 H   0  0  0  0  0  0  0  0  0  0  0  0
  1  2  1  0
  1  6  1  0
  1  7  1  0
  1  8  1  0
  2  3  1  0
  2  5  1  0
  3  4  2  3
  3  9  1  0
  4 10  1  0
  4 11  1  0
  5 12  1  0
M  RAD  1   2   2
M  END
>  <reaction>  (2) 
rxn_1851

>  <mol_properties>  (2) 
{"1": {"label": "acceptor", "atom_type": "Cs"}}

>  <type>  (2) 
r2

$$$$

     RDKit          3D

 13 12  0  0  0  0  0  0  0  0999 V2000
   -1.1828    0.8269   -0.1645 C   0  0  0  0  0  0  0  0  0  0  0  0
   -0.4827   -0.4584   -0.5736 C   0  0  1  0  0  0  0  0  0  0  0  0
   -0.9759   -1.7030    0.1030 C   0  0  0  0  0  0  0  0  0  0  0  0
   -2.0084   -1.7831    0.9287 C   0  0  0  0  0  0  0  0  0  0  0  0
   -0.4908   -0.7025   -2.3913 S   0  0  0  0  0  0  0  0  0  0  0  0
   -1.0941    0.9860    0.9125 H   0  0  0  0  0  0  0  0  0  0  0  0
   -0.7405    1.6784   -0.6793 H   0  0  0  0  0  0  0  0  0  0  0  0
   -2.2437    0.7943   -0.4195 H   0  0  0  0  0  0  0  0  0  0  0  0
    0.5870   -0.3637   -0.3637 H   0  0  0  0  0  0  0  0  0  0  0  0
   -0.4209   -2.6026   -0.1443 H   0  0  0  0  0  0  0  0  0  0  0  0
   -2.2982   -2.7315    1.3623 H   0  0  0  0  0  0  0  0  0  0  0  0
   -2.5999   -0.9190    1.2055 H   0  0  0  0  0  0  0  0  0  0  0  0
   -1.8040   -0.9489   -2.4971 H   0  0  0  0  0  0  0  0  0  0  0  0
  1  2  1  0
  1  6  1  0
  1  7  1  0
  1  8  1  0
  2  3  1  0
  2  5  1  0
  2  9  1  1
  3  4  2  3
  3 10  1  0
  4 11  1  0
  4 12  1  0
  5 13  1  0
M  END
>  <reaction>  (3) 
rxn_1851

>  <mol_properties>  (3) 
{"1": {"label": "acceptor", "atom_type": "Cs"}, "12": {"label": "a_hydrogen", "atom_type": "H0"}}

>  <type>  (3) 
r2h

$$$$

     RDKit          3D

 18 16  0  0  0  0  0  0  0  0999 V2000
   -0.3360    1.6492   -0.5459 C   0  0  0  0  0  0  0  0  0  0  0  0
   -0.1018    0.6950    0.6001 C   0  0  1  0  0  0  0  0  0  0  0  0
    1.2099    0.7332    1.2620 C   0  0  0  0  0  0  0  0  0  0  0  0
    2.2785    1.4086    0.8394 C   0  0  0  0  0  0  0  0  0  0  0  0
   -1.4887    0.5076    1.7387 S   0  0  0  0  0  0  0  0  0  0  0  0
   -0.2821    2.6890   -0.2101 H   0  0  0  0  0  0  0  0  0  0  0  0
    0.4153    1.5026   -1.3257 H   0  0  0  0  0  0  0  0  0  0  0  0
   -1.3198    1.4844   -0.9832 H   0  0  0  0  0  0  0  0  0  0  0  0
    1.2930    0.1231    2.1565 H   0  0  0  0  0  0  0  0  0  0  0  0
    3.2156    1.3540    1.3783 H   0  0  0  0  0  0  0  0  0  0  0  0
    2.2545    2.0396   -0.0402 H   0  0  0  0  0  0  0  0  0  0  0  0
   -1.3566    1.6823    2.3749 H   0  0  0  0  0  0  0  0  0  0  0  0
   -0.0440   -1.6737   -0.7027 C   0  0  0  0  0  3  0  0  0  0  0  0
    1.3103   -1.5498   -1.8146 S   0  0  0  0  0  0  0  0  0  0  0  0
   -0.1218   -0.4728    0.0211 H   0  0  0  0  0  0  0  0  0  0  0  0
   -0.9842   -1.7342   -1.2431 H   0  0  0  0  0  0  0  0  0  0  0  0
    0.0544   -2.4198    0.0806 H   0  0  0  0  0  0  0  0  0  0  0  0
    2.2840   -1.5291   -0.8946 H   0  0  0  0  0  0  0  0  0  0  0  0
  1  2  1  0
  1  6  1  0
  1  7  1  0
  1  8  1  0
  2  3  1  0
  2  5  1  0
  2 15  1  6
  3  4  2  3
  3  9  1  0
  4 10  1  0
  4 11  1  0
  5 12  1  0
 13 14  1  0
 13 16  1  0
 13 17  1  0
 14 18  1  0
M  RAD  1  13   2
M  END
>  <reaction>  (4) 
rxn_1851

>  <mol_properties>  (4) 
{"1": {"label": "*1", "atom_type": "Cs"}, "4": {"label": "*0", "atom_type": "S2s"}, "12": {"label": "*3", "atom_type": "Cs"}, "13": {"label": "*4", "atom_type": "S2s"}, "14": {"label": "*2", "atom_type": "H0"}}

>  <type>  (4) 
ts

$$$$

     RDKit          3D

 18 16  0  0  0  0  0  0  0  0999 V2000
   -1.5126    0.9029    1.3794 C   0  0  0  0  0  0  0  0  0  0  0  0
   -0.2683    0.7039    0.5301 C   0  0  0  0  0  3  0  0  0  0  0  0
    0.3894    1.9627    0.0475 C   0  0  0  0  0  0  0  0  0  0  0  0
    0.0412    3.1978    0.3754 C   0  0  0  0  0  0  0  0  0  0  0  0
    0.9741   -0.3591    1.3611 S   0  0  0  0  0  0  0  0  0  0  0  0
   -1.2783    1.4436    2.2983 H   0  0  0  0  0  0  0  0  0  0  0  0
   -2.2654    1.4722    0.8294 H   0  0  0  0  0  0  0  0  0  0  0  0
   -1.9388   -0.0600    1.6566 H   0  0  0  0  0  0  0  0  0  0  0  0
    1.2342    1.8061   -0.6159 H   0  0  0  0  0  0  0  0  0  0  0  0
    0.5844    4.0484   -0.0157 H   0  0  0  0  0  0  0  0  0  0  0  0
   -0.7894    3.4115    1.0369 H   0  0  0  0  0  0  0  0  0  0  0  0
    1.3122    0.5282    2.3071 H   0  0  0  0  0  0  0  0  0  0  0  0
   -0.2683   -1.7347   -0.4242 C   0  0  0  0  0  0  0  0  0  0  0  0
   -0.2683   -1.7347   -2.2349 S   0  0  0  0  0  0  0  0  0  0  0  0
   -0.2683   -0.5189    0.0515 H   0  0  0  0  0  0  0  0  0  0  0  0
   -1.1889   -2.2289   -0.1183 H   0  0  0  0  0  0  0  0  0  0  0  0
    0.5761   -2.2947   -0.0278 H   0  0  0  0  0  0  0  0  0  0  0  0
    0.9020   -1.1066   -2.4013 H   0  0  0  0  0  0  0  0  0  0  0  0
  1  2  1  0
  1  6  1  0
  1  7  1  0
  1  8  1  0
  2  3  1  0
  2  5  1  0
  3  4  2  3
  3  9  1  0
  4 10  1  0
  4 11  1  0
  5 12  1  0
 13 14  1  0
 13 15  1  0
 13 16  1  0
 13 17  1  0
 14 18  1  0
M  RAD  1   2   2
M  END
>  <reaction>  (5) 
rxn_1851

>  <mol_properties>  (5) 
{"1": {"label": "*1", "atom_type": "Cs"}, "4": {"label": "*0", "atom_type": "S2s"}, "12": {"label": "*3", "atom_type": "Cs"}, "13": {"label": "*4", "atom_type": "S2s"}, "14": {"label": "*2", "atom_type": "H0"}}

>  <type>  (5) 
unop_1

>  <geom_source>  (5) 
Heuristics

$$$$

     RDKit          3D

 18 16  0  0  0  0  0  0  0  0999 V2000
   -0.6668    1.5682   -0.5291 C   0  0  0  0  0  0  0  0  0  0  0  0
    0.0516    0.6539    0.4494 C   0  0  0  0  0  3  0  0  0  0  0  0
    1.2834    1.2300    1.0825 C   0  0  0  0  0  0  0  0  0  0  0  0
    1.7256    2.4701    0.9379 C   0  0  0  0  0  0  0  0  0  0  0  0
   -1.0701    0.0182    1.7538 S   0  0  0  0  0  0  0  0  0  0  0  0
   -1.0270    2.4703   -0.0312 H   0  0  0  0  0  0  0  0  0  0  0  0
    0.0040    1.8677   -1.3375 H   0  0  0  0  0  0  0  0  0  0  0  0
   -1.5262    1.0581   -0.9614 H   0  0  0  0  0  0  0  0  0  0  0  0
    1.8261    0.5426    1.7239 H   0  0  0  0  0  0  0  0  0  0  0  0
    2.6226    2.8007    1.4454 H   0  0  0  0  0  0  0  0  0  0  0  0
    1.2209    3.1984    0.3150 H   0  0  0  0  0  0  0  0  0  0  0  0
   -1.2274    1.1874    2.3900 H   0  0  0  0  0  0  0  0  0  0  0  0
    0.0516   -1.7847   -0.5049 C   0  0  0  0  0  0  0  0  0  0  0  0
    0.0516   -1.7847   -2.3156 S   0  0  0  0  0  0  0  0  0  0  0  0
    0.0516   -0.5689   -0.0291 H   0  0  0  0  0  0  0  0  0  0  0  0
   -0.8691   -2.2789   -0.1990 H   0  0  0  0  0  0  0  0  0  0  0  0
    0.8960   -2.3447   -0.1084 H   0  0  0  0  0  0  0  0  0  0  0  0
    1.2219   -1.1566   -2.4820 H   0  0  0  0  0  0  0  0  0  0  0  0
  1  2  1  0
  1  6  1  0
  1  7  1  0
  1  8  1  0
  2  3  1  0
  2  5  1  0
  3  4  2  3
  3  9  1  0
  4 10  1  0
  4 11  1  0
  5 12  1  0
 13 14  1  0
 13 15  1  0
 13 16  1  0
 13 17  1  0
 14 18  1  0
M  RAD  1   2   2
M  END
>  <reaction>  (6) 
rxn_1851

>  <mol_properties>  (6) 
{"1": {"label": "*1", "atom_type": "Cs"}, "4": {"label": "*0", "atom_type": "S2s"}, "12": {"label": "*3", "atom_type": "Cs"}, "13": {"label": "*4", "atom_type": "S2s"}, "14": {"label": "*2", "atom_type": "H0"}}

>  <type>  (6) 
unop_2

>  <geom_source>  (6) 
Heuristics

$$$$

     RDKit          3D

 18 16  0  0  0  0  0  0  0  0999 V2000
   -0.9949    0.5971    2.0343 C   0  0  0  0  0  0  0  0  0  0  0  0
   -0.2765    0.5897    0.6951 C   0  0  0  0  0  3  0  0  0  0  0  0
   -0.3870    1.8560   -0.1013 C   0  0  0  0  0  0  0  0  0  0  0  0
   -0.9590    2.9809    0.3008 C   0  0  0  0  0  0  0  0  0  0  0  0
    1.4886    0.1190    0.8593 S   0  0  0  0  0  0  0  0  0  0  0  0
   -0.5814    1.3592    2.6974 H   0  0  0  0  0  0  0  0  0  0  0  0
   -2.0590    0.8027    1.8975 H   0  0  0  0  0  0  0  0  0  0  0  0
   -0.8878   -0.3687    2.5258 H   0  0  0  0  0  0  0  0  0  0  0  0
    0.0696    1.8130   -1.0851 H   0  0  0  0  0  0  0  0  0  0  0  0
   -0.9811    3.8513   -0.3422 H   0  0  0  0  0  0  0  0  0  0  0  0
   -1.4247    3.0810    1.2736 H   0  0  0  0  0  0  0  0  0  0  0  0
    1.8790    1.2408    1.4804 H   0  0  0  0  0  0  0  0  0  0  0  0
   -0.2765   -1.8489   -0.2591 C   0  0  0  0  0  0  0  0  0  0  0  0
   -0.2765   -1.8489   -2.0698 S   0  0  0  0  0  0  0  0  0  0  0  0
   -0.2765   -0.6331    0.2166 H   0  0  0  0  0  0  0  0  0  0  0  0
   -1.1971   -2.3431    0.0468 H   0  0  0  0  0  0  0  0  0  0  0  0
    0.5679   -2.4089    0.1373 H   0  0  0  0  0  0  0  0  0  0  0  0
    0.8938   -1.2208   -2.2362 H   0  0  0  0  0  0  0  0  0  0  0  0
  1  2  1  0
  1  6  1  0
  1  7  1  0
  1  8  1  0
  2  3  1  0
  2  5  1  0
  3  4  2  3
  3  9  1  0
  4 10  1  0
  4 11  1  0
  5 12  1  0
 13 14  1  0
 13 15  1  0
 13 16  1  0
 13 17  1  0
 14 18  1  0
M  RAD  1   2   2
M  END
>  <reaction>  (7) 
rxn_1851

>  <mol_properties>  (7) 
{"1": {"label": "*1", "atom_type": "Cs"}, "4": {"label": "*0", "atom_type": "S2s"}, "12": {"label": "*3", "atom_type": "Cs"}, "13": {"label": "*4", "atom_type": "S2s"}, "14": {"label": "*2", "atom_type": "H0"}}

>  <type>  (7) 
unop_3

>  <geom_source>  (7) 
Heuristics

$$$$

     RDKit          3D

 18 16  0  0  0  0  0  0  0  0999 V2000
    1.3012    1.3726   -0.0357 C   0  0  0  0  0  0  0  0  0  0  0  0
    0.0569    0.6499    0.4530 C   0  0  0  0  0  3  0  0  0  0  0  0
    0.2086   -0.0866    1.7508 C   0  0  0  0  0  0  0  0  0  0  0  0
    1.2783   -0.0753    2.5318 C   0  0  0  0  0  0  0  0  0  0  0  0
   -1.3985    1.7624    0.5441 S   0  0  0  0  0  0  0  0  0  0  0  0
    1.6077    2.1472    0.6696 H   0  0  0  0  0  0  0  0  0  0  0  0
    2.1300    0.6711   -0.1556 H   0  0  0  0  0  0  0  0  0  0  0  0
    1.1085    1.8501   -0.9951 H   0  0  0  0  0  0  0  0  0  0  0  0
   -0.6647   -0.6565    2.0524 H   0  0  0  0  0  0  0  0  0  0  0  0
    1.2920   -0.6318    3.4600 H   0  0  0  0  0  0  0  0  0  0  0  0
    2.1743    0.4797    2.2824 H   0  0  0  0  0  0  0  0  0  0  0  0
   -0.9609    2.4862    1.5838 H   0  0  0  0  0  0  0  0  0  0  0  0
    0.0569   -1.7887   -0.5013 C   0  0  0  0  0  0  0  0  0  0  0  0
    0.0569   -1.7887   -2.3120 S   0  0  0  0  0  0  0  0  0  0  0  0
    0.0569   -0.5729   -0.0256 H   0  0  0  0  0  0  0  0  0  0  0  0
   -0.8638   -2.2829   -0.1954 H   0  0  0  0  0  0  0  0  0  0  0  0
    0.9013   -2.3487   -0.1048 H   0  0  0  0  0  0  0  0  0  0  0  0
    1.2272   -1.1606   -2.4784 H   0  0  0  0  0  0  0  0  0  0  0  0
  1  2  1  0
  1  6  1  0
  1  7  1  0
  1  8  1  0
  2  3  1  0
  2  5  1  0
  3  4  2  3
  3  9  1  0
  4 10  1  0
  4 11  1  0
  5 12  1  0
 13 14  1  0
 13 15  1  0
 13 16  1  0
 13 17  1  0
 14 18  1  0
M  RAD  1   2   2
M  END
>  <reaction>  (8) 
rxn_1851

>  <mol_properties>  (8) 
{"1": {"label": "*1", "atom_type": "Cs"}, "4": {"label": "*0", "atom_type": "S2s"}, "12": {"label": "*3", "atom_type": "Cs"}, "13": {"label": "*4", "atom_type": "S2s"}, "14": {"label": "*2", "atom_type": "H0"}}

>  <type>  (8) 
unop_4

>  <geom_source>  (8) 
Heuristics

$$$$

     RDKit          3D

 18 16  0  0  0  0  0  0  0  0999 V2000
   -0.0564    0.4137    2.3325 C   0  0  0  0  0  0  0  0  0  0  0  0
   -0.0564    0.4765    0.8142 C   0  0  0  0  0  3  0  0  0  0  0  0
   -1.2117    1.2106    0.2006 C   0  0  0  0  0  0  0  0  0  0  0  0
   -2.1501    1.8744    0.8587 C   0  0  0  0  0  0  0  0  0  0  0  0
    1.5178    1.1422    0.1491 S   0  0  0  0  0  0  0  0  0  0  0  0
    0.0093    1.4131    2.7667 H   0  0  0  0  0  0  0  0  0  0  0  0
   -0.9715   -0.0586    2.6969 H   0  0  0  0  0  0  0  0  0  0  0  0
    0.7969   -0.1624    2.6869 H   0  0  0  0  0  0  0  0  0  0  0  0
   -1.2379    1.1870   -0.8844 H   0  0  0  0  0  0  0  0  0  0  0  0
   -2.9427    2.3853    0.3275 H   0  0  0  0  0  0  0  0  0  0  0  0
   -2.1695    1.9350    1.9400 H   0  0  0  0  0  0  0  0  0  0  0  0
    1.3303    2.4010    0.5696 H   0  0  0  0  0  0  0  0  0  0  0  0
   -0.0564   -1.9621   -0.1401 C   0  0  0  0  0  0  0  0  0  0  0  0
   -0.0564   -1.9621   -1.9508 S   0  0  0  0  0  0  0  0  0  0  0  0
   -0.0564   -0.7463    0.3357 H   0  0  0  0  0  0  0  0  0  0  0  0
   -0.9771   -2.4563    0.1658 H   0  0  0  0  0  0  0  0  0  0  0  0
    0.7879   -2.5221    0.2564 H   0  0  0  0  0  0  0  0  0  0  0  0
    1.1139   -1.3340   -2.1172 H   0  0  0  0  0  0  0  0  0  0  0  0
  1  2  1  0
  1  6  1  0
  1  7  1  0
  1  8  1  0
  2  3  1  0
  2  5  1  0
  3  4  2  3
  3  9  1  0
  4 10  1  0
  4 11  1  0
  5 12  1  0
 13 14  1  0
 13 15  1  0
 13 16  1  0
 13 17  1  0
 14 18  1  0
M  RAD  1   2   2
M  END
>  <reaction>  (9) 
rxn_1851

>  <mol_properties>  (9) 
{"1": {"label": "*1", "atom_type": "Cs"}, "4": {"label": "*0", "atom_type": "S2s"}, "12": {"label": "*3", "atom_type": "Cs"}, "13": {"label": "*4", "atom_type": "S2s"}, "14": {"label": "*2", "atom_type": "H0"}}

>  <type>  (9) 
unop_5

>  <geom_source>  (9) 
Heuristics

$$$$

     RDKit          3D

 18 16  0  0  0  0  0  0  0  0999 V2000
    1.5886    1.1236    0.6594 C   0  0  0  0  0  0  0  0  0  0  0  0
    0.1517    0.6628    0.4791 C   0  0  0  0  0  3  0  0  0  0  0  0
   -0.4002   -0.1745    1.5945 C   0  0  0  0  0  0  0  0  0  0  0  0
    0.2122   -0.4524    2.7356 C   0  0  0  0  0  0  0  0  0  0  0  0
   -0.9859    2.0608    0.1391 S   0  0  0  0  0  0  0  0  0  0  0  0
    1.6885    1.7622    1.5390 H   0  0  0  0  0  0  0  0  0  0  0  0
    2.2540    0.2660    0.7813 H   0  0  0  0  0  0  0  0  0  0  0  0
    1.9137    1.6953   -0.2085 H   0  0  0  0  0  0  0  0  0  0  0  0
   -1.4015   -0.5561    1.4210 H   0  0  0  0  0  0  0  0  0  0  0  0
   -0.2716   -1.0591    3.4901 H   0  0  0  0  0  0  0  0  0  0  0  0
    1.2086   -0.0937    2.9630 H   0  0  0  0  0  0  0  0  0  0  0  0
   -0.9228    2.5984    1.3652 H   0  0  0  0  0  0  0  0  0  0  0  0
    0.1517   -1.7758   -0.4752 C   0  0  0  0  0  0  0  0  0  0  0  0
    0.1517   -1.7758   -2.2859 S   0  0  0  0  0  0  0  0  0  0  0  0
    0.1517   -0.5600    0.0005 H   0  0  0  0  0  0  0  0  0  0  0  0
   -0.7689   -2.2700   -0.1693 H   0  0  0  0  0  0  0  0  0  0  0  0
    0.9961   -2.3358   -0.0788 H   0  0  0  0  0  0  0  0  0  0  0  0
    1.3221   -1.1477   -2.4523 H   0  0  0  0  0  0  0  0  0  0  0  0
  1  2  1  0
  1  6  1  0
  1  7  1  0
  1  8  1  0
  2  3  1  0
  2  5  1  0
  3  4  2  3
  3  9  1  0
  4 10  1  0
  4 11  1  0
  5 12  1  0
 13 14  1  0
 13 15  1  0
 13 16  1  0
 13 17  1  0
 14 18  1  0
M  RAD  1   2   2
M  END
>  <reaction>  (10) 
rxn_1851

>  <mol_properties>  (10) 
{"1": {"label": "*1", "atom_type": "Cs"}, "4": {"label": "*0", "atom_type": "S2s"}, "12": {"label": "*3", "atom_type": "Cs"}, "13": {"label": "*4", "atom_type": "S2s"}, "14": {"label": "*2", "atom_type": "H0"}}

>  <type>  (10) 
unop_6

>  <geom_source>  (10) 
Heuristics

$$$$

     RDKit          3D

 18 16  0  0  0  0  0  0  0  0999 V2000
    1.4757    0.8223    1.4285 C   0  0  0  0  0  0  0  0  0  0  0  0
    0.2313    0.6233    0.5791 C   0  0  0  0  0  3  0  0  0  0  0  0
   -0.9193   -0.0459    1.2706 C   0  0  0  0  0  0  0  0  0  0  0  0
   -0.9715   -0.3768    2.5520 C   0  0  0  0  0  0  0  0  0  0  0  0
   -0.3393    2.1877   -0.1897 S   0  0  0  0  0  0  0  0  0  0  0  0
    1.2694    1.4727    2.2805 H   0  0  0  0  0  0  0  0  0  0  0  0
    1.8380   -0.1356    1.8084 H   0  0  0  0  0  0  0  0  0  0  0  0
    2.2661    1.2837    0.8384 H   0  0  0  0  0  0  0  0  0  0  0  0
   -1.7753   -0.2462    0.6337 H   0  0  0  0  0  0  0  0  0  0  0  0
   -1.8529   -0.8490    2.9664 H   0  0  0  0  0  0  0  0  0  0  0  0
   -0.1491   -0.1955    3.2332 H   0  0  0  0  0  0  0  0  0  0  0  0
   -0.7573    2.7620    0.9470 H   0  0  0  0  0  0  0  0  0  0  0  0
    0.2313   -1.8153   -0.3752 C   0  0  0  0  0  0  0  0  0  0  0  0
    0.2313   -1.8153   -2.1858 S   0  0  0  0  0  0  0  0  0  0  0  0
    0.2313   -0.5995    0.1006 H   0  0  0  0  0  0  0  0  0  0  0  0
   -0.6893   -2.3095   -0.0692 H   0  0  0  0  0  0  0  0  0  0  0  0
    1.0757   -2.3753    0.0213 H   0  0  0  0  0  0  0  0  0  0  0  0
    1.4016   -1.1872   -2.3522 H   0  0  0  0  0  0  0  0  0  0  0  0
  1  2  1  0
  1  6  1  0
  1  7  1  0
  1  8  1  0
  2  3  1  0
  2  5  1  0
  3  4  2  3
  3  9  1  0
  4 10  1  0
  4 11  1  0
  5 12  1  0
 13 14  1  0
 13 15  1  0
 13 16  1  0
 13 17  1  0
 14 18  1  0
M  RAD  1   2   2
M  END
>  <reaction>  (11) 
rxn_1851

>  <mol_properties>  (11) 
{"1": {"label": "*1", "atom_type": "Cs"}, "4": {"label": "*0", "atom_type": "S2s"}, "12": {"label": "*3", "atom_type": "Cs"}, "13": {"label": "*4", "atom_type": "S2s"}, "14": {"label": "*2", "atom_type": "H0"}}

>  <type>  (11) 
unop_7

>  <geom_source>  (11) 
Heuristics

$$$$

     RDKit          3D

 18 16  0  0  0  0  0  0  0  0999 V2000
   -1.5852    1.2044    0.6102 C   0  0  0  0  0  0  0  0  0  0  0  0
   -0.1484    0.7435    0.4299 C   0  0  0  0  0  3  0  0  0  0  0  0
    0.8755    1.8381    0.3690 C   0  0  0  0  0  0  0  0  0  0  0  0
    0.6465    3.1293    0.5546 C   0  0  0  0  0  0  0  0  0  0  0  0
    0.3461   -0.4911    1.6929 S   0  0  0  0  0  0  0  0  0  0  0  0
   -1.7120    1.7331    1.5567 H   0  0  0  0  0  0  0  0  0  0  0  0
   -1.8768    1.8770   -0.1996 H   0  0  0  0  0  0  0  0  0  0  0  0
   -2.2590    0.3490    0.6113 H   0  0  0  0  0  0  0  0  0  0  0  0
    1.8875    1.5003    0.1689 H   0  0  0  0  0  0  0  0  0  0  0  0
    1.4541    3.8480    0.5021 H   0  0  0  0  0  0  0  0  0  0  0  0
   -0.3420    3.5205    0.7623 H   0  0  0  0  0  0  0  0  0  0  0  0
    0.3597    0.3602    2.7280 H   0  0  0  0  0  0  0  0  0  0  0  0
   -0.1484   -1.6951   -0.5244 C   0  0  0  0  0  0  0  0  0  0  0  0
   -0.1484   -1.6951   -2.3350 S   0  0  0  0  0  0  0  0  0  0  0  0
   -0.1484   -0.4793   -0.0486 H   0  0  0  0  0  0  0  0  0  0  0  0
   -1.0690   -2.1892   -0.2184 H   0  0  0  0  0  0  0  0  0  0  0  0
    0.6960   -2.2551   -0.1279 H   0  0  0  0  0  0  0  0  0  0  0  0
    1.0220   -1.0670   -2.5014 H   0  0  0  0  0  0  0  0  0  0  0  0
  1  2  1  0
  1  6  1  0
  1  7  1  0
  1  8  1  0
  2  3  1  0
  2  5  1  0
  3  4  2  3
  3  9  1  0
  4 10  1  0
  4 11  1  0
  5 12  1  0
 13 14  1  0
 13 15  1  0
 13 16  1  0
 13 17  1  0
 14 18  1  0
M  RAD  1   2   2
M  END
>  <reaction>  (12) 
rxn_1851

>  <mol_properties>  (12) 
{"1": {"label": "*1", "atom_type": "Cs"}, "4": {"label": "*0", "atom_type": "S2s"}, "12": {"label": "*3", "atom_type": "Cs"}, "13": {"label": "*4", "atom_type": "S2s"}, "14": {"label": "*2", "atom_type": "H0"}}

>  <type>  (12) 
unop_8

>  <geom_source>  (12) 
Heuristics

$$$$

     RDKit          3D

 18 16  0  0  0  0  0  0  0  0999 V2000
    0.7348    1.5281   -0.5047 C   0  0  0  0  0  0  0  0  0  0  0  0
    0.0164    0.6138    0.4738 C   0  0  0  0  0  3  0  0  0  0  0  0
    0.8032    0.2296    1.6917 C   0  0  0  0  0  0  0  0  0  0  0  0
    2.0005    0.6896    2.0220 C   0  0  0  0  0  0  0  0  0  0  0  0
   -1.6125    1.2867    0.9814 S   0  0  0  0  0  0  0  0  0  0  0  0
    0.9802    2.4849   -0.0401 H   0  0  0  0  0  0  0  0  0  0  0  0
    1.6629    1.0668   -0.8499 H   0  0  0  0  0  0  0  0  0  0  0  0
    0.1032    1.7274   -1.3689 H   0  0  0  0  0  0  0  0  0  0  0  0
    0.3061   -0.4796    2.3463 H   0  0  0  0  0  0  0  0  0  0  0  0
    2.4884    0.3614    2.9307 H   0  0  0  0  0  0  0  0  0  0  0  0
    2.5391    1.4017    1.4089 H   0  0  0  0  0  0  0  0  0  0  0  0
   -1.1276    2.3000    1.7125 H   0  0  0  0  0  0  0  0  0  0  0  0
    0.0164   -1.8249   -0.4805 C   0  0  0  0  0  0  0  0  0  0  0  0
    0.0164   -1.8249   -2.2911 S   0  0  0  0  0  0  0  0  0  0  0  0
    0.0164   -0.6090   -0.0047 H   0  0  0  0  0  0  0  0  0  0  0  0
   -0.9043   -2.3190   -0.1745 H   0  0  0  0  0  0  0  0  0  0  0  0
    0.8608   -2.3849   -0.0840 H   0  0  0  0  0  0  0  0  0  0  0  0
    1.1867   -1.1967   -2.4575 H   0  0  0  0  0  0  0  0  0  0  0  0
  1  2  1  0
  1  6  1  0
  1  7  1  0
  1  8  1  0
  2  3  1  0
  2  5  1  0
  3  4  2  3
  3  9  1  0
  4 10  1  0
  4 11  1  0
  5 12  1  0
 13 14  1  0
 13 15  1  0
 13 16  1  0
 13 17  1  0
 14 18  1  0
M  RAD  1   2   2
M  END
>  <reaction>  (13) 
rxn_1851

>  <mol_properties>  (13) 
{"1": {"label": "*1", "atom_type": "Cs"}, "4": {"label": "*0", "atom_type": "S2s"}, "12": {"label": "*3", "atom_type": "Cs"}, "13": {"label": "*4", "atom_type": "S2s"}, "14": {"label": "*2", "atom_type": "H0"}}

>  <type>  (13) 
unop_9

>  <geom_source>  (13) 
Heuristics

$$$$

     RDKit          3D

 18 16  0  0  0  0  0  0  0  0999 V2000
   -1.2622    1.4401   -0.0769 C   0  0  0  0  0  0  0  0  0  0  0  0
   -0.0178    0.7175    0.4118 C   0  0  0  0  0  3  0  0  0  0  0  0
    1.1558    1.5974    0.7254 C   0  0  0  0  0  0  0  0  0  0  0  0
    1.1626    2.9218    0.7068 C   0  0  0  0  0  0  0  0  0  0  0  0
   -0.3685   -0.3729    1.8443 S   0  0  0  0  0  0  0  0  0  0  0  0
   -1.6441    2.1228    0.6844 H   0  0  0  0  0  0  0  0  0  0  0  0
   -1.0411    2.0191   -0.9764 H   0  0  0  0  0  0  0  0  0  0  0  0
   -2.0485    0.7235   -0.3092 H   0  0  0  0  0  0  0  0  0  0  0  0
    2.0592    1.0643    1.0047 H   0  0  0  0  0  0  0  0  0  0  0  0
    2.0582    3.4744    0.9598 H   0  0  0  0  0  0  0  0  0  0  0  0
    0.2888    3.5040    0.4409 H   0  0  0  0  0  0  0  0  0  0  0  0
   -0.5909    0.6133    2.7242 H   0  0  0  0  0  0  0  0  0  0  0  0
   -0.0178   -1.7212   -0.5425 C   0  0  0  0  0  0  0  0  0  0  0  0
   -0.0178   -1.7212   -2.3531 S   0  0  0  0  0  0  0  0  0  0  0  0
   -0.0178   -0.5053   -0.0667 H   0  0  0  0  0  0  0  0  0  0  0  0
   -0.9385   -2.2153   -0.2365 H   0  0  0  0  0  0  0  0  0  0  0  0
    0.8265   -2.2812   -0.1460 H   0  0  0  0  0  0  0  0  0  0  0  0
    1.1525   -1.0930   -2.5195 H   0  0  0  0  0  0  0  0  0  0  0  0
  1  2  1  0
  1  6  1  0
  1  7  1  0
  1  8  1  0
  2  3  1  0
  2  5  1  0
  3  4  2  3
  3  9  1  0
  4 10  1  0
  4 11  1  0
  5 12  1  0
 13 14  1  0
 13 15  1  0
 13 16  1  0
 13 17  1  0
 14 18  1  0
M  RAD  1   2   2
M  END
>  <reaction>  (14) 
rxn_1851

>  <mol_properties>  (14) 
{"1": {"label": "*1", "atom_type": "Cs"}, "4": {"label": "*0", "atom_type": "S2s"}, "12": {"label": "*3", "atom_type": "Cs"}, "13": {"label": "*4", "atom_type": "S2s"}, "14": {"label": "*2", "atom_type": "H0"}}

>  <type>  (14) 
unop_10

>  <geom_source>  (14) 
Heuristics

$$$$

     RDKit          3D

 18 16  0  0  0  0  0  0  0  0999 V2000
    0.9117    0.5376    2.0705 C   0  0  0  0  0  0  0  0  0  0  0  0
    0.1932    0.5302    0.7314 C   0  0  0  0  0  3  0  0  0  0  0  0
   -1.2969    0.3733    0.8015 C   0  0  0  0  0  0  0  0  0  0  0  0
   -2.0250    0.3423    1.9075 C   0  0  0  0  0  0  0  0  0  0  0  0
    0.6094    1.9989   -0.2854 S   0  0  0  0  0  0  0  0  0  0  0  0
    0.5892    1.3807    2.6843 H   0  0  0  0  0  0  0  0  0  0  0  0
    0.7078   -0.3841    2.6202 H   0  0  0  0  0  0  0  0  0  0  0  0
    1.9870    0.6232    1.9219 H   0  0  0  0  0  0  0  0  0  0  0  0
   -1.7898    0.2981   -0.1627 H   0  0  0  0  0  0  0  0  0  0  0  0
   -3.1011    0.2363    1.8590 H   0  0  0  0  0  0  0  0  0  0  0  0
   -1.5862    0.4184    2.8948 H   0  0  0  0  0  0  0  0  0  0  0  0
   -0.0408    2.8896    0.4764 H   0  0  0  0  0  0  0  0  0  0  0  0
    0.1932   -1.9084   -0.2229 C   0  0  0  0  0  0  0  0  0  0  0  0
    0.1932   -1.9084   -2.0336 S   0  0  0  0  0  0  0  0  0  0  0  0
    0.1932   -0.6926    0.2528 H   0  0  0  0  0  0  0  0  0  0  0  0
   -0.7274   -2.4026    0.0830 H   0  0  0  0  0  0  0  0  0  0  0  0
    1.0376   -2.4684    0.1735 H   0  0  0  0  0  0  0  0  0  0  0  0
    1.3635   -1.2803   -2.2000 H   0  0  0  0  0  0  0  0  0  0  0  0
  1  2  1  0
  1  6  1  0
  1  7  1  0
  1  8  1  0
  2  3  1  0
  2  5  1  0
  3  4  2  3
  3  9  1  0
  4 10  1  0
  4 11  1  0
  5 12  1  0
 13 14  1  0
 13 15  1  0
 13 16  1  0
 13 17  1  0
 14 18  1  0
M  RAD  1   2   2
M  END
>  <reaction>  (15) 
rxn_1851

>  <mol_properties>  (15) 
{"1": {"label": "*1", "atom_type": "Cs"}, "4": {"label": "*0", "atom_type": "S2s"}, "12": {"label": "*3", "atom_type": "Cs"}, "13": {"label": "*4", "atom_type": "S2s"}, "14": {"label": "*2", "atom_type": "H0"}}

>  <type>  (15) 
unop_11

>  <geom_source>  (15) 
Heuristics

$$$$

     RDKit          3D

 18 16  0  0  0  0  0  0  0  0999 V2000
    0.0401    1.5904   -0.6743 C   0  0  0  0  0  0  0  0  0  0  0  0
    0.0401    0.6059    0.4834 C   0  0  0  0  0  3  0  0  0  0  0  0
    1.1954    0.7286    1.4322 C   0  0  0  0  0  0  0  0  0  0  0  0
    2.1338    1.6628    1.3994 C   0  0  0  0  0  0  0  0  0  0  0  0
   -1.5342    0.6435    1.4237 S   0  0  0  0  0  0  0  0  0  0  0  0
   -0.0256    2.6190   -0.3149 H   0  0  0  0  0  0  0  0  0  0  0  0
    0.9552    1.4908   -1.2625 H   0  0  0  0  0  0  0  0  0  0  0  0
   -0.8133    1.4078   -1.3255 H   0  0  0  0  0  0  0  0  0  0  0  0
    1.2216   -0.0251    2.2130 H   0  0  0  0  0  0  0  0  0  0  0  0
    2.9263    1.6775    2.1363 H   0  0  0  0  0  0  0  0  0  0  0  0
    2.1531    2.4411    0.6465 H   0  0  0  0  0  0  0  0  0  0  0  0
   -1.3466    1.8533    1.9692 H   0  0  0  0  0  0  0  0  0  0  0  0
    0.0401   -1.8327   -0.4709 C   0  0  0  0  0  0  0  0  0  0  0  0
    0.0401   -1.8327   -2.2815 S   0  0  0  0  0  0  0  0  0  0  0  0
    0.0401   -0.6169    0.0049 H   0  0  0  0  0  0  0  0  0  0  0  0
   -0.8806   -2.3268   -0.1650 H   0  0  0  0  0  0  0  0  0  0  0  0
    0.8845   -2.3927   -0.0744 H   0  0  0  0  0  0  0  0  0  0  0  0
    1.2104   -1.2046   -2.4479 H   0  0  0  0  0  0  0  0  0  0  0  0
  1  2  1  0
  1  6  1  0
  1  7  1  0
  1  8  1  0
  2  3  1  0
  2  5  1  0
  3  4  2  3
  3  9  1  0
  4 10  1  0
  4 11  1  0
  5 12  1  0
 13 14  1  0
 13 15  1  0
 13 16  1  0
 13 17  1  0
 14 18  1  0
M  RAD  1   2   2
M  END
>  <reaction>  (16) 
rxn_1851

>  <mol_properties>  (16) 
{"1": {"label": "*1", "atom_type": "Cs"}, "4": {"label": "*0", "atom_type": "S2s"}, "12": {"label": "*3", "atom_type": "Cs"}, "13": {"label": "*4", "atom_type": "S2s"}, "14": {"label": "*2", "atom_type": "H0"}}

>  <type>  (16) 
unop_12

>  <geom_source>  (16) 
Heuristics

$$$$

     RDKit          3D

 18 16  0  0  0  0  0  0  0  0999 V2000
   -0.4969   -0.6826    2.1370 S   0  0  0  0  0  0  0  0  0  0  0  0
    2.8461   -0.7312   -1.9206 S   0  0  0  0  0  0  0  0  0  0  0  0
   -0.3704   -0.0000    0.4496 C   0  0  0  0  0  3  0  0  0  0  0  0
   -0.8184   -1.0327   -0.5848 C   0  0  0  0  0  0  0  0  0  0  0  0
   -1.1611    1.2783    0.3362 C   0  0  0  0  0  0  0  0  0  0  0  0
   -2.4807    1.3350    0.5505 C   0  0  0  0  0  0  0  0  0  0  0  0
    1.9747    0.1754   -0.6120 C   0  0  0  0  0  0  0  0  0  0  0  0
    0.9377    0.2924    0.2137 H   0  0  0  0  0  0  0  0  0  0  0  0
   -1.8629   -1.3588   -0.3943 H   0  0  0  0  0  0  0  0  0  0  0  0
   -0.7524   -0.6008   -1.6060 H   0  0  0  0  0  0  0  0  0  0  0  0
   -0.1542   -1.9211   -0.5397 H   0  0  0  0  0  0  0  0  0  0  0  0
   -0.6333    2.1894    0.0722 H   0  0  0  0  0  0  0  0  0  0  0  0
   -3.0047    2.2806    0.4570 H   0  0  0  0  0  0  0  0  0  0  0  0
   -3.0446    0.4485    0.8227 H   0  0  0  0  0  0  0  0  0  0  0  0
    2.4795    1.1467   -0.4303 H   0  0  0  0  0  0  0  0  0  0  0  0
    1.9736   -0.4246    0.3214 H   0  0  0  0  0  0  0  0  0  0  0  0
    0.5214   -1.6288    1.9132 H   0  0  0  0  0  0  0  0  0  0  0  0
    4.0466   -0.7658   -1.1858 H   0  0  0  0  0  0  0  0  0  0  0  0
  1  3  1  0
  1 17  1  0
  2  7  1  0
  2 18  1  0
  3  4  1  0
  3  5  1  0
  4  9  1  0
  4 10  1  0
  4 11  1  0
  5  6  2  3
  5 12  1  0
  6 13  1  0
  6 14  1  0
  7  8  1  0
  7 15  1  0
  7 16  1  0
M  RAD  1   3   2
M  END
>  <reaction>  (17) 
rxn_1851

>  <mol_properties>  (17) 
{"1": {"label": "*1", "atom_type": "Cs"}, "4": {"label": "*0", "atom_type": "S2s"}, "12": {"label": "*3", "atom_type": "Cs"}, "13": {"label": "*4", "atom_type": "S2s"}, "14": {"label": "*2", "atom_type": "H0"}}

>  <type>  (17) 
unop_13

>  <geom_source>  (17) 
AutoTST

$$$$
