
     RDKit          3D

  8  7  0  0  0  0  0  0  0  0999 V2000
    0.9548    0.1194   -0.0790 C   0  0  0  0  0  0  0  0  0  0  0  0
   -0.4838   -0.2649    0.0193 C   0  0  0  0  0  0  0  0  0  0  0  0
   -0.8933   -1.1081    0.8664 N   0  0  0  0  0  0  0  0  0  0  0  0
    1.3360   -0.0983   -1.0800 H   0  0  0  0  0  0  0  0  0  0  0  0
    1.0698    1.1948    0.0786 H   0  0  0  0  0  0  0  0  0  0  0  0
    1.5426   -0.4219    0.6602 H   0  0  0  0  0  0  0  0  0  0  0  0
   -1.1575    0.2324   -0.6905 H   0  0  0  0  0  0  0  0  0  0  0  0
   -1.8989   -1.2455    0.7886 H   0  0  0  0  0  0  0  0  0  0  0  0
  1  2  1  0
  1  4  1  0
  1  5  1  0
  1  6  1  0
  2  3  2  3
  2  7  1  0
  3  8  1  0
M  END
>  <reaction>  (1) 
rxn_127

>  <mol_properties>  (1) 
{"2": {"label": "donator", "atom_type": "N3d"}, "7": {"label": "d_hydrogen", "atom_type": "H0"}}

>  <type>  (1) 
r1h

$$$$

     RDKit          3D

  1  0  0  0  0  0  0  0  0  0999 V2000
    0.0000    0.0000    0.0000 H   0  0  0  0  0 15  0  0  0  0  0  0
M  END
>  <reaction>  (2) 
rxn_127

>  <mol_properties>  (2) 
{"0": {"label": "acceptor", "atom_type": "H0"}}

>  <type>  (2) 
r2

$$$$

     RDKit          3D

  2  1  0  0  0  0  0  0  0  0999 V2000
    0.0000    0.0000    0.3721 H   0  0  0  0  0  0  0  0  0  0  0  0
    0.0000    0.0000   -0.3721 H   0  0  0  0  0  0  0  0  0  0  0  0
  1  2  1  0
M  END
>  <reaction>  (3) 
rxn_127

>  <mol_properties>  (3) 
{"0": {"label": "a_hydrogen", "atom_type": "H0"}, "1": {"label": "acceptor", "atom_type": "H0"}}

>  <type>  (3) 
r2h

$$$$

     RDKit          3D

  9  7  0  0  0  0  0  0  0  0999 V2000
   -0.0012   -0.3544   -1.2726 C   0  0  0  0  0  0  0  0  0  0  0  0
    0.0009   -0.3131    0.2215 C   0  0  0  0  0  0  0  0  0  0  0  0
   -0.0032    0.7771    0.8501 N   0  0  0  0  0  0  0  0  0  0  0  0
    0.8803   -0.8919   -1.6292 H   0  0  0  0  0  0  0  0  0  0  0  0
   -0.8788   -0.9001   -1.6265 H   0  0  0  0  0  0  0  0  0  0  0  0
   -0.0065    0.6519   -1.6869 H   0  0  0  0  0  0  0  0  0  0  0  0
    0.0061   -1.2786    0.7376 H   0  0  0  0  0  0  0  0  0  0  0  0
   -0.0006    0.5799    1.9780 H   0  0  0  0  0  0  0  0  0  0  0  0
    0.0030    0.1203    2.9356 H   0  0  0  0  0 15  0  0  0  0  0  0
  1  2  1  0
  1  4  1  0
  1  5  1  0
  1  6  1  0
  2  3  2  3
  2  7  1  0
  3  8  1  0
M  END
>  <reaction>  (4) 
rxn_127

>  <mol_properties>  (4) 
{"1": {"label": "*4", "atom_type": "Cd"}, "2": {"label": "*3", "atom_type": "N3d"}, "7": {"label": "*2", "atom_type": "H0"}, "8": {"label": "*1", "atom_type": "H0"}}

>  <type>  (4) 
ts

$$$$

     RDKit          3D

  9  7  0  0  0  0  0  0  0  0999 V2000
   -0.0000   -0.3521   -1.2861 C   0  0  0  0  0  0  0  0  0  0  0  0
   -0.0000   -0.3521    0.2063 C   0  0  0  0  0  0  0  0  0  0  0  0
   -0.0000    0.7205    0.8740 N   0  0  0  0  0  0  0  0  0  0  0  0
    0.8783   -0.8821   -1.6635 H   0  0  0  0  0  0  0  0  0  0  0  0
   -0.8783   -0.8821   -1.6635 H   0  0  0  0  0  0  0  0  0  0  0  0
   -0.0000    0.6685   -1.6646 H   0  0  0  0  0  0  0  0  0  0  0  0
    0.0000   -1.3418    0.6809 H   0  0  0  0  0  0  0  0  0  0  0  0
   -0.0000    0.4903    2.0736 H   0  0  0  0  0  0  0  0  0  0  0  0
   -0.0000    0.3221    2.9505 H   0  0  0  0  0 15  0  0  0  0  0  0
  1  2  1  0
  1  4  1  0
  1  5  1  0
  1  6  1  0
  2  3  2  3
  2  7  1  0
  3  8  1  0
M  END
>  <reaction>  (5) 
rxn_127

>  <mol_properties>  (5) 
{"1": {"label": "*4", "atom_type": "Cd"}, "2": {"label": "*3", "atom_type": "N3d"}, "7": {"label": "*2", "atom_type": "H0"}, "8": {"label": "*1", "atom_type": "H0"}}

>  <type>  (5) 
unop_1

>  <geom_source>  (5) 
Heuristics

$$$$
