
     RDKit          3D

  9  8  0  0  0  0  0  0  0  0999 V2000
   -0.8818   -0.3578    0.1297 C   0  0  0  0  0  0  0  0  0  0  0  0
    0.6153   -0.3021   -0.1188 C   0  0  0  0  0  0  0  0  0  0  0  0
    1.5354   -1.7170    0.5545 S   0  0  0  0  0  0  0  0  0  0  0  0
   -1.1018   -0.3317    1.1984 H   0  0  0  0  0  0  0  0  0  0  0  0
   -1.3114   -1.2723   -0.2799 H   0  0  0  0  0  0  0  0  0  0  0  0
   -1.3767    0.4976   -0.3363 H   0  0  0  0  0  0  0  0  0  0  0  0
    1.0467    0.6194    0.2718 H   0  0  0  0  0  0  0  0  0  0  0  0
    0.8295   -0.3275   -1.1882 H   0  0  0  0  0  0  0  0  0  0  0  0
    1.2306   -1.5077    1.8423 H   0  0  0  0  0  0  0  0  0  0  0  0
  1  2  1  0
  1  4  1  0
  1  5  1  0
  1  6  1  0
  2  3  1  0
  2  7  1  0
  2  8  1  0
  3  9  1  0
M  END
>  <reaction>  (1) 
rxn_1903

>  <mol_properties>  (1) 
{"1": {"label": "donator", "atom_type": "Cs"}, "6": {"label": "d_hydrogen", "atom_type": "H0"}}

>  <type>  (1) 
r1h

$$$$

     RDKit          3D

  4  3  0  0  0  0  0  0  0  0999 V2000
   -0.7528   -0.8706   -0.3839 S   0  0  0  0  0  0  0  0  0  0  0  0
    0.7502   -0.2564   -0.0649 C   0  0  0  0  0  3  0  0  0  0  0  0
    1.5655    0.9691    0.4633 S   0  0  0  0  0  0  0  0  0  0  0  0
   -1.5629    0.1579   -0.0146 H   0  0  0  0  0  0  0  0  0  0  0  0
  1  2  1  0
  1  4  1  0
  2  3  2  0
M  RAD  1   2   2
M  END
>  <reaction>  (2) 
rxn_1903

>  <mol_properties>  (2) 
{"1": {"label": "acceptor", "atom_type": "CS"}}

>  <type>  (2) 
r2

$$$$

     RDKit          3D

  5  4  0  0  0  0  0  0  0  0999 V2000
    1.2280   -0.4626    0.1225 S   0  0  0  0  0  0  0  0  0  0  0  0
   -0.4732   -0.2566   -0.0746 C   0  0  0  0  0  0  0  0  0  0  0  0
   -1.3314    1.1074   -0.0947 S   0  0  0  0  0  0  0  0  0  0  0  0
    1.5289    0.8405    0.2416 H   0  0  0  0  0  0  0  0  0  0  0  0
   -0.9523   -1.2286   -0.1949 H   0  0  0  0  0  0  0  0  0  0  0  0
  1  2  1  0
  1  4  1  0
  2  3  2  0
  2  5  1  0
M  END
>  <reaction>  (3) 
rxn_1903

>  <mol_properties>  (3) 
{"1": {"label": "acceptor", "atom_type": "CS"}, "4": {"label": "a_hydrogen", "atom_type": "H0"}}

>  <type>  (3) 
r2h

$$$$

     RDKit          3D

 13 11  0  0  0  0  0  0  0  0999 V2000
    0.8083   -2.3868    0.0121 S   0  0  0  0  0  0  0  0  0  0  0  0
    0.7872   -0.6850    0.0529 C   0  0  0  0  0  3  0  0  0  0  0  0
    1.9082    0.4101    0.3580 S   0  0  0  0  0  0  0  0  0  0  0  0
    2.1038   -2.5966    0.3201 H   0  0  0  0  0  0  0  0  0  0  0  0
   -1.2118    0.8462   -2.0985 C   0  0  0  0  0  0  0  0  0  0  0  0
   -1.5604    0.4029   -0.7021 C   0  0  0  0  0  0  0  0  0  0  0  0
   -1.8683    1.6468    0.5126 S   0  0  0  0  0  0  0  0  0  0  0  0
   -0.3194    1.4760   -2.0909 H   0  0  0  0  0  0  0  0  0  0  0  0
   -2.0259    1.4188   -2.5499 H   0  0  0  0  0  0  0  0  0  0  0  0
   -1.0079   -0.0198   -2.7314 H   0  0  0  0  0  0  0  0  0  0  0  0
   -0.4516   -0.2436   -0.2786 H   0  0  0  0  0  0  0  0  0  0  0  0
   -2.3526   -0.3422   -0.6433 H   0  0  0  0  0  0  0  0  0  0  0  0
   -0.7715    2.3791    0.2663 H   0  0  0  0  0  0  0  0  0  0  0  0
  1  2  1  0
  1  4  1  0
  2  3  2  0
  5  6  1  0
  5  8  1  0
  5  9  1  0
  5 10  1  0
  6  7  1  0
  6 11  1  0
  6 12  1  0
  7 13  1  0
M  RAD  1   2   2
M  END
>  <reaction>  (4) 
rxn_1903

>  <mol_properties>  (4) 
{"0": {"label": "*4", "atom_type": "S2s"}, "1": {"label": "*3", "atom_type": "CS"}, "5": {"label": "*1", "atom_type": "Cs"}, "6": {"label": "*0", "atom_type": "S2s"}, "10": {"label": "*2", "atom_type": "H0"}}

>  <type>  (4) 
ts

$$$$

     RDKit          3D

 13 11  0  0  0  0  0  0  0  0999 V2000
    1.7436    0.1487    1.0906 S   0  0  0  0  0  0  0  0  0  0  0  0
    0.7514   -0.8775    0.1222 C   0  0  0  0  0  3  0  0  0  0  0  0
    0.3394   -2.4154    0.3724 S   0  0  0  0  0  0  0  0  0  0  0  0
    2.0131   -0.7543    2.0470 H   0  0  0  0  0  0  0  0  0  0  0  0
   -1.2728    0.4815   -2.3449 C   0  0  0  0  0  0  0  0  0  0  0  0
   -1.2728    0.4815   -0.8263 C   0  0  0  0  0  0  0  0  0  0  0  0
   -1.2728    2.1388   -0.0813 S   0  0  0  0  0  0  0  0  0  0  0  0
   -0.3662    0.9469   -2.7357 H   0  0  0  0  0  0  0  0  0  0  0  0
   -2.1288    1.0327   -2.7350 H   0  0  0  0  0  0  0  0  0  0  0  0
   -1.3159   -0.5419   -2.7252 H   0  0  0  0  0  0  0  0  0  0  0  0
   -0.2609   -0.1979   -0.3521 H   0  0  0  0  0  0  0  0  0  0  0  0
   -2.1804    0.0144   -0.4411 H   0  0  0  0  0  0  0  0  0  0  0  0
   -0.0980    2.5405   -0.5848 H   0  0  0  0  0  0  0  0  0  0  0  0
  1  2  1  0
  1  4  1  0
  2  3  2  0
  5  6  1  0
  5  8  1  0
  5  9  1  0
  5 10  1  0
  6  7  1  0
  6 11  1  0
  6 12  1  0
  7 13  1  0
M  RAD  1   2   2
M  END
>  <reaction>  (5) 
rxn_1903

>  <mol_properties>  (5) 
{"0": {"label": "*4", "atom_type": "S2s"}, "1": {"label": "*3", "atom_type": "CS"}, "5": {"label": "*1", "atom_type": "Cs"}, "6": {"label": "*0", "atom_type": "S2s"}, "10": {"label": "*2", "atom_type": "H0"}}

>  <type>  (5) 
unop_1

>  <geom_source>  (5) 
Heuristics

$$$$

     RDKit          3D

 13 11  0  0  0  0  0  0  0  0999 V2000
    1.9002   -0.8324   -0.7852 S   0  0  0  0  0  0  0  0  0  0  0  0
    0.5719   -0.9178    0.3119 C   0  0  0  0  0  3  0  0  0  0  0  0
    0.5721   -1.3269    1.8708 S   0  0  0  0  0  0  0  0  0  0  0  0
    2.8477   -1.2065    0.0895 H   0  0  0  0  0  0  0  0  0  0  0  0
   -1.4524    0.4412   -2.1553 C   0  0  0  0  0  0  0  0  0  0  0  0
   -1.4524    0.4412   -0.6366 C   0  0  0  0  0  0  0  0  0  0  0  0
   -1.4524    2.0986    0.1084 S   0  0  0  0  0  0  0  0  0  0  0  0
   -0.5457    0.9067   -2.5460 H   0  0  0  0  0  0  0  0  0  0  0  0
   -2.3083    0.9924   -2.5454 H   0  0  0  0  0  0  0  0  0  0  0  0
   -1.4954   -0.5821   -2.5356 H   0  0  0  0  0  0  0  0  0  0  0  0
   -0.4405   -0.2381   -0.1625 H   0  0  0  0  0  0  0  0  0  0  0  0
   -2.3600   -0.0258   -0.2515 H   0  0  0  0  0  0  0  0  0  0  0  0
   -0.2776    2.5003   -0.3951 H   0  0  0  0  0  0  0  0  0  0  0  0
  1  2  1  0
  1  4  1  0
  2  3  2  0
  5  6  1  0
  5  8  1  0
  5  9  1  0
  5 10  1  0
  6  7  1  0
  6 11  1  0
  6 12  1  0
  7 13  1  0
M  RAD  1   2   2
M  END
>  <reaction>  (6) 
rxn_1903

>  <mol_properties>  (6) 
{"0": {"label": "*4", "atom_type": "S2s"}, "1": {"label": "*3", "atom_type": "CS"}, "5": {"label": "*1", "atom_type": "Cs"}, "6": {"label": "*0", "atom_type": "S2s"}, "10": {"label": "*2", "atom_type": "H0"}}

>  <type>  (6) 
unop_2

>  <geom_source>  (6) 
Heuristics

$$$$

     RDKit          3D

 13 11  0  0  0  0  0  0  0  0999 V2000
    1.2258   -0.1403    1.6984 S   0  0  0  0  0  0  0  0  0  0  0  0
    0.7434   -0.7935    0.1766 C   0  0  0  0  0  3  0  0  0  0  0  0
    0.8851   -2.3043   -0.3664 S   0  0  0  0  0  0  0  0  0  0  0  0
    1.7204   -1.2805    2.2064 H   0  0  0  0  0  0  0  0  0  0  0  0
   -1.2809    0.5655   -2.2905 C   0  0  0  0  0  0  0  0  0  0  0  0
   -1.2809    0.5655   -0.7719 C   0  0  0  0  0  0  0  0  0  0  0  0
   -1.2809    2.2228   -0.0269 S   0  0  0  0  0  0  0  0  0  0  0  0
   -0.3743    1.0309   -2.6813 H   0  0  0  0  0  0  0  0  0  0  0  0
   -2.1369    1.1167   -2.6806 H   0  0  0  0  0  0  0  0  0  0  0  0
   -1.3240   -0.4579   -2.6708 H   0  0  0  0  0  0  0  0  0  0  0  0
   -0.2690   -0.1139   -0.2977 H   0  0  0  0  0  0  0  0  0  0  0  0
   -2.1885    0.0984   -0.3867 H   0  0  0  0  0  0  0  0  0  0  0  0
   -0.1061    2.6245   -0.5304 H   0  0  0  0  0  0  0  0  0  0  0  0
  1  2  1  0
  1  4  1  0
  2  3  2  0
  5  6  1  0
  5  8  1  0
  5  9  1  0
  5 10  1  0
  6  7  1  0
  6 11  1  0
  6 12  1  0
  7 13  1  0
M  RAD  1   2   2
M  END
>  <reaction>  (7) 
rxn_1903

>  <mol_properties>  (7) 
{"0": {"label": "*4", "atom_type": "S2s"}, "1": {"label": "*3", "atom_type": "CS"}, "5": {"label": "*1", "atom_type": "Cs"}, "6": {"label": "*0", "atom_type": "S2s"}, "10": {"label": "*2", "atom_type": "H0"}}

>  <type>  (7) 
unop_3

>  <geom_source>  (7) 
Heuristics

$$$$

     RDKit          3D

 13 11  0  0  0  0  0  0  0  0999 V2000
    0.6885   -2.3696   -0.3245 S   0  0  0  0  0  0  0  0  0  0  0  0
    0.7742   -0.7349    0.2192 C   0  0  0  0  0  3  0  0  0  0  0  0
    1.3656   -0.1589    1.6034 S   0  0  0  0  0  0  0  0  0  0  0  0
    1.2559   -2.9231    0.7592 H   0  0  0  0  0  0  0  0  0  0  0  0
   -1.2500    0.6241   -2.2479 C   0  0  0  0  0  0  0  0  0  0  0  0
   -1.2500    0.6241   -0.7293 C   0  0  0  0  0  0  0  0  0  0  0  0
   -1.2500    2.2814    0.0157 S   0  0  0  0  0  0  0  0  0  0  0  0
   -0.3434    1.0895   -2.6387 H   0  0  0  0  0  0  0  0  0  0  0  0
   -2.1060    1.1753   -2.6380 H   0  0  0  0  0  0  0  0  0  0  0  0
   -1.2931   -0.3993   -2.6282 H   0  0  0  0  0  0  0  0  0  0  0  0
   -0.2381   -0.0553   -0.2551 H   0  0  0  0  0  0  0  0  0  0  0  0
   -2.1576    0.1570   -0.3441 H   0  0  0  0  0  0  0  0  0  0  0  0
   -0.0752    2.6831   -0.4878 H   0  0  0  0  0  0  0  0  0  0  0  0
  1  2  1  0
  1  4  1  0
  2  3  2  0
  5  6  1  0
  5  8  1  0
  5  9  1  0
  5 10  1  0
  6  7  1  0
  6 11  1  0
  6 12  1  0
  7 13  1  0
M  RAD  1   2   2
M  END
>  <reaction>  (8) 
rxn_1903

>  <mol_properties>  (8) 
{"0": {"label": "*4", "atom_type": "S2s"}, "1": {"label": "*3", "atom_type": "CS"}, "5": {"label": "*1", "atom_type": "Cs"}, "6": {"label": "*0", "atom_type": "S2s"}, "10": {"label": "*2", "atom_type": "H0"}}

>  <type>  (8) 
unop_4

>  <geom_source>  (8) 
Heuristics

$$$$

     RDKit          3D

 13 11  0  0  0  0  0  0  0  0999 V2000
    0.6149   -0.8069    1.9559 S   0  0  0  0  0  0  0  0  0  0  0  0
    0.6501   -0.8305    0.2315 C   0  0  0  0  0  3  0  0  0  0  0  0
    1.7121   -1.5435   -0.7490 S   0  0  0  0  0  0  0  0  0  0  0  0
    1.7187   -1.5480    2.1433 H   0  0  0  0  0  0  0  0  0  0  0  0
   -1.3742    0.5284   -2.2357 C   0  0  0  0  0  0  0  0  0  0  0  0
   -1.3742    0.5284   -0.7170 C   0  0  0  0  0  0  0  0  0  0  0  0
   -1.3742    2.1858    0.0280 S   0  0  0  0  0  0  0  0  0  0  0  0
   -0.4676    0.9939   -2.6264 H   0  0  0  0  0  0  0  0  0  0  0  0
   -2.2302    1.0796   -2.6258 H   0  0  0  0  0  0  0  0  0  0  0  0
   -1.4173   -0.4949   -2.6159 H   0  0  0  0  0  0  0  0  0  0  0  0
   -0.3623   -0.1509   -0.2429 H   0  0  0  0  0  0  0  0  0  0  0  0
   -2.2818    0.0614   -0.3319 H   0  0  0  0  0  0  0  0  0  0  0  0
   -0.1994    2.5875   -0.4755 H   0  0  0  0  0  0  0  0  0  0  0  0
  1  2  1  0
  1  4  1  0
  2  3  2  0
  5  6  1  0
  5  8  1  0
  5  9  1  0
  5 10  1  0
  6  7  1  0
  6 11  1  0
  6 12  1  0
  7 13  1  0
M  RAD  1   2   2
M  END
>  <reaction>  (9) 
rxn_1903

>  <mol_properties>  (9) 
{"0": {"label": "*4", "atom_type": "S2s"}, "1": {"label": "*3", "atom_type": "CS"}, "5": {"label": "*1", "atom_type": "Cs"}, "6": {"label": "*0", "atom_type": "S2s"}, "10": {"label": "*2", "atom_type": "H0"}}

>  <type>  (9) 
unop_5

>  <geom_source>  (9) 
Heuristics

$$$$

     RDKit          3D

 13 11  0  0  0  0  0  0  0  0999 V2000
    0.3337   -2.4656    0.3527 S   0  0  0  0  0  0  0  0  0  0  0  0
    0.7848   -0.8144    0.1403 C   0  0  0  0  0  3  0  0  0  0  0  0
    1.7042    0.1127    1.0853 S   0  0  0  0  0  0  0  0  0  0  0  0
    0.9893   -2.6577    1.5086 H   0  0  0  0  0  0  0  0  0  0  0  0
   -1.2394    0.5446   -2.3268 C   0  0  0  0  0  0  0  0  0  0  0  0
   -1.2394    0.5446   -0.8081 C   0  0  0  0  0  0  0  0  0  0  0  0
   -1.2394    2.2020   -0.0632 S   0  0  0  0  0  0  0  0  0  0  0  0
   -0.3328    1.0101   -2.7176 H   0  0  0  0  0  0  0  0  0  0  0  0
   -2.0954    1.0958   -2.7169 H   0  0  0  0  0  0  0  0  0  0  0  0
   -1.2825   -0.4787   -2.7071 H   0  0  0  0  0  0  0  0  0  0  0  0
   -0.2275   -0.1347   -0.3340 H   0  0  0  0  0  0  0  0  0  0  0  0
   -2.1470    0.0776   -0.4230 H   0  0  0  0  0  0  0  0  0  0  0  0
   -0.0646    2.6037   -0.5667 H   0  0  0  0  0  0  0  0  0  0  0  0
  1  2  1  0
  1  4  1  0
  2  3  2  0
  5  6  1  0
  5  8  1  0
  5  9  1  0
  5 10  1  0
  6  7  1  0
  6 11  1  0
  6 12  1  0
  7 13  1  0
M  RAD  1   2   2
M  END
>  <reaction>  (10) 
rxn_1903

>  <mol_properties>  (10) 
{"0": {"label": "*4", "atom_type": "S2s"}, "1": {"label": "*3", "atom_type": "CS"}, "5": {"label": "*1", "atom_type": "Cs"}, "6": {"label": "*0", "atom_type": "S2s"}, "10": {"label": "*2", "atom_type": "H0"}}

>  <type>  (10) 
unop_6

>  <geom_source>  (10) 
Heuristics

$$$$

     RDKit          3D

 13 11  0  0  0  0  0  0  0  0999 V2000
    0.1578   -2.2135    1.0906 S   0  0  0  0  0  0  0  0  0  0  0  0
    0.7319   -0.9066    0.1222 C   0  0  0  0  0  3  0  0  0  0  0  0
    1.9993    0.0571    0.3724 S   0  0  0  0  0  0  0  0  0  0  0  0
    1.0955   -2.1210    2.0470 H   0  0  0  0  0  0  0  0  0  0  0  0
   -1.2923    0.4524   -2.3449 C   0  0  0  0  0  0  0  0  0  0  0  0
   -1.2923    0.4524   -0.8263 C   0  0  0  0  0  0  0  0  0  0  0  0
   -1.2923    2.1098   -0.0813 S   0  0  0  0  0  0  0  0  0  0  0  0
   -0.3857    0.9178   -2.7357 H   0  0  0  0  0  0  0  0  0  0  0  0
   -2.1483    1.0036   -2.7350 H   0  0  0  0  0  0  0  0  0  0  0  0
   -1.3354   -0.5710   -2.7252 H   0  0  0  0  0  0  0  0  0  0  0  0
   -0.2804   -0.2269   -0.3521 H   0  0  0  0  0  0  0  0  0  0  0  0
   -2.2000   -0.0147   -0.4411 H   0  0  0  0  0  0  0  0  0  0  0  0
   -0.1175    2.5114   -0.5848 H   0  0  0  0  0  0  0  0  0  0  0  0
  1  2  1  0
  1  4  1  0
  2  3  2  0
  5  6  1  0
  5  8  1  0
  5  9  1  0
  5 10  1  0
  6  7  1  0
  6 11  1  0
  6 12  1  0
  7 13  1  0
M  RAD  1   2   2
M  END
>  <reaction>  (11) 
rxn_1903

>  <mol_properties>  (11) 
{"0": {"label": "*4", "atom_type": "S2s"}, "1": {"label": "*3", "atom_type": "CS"}, "5": {"label": "*1", "atom_type": "Cs"}, "6": {"label": "*0", "atom_type": "S2s"}, "10": {"label": "*2", "atom_type": "H0"}}

>  <type>  (11) 
unop_7

>  <geom_source>  (11) 
Heuristics

$$$$

     RDKit          3D

 13 11  0  0  0  0  0  0  0  0999 V2000
    2.0436    0.0813    0.3527 S   0  0  0  0  0  0  0  0  0  0  0  0
    0.6861   -0.9614    0.1403 C   0  0  0  0  0  3  0  0  0  0  0  0
    0.1762   -2.1633    1.0853 S   0  0  0  0  0  0  0  0  0  0  0  0
    2.4697   -0.4527    1.5086 H   0  0  0  0  0  0  0  0  0  0  0  0
   -1.3382    0.3976   -2.3268 C   0  0  0  0  0  0  0  0  0  0  0  0
   -1.3382    0.3976   -0.8081 C   0  0  0  0  0  0  0  0  0  0  0  0
   -1.3382    2.0549   -0.0632 S   0  0  0  0  0  0  0  0  0  0  0  0
   -0.4315    0.8630   -2.7176 H   0  0  0  0  0  0  0  0  0  0  0  0
   -2.1941    0.9488   -2.7169 H   0  0  0  0  0  0  0  0  0  0  0  0
   -1.3812   -0.6258   -2.7071 H   0  0  0  0  0  0  0  0  0  0  0  0
   -0.3263   -0.2818   -0.3340 H   0  0  0  0  0  0  0  0  0  0  0  0
   -2.2458   -0.0695   -0.4230 H   0  0  0  0  0  0  0  0  0  0  0  0
   -0.1634    2.4566   -0.5667 H   0  0  0  0  0  0  0  0  0  0  0  0
  1  2  1  0
  1  4  1  0
  2  3  2  0
  5  6  1  0
  5  8  1  0
  5  9  1  0
  5 10  1  0
  6  7  1  0
  6 11  1  0
  6 12  1  0
  7 13  1  0
M  RAD  1   2   2
M  END
>  <reaction>  (12) 
rxn_1903

>  <mol_properties>  (12) 
{"0": {"label": "*4", "atom_type": "S2s"}, "1": {"label": "*3", "atom_type": "CS"}, "5": {"label": "*1", "atom_type": "Cs"}, "6": {"label": "*0", "atom_type": "S2s"}, "10": {"label": "*2", "atom_type": "H0"}}

>  <type>  (12) 
unop_8

>  <geom_source>  (12) 
Heuristics

$$$$

     RDKit          3D

 13 11  0  0  0  0  0  0  0  0999 V2000
    1.1251   -1.9869   -0.7852 S   0  0  0  0  0  0  0  0  0  0  0  0
    0.7012   -0.7252    0.3119 C   0  0  0  0  0  3  0  0  0  0  0  0
    1.0800   -0.5705    1.8708 S   0  0  0  0  0  0  0  0  0  0  0  0
    1.8301   -2.7222    0.0895 H   0  0  0  0  0  0  0  0  0  0  0  0
   -1.3231    0.6338   -2.1553 C   0  0  0  0  0  0  0  0  0  0  0  0
   -1.3231    0.6338   -0.6366 C   0  0  0  0  0  0  0  0  0  0  0  0
   -1.3231    2.2912    0.1084 S   0  0  0  0  0  0  0  0  0  0  0  0
   -0.4165    1.0992   -2.5460 H   0  0  0  0  0  0  0  0  0  0  0  0
   -2.1791    1.1850   -2.5454 H   0  0  0  0  0  0  0  0  0  0  0  0
   -1.3662   -0.3896   -2.5356 H   0  0  0  0  0  0  0  0  0  0  0  0
   -0.3112   -0.0455   -0.1625 H   0  0  0  0  0  0  0  0  0  0  0  0
   -2.2307    0.1668   -0.2515 H   0  0  0  0  0  0  0  0  0  0  0  0
   -0.1483    2.6928   -0.3951 H   0  0  0  0  0  0  0  0  0  0  0  0
  1  2  1  0
  1  4  1  0
  2  3  2  0
  5  6  1  0
  5  8  1  0
  5  9  1  0
  5 10  1  0
  6  7  1  0
  6 11  1  0
  6 12  1  0
  7 13  1  0
M  RAD  1   2   2
M  END
>  <reaction>  (13) 
rxn_1903

>  <mol_properties>  (13) 
{"0": {"label": "*4", "atom_type": "S2s"}, "1": {"label": "*3", "atom_type": "CS"}, "5": {"label": "*1", "atom_type": "Cs"}, "6": {"label": "*0", "atom_type": "S2s"}, "10": {"label": "*2", "atom_type": "H0"}}

>  <type>  (13) 
unop_9

>  <geom_source>  (13) 
Heuristics

$$$$

     RDKit          3D

 13 11  0  0  0  0  0  0  0  0999 V2000
    2.0891   -0.2833   -0.3245 S   0  0  0  0  0  0  0  0  0  0  0  0
    0.6086   -0.9817    0.2192 C   0  0  0  0  0  3  0  0  0  0  0  0
    0.2994   -1.7471    1.6034 S   0  0  0  0  0  0  0  0  0  0  0  0
    2.8162   -0.5990    0.7592 H   0  0  0  0  0  0  0  0  0  0  0  0
   -1.4157    0.3773   -2.2479 C   0  0  0  0  0  0  0  0  0  0  0  0
   -1.4157    0.3773   -0.7293 C   0  0  0  0  0  0  0  0  0  0  0  0
   -1.4157    2.0347    0.0157 S   0  0  0  0  0  0  0  0  0  0  0  0
   -0.5091    0.8427   -2.6387 H   0  0  0  0  0  0  0  0  0  0  0  0
   -2.2717    0.9285   -2.6380 H   0  0  0  0  0  0  0  0  0  0  0  0
   -1.4588   -0.6461   -2.6282 H   0  0  0  0  0  0  0  0  0  0  0  0
   -0.4038   -0.3020   -0.2551 H   0  0  0  0  0  0  0  0  0  0  0  0
   -2.3233   -0.0898   -0.3441 H   0  0  0  0  0  0  0  0  0  0  0  0
   -0.2409    2.4363   -0.4878 H   0  0  0  0  0  0  0  0  0  0  0  0
  1  2  1  0
  1  4  1  0
  2  3  2  0
  5  6  1  0
  5  8  1  0
  5  9  1  0
  5 10  1  0
  6  7  1  0
  6 11  1  0
  6 12  1  0
  7 13  1  0
M  RAD  1   2   2
M  END
>  <reaction>  (14) 
rxn_1903

>  <mol_properties>  (14) 
{"0": {"label": "*4", "atom_type": "S2s"}, "1": {"label": "*3", "atom_type": "CS"}, "5": {"label": "*1", "atom_type": "Cs"}, "6": {"label": "*0", "atom_type": "S2s"}, "10": {"label": "*2", "atom_type": "H0"}}

>  <type>  (14) 
unop_10

>  <geom_source>  (14) 
Heuristics

$$$$

     RDKit          3D

 13 11  0  0  0  0  0  0  0  0999 V2000
    0.2292   -1.6248    1.6984 S   0  0  0  0  0  0  0  0  0  0  0  0
    0.6511   -0.9309    0.1766 C   0  0  0  0  0  3  0  0  0  0  0  0
    2.1031   -0.4900   -0.3664 S   0  0  0  0  0  0  0  0  0  0  0  0
    1.4718   -1.6509    2.2064 H   0  0  0  0  0  0  0  0  0  0  0  0
   -1.3732    0.4281   -2.2905 C   0  0  0  0  0  0  0  0  0  0  0  0
   -1.3732    0.4281   -0.7719 C   0  0  0  0  0  0  0  0  0  0  0  0
   -1.3732    2.0854   -0.0269 S   0  0  0  0  0  0  0  0  0  0  0  0
   -0.4665    0.8935   -2.6813 H   0  0  0  0  0  0  0  0  0  0  0  0
   -2.2291    0.9793   -2.6806 H   0  0  0  0  0  0  0  0  0  0  0  0
   -1.4162   -0.5953   -2.6708 H   0  0  0  0  0  0  0  0  0  0  0  0
   -0.3613   -0.2513   -0.2977 H   0  0  0  0  0  0  0  0  0  0  0  0
   -2.2808   -0.0390   -0.3867 H   0  0  0  0  0  0  0  0  0  0  0  0
   -0.1984    2.4871   -0.5304 H   0  0  0  0  0  0  0  0  0  0  0  0
  1  2  1  0
  1  4  1  0
  2  3  2  0
  5  6  1  0
  5  8  1  0
  5  9  1  0
  5 10  1  0
  6  7  1  0
  6 11  1  0
  6 12  1  0
  7 13  1  0
M  RAD  1   2   2
M  END
>  <reaction>  (15) 
rxn_1903

>  <mol_properties>  (15) 
{"0": {"label": "*4", "atom_type": "S2s"}, "1": {"label": "*3", "atom_type": "CS"}, "5": {"label": "*1", "atom_type": "Cs"}, "6": {"label": "*0", "atom_type": "S2s"}, "10": {"label": "*2", "atom_type": "H0"}}

>  <type>  (15) 
unop_11

>  <geom_source>  (15) 
Heuristics

$$$$

     RDKit          3D

 13 11  0  0  0  0  0  0  0  0999 V2000
    1.5520   -1.4360   -0.9454 S   0  0  0  0  0  0  0  0  0  0  0  0
    0.6104   -0.8039    0.3543 C   0  0  0  0  0  3  0  0  0  0  0  0
    0.8431   -0.9602    1.9414 S   0  0  0  0  0  0  0  0  0  0  0  0
    2.4708   -2.0529   -0.1851 H   0  0  0  0  0  0  0  0  0  0  0  0
   -1.4139    0.5551   -2.1129 C   0  0  0  0  0  0  0  0  0  0  0  0
   -1.4139    0.5551   -0.5942 C   0  0  0  0  0  0  0  0  0  0  0  0
   -1.4139    2.2124    0.1508 S   0  0  0  0  0  0  0  0  0  0  0  0
   -0.5072    1.0205   -2.5036 H   0  0  0  0  0  0  0  0  0  0  0  0
   -2.2698    1.1063   -2.5030 H   0  0  0  0  0  0  0  0  0  0  0  0
   -1.4569   -0.4683   -2.4931 H   0  0  0  0  0  0  0  0  0  0  0  0
   -0.4020   -0.1243   -0.1201 H   0  0  0  0  0  0  0  0  0  0  0  0
   -2.3215    0.0880   -0.2091 H   0  0  0  0  0  0  0  0  0  0  0  0
   -0.2391    2.6141   -0.3527 H   0  0  0  0  0  0  0  0  0  0  0  0
  1  2  1  0
  1  4  1  0
  2  3  2  0
  5  6  1  0
  5  8  1  0
  5  9  1  0
  5 10  1  0
  6  7  1  0
  6 11  1  0
  6 12  1  0
  7 13  1  0
M  RAD  1   2   2
M  END
>  <reaction>  (16) 
rxn_1903

>  <mol_properties>  (16) 
{"0": {"label": "*4", "atom_type": "S2s"}, "1": {"label": "*3", "atom_type": "CS"}, "5": {"label": "*1", "atom_type": "Cs"}, "6": {"label": "*0", "atom_type": "S2s"}, "10": {"label": "*2", "atom_type": "H0"}}

>  <type>  (16) 
unop_12

>  <geom_source>  (16) 
Heuristics

$$$$

     RDKit          3D

 13 11  0  0  0  0  0  0  0  0999 V2000
   -2.0334    1.4780   -0.5519 S   0  0  0  0  0  0  0  0  0  0  0  0
    2.8637   -0.7058   -0.6169 S   0  0  0  0  0  0  0  0  0  0  0  0
    2.3259    2.0231   -0.3214 S   0  0  0  0  0  0  0  0  0  0  0  0
   -1.3047   -1.0238    0.3302 C   0  0  0  0  0  0  0  0  0  0  0  0
   -0.7480    0.2039   -0.3730 C   0  0  0  0  0  3  0  0  0  0  0  0
    1.8067    0.6894   -0.2457 C   0  0  0  0  0  0  0  0  0  0  0  0
   -2.1471   -1.4518   -0.2535 H   0  0  0  0  0  0  0  0  0  0  0  0
   -1.6585   -0.7521    1.3467 H   0  0  0  0  0  0  0  0  0  0  0  0
   -0.5054   -1.7879    0.4242 H   0  0  0  0  0  0  0  0  0  0  0  0
   -0.3699   -0.0783   -1.3781 H   0  0  0  0  0  0  0  0  0  0  0  0
    0.5682    0.4941    0.0817 H   0  0  0  0  0  0  0  0  0  0  0  0
    3.2590   -0.8355    0.7279 H   0  0  0  0  0  0  0  0  0  0  0  0
   -2.0566    1.7466    0.8298 H   0  0  0  0  0  0  0  0  0  0  0  0
  1  5  1  0
  1 13  1  0
  2  6  1  0
  2 12  1  0
  3  6  2  0
  4  5  1  0
  4  7  1  0
  4  8  1  0
  4  9  1  0
  5 10  1  0
  6 11  1  0
M  RAD  1   5   2
M  END
>  <reaction>  (17) 
rxn_1903

>  <mol_properties>  (17) 
{"0": {"label": "*4", "atom_type": "S2s"}, "1": {"label": "*3", "atom_type": "CS"}, "5": {"label": "*1", "atom_type": "Cs"}, "6": {"label": "*0", "atom_type": "S2s"}, "10": {"label": "*2", "atom_type": "H0"}}

>  <type>  (17) 
unop_13

>  <geom_source>  (17) 
AutoTST

$$$$
