
     RDKit          3D

  7  6  0  0  0  0  0  0  0  0999 V2000
    1.6964   -0.0938    0.0583 C   0  0  0  0  0  0  0  0  0  0  0  0
    0.5019   -0.0278    0.0173 C   0  0  0  0  0  0  0  0  0  0  0  0
   -0.9505    0.0525   -0.0327 C   0  0  0  0  0  0  0  0  0  0  0  0
    2.7574   -0.1524    0.0947 H   0  0  0  0  0  0  0  0  0  0  0  0
   -1.2692    0.9972   -0.4754 H   0  0  0  0  0  0  0  0  0  0  0  0
   -1.3749   -0.0147    0.9700 H   0  0  0  0  0  0  0  0  0  0  0  0
   -1.3610   -0.7611   -0.6323 H   0  0  0  0  0  0  0  0  0  0  0  0
  1  2  3  0
  1  4  1  0
  2  3  1  0
  3  5  1  0
  3  6  1  0
  3  7  1  0
M  END
>  <reaction>  (1) 
rxn_1219

>  <mol_properties>  (1) 
{"2": {"label": "donator", "atom_type": "Cs"}, "4": {"label": "d_hydrogen", "atom_type": "H0"}}

>  <type>  (1) 
r1h

$$$$

     RDKit          3D

 11 10  0  0  0  0  0  0  0  0999 V2000
    2.0591    0.2533   -0.1061 C   0  0  0  0  0  0  0  0  0  0  0  0
    0.8045   -0.3111   -0.1535 C   0  0  0  0  0  0  0  0  0  0  0  0
   -0.3816    0.3942   -0.1885 C   0  0  0  0  0  3  0  0  0  0  0  0
   -1.7316   -0.2294   -0.2396 C   0  0  0  0  0  0  0  0  0  0  0  0
    2.9505   -0.3576   -0.0805 H   0  0  0  0  0  0  0  0  0  0  0  0
    2.1872    1.3290   -0.0933 H   0  0  0  0  0  0  0  0  0  0  0  0
    0.7385   -1.3970   -0.1643 H   0  0  0  0  0  0  0  0  0  0  0  0
   -0.3340    1.4795   -0.1783 H   0  0  0  0  0  0  0  0  0  0  0  0
   -1.6704   -1.3186   -0.2461 H   0  0  0  0  0  0  0  0  0  0  0  0
   -2.3404    0.0713    0.6191 H   0  0  0  0  0  0  0  0  0  0  0  0
   -2.2805    0.0851   -1.1331 H   0  0  0  0  0  0  0  0  0  0  0  0
  1  2  2  3
  1  5  1  0
  1  6  1  0
  2  3  1  0
  2  7  1  0
  3  4  1  0
  3  8  1  0
  4  9  1  0
  4 10  1  0
  4 11  1  0
M  RAD  1   3   2
M  END
>  <reaction>  (2) 
rxn_1219

>  <mol_properties>  (2) 
{"2": {"label": "acceptor", "atom_type": "Cs"}}

>  <type>  (2) 
r2

$$$$

     RDKit          3D

 12 11  0  0  0  0  0  0  0  0999 V2000
    1.9877    0.1011    0.4814 C   0  0  0  0  0  0  0  0  0  0  0  0
    0.8179    0.5502    0.0525 C   0  0  0  0  0  0  0  0  0  0  0  0
   -0.2939   -0.2692   -0.5320 C   0  0  0  0  0  0  0  0  0  0  0  0
   -0.0292   -1.7631   -0.6328 C   0  0  0  0  0  0  0  0  0  0  0  0
    2.2522   -0.9490    0.4436 H   0  0  0  0  0  0  0  0  0  0  0  0
    2.7295    0.7757    0.8896 H   0  0  0  0  0  0  0  0  0  0  0  0
    0.6162    1.6164    0.1190 H   0  0  0  0  0  0  0  0  0  0  0  0
   -0.5268    0.1319   -1.5245 H   0  0  0  0  0  0  0  0  0  0  0  0
   -1.1959   -0.0938    0.0644 H   0  0  0  0  0  0  0  0  0  0  0  0
    0.1590   -2.1992    0.3502 H   0  0  0  0  0  0  0  0  0  0  0  0
    0.8382   -1.9701   -1.2626 H   0  0  0  0  0  0  0  0  0  0  0  0
   -0.8879   -2.2759   -1.0672 H   0  0  0  0  0  0  0  0  0  0  0  0
  1  2  2  3
  1  5  1  0
  1  6  1  0
  2  3  1  0
  2  7  1  0
  3  4  1  0
  3  8  1  0
  3  9  1  0
  4 10  1  0
  4 11  1  0
  4 12  1  0
M  END
>  <reaction>  (3) 
rxn_1219

>  <mol_properties>  (3) 
{"0": {"label": "a_hydrogen", "atom_type": "H0"}, "3": {"label": "acceptor", "atom_type": "Cs"}}

>  <type>  (3) 
r2h

$$$$

     RDKit          3D

 18 16  0  0  0  0  0  0  0  0999 V2000
    0.9475   -3.2436   -0.3029 C   0  0  0  0  0  0  0  0  0  0  0  0
    0.1180   -2.3827   -0.4486 C   0  0  0  0  0  0  0  0  0  0  0  0
   -0.8207   -1.3302   -0.5645 C   0  0  0  0  0  3  0  0  0  0  0  0
    1.6683   -4.0173   -0.1930 H   0  0  0  0  0  0  0  0  0  0  0  0
   -0.4580   -0.3419    0.3454 H   0  0  0  0  0  0  0  0  0  0  0  0
   -1.8311   -1.5633   -0.2396 H   0  0  0  0  0  0  0  0  0  0  0  0
   -0.7842   -0.7651   -1.4923 H   0  0  0  0  0  0  0  0  0  0  0  0
   -0.5116    2.8323    0.1713 C   0  0  0  0  0  0  0  0  0  0  0  0
   -0.8366    1.7602    0.8954 C   0  0  0  0  0  0  0  0  0  0  0  0
    0.0105    0.5911    1.1330 C   0  0  0  0  0  0  0  0  0  0  0  0
    1.4699    0.6501    0.7640 C   0  0  0  0  0  0  0  0  0  0  0  0
   -1.2156    3.6409    0.0247 H   0  0  0  0  0  0  0  0  0  0  0  0
    0.4650    2.9453   -0.2836 H   0  0  0  0  0  0  0  0  0  0  0  0
   -1.8312    1.7155    1.3307 H   0  0  0  0  0  0  0  0  0  0  0  0
   -0.1771    0.1188    2.0974 H   0  0  0  0  0  0  0  0  0  0  0  0
    2.0002    1.3904    1.3697 H   0  0  0  0  0  0  0  0  0  0  0  0
    1.9417   -0.3205    0.9178 H   0  0  0  0  0  0  0  0  0  0  0  0
    1.6047    0.9205   -0.2852 H   0  0  0  0  0  0  0  0  0  0  0  0
  1  2  3  0
  1  4  1  0
  2  3  1  0
  3  6  1  0
  3  7  1  0
  5 10  1  0
  8  9  2  3
  8 12  1  0
  8 13  1  0
  9 10  1  0
  9 14  1  0
 10 11  1  0
 10 15  1  0
 11 16  1  0
 11 17  1  0
 11 18  1  0
M  RAD  1   3   2
M  END
>  <reaction>  (4) 
rxn_1219

>  <mol_properties>  (4) 
{"1": {"label": "*4", "atom_type": "Ct"}, "2": {"label": "*3", "atom_type": "Cs"}, "4": {"label": "*2", "atom_type": "H0"}, "8": {"label": "*0", "atom_type": "Cd"}, "9": {"label": "*1", "atom_type": "Cs"}}

>  <type>  (4) 
ts

$$$$

     RDKit          3D

 18 16  0  0  0  0  0  0  0  0999 V2000
    0.1509   -1.8738   -2.8692 C   0  0  0  0  0  0  0  0  0  0  0  0
    0.1509   -1.8738   -1.6722 C   0  0  0  0  0  0  0  0  0  0  0  0
    0.1509   -1.8738   -0.2167 C   0  0  0  0  0  0  0  0  0  0  0  0
    0.1509   -1.8738   -3.9325 H   0  0  0  0  0  0  0  0  0  0  0  0
    0.2623   -0.6542    0.2457 H   0  0  0  0  0  0  0  0  0  0  0  0
    0.9846   -2.4624    0.1686 H   0  0  0  0  0  0  0  0  0  0  0  0
   -0.7757   -2.3015    0.1686 H   0  0  0  0  0  0  0  0  0  0  0  0
   -1.2752    2.0637    1.9014 C   0  0  0  0  0  0  0  0  0  0  0  0
   -0.8383    0.8664    1.5415 C   0  0  0  0  0  0  0  0  0  0  0  0
    0.3743    0.5706    0.7101 C   0  0  0  0  0  3  0  0  0  0  0  0
    1.1662    1.7823    0.2448 C   0  0  0  0  0  0  0  0  0  0  0  0
   -2.1662    2.1746    2.5064 H   0  0  0  0  0  0  0  0  0  0  0  0
   -0.7671    2.9754    1.6103 H   0  0  0  0  0  0  0  0  0  0  0  0
   -1.3956   -0.0082    1.8677 H   0  0  0  0  0  0  0  0  0  0  0  0
    1.0257   -0.0977    1.2839 H   0  0  0  0  0  0  0  0  0  0  0  0
    1.5369    2.3624    1.0921 H   0  0  0  0  0  0  0  0  0  0  0  0
    2.0260    1.4726   -0.3503 H   0  0  0  0  0  0  0  0  0  0  0  0
    0.5534    2.4433   -0.3711 H   0  0  0  0  0  0  0  0  0  0  0  0
  1  2  3  0
  1  4  1  0
  2  3  1  0
  3  5  1  0
  3  6  1  0
  3  7  1  0
  8  9  2  3
  8 12  1  0
  8 13  1  0
  9 10  1  0
  9 14  1  0
 10 11  1  0
 10 15  1  0
 11 16  1  0
 11 17  1  0
 11 18  1  0
M  RAD  1  10   2
M  END
>  <reaction>  (5) 
rxn_1219

>  <mol_properties>  (5) 
{"1": {"label": "*4", "atom_type": "Ct"}, "2": {"label": "*3", "atom_type": "Cs"}, "4": {"label": "*2", "atom_type": "H0"}, "8": {"label": "*0", "atom_type": "Cd"}, "9": {"label": "*1", "atom_type": "Cs"}}

>  <type>  (5) 
unop_1

>  <geom_source>  (5) 
Heuristics

$$$$

     RDKit          3D

 18 16  0  0  0  0  0  0  0  0999 V2000
   -0.2121   -1.9485   -2.4239 C   0  0  0  0  0  0  0  0  0  0  0  0
   -0.2121   -1.9485   -1.2268 C   0  0  0  0  0  0  0  0  0  0  0  0
   -0.2121   -1.9485    0.2286 C   0  0  0  0  0  0  0  0  0  0  0  0
   -0.2121   -1.9485   -3.4872 H   0  0  0  0  0  0  0  0  0  0  0  0
   -0.1006   -0.7289    0.6910 H   0  0  0  0  0  0  0  0  0  0  0  0
    0.6216   -2.5371    0.6139 H   0  0  0  0  0  0  0  0  0  0  0  0
   -1.1387   -2.3762    0.6139 H   0  0  0  0  0  0  0  0  0  0  0  0
   -0.1812    2.6319   -0.1748 C   0  0  0  0  0  0  0  0  0  0  0  0
   -0.6191    1.4292    0.1652 C   0  0  0  0  0  0  0  0  0  0  0  0
    0.0113    0.4959    1.1554 C   0  0  0  0  0  3  0  0  0  0  0  0
    1.2796    1.0023    1.8238 C   0  0  0  0  0  0  0  0  0  0  0  0
   -0.7093    3.2332   -0.9040 H   0  0  0  0  0  0  0  0  0  0  0  0
    0.7144    3.0635    0.2561 H   0  0  0  0  0  0  0  0  0  0  0  0
   -1.5250    1.0554   -0.3055 H   0  0  0  0  0  0  0  0  0  0  0  0
   -0.7363    0.2536    1.9187 H   0  0  0  0  0  0  0  0  0  0  0  0
    1.0939    1.9235    2.3796 H   0  0  0  0  0  0  0  0  0  0  0  0
    1.6658    0.2612    2.5244 H   0  0  0  0  0  0  0  0  0  0  0  0
    2.0604    1.2066    1.0886 H   0  0  0  0  0  0  0  0  0  0  0  0
  1  2  3  0
  1  4  1  0
  2  3  1  0
  3  5  1  0
  3  6  1  0
  3  7  1  0
  8  9  2  3
  8 12  1  0
  8 13  1  0
  9 10  1  0
  9 14  1  0
 10 11  1  0
 10 15  1  0
 11 16  1  0
 11 17  1  0
 11 18  1  0
M  RAD  1  10   2
M  END
>  <reaction>  (6) 
rxn_1219

>  <mol_properties>  (6) 
{"1": {"label": "*4", "atom_type": "Ct"}, "2": {"label": "*3", "atom_type": "Cs"}, "4": {"label": "*2", "atom_type": "H0"}, "8": {"label": "*0", "atom_type": "Cd"}, "9": {"label": "*1", "atom_type": "Cs"}}

>  <type>  (6) 
unop_2

>  <geom_source>  (6) 
Heuristics

$$$$

     RDKit          3D

 18 16  0  0  0  0  0  0  0  0999 V2000
    0.1490   -1.8035   -2.9772 C   0  0  0  0  0  0  0  0  0  0  0  0
    0.1490   -1.8035   -1.7802 C   0  0  0  0  0  0  0  0  0  0  0  0
    0.1490   -1.8035   -0.3248 C   0  0  0  0  0  0  0  0  0  0  0  0
    0.1490   -1.8035   -4.0405 H   0  0  0  0  0  0  0  0  0  0  0  0
    0.2605   -0.5839    0.1377 H   0  0  0  0  0  0  0  0  0  0  0  0
    0.9827   -2.3921    0.0606 H   0  0  0  0  0  0  0  0  0  0  0  0
   -0.7776   -2.2312    0.0606 H   0  0  0  0  0  0  0  0  0  0  0  0
   -0.9292    1.7671    2.4478 C   0  0  0  0  0  0  0  0  0  0  0  0
   -0.3374    0.7057    1.9216 C   0  0  0  0  0  0  0  0  0  0  0  0
    0.3724    0.6408    0.6021 C   0  0  0  0  0  3  0  0  0  0  0  0
    0.4030    1.9357   -0.1943 C   0  0  0  0  0  0  0  0  0  0  0  0
   -1.4180    1.7135    3.4124 H   0  0  0  0  0  0  0  0  0  0  0  0
   -0.9510    2.7257    1.9430 H   0  0  0  0  0  0  0  0  0  0  0  0
   -0.3521   -0.2264    2.4810 H   0  0  0  0  0  0  0  0  0  0  0  0
    1.3960    0.2947    0.7827 H   0  0  0  0  0  0  0  0  0  0  0  0
    0.9059    2.7302    0.3604 H   0  0  0  0  0  0  0  0  0  0  0  0
    0.9370    1.7947   -1.1346 H   0  0  0  0  0  0  0  0  0  0  0  0
   -0.6060    2.2793   -0.4307 H   0  0  0  0  0  0  0  0  0  0  0  0
  1  2  3  0
  1  4  1  0
  2  3  1  0
  3  5  1  0
  3  6  1  0
  3  7  1  0
  8  9  2  3
  8 12  1  0
  8 13  1  0
  9 10  1  0
  9 14  1  0
 10 11  1  0
 10 15  1  0
 11 16  1  0
 11 17  1  0
 11 18  1  0
M  RAD  1  10   2
M  END
>  <reaction>  (7) 
rxn_1219

>  <mol_properties>  (7) 
{"1": {"label": "*4", "atom_type": "Ct"}, "2": {"label": "*3", "atom_type": "Cs"}, "4": {"label": "*2", "atom_type": "H0"}, "8": {"label": "*0", "atom_type": "Cd"}, "9": {"label": "*1", "atom_type": "Cs"}}

>  <type>  (7) 
unop_3

>  <geom_source>  (7) 
Heuristics

$$$$

     RDKit          3D

 18 16  0  0  0  0  0  0  0  0999 V2000
   -0.6831   -1.4716   -2.8120 C   0  0  0  0  0  0  0  0  0  0  0  0
   -0.6831   -1.4716   -1.6150 C   0  0  0  0  0  0  0  0  0  0  0  0
   -0.6831   -1.4716   -0.1596 C   0  0  0  0  0  0  0  0  0  0  0  0
   -0.6831   -1.4716   -3.8753 H   0  0  0  0  0  0  0  0  0  0  0  0
   -0.5716   -0.2520    0.3028 H   0  0  0  0  0  0  0  0  0  0  0  0
    0.1506   -2.0602    0.2258 H   0  0  0  0  0  0  0  0  0  0  0  0
   -1.6097   -1.8993    0.2258 H   0  0  0  0  0  0  0  0  0  0  0  0
    2.0055    1.5019    0.8779 C   0  0  0  0  0  0  0  0  0  0  0  0
    0.8323    1.5453    0.2651 C   0  0  0  0  0  0  0  0  0  0  0  0
   -0.4597    0.9727    0.7672 C   0  0  0  0  0  3  0  0  0  0  0  0
   -0.3918    0.2771    2.1176 C   0  0  0  0  0  0  0  0  0  0  0  0
    2.8857    1.9470    0.4315 H   0  0  0  0  0  0  0  0  0  0  0  0
    2.1362    1.0249    1.8420 H   0  0  0  0  0  0  0  0  0  0  0  0
    0.7703    2.0399   -0.7011 H   0  0  0  0  0  0  0  0  0  0  0  0
   -1.1983    1.7810    0.8054 H   0  0  0  0  0  0  0  0  0  0  0  0
   -0.0614    0.9628    2.9003 H   0  0  0  0  0  0  0  0  0  0  0  0
   -1.3727   -0.1060    2.4010 H   0  0  0  0  0  0  0  0  0  0  0  0
    0.3027   -0.5649    2.0950 H   0  0  0  0  0  0  0  0  0  0  0  0
  1  2  3  0
  1  4  1  0
  2  3  1  0
  3  5  1  0
  3  6  1  0
  3  7  1  0
  8  9  2  3
  8 12  1  0
  8 13  1  0
  9 10  1  0
  9 14  1  0
 10 11  1  0
 10 15  1  0
 11 16  1  0
 11 17  1  0
 11 18  1  0
M  RAD  1  10   2
M  END
>  <reaction>  (8) 
rxn_1219

>  <mol_properties>  (8) 
{"1": {"label": "*4", "atom_type": "Ct"}, "2": {"label": "*3", "atom_type": "Cs"}, "4": {"label": "*2", "atom_type": "H0"}, "8": {"label": "*0", "atom_type": "Cd"}, "9": {"label": "*1", "atom_type": "Cs"}}

>  <type>  (8) 
unop_4

>  <geom_source>  (8) 
Heuristics

$$$$

     RDKit          3D

 18 16  0  0  0  0  0  0  0  0999 V2000
    0.1615   -1.6402   -3.0950 C   0  0  0  0  0  0  0  0  0  0  0  0
    0.1615   -1.6402   -1.8980 C   0  0  0  0  0  0  0  0  0  0  0  0
    0.1615   -1.6402   -0.4425 C   0  0  0  0  0  0  0  0  0  0  0  0
    0.1615   -1.6402   -4.1583 H   0  0  0  0  0  0  0  0  0  0  0  0
    0.2730   -0.4207    0.0199 H   0  0  0  0  0  0  0  0  0  0  0  0
    0.9952   -2.2288   -0.0572 H   0  0  0  0  0  0  0  0  0  0  0  0
   -0.7651   -2.0679   -0.0572 H   0  0  0  0  0  0  0  0  0  0  0  0
   -0.4556    1.3647    2.7970 C   0  0  0  0  0  0  0  0  0  0  0  0
    0.3788    0.7369    1.9825 C   0  0  0  0  0  0  0  0  0  0  0  0
    0.3849    0.8041    0.4843 C   0  0  0  0  0  3  0  0  0  0  0  0
   -0.6830    1.6880   -0.1403 C   0  0  0  0  0  0  0  0  0  0  0  0
   -0.3790    1.2517    3.8710 H   0  0  0  0  0  0  0  0  0  0  0  0
   -1.2433    2.0121    2.4300 H   0  0  0  0  0  0  0  0  0  0  0  0
    1.1470    0.1018    2.4165 H   0  0  0  0  0  0  0  0  0  0  0  0
    1.3766    1.1406    0.1626 H   0  0  0  0  0  0  0  0  0  0  0  0
   -0.5840    2.7234    0.1912 H   0  0  0  0  0  0  0  0  0  0  0  0
   -0.6025    1.6760   -1.2278 H   0  0  0  0  0  0  0  0  0  0  0  0
   -1.6853    1.3459    0.1249 H   0  0  0  0  0  0  0  0  0  0  0  0
  1  2  3  0
  1  4  1  0
  2  3  1  0
  3  5  1  0
  3  6  1  0
  3  7  1  0
  8  9  2  3
  8 12  1  0
  8 13  1  0
  9 10  1  0
  9 14  1  0
 10 11  1  0
 10 15  1  0
 11 16  1  0
 11 17  1  0
 11 18  1  0
M  RAD  1  10   2
M  END
>  <reaction>  (9) 
rxn_1219

>  <mol_properties>  (9) 
{"1": {"label": "*4", "atom_type": "Ct"}, "2": {"label": "*3", "atom_type": "Cs"}, "4": {"label": "*2", "atom_type": "H0"}, "8": {"label": "*0", "atom_type": "Cd"}, "9": {"label": "*1", "atom_type": "Cs"}}

>  <type>  (9) 
unop_5

>  <geom_source>  (9) 
Heuristics

$$$$

     RDKit          3D

 18 16  0  0  0  0  0  0  0  0999 V2000
   -0.5527   -1.3512   -3.0367 C   0  0  0  0  0  0  0  0  0  0  0  0
   -0.5527   -1.3512   -1.8397 C   0  0  0  0  0  0  0  0  0  0  0  0
   -0.5527   -1.3512   -0.3843 C   0  0  0  0  0  0  0  0  0  0  0  0
   -0.5527   -1.3512   -4.1000 H   0  0  0  0  0  0  0  0  0  0  0  0
   -0.4413   -0.1316    0.0782 H   0  0  0  0  0  0  0  0  0  0  0  0
    0.2810   -1.9397    0.0011 H   0  0  0  0  0  0  0  0  0  0  0  0
   -1.4793   -1.7789    0.0011 H   0  0  0  0  0  0  0  0  0  0  0  0
    1.8859    1.0959    1.7518 C   0  0  0  0  0  0  0  0  0  0  0  0
    1.1299    1.3977    0.7072 C   0  0  0  0  0  0  0  0  0  0  0  0
   -0.3293    1.0932    0.5426 C   0  0  0  0  0  3  0  0  0  0  0  0
   -0.9858    0.3642    1.7042 C   0  0  0  0  0  0  0  0  0  0  0  0
    2.9355    1.3597    1.7767 H   0  0  0  0  0  0  0  0  0  0  0  0
    1.4929    0.5775    2.6185 H   0  0  0  0  0  0  0  0  0  0  0  0
    1.5872    1.9189   -0.1301 H   0  0  0  0  0  0  0  0  0  0  0  0
   -0.8548    2.0359    0.3545 H   0  0  0  0  0  0  0  0  0  0  0  0
   -0.9189    0.9460    2.6256 H   0  0  0  0  0  0  0  0  0  0  0  0
   -2.0416    0.1860    1.4973 H   0  0  0  0  0  0  0  0  0  0  0  0
   -0.5120   -0.6028    1.8837 H   0  0  0  0  0  0  0  0  0  0  0  0
  1  2  3  0
  1  4  1  0
  2  3  1  0
  3  5  1  0
  3  6  1  0
  3  7  1  0
  8  9  2  3
  8 12  1  0
  8 13  1  0
  9 10  1  0
  9 14  1  0
 10 11  1  0
 10 15  1  0
 11 16  1  0
 11 17  1  0
 11 18  1  0
M  RAD  1  10   2
M  END
>  <reaction>  (10) 
rxn_1219

>  <mol_properties>  (10) 
{"1": {"label": "*4", "atom_type": "Ct"}, "2": {"label": "*3", "atom_type": "Cs"}, "4": {"label": "*2", "atom_type": "H0"}, "8": {"label": "*0", "atom_type": "Cd"}, "9": {"label": "*1", "atom_type": "Cs"}}

>  <type>  (10) 
unop_6

>  <geom_source>  (10) 
Heuristics

$$$$

     RDKit          3D

 18 16  0  0  0  0  0  0  0  0999 V2000
   -0.3024   -1.3180   -3.1900 C   0  0  0  0  0  0  0  0  0  0  0  0
   -0.3024   -1.3180   -1.9929 C   0  0  0  0  0  0  0  0  0  0  0  0
   -0.3024   -1.3180   -0.5375 C   0  0  0  0  0  0  0  0  0  0  0  0
   -0.3024   -1.3180   -4.2532 H   0  0  0  0  0  0  0  0  0  0  0  0
   -0.1909   -0.0984   -0.0751 H   0  0  0  0  0  0  0  0  0  0  0  0
    0.5313   -1.9066   -0.1521 H   0  0  0  0  0  0  0  0  0  0  0  0
   -1.2290   -1.7457   -0.1521 H   0  0  0  0  0  0  0  0  0  0  0  0
    1.2823    0.8714    2.4991 C   0  0  0  0  0  0  0  0  0  0  0  0
    1.1671    1.1975    1.2207 C   0  0  0  0  0  0  0  0  0  0  0  0
   -0.0790    1.1264    0.3893 C   0  0  0  0  0  3  0  0  0  0  0  0
   -1.3228    0.6269    1.1072 C   0  0  0  0  0  0  0  0  0  0  0  0
    2.2304    0.9580    3.0145 H   0  0  0  0  0  0  0  0  0  0  0  0
    0.4431    0.5076    3.0802 H   0  0  0  0  0  0  0  0  0  0  0  0
    2.0491    1.5561    0.6959 H   0  0  0  0  0  0  0  0  0  0  0  0
   -0.2681    2.1221   -0.0266 H   0  0  0  0  0  0  0  0  0  0  0  0
   -1.5797    1.2716    1.9499 H   0  0  0  0  0  0  0  0  0  0  0  0
   -2.1759    0.6086    0.4280 H   0  0  0  0  0  0  0  0  0  0  0  0
   -1.1791   -0.3849    1.4913 H   0  0  0  0  0  0  0  0  0  0  0  0
  1  2  3  0
  1  4  1  0
  2  3  1  0
  3  5  1  0
  3  6  1  0
  3  7  1  0
  8  9  2  3
  8 12  1  0
  8 13  1  0
  9 10  1  0
  9 14  1  0
 10 11  1  0
 10 15  1  0
 11 16  1  0
 11 17  1  0
 11 18  1  0
M  RAD  1  10   2
M  END
>  <reaction>  (11) 
rxn_1219

>  <mol_properties>  (11) 
{"1": {"label": "*4", "atom_type": "Ct"}, "2": {"label": "*3", "atom_type": "Cs"}, "4": {"label": "*2", "atom_type": "H0"}, "8": {"label": "*0", "atom_type": "Cd"}, "9": {"label": "*1", "atom_type": "Cs"}}

>  <type>  (11) 
unop_7

>  <geom_source>  (11) 
Heuristics

$$$$

     RDKit          3D

 18 16  0  0  0  0  0  0  0  0999 V2000
    0.1318   -1.9316   -2.7138 C   0  0  0  0  0  0  0  0  0  0  0  0
    0.1318   -1.9316   -1.5168 C   0  0  0  0  0  0  0  0  0  0  0  0
    0.1318   -1.9316   -0.0613 C   0  0  0  0  0  0  0  0  0  0  0  0
    0.1318   -1.9316   -3.7771 H   0  0  0  0  0  0  0  0  0  0  0  0
    0.2432   -0.7120    0.4011 H   0  0  0  0  0  0  0  0  0  0  0  0
    0.9655   -2.5201    0.3240 H   0  0  0  0  0  0  0  0  0  0  0  0
   -0.7948   -2.3593    0.3240 H   0  0  0  0  0  0  0  0  0  0  0  0
   -1.3450    2.3561    1.1501 C   0  0  0  0  0  0  0  0  0  0  0  0
   -1.0247    1.0767    1.0301 C   0  0  0  0  0  0  0  0  0  0  0  0
    0.3552    0.5128    0.8655 C   0  0  0  0  0  3  0  0  0  0  0  0
    1.4842    1.5308    0.8360 C   0  0  0  0  0  0  0  0  0  0  0  0
   -2.3761    2.6655    1.2651 H   0  0  0  0  0  0  0  0  0  0  0  0
   -0.5988    3.1418    1.1386 H   0  0  0  0  0  0  0  0  0  0  0  0
   -1.8227    0.3387    1.0496 H   0  0  0  0  0  0  0  0  0  0  0  0
    0.5278   -0.2062    1.6739 H   0  0  0  0  0  0  0  0  0  0  0  0
    1.5215    2.1079    1.7620 H   0  0  0  0  0  0  0  0  0  0  0  0
    2.4464    1.0324    0.7137 H   0  0  0  0  0  0  0  0  0  0  0  0
    1.3633    2.2327    0.0086 H   0  0  0  0  0  0  0  0  0  0  0  0
  1  2  3  0
  1  4  1  0
  2  3  1  0
  3  5  1  0
  3  6  1  0
  3  7  1  0
  8  9  2  3
  8 12  1  0
  8 13  1  0
  9 10  1  0
  9 14  1  0
 10 11  1  0
 10 15  1  0
 11 16  1  0
 11 17  1  0
 11 18  1  0
M  RAD  1  10   2
M  END
>  <reaction>  (12) 
rxn_1219

>  <mol_properties>  (12) 
{"1": {"label": "*4", "atom_type": "Ct"}, "2": {"label": "*3", "atom_type": "Cs"}, "4": {"label": "*2", "atom_type": "H0"}, "8": {"label": "*0", "atom_type": "Cd"}, "9": {"label": "*1", "atom_type": "Cs"}}

>  <type>  (12) 
unop_8

>  <geom_source>  (12) 
Heuristics

$$$$

     RDKit          3D

 18 16  0  0  0  0  0  0  0  0999 V2000
   -0.6593   -1.6484   -2.5855 C   0  0  0  0  0  0  0  0  0  0  0  0
   -0.6593   -1.6484   -1.3885 C   0  0  0  0  0  0  0  0  0  0  0  0
   -0.6593   -1.6484    0.0669 C   0  0  0  0  0  0  0  0  0  0  0  0
   -0.6593   -1.6484   -3.6488 H   0  0  0  0  0  0  0  0  0  0  0  0
   -0.5478   -0.4289    0.5294 H   0  0  0  0  0  0  0  0  0  0  0  0
    0.1744   -2.2370    0.4523 H   0  0  0  0  0  0  0  0  0  0  0  0
   -1.5859   -2.0761    0.4523 H   0  0  0  0  0  0  0  0  0  0  0  0
    1.6143    1.9849    0.1263 C   0  0  0  0  0  0  0  0  0  0  0  0
    0.3533    1.5995    0.0036 C   0  0  0  0  0  0  0  0  0  0  0  0
   -0.4359    0.7959    0.9938 C   0  0  0  0  0  3  0  0  0  0  0  0
    0.3069    0.3944    2.2583 C   0  0  0  0  0  0  0  0  0  0  0  0
    2.0989    2.5660   -0.6480 H   0  0  0  0  0  0  0  0  0  0  0  0
    2.2111    1.7391    0.9967 H   0  0  0  0  0  0  0  0  0  0  0  0
   -0.1891    1.8801   -0.8959 H   0  0  0  0  0  0  0  0  0  0  0  0
   -1.3326    1.3670    1.2583 H   0  0  0  0  0  0  0  0  0  0  0  0
    0.6493    1.2709    2.8118 H   0  0  0  0  0  0  0  0  0  0  0  0
   -0.3421   -0.1842    2.9165 H   0  0  0  0  0  0  0  0  0  0  0  0
    1.1807   -0.2179    2.0270 H   0  0  0  0  0  0  0  0  0  0  0  0
  1  2  3  0
  1  4  1  0
  2  3  1  0
  3  5  1  0
  3  6  1  0
  3  7  1  0
  8  9  2  3
  8 12  1  0
  8 13  1  0
  9 10  1  0
  9 14  1  0
 10 11  1  0
 10 15  1  0
 11 16  1  0
 11 17  1  0
 11 18  1  0
M  RAD  1  10   2
M  END
>  <reaction>  (13) 
rxn_1219

>  <mol_properties>  (13) 
{"1": {"label": "*4", "atom_type": "Ct"}, "2": {"label": "*3", "atom_type": "Cs"}, "4": {"label": "*2", "atom_type": "H0"}, "8": {"label": "*0", "atom_type": "Cd"}, "9": {"label": "*1", "atom_type": "Cs"}}

>  <type>  (13) 
unop_9

>  <geom_source>  (13) 
Heuristics

$$$$

     RDKit          3D

 18 16  0  0  0  0  0  0  0  0999 V2000
    0.0154   -1.9703   -2.5408 C   0  0  0  0  0  0  0  0  0  0  0  0
    0.0154   -1.9703   -1.3438 C   0  0  0  0  0  0  0  0  0  0  0  0
    0.0154   -1.9703    0.1116 C   0  0  0  0  0  0  0  0  0  0  0  0
    0.0154   -1.9703   -3.6041 H   0  0  0  0  0  0  0  0  0  0  0  0
    0.1269   -0.7508    0.5740 H   0  0  0  0  0  0  0  0  0  0  0  0
    0.8491   -2.5589    0.4970 H   0  0  0  0  0  0  0  0  0  0  0  0
   -0.9112   -2.3980    0.4970 H   0  0  0  0  0  0  0  0  0  0  0  0
   -0.9741    2.5847    0.3725 C   0  0  0  0  0  0  0  0  0  0  0  0
   -0.9279    1.2713    0.5363 C   0  0  0  0  0  0  0  0  0  0  0  0
    0.2388    0.4740    1.0385 C   0  0  0  0  0  3  0  0  0  0  0  0
    1.4829    1.2750    1.3885 C   0  0  0  0  0  0  0  0  0  0  0  0
   -1.8678    3.0704    0.0019 H   0  0  0  0  0  0  0  0  0  0  0  0
   -0.1298    3.2249    0.5992 H   0  0  0  0  0  0  0  0  0  0  0  0
   -1.8109    0.6870    0.2897 H   0  0  0  0  0  0  0  0  0  0  0  0
   -0.0904   -0.0971    1.9135 H   0  0  0  0  0  0  0  0  0  0  0  0
    1.2767    2.0036    2.1750 H   0  0  0  0  0  0  0  0  0  0  0  0
    2.2760    0.6157    1.7429 H   0  0  0  0  0  0  0  0  0  0  0  0
    1.8619    1.8178    0.5203 H   0  0  0  0  0  0  0  0  0  0  0  0
  1  2  3  0
  1  4  1  0
  2  3  1  0
  3  5  1  0
  3  6  1  0
  3  7  1  0
  8  9  2  3
  8 12  1  0
  8 13  1  0
  9 10  1  0
  9 14  1  0
 10 11  1  0
 10 15  1  0
 11 16  1  0
 11 17  1  0
 11 18  1  0
M  RAD  1  10   2
M  END
>  <reaction>  (14) 
rxn_1219

>  <mol_properties>  (14) 
{"1": {"label": "*4", "atom_type": "Ct"}, "2": {"label": "*3", "atom_type": "Cs"}, "4": {"label": "*2", "atom_type": "H0"}, "8": {"label": "*0", "atom_type": "Cd"}, "9": {"label": "*1", "atom_type": "Cs"}}

>  <type>  (14) 
unop_10

>  <geom_source>  (14) 
Heuristics

$$$$

     RDKit          3D

 18 16  0  0  0  0  0  0  0  0999 V2000
   -0.0064   -1.4128   -3.2120 C   0  0  0  0  0  0  0  0  0  0  0  0
   -0.0064   -1.4128   -2.0150 C   0  0  0  0  0  0  0  0  0  0  0  0
   -0.0064   -1.4128   -0.5596 C   0  0  0  0  0  0  0  0  0  0  0  0
   -0.0064   -1.4128   -4.2753 H   0  0  0  0  0  0  0  0  0  0  0  0
    0.1051   -0.1932   -0.0971 H   0  0  0  0  0  0  0  0  0  0  0  0
    0.8273   -2.0013   -0.1742 H   0  0  0  0  0  0  0  0  0  0  0  0
   -0.9330   -1.8405   -0.1742 H   0  0  0  0  0  0  0  0  0  0  0  0
    0.3638    0.9473    2.8853 C   0  0  0  0  0  0  0  0  0  0  0  0
    0.9268    0.9667    1.6868 C   0  0  0  0  0  0  0  0  0  0  0  0
    0.2170    1.0316    0.3673 C   0  0  0  0  0  3  0  0  0  0  0  0
   -1.3011    1.0791    0.4369 C   0  0  0  0  0  0  0  0  0  0  0  0
    0.9652    0.8992    3.7843 H   0  0  0  0  0  0  0  0  0  0  0  0
   -0.7111    0.9783    3.0190 H   0  0  0  0  0  0  0  0  0  0  0  0
    2.0115    0.9331    1.6232 H   0  0  0  0  0  0  0  0  0  0  0  0
    0.5888    1.9069   -0.1766 H   0  0  0  0  0  0  0  0  0  0  0  0
   -1.6451    1.9563    0.9884 H   0  0  0  0  0  0  0  0  0  0  0  0
   -1.7295    1.1248   -0.5649 H   0  0  0  0  0  0  0  0  0  0  0  0
   -1.7029    0.1933    0.9327 H   0  0  0  0  0  0  0  0  0  0  0  0
  1  2  3  0
  1  4  1  0
  2  3  1  0
  3  5  1  0
  3  6  1  0
  3  7  1  0
  8  9  2  3
  8 12  1  0
  8 13  1  0
  9 10  1  0
  9 14  1  0
 10 11  1  0
 10 15  1  0
 11 16  1  0
 11 17  1  0
 11 18  1  0
M  RAD  1  10   2
M  END
>  <reaction>  (15) 
rxn_1219

>  <mol_properties>  (15) 
{"1": {"label": "*4", "atom_type": "Ct"}, "2": {"label": "*3", "atom_type": "Cs"}, "4": {"label": "*2", "atom_type": "H0"}, "8": {"label": "*0", "atom_type": "Cd"}, "9": {"label": "*1", "atom_type": "Cs"}}

>  <type>  (15) 
unop_11

>  <geom_source>  (15) 
Heuristics

$$$$

     RDKit          3D

 18 16  0  0  0  0  0  0  0  0999 V2000
   -0.4789   -1.8318   -2.4353 C   0  0  0  0  0  0  0  0  0  0  0  0
   -0.4789   -1.8318   -1.2383 C   0  0  0  0  0  0  0  0  0  0  0  0
   -0.4789   -1.8318    0.2171 C   0  0  0  0  0  0  0  0  0  0  0  0
   -0.4789   -1.8318   -3.4986 H   0  0  0  0  0  0  0  0  0  0  0  0
   -0.3674   -0.6123    0.6795 H   0  0  0  0  0  0  0  0  0  0  0  0
    0.3549   -2.4204    0.6025 H   0  0  0  0  0  0  0  0  0  0  0  0
   -1.4054   -2.2595    0.6025 H   0  0  0  0  0  0  0  0  0  0  0  0
    0.8010    2.4140   -0.2731 C   0  0  0  0  0  0  0  0  0  0  0  0
   -0.1699    1.5482   -0.0249 C   0  0  0  0  0  0  0  0  0  0  0  0
   -0.2555    0.6125    1.1440 C   0  0  0  0  0  3  0  0  0  0  0  0
    0.8997    0.6824    2.1302 C   0  0  0  0  0  0  0  0  0  0  0  0
    0.7721    3.0499   -1.1488 H   0  0  0  0  0  0  0  0  0  0  0  0
    1.6578    2.5239    0.3810 H   0  0  0  0  0  0  0  0  0  0  0  0
   -1.0017    1.4884   -0.7224 H   0  0  0  0  0  0  0  0  0  0  0  0
   -1.1988    0.8058    1.6665 H   0  0  0  0  0  0  0  0  0  0  0  0
    0.9863    1.6784    2.5689 H   0  0  0  0  0  0  0  0  0  0  0  0
    0.7530   -0.0295    2.9432 H   0  0  0  0  0  0  0  0  0  0  0  0
    1.8491    0.4462    1.6457 H   0  0  0  0  0  0  0  0  0  0  0  0
  1  2  3  0
  1  4  1  0
  2  3  1  0
  3  5  1  0
  3  6  1  0
  3  7  1  0
  8  9  2  3
  8 12  1  0
  8 13  1  0
  9 10  1  0
  9 14  1  0
 10 11  1  0
 10 15  1  0
 11 16  1  0
 11 17  1  0
 11 18  1  0
M  RAD  1  10   2
M  END
>  <reaction>  (16) 
rxn_1219

>  <mol_properties>  (16) 
{"1": {"label": "*4", "atom_type": "Ct"}, "2": {"label": "*3", "atom_type": "Cs"}, "4": {"label": "*2", "atom_type": "H0"}, "8": {"label": "*0", "atom_type": "Cd"}, "9": {"label": "*1", "atom_type": "Cs"}}

>  <type>  (16) 
unop_12

>  <geom_source>  (16) 
Heuristics

$$$$

     RDKit          3D

 18 16  0  0  0  0  0  0  0  0999 V2000
   -0.4768    0.5338   -0.3620 C   0  0  0  0  0  3  0  0  0  0  0  0
   -1.4292    1.5601    0.2422 C   0  0  0  0  0  0  0  0  0  0  0  0
   -1.2264   -0.5712   -1.0505 C   0  0  0  0  0  0  0  0  0  0  0  0
   -1.8969   -1.4967   -0.3594 C   0  0  0  0  0  0  0  0  0  0  0  0
    1.5190   -0.2328    1.1847 C   0  0  0  0  0  0  0  0  0  0  0  0
    2.6058   -0.2958    0.2072 C   0  0  0  0  0  0  0  0  0  0  0  0
    3.5011   -0.3475   -0.5983 C   0  0  0  0  0  0  0  0  0  0  0  0
    0.1775    1.0431   -1.1017 H   0  0  0  0  0  0  0  0  0  0  0  0
    0.3432   -0.0093    0.6560 H   0  0  0  0  0  0  0  0  0  0  0  0
   -0.8411    2.3770    0.7102 H   0  0  0  0  0  0  0  0  0  0  0  0
   -2.0801    1.9943   -0.5466 H   0  0  0  0  0  0  0  0  0  0  0  0
   -2.0613    1.0887    1.0241 H   0  0  0  0  0  0  0  0  0  0  0  0
   -1.1918   -0.6390   -2.1338 H   0  0  0  0  0  0  0  0  0  0  0  0
   -2.4157   -2.2940   -0.8815 H   0  0  0  0  0  0  0  0  0  0  0  0
   -1.9308   -1.4691    0.7255 H   0  0  0  0  0  0  0  0  0  0  0  0
    1.2909   -1.2549    1.5511 H   0  0  0  0  0  0  0  0  0  0  0  0
    1.8253    0.4062    2.0383 H   0  0  0  0  0  0  0  0  0  0  0  0
    4.2871   -0.3930   -1.3055 H   0  0  0  0  0  0  0  0  0  0  0  0
  1  2  1  0
  1  3  1  0
  1  8  1  0
  2 10  1  0
  2 11  1  0
  2 12  1  0
  3  4  2  3
  3 13  1  0
  4 14  1  0
  4 15  1  0
  5  6  1  0
  5  9  1  0
  5 16  1  0
  5 17  1  0
  6  7  3  0
  7 18  1  0
M  RAD  1   1   2
M  END
>  <reaction>  (17) 
rxn_1219

>  <mol_properties>  (17) 
{"1": {"label": "*4", "atom_type": "Ct"}, "2": {"label": "*3", "atom_type": "Cs"}, "4": {"label": "*2", "atom_type": "H0"}, "8": {"label": "*0", "atom_type": "Cd"}, "9": {"label": "*1", "atom_type": "Cs"}}

>  <type>  (17) 
unop_13

>  <geom_source>  (17) 
AutoTST

$$$$
