
     RDKit          3D

  6  5  0  0  0  0  0  0  0  0999 V2000
   -0.5072   -0.0291   -0.0097 C   0  0  0  0  0  0  0  0  0  0  0  0
    1.1321   -0.1527   -0.7687 S   0  0  0  0  0  0  0  0  0  0  0  0
   -0.6174   -0.7330    0.8127 H   0  0  0  0  0  0  0  0  0  0  0  0
   -0.5863    0.9827    0.3845 H   0  0  0  0  0  0  0  0  0  0  0  0
   -1.2962   -0.1800   -0.7434 H   0  0  0  0  0  0  0  0  0  0  0  0
    1.0312   -1.4237   -1.1764 H   0  0  0  0  0  0  0  0  0  0  0  0
  1  2  1  0
  1  3  1  0
  1  4  1  0
  1  5  1  0
  2  6  1  0
M  END
>  <reaction>  (1) 
rxn_1909

>  <mol_properties>  (1) 
{"0": {"label": "donator", "atom_type": "Cs"}, "2": {"label": "d_hydrogen", "atom_type": "H0"}}

>  <type>  (1) 
r1h

$$$$

     RDKit          3D

  7  6  0  0  0  0  0  0  0  0999 V2000
    1.3003    0.7433    2.1278 C   0  0  0  0  0  0  0  0  0  0  0  0
    0.5759    0.3292    1.2319 C   0  0  0  0  0  0  0  0  0  0  0  0
   -0.2057   -0.1176    0.2653 C   0  0  0  0  0  3  0  0  0  0  0  0
   -0.9747   -0.5572   -0.6858 C   0  0  0  0  0  0  0  0  0  0  0  0
    1.9294    1.1030    2.9059 H   0  0  0  0  0  0  0  0  0  0  0  0
   -1.9977   -0.8727   -0.4932 H   0  0  0  0  0  0  0  0  0  0  0  0
   -0.6274   -0.6280   -1.7142 H   0  0  0  0  0  0  0  0  0  0  0  0
  1  2  3  0
  1  5  1  0
  2  3  1  0
  3  4  2  3
  4  6  1  0
  4  7  1  0
M  RAD  1   3   2
M  END
>  <reaction>  (2) 
rxn_1909

>  <mol_properties>  (2) 
{"2": {"label": "acceptor", "atom_type": "Cd"}}

>  <type>  (2) 
r2

$$$$

     RDKit          3D

  8  7  0  0  0  0  0  0  0  0999 V2000
    1.9029    0.9046   -0.2050 C   0  0  0  0  0  0  0  0  0  0  0  0
    0.8517    0.4283    0.1217 C   0  0  0  0  0  0  0  0  0  0  0  0
   -0.3908   -0.1311    0.5404 C   0  0  0  0  0  0  0  0  0  0  0  0
   -1.2847   -0.6576   -0.2899 C   0  0  0  0  0  0  0  0  0  0  0  0
    2.8335    1.3255   -0.5014 H   0  0  0  0  0  0  0  0  0  0  0  0
   -0.5867   -0.1096    1.6074 H   0  0  0  0  0  0  0  0  0  0  0  0
   -2.2126   -1.0686    0.0850 H   0  0  0  0  0  0  0  0  0  0  0  0
   -1.1134   -0.6914   -1.3582 H   0  0  0  0  0  0  0  0  0  0  0  0
  1  2  3  0
  1  5  1  0
  2  3  1  0
  3  4  2  3
  3  6  1  0
  4  7  1  0
  4  8  1  0
M  END
>  <reaction>  (3) 
rxn_1909

>  <mol_properties>  (3) 
{"2": {"label": "acceptor", "atom_type": "Cd"}, "7": {"label": "a_hydrogen", "atom_type": "H0"}}

>  <type>  (3) 
r2h

$$$$

     RDKit          3D

 13 11  0  0  0  0  0  0  0  0999 V2000
   -1.0702    2.9390    0.5117 C   0  0  0  0  0  0  0  0  0  0  0  0
   -0.4321    1.9697    0.8353 C   0  0  0  0  0  0  0  0  0  0  0  0
    0.2855    0.8012    1.0914 C   0  0  0  0  0  3  0  0  0  0  0  0
    0.9282    0.3576    2.1549 C   0  0  0  0  0  0  0  0  0  0  0  0
   -1.6286    3.8058    0.2517 H   0  0  0  0  0  0  0  0  0  0  0  0
    1.4316   -0.6034    2.1326 H   0  0  0  0  0  0  0  0  0  0  0  0
    0.9767    0.9288    3.0773 H   0  0  0  0  0  0  0  0  0  0  0  0
    0.4284   -0.9700   -0.9096 C   0  0  0  0  0  0  0  0  0  0  0  0
    0.9370   -2.5303   -0.2526 S   0  0  0  0  0  0  0  0  0  0  0  0
    0.3363   -0.0769    0.0415 H   0  0  0  0  0  0  0  0  0  0  0  0
    1.1983   -0.5821   -1.5718 H   0  0  0  0  0  0  0  0  0  0  0  0
   -0.5537   -0.9718   -1.3754 H   0  0  0  0  0  0  0  0  0  0  0  0
   -0.2025   -2.8260    0.3861 H   0  0  0  0  0  0  0  0  0  0  0  0
  1  2  3  0
  1  5  1  0
  2  3  1  0
  3  4  2  3
  4  6  1  0
  4  7  1  0
  8  9  1  0
  8 10  1  0
  8 11  1  0
  8 12  1  0
  9 13  1  0
M  RAD  1   3   2
M  END
>  <reaction>  (4) 
rxn_1909

>  <mol_properties>  (4) 
{"1": {"label": "*4", "atom_type": "Ct"}, "2": {"label": "*3", "atom_type": "Cd"}, "7": {"label": "*1", "atom_type": "Cs"}, "8": {"label": "*0", "atom_type": "S2s"}, "9": {"label": "*2", "atom_type": "H0"}}

>  <type>  (4) 
ts

$$$$

     RDKit          3D

 13 11  0  0  0  0  0  0  0  0999 V2000
   -1.8458    1.6212    2.2105 C   0  0  0  0  0  0  0  0  0  0  0  0
   -0.8960    1.3405    1.5340 C   0  0  0  0  0  0  0  0  0  0  0  0
    0.2136    0.9919    0.7097 C   0  0  0  0  0  0  0  0  0  0  0  0
    1.4716    1.3236    0.9799 C   0  0  0  0  0  0  0  0  0  0  0  0
   -2.6880    1.8702    2.8102 H   0  0  0  0  0  0  0  0  0  0  0  0
    2.2750    1.0312    0.3168 H   0  0  0  0  0  0  0  0  0  0  0  0
    1.7294    1.8918    1.8644 H   0  0  0  0  0  0  0  0  0  0  0  0
    0.2136   -1.4364   -0.2405 C   0  0  0  0  0  3  0  0  0  0  0  0
    0.2136   -1.4364   -2.0512 S   0  0  0  0  0  0  0  0  0  0  0  0
    0.2136   -0.2206    0.2353 H   0  0  0  0  0  0  0  0  0  0  0  0
   -0.7071   -1.9306    0.0654 H   0  0  0  0  0  0  0  0  0  0  0  0
    1.0579   -1.9964    0.1560 H   0  0  0  0  0  0  0  0  0  0  0  0
    1.3839   -0.8083   -2.2176 H   0  0  0  0  0  0  0  0  0  0  0  0
  1  2  3  0
  1  5  1  0
  2  3  1  0
  3  4  2  3
  3 10  1  0
  4  6  1  0
  4  7  1  0
  8  9  1  0
  8 11  1  0
  8 12  1  0
  9 13  1  0
M  RAD  1   8   2
M  END
>  <reaction>  (5) 
rxn_1909

>  <mol_properties>  (5) 
{"1": {"label": "*4", "atom_type": "Ct"}, "2": {"label": "*3", "atom_type": "Cd"}, "7": {"label": "*1", "atom_type": "Cs"}, "8": {"label": "*0", "atom_type": "S2s"}, "9": {"label": "*2", "atom_type": "H0"}}

>  <type>  (5) 
unop_1

>  <geom_source>  (5) 
Heuristics

$$$$

     RDKit          3D

 13 11  0  0  0  0  0  0  0  0999 V2000
   -0.9925    2.5819   -0.3432 C   0  0  0  0  0  0  0  0  0  0  0  0
   -0.4551    1.7685    0.3555 C   0  0  0  0  0  0  0  0  0  0  0  0
    0.1855    0.7822    1.1610 C   0  0  0  0  0  0  0  0  0  0  0  0
    0.4557    0.9401    2.4524 C   0  0  0  0  0  0  0  0  0  0  0  0
   -1.4689    3.3031   -0.9628 H   0  0  0  0  0  0  0  0  0  0  0  0
    0.9447    0.1558    3.0149 H   0  0  0  0  0  0  0  0  0  0  0  0
    0.1972    1.8509    2.9772 H   0  0  0  0  0  0  0  0  0  0  0  0
    0.1855   -1.6461    0.2108 C   0  0  0  0  0  3  0  0  0  0  0  0
    0.1855   -1.6461   -1.5999 S   0  0  0  0  0  0  0  0  0  0  0  0
    0.1855   -0.4303    0.6865 H   0  0  0  0  0  0  0  0  0  0  0  0
   -0.7352   -2.1403    0.5167 H   0  0  0  0  0  0  0  0  0  0  0  0
    1.0298   -2.2061    0.6072 H   0  0  0  0  0  0  0  0  0  0  0  0
    1.3558   -1.0180   -1.7663 H   0  0  0  0  0  0  0  0  0  0  0  0
  1  2  3  0
  1  5  1  0
  2  3  1  0
  3  4  2  3
  3 10  1  0
  4  6  1  0
  4  7  1  0
  8  9  1  0
  8 11  1  0
  8 12  1  0
  9 13  1  0
M  RAD  1   8   2
M  END
>  <reaction>  (6) 
rxn_1909

>  <mol_properties>  (6) 
{"1": {"label": "*4", "atom_type": "Ct"}, "2": {"label": "*3", "atom_type": "Cd"}, "7": {"label": "*1", "atom_type": "Cs"}, "8": {"label": "*0", "atom_type": "S2s"}, "9": {"label": "*2", "atom_type": "H0"}}

>  <type>  (6) 
unop_2

>  <geom_source>  (6) 
Heuristics

$$$$

     RDKit          3D

 13 11  0  0  0  0  0  0  0  0999 V2000
   -1.1254    1.3073    2.9636 C   0  0  0  0  0  0  0  0  0  0  0  0
   -0.5692    1.1773    1.9089 C   0  0  0  0  0  0  0  0  0  0  0  0
    0.0714    0.9996    0.6479 C   0  0  0  0  0  0  0  0  0  0  0  0
    1.1194    1.7085    0.2417 C   0  0  0  0  0  0  0  0  0  0  0  0
   -1.6185    1.4226    3.8987 H   0  0  0  0  0  0  0  0  0  0  0  0
    1.5655    1.5298   -0.7276 H   0  0  0  0  0  0  0  0  0  0  0  0
    1.5554    2.4802    0.8630 H   0  0  0  0  0  0  0  0  0  0  0  0
    0.0714   -1.4287   -0.3024 C   0  0  0  0  0  3  0  0  0  0  0  0
    0.0714   -1.4287   -2.1130 S   0  0  0  0  0  0  0  0  0  0  0  0
    0.0714   -0.2129    0.1734 H   0  0  0  0  0  0  0  0  0  0  0  0
   -0.8493   -1.9229    0.0036 H   0  0  0  0  0  0  0  0  0  0  0  0
    0.9158   -1.9887    0.0941 H   0  0  0  0  0  0  0  0  0  0  0  0
    1.2417   -0.8006   -2.2794 H   0  0  0  0  0  0  0  0  0  0  0  0
  1  2  3  0
  1  5  1  0
  2  3  1  0
  3  4  2  3
  3 10  1  0
  4  6  1  0
  4  7  1  0
  8  9  1  0
  8 11  1  0
  8 12  1  0
  9 13  1  0
M  RAD  1   8   2
M  END
>  <reaction>  (7) 
rxn_1909

>  <mol_properties>  (7) 
{"1": {"label": "*4", "atom_type": "Ct"}, "2": {"label": "*3", "atom_type": "Cd"}, "7": {"label": "*1", "atom_type": "Cs"}, "8": {"label": "*0", "atom_type": "S2s"}, "9": {"label": "*2", "atom_type": "H0"}}

>  <type>  (7) 
unop_3

>  <geom_source>  (7) 
Heuristics

$$$$

     RDKit          3D

 13 11  0  0  0  0  0  0  0  0999 V2000
    1.7181    2.3424    0.3168 C   0  0  0  0  0  0  0  0  0  0  0  0
    0.7833    1.6692    0.6505 C   0  0  0  0  0  0  0  0  0  0  0  0
   -0.3263    0.8537    1.0193 C   0  0  0  0  0  0  0  0  0  0  0  0
   -0.9674    0.9536    2.1789 C   0  0  0  0  0  0  0  0  0  0  0  0
    2.5471    2.9393    0.0209 H   0  0  0  0  0  0  0  0  0  0  0  0
   -1.8047    0.3068    2.4052 H   0  0  0  0  0  0  0  0  0  0  0  0
   -0.6742    1.6791    2.9268 H   0  0  0  0  0  0  0  0  0  0  0  0
   -0.3263   -1.5746    0.0690 C   0  0  0  0  0  3  0  0  0  0  0  0
   -0.3263   -1.5746   -1.7416 S   0  0  0  0  0  0  0  0  0  0  0  0
   -0.3263   -0.3588    0.5448 H   0  0  0  0  0  0  0  0  0  0  0  0
   -1.2470   -2.0688    0.3750 H   0  0  0  0  0  0  0  0  0  0  0  0
    0.5181   -2.1346    0.4655 H   0  0  0  0  0  0  0  0  0  0  0  0
    0.8440   -0.9465   -1.9080 H   0  0  0  0  0  0  0  0  0  0  0  0
  1  2  3  0
  1  5  1  0
  2  3  1  0
  3  4  2  3
  3 10  1  0
  4  6  1  0
  4  7  1  0
  8  9  1  0
  8 11  1  0
  8 12  1  0
  9 13  1  0
M  RAD  1   8   2
M  END
>  <reaction>  (8) 
rxn_1909

>  <mol_properties>  (8) 
{"1": {"label": "*4", "atom_type": "Ct"}, "2": {"label": "*3", "atom_type": "Cd"}, "7": {"label": "*1", "atom_type": "Cs"}, "8": {"label": "*0", "atom_type": "S2s"}, "9": {"label": "*2", "atom_type": "H0"}}

>  <type>  (8) 
unop_4

>  <geom_source>  (8) 
Heuristics

$$$$

     RDKit          3D

 13 11  0  0  0  0  0  0  0  0999 V2000
   -0.0111    1.1596    3.2691 C   0  0  0  0  0  0  0  0  0  0  0  0
   -0.0111    1.0894    2.0717 C   0  0  0  0  0  0  0  0  0  0  0  0
   -0.0111    0.9743    0.6509 C   0  0  0  0  0  0  0  0  0  0  0  0
   -0.0111    2.0132   -0.1776 C   0  0  0  0  0  0  0  0  0  0  0  0
   -0.0111    1.2218    4.3307 H   0  0  0  0  0  0  0  0  0  0  0  0
   -0.0111    1.8655   -1.2494 H   0  0  0  0  0  0  0  0  0  0  0  0
   -0.0111    3.0309    0.1912 H   0  0  0  0  0  0  0  0  0  0  0  0
   -0.0111   -1.4541   -0.2994 C   0  0  0  0  0  3  0  0  0  0  0  0
   -0.0111   -1.4541   -2.1100 S   0  0  0  0  0  0  0  0  0  0  0  0
   -0.0111   -0.2382    0.1764 H   0  0  0  0  0  0  0  0  0  0  0  0
   -0.9318   -1.9482    0.0066 H   0  0  0  0  0  0  0  0  0  0  0  0
    0.8332   -2.0141    0.0971 H   0  0  0  0  0  0  0  0  0  0  0  0
    1.1592   -0.8259   -2.2764 H   0  0  0  0  0  0  0  0  0  0  0  0
  1  2  3  0
  1  5  1  0
  2  3  1  0
  3  4  2  3
  3 10  1  0
  4  6  1  0
  4  7  1  0
  8  9  1  0
  8 11  1  0
  8 12  1  0
  9 13  1  0
M  RAD  1   8   2
M  END
>  <reaction>  (9) 
rxn_1909

>  <mol_properties>  (9) 
{"1": {"label": "*4", "atom_type": "Ct"}, "2": {"label": "*3", "atom_type": "Cd"}, "7": {"label": "*1", "atom_type": "Cs"}, "8": {"label": "*0", "atom_type": "S2s"}, "9": {"label": "*2", "atom_type": "H0"}}

>  <type>  (9) 
unop_5

>  <geom_source>  (9) 
Heuristics

$$$$

     RDKit          3D

 13 11  0  0  0  0  0  0  0  0999 V2000
    2.0359    1.9952    1.2452 C   0  0  0  0  0  0  0  0  0  0  0  0
    0.9493    1.5163    1.0764 C   0  0  0  0  0  0  0  0  0  0  0  0
   -0.3319    0.9343    0.8487 C   0  0  0  0  0  0  0  0  0  0  0  0
   -1.3662    1.0719    1.6716 C   0  0  0  0  0  0  0  0  0  0  0  0
    2.9994    2.4198    1.3948 H   0  0  0  0  0  0  0  0  0  0  0  0
   -2.3169    0.6066    1.4472 H   0  0  0  0  0  0  0  0  0  0  0  0
   -1.2901    1.6489    2.5842 H   0  0  0  0  0  0  0  0  0  0  0  0
   -0.3319   -1.4940   -0.1016 C   0  0  0  0  0  3  0  0  0  0  0  0
   -0.3319   -1.4940   -1.9122 S   0  0  0  0  0  0  0  0  0  0  0  0
   -0.3319   -0.2782    0.3742 H   0  0  0  0  0  0  0  0  0  0  0  0
   -1.2526   -1.9882    0.2044 H   0  0  0  0  0  0  0  0  0  0  0  0
    0.5124   -2.0540    0.2949 H   0  0  0  0  0  0  0  0  0  0  0  0
    0.8384   -0.8659   -2.0786 H   0  0  0  0  0  0  0  0  0  0  0  0
  1  2  3  0
  1  5  1  0
  2  3  1  0
  3  4  2  3
  3 10  1  0
  4  6  1  0
  4  7  1  0
  8  9  1  0
  8 11  1  0
  8 12  1  0
  9 13  1  0
M  RAD  1   8   2
M  END
>  <reaction>  (10) 
rxn_1909

>  <mol_properties>  (10) 
{"1": {"label": "*4", "atom_type": "Ct"}, "2": {"label": "*3", "atom_type": "Cd"}, "7": {"label": "*1", "atom_type": "Cs"}, "8": {"label": "*0", "atom_type": "S2s"}, "9": {"label": "*2", "atom_type": "H0"}}

>  <type>  (10) 
unop_6

>  <geom_source>  (10) 
Heuristics

$$$$

     RDKit          3D

 13 11  0  0  0  0  0  0  0  0999 V2000
    1.8236    1.6212    2.2105 C   0  0  0  0  0  0  0  0  0  0  0  0
    0.8737    1.3405    1.5340 C   0  0  0  0  0  0  0  0  0  0  0  0
   -0.2358    0.9919    0.7097 C   0  0  0  0  0  0  0  0  0  0  0  0
   -1.4939    1.3236    0.9799 C   0  0  0  0  0  0  0  0  0  0  0  0
    2.6658    1.8702    2.8102 H   0  0  0  0  0  0  0  0  0  0  0  0
   -2.2973    1.0312    0.3168 H   0  0  0  0  0  0  0  0  0  0  0  0
   -1.7517    1.8918    1.8644 H   0  0  0  0  0  0  0  0  0  0  0  0
   -0.2358   -1.4364   -0.2405 C   0  0  0  0  0  3  0  0  0  0  0  0
   -0.2358   -1.4364   -2.0512 S   0  0  0  0  0  0  0  0  0  0  0  0
   -0.2358   -0.2206    0.2353 H   0  0  0  0  0  0  0  0  0  0  0  0
   -1.1565   -1.9306    0.0654 H   0  0  0  0  0  0  0  0  0  0  0  0
    0.6085   -1.9964    0.1560 H   0  0  0  0  0  0  0  0  0  0  0  0
    0.9345   -0.8083   -2.2176 H   0  0  0  0  0  0  0  0  0  0  0  0
  1  2  3  0
  1  5  1  0
  2  3  1  0
  3  4  2  3
  3 10  1  0
  4  6  1  0
  4  7  1  0
  8  9  1  0
  8 11  1  0
  8 12  1  0
  9 13  1  0
M  RAD  1   8   2
M  END
>  <reaction>  (11) 
rxn_1909

>  <mol_properties>  (11) 
{"1": {"label": "*4", "atom_type": "Ct"}, "2": {"label": "*3", "atom_type": "Cd"}, "7": {"label": "*1", "atom_type": "Cs"}, "8": {"label": "*0", "atom_type": "S2s"}, "9": {"label": "*2", "atom_type": "H0"}}

>  <type>  (11) 
unop_7

>  <geom_source>  (11) 
Heuristics

$$$$

     RDKit          3D

 13 11  0  0  0  0  0  0  0  0999 V2000
   -2.0582    1.9952    1.2452 C   0  0  0  0  0  0  0  0  0  0  0  0
   -0.9715    1.5163    1.0764 C   0  0  0  0  0  0  0  0  0  0  0  0
    0.3097    0.9343    0.8487 C   0  0  0  0  0  0  0  0  0  0  0  0
    1.3439    1.0719    1.6716 C   0  0  0  0  0  0  0  0  0  0  0  0
   -3.0216    2.4198    1.3948 H   0  0  0  0  0  0  0  0  0  0  0  0
    2.2946    0.6066    1.4472 H   0  0  0  0  0  0  0  0  0  0  0  0
    1.2678    1.6489    2.5842 H   0  0  0  0  0  0  0  0  0  0  0  0
    0.3097   -1.4940   -0.1016 C   0  0  0  0  0  3  0  0  0  0  0  0
    0.3097   -1.4940   -1.9122 S   0  0  0  0  0  0  0  0  0  0  0  0
    0.3097   -0.2782    0.3742 H   0  0  0  0  0  0  0  0  0  0  0  0
   -0.6110   -1.9882    0.2044 H   0  0  0  0  0  0  0  0  0  0  0  0
    1.1540   -2.0540    0.2949 H   0  0  0  0  0  0  0  0  0  0  0  0
    1.4800   -0.8659   -2.0786 H   0  0  0  0  0  0  0  0  0  0  0  0
  1  2  3  0
  1  5  1  0
  2  3  1  0
  3  4  2  3
  3 10  1  0
  4  6  1  0
  4  7  1  0
  8  9  1  0
  8 11  1  0
  8 12  1  0
  9 13  1  0
M  RAD  1   8   2
M  END
>  <reaction>  (12) 
rxn_1909

>  <mol_properties>  (12) 
{"1": {"label": "*4", "atom_type": "Ct"}, "2": {"label": "*3", "atom_type": "Cd"}, "7": {"label": "*1", "atom_type": "Cs"}, "8": {"label": "*0", "atom_type": "S2s"}, "9": {"label": "*2", "atom_type": "H0"}}

>  <type>  (12) 
unop_8

>  <geom_source>  (12) 
Heuristics

$$$$

     RDKit          3D

 13 11  0  0  0  0  0  0  0  0999 V2000
    0.9702    2.5819   -0.3432 C   0  0  0  0  0  0  0  0  0  0  0  0
    0.4329    1.7685    0.3555 C   0  0  0  0  0  0  0  0  0  0  0  0
   -0.2077    0.7822    1.1610 C   0  0  0  0  0  0  0  0  0  0  0  0
   -0.4780    0.9401    2.4524 C   0  0  0  0  0  0  0  0  0  0  0  0
    1.4466    3.3031   -0.9628 H   0  0  0  0  0  0  0  0  0  0  0  0
   -0.9669    0.1558    3.0149 H   0  0  0  0  0  0  0  0  0  0  0  0
   -0.2195    1.8509    2.9772 H   0  0  0  0  0  0  0  0  0  0  0  0
   -0.2077   -1.6461    0.2108 C   0  0  0  0  0  3  0  0  0  0  0  0
   -0.2077   -1.6461   -1.5999 S   0  0  0  0  0  0  0  0  0  0  0  0
   -0.2077   -0.4303    0.6865 H   0  0  0  0  0  0  0  0  0  0  0  0
   -1.1284   -2.1403    0.5167 H   0  0  0  0  0  0  0  0  0  0  0  0
    0.6366   -2.2061    0.6072 H   0  0  0  0  0  0  0  0  0  0  0  0
    0.9626   -1.0180   -1.7663 H   0  0  0  0  0  0  0  0  0  0  0  0
  1  2  3  0
  1  5  1  0
  2  3  1  0
  3  4  2  3
  3 10  1  0
  4  6  1  0
  4  7  1  0
  8  9  1  0
  8 11  1  0
  8 12  1  0
  9 13  1  0
M  RAD  1   8   2
M  END
>  <reaction>  (13) 
rxn_1909

>  <mol_properties>  (13) 
{"1": {"label": "*4", "atom_type": "Ct"}, "2": {"label": "*3", "atom_type": "Cd"}, "7": {"label": "*1", "atom_type": "Cs"}, "8": {"label": "*0", "atom_type": "S2s"}, "9": {"label": "*2", "atom_type": "H0"}}

>  <type>  (13) 
unop_9

>  <geom_source>  (13) 
Heuristics

$$$$

     RDKit          3D

 13 11  0  0  0  0  0  0  0  0999 V2000
   -1.7404    2.3424    0.3168 C   0  0  0  0  0  0  0  0  0  0  0  0
   -0.8055    1.6692    0.6505 C   0  0  0  0  0  0  0  0  0  0  0  0
    0.3040    0.8537    1.0193 C   0  0  0  0  0  0  0  0  0  0  0  0
    0.9451    0.9536    2.1789 C   0  0  0  0  0  0  0  0  0  0  0  0
   -2.5693    2.9393    0.0209 H   0  0  0  0  0  0  0  0  0  0  0  0
    1.7825    0.3068    2.4052 H   0  0  0  0  0  0  0  0  0  0  0  0
    0.6519    1.6791    2.9268 H   0  0  0  0  0  0  0  0  0  0  0  0
    0.3040   -1.5746    0.0690 C   0  0  0  0  0  3  0  0  0  0  0  0
    0.3040   -1.5746   -1.7416 S   0  0  0  0  0  0  0  0  0  0  0  0
    0.3040   -0.3588    0.5448 H   0  0  0  0  0  0  0  0  0  0  0  0
   -0.6166   -2.0688    0.3750 H   0  0  0  0  0  0  0  0  0  0  0  0
    1.1484   -2.1346    0.4655 H   0  0  0  0  0  0  0  0  0  0  0  0
    1.4743   -0.9465   -1.9080 H   0  0  0  0  0  0  0  0  0  0  0  0
  1  2  3  0
  1  5  1  0
  2  3  1  0
  3  4  2  3
  3 10  1  0
  4  6  1  0
  4  7  1  0
  8  9  1  0
  8 11  1  0
  8 12  1  0
  9 13  1  0
M  RAD  1   8   2
M  END
>  <reaction>  (14) 
rxn_1909

>  <mol_properties>  (14) 
{"1": {"label": "*4", "atom_type": "Ct"}, "2": {"label": "*3", "atom_type": "Cd"}, "7": {"label": "*1", "atom_type": "Cs"}, "8": {"label": "*0", "atom_type": "S2s"}, "9": {"label": "*2", "atom_type": "H0"}}

>  <type>  (14) 
unop_10

>  <geom_source>  (14) 
Heuristics

$$$$

     RDKit          3D

 13 11  0  0  0  0  0  0  0  0999 V2000
    1.1031    1.3073    2.9636 C   0  0  0  0  0  0  0  0  0  0  0  0
    0.5469    1.1773    1.9089 C   0  0  0  0  0  0  0  0  0  0  0  0
   -0.0937    0.9996    0.6479 C   0  0  0  0  0  0  0  0  0  0  0  0
   -1.1416    1.7085    0.2417 C   0  0  0  0  0  0  0  0  0  0  0  0
    1.5963    1.4226    3.8987 H   0  0  0  0  0  0  0  0  0  0  0  0
   -1.5878    1.5298   -0.7276 H   0  0  0  0  0  0  0  0  0  0  0  0
   -1.5777    2.4803    0.8629 H   0  0  0  0  0  0  0  0  0  0  0  0
   -0.0937   -1.4287   -0.3024 C   0  0  0  0  0  3  0  0  0  0  0  0
   -0.0937   -1.4287   -2.1130 S   0  0  0  0  0  0  0  0  0  0  0  0
   -0.0937   -0.2129    0.1734 H   0  0  0  0  0  0  0  0  0  0  0  0
   -1.0144   -1.9229    0.0036 H   0  0  0  0  0  0  0  0  0  0  0  0
    0.7507   -1.9887    0.0941 H   0  0  0  0  0  0  0  0  0  0  0  0
    1.0766   -0.8006   -2.2794 H   0  0  0  0  0  0  0  0  0  0  0  0
  1  2  3  0
  1  5  1  0
  2  3  1  0
  3  4  2  3
  3 10  1  0
  4  6  1  0
  4  7  1  0
  8  9  1  0
  8 11  1  0
  8 12  1  0
  9 13  1  0
M  RAD  1   8   2
M  END
>  <reaction>  (15) 
rxn_1909

>  <mol_properties>  (15) 
{"1": {"label": "*4", "atom_type": "Ct"}, "2": {"label": "*3", "atom_type": "Cd"}, "7": {"label": "*1", "atom_type": "Cs"}, "8": {"label": "*0", "atom_type": "S2s"}, "9": {"label": "*2", "atom_type": "H0"}}

>  <type>  (15) 
unop_11

>  <geom_source>  (15) 
Heuristics

$$$$

     RDKit          3D

 13 11  0  0  0  0  0  0  0  0999 V2000
   -0.0111    2.6659   -0.5803 C   0  0  0  0  0  0  0  0  0  0  0  0
   -0.0111    1.8017    0.2514 C   0  0  0  0  0  0  0  0  0  0  0  0
   -0.0111    0.7529    1.2167 C   0  0  0  0  0  0  0  0  0  0  0  0
   -0.0111    0.9535    2.5303 C   0  0  0  0  0  0  0  0  0  0  0  0
   -0.0111    3.4322   -1.3178 H   0  0  0  0  0  0  0  0  0  0  0  0
   -0.0111    0.1176    3.2172 H   0  0  0  0  0  0  0  0  0  0  0  0
   -0.0111    1.9512    2.9502 H   0  0  0  0  0  0  0  0  0  0  0  0
   -0.0111   -1.6755    0.2665 C   0  0  0  0  0  3  0  0  0  0  0  0
   -0.0111   -1.6755   -1.5442 S   0  0  0  0  0  0  0  0  0  0  0  0
   -0.0111   -0.4597    0.7422 H   0  0  0  0  0  0  0  0  0  0  0  0
   -0.9318   -2.1696    0.5724 H   0  0  0  0  0  0  0  0  0  0  0  0
    0.8332   -2.2355    0.6629 H   0  0  0  0  0  0  0  0  0  0  0  0
    1.1592   -1.0474   -1.7106 H   0  0  0  0  0  0  0  0  0  0  0  0
  1  2  3  0
  1  5  1  0
  2  3  1  0
  3  4  2  3
  3 10  1  0
  4  6  1  0
  4  7  1  0
  8  9  1  0
  8 11  1  0
  8 12  1  0
  9 13  1  0
M  RAD  1   8   2
M  END
>  <reaction>  (16) 
rxn_1909

>  <mol_properties>  (16) 
{"1": {"label": "*4", "atom_type": "Ct"}, "2": {"label": "*3", "atom_type": "Cd"}, "7": {"label": "*1", "atom_type": "Cs"}, "8": {"label": "*0", "atom_type": "S2s"}, "9": {"label": "*2", "atom_type": "H0"}}

>  <type>  (16) 
unop_12

>  <geom_source>  (16) 
Heuristics

$$$$

     RDKit          3D

 13 11  0  0  0  0  0  0  0  0999 V2000
    1.5621   -1.5817    1.5555 S   0  0  0  0  0  0  0  0  0  0  0  0
   -0.7932    0.4469   -0.0518 C   0  0  0  0  0  0  0  0  0  0  0  0
   -1.4937    1.5697    0.0556 C   0  0  0  0  0  0  0  0  0  0  0  0
    1.5442    0.1614    1.0507 C   0  0  0  0  0  3  0  0  0  0  0  0
   -1.1028   -0.5214   -1.0688 C   0  0  0  0  0  0  0  0  0  0  0  0
   -1.3614   -1.3339   -1.9211 C   0  0  0  0  0  0  0  0  0  0  0  0
    0.1748    0.2186    0.7617 H   0  0  0  0  0  0  0  0  0  0  0  0
   -2.3145    1.7853   -0.6181 H   0  0  0  0  0  0  0  0  0  0  0  0
   -1.2457    2.2861    0.8272 H   0  0  0  0  0  0  0  0  0  0  0  0
    2.4939    0.6484    1.3545 H   0  0  0  0  0  0  0  0  0  0  0  0
    1.4254    0.2305   -0.0504 H   0  0  0  0  0  0  0  0  0  0  0  0
    2.6993   -1.8628    0.7743 H   0  0  0  0  0  0  0  0  0  0  0  0
   -1.5885   -2.0471   -2.6693 H   0  0  0  0  0  0  0  0  0  0  0  0
  1  4  1  0
  1 12  1  0
  2  3  2  3
  2  5  1  0
  2  7  1  0
  3  8  1  0
  3  9  1  0
  4 10  1  0
  4 11  1  0
  5  6  3  0
  6 13  1  0
M  RAD  1   4   2
M  END
>  <reaction>  (17) 
rxn_1909

>  <mol_properties>  (17) 
{"1": {"label": "*4", "atom_type": "Ct"}, "2": {"label": "*3", "atom_type": "Cd"}, "7": {"label": "*1", "atom_type": "Cs"}, "8": {"label": "*0", "atom_type": "S2s"}, "9": {"label": "*2", "atom_type": "H0"}}

>  <type>  (17) 
unop_13

>  <geom_source>  (17) 
AutoTST

$$$$
