
     RDKit          3D

 12 11  0  0  0  0  0  0  0  0999 V2000
    1.2394   -0.3763   -0.3020 C   0  0  0  0  0  0  0  0  0  0  0  0
    0.1007    0.3024    0.4464 C   0  0  0  0  0  0  0  0  0  0  0  0
   -0.1187    2.0399   -0.0725 S   0  0  0  0  0  0  0  0  0  0  0  0
   -1.1974   -0.4877    0.3552 C   0  0  0  0  0  0  0  0  0  0  0  0
    2.1681    0.1850   -0.2048 H   0  0  0  0  0  0  0  0  0  0  0  0
    1.0030   -0.4604   -1.3656 H   0  0  0  0  0  0  0  0  0  0  0  0
    1.3993   -1.3856    0.0859 H   0  0  0  0  0  0  0  0  0  0  0  0
    0.3797    0.4050    1.4982 H   0  0  0  0  0  0  0  0  0  0  0  0
   -0.4500    1.7774   -1.3452 H   0  0  0  0  0  0  0  0  0  0  0  0
   -1.0545   -1.4977    0.7478 H   0  0  0  0  0  0  0  0  0  0  0  0
   -1.5206   -0.5758   -0.6849 H   0  0  0  0  0  0  0  0  0  0  0  0
   -1.9957   -0.0054    0.9183 H   0  0  0  0  0  0  0  0  0  0  0  0
  1  2  1  0
  1  5  1  0
  1  6  1  0
  1  7  1  0
  2  4  1  0
  2  3  1  0
  2  8  1  0
  3  9  1  0
  4 10  1  0
  4 11  1  0
  4 12  1  0
M  END
>  <reaction>  (1) 
rxn_1911

>  <mol_properties>  (1) 
{"1": {"label": "donator", "atom_type": "Cs"}, "7": {"label": "d_hydrogen", "atom_type": "H0"}}

>  <type>  (1) 
r1h

$$$$

     RDKit          3D

 13 12  0  0  0  0  0  0  0  0999 V2000
   -1.3649   -0.5967   -0.3477 C   0  0  0  0  0  0  0  0  0  0  0  0
   -0.1601   -0.2776    0.4669 C   0  0  0  0  0  3  0  0  0  0  0  0
    1.1241   -0.9571    0.1414 C   0  0  0  0  0  0  0  0  0  0  0  0
   -0.1188    1.0130    1.2081 C   0  0  0  0  0  0  0  0  0  0  0  0
   -1.4266   -1.6632   -0.5770 H   0  0  0  0  0  0  0  0  0  0  0  0
   -2.2858   -0.3004    0.1602 H   0  0  0  0  0  0  0  0  0  0  0  0
   -1.3532   -0.0668   -1.3138 H   0  0  0  0  0  0  0  0  0  0  0  0
    1.6174   -0.4963   -0.7297 H   0  0  0  0  0  0  0  0  0  0  0  0
    0.9723   -2.0104   -0.1064 H   0  0  0  0  0  0  0  0  0  0  0  0
    1.8338   -0.8977    0.9701 H   0  0  0  0  0  0  0  0  0  0  0  0
   -1.0852    1.2507    1.6593 H   0  0  0  0  0  0  0  0  0  0  0  0
    0.6358    1.0009    1.9983 H   0  0  0  0  0  0  0  0  0  0  0  0
    0.1343    1.8546    0.5434 H   0  0  0  0  0  0  0  0  0  0  0  0
  1  2  1  0
  1  5  1  0
  1  6  1  0
  1  7  1  0
  2  3  1  0
  2  4  1  0
  3  8  1  0
  3  9  1  0
  3 10  1  0
  4 11  1  0
  4 12  1  0
  4 13  1  0
M  RAD  1   2   2
M  END
>  <reaction>  (2) 
rxn_1911

>  <mol_properties>  (2) 
{"1": {"label": "acceptor", "atom_type": "Cs"}}

>  <type>  (2) 
r2

$$$$

     RDKit          3D

 14 13  0  0  0  0  0  0  0  0999 V2000
   -0.7647   -1.2352   -0.0349 C   0  0  0  0  0  0  0  0  0  0  0  0
    0.0570   -0.0126    0.3624 C   0  0  0  0  0  0  0  0  0  0  0  0
    1.4161   -0.0194   -0.3308 C   0  0  0  0  0  0  0  0  0  0  0  0
   -0.7022    1.2765    0.0629 C   0  0  0  0  0  0  0  0  0  0  0  0
   -0.2387   -2.1618    0.2040 H   0  0  0  0  0  0  0  0  0  0  0  0
   -0.9625   -1.2316   -1.1108 H   0  0  0  0  0  0  0  0  0  0  0  0
   -1.7273   -1.2512    0.4806 H   0  0  0  0  0  0  0  0  0  0  0  0
    0.2295   -0.0590    1.4432 H   0  0  0  0  0  0  0  0  0  0  0  0
    1.2933    0.0260   -1.4168 H   0  0  0  0  0  0  0  0  0  0  0  0
    2.0206    0.8381   -0.0279 H   0  0  0  0  0  0  0  0  0  0  0  0
    1.9767   -0.9268   -0.0966 H   0  0  0  0  0  0  0  0  0  0  0  0
   -1.6639    1.3001    0.5798 H   0  0  0  0  0  0  0  0  0  0  0  0
   -0.8977    1.3664   -1.0096 H   0  0  0  0  0  0  0  0  0  0  0  0
   -0.1313    2.1545    0.3722 H   0  0  0  0  0  0  0  0  0  0  0  0
  1  2  1  0
  1  5  1  0
  1  6  1  0
  1  7  1  0
  2  3  1  0
  2  4  1  0
  2  8  1  0
  3  9  1  0
  3 10  1  0
  3 11  1  0
  4 12  1  0
  4 13  1  0
  4 14  1  0
M  END
>  <reaction>  (3) 
rxn_1911

>  <mol_properties>  (3) 
{"0": {"label": "a_hydrogen", "atom_type": "H0"}, "2": {"label": "acceptor", "atom_type": "Cs"}}

>  <type>  (3) 
r2h

$$$$

     RDKit          3D

 25 23  0  0  0  0  0  0  0  0999 V2000
    0.3529    1.1814   -1.8831 C   0  0  0  0  0  0  0  0  0  0  0  0
    0.7565    0.6663   -0.5254 C   0  0  0  0  0  3  0  0  0  0  0  0
    1.9672   -0.6597   -0.5614 S   0  0  0  0  0  0  0  0  0  0  0  0
    1.0138    1.7321    0.5101 C   0  0  0  0  0  0  0  0  0  0  0  0
    0.0817    0.3651   -2.5525 H   0  0  0  0  0  0  0  0  0  0  0  0
    1.1713    1.7418   -2.3509 H   0  0  0  0  0  0  0  0  0  0  0  0
   -0.5000    1.8600   -1.7953 H   0  0  0  0  0  0  0  0  0  0  0  0
   -0.3448    0.0063   -0.0733 H   0  0  0  0  0  0  0  0  0  0  0  0
    2.9293   -0.0187   -1.2491 H   0  0  0  0  0  0  0  0  0  0  0  0
    0.1607    2.4128    0.5761 H   0  0  0  0  0  0  0  0  0  0  0  0
    1.8959    2.3287    0.2505 H   0  0  0  0  0  0  0  0  0  0  0  0
    1.1873    1.2951    1.4937 H   0  0  0  0  0  0  0  0  0  0  0  0
   -1.8825   -1.4416   -0.8194 C   0  0  0  0  0  0  0  0  0  0  0  0
   -1.4563   -0.5919    0.3526 C   0  0  0  0  0  0  0  0  0  0  0  0
   -2.3983    0.5428    0.6727 C   0  0  0  0  0  0  0  0  0  0  0  0
   -1.0063   -1.3814    1.5575 C   0  0  0  0  0  0  0  0  0  0  0  0
   -2.1317   -0.8269   -1.6869 H   0  0  0  0  0  0  0  0  0  0  0  0
   -1.0928   -2.1373   -1.1107 H   0  0  0  0  0  0  0  0  0  0  0  0
   -2.7715   -2.0332   -0.5681 H   0  0  0  0  0  0  0  0  0  0  0  0
   -3.3666    0.1595    1.0175 H   0  0  0  0  0  0  0  0  0  0  0  0
   -2.5876    1.1637   -0.2060 H   0  0  0  0  0  0  0  0  0  0  0  0
   -1.9987    1.1815    1.4632 H   0  0  0  0  0  0  0  0  0  0  0  0
   -0.2452   -2.1171    1.2895 H   0  0  0  0  0  0  0  0  0  0  0  0
   -0.5907   -0.7289    2.3284 H   0  0  0  0  0  0  0  0  0  0  0  0
   -1.8491   -1.9239    2.0030 H   0  0  0  0  0  0  0  0  0  0  0  0
  1  2  1  0
  1  5  1  0
  1  6  1  0
  1  7  1  0
  2  4  1  0
  2  3  1  0
  3  9  1  0
  4 10  1  0
  4 11  1  0
  4 12  1  0
  8 14  1  0
 13 14  1  0
 13 17  1  0
 13 18  1  0
 13 19  1  0
 14 15  1  0
 14 16  1  0
 15 20  1  0
 15 21  1  0
 15 22  1  0
 16 23  1  0
 16 24  1  0
 16 25  1  0
M  RAD  1   2   2
M  END
>  <reaction>  (4) 
rxn_1911

>  <mol_properties>  (4) 
{"1": {"label": "*3", "atom_type": "Cs"}, "2": {"label": "*4", "atom_type": "S2s"}, "7": {"label": "*2", "atom_type": "H0"}, "12": {"label": "*0", "atom_type": "Cs"}, "13": {"label": "*1", "atom_type": "Cs"}}

>  <type>  (4) 
ts

$$$$

     RDKit          3D

 25 23  0  0  0  0  0  0  0  0999 V2000
    0.6865    0.6413   -2.0730 C   0  0  0  0  0  0  0  0  0  0  0  0
    0.6865    0.6413   -0.5507 C   0  0  0  0  0  0  0  0  0  0  0  0
    2.0416   -0.3750    0.1329 S   0  0  0  0  0  0  0  0  0  0  0  0
    0.6865    2.0513    0.0233 C   0  0  0  0  0  0  0  0  0  0  0  0
    0.6579   -0.3729   -2.4697 H   0  0  0  0  0  0  0  0  0  0  0  0
    1.5849    1.1311   -2.4566 H   0  0  0  0  0  0  0  0  0  0  0  0
   -0.1805    1.1888   -2.4519 H   0  0  0  0  0  0  0  0  0  0  0  0
   -0.3814    0.0095   -0.1257 H   0  0  0  0  0  0  0  0  0  0  0  0
    3.0475    0.3609   -0.3621 H   0  0  0  0  0  0  0  0  0  0  0  0
   -0.1805    2.6086   -0.3409 H   0  0  0  0  0  0  0  0  0  0  0  0
    1.5849    2.5912   -0.2857 H   0  0  0  0  0  0  0  0  0  0  0  0
    0.6579    2.0363    1.1122 H   0  0  0  0  0  0  0  0  0  0  0  0
   -0.9914   -1.8122    1.1391 C   0  0  0  0  0  0  0  0  0  0  0  0
   -1.4517   -0.6238    0.3003 C   0  0  0  0  0  3  0  0  0  0  0  0
   -2.8531   -0.8580   -0.2557 C   0  0  0  0  0  0  0  0  0  0  0  0
   -1.3936    0.6695    1.1075 C   0  0  0  0  0  0  0  0  0  0  0  0
   -1.0029   -2.7367    0.5579 H   0  0  0  0  0  0  0  0  0  0  0  0
    0.0226   -1.6633    1.5159 H   0  0  0  0  0  0  0  0  0  0  0  0
   -1.6505   -1.9518    2.0010 H   0  0  0  0  0  0  0  0  0  0  0  0
   -3.5760   -0.9647    0.5583 H   0  0  0  0  0  0  0  0  0  0  0  0
   -2.8941   -1.7673   -0.8590 H   0  0  0  0  0  0  0  0  0  0  0  0
   -3.1767   -0.0233   -0.8812 H   0  0  0  0  0  0  0  0  0  0  0  0
   -0.3859    0.8577    1.4839 H   0  0  0  0  0  0  0  0  0  0  0  0
   -1.6939    1.5283    0.5036 H   0  0  0  0  0  0  0  0  0  0  0  0
   -2.0666    0.6152    1.9683 H   0  0  0  0  0  0  0  0  0  0  0  0
  1  2  1  0
  1  5  1  0
  1  6  1  0
  1  7  1  0
  2  4  1  0
  2  3  1  0
  2  8  1  0
  3  9  1  0
  4 10  1  0
  4 11  1  0
  4 12  1  0
 13 14  1  0
 13 17  1  0
 13 18  1  0
 13 19  1  0
 14 15  1  0
 14 16  1  0
 15 20  1  0
 15 21  1  0
 15 22  1  0
 16 23  1  0
 16 24  1  0
 16 25  1  0
M  RAD  1  14   2
M  END
>  <reaction>  (5) 
rxn_1911

>  <mol_properties>  (5) 
{"1": {"label": "*3", "atom_type": "Cs"}, "2": {"label": "*4", "atom_type": "S2s"}, "7": {"label": "*2", "atom_type": "H0"}, "12": {"label": "*0", "atom_type": "Cs"}, "13": {"label": "*1", "atom_type": "Cs"}}

>  <type>  (5) 
unop_1

>  <geom_source>  (5) 
Heuristics

$$$$

     RDKit          3D

 25 23  0  0  0  0  0  0  0  0999 V2000
    0.6827    0.7375   -2.0168 C   0  0  0  0  0  0  0  0  0  0  0  0
    0.6827    0.7375   -0.4944 C   0  0  0  0  0  0  0  0  0  0  0  0
    2.0378   -0.2788    0.1891 S   0  0  0  0  0  0  0  0  0  0  0  0
    0.6827    2.1475    0.0795 C   0  0  0  0  0  0  0  0  0  0  0  0
    0.6541   -0.2767   -2.4135 H   0  0  0  0  0  0  0  0  0  0  0  0
    1.5811    1.2273   -2.4004 H   0  0  0  0  0  0  0  0  0  0  0  0
   -0.1843    1.2850   -2.3956 H   0  0  0  0  0  0  0  0  0  0  0  0
   -0.3852    0.1056   -0.0694 H   0  0  0  0  0  0  0  0  0  0  0  0
    3.0437    0.4571   -0.3058 H   0  0  0  0  0  0  0  0  0  0  0  0
   -0.1843    2.7048   -0.2847 H   0  0  0  0  0  0  0  0  0  0  0  0
    1.5811    2.6874   -0.2294 H   0  0  0  0  0  0  0  0  0  0  0  0
    0.6541    2.1325    1.1685 H   0  0  0  0  0  0  0  0  0  0  0  0
   -1.8188   -1.5860   -0.6807 C   0  0  0  0  0  0  0  0  0  0  0  0
   -1.4555   -0.5277    0.3565 C   0  0  0  0  0  3  0  0  0  0  0  0
   -2.6988    0.2131    0.8394 C   0  0  0  0  0  0  0  0  0  0  0  0
   -0.6999   -1.1478    1.5280 C   0  0  0  0  0  0  0  0  0  0  0  0
   -2.3343   -1.1435   -1.5357 H   0  0  0  0  0  0  0  0  0  0  0  0
   -0.9296   -2.0999   -1.0518 H   0  0  0  0  0  0  0  0  0  0  0  0
   -2.4818   -2.3390   -0.2446 H   0  0  0  0  0  0  0  0  0  0  0  0
   -3.3920   -0.4782    1.3277 H   0  0  0  0  0  0  0  0  0  0  0  0
   -3.2283    0.6840    0.0085 H   0  0  0  0  0  0  0  0  0  0  0  0
   -2.4420    0.9919    1.5605 H   0  0  0  0  0  0  0  0  0  0  0  0
    0.2069   -1.6549    1.1917 H   0  0  0  0  0  0  0  0  0  0  0  0
   -0.4113   -0.3905    2.2598 H   0  0  0  0  0  0  0  0  0  0  0  0
   -1.3245   -1.8857    2.0400 H   0  0  0  0  0  0  0  0  0  0  0  0
  1  2  1  0
  1  5  1  0
  1  6  1  0
  1  7  1  0
  2  4  1  0
  2  3  1  0
  2  8  1  0
  3  9  1  0
  4 10  1  0
  4 11  1  0
  4 12  1  0
 13 14  1  0
 13 17  1  0
 13 18  1  0
 13 19  1  0
 14 15  1  0
 14 16  1  0
 15 20  1  0
 15 21  1  0
 15 22  1  0
 16 23  1  0
 16 24  1  0
 16 25  1  0
M  RAD  1  14   2
M  END
>  <reaction>  (6) 
rxn_1911

>  <mol_properties>  (6) 
{"1": {"label": "*3", "atom_type": "Cs"}, "2": {"label": "*4", "atom_type": "S2s"}, "7": {"label": "*2", "atom_type": "H0"}, "12": {"label": "*0", "atom_type": "Cs"}, "13": {"label": "*1", "atom_type": "Cs"}}

>  <type>  (6) 
unop_2

>  <geom_source>  (6) 
Heuristics

$$$$

     RDKit          3D

 25 23  0  0  0  0  0  0  0  0999 V2000
    0.7236    0.6405   -2.0309 C   0  0  0  0  0  0  0  0  0  0  0  0
    0.7236    0.6405   -0.5085 C   0  0  0  0  0  0  0  0  0  0  0  0
    2.0787   -0.3758    0.1750 S   0  0  0  0  0  0  0  0  0  0  0  0
    0.7236    2.0505    0.0655 C   0  0  0  0  0  0  0  0  0  0  0  0
    0.6951   -0.3737   -2.4275 H   0  0  0  0  0  0  0  0  0  0  0  0
    1.6220    1.1303   -2.4144 H   0  0  0  0  0  0  0  0  0  0  0  0
   -0.1433    1.1880   -2.4097 H   0  0  0  0  0  0  0  0  0  0  0  0
   -0.3443    0.0086   -0.0835 H   0  0  0  0  0  0  0  0  0  0  0  0
    3.0846    0.3601   -0.3199 H   0  0  0  0  0  0  0  0  0  0  0  0
   -0.1433    2.6078   -0.2987 H   0  0  0  0  0  0  0  0  0  0  0  0
    1.6220    2.5904   -0.2435 H   0  0  0  0  0  0  0  0  0  0  0  0
    0.6951    2.0355    1.1544 H   0  0  0  0  0  0  0  0  0  0  0  0
   -1.0767   -1.2681    1.6839 C   0  0  0  0  0  0  0  0  0  0  0  0
   -1.4146   -0.6247    0.3424 C   0  0  0  0  0  3  0  0  0  0  0  0
   -2.3712   -1.5026   -0.4588 C   0  0  0  0  0  0  0  0  0  0  0  0
   -1.9911    0.7744    0.5376 C   0  0  0  0  0  0  0  0  0  0  0  0
   -0.6364   -2.2584    1.5496 H   0  0  0  0  0  0  0  0  0  0  0  0
   -0.3693   -0.6583    2.2498 H   0  0  0  0  0  0  0  0  0  0  0  0
   -1.9786   -1.3837    2.2921 H   0  0  0  0  0  0  0  0  0  0  0  0
   -3.3176   -1.6262    0.0759 H   0  0  0  0  0  0  0  0  0  0  0  0
   -1.9514   -2.4965   -0.6270 H   0  0  0  0  0  0  0  0  0  0  0  0
   -2.5939   -1.0612   -1.4325 H   0  0  0  0  0  0  0  0  0  0  0  0
   -1.2982    1.4165    1.0856 H   0  0  0  0  0  0  0  0  0  0  0  0
   -2.2077    1.2518   -0.4203 H   0  0  0  0  0  0  0  0  0  0  0  0
   -2.9245    0.7289    1.1063 H   0  0  0  0  0  0  0  0  0  0  0  0
  1  2  1  0
  1  5  1  0
  1  6  1  0
  1  7  1  0
  2  4  1  0
  2  3  1  0
  2  8  1  0
  3  9  1  0
  4 10  1  0
  4 11  1  0
  4 12  1  0
 13 14  1  0
 13 17  1  0
 13 18  1  0
 13 19  1  0
 14 15  1  0
 14 16  1  0
 15 20  1  0
 15 21  1  0
 15 22  1  0
 16 23  1  0
 16 24  1  0
 16 25  1  0
M  RAD  1  14   2
M  END
>  <reaction>  (7) 
rxn_1911

>  <mol_properties>  (7) 
{"1": {"label": "*3", "atom_type": "Cs"}, "2": {"label": "*4", "atom_type": "S2s"}, "7": {"label": "*2", "atom_type": "H0"}, "12": {"label": "*0", "atom_type": "Cs"}, "13": {"label": "*1", "atom_type": "Cs"}}

>  <type>  (7) 
unop_3

>  <geom_source>  (7) 
Heuristics

$$$$

     RDKit          3D

 25 23  0  0  0  0  0  0  0  0999 V2000
    0.7048    0.6430   -2.0555 C   0  0  0  0  0  0  0  0  0  0  0  0
    0.7048    0.6430   -0.5331 C   0  0  0  0  0  0  0  0  0  0  0  0
    2.0600   -0.3733    0.1504 S   0  0  0  0  0  0  0  0  0  0  0  0
    0.7048    2.0530    0.0409 C   0  0  0  0  0  0  0  0  0  0  0  0
    0.6763   -0.3712   -2.4521 H   0  0  0  0  0  0  0  0  0  0  0  0
    1.6032    1.1328   -2.4390 H   0  0  0  0  0  0  0  0  0  0  0  0
   -0.1621    1.1905   -2.4343 H   0  0  0  0  0  0  0  0  0  0  0  0
   -0.3631    0.0111   -0.1081 H   0  0  0  0  0  0  0  0  0  0  0  0
    3.0659    0.3626   -0.3445 H   0  0  0  0  0  0  0  0  0  0  0  0
   -0.1621    2.6103   -0.3233 H   0  0  0  0  0  0  0  0  0  0  0  0
    1.6032    2.5929   -0.2681 H   0  0  0  0  0  0  0  0  0  0  0  0
    0.6763    2.0380    1.1298 H   0  0  0  0  0  0  0  0  0  0  0  0
   -2.6583    0.1138   -0.2167 C   0  0  0  0  0  0  0  0  0  0  0  0
   -1.4333   -0.6222    0.3178 C   0  0  0  0  0  3  0  0  0  0  0  0
   -0.9603   -0.0114    1.6335 C   0  0  0  0  0  0  0  0  0  0  0  0
   -1.7188   -2.1122    0.4790 C   0  0  0  0  0  0  0  0  0  0  0  0
   -2.4512    1.1761   -0.3619 H   0  0  0  0  0  0  0  0  0  0  0  0
   -2.9842   -0.3002   -1.1732 H   0  0  0  0  0  0  0  0  0  0  0  0
   -3.4932    0.0295    0.4852 H   0  0  0  0  0  0  0  0  0  0  0  0
   -1.7369   -0.1000    2.3989 H   0  0  0  0  0  0  0  0  0  0  0  0
   -0.7264    1.0490    1.5176 H   0  0  0  0  0  0  0  0  0  0  0  0
   -0.0662   -0.5153    2.0064 H   0  0  0  0  0  0  0  0  0  0  0  0
   -2.0300   -2.5614   -0.4665 H   0  0  0  0  0  0  0  0  0  0  0  0
   -0.8366   -2.6494    0.8335 H   0  0  0  0  0  0  0  0  0  0  0  0
   -2.5213   -2.2730    1.2048 H   0  0  0  0  0  0  0  0  0  0  0  0
  1  2  1  0
  1  5  1  0
  1  6  1  0
  1  7  1  0
  2  4  1  0
  2  3  1  0
  2  8  1  0
  3  9  1  0
  4 10  1  0
  4 11  1  0
  4 12  1  0
 13 14  1  0
 13 17  1  0
 13 18  1  0
 13 19  1  0
 14 15  1  0
 14 16  1  0
 15 20  1  0
 15 21  1  0
 15 22  1  0
 16 23  1  0
 16 24  1  0
 16 25  1  0
M  RAD  1  14   2
M  END
>  <reaction>  (8) 
rxn_1911

>  <mol_properties>  (8) 
{"1": {"label": "*3", "atom_type": "Cs"}, "2": {"label": "*4", "atom_type": "S2s"}, "7": {"label": "*2", "atom_type": "H0"}, "12": {"label": "*0", "atom_type": "Cs"}, "13": {"label": "*1", "atom_type": "Cs"}}

>  <type>  (8) 
unop_4

>  <geom_source>  (8) 
Heuristics

$$$$

     RDKit          3D

 25 23  0  0  0  0  0  0  0  0999 V2000
    0.7179    0.7067   -1.9977 C   0  0  0  0  0  0  0  0  0  0  0  0
    0.7179    0.7067   -0.4753 C   0  0  0  0  0  0  0  0  0  0  0  0
    2.0730   -0.3096    0.2082 S   0  0  0  0  0  0  0  0  0  0  0  0
    0.7179    2.1167    0.0987 C   0  0  0  0  0  0  0  0  0  0  0  0
    0.6893   -0.3075   -2.3943 H   0  0  0  0  0  0  0  0  0  0  0  0
    1.6163    1.1964   -2.3812 H   0  0  0  0  0  0  0  0  0  0  0  0
   -0.1491    1.2541   -2.3765 H   0  0  0  0  0  0  0  0  0  0  0  0
   -0.3500    0.0748   -0.0503 H   0  0  0  0  0  0  0  0  0  0  0  0
    3.0789    0.4262   -0.2867 H   0  0  0  0  0  0  0  0  0  0  0  0
   -0.1491    2.6740   -0.2655 H   0  0  0  0  0  0  0  0  0  0  0  0
    1.6163    2.6566   -0.2103 H   0  0  0  0  0  0  0  0  0  0  0  0
    0.6893    2.1017    1.1876 H   0  0  0  0  0  0  0  0  0  0  0  0
   -1.3978   -0.5452    1.9011 C   0  0  0  0  0  0  0  0  0  0  0  0
   -1.4203   -0.5585    0.3756 C   0  0  0  0  0  3  0  0  0  0  0  0
   -1.3649   -1.9864   -0.1589 C   0  0  0  0  0  0  0  0  0  0  0  0
   -2.6452    0.1775   -0.1589 C   0  0  0  0  0  0  0  0  0  0  0  0
   -0.5080   -1.0452    2.2895 H   0  0  0  0  0  0  0  0  0  0  0  0
   -1.4079    0.4754    2.2895 H   0  0  0  0  0  0  0  0  0  0  0  0
   -2.2737   -1.0635    2.3024 H   0  0  0  0  0  0  0  0  0  0  0  0
   -2.2396   -2.5541    0.1716 H   0  0  0  0  0  0  0  0  0  0  0  0
   -0.4746   -2.5093    0.1969 H   0  0  0  0  0  0  0  0  0  0  0  0
   -1.3512   -2.0014   -1.2507 H   0  0  0  0  0  0  0  0  0  0  0  0
   -2.6751    1.2094    0.1970 H   0  0  0  0  0  0  0  0  0  0  0  0
   -2.6517    0.1968   -1.2507 H   0  0  0  0  0  0  0  0  0  0  0  0
   -3.5639   -0.3161    0.1715 H   0  0  0  0  0  0  0  0  0  0  0  0
  1  2  1  0
  1  5  1  0
  1  6  1  0
  1  7  1  0
  2  4  1  0
  2  3  1  0
  2  8  1  0
  3  9  1  0
  4 10  1  0
  4 11  1  0
  4 12  1  0
 13 14  1  0
 13 17  1  0
 13 18  1  0
 13 19  1  0
 14 15  1  0
 14 16  1  0
 15 20  1  0
 15 21  1  0
 15 22  1  0
 16 23  1  0
 16 24  1  0
 16 25  1  0
M  RAD  1  14   2
M  END
>  <reaction>  (9) 
rxn_1911

>  <mol_properties>  (9) 
{"1": {"label": "*3", "atom_type": "Cs"}, "2": {"label": "*4", "atom_type": "S2s"}, "7": {"label": "*2", "atom_type": "H0"}, "12": {"label": "*0", "atom_type": "Cs"}, "13": {"label": "*1", "atom_type": "Cs"}}

>  <type>  (9) 
unop_5

>  <geom_source>  (9) 
Heuristics

$$$$

     RDKit          3D

 25 23  0  0  0  0  0  0  0  0999 V2000
    0.6685    0.6650   -2.0811 C   0  0  0  0  0  0  0  0  0  0  0  0
    0.6685    0.6650   -0.5588 C   0  0  0  0  0  0  0  0  0  0  0  0
    2.0237   -0.3513    0.1248 S   0  0  0  0  0  0  0  0  0  0  0  0
    0.6685    2.0750    0.0152 C   0  0  0  0  0  0  0  0  0  0  0  0
    0.6400   -0.3492   -2.4778 H   0  0  0  0  0  0  0  0  0  0  0  0
    1.5670    1.1548   -2.4647 H   0  0  0  0  0  0  0  0  0  0  0  0
   -0.1984    1.2125   -2.4600 H   0  0  0  0  0  0  0  0  0  0  0  0
   -0.3994    0.0331   -0.1338 H   0  0  0  0  0  0  0  0  0  0  0  0
    3.0296    0.3846   -0.3701 H   0  0  0  0  0  0  0  0  0  0  0  0
   -0.1984    2.6323   -0.3490 H   0  0  0  0  0  0  0  0  0  0  0  0
    1.5670    2.6149   -0.2938 H   0  0  0  0  0  0  0  0  0  0  0  0
    0.6400    2.0600    1.1042 H   0  0  0  0  0  0  0  0  0  0  0  0
   -2.5912    0.4229    0.4444 C   0  0  0  0  0  0  0  0  0  0  0  0
   -1.4696   -0.6001    0.2922 C   0  0  0  0  0  3  0  0  0  0  0  0
   -0.5160   -0.5460    1.4819 C   0  0  0  0  0  0  0  0  0  0  0  0
   -2.0339   -2.0057    0.1082 C   0  0  0  0  0  0  0  0  0  0  0  0
   -2.1942    1.4350    0.5472 H   0  0  0  0  0  0  0  0  0  0  0  0
   -3.2608    0.4092   -0.4182 H   0  0  0  0  0  0  0  0  0  0  0  0
   -3.1893    0.2072    1.3345 H   0  0  0  0  0  0  0  0  0  0  0  0
   -1.0429   -0.7951    2.4077 H   0  0  0  0  0  0  0  0  0  0  0  0
   -0.0862    0.4507    1.6012 H   0  0  0  0  0  0  0  0  0  0  0  0
    0.3055   -1.2559    1.3649 H   0  0  0  0  0  0  0  0  0  0  0  0
   -2.6948   -2.0578   -0.7596 H   0  0  0  0  0  0  0  0  0  0  0  0
   -1.2364   -2.7386   -0.0307 H   0  0  0  0  0  0  0  0  0  0  0  0
   -2.6128   -2.3049    0.9869 H   0  0  0  0  0  0  0  0  0  0  0  0
  1  2  1  0
  1  5  1  0
  1  6  1  0
  1  7  1  0
  2  4  1  0
  2  3  1  0
  2  8  1  0
  3  9  1  0
  4 10  1  0
  4 11  1  0
  4 12  1  0
 13 14  1  0
 13 17  1  0
 13 18  1  0
 13 19  1  0
 14 15  1  0
 14 16  1  0
 15 20  1  0
 15 21  1  0
 15 22  1  0
 16 23  1  0
 16 24  1  0
 16 25  1  0
M  RAD  1  14   2
M  END
>  <reaction>  (10) 
rxn_1911

>  <mol_properties>  (10) 
{"1": {"label": "*3", "atom_type": "Cs"}, "2": {"label": "*4", "atom_type": "S2s"}, "7": {"label": "*2", "atom_type": "H0"}, "12": {"label": "*0", "atom_type": "Cs"}, "13": {"label": "*1", "atom_type": "Cs"}}

>  <type>  (10) 
unop_6

>  <geom_source>  (10) 
Heuristics

$$$$

     RDKit          3D

 25 23  0  0  0  0  0  0  0  0999 V2000
    0.6455    0.7106   -2.0730 C   0  0  0  0  0  0  0  0  0  0  0  0
    0.6455    0.7106   -0.5507 C   0  0  0  0  0  0  0  0  0  0  0  0
    2.0006   -0.3056    0.1329 S   0  0  0  0  0  0  0  0  0  0  0  0
    0.6455    2.1206    0.0233 C   0  0  0  0  0  0  0  0  0  0  0  0
    0.6169   -0.3036   -2.4697 H   0  0  0  0  0  0  0  0  0  0  0  0
    1.5439    1.2004   -2.4566 H   0  0  0  0  0  0  0  0  0  0  0  0
   -0.2215    1.2581   -2.4519 H   0  0  0  0  0  0  0  0  0  0  0  0
   -0.4224    0.0788   -0.1257 H   0  0  0  0  0  0  0  0  0  0  0  0
    3.0065    0.4302   -0.3621 H   0  0  0  0  0  0  0  0  0  0  0  0
   -0.2215    2.6779   -0.3409 H   0  0  0  0  0  0  0  0  0  0  0  0
    1.5439    2.6605   -0.2857 H   0  0  0  0  0  0  0  0  0  0  0  0
    0.6169    2.1056    1.1122 H   0  0  0  0  0  0  0  0  0  0  0  0
   -2.3128    0.4209    1.1391 C   0  0  0  0  0  0  0  0  0  0  0  0
   -1.4927   -0.5545    0.3003 C   0  0  0  0  0  3  0  0  0  0  0  0
   -0.3311   -1.1262    1.1075 C   0  0  0  0  0  0  0  0  0  0  0  0
   -2.3725   -1.6702   -0.2557 C   0  0  0  0  0  0  0  0  0  0  0  0
   -1.6941    1.2381    1.5158 H   0  0  0  0  0  0  0  0  0  0  0  0
   -3.1287    0.8558    0.5579 H   0  0  0  0  0  0  0  0  0  0  0  0
   -2.7524   -0.0895    2.0010 H   0  0  0  0  0  0  0  0  0  0  0  0
   -0.7026   -1.6898    1.9684 H   0  0  0  0  0  0  0  0  0  0  0  0
    0.3190   -0.3335    1.4838 H   0  0  0  0  0  0  0  0  0  0  0  0
    0.2770   -1.8029    0.5036 H   0  0  0  0  0  0  0  0  0  0  0  0
   -3.1894   -1.2684   -0.8589 H   0  0  0  0  0  0  0  0  0  0  0  0
   -1.7967   -2.3555   -0.8813 H   0  0  0  0  0  0  0  0  0  0  0  0
   -2.8140   -2.2526    0.5583 H   0  0  0  0  0  0  0  0  0  0  0  0
  1  2  1  0
  1  5  1  0
  1  6  1  0
  1  7  1  0
  2  4  1  0
  2  3  1  0
  2  8  1  0
  3  9  1  0
  4 10  1  0
  4 11  1  0
  4 12  1  0
 13 14  1  0
 13 17  1  0
 13 18  1  0
 13 19  1  0
 14 15  1  0
 14 16  1  0
 15 20  1  0
 15 21  1  0
 15 22  1  0
 16 23  1  0
 16 24  1  0
 16 25  1  0
M  RAD  1  14   2
M  END
>  <reaction>  (11) 
rxn_1911

>  <mol_properties>  (11) 
{"1": {"label": "*3", "atom_type": "Cs"}, "2": {"label": "*4", "atom_type": "S2s"}, "7": {"label": "*2", "atom_type": "H0"}, "12": {"label": "*0", "atom_type": "Cs"}, "13": {"label": "*1", "atom_type": "Cs"}}

>  <type>  (11) 
unop_7

>  <geom_source>  (11) 
Heuristics

$$$$

     RDKit          3D

 25 23  0  0  0  0  0  0  0  0999 V2000
    0.6576    0.6835   -2.0811 C   0  0  0  0  0  0  0  0  0  0  0  0
    0.6576    0.6835   -0.5588 C   0  0  0  0  0  0  0  0  0  0  0  0
    2.0127   -0.3328    0.1248 S   0  0  0  0  0  0  0  0  0  0  0  0
    0.6576    2.0935    0.0152 C   0  0  0  0  0  0  0  0  0  0  0  0
    0.6290   -0.3307   -2.4778 H   0  0  0  0  0  0  0  0  0  0  0  0
    1.5560    1.1733   -2.4647 H   0  0  0  0  0  0  0  0  0  0  0  0
   -0.2093    1.2310   -2.4600 H   0  0  0  0  0  0  0  0  0  0  0  0
   -0.4103    0.0516   -0.1338 H   0  0  0  0  0  0  0  0  0  0  0  0
    3.0186    0.4030   -0.3701 H   0  0  0  0  0  0  0  0  0  0  0  0
   -0.2093    2.6508   -0.3490 H   0  0  0  0  0  0  0  0  0  0  0  0
    1.5560    2.6334   -0.2938 H   0  0  0  0  0  0  0  0  0  0  0  0
    0.6290    2.0785    1.1042 H   0  0  0  0  0  0  0  0  0  0  0  0
   -1.1237   -2.0572    0.4444 C   0  0  0  0  0  0  0  0  0  0  0  0
   -1.4806   -0.5817    0.2922 C   0  0  0  0  0  3  0  0  0  0  0  0
   -2.9842   -0.3997    0.1082 C   0  0  0  0  0  0  0  0  0  0  0  0
   -0.9741    0.2282    1.4819 C   0  0  0  0  0  0  0  0  0  0  0  0
   -1.4579   -2.6376   -0.4182 H   0  0  0  0  0  0  0  0  0  0  0  0
   -0.0455   -2.1963    0.5472 H   0  0  0  0  0  0  0  0  0  0  0  0
   -1.6008   -2.4776    1.3345 H   0  0  0  0  0  0  0  0  0  0  0  0
   -3.5251   -0.7632    0.9868 H   0  0  0  0  0  0  0  0  0  0  0  0
   -3.3479   -0.9538   -0.7597 H   0  0  0  0  0  0  0  0  0  0  0  0
   -3.2428    0.6522   -0.0305 H   0  0  0  0  0  0  0  0  0  0  0  0
    0.1065    0.1251    1.6013 H   0  0  0  0  0  0  0  0  0  0  0  0
   -1.2008    1.2900    1.3649 H   0  0  0  0  0  0  0  0  0  0  0  0
   -1.4462   -0.1137    2.4077 H   0  0  0  0  0  0  0  0  0  0  0  0
  1  2  1  0
  1  5  1  0
  1  6  1  0
  1  7  1  0
  2  4  1  0
  2  3  1  0
  2  8  1  0
  3  9  1  0
  4 10  1  0
  4 11  1  0
  4 12  1  0
 13 14  1  0
 13 17  1  0
 13 18  1  0
 13 19  1  0
 14 15  1  0
 14 16  1  0
 15 20  1  0
 15 21  1  0
 15 22  1  0
 16 23  1  0
 16 24  1  0
 16 25  1  0
M  RAD  1  14   2
M  END
>  <reaction>  (12) 
rxn_1911

>  <mol_properties>  (12) 
{"1": {"label": "*3", "atom_type": "Cs"}, "2": {"label": "*4", "atom_type": "S2s"}, "7": {"label": "*2", "atom_type": "H0"}, "12": {"label": "*0", "atom_type": "Cs"}, "13": {"label": "*1", "atom_type": "Cs"}}

>  <type>  (12) 
unop_8

>  <geom_source>  (12) 
Heuristics

$$$$

     RDKit          3D

 25 23  0  0  0  0  0  0  0  0999 V2000
    0.7279    0.6610   -2.0168 C   0  0  0  0  0  0  0  0  0  0  0  0
    0.7279    0.6610   -0.4944 C   0  0  0  0  0  0  0  0  0  0  0  0
    2.0831   -0.3553    0.1891 S   0  0  0  0  0  0  0  0  0  0  0  0
    0.7279    2.0710    0.0795 C   0  0  0  0  0  0  0  0  0  0  0  0
    0.6994   -0.3532   -2.4135 H   0  0  0  0  0  0  0  0  0  0  0  0
    1.6264    1.1508   -2.4004 H   0  0  0  0  0  0  0  0  0  0  0  0
   -0.1390    1.2084   -2.3956 H   0  0  0  0  0  0  0  0  0  0  0  0
   -0.3400    0.0291   -0.0694 H   0  0  0  0  0  0  0  0  0  0  0  0
    3.0890    0.3805   -0.3058 H   0  0  0  0  0  0  0  0  0  0  0  0
   -0.1390    2.6283   -0.2847 H   0  0  0  0  0  0  0  0  0  0  0  0
    1.6264    2.6109   -0.2294 H   0  0  0  0  0  0  0  0  0  0  0  0
    0.6994    2.0560    1.1685 H   0  0  0  0  0  0  0  0  0  0  0  0
   -2.5128   -0.4132   -0.6807 C   0  0  0  0  0  0  0  0  0  0  0  0
   -1.4102   -0.6042    0.3565 C   0  0  0  0  0  3  0  0  0  0  0  0
   -1.5901    0.3566    1.5280 C   0  0  0  0  0  0  0  0  0  0  0  0
   -1.3594   -2.0505    0.8394 C   0  0  0  0  0  0  0  0  0  0  0  0
   -2.5352    0.6136   -1.0518 H   0  0  0  0  0  0  0  0  0  0  0  0
   -2.3731   -1.0780   -1.5356 H   0  0  0  0  0  0  0  0  0  0  0  0
   -3.4920   -0.6317   -0.2446 H   0  0  0  0  0  0  0  0  0  0  0  0
   -2.5376    0.1645    2.0399 H   0  0  0  0  0  0  0  0  0  0  0  0
   -1.5980    1.3956    1.1918 H   0  0  0  0  0  0  0  0  0  0  0  0
   -0.7875    0.2450    2.2599 H   0  0  0  0  0  0  0  0  0  0  0  0
   -1.2016   -2.7413    0.0085 H   0  0  0  0  0  0  0  0  0  0  0  0
   -0.5530   -2.2003    1.5604 H   0  0  0  0  0  0  0  0  0  0  0  0
   -2.2989   -2.3253    1.3279 H   0  0  0  0  0  0  0  0  0  0  0  0
  1  2  1  0
  1  5  1  0
  1  6  1  0
  1  7  1  0
  2  4  1  0
  2  3  1  0
  2  8  1  0
  3  9  1  0
  4 10  1  0
  4 11  1  0
  4 12  1  0
 13 14  1  0
 13 17  1  0
 13 18  1  0
 13 19  1  0
 14 15  1  0
 14 16  1  0
 15 20  1  0
 15 21  1  0
 15 22  1  0
 16 23  1  0
 16 24  1  0
 16 25  1  0
M  RAD  1  14   2
M  END
>  <reaction>  (13) 
rxn_1911

>  <mol_properties>  (13) 
{"1": {"label": "*3", "atom_type": "Cs"}, "2": {"label": "*4", "atom_type": "S2s"}, "7": {"label": "*2", "atom_type": "H0"}, "12": {"label": "*0", "atom_type": "Cs"}, "13": {"label": "*1", "atom_type": "Cs"}}

>  <type>  (13) 
unop_9

>  <geom_source>  (13) 
Heuristics

$$$$

     RDKit          3D

 25 23  0  0  0  0  0  0  0  0999 V2000
    0.6558    0.7259   -2.0555 C   0  0  0  0  0  0  0  0  0  0  0  0
    0.6558    0.7259   -0.5331 C   0  0  0  0  0  0  0  0  0  0  0  0
    2.0109   -0.2904    0.1504 S   0  0  0  0  0  0  0  0  0  0  0  0
    0.6558    2.1359    0.0409 C   0  0  0  0  0  0  0  0  0  0  0  0
    0.6272   -0.2883   -2.4521 H   0  0  0  0  0  0  0  0  0  0  0  0
    1.5542    1.2157   -2.4390 H   0  0  0  0  0  0  0  0  0  0  0  0
   -0.2112    1.2734   -2.4343 H   0  0  0  0  0  0  0  0  0  0  0  0
   -0.4121    0.0940   -0.1081 H   0  0  0  0  0  0  0  0  0  0  0  0
    3.0168    0.4455   -0.3445 H   0  0  0  0  0  0  0  0  0  0  0  0
   -0.2112    2.6932   -0.3233 H   0  0  0  0  0  0  0  0  0  0  0  0
    1.5542    2.6758   -0.2681 H   0  0  0  0  0  0  0  0  0  0  0  0
    0.6272    2.1209    1.1298 H   0  0  0  0  0  0  0  0  0  0  0  0
   -1.4270   -1.9672   -0.2167 C   0  0  0  0  0  0  0  0  0  0  0  0
   -1.4824   -0.5393    0.3178 C   0  0  0  0  0  3  0  0  0  0  0  0
   -2.9259   -0.0722    0.4790 C   0  0  0  0  0  0  0  0  0  0  0  0
   -0.7194   -0.4187    1.6335 C   0  0  0  0  0  0  0  0  0  0  0  0
   -1.9467   -2.0536   -1.1732 H   0  0  0  0  0  0  0  0  0  0  0  0
   -0.3961   -2.2971   -0.3618 H   0  0  0  0  0  0  0  0  0  0  0  0
   -1.9027   -2.6584    0.4852 H   0  0  0  0  0  0  0  0  0  0  0  0
   -3.4531   -0.6983    1.2047 H   0  0  0  0  0  0  0  0  0  0  0  0
   -3.4694   -0.1286   -0.4665 H   0  0  0  0  0  0  0  0  0  0  0  0
   -2.9721    0.9596    0.8336 H   0  0  0  0  0  0  0  0  0  0  0  0
    0.3226   -0.7242    1.5177 H   0  0  0  0  0  0  0  0  0  0  0  0
   -0.7305    0.6077    2.0063 H   0  0  0  0  0  0  0  0  0  0  0  0
   -1.1709   -1.0566    2.3989 H   0  0  0  0  0  0  0  0  0  0  0  0
  1  2  1  0
  1  5  1  0
  1  6  1  0
  1  7  1  0
  2  4  1  0
  2  3  1  0
  2  8  1  0
  3  9  1  0
  4 10  1  0
  4 11  1  0
  4 12  1  0
 13 14  1  0
 13 17  1  0
 13 18  1  0
 13 19  1  0
 14 15  1  0
 14 16  1  0
 15 20  1  0
 15 21  1  0
 15 22  1  0
 16 23  1  0
 16 24  1  0
 16 25  1  0
M  RAD  1  14   2
M  END
>  <reaction>  (14) 
rxn_1911

>  <mol_properties>  (14) 
{"1": {"label": "*3", "atom_type": "Cs"}, "2": {"label": "*4", "atom_type": "S2s"}, "7": {"label": "*2", "atom_type": "H0"}, "12": {"label": "*0", "atom_type": "Cs"}, "13": {"label": "*1", "atom_type": "Cs"}}

>  <type>  (14) 
unop_10

>  <geom_source>  (14) 
Heuristics

$$$$

     RDKit          3D

 25 23  0  0  0  0  0  0  0  0999 V2000
    0.6626    0.7436   -2.0309 C   0  0  0  0  0  0  0  0  0  0  0  0
    0.6626    0.7436   -0.5085 C   0  0  0  0  0  0  0  0  0  0  0  0
    2.0178   -0.2727    0.1750 S   0  0  0  0  0  0  0  0  0  0  0  0
    0.6626    2.1536    0.0655 C   0  0  0  0  0  0  0  0  0  0  0  0
    0.6341   -0.2707   -2.4275 H   0  0  0  0  0  0  0  0  0  0  0  0
    1.5610    1.2333   -2.4144 H   0  0  0  0  0  0  0  0  0  0  0  0
   -0.2043    1.2910   -2.4097 H   0  0  0  0  0  0  0  0  0  0  0  0
   -0.4053    0.1117   -0.0835 H   0  0  0  0  0  0  0  0  0  0  0  0
    3.0237    0.4631   -0.3199 H   0  0  0  0  0  0  0  0  0  0  0  0
   -0.2043    2.7109   -0.2987 H   0  0  0  0  0  0  0  0  0  0  0  0
    1.5610    2.6935   -0.2435 H   0  0  0  0  0  0  0  0  0  0  0  0
    0.6341    2.1386    1.1544 H   0  0  0  0  0  0  0  0  0  0  0  0
   -1.8769    0.0843    1.6839 C   0  0  0  0  0  0  0  0  0  0  0  0
   -1.4756   -0.5216    0.3424 C   0  0  0  0  0  3  0  0  0  0  0  0
   -0.5268   -1.7004    0.5376 C   0  0  0  0  0  0  0  0  0  0  0  0
   -2.7055   -0.9375   -0.4588 C   0  0  0  0  0  0  0  0  0  0  0  0
   -1.0019    0.4109    2.2498 H   0  0  0  0  0  0  0  0  0  0  0  0
   -2.5330    0.9469    1.5496 H   0  0  0  0  0  0  0  0  0  0  0  0
   -2.4123   -0.6506    2.2921 H   0  0  0  0  0  0  0  0  0  0  0  0
   -1.0159   -2.4966    1.1065 H   0  0  0  0  0  0  0  0  0  0  0  0
    0.3696   -1.4021    1.0854 H   0  0  0  0  0  0  0  0  0  0  0  0
   -0.2127   -2.1201   -0.4203 H   0  0  0  0  0  0  0  0  0  0  0  0
   -3.3748   -0.0911   -0.6268 H   0  0  0  0  0  0  0  0  0  0  0  0
   -2.4259   -1.3450   -1.4325 H   0  0  0  0  0  0  0  0  0  0  0  0
   -3.2694   -1.7076    0.0758 H   0  0  0  0  0  0  0  0  0  0  0  0
  1  2  1  0
  1  5  1  0
  1  6  1  0
  1  7  1  0
  2  4  1  0
  2  3  1  0
  2  8  1  0
  3  9  1  0
  4 10  1  0
  4 11  1  0
  4 12  1  0
 13 14  1  0
 13 17  1  0
 13 18  1  0
 13 19  1  0
 14 15  1  0
 14 16  1  0
 15 20  1  0
 15 21  1  0
 15 22  1  0
 16 23  1  0
 16 24  1  0
 16 25  1  0
M  RAD  1  14   2
M  END
>  <reaction>  (15) 
rxn_1911

>  <mol_properties>  (15) 
{"1": {"label": "*3", "atom_type": "Cs"}, "2": {"label": "*4", "atom_type": "S2s"}, "7": {"label": "*2", "atom_type": "H0"}, "12": {"label": "*0", "atom_type": "Cs"}, "13": {"label": "*1", "atom_type": "Cs"}}

>  <type>  (15) 
unop_11

>  <geom_source>  (15) 
Heuristics

$$$$

     RDKit          3D

 25 23  0  0  0  0  0  0  0  0999 V2000
    0.7179    0.7067   -1.9977 C   0  0  0  0  0  0  0  0  0  0  0  0
    0.7179    0.7067   -0.4753 C   0  0  0  0  0  0  0  0  0  0  0  0
    2.0730   -0.3096    0.2082 S   0  0  0  0  0  0  0  0  0  0  0  0
    0.7179    2.1167    0.0986 C   0  0  0  0  0  0  0  0  0  0  0  0
    0.6893   -0.3075   -2.3943 H   0  0  0  0  0  0  0  0  0  0  0  0
    1.6163    1.1964   -2.3812 H   0  0  0  0  0  0  0  0  0  0  0  0
   -0.1491    1.2541   -2.3765 H   0  0  0  0  0  0  0  0  0  0  0  0
   -0.3500    0.0748   -0.0503 H   0  0  0  0  0  0  0  0  0  0  0  0
    3.0789    0.4262   -0.2867 H   0  0  0  0  0  0  0  0  0  0  0  0
   -0.1491    2.6740   -0.2655 H   0  0  0  0  0  0  0  0  0  0  0  0
    1.6163    2.6566   -0.2103 H   0  0  0  0  0  0  0  0  0  0  0  0
    0.6893    2.1017    1.1876 H   0  0  0  0  0  0  0  0  0  0  0  0
   -2.2075   -1.0242   -0.8455 C   0  0  0  0  0  0  0  0  0  0  0  0
   -1.4203   -0.5585    0.3756 C   0  0  0  0  0  3  0  0  0  0  0  0
   -2.2404    0.4170    1.2145 C   0  0  0  0  0  0  0  0  0  0  0  0
   -0.9600   -1.7469    1.2145 C   0  0  0  0  0  0  0  0  0  0  0  0
   -2.5147   -0.1796   -1.4657 H   0  0  0  0  0  0  0  0  0  0  0  0
   -1.6150   -1.7002   -1.4657 H   0  0  0  0  0  0  0  0  0  0  0  0
   -3.1111   -1.5589   -0.5386 H   0  0  0  0  0  0  0  0  0  0  0  0
   -3.1452   -0.0682    1.5922 H   0  0  0  0  0  0  0  0  0  0  0  0
   -2.5482    1.2845    0.6269 H   0  0  0  0  0  0  0  0  0  0  0  0
   -1.6716    0.7767    2.0745 H   0  0  0  0  0  0  0  0  0  0  0  0
   -0.3480   -2.4343    0.6269 H   0  0  0  0  0  0  0  0  0  0  0  0
   -0.3708   -1.4214    2.0744 H   0  0  0  0  0  0  0  0  0  0  0  0
   -1.8209   -2.3063    1.5923 H   0  0  0  0  0  0  0  0  0  0  0  0
  1  2  1  0
  1  5  1  0
  1  6  1  0
  1  7  1  0
  2  4  1  0
  2  3  1  0
  2  8  1  0
  3  9  1  0
  4 10  1  0
  4 11  1  0
  4 12  1  0
 13 14  1  0
 13 17  1  0
 13 18  1  0
 13 19  1  0
 14 15  1  0
 14 16  1  0
 15 20  1  0
 15 21  1  0
 15 22  1  0
 16 23  1  0
 16 24  1  0
 16 25  1  0
M  RAD  1  14   2
M  END
>  <reaction>  (16) 
rxn_1911

>  <mol_properties>  (16) 
{"1": {"label": "*3", "atom_type": "Cs"}, "2": {"label": "*4", "atom_type": "S2s"}, "7": {"label": "*2", "atom_type": "H0"}, "12": {"label": "*0", "atom_type": "Cs"}, "13": {"label": "*1", "atom_type": "Cs"}}

>  <type>  (16) 
unop_12

>  <geom_source>  (16) 
Heuristics

$$$$

     RDKit          3D

 25 23  0  0  0  0  0  0  0  0999 V2000
    2.2176    1.2282   -1.3330 S   0  0  0  0  0  0  0  0  0  0  0  0
   -1.1108    0.1019   -0.0891 C   0  0  0  0  0  0  0  0  0  0  0  0
   -1.8579    1.4387   -0.0649 C   0  0  0  0  0  0  0  0  0  0  0  0
   -1.2591   -0.5762   -1.4542 C   0  0  0  0  0  0  0  0  0  0  0  0
   -1.6107   -0.8176    1.0291 C   0  0  0  0  0  0  0  0  0  0  0  0
    1.7780   -1.3272   -0.4166 C   0  0  0  0  0  0  0  0  0  0  0  0
    1.9917    0.4951    1.3144 C   0  0  0  0  0  0  0  0  0  0  0  0
    1.4822    0.1307   -0.0779 C   0  0  0  0  0  3  0  0  0  0  0  0
    0.1798    0.3433    0.1171 H   0  0  0  0  0  0  0  0  0  0  0  0
   -1.4614    2.1104   -0.8556 H   0  0  0  0  0  0  0  0  0  0  0  0
   -1.7123    1.9381    0.9163 H   0  0  0  0  0  0  0  0  0  0  0  0
   -2.9455    1.2849   -0.2338 H   0  0  0  0  0  0  0  0  0  0  0  0
   -2.3266   -0.7978   -1.6699 H   0  0  0  0  0  0  0  0  0  0  0  0
   -0.8594    0.0843   -2.2526 H   0  0  0  0  0  0  0  0  0  0  0  0
   -0.6830   -1.5256   -1.4720 H   0  0  0  0  0  0  0  0  0  0  0  0
   -2.6900   -1.0472    0.8969 H   0  0  0  0  0  0  0  0  0  0  0  0
   -1.0365   -1.7683    1.0250 H   0  0  0  0  0  0  0  0  0  0  0  0
   -1.4638   -0.3305    2.0164 H   0  0  0  0  0  0  0  0  0  0  0  0
    1.2941   -1.9951    0.3269 H   0  0  0  0  0  0  0  0  0  0  0  0
    1.3679   -1.5684   -1.4197 H   0  0  0  0  0  0  0  0  0  0  0  0
    2.8733   -1.5143   -0.4176 H   0  0  0  0  0  0  0  0  0  0  0  0
    1.5172   -0.1599    2.0753 H   0  0  0  0  0  0  0  0  0  0  0  0
    1.7260    1.5471    1.5484 H   0  0  0  0  0  0  0  0  0  0  0  0
    3.0953    0.3786    1.3696 H   0  0  0  0  0  0  0  0  0  0  0  0
    1.4940    2.3470   -0.8786 H   0  0  0  0  0  0  0  0  0  0  0  0
  1  8  1  0
  1 25  1  0
  2  3  1  0
  2  4  1  0
  2  5  1  0
  2  9  1  0
  3 10  1  0
  3 11  1  0
  3 12  1  0
  4 13  1  0
  4 14  1  0
  4 15  1  0
  5 16  1  0
  5 17  1  0
  5 18  1  0
  6  8  1  0
  6 19  1  0
  6 20  1  0
  6 21  1  0
  7  8  1  0
  7 22  1  0
  7 23  1  0
  7 24  1  0
M  RAD  1   8   2
M  END
>  <reaction>  (17) 
rxn_1911

>  <mol_properties>  (17) 
{"1": {"label": "*3", "atom_type": "Cs"}, "2": {"label": "*4", "atom_type": "S2s"}, "7": {"label": "*2", "atom_type": "H0"}, "12": {"label": "*0", "atom_type": "Cs"}, "13": {"label": "*1", "atom_type": "Cs"}}

>  <type>  (17) 
unop_13

>  <geom_source>  (17) 
AutoTST

$$$$
