
     RDKit          3D

  7  6  0  0  0  0  0  0  0  0999 V2000
   -0.8134   -0.1164    0.3300 C   0  0  0  0  0  0  0  0  0  0  0  0
    0.2313    0.4515   -0.2553 C   0  0  0  0  0  0  0  0  0  0  0  0
    1.4449   -0.1043   -0.4662 O   0  0  0  0  0  0  0  0  0  0  0  0
   -1.7342    0.4365    0.4394 H   0  0  0  0  0  0  0  0  0  0  0  0
   -0.7819   -1.1311    0.7105 H   0  0  0  0  0  0  0  0  0  0  0  0
    0.2022    1.4650   -0.6362 H   0  0  0  0  0  0  0  0  0  0  0  0
    1.4512   -1.0012   -0.1223 H   0  0  0  0  0  0  0  0  0  0  0  0
  1  2  2  3
  1  4  1  0
  1  5  1  0
  2  3  1  0
  2  6  1  0
  3  7  1  0
M  END
>  <reaction>  (1) 
rxn_694

>  <mol_properties>  (1) 
{"2": {"label": "donator", "atom_type": "O2s"}, "6": {"label": "d_hydrogen", "atom_type": "H0"}}

>  <type>  (1) 
r1h

$$$$

     RDKit          3D

  3  2  0  0  0  0  0  0  0  0999 V2000
    0.0002    0.4233    0.0000 N   0  0  0  0  0  2  0  0  0  0  0  0
   -0.8051   -0.2112    0.0000 H   0  0  0  0  0  0  0  0  0  0  0  0
    0.8049   -0.2121    0.0000 H   0  0  0  0  0  0  0  0  0  0  0  0
  1  2  1  0
  1  3  1  0
M  RAD  1   1   2
M  END
>  <reaction>  (2) 
rxn_694

>  <mol_properties>  (2) 
{"0": {"label": "acceptor", "atom_type": "N3s"}}

>  <type>  (2) 
r2

$$$$

     RDKit          3D

  4  3  0  0  0  0  0  0  0  0999 V2000
    0.0006   -0.0009    0.2762 N   0  0  0  0  0  0  0  0  0  0  0  0
   -0.4188    0.8439   -0.0883 H   0  0  0  0  0  0  0  0  0  0  0  0
   -0.5215   -0.7840   -0.0936 H   0  0  0  0  0  0  0  0  0  0  0  0
    0.9397   -0.0590   -0.0943 H   0  0  0  0  0  0  0  0  0  0  0  0
  1  2  1  0
  1  3  1  0
  1  4  1  0
M  END
>  <reaction>  (3) 
rxn_694

>  <mol_properties>  (3) 
{"0": {"label": "acceptor", "atom_type": "N3s"}, "3": {"label": "a_hydrogen", "atom_type": "H0"}}

>  <type>  (3) 
r2h

$$$$

     RDKit          3D

 10  8  0  0  0  0  0  0  0  0999 V2000
   -0.2543    1.8923   -0.3227 N   0  0  0  0  0  2  0  0  0  0  0  0
   -1.1721    1.6710   -0.7034 H   0  0  0  0  0  0  0  0  0  0  0  0
   -0.3694    2.7132    0.2682 H   0  0  0  0  0  0  0  0  0  0  0  0
    0.3287   -1.2680   -1.1187 C   0  0  0  0  0  0  0  0  0  0  0  0
   -0.0422   -1.1215    0.1637 C   0  0  0  0  0  0  0  0  0  0  0  0
    0.2309   -0.0758    0.9203 O   0  0  0  0  0  0  0  0  0  0  0  0
    0.0423   -2.1549   -1.6657 H   0  0  0  0  0  0  0  0  0  0  0  0
    0.9098   -0.5101   -1.6283 H   0  0  0  0  0  0  0  0  0  0  0  0
   -0.6275   -1.8945    0.6609 H   0  0  0  0  0  0  0  0  0  0  0  0
    0.2296    0.8691    0.2882 H   0  0  0  0  0  0  0  0  0  0  0  0
  1  2  1  0
  1  3  1  0
  4  5  2  3
  4  7  1  0
  4  8  1  0
  5  6  1  0
  5  9  1  0
  6 10  1  0
M  RAD  1   1   2
M  END
>  <reaction>  (4) 
rxn_694

>  <mol_properties>  (4) 
{"0": {"label": "*3", "atom_type": "N3s"}, "1": {"label": "*4", "atom_type": "H0"}, "4": {"label": "*0", "atom_type": "Cd"}, "5": {"label": "*1", "atom_type": "O2s"}, "9": {"label": "*2", "atom_type": "H0"}}

>  <type>  (4) 
ts

$$$$

     RDKit          3D

 10  8  0  0  0  0  0  0  0  0999 V2000
    0.0041    1.9188   -0.2823 N   0  0  0  0  0  2  0  0  0  0  0  0
   -0.8310    2.4391   -0.0490 H   0  0  0  0  0  0  0  0  0  0  0  0
    0.5922    2.1428    0.5092 H   0  0  0  0  0  0  0  0  0  0  0  0
    0.0041   -1.1331   -1.1108 C   0  0  0  0  0  0  0  0  0  0  0  0
    0.0041   -1.1331    0.2145 C   0  0  0  0  0  0  0  0  0  0  0  0
    0.0041   -0.0526    1.0262 O   0  0  0  0  0  0  0  0  0  0  0  0
    0.0041   -2.0694   -1.6480 H   0  0  0  0  0  0  0  0  0  0  0  0
    0.0041   -0.2159   -1.6887 H   0  0  0  0  0  0  0  0  0  0  0  0
    0.0041   -2.0481    0.7941 H   0  0  0  0  0  0  0  0  0  0  0  0
    0.0041    0.9078    0.3888 H   0  0  0  0  0  0  0  0  0  0  0  0
  1  2  1  0
  1  3  1  0
  4  5  2  3
  4  7  1  0
  4  8  1  0
  5  6  1  0
  5  9  1  0
  6 10  1  0
M  RAD  1   1   2
M  END
>  <reaction>  (5) 
rxn_694

>  <mol_properties>  (5) 
{"0": {"label": "*3", "atom_type": "N3s"}, "1": {"label": "*4", "atom_type": "H0"}, "4": {"label": "*0", "atom_type": "Cd"}, "5": {"label": "*1", "atom_type": "O2s"}, "9": {"label": "*2", "atom_type": "H0"}}

>  <type>  (5) 
unop_1

>  <geom_source>  (5) 
Heuristics

$$$$

     RDKit          3D

 10  8  0  0  0  0  0  0  0  0999 V2000
    0.0173    1.9311   -0.2644 N   0  0  0  0  0  2  0  0  0  0  0  0
   -0.4649    1.7229   -1.1285 H   0  0  0  0  0  0  0  0  0  0  0  0
   -0.5300    2.1521    0.5567 H   0  0  0  0  0  0  0  0  0  0  0  0
    0.0173   -1.1208   -1.0928 C   0  0  0  0  0  0  0  0  0  0  0  0
    0.0173   -1.1208    0.2325 C   0  0  0  0  0  0  0  0  0  0  0  0
    0.0173   -0.0403    1.0442 O   0  0  0  0  0  0  0  0  0  0  0  0
    0.0173   -2.0571   -1.6300 H   0  0  0  0  0  0  0  0  0  0  0  0
    0.0173   -0.2036   -1.6708 H   0  0  0  0  0  0  0  0  0  0  0  0
    0.0173   -2.0358    0.8120 H   0  0  0  0  0  0  0  0  0  0  0  0
    0.0173    0.9201    0.4067 H   0  0  0  0  0  0  0  0  0  0  0  0
  1  2  1  0
  1  3  1  0
  4  5  2  3
  4  7  1  0
  4  8  1  0
  5  6  1  0
  5  9  1  0
  6 10  1  0
M  RAD  1   1   2
M  END
>  <reaction>  (6) 
rxn_694

>  <mol_properties>  (6) 
{"0": {"label": "*3", "atom_type": "N3s"}, "1": {"label": "*4", "atom_type": "H0"}, "4": {"label": "*0", "atom_type": "Cd"}, "5": {"label": "*1", "atom_type": "O2s"}, "9": {"label": "*2", "atom_type": "H0"}}

>  <type>  (6) 
unop_2

>  <geom_source>  (6) 
Heuristics

$$$$

     RDKit          3D

 10  8  0  0  0  0  0  0  0  0999 V2000
   -0.0070    1.9148   -0.2804 N   0  0  0  0  0  2  0  0  0  0  0  0
   -0.4891    2.6303    0.2471 H   0  0  0  0  0  0  0  0  0  0  0  0
    0.8908    2.1813    0.1011 H   0  0  0  0  0  0  0  0  0  0  0  0
   -0.0070   -1.1371   -1.1088 C   0  0  0  0  0  0  0  0  0  0  0  0
   -0.0070   -1.1371    0.2165 C   0  0  0  0  0  0  0  0  0  0  0  0
   -0.0070   -0.0566    1.0282 O   0  0  0  0  0  0  0  0  0  0  0  0
   -0.0070   -2.0734   -1.6460 H   0  0  0  0  0  0  0  0  0  0  0  0
   -0.0070   -0.2198   -1.6868 H   0  0  0  0  0  0  0  0  0  0  0  0
   -0.0070   -2.0521    0.7961 H   0  0  0  0  0  0  0  0  0  0  0  0
   -0.0070    0.9038    0.3907 H   0  0  0  0  0  0  0  0  0  0  0  0
  1  2  1  0
  1  3  1  0
  4  5  2  3
  4  7  1  0
  4  8  1  0
  5  6  1  0
  5  9  1  0
  6 10  1  0
M  RAD  1   1   2
M  END
>  <reaction>  (7) 
rxn_694

>  <mol_properties>  (7) 
{"0": {"label": "*3", "atom_type": "N3s"}, "1": {"label": "*4", "atom_type": "H0"}, "4": {"label": "*0", "atom_type": "Cd"}, "5": {"label": "*1", "atom_type": "O2s"}, "9": {"label": "*2", "atom_type": "H0"}}

>  <type>  (7) 
unop_3

>  <geom_source>  (7) 
Heuristics

$$$$

     RDKit          3D

 10  8  0  0  0  0  0  0  0  0999 V2000
   -0.0001    1.9256   -0.2479 N   0  0  0  0  0  2  0  0  0  0  0  0
    0.8351    1.9126   -0.8180 H   0  0  0  0  0  0  0  0  0  0  0  0
   -0.8320    2.2787   -0.7016 H   0  0  0  0  0  0  0  0  0  0  0  0
   -0.0001   -1.1263   -1.0764 C   0  0  0  0  0  0  0  0  0  0  0  0
   -0.0001   -1.1263    0.2489 C   0  0  0  0  0  0  0  0  0  0  0  0
   -0.0001   -0.0458    1.0606 O   0  0  0  0  0  0  0  0  0  0  0  0
   -0.0001   -2.0626   -1.6136 H   0  0  0  0  0  0  0  0  0  0  0  0
   -0.0001   -0.2091   -1.6543 H   0  0  0  0  0  0  0  0  0  0  0  0
   -0.0001   -2.0413    0.8285 H   0  0  0  0  0  0  0  0  0  0  0  0
   -0.0001    0.9146    0.4231 H   0  0  0  0  0  0  0  0  0  0  0  0
  1  2  1  0
  1  3  1  0
  4  5  2  3
  4  7  1  0
  4  8  1  0
  5  6  1  0
  5  9  1  0
  6 10  1  0
M  RAD  1   1   2
M  END
>  <reaction>  (8) 
rxn_694

>  <mol_properties>  (8) 
{"0": {"label": "*3", "atom_type": "N3s"}, "1": {"label": "*4", "atom_type": "H0"}, "4": {"label": "*0", "atom_type": "Cd"}, "5": {"label": "*1", "atom_type": "O2s"}, "9": {"label": "*2", "atom_type": "H0"}}

>  <type>  (8) 
unop_4

>  <geom_source>  (8) 
Heuristics

$$$$

     RDKit          3D

 10  8  0  0  0  0  0  0  0  0999 V2000
   -0.0146    1.9123   -0.2694 N   0  0  0  0  0  2  0  0  0  0  0  0
   -0.0146    2.6992    0.3657 H   0  0  0  0  0  0  0  0  0  0  0  0
    0.8557    2.2579   -0.6511 H   0  0  0  0  0  0  0  0  0  0  0  0
   -0.0146   -1.1396   -1.0978 C   0  0  0  0  0  0  0  0  0  0  0  0
   -0.0146   -1.1396    0.2275 C   0  0  0  0  0  0  0  0  0  0  0  0
   -0.0146   -0.0591    1.0392 O   0  0  0  0  0  0  0  0  0  0  0  0
   -0.0146   -2.0759   -1.6350 H   0  0  0  0  0  0  0  0  0  0  0  0
   -0.0146   -0.2224   -1.6758 H   0  0  0  0  0  0  0  0  0  0  0  0
   -0.0146   -2.0546    0.8071 H   0  0  0  0  0  0  0  0  0  0  0  0
   -0.0146    0.9013    0.4017 H   0  0  0  0  0  0  0  0  0  0  0  0
  1  2  1  0
  1  3  1  0
  4  5  2  3
  4  7  1  0
  4  8  1  0
  5  6  1  0
  5  9  1  0
  6 10  1  0
M  RAD  1   1   2
M  END
>  <reaction>  (9) 
rxn_694

>  <mol_properties>  (9) 
{"0": {"label": "*3", "atom_type": "N3s"}, "1": {"label": "*4", "atom_type": "H0"}, "4": {"label": "*0", "atom_type": "Cd"}, "5": {"label": "*1", "atom_type": "O2s"}, "9": {"label": "*2", "atom_type": "H0"}}

>  <type>  (9) 
unop_5

>  <geom_source>  (9) 
Heuristics

$$$$

     RDKit          3D

 10  8  0  0  0  0  0  0  0  0999 V2000
   -0.0065    1.9206   -0.2499 N   0  0  0  0  0  2  0  0  0  0  0  0
    0.9578    2.1743   -0.4183 H   0  0  0  0  0  0  0  0  0  0  0  0
   -0.5850    2.3030   -0.9860 H   0  0  0  0  0  0  0  0  0  0  0  0
   -0.0065   -1.1313   -1.0784 C   0  0  0  0  0  0  0  0  0  0  0  0
   -0.0065   -1.1313    0.2469 C   0  0  0  0  0  0  0  0  0  0  0  0
   -0.0065   -0.0508    1.0586 O   0  0  0  0  0  0  0  0  0  0  0  0
   -0.0065   -2.0676   -1.6156 H   0  0  0  0  0  0  0  0  0  0  0  0
   -0.0065   -0.2140   -1.6563 H   0  0  0  0  0  0  0  0  0  0  0  0
   -0.0065   -2.0463    0.8265 H   0  0  0  0  0  0  0  0  0  0  0  0
   -0.0065    0.9096    0.4211 H   0  0  0  0  0  0  0  0  0  0  0  0
  1  2  1  0
  1  3  1  0
  4  5  2  3
  4  7  1  0
  4  8  1  0
  5  6  1  0
  5  9  1  0
  6 10  1  0
M  RAD  1   1   2
M  END
>  <reaction>  (10) 
rxn_694

>  <mol_properties>  (10) 
{"0": {"label": "*3", "atom_type": "N3s"}, "1": {"label": "*4", "atom_type": "H0"}, "4": {"label": "*0", "atom_type": "Cd"}, "5": {"label": "*1", "atom_type": "O2s"}, "9": {"label": "*2", "atom_type": "H0"}}

>  <type>  (10) 
unop_6

>  <geom_source>  (10) 
Heuristics

$$$$

     RDKit          3D

 10  8  0  0  0  0  0  0  0  0999 V2000
   -0.0103    1.9159   -0.2539 N   0  0  0  0  0  2  0  0  0  0  0  0
    0.8249    2.4361   -0.0205 H   0  0  0  0  0  0  0  0  0  0  0  0
   -0.2345    2.3153   -1.1554 H   0  0  0  0  0  0  0  0  0  0  0  0
   -0.0103   -1.1360   -1.0823 C   0  0  0  0  0  0  0  0  0  0  0  0
   -0.0103   -1.1360    0.2430 C   0  0  0  0  0  0  0  0  0  0  0  0
   -0.0103   -0.0555    1.0547 O   0  0  0  0  0  0  0  0  0  0  0  0
   -0.0103   -2.0724   -1.6195 H   0  0  0  0  0  0  0  0  0  0  0  0
   -0.0103   -0.2188   -1.6603 H   0  0  0  0  0  0  0  0  0  0  0  0
   -0.0103   -2.0511    0.8225 H   0  0  0  0  0  0  0  0  0  0  0  0
   -0.0103    0.9049    0.4172 H   0  0  0  0  0  0  0  0  0  0  0  0
  1  2  1  0
  1  3  1  0
  4  5  2  3
  4  7  1  0
  4  8  1  0
  5  6  1  0
  5  9  1  0
  6 10  1  0
M  RAD  1   1   2
M  END
>  <reaction>  (11) 
rxn_694

>  <mol_properties>  (11) 
{"0": {"label": "*3", "atom_type": "N3s"}, "1": {"label": "*4", "atom_type": "H0"}, "4": {"label": "*0", "atom_type": "Cd"}, "5": {"label": "*1", "atom_type": "O2s"}, "9": {"label": "*2", "atom_type": "H0"}}

>  <type>  (11) 
unop_7

>  <geom_source>  (11) 
Heuristics

$$$$

     RDKit          3D

 10  8  0  0  0  0  0  0  0  0999 V2000
    0.0122    1.9236   -0.2784 N   0  0  0  0  0  2  0  0  0  0  0  0
   -0.9521    2.1772   -0.4468 H   0  0  0  0  0  0  0  0  0  0  0  0
    0.2481    2.1300    0.6830 H   0  0  0  0  0  0  0  0  0  0  0  0
    0.0122   -1.1283   -1.1069 C   0  0  0  0  0  0  0  0  0  0  0  0
    0.0122   -1.1283    0.2184 C   0  0  0  0  0  0  0  0  0  0  0  0
    0.0122   -0.0478    1.0301 O   0  0  0  0  0  0  0  0  0  0  0  0
    0.0122   -2.0646   -1.6441 H   0  0  0  0  0  0  0  0  0  0  0  0
    0.0122   -0.2111   -1.6848 H   0  0  0  0  0  0  0  0  0  0  0  0
    0.0122   -2.0434    0.7980 H   0  0  0  0  0  0  0  0  0  0  0  0
    0.0122    0.9126    0.3926 H   0  0  0  0  0  0  0  0  0  0  0  0
  1  2  1  0
  1  3  1  0
  4  5  2  3
  4  7  1  0
  4  8  1  0
  5  6  1  0
  5  9  1  0
  6 10  1  0
M  RAD  1   1   2
M  END
>  <reaction>  (12) 
rxn_694

>  <mol_properties>  (12) 
{"0": {"label": "*3", "atom_type": "N3s"}, "1": {"label": "*4", "atom_type": "H0"}, "4": {"label": "*0", "atom_type": "Cd"}, "5": {"label": "*1", "atom_type": "O2s"}, "9": {"label": "*2", "atom_type": "H0"}}

>  <type>  (12) 
unop_8

>  <geom_source>  (12) 
Heuristics

$$$$

     RDKit          3D

 10  8  0  0  0  0  0  0  0  0999 V2000
    0.0080    1.9296   -0.2499 N   0  0  0  0  0  2  0  0  0  0  0  0
    0.4902    1.7214   -1.1140 H   0  0  0  0  0  0  0  0  0  0  0  0
   -0.9534    2.2400   -0.2922 H   0  0  0  0  0  0  0  0  0  0  0  0
    0.0080   -1.1223   -1.0783 C   0  0  0  0  0  0  0  0  0  0  0  0
    0.0080   -1.1223    0.2470 C   0  0  0  0  0  0  0  0  0  0  0  0
    0.0080   -0.0418    1.0587 O   0  0  0  0  0  0  0  0  0  0  0  0
    0.0080   -2.0586   -1.6155 H   0  0  0  0  0  0  0  0  0  0  0  0
    0.0080   -0.2051   -1.6563 H   0  0  0  0  0  0  0  0  0  0  0  0
    0.0080   -2.0374    0.8265 H   0  0  0  0  0  0  0  0  0  0  0  0
    0.0080    0.9186    0.4212 H   0  0  0  0  0  0  0  0  0  0  0  0
  1  2  1  0
  1  3  1  0
  4  5  2  3
  4  7  1  0
  4  8  1  0
  5  6  1  0
  5  9  1  0
  6 10  1  0
M  RAD  1   1   2
M  END
>  <reaction>  (13) 
rxn_694

>  <mol_properties>  (13) 
{"0": {"label": "*3", "atom_type": "N3s"}, "1": {"label": "*4", "atom_type": "H0"}, "4": {"label": "*0", "atom_type": "Cd"}, "5": {"label": "*1", "atom_type": "O2s"}, "9": {"label": "*2", "atom_type": "H0"}}

>  <type>  (13) 
unop_9

>  <geom_source>  (13) 
Heuristics

$$$$

     RDKit          3D

 10  8  0  0  0  0  0  0  0  0999 V2000
    0.0164    1.9281   -0.2720 N   0  0  0  0  0  2  0  0  0  0  0  0
   -0.8187    1.9151   -0.8421 H   0  0  0  0  0  0  0  0  0  0  0  0
   -0.1278    2.1326    0.7078 H   0  0  0  0  0  0  0  0  0  0  0  0
    0.0164   -1.1238   -1.1004 C   0  0  0  0  0  0  0  0  0  0  0  0
    0.0164   -1.1238    0.2249 C   0  0  0  0  0  0  0  0  0  0  0  0
    0.0164   -0.0433    1.0366 O   0  0  0  0  0  0  0  0  0  0  0  0
    0.0164   -2.0601   -1.6376 H   0  0  0  0  0  0  0  0  0  0  0  0
    0.0164   -0.2066   -1.6784 H   0  0  0  0  0  0  0  0  0  0  0  0
    0.0164   -2.0389    0.8044 H   0  0  0  0  0  0  0  0  0  0  0  0
    0.0164    0.9171    0.3991 H   0  0  0  0  0  0  0  0  0  0  0  0
  1  2  1  0
  1  3  1  0
  4  5  2  3
  4  7  1  0
  4  8  1  0
  5  6  1  0
  5  9  1  0
  6 10  1  0
M  RAD  1   1   2
M  END
>  <reaction>  (14) 
rxn_694

>  <mol_properties>  (14) 
{"0": {"label": "*3", "atom_type": "N3s"}, "1": {"label": "*4", "atom_type": "H0"}, "4": {"label": "*0", "atom_type": "Cd"}, "5": {"label": "*1", "atom_type": "O2s"}, "9": {"label": "*2", "atom_type": "H0"}}

>  <type>  (14) 
unop_10

>  <geom_source>  (14) 
Heuristics

$$$$

     RDKit          3D

 10  8  0  0  0  0  0  0  0  0999 V2000
   -0.0130    1.9126   -0.2592 N   0  0  0  0  0  2  0  0  0  0  0  0
    0.4692    2.6281    0.2683 H   0  0  0  0  0  0  0  0  0  0  0  0
    0.2781    2.3102   -1.1422 H   0  0  0  0  0  0  0  0  0  0  0  0
   -0.0130   -1.1393   -1.0876 C   0  0  0  0  0  0  0  0  0  0  0  0
   -0.0130   -1.1393    0.2377 C   0  0  0  0  0  0  0  0  0  0  0  0
   -0.0130   -0.0588    1.0494 O   0  0  0  0  0  0  0  0  0  0  0  0
   -0.0130   -2.0756   -1.6248 H   0  0  0  0  0  0  0  0  0  0  0  0
   -0.0130   -0.2220   -1.6655 H   0  0  0  0  0  0  0  0  0  0  0  0
   -0.0130   -2.0543    0.8173 H   0  0  0  0  0  0  0  0  0  0  0  0
   -0.0130    0.9016    0.4119 H   0  0  0  0  0  0  0  0  0  0  0  0
  1  2  1  0
  1  3  1  0
  4  5  2  3
  4  7  1  0
  4  8  1  0
  5  6  1  0
  5  9  1  0
  6 10  1  0
M  RAD  1   1   2
M  END
>  <reaction>  (15) 
rxn_694

>  <mol_properties>  (15) 
{"0": {"label": "*3", "atom_type": "N3s"}, "1": {"label": "*4", "atom_type": "H0"}, "4": {"label": "*0", "atom_type": "Cd"}, "5": {"label": "*1", "atom_type": "O2s"}, "9": {"label": "*2", "atom_type": "H0"}}

>  <type>  (15) 
unop_11

>  <geom_source>  (15) 
Heuristics

$$$$

     RDKit          3D

 10  8  0  0  0  0  0  0  0  0999 V2000
    0.0146    1.9316   -0.2563 N   0  0  0  0  0  2  0  0  0  0  0  0
    0.0146    1.6520   -1.2280 H   0  0  0  0  0  0  0  0  0  0  0  0
   -0.8557    2.1916    0.1882 H   0  0  0  0  0  0  0  0  0  0  0  0
    0.0146   -1.1202   -1.0847 C   0  0  0  0  0  0  0  0  0  0  0  0
    0.0146   -1.1202    0.2406 C   0  0  0  0  0  0  0  0  0  0  0  0
    0.0146   -0.0398    1.0523 O   0  0  0  0  0  0  0  0  0  0  0  0
    0.0146   -2.0566   -1.6219 H   0  0  0  0  0  0  0  0  0  0  0  0
    0.0146   -0.2030   -1.6627 H   0  0  0  0  0  0  0  0  0  0  0  0
    0.0146   -2.0353    0.8202 H   0  0  0  0  0  0  0  0  0  0  0  0
    0.0146    0.9206    0.4148 H   0  0  0  0  0  0  0  0  0  0  0  0
  1  2  1  0
  1  3  1  0
  4  5  2  3
  4  7  1  0
  4  8  1  0
  5  6  1  0
  5  9  1  0
  6 10  1  0
M  RAD  1   1   2
M  END
>  <reaction>  (16) 
rxn_694

>  <mol_properties>  (16) 
{"0": {"label": "*3", "atom_type": "N3s"}, "1": {"label": "*4", "atom_type": "H0"}, "4": {"label": "*0", "atom_type": "Cd"}, "5": {"label": "*1", "atom_type": "O2s"}, "9": {"label": "*2", "atom_type": "H0"}}

>  <type>  (16) 
unop_12

>  <geom_source>  (16) 
Heuristics

$$$$
