
     RDKit          3D

  9  8  0  0  0  0  0  0  0  0999 V2000
   -0.8818   -0.3578    0.1297 C   0  0  0  0  0  0  0  0  0  0  0  0
    0.6153   -0.3021   -0.1188 C   0  0  0  0  0  0  0  0  0  0  0  0
    1.5354   -1.7170    0.5545 S   0  0  0  0  0  0  0  0  0  0  0  0
   -1.1018   -0.3317    1.1984 H   0  0  0  0  0  0  0  0  0  0  0  0
   -1.3114   -1.2723   -0.2799 H   0  0  0  0  0  0  0  0  0  0  0  0
   -1.3767    0.4976   -0.3363 H   0  0  0  0  0  0  0  0  0  0  0  0
    1.0467    0.6194    0.2718 H   0  0  0  0  0  0  0  0  0  0  0  0
    0.8295   -0.3275   -1.1882 H   0  0  0  0  0  0  0  0  0  0  0  0
    1.2306   -1.5077    1.8423 H   0  0  0  0  0  0  0  0  0  0  0  0
  1  2  1  0
  1  4  1  0
  1  5  1  0
  1  6  1  0
  2  3  1  0
  2  7  1  0
  2  8  1  0
  3  9  1  0
M  END
>  <reaction>  (1) 
rxn_1895

>  <mol_properties>  (1) 
{"1": {"label": "donator", "atom_type": "Cs"}, "6": {"label": "d_hydrogen", "atom_type": "H0"}}

>  <type>  (1) 
r1h

$$$$

     RDKit          3D

  7  6  0  0  0  0  0  0  0  0999 V2000
    1.8092   -0.3013   -0.2242 S   0  0  0  0  0  0  0  0  0  0  0  0
    0.1552   -0.6967   -0.1137 C   0  0  0  0  0  0  0  0  0  0  0  0
   -0.8921    0.1788    0.1148 C   0  0  0  0  0  0  0  0  0  0  0  0
   -0.7548    1.8245    0.3328 S   0  0  0  0  0  1  0  0  0  0  0  0
    1.6168    1.0210   -0.0187 H   0  0  0  0  0  0  0  0  0  0  0  0
   -0.0550   -1.7522   -0.2412 H   0  0  0  0  0  0  0  0  0  0  0  0
   -1.8791   -0.2740    0.1502 H   0  0  0  0  0  0  0  0  0  0  0  0
  1  2  1  0
  1  5  1  0
  2  3  2  3
  2  6  1  0
  3  4  1  0
  3  7  1  0
M  RAD  1   4   2
M  END
>  <reaction>  (2) 
rxn_1895

>  <mol_properties>  (2) 
{"1": {"label": "acceptor", "atom_type": "Cs"}}

>  <type>  (2) 
r2

$$$$

     RDKit          3D

  8  7  0  0  0  0  0  0  0  0999 V2000
    1.7301   -0.0562    0.5281 S   0  0  0  0  0  0  0  0  0  0  0  0
    0.1858    0.6127   -0.1669 C   0  0  0  0  0  0  0  0  0  0  0  0
   -0.9621   -0.2567    0.2171 C   0  0  0  0  0  0  0  0  0  0  0  0
   -1.8663   -1.1002   -0.8086 S   0  0  0  0  0  0  0  0  0  0  0  0
    1.7025   -1.2092   -0.1540 H   0  0  0  0  0  0  0  0  0  0  0  0
    0.2619    0.7246   -1.2458 H   0  0  0  0  0  0  0  0  0  0  0  0
    0.0809    1.5982    0.2929 H   0  0  0  0  0  0  0  0  0  0  0  0
   -1.1456   -0.3126    1.2907 H   0  0  0  0  0  0  0  0  0  0  0  0
  1  2  1  0
  1  5  1  0
  2  3  1  0
  2  6  1  0
  2  7  1  0
  3  4  2  0
  3  8  1  0
M  END
>  <reaction>  (3) 
rxn_1895

>  <mol_properties>  (3) 
{"1": {"label": "acceptor", "atom_type": "Cs"}, "7": {"label": "a_hydrogen", "atom_type": "H0"}}

>  <type>  (3) 
r2h

$$$$

     RDKit          3D

 16 14  0  0  0  0  0  0  0  0999 V2000
    2.2337   -0.0979   -0.8073 S   0  0  0  0  0  0  0  0  0  0  0  0
    1.0250   -0.3067    0.4836 C   0  0  0  0  0  0  0  0  0  0  0  0
    0.3810   -1.5907    0.6835 C   0  0  0  0  0  0  0  0  0  0  0  0
    0.2817   -2.8310   -0.3622 S   0  0  0  0  0  0  0  0  0  0  0  0
    1.8441   -1.1889   -1.4943 H   0  0  0  0  0  0  0  0  0  0  0  0
    1.3705    0.1548    1.4078 H   0  0  0  0  0  0  0  0  0  0  0  0
   -0.1452   -1.6625    1.6358 H   0  0  0  0  0  0  0  0  0  0  0  0
   -1.3336    0.7084   -1.6081 C   0  0  0  0  0  0  0  0  0  0  0  0
   -0.9211    1.4209   -0.3559 C   0  0  0  0  0  3  0  0  0  0  0  0
   -0.1104    2.9657   -0.4547 S   0  0  0  0  0  0  0  0  0  0  0  0
   -0.4802    0.5745   -2.2762 H   0  0  0  0  0  0  0  0  0  0  0  0
   -2.1016    1.2714   -2.1469 H   0  0  0  0  0  0  0  0  0  0  0  0
   -1.7346   -0.2778   -1.3698 H   0  0  0  0  0  0  0  0  0  0  0  0
    0.0706    0.4626    0.1936 H   0  0  0  0  0  0  0  0  0  0  0  0
   -1.6486    1.4348    0.4528 H   0  0  0  0  0  0  0  0  0  0  0  0
    0.6658    2.6710   -1.5084 H   0  0  0  0  0  0  0  0  0  0  0  0
  1  2  1  0
  1  5  1  0
  2  3  1  0
  2  6  1  0
  2 14  1  0
  3  4  2  0
  3  7  1  0
  8  9  1  0
  8 11  1  0
  8 12  1  0
  8 13  1  0
  9 10  1  0
  9 15  1  0
 10 16  1  0
M  RAD  1   9   2
M  END
>  <reaction>  (4) 
rxn_1895

>  <mol_properties>  (4) 
{"1": {"label": "*1", "atom_type": "Cs"}, "2": {"label": "*0", "atom_type": "CS"}, "8": {"label": "*3", "atom_type": "Cs"}, "9": {"label": "*4", "atom_type": "S2s"}, "13": {"label": "*2", "atom_type": "H0"}}

>  <type>  (4) 
ts

$$$$

     RDKit          3D

 16 14  0  0  0  0  0  0  0  0999 V2000
    1.3475    0.3859    1.6022 S   0  0  0  0  0  0  0  0  0  0  0  0
    0.2793   -0.6711    0.5739 C   0  0  0  0  0  0  0  0  0  0  0  0
    1.0051   -1.9187    0.2034 C   0  0  0  0  0  0  0  0  0  0  0  0
    1.4151   -2.3403   -1.2917 S   0  0  0  0  0  0  0  0  0  0  0  0
    2.2846    0.5899    0.6664 H   0  0  0  0  0  0  0  0  0  0  0  0
   -0.5728   -0.9085    1.2153 H   0  0  0  0  0  0  0  0  0  0  0  0
    1.2808   -2.5481    1.0504 H   0  0  0  0  0  0  0  0  0  0  0  0
   -1.7422    0.6861   -1.8920 C   0  0  0  0  0  0  0  0  0  0  0  0
   -1.7422    0.6861   -0.3733 C   0  0  0  0  0  3  0  0  0  0  0  0
   -1.7422    2.3435    0.3717 S   0  0  0  0  0  0  0  0  0  0  0  0
   -0.8356    1.1515   -2.2827 H   0  0  0  0  0  0  0  0  0  0  0  0
   -2.5982    1.2373   -2.2821 H   0  0  0  0  0  0  0  0  0  0  0  0
   -1.7853   -0.3373   -2.2722 H   0  0  0  0  0  0  0  0  0  0  0  0
   -0.7303    0.0068    0.1008 H   0  0  0  0  0  0  0  0  0  0  0  0
   -2.6498    0.2191    0.0118 H   0  0  0  0  0  0  0  0  0  0  0  0
   -0.5674    2.7451   -0.1318 H   0  0  0  0  0  0  0  0  0  0  0  0
  1  2  1  0
  1  5  1  0
  2  3  1  0
  2  6  1  0
  2 14  1  0
  3  4  2  0
  3  7  1  0
  8  9  1  0
  8 11  1  0
  8 12  1  0
  8 13  1  0
  9 10  1  0
  9 15  1  0
 10 16  1  0
M  RAD  1   9   2
M  END
>  <reaction>  (5) 
rxn_1895

>  <mol_properties>  (5) 
{"1": {"label": "*1", "atom_type": "Cs"}, "2": {"label": "*0", "atom_type": "CS"}, "8": {"label": "*3", "atom_type": "Cs"}, "9": {"label": "*4", "atom_type": "S2s"}, "13": {"label": "*2", "atom_type": "H0"}}

>  <type>  (5) 
unop_1

>  <geom_source>  (5) 
Heuristics

$$$$

     RDKit          3D

 16 14  0  0  0  0  0  0  0  0999 V2000
    2.2029   -0.2302   -0.6506 S   0  0  0  0  0  0  0  0  0  0  0  0
    0.7824   -0.3008    0.4864 C   0  0  0  0  0  0  0  0  0  0  0  0
    0.6870   -1.6572    1.0961 C   0  0  0  0  0  0  0  0  0  0  0  0
   -0.5264   -2.6867    0.8751 S   0  0  0  0  0  0  0  0  0  0  0  0
    1.7423   -1.1521   -1.5070 H   0  0  0  0  0  0  0  0  0  0  0  0
    1.0079    0.4419    1.2555 H   0  0  0  0  0  0  0  0  0  0  0  0
    1.5442   -1.9366    1.7098 H   0  0  0  0  0  0  0  0  0  0  0  0
   -1.2392    1.0564   -1.9795 C   0  0  0  0  0  0  0  0  0  0  0  0
   -1.2392    1.0564   -0.4608 C   0  0  0  0  0  3  0  0  0  0  0  0
   -1.2392    2.7138    0.2841 S   0  0  0  0  0  0  0  0  0  0  0  0
   -0.3326    1.5218   -2.3703 H   0  0  0  0  0  0  0  0  0  0  0  0
   -2.0952    1.6076   -2.3696 H   0  0  0  0  0  0  0  0  0  0  0  0
   -1.2823    0.0331   -2.3598 H   0  0  0  0  0  0  0  0  0  0  0  0
   -0.2273    0.3771    0.0133 H   0  0  0  0  0  0  0  0  0  0  0  0
   -2.1468    0.5894   -0.0757 H   0  0  0  0  0  0  0  0  0  0  0  0
   -0.0644    3.1155   -0.2194 H   0  0  0  0  0  0  0  0  0  0  0  0
  1  2  1  0
  1  5  1  0
  2  3  1  0
  2  6  1  0
  2 14  1  0
  3  4  2  0
  3  7  1  0
  8  9  1  0
  8 11  1  0
  8 12  1  0
  8 13  1  0
  9 10  1  0
  9 15  1  0
 10 16  1  0
M  RAD  1   9   2
M  END
>  <reaction>  (6) 
rxn_1895

>  <mol_properties>  (6) 
{"1": {"label": "*1", "atom_type": "Cs"}, "2": {"label": "*0", "atom_type": "CS"}, "8": {"label": "*3", "atom_type": "Cs"}, "9": {"label": "*4", "atom_type": "S2s"}, "13": {"label": "*2", "atom_type": "H0"}}

>  <type>  (6) 
unop_2

>  <geom_source>  (6) 
Heuristics

$$$$

     RDKit          3D

 16 14  0  0  0  0  0  0  0  0999 V2000
    0.7511   -0.2846    2.1275 S   0  0  0  0  0  0  0  0  0  0  0  0
    0.2173   -0.9505    0.5191 C   0  0  0  0  0  0  0  0  0  0  0  0
    1.3665   -1.6081   -0.1648 C   0  0  0  0  0  0  0  0  0  0  0  0
    2.0235   -1.1176   -1.5465 S   0  0  0  0  0  0  0  0  0  0  0  0
    1.6304    0.5955    1.6296 H   0  0  0  0  0  0  0  0  0  0  0  0
   -0.5461   -1.6916    0.7674 H   0  0  0  0  0  0  0  0  0  0  0  0
    1.7750   -2.4683    0.3667 H   0  0  0  0  0  0  0  0  0  0  0  0
   -1.8042    0.4067   -1.9468 C   0  0  0  0  0  0  0  0  0  0  0  0
   -1.8042    0.4067   -0.4282 C   0  0  0  0  0  3  0  0  0  0  0  0
   -1.8042    2.0641    0.3168 S   0  0  0  0  0  0  0  0  0  0  0  0
   -0.8976    0.8721   -2.3376 H   0  0  0  0  0  0  0  0  0  0  0  0
   -2.6602    0.9579   -2.3369 H   0  0  0  0  0  0  0  0  0  0  0  0
   -1.8473   -0.6167   -2.3271 H   0  0  0  0  0  0  0  0  0  0  0  0
   -0.7923   -0.2726    0.0460 H   0  0  0  0  0  0  0  0  0  0  0  0
   -2.7118   -0.0603   -0.0430 H   0  0  0  0  0  0  0  0  0  0  0  0
   -0.6294    2.4657   -0.1867 H   0  0  0  0  0  0  0  0  0  0  0  0
  1  2  1  0
  1  5  1  0
  2  3  1  0
  2  6  1  0
  2 14  1  0
  3  4  2  0
  3  7  1  0
  8  9  1  0
  8 11  1  0
  8 12  1  0
  8 13  1  0
  9 10  1  0
  9 15  1  0
 10 16  1  0
M  RAD  1   9   2
M  END
>  <reaction>  (7) 
rxn_1895

>  <mol_properties>  (7) 
{"1": {"label": "*1", "atom_type": "Cs"}, "2": {"label": "*0", "atom_type": "CS"}, "8": {"label": "*3", "atom_type": "Cs"}, "9": {"label": "*4", "atom_type": "S2s"}, "13": {"label": "*2", "atom_type": "H0"}}

>  <type>  (7) 
unop_3

>  <geom_source>  (7) 
Heuristics

$$$$

     RDKit          3D

 16 14  0  0  0  0  0  0  0  0999 V2000
    1.2436   -2.4780   -0.5039 S   0  0  0  0  0  0  0  0  0  0  0  0
    1.3055   -0.7455    0.0528 C   0  0  0  0  0  0  0  0  0  0  0  0
    0.6135   -0.6091    1.3656 C   0  0  0  0  0  0  0  0  0  0  0  0
   -0.7210    0.2479    1.6224 S   0  0  0  0  0  0  0  0  0  0  0  0
   -0.0904   -2.5425   -0.6121 H   0  0  0  0  0  0  0  0  0  0  0  0
    2.3707   -0.5302    0.1655 H   0  0  0  0  0  0  0  0  0  0  0  0
    1.0718   -1.1750    2.1775 H   0  0  0  0  0  0  0  0  0  0  0  0
   -0.7161    0.6117   -2.4130 C   0  0  0  0  0  0  0  0  0  0  0  0
   -0.7161    0.6117   -0.8944 C   0  0  0  0  0  3  0  0  0  0  0  0
   -0.7161    2.2690   -0.1494 S   0  0  0  0  0  0  0  0  0  0  0  0
    0.1905    1.0771   -2.8038 H   0  0  0  0  0  0  0  0  0  0  0  0
   -1.5721    1.1629   -2.8031 H   0  0  0  0  0  0  0  0  0  0  0  0
   -0.7592   -0.4117   -2.7933 H   0  0  0  0  0  0  0  0  0  0  0  0
    0.2958   -0.0676   -0.4202 H   0  0  0  0  0  0  0  0  0  0  0  0
   -1.6237    0.1446   -0.5092 H   0  0  0  0  0  0  0  0  0  0  0  0
    0.4587    2.6707   -0.6529 H   0  0  0  0  0  0  0  0  0  0  0  0
  1  2  1  0
  1  5  1  0
  2  3  1  0
  2  6  1  0
  2 14  1  0
  3  4  2  0
  3  7  1  0
  8  9  1  0
  8 11  1  0
  8 12  1  0
  8 13  1  0
  9 10  1  0
  9 15  1  0
 10 16  1  0
M  RAD  1   9   2
M  END
>  <reaction>  (8) 
rxn_1895

>  <mol_properties>  (8) 
{"1": {"label": "*1", "atom_type": "Cs"}, "2": {"label": "*0", "atom_type": "CS"}, "8": {"label": "*3", "atom_type": "Cs"}, "9": {"label": "*4", "atom_type": "S2s"}, "13": {"label": "*2", "atom_type": "H0"}}

>  <type>  (8) 
unop_4

>  <geom_source>  (8) 
Heuristics

$$$$

     RDKit          3D

 16 14  0  0  0  0  0  0  0  0999 V2000
    0.3776   -1.3323    2.1312 S   0  0  0  0  0  0  0  0  0  0  0  0
    0.3864   -1.3382    0.3104 C   0  0  0  0  0  0  0  0  0  0  0  0
    1.6869   -0.8127   -0.1927 C   0  0  0  0  0  0  0  0  0  0  0  0
    1.8710    0.5369   -1.0448 S   0  0  0  0  0  0  0  0  0  0  0  0
    0.4871   -0.0038    2.2671 H   0  0  0  0  0  0  0  0  0  0  0  0
    0.2757   -2.3905    0.0377 H   0  0  0  0  0  0  0  0  0  0  0  0
    2.5540   -1.4117    0.0880 H   0  0  0  0  0  0  0  0  0  0  0  0
   -1.6352    0.0190   -2.1555 C   0  0  0  0  0  0  0  0  0  0  0  0
   -1.6352    0.0190   -0.6369 C   0  0  0  0  0  3  0  0  0  0  0  0
   -1.6352    1.6763    0.1081 S   0  0  0  0  0  0  0  0  0  0  0  0
   -0.7285    0.4844   -2.5463 H   0  0  0  0  0  0  0  0  0  0  0  0
   -2.4912    0.5702   -2.5456 H   0  0  0  0  0  0  0  0  0  0  0  0
   -1.6783   -1.0044   -2.5358 H   0  0  0  0  0  0  0  0  0  0  0  0
   -0.6233   -0.6604   -0.1627 H   0  0  0  0  0  0  0  0  0  0  0  0
   -2.5428   -0.4481   -0.2517 H   0  0  0  0  0  0  0  0  0  0  0  0
   -0.4604    2.0780   -0.3954 H   0  0  0  0  0  0  0  0  0  0  0  0
  1  2  1  0
  1  5  1  0
  2  3  1  0
  2  6  1  0
  2 14  1  0
  3  4  2  0
  3  7  1  0
  8  9  1  0
  8 11  1  0
  8 12  1  0
  8 13  1  0
  9 10  1  0
  9 15  1  0
 10 16  1  0
M  RAD  1   9   2
M  END
>  <reaction>  (9) 
rxn_1895

>  <mol_properties>  (9) 
{"1": {"label": "*1", "atom_type": "Cs"}, "2": {"label": "*0", "atom_type": "CS"}, "8": {"label": "*3", "atom_type": "Cs"}, "9": {"label": "*4", "atom_type": "S2s"}, "13": {"label": "*2", "atom_type": "H0"}}

>  <type>  (9) 
unop_5

>  <geom_source>  (9) 
Heuristics

$$$$

     RDKit          3D

 16 15  0  0  0  0  0  0  0  0999 V2000
    0.8143   -2.7513    0.2084 S   0  0  0  0  0  0  0  0  0  0  0  0
    1.2591   -1.0015   -0.0274 C   0  0  0  0  0  0  0  0  0  0  0  0
    0.8429   -0.2071    1.1628 C   0  0  0  0  0  3  0  0  0  0  0  0
   -0.2648    0.9566    1.1560 S   0  0  0  0  0  0  0  0  0  0  0  0
   -0.5098   -2.5529    0.2618 H   0  0  0  0  0  0  0  0  0  0  0  0
    2.3481   -1.0035   -0.1156 H   0  0  0  0  0  0  0  0  0  0  0  0
    1.3379   -0.4935    2.0914 H   0  0  0  0  0  0  0  0  0  0  0  0
   -0.7625    0.3557   -2.4932 C   0  0  0  0  0  0  0  0  0  0  0  0
   -0.7625    0.3557   -0.9746 C   0  0  0  0  0  0  0  0  0  0  0  0
   -0.7625    2.0131   -0.2296 S   0  0  0  0  0  4  0  0  0  0  0  0
    0.1442    0.8211   -2.8840 H   0  0  0  0  0  0  0  0  0  0  0  0
   -1.6184    0.9069   -2.8834 H   0  0  0  0  0  0  0  0  0  0  0  0
   -0.8056   -0.6676   -2.8735 H   0  0  0  0  0  0  0  0  0  0  0  0
    0.2494   -0.3236   -0.5005 H   0  0  0  0  0  0  0  0  0  0  0  0
   -1.6701   -0.1113   -0.5894 H   0  0  0  0  0  0  0  0  0  0  0  0
    0.4123    2.4148   -0.7331 H   0  0  0  0  0  0  0  0  0  0  0  0
  1  2  1  0
  1  5  1  0
  2  3  1  0
  2  6  1  0
  2 14  1  0
  3  4  1  0
  3  7  1  0
  4 10  1  0
  8  9  1  0
  8 11  1  0
  8 12  1  0
  8 13  1  0
  9 10  2  3
  9 15  1  0
 10 16  1  0
M  RAD  1   3   2
M  END
>  <reaction>  (10) 
rxn_1895

>  <mol_properties>  (10) 
{"1": {"label": "*1", "atom_type": "Cs"}, "2": {"label": "*0", "atom_type": "CS"}, "8": {"label": "*3", "atom_type": "Cs"}, "9": {"label": "*4", "atom_type": "S2s"}, "13": {"label": "*2", "atom_type": "H0"}}

>  <type>  (10) 
unop_6

>  <geom_source>  (10) 
Heuristics

$$$$

     RDKit          3D

 16 15  0  0  0  0  0  0  0  0999 V2000
    0.5318   -2.6323    0.9917 S   0  0  0  0  0  0  0  0  0  0  0  0
    1.1056   -1.2434   -0.0366 C   0  0  0  0  0  0  0  0  0  0  0  0
    1.1573    0.0036    0.7776 C   0  0  0  0  0  3  0  0  0  0  0  0
    0.2515    1.3073    0.5302 S   0  0  0  0  0  0  0  0  0  0  0  0
   -0.6834   -2.1270    1.2435 H   0  0  0  0  0  0  0  0  0  0  0  0
    2.1125   -1.5299   -0.3495 H   0  0  0  0  0  0  0  0  0  0  0  0
    1.8609   -0.0307    1.6102 H   0  0  0  0  0  0  0  0  0  0  0  0
   -0.9160    0.1138   -2.5025 C   0  0  0  0  0  0  0  0  0  0  0  0
   -0.9160    0.1138   -0.9838 C   0  0  0  0  0  0  0  0  0  0  0  0
   -0.9160    1.7711   -0.2388 S   0  0  0  0  0  4  0  0  0  0  0  0
   -0.0094    0.5792   -2.8932 H   0  0  0  0  0  0  0  0  0  0  0  0
   -1.7720    0.6650   -2.8926 H   0  0  0  0  0  0  0  0  0  0  0  0
   -0.9591   -0.9096   -2.8828 H   0  0  0  0  0  0  0  0  0  0  0  0
    0.0959   -0.5656   -0.5097 H   0  0  0  0  0  0  0  0  0  0  0  0
   -1.8236   -0.3533   -0.5987 H   0  0  0  0  0  0  0  0  0  0  0  0
    0.2588    2.1728   -0.7424 H   0  0  0  0  0  0  0  0  0  0  0  0
  1  2  1  0
  1  5  1  0
  2  3  1  0
  2  6  1  0
  2 14  1  0
  3  4  1  0
  3  7  1  0
  4 10  1  0
  8  9  1  0
  8 11  1  0
  8 12  1  0
  8 13  1  0
  9 10  2  3
  9 15  1  0
 10 16  1  0
M  RAD  1   3   2
M  END
>  <reaction>  (11) 
rxn_1895

>  <mol_properties>  (11) 
{"1": {"label": "*1", "atom_type": "Cs"}, "2": {"label": "*0", "atom_type": "CS"}, "8": {"label": "*3", "atom_type": "Cs"}, "9": {"label": "*4", "atom_type": "S2s"}, "13": {"label": "*2", "atom_type": "H0"}}

>  <type>  (11) 
unop_7

>  <geom_source>  (11) 
Heuristics

$$$$

     RDKit          3D

 16 14  0  0  0  0  0  0  0  0999 V2000
    1.8473    0.5750    0.8137 S   0  0  0  0  0  0  0  0  0  0  0  0
    0.3962   -0.4993    0.5779 C   0  0  0  0  0  0  0  0  0  0  0  0
    0.8152   -1.9293    0.5936 C   0  0  0  0  0  0  0  0  0  0  0  0
    0.7006   -2.9397   -0.6503 S   0  0  0  0  0  0  0  0  0  0  0  0
    2.4774    0.2073   -0.3103 H   0  0  0  0  0  0  0  0  0  0  0  0
   -0.2463   -0.2867    1.4357 H   0  0  0  0  0  0  0  0  0  0  0  0
    1.2520   -2.2606    1.5364 H   0  0  0  0  0  0  0  0  0  0  0  0
   -1.6254    0.8579   -1.8880 C   0  0  0  0  0  0  0  0  0  0  0  0
   -1.6254    0.8579   -0.3693 C   0  0  0  0  0  3  0  0  0  0  0  0
   -1.6254    2.5152    0.3757 S   0  0  0  0  0  0  0  0  0  0  0  0
   -0.7188    1.3233   -2.2787 H   0  0  0  0  0  0  0  0  0  0  0  0
   -2.4814    1.4091   -2.2781 H   0  0  0  0  0  0  0  0  0  0  0  0
   -1.6685   -0.1655   -2.2683 H   0  0  0  0  0  0  0  0  0  0  0  0
   -0.6135    0.1785    0.1048 H   0  0  0  0  0  0  0  0  0  0  0  0
   -2.5330    0.3908    0.0158 H   0  0  0  0  0  0  0  0  0  0  0  0
   -0.4506    2.9169   -0.1279 H   0  0  0  0  0  0  0  0  0  0  0  0
  1  2  1  0
  1  5  1  0
  2  3  1  0
  2  6  1  0
  2 14  1  0
  3  4  2  0
  3  7  1  0
  8  9  1  0
  8 11  1  0
  8 12  1  0
  8 13  1  0
  9 10  1  0
  9 15  1  0
 10 16  1  0
M  RAD  1   9   2
M  END
>  <reaction>  (12) 
rxn_1895

>  <mol_properties>  (12) 
{"1": {"label": "*1", "atom_type": "Cs"}, "2": {"label": "*0", "atom_type": "CS"}, "8": {"label": "*3", "atom_type": "Cs"}, "9": {"label": "*4", "atom_type": "S2s"}, "13": {"label": "*2", "atom_type": "H0"}}

>  <type>  (12) 
unop_8

>  <geom_source>  (12) 
Heuristics

$$$$

     RDKit          3D

 16 14  0  0  0  0  0  0  0  0999 V2000
    1.7075   -1.8445   -0.9473 S   0  0  0  0  0  0  0  0  0  0  0  0
    1.2349   -0.5030    0.1896 C   0  0  0  0  0  0  0  0  0  0  0  0
    0.5299   -1.0670    1.3752 C   0  0  0  0  0  0  0  0  0  0  0  0
   -1.0035   -0.7820    1.7607 S   0  0  0  0  0  0  0  0  0  0  0  0
    0.4574   -2.2378   -1.2265 H   0  0  0  0  0  0  0  0  0  0  0  0
    2.1830   -0.0538    0.4949 H   0  0  0  0  0  0  0  0  0  0  0  0
    1.1364   -1.7404    1.9819 H   0  0  0  0  0  0  0  0  0  0  0  0
   -0.7866    0.8542   -2.2762 C   0  0  0  0  0  0  0  0  0  0  0  0
   -0.7866    0.8542   -0.7576 C   0  0  0  0  0  3  0  0  0  0  0  0
   -0.7866    2.5116   -0.0126 S   0  0  0  0  0  0  0  0  0  0  0  0
    0.1200    1.3196   -2.6670 H   0  0  0  0  0  0  0  0  0  0  0  0
   -1.6426    1.4054   -2.6663 H   0  0  0  0  0  0  0  0  0  0  0  0
   -0.8297   -0.1692   -2.6565 H   0  0  0  0  0  0  0  0  0  0  0  0
    0.2253    0.1749   -0.2835 H   0  0  0  0  0  0  0  0  0  0  0  0
   -1.6942    0.3871   -0.3724 H   0  0  0  0  0  0  0  0  0  0  0  0
    0.3882    2.9132   -0.5161 H   0  0  0  0  0  0  0  0  0  0  0  0
  1  2  1  0
  1  5  1  0
  2  3  1  0
  2  6  1  0
  2 14  1  0
  3  4  2  0
  3  7  1  0
  8  9  1  0
  8 11  1  0
  8 12  1  0
  8 13  1  0
  9 10  1  0
  9 15  1  0
 10 16  1  0
M  RAD  1   9   2
M  END
>  <reaction>  (13) 
rxn_1895

>  <mol_properties>  (13) 
{"1": {"label": "*1", "atom_type": "Cs"}, "2": {"label": "*0", "atom_type": "CS"}, "8": {"label": "*3", "atom_type": "Cs"}, "9": {"label": "*4", "atom_type": "S2s"}, "13": {"label": "*2", "atom_type": "H0"}}

>  <type>  (13) 
unop_9

>  <geom_source>  (13) 
Heuristics

$$$$

     RDKit          3D

 16 14  0  0  0  0  0  0  0  0999 V2000
    2.1382    0.3391   -0.0012 S   0  0  0  0  0  0  0  0  0  0  0  0
    0.5581   -0.3741    0.5555 C   0  0  0  0  0  0  0  0  0  0  0  0
    0.7419   -1.8140    0.8929 C   0  0  0  0  0  0  0  0  0  0  0  0
    0.0459   -3.0400    0.1223 S   0  0  0  0  0  0  0  0  0  0  0  0
    2.2662   -0.4353   -1.0872 H   0  0  0  0  0  0  0  0  0  0  0  0
    0.3015    0.1924    1.4538 H   0  0  0  0  0  0  0  0  0  0  0  0
    1.4323   -1.9993    1.7166 H   0  0  0  0  0  0  0  0  0  0  0  0
   -1.4634    0.9830   -1.9104 C   0  0  0  0  0  0  0  0  0  0  0  0
   -1.4634    0.9830   -0.3917 C   0  0  0  0  0  3  0  0  0  0  0  0
   -1.4634    2.6404    0.3533 S   0  0  0  0  0  0  0  0  0  0  0  0
   -0.5568    1.4485   -2.3011 H   0  0  0  0  0  0  0  0  0  0  0  0
   -2.3194    1.5342   -2.3005 H   0  0  0  0  0  0  0  0  0  0  0  0
   -1.5065   -0.0403   -2.2906 H   0  0  0  0  0  0  0  0  0  0  0  0
   -0.4515    0.3037    0.0824 H   0  0  0  0  0  0  0  0  0  0  0  0
   -2.3710    0.5160   -0.0066 H   0  0  0  0  0  0  0  0  0  0  0  0
   -0.2886    3.0421   -0.1502 H   0  0  0  0  0  0  0  0  0  0  0  0
  1  2  1  0
  1  5  1  0
  2  3  1  0
  2  6  1  0
  2 14  1  0
  3  4  2  0
  3  7  1  0
  8  9  1  0
  8 11  1  0
  8 12  1  0
  8 13  1  0
  9 10  1  0
  9 15  1  0
 10 16  1  0
M  RAD  1   9   2
M  END
>  <reaction>  (14) 
rxn_1895

>  <mol_properties>  (14) 
{"1": {"label": "*1", "atom_type": "Cs"}, "2": {"label": "*0", "atom_type": "CS"}, "8": {"label": "*3", "atom_type": "Cs"}, "9": {"label": "*4", "atom_type": "S2s"}, "13": {"label": "*2", "atom_type": "H0"}}

>  <type>  (14) 
unop_10

>  <geom_source>  (14) 
Heuristics

$$$$

     RDKit          3D

 16 14  0  0  0  0  0  0  0  0999 V2000
    0.3958   -2.1715    1.6678 S   0  0  0  0  0  0  0  0  0  0  0  0
    0.8100   -1.4253    0.0594 C   0  0  0  0  0  0  0  0  0  0  0  0
    1.5057   -0.1240    0.2675 C   0  0  0  0  0  3  0  0  0  0  0  0
    0.9340    1.3109   -0.1747 S   0  0  0  0  0  0  0  0  0  0  0  0
   -0.4347   -1.1974    2.0640 H   0  0  0  0  0  0  0  0  0  0  0  0
    1.4871   -2.1424   -0.4108 H   0  0  0  0  0  0  0  0  0  0  0  0
    2.4608   -0.2019    0.7882 H   0  0  0  0  0  0  0  0  0  0  0  0
   -1.2116   -0.0681   -2.4065 C   0  0  0  0  0  0  0  0  0  0  0  0
   -1.2116   -0.0681   -0.8878 C   0  0  0  0  0  0  0  0  0  0  0  0
   -1.2116    1.5892   -0.1429 S   0  0  0  0  0  0  0  0  0  0  0  0
   -0.3050    0.3973   -2.7973 H   0  0  0  0  0  0  0  0  0  0  0  0
   -2.0676    0.4831   -2.7966 H   0  0  0  0  0  0  0  0  0  0  0  0
   -1.2547   -1.0915   -2.7868 H   0  0  0  0  0  0  0  0  0  0  0  0
   -0.1997   -0.7475   -0.4137 H   0  0  0  0  0  0  0  0  0  0  0  0
   -2.1192   -0.5352   -0.5027 H   0  0  0  0  0  0  0  0  0  0  0  0
   -0.0368    1.9909   -0.6464 H   0  0  0  0  0  0  0  0  0  0  0  0
  1  2  1  0
  1  5  1  0
  2  3  1  0
  2  6  1  0
  2 14  1  0
  3  4  1  0
  3  7  1  0
  4 16  1  0
  8  9  1  0
  8 11  1  0
  8 12  1  0
  8 13  1  0
  9 10  2  0
  9 15  1  0
M  RAD  1   3   2
M  END
>  <reaction>  (15) 
rxn_1895

>  <mol_properties>  (15) 
{"1": {"label": "*1", "atom_type": "Cs"}, "2": {"label": "*0", "atom_type": "CS"}, "8": {"label": "*3", "atom_type": "Cs"}, "9": {"label": "*4", "atom_type": "S2s"}, "13": {"label": "*2", "atom_type": "H0"}}

>  <type>  (15) 
unop_11

>  <geom_source>  (15) 
Heuristics

$$$$

     RDKit          3D

 16 14  0  0  0  0  0  0  0  0999 V2000
    2.0547   -1.0166   -0.9959 S   0  0  0  0  0  0  0  0  0  0  0  0
    1.0396   -0.3352    0.3534 C   0  0  0  0  0  0  0  0  0  0  0  0
    0.5916   -1.4331    1.2560 C   0  0  0  0  0  0  0  0  0  0  0  0
   -0.9350   -1.8813    1.4790 S   0  0  0  0  0  0  0  0  0  0  0  0
    1.0846   -1.7674   -1.5351 H   0  0  0  0  0  0  0  0  0  0  0  0
    1.7107    0.3409    0.8886 H   0  0  0  0  0  0  0  0  0  0  0  0
    1.4019   -1.9601    1.7611 H   0  0  0  0  0  0  0  0  0  0  0  0
   -0.9820    1.0220   -2.1125 C   0  0  0  0  0  0  0  0  0  0  0  0
   -0.9820    1.0220   -0.5938 C   0  0  0  0  0  3  0  0  0  0  0  0
   -0.9820    2.6794    0.1512 S   0  0  0  0  0  0  0  0  0  0  0  0
   -0.0753    1.4874   -2.5032 H   0  0  0  0  0  0  0  0  0  0  0  0
   -1.8379    1.5732   -2.5026 H   0  0  0  0  0  0  0  0  0  0  0  0
   -1.0250   -0.0013   -2.4927 H   0  0  0  0  0  0  0  0  0  0  0  0
    0.0299    0.3427   -0.1197 H   0  0  0  0  0  0  0  0  0  0  0  0
   -1.8896    0.5550   -0.2087 H   0  0  0  0  0  0  0  0  0  0  0  0
    0.1928    3.0811   -0.3523 H   0  0  0  0  0  0  0  0  0  0  0  0
  1  2  1  0
  1  5  1  0
  2  3  1  0
  2  6  1  0
  2 14  1  0
  3  4  2  0
  3  7  1  0
  8  9  1  0
  8 11  1  0
  8 12  1  0
  8 13  1  0
  9 10  1  0
  9 15  1  0
 10 16  1  0
M  RAD  1   9   2
M  END
>  <reaction>  (16) 
rxn_1895

>  <mol_properties>  (16) 
{"1": {"label": "*1", "atom_type": "Cs"}, "2": {"label": "*0", "atom_type": "CS"}, "8": {"label": "*3", "atom_type": "Cs"}, "9": {"label": "*4", "atom_type": "S2s"}, "13": {"label": "*2", "atom_type": "H0"}}

>  <type>  (16) 
unop_12

>  <geom_source>  (16) 
Heuristics

$$$$

     RDKit          3D

 16 14  0  0  0  0  0  0  0  0999 V2000
    2.0377   -1.6358    0.3116 S   0  0  0  0  0  0  0  0  0  0  0  0
   -1.8015    0.2174    1.8128 S   0  0  0  0  0  0  0  0  0  0  0  0
    3.5348    1.3898   -0.0905 S   0  0  0  0  0  0  0  0  0  0  0  0
    1.4022   -0.0184   -0.2299 C   0  0  0  0  0  0  0  0  0  0  0  0
   -1.9740    0.2984   -0.9259 C   0  0  0  0  0  0  0  0  0  0  0  0
   -1.1733   -0.3354    0.1992 C   0  0  0  0  0  3  0  0  0  0  0  0
    2.2065    1.0946    0.3729 C   0  0  0  0  0  0  0  0  0  0  0  0
    1.4193    0.0414   -1.3399 H   0  0  0  0  0  0  0  0  0  0  0  0
    0.1207    0.0959    0.1814 H   0  0  0  0  0  0  0  0  0  0  0  0
   -3.0418    0.0014   -0.8522 H   0  0  0  0  0  0  0  0  0  0  0  0
   -1.5707   -0.0423   -1.9020 H   0  0  0  0  0  0  0  0  0  0  0  0
   -1.8922    1.4043   -0.8721 H   0  0  0  0  0  0  0  0  0  0  0  0
   -1.2393   -1.4421    0.1343 H   0  0  0  0  0  0  0  0  0  0  0  0
    1.7367    1.7585    1.0907 H   0  0  0  0  0  0  0  0  0  0  0  0
    1.0415   -2.3324   -0.3980 H   0  0  0  0  0  0  0  0  0  0  0  0
   -0.8065   -0.4952    2.5078 H   0  0  0  0  0  0  0  0  0  0  0  0
  1  4  1  0
  1 15  1  0
  2  6  1  0
  2 16  1  0
  3  7  2  0
  4  7  1  0
  4  8  1  0
  4  9  1  0
  5  6  1  0
  5 10  1  0
  5 11  1  0
  5 12  1  0
  6 13  1  0
  7 14  1  0
M  RAD  1   6   2
M  END
>  <reaction>  (17) 
rxn_1895

>  <mol_properties>  (17) 
{"1": {"label": "*1", "atom_type": "Cs"}, "2": {"label": "*0", "atom_type": "CS"}, "8": {"label": "*3", "atom_type": "Cs"}, "9": {"label": "*4", "atom_type": "S2s"}, "13": {"label": "*2", "atom_type": "H0"}}

>  <type>  (17) 
unop_13

>  <geom_source>  (17) 
AutoTST

$$$$
