
     RDKit          3D

 13 12  0  0  0  0  0  0  0  0999 V2000
    2.2975   -0.6134    0.7685 C   0  0  0  0  0  0  0  0  0  0  0  0
    1.1676   -0.5248    0.3802 C   0  0  0  0  0  0  0  0  0  0  0  0
   -0.2109   -0.3926   -0.0948 C   0  0  0  0  0  0  0  0  0  0  0  0
   -0.2501    0.2584   -1.4808 C   0  0  0  0  0  0  0  0  0  0  0  0
   -1.0633    0.3831    0.9141 C   0  0  0  0  0  0  0  0  0  0  0  0
    3.2999   -0.6974    1.1133 H   0  0  0  0  0  0  0  0  0  0  0  0
   -0.6209   -1.4038   -0.1814 H   0  0  0  0  0  0  0  0  0  0  0  0
    0.3402   -0.3102   -2.1992 H   0  0  0  0  0  0  0  0  0  0  0  0
    0.1511    1.2724   -1.4369 H   0  0  0  0  0  0  0  0  0  0  0  0
   -1.2791    0.3109   -1.8407 H   0  0  0  0  0  0  0  0  0  0  0  0
   -0.6861    1.4008    1.0287 H   0  0  0  0  0  0  0  0  0  0  0  0
   -1.0492   -0.0971    1.8924 H   0  0  0  0  0  0  0  0  0  0  0  0
   -2.0971    0.4363    0.5680 H   0  0  0  0  0  0  0  0  0  0  0  0
  1  2  3  0
  1  6  1  0
  2  3  1  0
  3  4  1  0
  3  5  1  0
  3  7  1  0
  4  8  1  0
  4  9  1  0
  4 10  1  0
  5 11  1  0
  5 12  1  0
  5 13  1  0
M  END
>  <reaction>  (1) 
rxn_1318

>  <mol_properties>  (1) 
{"2": {"label": "donator", "atom_type": "Cs"}, "6": {"label": "d_hydrogen", "atom_type": "H0"}}

>  <type>  (1) 
r1h

$$$$

     RDKit          3D

  5  4  0  0  0  0  0  0  0  0999 V2000
    0.0397    0.7134    0.0000 C   0  0  0  0  0  3  0  0  0  0  0  0
    0.0458   -0.5870    0.0000 C   0  0  0  0  0  0  0  0  0  0  0  0
   -0.6871    1.5118    0.0000 H   0  0  0  0  0  0  0  0  0  0  0  0
   -0.8806   -1.1637    0.0000 H   0  0  0  0  0  0  0  0  0  0  0  0
    0.9690   -1.1600    0.0000 H   0  0  0  0  0  0  0  0  0  0  0  0
  1  2  2  3
  1  3  1  0
  2  4  1  0
  2  5  1  0
M  RAD  1   1   2
M  END
>  <reaction>  (2) 
rxn_1318

>  <mol_properties>  (2) 
{"0": {"label": "acceptor", "atom_type": "Cd"}}

>  <type>  (2) 
r2

$$$$

     RDKit          3D

  6  5  0  0  0  0  0  0  0  0999 V2000
    0.6594    0.0438   -0.0050 C   0  0  0  0  0  0  0  0  0  0  0  0
   -0.6594   -0.0438    0.0050 C   0  0  0  0  0  0  0  0  0  0  0  0
    1.1706    0.8681   -0.4881 H   0  0  0  0  0  0  0  0  0  0  0  0
    1.2824   -0.7051    0.4696 H   0  0  0  0  0  0  0  0  0  0  0  0
   -1.2824    0.7051   -0.4696 H   0  0  0  0  0  0  0  0  0  0  0  0
   -1.1706   -0.8681    0.4881 H   0  0  0  0  0  0  0  0  0  0  0  0
  1  2  2  3
  1  3  1  0
  1  4  1  0
  2  5  1  0
  2  6  1  0
M  END
>  <reaction>  (3) 
rxn_1318

>  <mol_properties>  (3) 
{"0": {"label": "a_hydrogen", "atom_type": "H0"}, "1": {"label": "acceptor", "atom_type": "Cd"}}

>  <type>  (3) 
r2h

$$$$

     RDKit          3D

 18 16  0  0  0  0  0  0  0  0999 V2000
   -0.2788    0.6035   -2.7201 C   0  0  0  0  0  0  0  0  0  0  0  0
   -0.1702    0.6189   -1.5248 C   0  0  0  0  0  0  0  0  0  0  0  0
   -0.0397    0.6052   -0.0861 C   0  0  0  0  0  0  0  0  0  0  0  0
   -1.2499    1.1814    0.6335 C   0  0  0  0  0  0  0  0  0  0  0  0
    1.2875    1.1653    0.4032 C   0  0  0  0  0  0  0  0  0  0  0  0
   -0.3749    0.5975   -3.7790 H   0  0  0  0  0  0  0  0  0  0  0  0
   -0.0192   -0.5794    0.2216 H   0  0  0  0  0  0  0  0  0  0  0  0
   -2.1692    0.6982    0.3034 H   0  0  0  0  0  0  0  0  0  0  0  0
   -1.3384    2.2536    0.4410 H   0  0  0  0  0  0  0  0  0  0  0  0
   -1.1503    1.0347    1.7105 H   0  0  0  0  0  0  0  0  0  0  0  0
    1.3533    2.2366    0.1966 H   0  0  0  0  0  0  0  0  0  0  0  0
    2.1262    0.6710   -0.0865 H   0  0  0  0  0  0  0  0  0  0  0  0
    1.3815    1.0187    1.4807 H   0  0  0  0  0  0  0  0  0  0  0  0
    0.0211   -1.9817    0.7635 C   0  0  0  0  0  3  0  0  0  0  0  0
    0.1382   -2.1014    2.0619 C   0  0  0  0  0  0  0  0  0  0  0  0
   -0.0539   -2.7367   -0.0091 H   0  0  0  0  0  0  0  0  0  0  0  0
    0.1764   -3.0738    2.5499 H   0  0  0  0  0  0  0  0  0  0  0  0
    0.2028   -1.2341    2.7126 H   0  0  0  0  0  0  0  0  0  0  0  0
  1  2  3  0
  1  6  1  0
  2  3  1  0
  3  4  1  0
  3  5  1  0
  3  7  1  0
  4  8  1  0
  4  9  1  0
  4 10  1  0
  5 11  1  0
  5 12  1  0
  5 13  1  0
 14 15  2  3
 14 16  1  0
 15 17  1  0
 15 18  1  0
M  RAD  1  14   2
M  END
>  <reaction>  (4) 
rxn_1318

>  <mol_properties>  (4) 
{"1": {"label": "*0", "atom_type": "Ct"}, "2": {"label": "*1", "atom_type": "Cs"}, "6": {"label": "*2", "atom_type": "H0"}, "13": {"label": "*3", "atom_type": "Cd"}, "14": {"label": "*4", "atom_type": "Cd"}}

>  <type>  (4) 
ts

$$$$

     RDKit          3D

 18 16  0  0  0  0  0  0  0  0999 V2000
   -0.1415    0.5548   -2.6341 C   0  0  0  0  0  0  0  0  0  0  0  0
   -0.1415    0.5548   -1.4360 C   0  0  0  0  0  0  0  0  0  0  0  0
   -0.1415    0.5788    0.0278 C   0  0  0  0  0  3  0  0  0  0  0  0
   -1.4076    1.2553    0.5622 C   0  0  0  0  0  0  0  0  0  0  0  0
    1.1247    1.2552    0.5622 C   0  0  0  0  0  0  0  0  0  0  0  0
   -0.1415    0.5548   -3.6974 H   0  0  0  0  0  0  0  0  0  0  0  0
   -0.1415   -0.6699    0.4357 H   0  0  0  0  0  0  0  0  0  0  0  0
   -2.3046    0.7560    0.1962 H   0  0  0  0  0  0  0  0  0  0  0  0
   -1.4449    2.2988    0.2446 H   0  0  0  0  0  0  0  0  0  0  0  0
   -1.4149    1.2273    1.6532 H   0  0  0  0  0  0  0  0  0  0  0  0
    1.1620    2.2987    0.2446 H   0  0  0  0  0  0  0  0  0  0  0  0
    2.0217    0.7559    0.1962 H   0  0  0  0  0  0  0  0  0  0  0  0
    1.1320    1.2272    1.6532 H   0  0  0  0  0  0  0  0  0  0  0  0
   -0.1415   -1.9059    0.8395 C   0  0  0  0  0  0  0  0  0  0  0  0
    0.8330   -2.3903    1.5896 C   0  0  0  0  0  0  0  0  0  0  0  0
   -1.1835   -2.0939    1.0702 H   0  0  0  0  0  0  0  0  0  0  0  0
    0.6293   -2.9948    2.4655 H   0  0  0  0  0  0  0  0  0  0  0  0
    1.8750   -2.2023    1.3588 H   0  0  0  0  0  0  0  0  0  0  0  0
  1  2  3  0
  1  6  1  0
  2  3  1  0
  3  4  1  0
  3  5  1  0
  4  8  1  0
  4  9  1  0
  4 10  1  0
  5 11  1  0
  5 12  1  0
  5 13  1  0
  7 14  1  0
 14 15  2  3
 14 16  1  0
 15 17  1  0
 15 18  1  0
M  RAD  1   3   2
M  END
>  <reaction>  (5) 
rxn_1318

>  <mol_properties>  (5) 
{"1": {"label": "*0", "atom_type": "Ct"}, "2": {"label": "*1", "atom_type": "Cs"}, "6": {"label": "*2", "atom_type": "H0"}, "13": {"label": "*3", "atom_type": "Cd"}, "14": {"label": "*4", "atom_type": "Cd"}}

>  <type>  (5) 
unop_1

>  <geom_source>  (5) 
Heuristics

$$$$

     RDKit          3D

 18 16  0  0  0  0  0  0  0  0999 V2000
   -0.0856    0.6289   -2.4141 C   0  0  0  0  0  0  0  0  0  0  0  0
   -0.0856    0.6289   -1.2160 C   0  0  0  0  0  0  0  0  0  0  0  0
   -0.0856    0.6529    0.2478 C   0  0  0  0  0  3  0  0  0  0  0  0
   -1.3517    1.3293    0.7822 C   0  0  0  0  0  0  0  0  0  0  0  0
    1.1805    1.3293    0.7822 C   0  0  0  0  0  0  0  0  0  0  0  0
   -0.0856    0.6289   -3.4774 H   0  0  0  0  0  0  0  0  0  0  0  0
   -0.0856   -0.5958    0.6557 H   0  0  0  0  0  0  0  0  0  0  0  0
   -2.2488    0.8300    0.4162 H   0  0  0  0  0  0  0  0  0  0  0  0
   -1.3891    2.3729    0.4646 H   0  0  0  0  0  0  0  0  0  0  0  0
   -1.3591    1.3013    1.8732 H   0  0  0  0  0  0  0  0  0  0  0  0
    1.2179    2.3728    0.4646 H   0  0  0  0  0  0  0  0  0  0  0  0
    2.0775    0.8300    0.4162 H   0  0  0  0  0  0  0  0  0  0  0  0
    1.1878    1.3013    1.8732 H   0  0  0  0  0  0  0  0  0  0  0  0
   -0.0857   -1.8318    1.0595 C   0  0  0  0  0  0  0  0  0  0  0  0
    0.4770   -2.7935    0.3484 C   0  0  0  0  0  0  0  0  0  0  0  0
   -0.3144   -1.9618    2.1107 H   0  0  0  0  0  0  0  0  0  0  0  0
    0.7322   -3.7505    0.7880 H   0  0  0  0  0  0  0  0  0  0  0  0
    0.7057   -2.6635   -0.7028 H   0  0  0  0  0  0  0  0  0  0  0  0
  1  2  3  0
  1  6  1  0
  2  3  1  0
  3  4  1  0
  3  5  1  0
  4  8  1  0
  4  9  1  0
  4 10  1  0
  5 11  1  0
  5 12  1  0
  5 13  1  0
  7 14  1  0
 14 15  2  3
 14 16  1  0
 15 17  1  0
 15 18  1  0
M  RAD  1   3   2
M  END
>  <reaction>  (6) 
rxn_1318

>  <mol_properties>  (6) 
{"1": {"label": "*0", "atom_type": "Ct"}, "2": {"label": "*1", "atom_type": "Cs"}, "6": {"label": "*2", "atom_type": "H0"}, "13": {"label": "*3", "atom_type": "Cd"}, "14": {"label": "*4", "atom_type": "Cd"}}

>  <type>  (6) 
unop_2

>  <geom_source>  (6) 
Heuristics

$$$$

     RDKit          3D

 18 16  0  0  0  0  0  0  0  0999 V2000
   -0.0783    0.5377   -2.6892 C   0  0  0  0  0  0  0  0  0  0  0  0
   -0.0783    0.5377   -1.4912 C   0  0  0  0  0  0  0  0  0  0  0  0
   -0.0783    0.5616   -0.0273 C   0  0  0  0  0  3  0  0  0  0  0  0
   -1.3444    1.2381    0.5070 C   0  0  0  0  0  0  0  0  0  0  0  0
    1.1878    1.2380    0.5070 C   0  0  0  0  0  0  0  0  0  0  0  0
   -0.0783    0.5377   -3.7526 H   0  0  0  0  0  0  0  0  0  0  0  0
   -0.0783   -0.6870    0.3805 H   0  0  0  0  0  0  0  0  0  0  0  0
   -2.2415    0.7388    0.1411 H   0  0  0  0  0  0  0  0  0  0  0  0
   -1.3818    2.2816    0.1895 H   0  0  0  0  0  0  0  0  0  0  0  0
   -1.3517    1.2101    1.5981 H   0  0  0  0  0  0  0  0  0  0  0  0
    1.2252    2.2815    0.1895 H   0  0  0  0  0  0  0  0  0  0  0  0
    2.0849    0.7387    0.1411 H   0  0  0  0  0  0  0  0  0  0  0  0
    1.1952    1.2100    1.5981 H   0  0  0  0  0  0  0  0  0  0  0  0
   -0.0783   -1.9231    0.7843 C   0  0  0  0  0  0  0  0  0  0  0  0
    0.4843   -2.2795    1.9260 C   0  0  0  0  0  0  0  0  0  0  0  0
   -0.9982   -2.3788    0.4373 H   0  0  0  0  0  0  0  0  0  0  0  0
    0.0483   -3.0418    2.5609 H   0  0  0  0  0  0  0  0  0  0  0  0
    1.4042   -1.8238    2.2729 H   0  0  0  0  0  0  0  0  0  0  0  0
  1  2  3  0
  1  6  1  0
  2  3  1  0
  3  4  1  0
  3  5  1  0
  4  8  1  0
  4  9  1  0
  4 10  1  0
  5 11  1  0
  5 12  1  0
  5 13  1  0
  7 14  1  0
 14 15  2  3
 14 16  1  0
 15 17  1  0
 15 18  1  0
M  RAD  1   3   2
M  END
>  <reaction>  (7) 
rxn_1318

>  <mol_properties>  (7) 
{"1": {"label": "*0", "atom_type": "Ct"}, "2": {"label": "*1", "atom_type": "Cs"}, "6": {"label": "*2", "atom_type": "H0"}, "13": {"label": "*3", "atom_type": "Cd"}, "14": {"label": "*4", "atom_type": "Cd"}}

>  <type>  (7) 
unop_3

>  <geom_source>  (7) 
Heuristics

$$$$

     RDKit          3D

 18 16  0  0  0  0  0  0  0  0999 V2000
    0.1470    0.6083   -2.4742 C   0  0  0  0  0  0  0  0  0  0  0  0
    0.1470    0.6083   -1.2761 C   0  0  0  0  0  0  0  0  0  0  0  0
    0.1470    0.6323    0.1877 C   0  0  0  0  0  3  0  0  0  0  0  0
   -1.1192    1.3088    0.7220 C   0  0  0  0  0  0  0  0  0  0  0  0
    1.4131    1.3087    0.7220 C   0  0  0  0  0  0  0  0  0  0  0  0
    0.1470    0.6083   -3.5375 H   0  0  0  0  0  0  0  0  0  0  0  0
    0.1469   -0.6164    0.5956 H   0  0  0  0  0  0  0  0  0  0  0  0
   -2.0162    0.8095    0.3561 H   0  0  0  0  0  0  0  0  0  0  0  0
   -1.1565    2.3523    0.4045 H   0  0  0  0  0  0  0  0  0  0  0  0
   -1.1265    1.2808    1.8131 H   0  0  0  0  0  0  0  0  0  0  0  0
    1.4505    2.3522    0.4045 H   0  0  0  0  0  0  0  0  0  0  0  0
    2.3101    0.8094    0.3561 H   0  0  0  0  0  0  0  0  0  0  0  0
    1.4204    1.2807    1.8131 H   0  0  0  0  0  0  0  0  0  0  0  0
    0.1469   -1.8524    0.9993 C   0  0  0  0  0  0  0  0  0  0  0  0
   -0.8276   -2.6861    0.6798 C   0  0  0  0  0  0  0  0  0  0  0  0
    0.6736   -1.9288    1.9432 H   0  0  0  0  0  0  0  0  0  0  0  0
   -1.1391   -3.4796    1.3488 H   0  0  0  0  0  0  0  0  0  0  0  0
   -1.3544   -2.6097   -0.2641 H   0  0  0  0  0  0  0  0  0  0  0  0
  1  2  3  0
  1  6  1  0
  2  3  1  0
  3  4  1  0
  3  5  1  0
  4  8  1  0
  4  9  1  0
  4 10  1  0
  5 11  1  0
  5 12  1  0
  5 13  1  0
  7 14  1  0
 14 15  2  3
 14 16  1  0
 15 17  1  0
 15 18  1  0
M  RAD  1   3   2
M  END
>  <reaction>  (8) 
rxn_1318

>  <mol_properties>  (8) 
{"1": {"label": "*0", "atom_type": "Ct"}, "2": {"label": "*1", "atom_type": "Cs"}, "6": {"label": "*2", "atom_type": "H0"}, "13": {"label": "*3", "atom_type": "Cd"}, "14": {"label": "*4", "atom_type": "Cd"}}

>  <type>  (8) 
unop_4

>  <geom_source>  (8) 
Heuristics

$$$$

     RDKit          3D

 18 16  0  0  0  0  0  0  0  0999 V2000
    0.0000    0.5336   -2.7072 C   0  0  0  0  0  0  0  0  0  0  0  0
    0.0000    0.5336   -1.5091 C   0  0  0  0  0  0  0  0  0  0  0  0
    0.0000    0.5575   -0.0453 C   0  0  0  0  0  3  0  0  0  0  0  0
   -1.2661    1.2340    0.4890 C   0  0  0  0  0  0  0  0  0  0  0  0
    1.2661    1.2340    0.4890 C   0  0  0  0  0  0  0  0  0  0  0  0
    0.0000    0.5336   -3.7705 H   0  0  0  0  0  0  0  0  0  0  0  0
   -0.0000   -0.6911    0.3626 H   0  0  0  0  0  0  0  0  0  0  0  0
   -2.1632    0.7347    0.1231 H   0  0  0  0  0  0  0  0  0  0  0  0
   -1.3034    2.2775    0.1715 H   0  0  0  0  0  0  0  0  0  0  0  0
   -1.2734    1.2060    1.5801 H   0  0  0  0  0  0  0  0  0  0  0  0
    1.3035    2.2775    0.1715 H   0  0  0  0  0  0  0  0  0  0  0  0
    2.1632    0.7346    0.1231 H   0  0  0  0  0  0  0  0  0  0  0  0
    1.2735    1.2060    1.5801 H   0  0  0  0  0  0  0  0  0  0  0  0
   -0.0000   -1.9272    0.7664 C   0  0  0  0  0  0  0  0  0  0  0  0
   -0.0000   -2.2368    2.0513 C   0  0  0  0  0  0  0  0  0  0  0  0
   -0.0000   -2.6910   -0.0023 H   0  0  0  0  0  0  0  0  0  0  0  0
   -0.0000   -3.2668    2.3878 H   0  0  0  0  0  0  0  0  0  0  0  0
   -0.0000   -1.4730    2.8200 H   0  0  0  0  0  0  0  0  0  0  0  0
  1  2  3  0
  1  6  1  0
  2  3  1  0
  3  4  1  0
  3  5  1  0
  4  8  1  0
  4  9  1  0
  4 10  1  0
  5 11  1  0
  5 12  1  0
  5 13  1  0
  7 14  1  0
 14 15  2  3
 14 16  1  0
 15 17  1  0
 15 18  1  0
M  RAD  1   3   2
M  END
>  <reaction>  (9) 
rxn_1318

>  <mol_properties>  (9) 
{"1": {"label": "*0", "atom_type": "Ct"}, "2": {"label": "*1", "atom_type": "Cs"}, "6": {"label": "*2", "atom_type": "H0"}, "13": {"label": "*3", "atom_type": "Cd"}, "14": {"label": "*4", "atom_type": "Cd"}}

>  <type>  (9) 
unop_5

>  <geom_source>  (9) 
Heuristics

$$$$

     RDKit          3D

 18 16  0  0  0  0  0  0  0  0999 V2000
    0.1672    0.5810   -2.5551 C   0  0  0  0  0  0  0  0  0  0  0  0
    0.1672    0.5810   -1.3570 C   0  0  0  0  0  0  0  0  0  0  0  0
    0.1672    0.6050    0.1068 C   0  0  0  0  0  3  0  0  0  0  0  0
   -1.0989    1.2814    0.6412 C   0  0  0  0  0  0  0  0  0  0  0  0
    1.4333    1.2814    0.6412 C   0  0  0  0  0  0  0  0  0  0  0  0
    0.1672    0.5810   -3.6184 H   0  0  0  0  0  0  0  0  0  0  0  0
    0.1672   -0.6437    0.5147 H   0  0  0  0  0  0  0  0  0  0  0  0
   -1.9960    0.7821    0.2752 H   0  0  0  0  0  0  0  0  0  0  0  0
   -1.1362    2.3249    0.3236 H   0  0  0  0  0  0  0  0  0  0  0  0
   -1.1062    1.2534    1.7322 H   0  0  0  0  0  0  0  0  0  0  0  0
    1.4707    2.3249    0.3236 H   0  0  0  0  0  0  0  0  0  0  0  0
    2.3304    0.7821    0.2752 H   0  0  0  0  0  0  0  0  0  0  0  0
    1.4407    1.2534    1.7322 H   0  0  0  0  0  0  0  0  0  0  0  0
    0.1672   -1.8798    0.9185 C   0  0  0  0  0  0  0  0  0  0  0  0
   -0.9582   -2.5388    1.1337 C   0  0  0  0  0  0  0  0  0  0  0  0
    1.0102   -1.9584    1.5947 H   0  0  0  0  0  0  0  0  0  0  0  0
   -1.0830   -3.1842    1.9951 H   0  0  0  0  0  0  0  0  0  0  0  0
   -1.8012   -2.4601    0.4575 H   0  0  0  0  0  0  0  0  0  0  0  0
  1  2  3  0
  1  6  1  0
  2  3  1  0
  3  4  1  0
  3  5  1  0
  4  8  1  0
  4  9  1  0
  4 10  1  0
  5 11  1  0
  5 12  1  0
  5 13  1  0
  7 14  1  0
 14 15  2  3
 14 16  1  0
 15 17  1  0
 15 18  1  0
M  RAD  1   3   2
M  END
>  <reaction>  (10) 
rxn_1318

>  <mol_properties>  (10) 
{"1": {"label": "*0", "atom_type": "Ct"}, "2": {"label": "*1", "atom_type": "Cs"}, "6": {"label": "*2", "atom_type": "H0"}, "13": {"label": "*3", "atom_type": "Cd"}, "14": {"label": "*4", "atom_type": "Cd"}}

>  <type>  (10) 
unop_6

>  <geom_source>  (10) 
Heuristics

$$$$

     RDKit          3D

 18 16  0  0  0  0  0  0  0  0999 V2000
    0.1415    0.5548   -2.6341 C   0  0  0  0  0  0  0  0  0  0  0  0
    0.1415    0.5548   -1.4360 C   0  0  0  0  0  0  0  0  0  0  0  0
    0.1415    0.5788    0.0278 C   0  0  0  0  0  3  0  0  0  0  0  0
   -1.1246    1.2552    0.5622 C   0  0  0  0  0  0  0  0  0  0  0  0
    1.4076    1.2552    0.5622 C   0  0  0  0  0  0  0  0  0  0  0  0
    0.1415    0.5548   -3.6974 H   0  0  0  0  0  0  0  0  0  0  0  0
    0.1415   -0.6699    0.4357 H   0  0  0  0  0  0  0  0  0  0  0  0
   -2.0217    0.7559    0.1962 H   0  0  0  0  0  0  0  0  0  0  0  0
   -1.1620    2.2988    0.2446 H   0  0  0  0  0  0  0  0  0  0  0  0
   -1.1319    1.2272    1.6532 H   0  0  0  0  0  0  0  0  0  0  0  0
    1.4450    2.2987    0.2446 H   0  0  0  0  0  0  0  0  0  0  0  0
    2.3047    0.7559    0.1962 H   0  0  0  0  0  0  0  0  0  0  0  0
    1.4150    1.2272    1.6532 H   0  0  0  0  0  0  0  0  0  0  0  0
    0.1415   -1.9059    0.8395 C   0  0  0  0  0  0  0  0  0  0  0  0
   -0.8331   -2.3902    1.5896 C   0  0  0  0  0  0  0  0  0  0  0  0
    1.1834   -2.0940    1.0702 H   0  0  0  0  0  0  0  0  0  0  0  0
   -0.6293   -2.9948    2.4655 H   0  0  0  0  0  0  0  0  0  0  0  0
   -1.8750   -2.2022    1.3588 H   0  0  0  0  0  0  0  0  0  0  0  0
  1  2  3  0
  1  6  1  0
  2  3  1  0
  3  4  1  0
  3  5  1  0
  4  8  1  0
  4  9  1  0
  4 10  1  0
  5 11  1  0
  5 12  1  0
  5 13  1  0
  7 14  1  0
 14 15  2  3
 14 16  1  0
 15 17  1  0
 15 18  1  0
M  RAD  1   3   2
M  END
>  <reaction>  (11) 
rxn_1318

>  <mol_properties>  (11) 
{"1": {"label": "*0", "atom_type": "Ct"}, "2": {"label": "*1", "atom_type": "Cs"}, "6": {"label": "*2", "atom_type": "H0"}, "13": {"label": "*3", "atom_type": "Cd"}, "14": {"label": "*4", "atom_type": "Cd"}}

>  <type>  (11) 
unop_7

>  <geom_source>  (11) 
Heuristics

$$$$

     RDKit          3D

 18 16  0  0  0  0  0  0  0  0999 V2000
   -0.1672    0.5810   -2.5551 C   0  0  0  0  0  0  0  0  0  0  0  0
   -0.1672    0.5810   -1.3570 C   0  0  0  0  0  0  0  0  0  0  0  0
   -0.1672    0.6050    0.1068 C   0  0  0  0  0  3  0  0  0  0  0  0
   -1.4333    1.2814    0.6412 C   0  0  0  0  0  0  0  0  0  0  0  0
    1.0989    1.2814    0.6412 C   0  0  0  0  0  0  0  0  0  0  0  0
   -0.1672    0.5810   -3.6184 H   0  0  0  0  0  0  0  0  0  0  0  0
   -0.1672   -0.6437    0.5147 H   0  0  0  0  0  0  0  0  0  0  0  0
   -2.3303    0.7821    0.2752 H   0  0  0  0  0  0  0  0  0  0  0  0
   -1.4706    2.3250    0.3236 H   0  0  0  0  0  0  0  0  0  0  0  0
   -1.4406    1.2534    1.7322 H   0  0  0  0  0  0  0  0  0  0  0  0
    1.1363    2.3249    0.3236 H   0  0  0  0  0  0  0  0  0  0  0  0
    1.9960    0.7821    0.2752 H   0  0  0  0  0  0  0  0  0  0  0  0
    1.1063    1.2534    1.7322 H   0  0  0  0  0  0  0  0  0  0  0  0
   -0.1672   -1.8797    0.9185 C   0  0  0  0  0  0  0  0  0  0  0  0
    0.9581   -2.5388    1.1337 C   0  0  0  0  0  0  0  0  0  0  0  0
   -1.0103   -1.9584    1.5947 H   0  0  0  0  0  0  0  0  0  0  0  0
    1.0829   -3.1842    1.9951 H   0  0  0  0  0  0  0  0  0  0  0  0
    1.8011   -2.4601    0.4575 H   0  0  0  0  0  0  0  0  0  0  0  0
  1  2  3  0
  1  6  1  0
  2  3  1  0
  3  4  1  0
  3  5  1  0
  4  8  1  0
  4  9  1  0
  4 10  1  0
  5 11  1  0
  5 12  1  0
  5 13  1  0
  7 14  1  0
 14 15  2  3
 14 16  1  0
 15 17  1  0
 15 18  1  0
M  RAD  1   3   2
M  END
>  <reaction>  (12) 
rxn_1318

>  <mol_properties>  (12) 
{"1": {"label": "*0", "atom_type": "Ct"}, "2": {"label": "*1", "atom_type": "Cs"}, "6": {"label": "*2", "atom_type": "H0"}, "13": {"label": "*3", "atom_type": "Cd"}, "14": {"label": "*4", "atom_type": "Cd"}}

>  <type>  (12) 
unop_8

>  <geom_source>  (12) 
Heuristics

$$$$

     RDKit          3D

 18 16  0  0  0  0  0  0  0  0999 V2000
    0.0856    0.6289   -2.4141 C   0  0  0  0  0  0  0  0  0  0  0  0
    0.0856    0.6289   -1.2160 C   0  0  0  0  0  0  0  0  0  0  0  0
    0.0856    0.6529    0.2478 C   0  0  0  0  0  3  0  0  0  0  0  0
   -1.1805    1.3293    0.7822 C   0  0  0  0  0  0  0  0  0  0  0  0
    1.3518    1.3293    0.7822 C   0  0  0  0  0  0  0  0  0  0  0  0
    0.0856    0.6289   -3.4774 H   0  0  0  0  0  0  0  0  0  0  0  0
    0.0856   -0.5958    0.6557 H   0  0  0  0  0  0  0  0  0  0  0  0
   -2.0775    0.8300    0.4162 H   0  0  0  0  0  0  0  0  0  0  0  0
   -1.2178    2.3729    0.4646 H   0  0  0  0  0  0  0  0  0  0  0  0
   -1.1878    1.3013    1.8732 H   0  0  0  0  0  0  0  0  0  0  0  0
    1.3891    2.3728    0.4646 H   0  0  0  0  0  0  0  0  0  0  0  0
    2.2488    0.8300    0.4162 H   0  0  0  0  0  0  0  0  0  0  0  0
    1.3591    1.3013    1.8732 H   0  0  0  0  0  0  0  0  0  0  0  0
    0.0856   -1.8318    1.0595 C   0  0  0  0  0  0  0  0  0  0  0  0
   -0.4771   -2.7935    0.3484 C   0  0  0  0  0  0  0  0  0  0  0  0
    0.3143   -1.9618    2.1107 H   0  0  0  0  0  0  0  0  0  0  0  0
   -0.7323   -3.7505    0.7880 H   0  0  0  0  0  0  0  0  0  0  0  0
   -0.7058   -2.6635   -0.7028 H   0  0  0  0  0  0  0  0  0  0  0  0
  1  2  3  0
  1  6  1  0
  2  3  1  0
  3  4  1  0
  3  5  1  0
  4  8  1  0
  4  9  1  0
  4 10  1  0
  5 11  1  0
  5 12  1  0
  5 13  1  0
  7 14  1  0
 14 15  2  3
 14 16  1  0
 15 17  1  0
 15 18  1  0
M  RAD  1   3   2
M  END
>  <reaction>  (13) 
rxn_1318

>  <mol_properties>  (13) 
{"1": {"label": "*0", "atom_type": "Ct"}, "2": {"label": "*1", "atom_type": "Cs"}, "6": {"label": "*2", "atom_type": "H0"}, "13": {"label": "*3", "atom_type": "Cd"}, "14": {"label": "*4", "atom_type": "Cd"}}

>  <type>  (13) 
unop_9

>  <geom_source>  (13) 
Heuristics

$$$$

     RDKit          3D

 18 16  0  0  0  0  0  0  0  0999 V2000
   -0.1469    0.6084   -2.4742 C   0  0  0  0  0  0  0  0  0  0  0  0
   -0.1469    0.6084   -1.2761 C   0  0  0  0  0  0  0  0  0  0  0  0
   -0.1469    0.6323    0.1877 C   0  0  0  0  0  3  0  0  0  0  0  0
   -1.4130    1.3088    0.7220 C   0  0  0  0  0  0  0  0  0  0  0  0
    1.1192    1.3087    0.7220 C   0  0  0  0  0  0  0  0  0  0  0  0
   -0.1469    0.6084   -3.5375 H   0  0  0  0  0  0  0  0  0  0  0  0
   -0.1470   -0.6164    0.5956 H   0  0  0  0  0  0  0  0  0  0  0  0
   -2.3101    0.8095    0.3561 H   0  0  0  0  0  0  0  0  0  0  0  0
   -1.4504    2.3523    0.4045 H   0  0  0  0  0  0  0  0  0  0  0  0
   -1.4204    1.2808    1.8131 H   0  0  0  0  0  0  0  0  0  0  0  0
    1.1566    2.3522    0.4045 H   0  0  0  0  0  0  0  0  0  0  0  0
    2.0162    0.8094    0.3561 H   0  0  0  0  0  0  0  0  0  0  0  0
    1.1265    1.2807    1.8131 H   0  0  0  0  0  0  0  0  0  0  0  0
   -0.1470   -1.8524    0.9993 C   0  0  0  0  0  0  0  0  0  0  0  0
    0.8276   -2.6862    0.6798 C   0  0  0  0  0  0  0  0  0  0  0  0
   -0.6737   -1.9288    1.9432 H   0  0  0  0  0  0  0  0  0  0  0  0
    1.1390   -3.4796    1.3488 H   0  0  0  0  0  0  0  0  0  0  0  0
    1.3543   -2.6098   -0.2641 H   0  0  0  0  0  0  0  0  0  0  0  0
  1  2  3  0
  1  6  1  0
  2  3  1  0
  3  4  1  0
  3  5  1  0
  4  8  1  0
  4  9  1  0
  4 10  1  0
  5 11  1  0
  5 12  1  0
  5 13  1  0
  7 14  1  0
 14 15  2  3
 14 16  1  0
 15 17  1  0
 15 18  1  0
M  RAD  1   3   2
M  END
>  <reaction>  (14) 
rxn_1318

>  <mol_properties>  (14) 
{"1": {"label": "*0", "atom_type": "Ct"}, "2": {"label": "*1", "atom_type": "Cs"}, "6": {"label": "*2", "atom_type": "H0"}, "13": {"label": "*3", "atom_type": "Cd"}, "14": {"label": "*4", "atom_type": "Cd"}}

>  <type>  (14) 
unop_10

>  <geom_source>  (14) 
Heuristics

$$$$

     RDKit          3D

 18 16  0  0  0  0  0  0  0  0999 V2000
    0.0783    0.5377   -2.6892 C   0  0  0  0  0  0  0  0  0  0  0  0
    0.0783    0.5377   -1.4912 C   0  0  0  0  0  0  0  0  0  0  0  0
    0.0783    0.5616   -0.0273 C   0  0  0  0  0  3  0  0  0  0  0  0
   -1.1878    1.2381    0.5070 C   0  0  0  0  0  0  0  0  0  0  0  0
    1.3445    1.2380    0.5070 C   0  0  0  0  0  0  0  0  0  0  0  0
    0.0783    0.5377   -3.7526 H   0  0  0  0  0  0  0  0  0  0  0  0
    0.0783   -0.6871    0.3805 H   0  0  0  0  0  0  0  0  0  0  0  0
   -2.0848    0.7388    0.1411 H   0  0  0  0  0  0  0  0  0  0  0  0
   -1.2251    2.2816    0.1895 H   0  0  0  0  0  0  0  0  0  0  0  0
   -1.1951    1.2101    1.5981 H   0  0  0  0  0  0  0  0  0  0  0  0
    1.3818    2.2815    0.1895 H   0  0  0  0  0  0  0  0  0  0  0  0
    2.2415    0.7387    0.1411 H   0  0  0  0  0  0  0  0  0  0  0  0
    1.3518    1.2100    1.5981 H   0  0  0  0  0  0  0  0  0  0  0  0
    0.0783   -1.9231    0.7843 C   0  0  0  0  0  0  0  0  0  0  0  0
   -0.4844   -2.2795    1.9260 C   0  0  0  0  0  0  0  0  0  0  0  0
    0.9981   -2.3789    0.4373 H   0  0  0  0  0  0  0  0  0  0  0  0
   -0.0484   -3.0418    2.5609 H   0  0  0  0  0  0  0  0  0  0  0  0
   -1.4042   -1.8238    2.2729 H   0  0  0  0  0  0  0  0  0  0  0  0
  1  2  3  0
  1  6  1  0
  2  3  1  0
  3  4  1  0
  3  5  1  0
  4  8  1  0
  4  9  1  0
  4 10  1  0
  5 11  1  0
  5 12  1  0
  5 13  1  0
  7 14  1  0
 14 15  2  3
 14 16  1  0
 15 17  1  0
 15 18  1  0
M  RAD  1   3   2
M  END
>  <reaction>  (15) 
rxn_1318

>  <mol_properties>  (15) 
{"1": {"label": "*0", "atom_type": "Ct"}, "2": {"label": "*1", "atom_type": "Cs"}, "6": {"label": "*2", "atom_type": "H0"}, "13": {"label": "*3", "atom_type": "Cd"}, "14": {"label": "*4", "atom_type": "Cd"}}

>  <type>  (15) 
unop_11

>  <geom_source>  (15) 
Heuristics

$$$$

     RDKit          3D

 18 16  0  0  0  0  0  0  0  0999 V2000
    0.0000    0.6366   -2.3919 C   0  0  0  0  0  0  0  0  0  0  0  0
    0.0000    0.6366   -1.1938 C   0  0  0  0  0  0  0  0  0  0  0  0
    0.0000    0.6606    0.2700 C   0  0  0  0  0  3  0  0  0  0  0  0
   -1.2661    1.3370    0.8044 C   0  0  0  0  0  0  0  0  0  0  0  0
    1.2661    1.3370    0.8044 C   0  0  0  0  0  0  0  0  0  0  0  0
    0.0000    0.6366   -3.4552 H   0  0  0  0  0  0  0  0  0  0  0  0
   -0.0000   -0.5881    0.6779 H   0  0  0  0  0  0  0  0  0  0  0  0
   -2.1632    0.8377    0.4385 H   0  0  0  0  0  0  0  0  0  0  0  0
   -1.3034    2.3805    0.4869 H   0  0  0  0  0  0  0  0  0  0  0  0
   -1.2734    1.3090    1.8954 H   0  0  0  0  0  0  0  0  0  0  0  0
    1.3035    2.3805    0.4869 H   0  0  0  0  0  0  0  0  0  0  0  0
    2.1632    0.8377    0.4385 H   0  0  0  0  0  0  0  0  0  0  0  0
    1.2735    1.3090    1.8954 H   0  0  0  0  0  0  0  0  0  0  0  0
   -0.0000   -1.8242    1.0817 C   0  0  0  0  0  0  0  0  0  0  0  0
   -0.0000   -2.8326    0.2273 C   0  0  0  0  0  0  0  0  0  0  0  0
   -0.0000   -1.9869    2.1530 H   0  0  0  0  0  0  0  0  0  0  0  0
   -0.0001   -3.8627    0.5638 H   0  0  0  0  0  0  0  0  0  0  0  0
   -0.0000   -2.6699   -0.8440 H   0  0  0  0  0  0  0  0  0  0  0  0
  1  2  3  0
  1  6  1  0
  2  3  1  0
  3  4  1  0
  3  5  1  0
  4  8  1  0
  4  9  1  0
  4 10  1  0
  5 11  1  0
  5 12  1  0
  5 13  1  0
  7 14  1  0
 14 15  2  3
 14 16  1  0
 15 17  1  0
 15 18  1  0
M  RAD  1   3   2
M  END
>  <reaction>  (16) 
rxn_1318

>  <mol_properties>  (16) 
{"1": {"label": "*0", "atom_type": "Ct"}, "2": {"label": "*1", "atom_type": "Cs"}, "6": {"label": "*2", "atom_type": "H0"}, "13": {"label": "*3", "atom_type": "Cd"}, "14": {"label": "*4", "atom_type": "Cd"}}

>  <type>  (16) 
unop_12

>  <geom_source>  (16) 
Heuristics

$$$$

     RDKit          3D

 18 16  0  0  0  0  0  0  0  0999 V2000
   -1.0667   -1.2834   -0.6333 C   0  0  0  0  0  0  0  0  0  0  0  0
   -1.3696   -0.2214    1.6391 C   0  0  0  0  0  0  0  0  0  0  0  0
   -0.6303   -0.1581    0.3035 C   0  0  0  0  0  3  0  0  0  0  0  0
    1.8775   -0.3488   -0.3087 C   0  0  0  0  0  0  0  0  0  0  0  0
    2.8831    0.5156   -0.4188 C   0  0  0  0  0  0  0  0  0  0  0  0
   -0.8280    1.1518   -0.3350 C   0  0  0  0  0  0  0  0  0  0  0  0
   -0.9892    2.2259   -0.8585 C   0  0  0  0  0  0  0  0  0  0  0  0
   -0.8708   -2.2676   -0.1579 H   0  0  0  0  0  0  0  0  0  0  0  0
   -2.1505   -1.2035   -0.8677 H   0  0  0  0  0  0  0  0  0  0  0  0
   -0.4861   -1.2355   -1.5792 H   0  0  0  0  0  0  0  0  0  0  0  0
   -2.4647   -0.1017    1.4898 H   0  0  0  0  0  0  0  0  0  0  0  0
   -1.0049    0.5833    2.3125 H   0  0  0  0  0  0  0  0  0  0  0  0
   -1.1760   -1.1975    2.1318 H   0  0  0  0  0  0  0  0  0  0  0  0
    1.9878   -1.3655   -0.6718 H   0  0  0  0  0  0  0  0  0  0  0  0
    0.8292   -0.0037    0.1998 H   0  0  0  0  0  0  0  0  0  0  0  0
    3.8203    0.2100   -0.8725 H   0  0  0  0  0  0  0  0  0  0  0  0
    2.7700    1.5314   -0.0549 H   0  0  0  0  0  0  0  0  0  0  0  0
   -1.1309    3.1687   -1.3180 H   0  0  0  0  0  0  0  0  0  0  0  0
  1  3  1  0
  1  8  1  0
  1  9  1  0
  1 10  1  0
  2  3  1  0
  2 11  1  0
  2 12  1  0
  2 13  1  0
  3  6  1  0
  4  5  2  3
  4 14  1  0
  4 15  1  0
  5 16  1  0
  5 17  1  0
  6  7  3  0
  7 18  1  0
M  RAD  1   3   2
M  END
>  <reaction>  (17) 
rxn_1318

>  <mol_properties>  (17) 
{"1": {"label": "*0", "atom_type": "Ct"}, "2": {"label": "*1", "atom_type": "Cs"}, "6": {"label": "*2", "atom_type": "H0"}, "13": {"label": "*3", "atom_type": "Cd"}, "14": {"label": "*4", "atom_type": "Cd"}}

>  <type>  (17) 
unop_13

>  <geom_source>  (17) 
AutoTST

$$$$
