
     RDKit          3D

 14 13  0  0  0  0  0  0  0  0999 V2000
   -0.7647   -1.2352   -0.0349 C   0  0  0  0  0  0  0  0  0  0  0  0
    0.0570   -0.0126    0.3624 C   0  0  0  0  0  0  0  0  0  0  0  0
    1.4161   -0.0194   -0.3308 C   0  0  0  0  0  0  0  0  0  0  0  0
   -0.7022    1.2765    0.0629 C   0  0  0  0  0  0  0  0  0  0  0  0
   -0.2387   -2.1618    0.2040 H   0  0  0  0  0  0  0  0  0  0  0  0
   -0.9625   -1.2316   -1.1108 H   0  0  0  0  0  0  0  0  0  0  0  0
   -1.7273   -1.2512    0.4806 H   0  0  0  0  0  0  0  0  0  0  0  0
    0.2295   -0.0590    1.4432 H   0  0  0  0  0  0  0  0  0  0  0  0
    1.2933    0.0260   -1.4168 H   0  0  0  0  0  0  0  0  0  0  0  0
    2.0206    0.8381   -0.0279 H   0  0  0  0  0  0  0  0  0  0  0  0
    1.9767   -0.9268   -0.0966 H   0  0  0  0  0  0  0  0  0  0  0  0
   -1.6639    1.3001    0.5798 H   0  0  0  0  0  0  0  0  0  0  0  0
   -0.8977    1.3664   -1.0096 H   0  0  0  0  0  0  0  0  0  0  0  0
   -0.1313    2.1545    0.3722 H   0  0  0  0  0  0  0  0  0  0  0  0
  1  2  1  0
  1  5  1  0
  1  6  1  0
  1  7  1  0
  2  3  1  0
  2  4  1  0
  2  8  1  0
  3  9  1  0
  3 10  1  0
  3 11  1  0
  4 12  1  0
  4 13  1  0
  4 14  1  0
M  END
>  <reaction>  (1) 
rxn_978

>  <mol_properties>  (1) 
{"1": {"label": "donator", "atom_type": "Cs"}, "7": {"label": "d_hydrogen", "atom_type": "H0"}}

>  <type>  (1) 
r1h

$$$$

     RDKit          3D

  9  8  0  0  0  0  0  0  0  0999 V2000
   -1.2704   -0.1236    0.1096 C   0  0  0  0  0  0  0  0  0  0  0  0
    0.0713   -0.5323    0.5887 C   0  0  0  0  0  0  0  0  0  0  0  0
    0.9521   -1.3639   -0.0464 C   0  0  0  0  0  0  0  0  0  0  0  0
    0.6900   -2.1109   -1.5335 S   0  0  0  0  0  1  0  0  0  0  0  0
   -1.3201    0.9657    0.0241 H   0  0  0  0  0  0  0  0  0  0  0  0
   -1.5103   -0.5706   -0.8526 H   0  0  0  0  0  0  0  0  0  0  0  0
   -2.0312   -0.4112    0.8411 H   0  0  0  0  0  0  0  0  0  0  0  0
    0.3863   -0.1265    1.5468 H   0  0  0  0  0  0  0  0  0  0  0  0
    1.8971   -1.5543    0.4552 H   0  0  0  0  0  0  0  0  0  0  0  0
  1  2  1  0
  1  5  1  0
  1  6  1  0
  1  7  1  0
  2  3  2  3
  2  8  1  0
  3  4  1  0
  3  9  1  0
M  RAD  1   4   2
M  END
>  <reaction>  (2) 
rxn_978

>  <mol_properties>  (2) 
{"1": {"label": "acceptor", "atom_type": "Cs"}}

>  <type>  (2) 
r2

$$$$

     RDKit          3D

 10  9  0  0  0  0  0  0  0  0999 V2000
   -1.1508    0.0666    0.2839 C   0  0  0  0  0  0  0  0  0  0  0  0
    0.1022   -0.3749   -0.4771 C   0  0  0  0  0  0  0  0  0  0  0  0
    1.3428    0.1620    0.1542 C   0  0  0  0  0  0  0  0  0  0  0  0
    2.5613   -0.6971    0.7526 S   0  0  0  0  0  0  0  0  0  0  0  0
   -1.2137    1.1546    0.3481 H   0  0  0  0  0  0  0  0  0  0  0  0
   -2.0472   -0.2935   -0.2212 H   0  0  0  0  0  0  0  0  0  0  0  0
   -1.1467   -0.3334    1.2987 H   0  0  0  0  0  0  0  0  0  0  0  0
    0.1602   -1.4616   -0.5369 H   0  0  0  0  0  0  0  0  0  0  0  0
    0.0536    0.0174   -1.4997 H   0  0  0  0  0  0  0  0  0  0  0  0
    1.3824    1.2528    0.2110 H   0  0  0  0  0  0  0  0  0  0  0  0
  1  2  1  0
  1  5  1  0
  1  6  1  0
  1  7  1  0
  2  3  1  0
  2  8  1  0
  2  9  1  0
  3  4  2  0
  3 10  1  0
M  END
>  <reaction>  (3) 
rxn_978

>  <mol_properties>  (3) 
{"1": {"label": "acceptor", "atom_type": "Cs"}, "9": {"label": "a_hydrogen", "atom_type": "H0"}}

>  <type>  (3) 
r2h

$$$$

     RDKit          3D

 23 21  0  0  0  0  0  0  0  0999 V2000
    0.4586   -2.2744   -0.2003 C   0  0  0  0  0  0  0  0  0  0  0  0
    0.3769   -1.0928    0.7368 C   0  0  0  0  0  0  0  0  0  0  0  0
    1.4327   -0.1030    0.7337 C   0  0  0  0  0  0  0  0  0  0  0  0
    2.5149    0.1767   -0.4549 S   0  0  0  0  0  0  0  0  0  0  0  0
    0.6632   -1.9493   -1.2197 H   0  0  0  0  0  0  0  0  0  0  0  0
    1.2659   -2.9474    0.0960 H   0  0  0  0  0  0  0  0  0  0  0  0
   -0.4766   -2.8365   -0.1892 H   0  0  0  0  0  0  0  0  0  0  0  0
    0.0615   -1.3538    1.7489 H   0  0  0  0  0  0  0  0  0  0  0  0
    1.4458    0.5472    1.6093 H   0  0  0  0  0  0  0  0  0  0  0  0
   -1.5204    0.1353   -1.6893 C   0  0  0  0  0  0  0  0  0  0  0  0
   -1.7875    0.2523   -0.2175 C   0  0  0  0  0  3  0  0  0  0  0  0
   -1.5579    1.6105    0.3766 C   0  0  0  0  0  0  0  0  0  0  0  0
   -2.9572   -0.5214    0.3148 C   0  0  0  0  0  0  0  0  0  0  0  0
   -0.5224    0.5013   -1.9395 H   0  0  0  0  0  0  0  0  0  0  0  0
   -2.2439    0.7338   -2.2577 H   0  0  0  0  0  0  0  0  0  0  0  0
   -1.6050   -0.8968   -2.0324 H   0  0  0  0  0  0  0  0  0  0  0  0
   -0.6217   -0.4477    0.3497 H   0  0  0  0  0  0  0  0  0  0  0  0
   -2.3016    2.3248    0.0027 H   0  0  0  0  0  0  0  0  0  0  0  0
   -1.6378    1.5917    1.4654 H   0  0  0  0  0  0  0  0  0  0  0  0
   -0.5719    1.9966    0.1075 H   0  0  0  0  0  0  0  0  0  0  0  0
   -2.9446   -1.5554   -0.0351 H   0  0  0  0  0  0  0  0  0  0  0  0
   -3.9004   -0.0739   -0.0238 H   0  0  0  0  0  0  0  0  0  0  0  0
   -2.9723   -0.5244    1.4065 H   0  0  0  0  0  0  0  0  0  0  0  0
  1  2  1  0
  1  5  1  0
  1  6  1  0
  1  7  1  0
  2  3  1  0
  2  8  1  0
  2 17  1  0
  3  4  2  0
  3  9  1  0
 10 11  1  0
 10 14  1  0
 10 15  1  0
 10 16  1  0
 11 12  1  0
 11 13  1  0
 12 18  1  0
 12 19  1  0
 12 20  1  0
 13 21  1  0
 13 22  1  0
 13 23  1  0
M  RAD  1  11   2
M  END
>  <reaction>  (4) 
rxn_978

>  <mol_properties>  (4) 
{"1": {"label": "*1", "atom_type": "Cs"}, "2": {"label": "*0", "atom_type": "CS"}, "9": {"label": "*4", "atom_type": "Cs"}, "10": {"label": "*3", "atom_type": "Cs"}, "16": {"label": "*2", "atom_type": "H0"}}

>  <type>  (4) 
ts

$$$$

     RDKit          3D

 23 21  0  0  0  0  0  0  0  0999 V2000
    2.6017    0.4529    0.9304 C   0  0  0  0  0  0  0  0  0  0  0  0
    1.7528   -0.4974    0.0815 C   0  0  0  0  0  0  0  0  0  0  0  0
    0.6847   -1.1495    0.8937 C   0  0  0  0  0  3  0  0  0  0  0  0
   -0.9002   -1.0446    0.6521 S   0  0  0  0  0  0  0  0  0  0  0  0
    1.9936    1.2711    1.3182 H   0  0  0  0  0  0  0  0  0  0  0  0
    3.0520   -0.0669    1.7782 H   0  0  0  0  0  0  0  0  0  0  0  0
    3.4060    0.8798    0.3311 H   0  0  0  0  0  0  0  0  0  0  0  0
    2.3972   -1.2897   -0.3170 H   0  0  0  0  0  0  0  0  0  0  0  0
    1.0566   -1.7357    1.7378 H   0  0  0  0  0  0  0  0  0  0  0  0
   -0.4489    0.6764   -2.2513 C   0  0  0  0  0  0  0  0  0  0  0  0
   -0.4489    0.6764   -0.7256 C   0  0  0  0  0  2  0  0  0  0  0  0
   -0.4489    2.1010   -0.1796 C   0  0  0  0  0  0  0  0  0  0  0  0
   -1.6317   -0.1177   -0.1796 C   0  0  0  0  0  0  0  0  0  0  0  0
    0.4118    1.2187   -2.6484 H   0  0  0  0  0  0  0  0  0  0  0  0
   -1.3529    1.1584   -2.6351 H   0  0  0  0  0  0  0  0  0  0  0  0
   -0.4195   -0.3405   -2.6484 H   0  0  0  0  0  0  0  0  0  0  0  0
    0.6548    0.0880   -0.3210 H   0  0  0  0  0  0  0  0  0  0  0  0
   -1.3529    2.6319   -0.4922 H   0  0  0  0  0  0  0  0  0  0  0  0
   -0.4194    2.1078    0.9120 H   0  0  0  0  0  0  0  0  0  0  0  0
    0.4118    2.6659   -0.5438 H   0  0  0  0  0  0  0  0  0  0  0  0
   -1.6211   -1.1471   -0.5440 H   0  0  0  0  0  0  0  0  0  0  0  0
   -2.5763    0.3371   -0.4921 H   0  0  0  0  0  0  0  0  0  0  0  0
   -1.6208   -0.1461    0.9120 H   0  0  0  0  0  0  0  0  0  0  0  0
  1  2  1  0
  1  5  1  0
  1  6  1  0
  1  7  1  0
  2  3  1  0
  2  8  1  0
  2 17  1  0
  3  4  1  0
  3  9  1  0
  4 13  1  0
 10 11  1  0
 10 14  1  0
 10 15  1  0
 10 16  1  0
 11 12  1  0
 12 18  1  0
 12 19  1  0
 12 20  1  0
 13 21  1  0
 13 22  1  0
 13 23  1  0
M  RAD  2   3   2  11   3
M  END
>  <reaction>  (5) 
rxn_978

>  <mol_properties>  (5) 
{"1": {"label": "*1", "atom_type": "Cs"}, "2": {"label": "*0", "atom_type": "CS"}, "9": {"label": "*4", "atom_type": "Cs"}, "10": {"label": "*3", "atom_type": "Cs"}, "16": {"label": "*2", "atom_type": "H0"}}

>  <type>  (5) 
unop_1

>  <geom_source>  (5) 
Heuristics

$$$$

     RDKit          3D

 23 21  0  0  0  0  0  0  0  0999 V2000
    2.2871   -0.9728   -1.0283 C   0  0  0  0  0  0  0  0  0  0  0  0
    1.1540   -1.1786   -0.0194 C   0  0  0  0  0  0  0  0  0  0  0  0
    1.3296   -0.3142    1.1838 C   0  0  0  0  0  0  0  0  0  0  0  0
    0.3125    0.8130    1.7095 S   0  0  0  0  0  0  0  0  0  0  0  0
    2.2865    0.0507   -1.4054 H   0  0  0  0  0  0  0  0  0  0  0  0
    3.2615   -1.1675   -0.5763 H   0  0  0  0  0  0  0  0  0  0  0  0
    2.1674   -1.6485   -1.8752 H   0  0  0  0  0  0  0  0  0  0  0  0
    1.1630   -2.2219    0.3173 H   0  0  0  0  0  0  0  0  0  0  0  0
    2.2630   -0.4835    1.7266 H   0  0  0  0  0  0  0  0  0  0  0  0
   -1.0478   -0.0049   -2.3522 C   0  0  0  0  0  0  0  0  0  0  0  0
   -1.0478   -0.0049   -0.8265 C   0  0  0  0  0  3  0  0  0  0  0  0
   -1.0478    1.4198   -0.2805 C   0  0  0  0  0  0  0  0  0  0  0  0
   -2.2306   -0.7989   -0.2805 C   0  0  0  0  0  0  0  0  0  0  0  0
   -0.1871    0.5374   -2.7493 H   0  0  0  0  0  0  0  0  0  0  0  0
   -1.9517    0.4771   -2.7360 H   0  0  0  0  0  0  0  0  0  0  0  0
   -1.0183   -1.0217   -2.7493 H   0  0  0  0  0  0  0  0  0  0  0  0
    0.0559   -0.5932   -0.4219 H   0  0  0  0  0  0  0  0  0  0  0  0
   -1.9518    1.9506   -0.5931 H   0  0  0  0  0  0  0  0  0  0  0  0
   -1.0183    1.4266    0.8111 H   0  0  0  0  0  0  0  0  0  0  0  0
   -0.1871    1.9846   -0.6447 H   0  0  0  0  0  0  0  0  0  0  0  0
   -2.2199   -1.8283   -0.6449 H   0  0  0  0  0  0  0  0  0  0  0  0
   -3.1752   -0.3442   -0.5930 H   0  0  0  0  0  0  0  0  0  0  0  0
   -2.2197   -0.8274    0.8111 H   0  0  0  0  0  0  0  0  0  0  0  0
  1  2  1  0
  1  5  1  0
  1  6  1  0
  1  7  1  0
  2  3  1  0
  2  8  1  0
  2 17  1  0
  3  4  2  0
  3  9  1  0
 10 11  1  0
 10 14  1  0
 10 15  1  0
 10 16  1  0
 11 12  1  0
 11 13  1  0
 12 18  1  0
 12 19  1  0
 12 20  1  0
 13 21  1  0
 13 22  1  0
 13 23  1  0
M  RAD  1  11   2
M  END
>  <reaction>  (6) 
rxn_978

>  <mol_properties>  (6) 
{"1": {"label": "*1", "atom_type": "Cs"}, "2": {"label": "*0", "atom_type": "CS"}, "9": {"label": "*4", "atom_type": "Cs"}, "10": {"label": "*3", "atom_type": "Cs"}, "16": {"label": "*2", "atom_type": "H0"}}

>  <type>  (6) 
unop_2

>  <geom_source>  (6) 
Heuristics

$$$$

     RDKit          3D

 23 21  0  0  0  0  0  0  0  0999 V2000
    2.1648    0.3773    1.6474 C   0  0  0  0  0  0  0  0  0  0  0  0
    1.7041   -0.1870    0.3007 C   0  0  0  0  0  0  0  0  0  0  0  0
    0.8616   -1.4055    0.4780 C   0  0  0  0  0  0  0  0  0  0  0  0
   -0.6607   -1.5945    0.0007 S   0  0  0  0  0  0  0  0  0  0  0  0
    1.3100    0.7012    2.2426 H   0  0  0  0  0  0  0  0  0  0  0  0
    2.7160   -0.3687    2.2230 H   0  0  0  0  0  0  0  0  0  0  0  0
    2.8190    1.2357    1.4944 H   0  0  0  0  0  0  0  0  0  0  0  0
    2.5855   -0.4750   -0.2841 H   0  0  0  0  0  0  0  0  0  0  0  0
    1.3601   -2.2240    1.0034 H   0  0  0  0  0  0  0  0  0  0  0  0
   -0.4976    0.9868   -2.0321 C   0  0  0  0  0  0  0  0  0  0  0  0
   -0.4976    0.9868   -0.5064 C   0  0  0  0  0  3  0  0  0  0  0  0
   -0.4976    2.4114    0.0397 C   0  0  0  0  0  0  0  0  0  0  0  0
   -1.6804    0.1927    0.0397 C   0  0  0  0  0  0  0  0  0  0  0  0
    0.3631    1.5290   -2.4291 H   0  0  0  0  0  0  0  0  0  0  0  0
   -1.4016    1.4687   -2.4159 H   0  0  0  0  0  0  0  0  0  0  0  0
   -0.4682   -0.0301   -2.4291 H   0  0  0  0  0  0  0  0  0  0  0  0
    0.6061    0.3984   -0.1018 H   0  0  0  0  0  0  0  0  0  0  0  0
   -1.4016    2.9423   -0.2729 H   0  0  0  0  0  0  0  0  0  0  0  0
   -0.4681    2.4182    1.1313 H   0  0  0  0  0  0  0  0  0  0  0  0
    0.3631    2.9763   -0.3246 H   0  0  0  0  0  0  0  0  0  0  0  0
   -1.6698   -0.8367   -0.3247 H   0  0  0  0  0  0  0  0  0  0  0  0
   -2.6251    0.6475   -0.2728 H   0  0  0  0  0  0  0  0  0  0  0  0
   -1.6695    0.1643    1.1313 H   0  0  0  0  0  0  0  0  0  0  0  0
  1  2  1  0
  1  5  1  0
  1  6  1  0
  1  7  1  0
  2  3  1  0
  2  8  1  0
  2 17  1  0
  3  4  2  0
  3  9  1  0
 10 11  1  0
 10 14  1  0
 10 15  1  0
 10 16  1  0
 11 12  1  0
 11 13  1  0
 12 18  1  0
 12 19  1  0
 12 20  1  0
 13 21  1  0
 13 22  1  0
 13 23  1  0
M  RAD  1  11   2
M  END
>  <reaction>  (7) 
rxn_978

>  <mol_properties>  (7) 
{"1": {"label": "*1", "atom_type": "Cs"}, "2": {"label": "*0", "atom_type": "CS"}, "9": {"label": "*4", "atom_type": "Cs"}, "10": {"label": "*3", "atom_type": "Cs"}, "16": {"label": "*2", "atom_type": "H0"}}

>  <type>  (7) 
unop_3

>  <geom_source>  (7) 
Heuristics

$$$$

     RDKit          3D

 23 21  0  0  0  0  0  0  0  0999 V2000
    0.5463   -2.3601    0.0251 C   0  0  0  0  0  0  0  0  0  0  0  0
    0.4739   -0.9187    0.5362 C   0  0  0  0  0  0  0  0  0  0  0  0
    1.8333   -0.3626    0.7982 C   0  0  0  0  0  0  0  0  0  0  0  0
    2.4920    0.9250    0.0986 S   0  0  0  0  0  0  0  0  0  0  0  0
    1.0658   -2.4040   -0.9329 H   0  0  0  0  0  0  0  0  0  0  0  0
    1.0765   -3.0048    0.7287 H   0  0  0  0  0  0  0  0  0  0  0  0
   -0.4568   -2.7642   -0.1119 H   0  0  0  0  0  0  0  0  0  0  0  0
   -0.0786   -0.9047    1.4830 H   0  0  0  0  0  0  0  0  0  0  0  0
    2.4144   -0.9240    1.5341 H   0  0  0  0  0  0  0  0  0  0  0  0
   -1.7279    0.2551   -1.7966 C   0  0  0  0  0  0  0  0  0  0  0  0
   -1.7279    0.2551   -0.2709 C   0  0  0  0  0  3  0  0  0  0  0  0
   -1.7279    1.6797    0.2752 C   0  0  0  0  0  0  0  0  0  0  0  0
   -2.9107   -0.5390    0.2752 C   0  0  0  0  0  0  0  0  0  0  0  0
   -0.8672    0.7973   -2.1936 H   0  0  0  0  0  0  0  0  0  0  0  0
   -2.6319    0.7370   -2.1804 H   0  0  0  0  0  0  0  0  0  0  0  0
   -1.6984   -0.7618   -2.1936 H   0  0  0  0  0  0  0  0  0  0  0  0
   -0.6242   -0.3333    0.1337 H   0  0  0  0  0  0  0  0  0  0  0  0
   -2.6319    2.2105   -0.0374 H   0  0  0  0  0  0  0  0  0  0  0  0
   -1.6984    1.6865    1.3668 H   0  0  0  0  0  0  0  0  0  0  0  0
   -0.8672    2.2446   -0.0891 H   0  0  0  0  0  0  0  0  0  0  0  0
   -2.9000   -1.5684   -0.0892 H   0  0  0  0  0  0  0  0  0  0  0  0
   -3.8553   -0.0842   -0.0373 H   0  0  0  0  0  0  0  0  0  0  0  0
   -2.8998   -0.5674    1.3668 H   0  0  0  0  0  0  0  0  0  0  0  0
  1  2  1  0
  1  5  1  0
  1  6  1  0
  1  7  1  0
  2  3  1  0
  2  8  1  0
  2 17  1  0
  3  4  2  0
  3  9  1  0
 10 11  1  0
 10 14  1  0
 10 15  1  0
 10 16  1  0
 11 12  1  0
 11 13  1  0
 12 18  1  0
 12 19  1  0
 12 20  1  0
 13 21  1  0
 13 22  1  0
 13 23  1  0
M  RAD  1  11   2
M  END
>  <reaction>  (8) 
rxn_978

>  <mol_properties>  (8) 
{"1": {"label": "*1", "atom_type": "Cs"}, "2": {"label": "*0", "atom_type": "CS"}, "9": {"label": "*4", "atom_type": "Cs"}, "10": {"label": "*3", "atom_type": "Cs"}, "16": {"label": "*2", "atom_type": "H0"}}

>  <type>  (8) 
unop_4

>  <geom_source>  (8) 
Heuristics

$$$$

     RDKit          3D

 23 21  0  0  0  0  0  0  0  0999 V2000
    1.4009    0.0196    2.1767 C   0  0  0  0  0  0  0  0  0  0  0  0
    1.3284    0.0582    0.6479 C   0  0  0  0  0  0  0  0  0  0  0  0
    1.4135   -1.3112    0.0618 C   0  0  0  0  0  0  0  0  0  0  0  0
    0.3064   -2.0315   -0.8528 S   0  0  0  0  0  0  0  0  0  0  0  0
    0.5505   -0.5247    2.5895 H   0  0  0  0  0  0  0  0  0  0  0  0
    2.3151   -0.4692    2.5188 H   0  0  0  0  0  0  0  0  0  0  0  0
    1.3878    1.0314    2.5821 H   0  0  0  0  0  0  0  0  0  0  0  0
    2.1784    0.6359    0.2663 H   0  0  0  0  0  0  0  0  0  0  0  0
    2.3283   -1.8527    0.3156 H   0  0  0  0  0  0  0  0  0  0  0  0
   -0.8733    1.2320   -1.6850 C   0  0  0  0  0  0  0  0  0  0  0  0
   -0.8733    1.2320   -0.1593 C   0  0  0  0  0  3  0  0  0  0  0  0
   -0.8733    2.6566    0.3868 C   0  0  0  0  0  0  0  0  0  0  0  0
   -2.0561    0.4379    0.3868 C   0  0  0  0  0  0  0  0  0  0  0  0
   -0.0126    1.7742   -2.0820 H   0  0  0  0  0  0  0  0  0  0  0  0
   -1.7773    1.7139   -2.0687 H   0  0  0  0  0  0  0  0  0  0  0  0
   -0.8439    0.2151   -2.0820 H   0  0  0  0  0  0  0  0  0  0  0  0
    0.2304    0.6436    0.2453 H   0  0  0  0  0  0  0  0  0  0  0  0
   -1.7773    3.1874    0.0742 H   0  0  0  0  0  0  0  0  0  0  0  0
   -0.8438    2.6634    1.4784 H   0  0  0  0  0  0  0  0  0  0  0  0
   -0.0126    3.2215    0.0226 H   0  0  0  0  0  0  0  0  0  0  0  0
   -2.0455   -0.5915    0.0224 H   0  0  0  0  0  0  0  0  0  0  0  0
   -3.0007    0.8926    0.0743 H   0  0  0  0  0  0  0  0  0  0  0  0
   -2.0452    0.4095    1.4784 H   0  0  0  0  0  0  0  0  0  0  0  0
  1  2  1  0
  1  5  1  0
  1  6  1  0
  1  7  1  0
  2  3  1  0
  2  8  1  0
  2 17  1  0
  3  4  2  0
  3  9  1  0
 10 11  1  0
 10 14  1  0
 10 15  1  0
 10 16  1  0
 11 12  1  0
 11 13  1  0
 12 18  1  0
 12 19  1  0
 12 20  1  0
 13 21  1  0
 13 22  1  0
 13 23  1  0
M  RAD  1  11   2
M  END
>  <reaction>  (9) 
rxn_978

>  <mol_properties>  (9) 
{"1": {"label": "*1", "atom_type": "Cs"}, "2": {"label": "*0", "atom_type": "CS"}, "9": {"label": "*4", "atom_type": "Cs"}, "10": {"label": "*3", "atom_type": "Cs"}, "16": {"label": "*2", "atom_type": "H0"}}

>  <type>  (9) 
unop_5

>  <geom_source>  (9) 
Heuristics

$$$$

     RDKit          3D

 23 21  0  0  0  0  0  0  0  0999 V2000
    0.2445   -2.2119    0.8726 C   0  0  0  0  0  0  0  0  0  0  0  0
    0.4563   -0.7049    0.7038 C   0  0  0  0  0  0  0  0  0  0  0  0
    1.9058   -0.3632    0.6148 C   0  0  0  0  0  0  0  0  0  0  0  0
    2.6456    0.3577   -0.6158 S   0  0  0  0  0  0  0  0  0  0  0  0
    0.6160   -2.7535    0.0019 H   0  0  0  0  0  0  0  0  0  0  0  0
    0.7648   -2.5896    1.7549 H   0  0  0  0  0  0  0  0  0  0  0  0
   -0.8165   -2.4347    0.9860 H   0  0  0  0  0  0  0  0  0  0  0  0
    0.0466   -0.1881    1.5795 H   0  0  0  0  0  0  0  0  0  0  0  0
    2.4927   -0.6633    1.4865 H   0  0  0  0  0  0  0  0  0  0  0  0
   -1.7455    0.4689   -1.6291 C   0  0  0  0  0  0  0  0  0  0  0  0
   -1.7455    0.4689   -0.1034 C   0  0  0  0  0  3  0  0  0  0  0  0
   -1.7455    1.8935    0.4427 C   0  0  0  0  0  0  0  0  0  0  0  0
   -2.9283   -0.3252    0.4427 C   0  0  0  0  0  0  0  0  0  0  0  0
   -0.8848    1.0111   -2.0261 H   0  0  0  0  0  0  0  0  0  0  0  0
   -2.6495    0.9508   -2.0128 H   0  0  0  0  0  0  0  0  0  0  0  0
   -1.7160   -0.5480   -2.0261 H   0  0  0  0  0  0  0  0  0  0  0  0
   -0.6418   -0.1195    0.3012 H   0  0  0  0  0  0  0  0  0  0  0  0
   -2.6495    2.4243    0.1301 H   0  0  0  0  0  0  0  0  0  0  0  0
   -1.7160    1.9003    1.5343 H   0  0  0  0  0  0  0  0  0  0  0  0
   -0.8848    2.4584    0.0785 H   0  0  0  0  0  0  0  0  0  0  0  0
   -2.9176   -1.3546    0.0783 H   0  0  0  0  0  0  0  0  0  0  0  0
   -3.8729    0.1295    0.1302 H   0  0  0  0  0  0  0  0  0  0  0  0
   -2.9174   -0.3536    1.5343 H   0  0  0  0  0  0  0  0  0  0  0  0
  1  2  1  0
  1  5  1  0
  1  6  1  0
  1  7  1  0
  2  3  1  0
  2  8  1  0
  2 17  1  0
  3  4  2  0
  3  9  1  0
 10 11  1  0
 10 14  1  0
 10 15  1  0
 10 16  1  0
 11 12  1  0
 11 13  1  0
 12 18  1  0
 12 19  1  0
 12 20  1  0
 13 21  1  0
 13 22  1  0
 13 23  1  0
M  RAD  1  11   2
M  END
>  <reaction>  (10) 
rxn_978

>  <mol_properties>  (10) 
{"1": {"label": "*1", "atom_type": "Cs"}, "2": {"label": "*0", "atom_type": "CS"}, "9": {"label": "*4", "atom_type": "Cs"}, "10": {"label": "*3", "atom_type": "Cs"}, "16": {"label": "*2", "atom_type": "H0"}}

>  <type>  (10) 
unop_6

>  <geom_source>  (10) 
Heuristics

$$$$

     RDKit          3D

 23 21  0  0  0  0  0  0  0  0999 V2000
    0.2281   -1.6762    1.6864 C   0  0  0  0  0  0  0  0  0  0  0  0
    0.5440   -0.4418    0.8375 C   0  0  0  0  0  0  0  0  0  0  0  0
    1.9516   -0.4635    0.3436 C   0  0  0  0  0  0  0  0  0  0  0  0
    2.4278   -0.4652   -1.1908 S   0  0  0  0  0  0  0  0  0  0  0  0
    0.3111   -2.5858    1.0901 H   0  0  0  0  0  0  0  0  0  0  0  0
    0.9122   -1.7617    2.5329 H   0  0  0  0  0  0  0  0  0  0  0  0
   -0.7873   -1.6165    2.0784 H   0  0  0  0  0  0  0  0  0  0  0  0
    0.4230    0.4553    1.4559 H   0  0  0  0  0  0  0  0  0  0  0  0
    2.7050   -0.4972    1.1346 H   0  0  0  0  0  0  0  0  0  0  0  0
   -1.6578    0.7320   -1.4953 C   0  0  0  0  0  0  0  0  0  0  0  0
   -1.6578    0.7320    0.0304 C   0  0  0  0  0  3  0  0  0  0  0  0
   -1.6578    2.1567    0.5764 C   0  0  0  0  0  0  0  0  0  0  0  0
   -2.8406   -0.0621    0.5764 C   0  0  0  0  0  0  0  0  0  0  0  0
   -0.7971    1.2743   -1.8924 H   0  0  0  0  0  0  0  0  0  0  0  0
   -2.5618    1.2140   -1.8791 H   0  0  0  0  0  0  0  0  0  0  0  0
   -1.6284   -0.2848   -1.8924 H   0  0  0  0  0  0  0  0  0  0  0  0
   -0.5541    0.1436    0.4350 H   0  0  0  0  0  0  0  0  0  0  0  0
   -2.5618    2.6875    0.2638 H   0  0  0  0  0  0  0  0  0  0  0  0
   -1.6283    2.1634    1.6680 H   0  0  0  0  0  0  0  0  0  0  0  0
   -0.7971    2.7215    0.2122 H   0  0  0  0  0  0  0  0  0  0  0  0
   -2.8300   -1.0914    0.2120 H   0  0  0  0  0  0  0  0  0  0  0  0
   -3.7852    0.3927    0.2639 H   0  0  0  0  0  0  0  0  0  0  0  0
   -2.8297   -0.0905    1.6680 H   0  0  0  0  0  0  0  0  0  0  0  0
  1  2  1  0
  1  5  1  0
  1  6  1  0
  1  7  1  0
  2  3  1  0
  2  8  1  0
  2 17  1  0
  3  4  2  0
  3  9  1  0
 10 11  1  0
 10 14  1  0
 10 15  1  0
 10 16  1  0
 11 12  1  0
 11 13  1  0
 12 18  1  0
 12 19  1  0
 12 20  1  0
 13 21  1  0
 13 22  1  0
 13 23  1  0
M  RAD  1  11   2
M  END
>  <reaction>  (11) 
rxn_978

>  <mol_properties>  (11) 
{"1": {"label": "*1", "atom_type": "Cs"}, "2": {"label": "*0", "atom_type": "CS"}, "9": {"label": "*4", "atom_type": "Cs"}, "10": {"label": "*3", "atom_type": "Cs"}, "16": {"label": "*2", "atom_type": "H0"}}

>  <type>  (11) 
unop_7

>  <geom_source>  (11) 
Heuristics

$$$$

     RDKit          3D

 23 21  0  0  0  0  0  0  0  0999 V2000
    2.7841    0.2492    0.1233 C   0  0  0  0  0  0  0  0  0  0  0  0
    1.6511   -0.7665   -0.0456 C   0  0  0  0  0  0  0  0  0  0  0  0
    0.7733   -0.8119    1.1600 C   0  0  0  0  0  3  0  0  0  0  0  0
   -0.8005   -0.4930    1.2109 S   0  0  0  0  0  0  0  0  0  0  0  0
    2.3846    1.2588    0.2279 H   0  0  0  0  0  0  0  0  0  0  0  0
    3.3863    0.0292    1.0069 H   0  0  0  0  0  0  0  0  0  0  0  0
    3.4418    0.2309   -0.7458 H   0  0  0  0  0  0  0  0  0  0  0  0
    2.0851   -1.7645   -0.1778 H   0  0  0  0  0  0  0  0  0  0  0  0
    1.2927   -1.0771    2.0844 H   0  0  0  0  0  0  0  0  0  0  0  0
   -0.5507    0.4073   -2.3784 C   0  0  0  0  0  0  0  0  0  0  0  0
   -0.5507    0.4073   -0.8527 C   0  0  0  0  0  0  0  0  0  0  0  0
   -0.5507    1.8319   -0.3066 C   0  0  0  0  0  0  0  0  0  0  0  0
   -1.7335   -0.3868   -0.3066 C   0  0  0  0  0  0  0  0  0  0  0  0
    0.3100    0.9495   -2.7755 H   0  0  0  0  0  0  0  0  0  0  0  0
   -1.4547    0.8892   -2.7622 H   0  0  0  0  0  0  0  0  0  0  0  0
   -0.5212   -0.6096   -2.7755 H   0  0  0  0  0  0  0  0  0  0  0  0
    0.5530   -0.1811   -0.4481 H   0  0  0  0  0  0  0  0  0  0  0  0
   -1.4547    2.3627   -0.6193 H   0  0  0  0  0  0  0  0  0  0  0  0
   -0.5212    1.8387    0.7850 H   0  0  0  0  0  0  0  0  0  0  0  0
    0.3100    2.3968   -0.6709 H   0  0  0  0  0  0  0  0  0  0  0  0
   -1.7228   -1.4162   -0.6710 H   0  0  0  0  0  0  0  0  0  0  0  0
   -2.6781    0.0680   -0.6191 H   0  0  0  0  0  0  0  0  0  0  0  0
   -1.7226   -0.4152    0.7850 H   0  0  0  0  0  0  0  0  0  0  0  0
  1  2  1  0
  1  5  1  0
  1  6  1  0
  1  7  1  0
  2  3  1  0
  2  8  1  0
  2 17  1  0
  3  4  1  0
  3  9  1  0
  4 23  1  0
 10 11  1  0
 10 14  1  0
 10 15  1  0
 10 16  1  0
 11 13  2  3
 11 12  1  0
 12 18  1  0
 12 19  1  0
 12 20  1  0
 13 21  1  0
 13 22  1  0
M  RAD  1   3   2
M  END
>  <reaction>  (12) 
rxn_978

>  <mol_properties>  (12) 
{"1": {"label": "*1", "atom_type": "Cs"}, "2": {"label": "*0", "atom_type": "CS"}, "9": {"label": "*4", "atom_type": "Cs"}, "10": {"label": "*3", "atom_type": "Cs"}, "16": {"label": "*2", "atom_type": "H0"}}

>  <type>  (12) 
unop_8

>  <geom_source>  (12) 
Heuristics

$$$$

     RDKit          3D

 23 21  0  0  0  0  0  0  0  0999 V2000
    1.0549   -2.1560   -0.6613 C   0  0  0  0  0  0  0  0  0  0  0  0
    0.5943   -1.1005    0.3477 C   0  0  0  0  0  0  0  0  0  0  0  0
    1.7496   -0.3472    0.9167 C   0  0  0  0  0  0  0  0  0  0  0  0
    2.0039    1.2358    0.8147 S   0  0  0  0  0  0  0  0  0  0  0  0
    1.5423   -1.6855   -1.5161 H   0  0  0  0  0  0  0  0  0  0  0  0
    1.7616   -2.8550   -0.2099 H   0  0  0  0  0  0  0  0  0  0  0  0
    0.2020   -2.7279   -1.0269 H   0  0  0  0  0  0  0  0  0  0  0  0
    0.0834   -1.6016    1.1781 H   0  0  0  0  0  0  0  0  0  0  0  0
    2.4825   -0.9717    1.4337 H   0  0  0  0  0  0  0  0  0  0  0  0
   -1.6075    0.0733   -1.9852 C   0  0  0  0  0  0  0  0  0  0  0  0
   -1.6075    0.0733   -0.4595 C   0  0  0  0  0  3  0  0  0  0  0  0
   -1.6075    1.4980    0.0866 C   0  0  0  0  0  0  0  0  0  0  0  0
   -2.7903   -0.7207    0.0866 C   0  0  0  0  0  0  0  0  0  0  0  0
   -0.7468    0.6156   -2.3822 H   0  0  0  0  0  0  0  0  0  0  0  0
   -2.5114    0.5553   -2.3689 H   0  0  0  0  0  0  0  0  0  0  0  0
   -1.5780   -0.9435   -2.3822 H   0  0  0  0  0  0  0  0  0  0  0  0
   -0.5038   -0.5151   -0.0549 H   0  0  0  0  0  0  0  0  0  0  0  0
   -2.5115    2.0288   -0.2260 H   0  0  0  0  0  0  0  0  0  0  0  0
   -1.5780    1.5048    1.1782 H   0  0  0  0  0  0  0  0  0  0  0  0
   -0.7468    2.0628   -0.2776 H   0  0  0  0  0  0  0  0  0  0  0  0
   -2.7796   -1.7501   -0.2778 H   0  0  0  0  0  0  0  0  0  0  0  0
   -3.7349   -0.2660   -0.2259 H   0  0  0  0  0  0  0  0  0  0  0  0
   -2.7794   -0.7492    1.1782 H   0  0  0  0  0  0  0  0  0  0  0  0
  1  2  1  0
  1  5  1  0
  1  6  1  0
  1  7  1  0
  2  3  1  0
  2  8  1  0
  2 17  1  0
  3  4  2  0
  3  9  1  0
 10 11  1  0
 10 14  1  0
 10 15  1  0
 10 16  1  0
 11 12  1  0
 11 13  1  0
 12 18  1  0
 12 19  1  0
 12 20  1  0
 13 21  1  0
 13 22  1  0
 13 23  1  0
M  RAD  1  11   2
M  END
>  <reaction>  (13) 
rxn_978

>  <mol_properties>  (13) 
{"1": {"label": "*1", "atom_type": "Cs"}, "2": {"label": "*0", "atom_type": "CS"}, "9": {"label": "*4", "atom_type": "Cs"}, "10": {"label": "*3", "atom_type": "Cs"}, "16": {"label": "*2", "atom_type": "H0"}}

>  <type>  (13) 
unop_9

>  <geom_source>  (13) 
Heuristics

$$$$

     RDKit          3D

 23 21  0  0  0  0  0  0  0  0999 V2000
    2.6832   -0.2635   -0.5970 C   0  0  0  0  0  0  0  0  0  0  0  0
    1.4461   -1.0068   -0.0859 C   0  0  0  0  0  0  0  0  0  0  0  0
    1.0179   -0.5011    1.2508 C   0  0  0  0  0  0  0  0  0  0  0  0
   -0.4008    0.1589    1.6151 S   0  0  0  0  0  0  0  0  0  0  0  0
    2.4635    0.7945   -0.7452 H   0  0  0  0  0  0  0  0  0  0  0  0
    3.5132   -0.3424    0.1077 H   0  0  0  0  0  0  0  0  0  0  0  0
    3.0091   -0.6811   -1.5497 H   0  0  0  0  0  0  0  0  0  0  0  0
    1.6904   -2.0698    0.0241 H   0  0  0  0  0  0  0  0  0  0  0  0
    1.7785   -0.5916    2.0304 H   0  0  0  0  0  0  0  0  0  0  0  0
   -0.7557    0.1670   -2.4187 C   0  0  0  0  0  0  0  0  0  0  0  0
   -0.7557    0.1670   -0.8930 C   0  0  0  0  0  3  0  0  0  0  0  0
   -0.7557    1.5916   -0.3469 C   0  0  0  0  0  0  0  0  0  0  0  0
   -1.9385   -0.6271   -0.3469 C   0  0  0  0  0  0  0  0  0  0  0  0
    0.1051    0.7092   -2.8158 H   0  0  0  0  0  0  0  0  0  0  0  0
   -1.6596    0.6489   -2.8025 H   0  0  0  0  0  0  0  0  0  0  0  0
   -0.7262   -0.8499   -2.8157 H   0  0  0  0  0  0  0  0  0  0  0  0
    0.3480   -0.4214   -0.4884 H   0  0  0  0  0  0  0  0  0  0  0  0
   -1.6597    2.1224   -0.6596 H   0  0  0  0  0  0  0  0  0  0  0  0
   -0.7261    1.5984    0.7447 H   0  0  0  0  0  0  0  0  0  0  0  0
    0.1050    2.1565   -0.7112 H   0  0  0  0  0  0  0  0  0  0  0  0
   -1.9278   -1.6565   -0.7113 H   0  0  0  0  0  0  0  0  0  0  0  0
   -2.8831   -0.1723   -0.6594 H   0  0  0  0  0  0  0  0  0  0  0  0
   -1.9276   -0.6555    0.7447 H   0  0  0  0  0  0  0  0  0  0  0  0
  1  2  1  0
  1  5  1  0
  1  6  1  0
  1  7  1  0
  2  3  1  0
  2  8  1  0
  2 17  1  0
  3  4  2  0
  3  9  1  0
 10 11  1  0
 10 14  1  0
 10 15  1  0
 10 16  1  0
 11 12  1  0
 11 13  1  0
 12 18  1  0
 12 19  1  0
 12 20  1  0
 13 21  1  0
 13 22  1  0
 13 23  1  0
M  RAD  1  11   2
M  END
>  <reaction>  (14) 
rxn_978

>  <mol_properties>  (14) 
{"1": {"label": "*1", "atom_type": "Cs"}, "2": {"label": "*0", "atom_type": "CS"}, "9": {"label": "*4", "atom_type": "Cs"}, "10": {"label": "*3", "atom_type": "Cs"}, "16": {"label": "*2", "atom_type": "H0"}}

>  <type>  (14) 
unop_10

>  <geom_source>  (14) 
Heuristics

$$$$

     RDKit          3D

 23 21  0  0  0  0  0  0  0  0999 V2000
    0.5954   -0.8174    2.2166 C   0  0  0  0  0  0  0  0  0  0  0  0
    0.8072   -0.1204    0.8699 C   0  0  0  0  0  0  0  0  0  0  0  0
    1.8640   -0.7981    0.0638 C   0  0  0  0  0  0  0  0  0  0  0  0
    1.6819   -1.4641   -1.3868 S   0  0  0  0  0  0  0  0  0  0  0  0
    0.2379   -1.8375    2.0708 H   0  0  0  0  0  0  0  0  0  0  0  0
    1.5226   -0.8614    2.7911 H   0  0  0  0  0  0  0  0  0  0  0  0
   -0.1434   -0.2784    2.8099 H   0  0  0  0  0  0  0  0  0  0  0  0
    1.1368    0.9094    1.0507 H   0  0  0  0  0  0  0  0  0  0  0  0
    2.8423   -0.8392    0.5492 H   0  0  0  0  0  0  0  0  0  0  0  0
   -1.3946    1.0534   -1.4629 C   0  0  0  0  0  0  0  0  0  0  0  0
   -1.3946    1.0534    0.0628 C   0  0  0  0  0  3  0  0  0  0  0  0
   -1.3946    2.4780    0.6089 C   0  0  0  0  0  0  0  0  0  0  0  0
   -2.5774    0.2593    0.6089 C   0  0  0  0  0  0  0  0  0  0  0  0
   -0.5339    1.5956   -1.8600 H   0  0  0  0  0  0  0  0  0  0  0  0
   -2.2986    1.5354   -1.8467 H   0  0  0  0  0  0  0  0  0  0  0  0
   -1.3652    0.0365   -1.8600 H   0  0  0  0  0  0  0  0  0  0  0  0
   -0.2909    0.4650    0.4674 H   0  0  0  0  0  0  0  0  0  0  0  0
   -2.2986    3.0089    0.2962 H   0  0  0  0  0  0  0  0  0  0  0  0
   -1.3651    2.4848    1.7005 H   0  0  0  0  0  0  0  0  0  0  0  0
   -0.5339    3.0429    0.2446 H   0  0  0  0  0  0  0  0  0  0  0  0
   -2.5667   -0.7701    0.2445 H   0  0  0  0  0  0  0  0  0  0  0  0
   -3.5220    0.7141    0.2964 H   0  0  0  0  0  0  0  0  0  0  0  0
   -2.5665    0.2309    1.7005 H   0  0  0  0  0  0  0  0  0  0  0  0
  1  2  1  0
  1  5  1  0
  1  6  1  0
  1  7  1  0
  2  3  1  0
  2  8  1  0
  2 17  1  0
  3  4  2  0
  3  9  1  0
 10 11  1  0
 10 14  1  0
 10 15  1  0
 10 16  1  0
 11 12  1  0
 11 13  1  0
 12 18  1  0
 12 19  1  0
 12 20  1  0
 13 21  1  0
 13 22  1  0
 13 23  1  0
M  RAD  1  11   2
M  END
>  <reaction>  (15) 
rxn_978

>  <mol_properties>  (15) 
{"1": {"label": "*1", "atom_type": "Cs"}, "2": {"label": "*0", "atom_type": "CS"}, "9": {"label": "*4", "atom_type": "Cs"}, "10": {"label": "*3", "atom_type": "Cs"}, "16": {"label": "*2", "atom_type": "H0"}}

>  <type>  (15) 
unop_11

>  <geom_source>  (15) 
Heuristics

$$$$

     RDKit          3D

 23 21  0  0  0  0  0  0  0  0999 V2000
    1.6844   -1.6644   -1.0457 C   0  0  0  0  0  0  0  0  0  0  0  0
    0.8356   -1.2118    0.1454 C   0  0  0  0  0  0  0  0  0  0  0  0
    1.5968   -0.2936    1.0417 C   0  0  0  0  0  0  0  0  0  0  0  0
    1.2117    1.2222    1.4093 S   0  0  0  0  0  0  0  0  0  0  0  0
    1.9583   -0.8128   -1.6698 H   0  0  0  0  0  0  0  0  0  0  0  0
    2.6033   -2.1528   -0.7158 H   0  0  0  0  0  0  0  0  0  0  0  0
    1.1281   -2.3726   -1.6598 H   0  0  0  0  0  0  0  0  0  0  0  0
    0.5524   -2.0917    0.7348 H   0  0  0  0  0  0  0  0  0  0  0  0
    2.5098   -0.7266    1.4580 H   0  0  0  0  0  0  0  0  0  0  0  0
   -1.3662   -0.0380   -2.1874 C   0  0  0  0  0  0  0  0  0  0  0  0
   -1.3662   -0.0380   -0.6617 C   0  0  0  0  0  3  0  0  0  0  0  0
   -1.3662    1.3866   -0.1157 C   0  0  0  0  0  0  0  0  0  0  0  0
   -2.5490   -0.8321   -0.1157 C   0  0  0  0  0  0  0  0  0  0  0  0
   -0.5055    0.5042   -2.5845 H   0  0  0  0  0  0  0  0  0  0  0  0
   -2.2702    0.4439   -2.5712 H   0  0  0  0  0  0  0  0  0  0  0  0
   -1.3367   -1.0549   -2.5845 H   0  0  0  0  0  0  0  0  0  0  0  0
   -0.2625   -0.6264   -0.2571 H   0  0  0  0  0  0  0  0  0  0  0  0
   -2.2702    1.9174   -0.4283 H   0  0  0  0  0  0  0  0  0  0  0  0
   -1.3367    1.3934    0.9760 H   0  0  0  0  0  0  0  0  0  0  0  0
   -0.5055    1.9514   -0.4799 H   0  0  0  0  0  0  0  0  0  0  0  0
   -2.5383   -1.8615   -0.4801 H   0  0  0  0  0  0  0  0  0  0  0  0
   -3.4936   -0.3774   -0.4281 H   0  0  0  0  0  0  0  0  0  0  0  0
   -2.5381   -0.8606    0.9759 H   0  0  0  0  0  0  0  0  0  0  0  0
  1  2  1  0
  1  5  1  0
  1  6  1  0
  1  7  1  0
  2  3  1  0
  2  8  1  0
  2 17  1  0
  3  4  2  0
  3  9  1  0
 10 11  1  0
 10 14  1  0
 10 15  1  0
 10 16  1  0
 11 12  1  0
 11 13  1  0
 12 18  1  0
 12 19  1  0
 12 20  1  0
 13 21  1  0
 13 22  1  0
 13 23  1  0
M  RAD  1  11   2
M  END
>  <reaction>  (16) 
rxn_978

>  <mol_properties>  (16) 
{"1": {"label": "*1", "atom_type": "Cs"}, "2": {"label": "*0", "atom_type": "CS"}, "9": {"label": "*4", "atom_type": "Cs"}, "10": {"label": "*3", "atom_type": "Cs"}, "16": {"label": "*2", "atom_type": "H0"}}

>  <type>  (16) 
unop_12

>  <geom_source>  (16) 
Heuristics

$$$$

     RDKit          3D

 23 21  0  0  0  0  0  0  0  0999 V2000
    2.1113    1.9889   -1.2353 S   0  0  0  0  0  1  0  0  0  0  0  0
    1.5633    0.0210    0.3058 C   0  0  0  0  0  0  0  0  0  0  0  0
    2.2381   -1.1497   -0.4033 C   0  0  0  0  0  0  0  0  0  0  0  0
   -1.4627    1.1385    1.0161 C   0  0  0  0  0  0  0  0  0  0  0  0
   -1.5719   -1.3438    0.5570 C   0  0  0  0  0  0  0  0  0  0  0  0
   -1.4670    0.2931   -1.3651 C   0  0  0  0  0  0  0  0  0  0  0  0
   -1.0400    0.0078    0.0762 C   0  0  0  0  0  0  0  0  0  0  0  0
    2.2685    1.3179    0.0255 C   0  0  0  0  0  0  0  0  0  0  0  0
    1.5825   -0.1682    1.4006 H   0  0  0  0  0  0  0  0  0  0  0  0
    0.2607    0.1019   -0.0837 H   0  0  0  0  0  0  0  0  0  0  0  0
    2.1863   -1.0166   -1.5046 H   0  0  0  0  0  0  0  0  0  0  0  0
    1.7156   -2.0923   -0.1374 H   0  0  0  0  0  0  0  0  0  0  0  0
    3.3013   -1.2295   -0.0907 H   0  0  0  0  0  0  0  0  0  0  0  0
   -2.5695    1.2363    1.0390 H   0  0  0  0  0  0  0  0  0  0  0  0
   -1.0205    2.0987    0.6764 H   0  0  0  0  0  0  0  0  0  0  0  0
   -1.0951    0.9342    2.0438 H   0  0  0  0  0  0  0  0  0  0  0  0
   -2.6832   -1.3490    0.5608 H   0  0  0  0  0  0  0  0  0  0  0  0
   -1.2075   -2.1533   -0.1101 H   0  0  0  0  0  0  0  0  0  0  0  0
   -1.2044   -1.5518    1.5840 H   0  0  0  0  0  0  0  0  0  0  0  0
   -2.5740    0.3558   -1.4409 H   0  0  0  0  0  0  0  0  0  0  0  0
   -1.0248    1.2520   -1.7083 H   0  0  0  0  0  0  0  0  0  0  0  0
   -1.1025   -0.5140   -2.0349 H   0  0  0  0  0  0  0  0  0  0  0  0
    2.7955    1.8220    0.8292 H   0  0  0  0  0  0  0  0  0  0  0  0
  1  8  1  0
  2  3  1  0
  2  8  2  3
  2  9  1  0
  3 11  1  0
  3 12  1  0
  3 13  1  0
  4  7  1  0
  4 14  1  0
  4 15  1  0
  4 16  1  0
  5  7  1  0
  5 17  1  0
  5 18  1  0
  5 19  1  0
  6  7  1  0
  6 20  1  0
  6 21  1  0
  6 22  1  0
  7 10  1  0
  8 23  1  0
M  RAD  1   1   2
M  END
>  <reaction>  (17) 
rxn_978

>  <mol_properties>  (17) 
{"1": {"label": "*1", "atom_type": "Cs"}, "2": {"label": "*0", "atom_type": "CS"}, "9": {"label": "*4", "atom_type": "Cs"}, "10": {"label": "*3", "atom_type": "Cs"}, "16": {"label": "*2", "atom_type": "H0"}}

>  <type>  (17) 
unop_13

>  <geom_source>  (17) 
AutoTST

$$$$

     RDKit          3D

 23 21  0  0  0  0  0  0  0  0999 V2000
    2.2871   -0.9728   -1.0283 C   0  0  0  0  0  0  0  0  0  0  0  0
    1.1540   -1.1786   -0.0194 C   0  0  0  0  0  0  0  0  0  0  0  0
    1.3296   -0.3141    1.1838 C   0  0  0  0  0  0  0  0  0  0  0  0
    0.3125    0.8129    1.7095 S   0  0  0  0  0  0  0  0  0  0  0  0
    2.2865    0.0507   -1.4054 H   0  0  0  0  0  0  0  0  0  0  0  0
    3.2615   -1.1675   -0.5764 H   0  0  0  0  0  0  0  0  0  0  0  0
    2.1674   -1.6485   -1.8752 H   0  0  0  0  0  0  0  0  0  0  0  0
    1.1630   -2.2219    0.3173 H   0  0  0  0  0  0  0  0  0  0  0  0
    2.2630   -0.4835    1.7266 H   0  0  0  0  0  0  0  0  0  0  0  0
   -1.0478   -0.0049   -2.3522 C   0  0  0  0  0  0  0  0  0  0  0  0
   -1.0478   -0.0049   -0.8265 C   0  0  0  0  0  3  0  0  0  0  0  0
   -1.0478    1.4198   -0.2805 C   0  0  0  0  0  0  0  0  0  0  0  0
   -2.2306   -0.7989   -0.2805 C   0  0  0  0  0  0  0  0  0  0  0  0
   -0.1871    0.5374   -2.7493 H   0  0  0  0  0  0  0  0  0  0  0  0
   -1.9517    0.4771   -2.7360 H   0  0  0  0  0  0  0  0  0  0  0  0
   -1.0183   -1.0217   -2.7493 H   0  0  0  0  0  0  0  0  0  0  0  0
    0.0559   -0.5933   -0.4219 H   0  0  0  0  0  0  0  0  0  0  0  0
   -1.9518    1.9506   -0.5931 H   0  0  0  0  0  0  0  0  0  0  0  0
   -1.0183    1.4266    0.8111 H   0  0  0  0  0  0  0  0  0  0  0  0
   -0.1871    1.9846   -0.6447 H   0  0  0  0  0  0  0  0  0  0  0  0
   -2.2199   -1.8283   -0.6449 H   0  0  0  0  0  0  0  0  0  0  0  0
   -3.1752   -0.3442   -0.5930 H   0  0  0  0  0  0  0  0  0  0  0  0
   -2.2197   -0.8274    0.8111 H   0  0  0  0  0  0  0  0  0  0  0  0
  1  2  1  0
  1  5  1  0
  1  6  1  0
  1  7  1  0
  2  3  1  0
  2  8  1  0
  2 17  1  0
  3  4  2  0
  3  9  1  0
 10 11  1  0
 10 14  1  0
 10 15  1  0
 10 16  1  0
 11 12  1  0
 11 13  1  0
 12 18  1  0
 12 19  1  0
 12 20  1  0
 13 21  1  0
 13 22  1  0
 13 23  1  0
M  RAD  1  11   2
M  END
>  <reaction>  (18) 
rxn_978

>  <mol_properties>  (18) 
{"1": {"label": "*1", "atom_type": "Cs"}, "2": {"label": "*0", "atom_type": "CS"}, "9": {"label": "*4", "atom_type": "Cs"}, "10": {"label": "*3", "atom_type": "Cs"}, "16": {"label": "*2", "atom_type": "H0"}}

>  <type>  (18) 
unop_14

>  <geom_source>  (18) 
gaussian_log

$$$$
