
     RDKit          3D

 15 14  0  0  0  0  0  0  0  0999 V2000
    2.1256    0.4849   -0.6284 C   0  0  0  0  0  0  0  0  0  0  0  0
    1.1128    0.2141    0.1794 C   0  0  0  0  0  0  0  0  0  0  0  0
   -0.3017   -0.0425   -0.2513 C   0  0  0  0  0  0  0  0  0  0  0  0
   -1.2427    1.0075    0.3423 C   0  0  0  0  0  0  0  0  0  0  0  0
   -0.7381   -1.4526    0.1504 C   0  0  0  0  0  0  0  0  0  0  0  0
    3.1243    0.6602   -0.2486 H   0  0  0  0  0  0  0  0  0  0  0  0
    1.9908    0.5411   -1.7036 H   0  0  0  0  0  0  0  0  0  0  0  0
    1.2888    0.1665    1.2533 H   0  0  0  0  0  0  0  0  0  0  0  0
   -0.3426    0.0343   -1.3424 H   0  0  0  0  0  0  0  0  0  0  0  0
   -0.9570    2.0133    0.0315 H   0  0  0  0  0  0  0  0  0  0  0  0
   -1.2189    0.9728    1.4350 H   0  0  0  0  0  0  0  0  0  0  0  0
   -2.2723    0.8287    0.0254 H   0  0  0  0  0  0  0  0  0  0  0  0
   -0.6964   -1.5744    1.2363 H   0  0  0  0  0  0  0  0  0  0  0  0
   -0.0911   -2.2079   -0.2978 H   0  0  0  0  0  0  0  0  0  0  0  0
   -1.7646   -1.6461   -0.1677 H   0  0  0  0  0  0  0  0  0  0  0  0
  1  2  2  3
  1  6  1  0
  1  7  1  0
  2  3  1  0
  2  8  1  0
  3  4  1  0
  3  5  1  0
  3  9  1  0
  4 10  1  0
  4 11  1  0
  4 12  1  0
  5 13  1  0
  5 14  1  0
  5 15  1  0
M  END
>  <reaction>  (1) 
rxn_1124

>  <mol_properties>  (1) 
{"2": {"label": "donator", "atom_type": "Cs"}, "8": {"label": "d_hydrogen", "atom_type": "H0"}}

>  <type>  (1) 
r1h

$$$$

     RDKit          3D

  5  4  0  0  0  0  0  0  0  0999 V2000
    2.6268   -0.7142   -0.0485 S   0  0  0  0  0  0  0  0  0  0  0  0
    1.1401   -0.3099    0.0748 C   0  0  0  0  0  3  0  0  0  0  0  0
   -0.1297    0.0353    0.1801 C   0  0  0  0  0  0  0  0  0  0  0  0
   -1.3070    0.3553    0.2777 C   0  0  0  0  0  0  0  0  0  0  0  0
   -2.3303    0.6335    0.3626 H   0  0  0  0  0  0  0  0  0  0  0  0
  1  2  2  0
  2  3  1  0
  3  4  3  0
  4  5  1  0
M  RAD  1   2   2
M  END
>  <reaction>  (2) 
rxn_1124

>  <mol_properties>  (2) 
{"1": {"label": "acceptor", "atom_type": "CS"}}

>  <type>  (2) 
r2

$$$$

     RDKit          3D

  6  5  0  0  0  0  0  0  0  0999 V2000
   -1.9761    1.0978   -0.6585 S   0  0  0  0  0  0  0  0  0  0  0  0
   -1.0502    0.0275    0.1158 C   0  0  0  0  0  0  0  0  0  0  0  0
    0.3587   -0.0566   -0.0000 C   0  0  0  0  0  0  0  0  0  0  0  0
    1.5530   -0.1477   -0.0815 C   0  0  0  0  0  0  0  0  0  0  0  0
   -1.4972   -0.7045    0.7881 H   0  0  0  0  0  0  0  0  0  0  0  0
    2.6118   -0.2165   -0.1639 H   0  0  0  0  0  0  0  0  0  0  0  0
  1  2  2  0
  2  3  1  0
  2  5  1  0
  3  4  3  0
  4  6  1  0
M  END
>  <reaction>  (3) 
rxn_1124

>  <mol_properties>  (3) 
{"1": {"label": "acceptor", "atom_type": "CS"}, "5": {"label": "a_hydrogen", "atom_type": "H0"}}

>  <type>  (3) 
r2h

$$$$

     RDKit          3D

 20 18  0  0  0  0  0  0  0  0999 V2000
   -0.2796    0.6084   -2.2633 S   0  0  0  0  0  0  0  0  0  0  0  0
   -0.8167    0.7830   -0.7715 C   0  0  0  0  0  3  0  0  0  0  0  0
   -0.9713    1.9010    0.0464 C   0  0  0  0  0  0  0  0  0  0  0  0
   -1.1597    2.8024    0.8240 C   0  0  0  0  0  0  0  0  0  0  0  0
   -1.3184    3.6191    1.4871 H   0  0  0  0  0  0  0  0  0  0  0  0
    1.0546   -2.6455   -0.7884 C   0  0  0  0  0  0  0  0  0  0  0  0
   -0.1083   -2.3433   -0.2033 C   0  0  0  0  0  0  0  0  0  0  0  0
   -0.3297   -1.2984    0.7886 C   0  0  0  0  0  0  0  0  0  0  0  0
    0.8784   -0.6970    1.4637 C   0  0  0  0  0  0  0  0  0  0  0  0
   -1.5300   -1.4795    1.6893 C   0  0  0  0  0  0  0  0  0  0  0  0
    1.1074   -3.4061   -1.5561 H   0  0  0  0  0  0  0  0  0  0  0  0
    1.9828   -2.1579   -0.5190 H   0  0  0  0  0  0  0  0  0  0  0  0
   -0.9992   -2.8734   -0.5297 H   0  0  0  0  0  0  0  0  0  0  0  0
   -0.7641   -0.3246   -0.0156 H   0  0  0  0  0  0  0  0  0  0  0  0
    1.6198   -0.3546    0.7405 H   0  0  0  0  0  0  0  0  0  0  0  0
    1.3591   -1.4319    2.1165 H   0  0  0  0  0  0  0  0  0  0  0  0
    0.5882    0.1592    2.0742 H   0  0  0  0  0  0  0  0  0  0  0  0
   -1.3073   -2.1974    2.4854 H   0  0  0  0  0  0  0  0  0  0  0  0
   -2.3930   -1.8508    1.1345 H   0  0  0  0  0  0  0  0  0  0  0  0
   -1.8065   -0.5354    2.1627 H   0  0  0  0  0  0  0  0  0  0  0  0
  1  2  2  0
  2  3  1  0
  3  4  3  0
  4  5  1  0
  6  7  2  3
  6 11  1  0
  6 12  1  0
  7  8  1  0
  7 13  1  0
  8  9  1  0
  8 10  1  0
  8 14  1  0
  9 15  1  0
  9 16  1  0
  9 17  1  0
 10 18  1  0
 10 19  1  0
 10 20  1  0
M  RAD  1   2   2
M  END
>  <reaction>  (4) 
rxn_1124

>  <mol_properties>  (4) 
{"0": {"label": "*4", "atom_type": "S2d"}, "1": {"label": "*3", "atom_type": "CS"}, "6": {"label": "*0", "atom_type": "Cd"}, "7": {"label": "*1", "atom_type": "Cs"}, "13": {"label": "*2", "atom_type": "H0"}}

>  <type>  (4) 
ts

$$$$

     RDKit          3D

 20 18  0  0  0  0  0  0  0  0999 V2000
   -1.2921    2.0286   -0.5966 S   0  0  0  0  0  0  0  0  0  0  0  0
   -0.0875    0.9583   -0.6707 C   0  0  0  0  0  0  0  0  0  0  0  0
    1.2878    1.2912   -0.7295 C   0  0  0  0  0  0  0  0  0  0  0  0
    2.4594    1.5481   -0.7800 C   0  0  0  0  0  0  0  0  0  0  0  0
    3.4981    1.7759   -0.8248 H   0  0  0  0  0  0  0  0  0  0  0  0
   -0.0875   -2.3714   -1.3087 C   0  0  0  0  0  0  0  0  0  0  0  0
   -0.0875   -2.3714    0.0148 C   0  0  0  0  0  0  0  0  0  0  0  0
   -0.0875   -1.1500    0.8869 C   0  0  0  0  0  3  0  0  0  0  0  0
    1.1718   -1.1095    1.7545 C   0  0  0  0  0  0  0  0  0  0  0  0
   -1.3468   -1.1095    1.7545 C   0  0  0  0  0  0  0  0  0  0  0  0
   -0.0875   -3.2931   -1.8769 H   0  0  0  0  0  0  0  0  0  0  0  0
   -0.0875   -1.4448   -1.8732 H   0  0  0  0  0  0  0  0  0  0  0  0
   -0.0875   -3.3227    0.5454 H   0  0  0  0  0  0  0  0  0  0  0  0
   -0.0875   -0.0936    0.1064 H   0  0  0  0  0  0  0  0  0  0  0  0
    2.0734   -1.1036    1.1404 H   0  0  0  0  0  0  0  0  0  0  0  0
    1.2164   -1.9834    2.4103 H   0  0  0  0  0  0  0  0  0  0  0  0
    1.1794   -0.2183    2.3855 H   0  0  0  0  0  0  0  0  0  0  0  0
   -1.3914   -1.9834    2.4103 H   0  0  0  0  0  0  0  0  0  0  0  0
   -2.2483   -1.1036    1.1404 H   0  0  0  0  0  0  0  0  0  0  0  0
   -1.3543   -0.2183    2.3855 H   0  0  0  0  0  0  0  0  0  0  0  0
  1  2  2  0
  2  3  1  0
  2 14  1  0
  3  4  3  0
  4  5  1  0
  6  7  2  3
  6 11  1  0
  6 12  1  0
  7  8  1  0
  7 13  1  0
  8  9  1  0
  8 10  1  0
  9 15  1  0
  9 16  1  0
  9 17  1  0
 10 18  1  0
 10 19  1  0
 10 20  1  0
M  RAD  1   8   2
M  END
>  <reaction>  (5) 
rxn_1124

>  <mol_properties>  (5) 
{"0": {"label": "*4", "atom_type": "S2d"}, "1": {"label": "*3", "atom_type": "CS"}, "6": {"label": "*0", "atom_type": "Cd"}, "7": {"label": "*1", "atom_type": "Cs"}, "13": {"label": "*2", "atom_type": "H0"}}

>  <type>  (5) 
unop_1

>  <geom_source>  (5) 
Heuristics

$$$$

     RDKit          3D

 20 18  0  0  0  0  0  0  0  0999 V2000
   -0.6220    0.9310   -1.9750 S   0  0  0  0  0  0  0  0  0  0  0  0
    0.0735    0.9897   -0.5206 C   0  0  0  0  0  0  0  0  0  0  0  0
    0.3965    2.1809    0.1740 C   0  0  0  0  0  0  0  0  0  0  0  0
    0.6797    3.1764    0.7823 C   0  0  0  0  0  0  0  0  0  0  0  0
    0.9308    4.0589    1.3215 H   0  0  0  0  0  0  0  0  0  0  0  0
    0.0735   -2.3399   -1.1586 C   0  0  0  0  0  0  0  0  0  0  0  0
    0.0735   -2.3399    0.1649 C   0  0  0  0  0  0  0  0  0  0  0  0
    0.0735   -1.1185    1.0369 C   0  0  0  0  0  3  0  0  0  0  0  0
    1.3328   -1.0781    1.9046 C   0  0  0  0  0  0  0  0  0  0  0  0
   -1.1858   -1.0781    1.9046 C   0  0  0  0  0  0  0  0  0  0  0  0
    0.0735   -3.2616   -1.7269 H   0  0  0  0  0  0  0  0  0  0  0  0
    0.0735   -1.4134   -1.7232 H   0  0  0  0  0  0  0  0  0  0  0  0
    0.0735   -3.2912    0.6954 H   0  0  0  0  0  0  0  0  0  0  0  0
    0.0735   -0.0622    0.2565 H   0  0  0  0  0  0  0  0  0  0  0  0
    2.2344   -1.0722    1.2904 H   0  0  0  0  0  0  0  0  0  0  0  0
    1.3774   -1.9519    2.5604 H   0  0  0  0  0  0  0  0  0  0  0  0
    1.3404   -0.1869    2.5356 H   0  0  0  0  0  0  0  0  0  0  0  0
   -1.2304   -1.9519    2.5604 H   0  0  0  0  0  0  0  0  0  0  0  0
   -2.0873   -1.0722    1.2904 H   0  0  0  0  0  0  0  0  0  0  0  0
   -1.1933   -0.1869    2.5356 H   0  0  0  0  0  0  0  0  0  0  0  0
  1  2  2  0
  2  3  1  0
  2 14  1  0
  3  4  3  0
  4  5  1  0
  6  7  2  3
  6 11  1  0
  6 12  1  0
  7  8  1  0
  7 13  1  0
  8  9  1  0
  8 10  1  0
  9 15  1  0
  9 16  1  0
  9 17  1  0
 10 18  1  0
 10 19  1  0
 10 20  1  0
M  RAD  1   8   2
M  END
>  <reaction>  (6) 
rxn_1124

>  <mol_properties>  (6) 
{"0": {"label": "*4", "atom_type": "S2d"}, "1": {"label": "*3", "atom_type": "CS"}, "6": {"label": "*0", "atom_type": "Cd"}, "7": {"label": "*1", "atom_type": "Cs"}, "13": {"label": "*2", "atom_type": "H0"}}

>  <type>  (6) 
unop_2

>  <geom_source>  (6) 
Heuristics

$$$$

     RDKit          3D

 20 18  0  0  0  0  0  0  0  0999 V2000
   -0.8472    2.3704   -0.0901 S   0  0  0  0  0  0  0  0  0  0  0  0
   -0.1516    0.9976   -0.5736 C   0  0  0  0  0  0  0  0  0  0  0  0
    1.0265    0.9194   -1.3556 C   0  0  0  0  0  0  0  0  0  0  0  0
    2.0237    0.8273   -2.0178 C   0  0  0  0  0  0  0  0  0  0  0  0
    2.9076    0.7457   -2.6048 H   0  0  0  0  0  0  0  0  0  0  0  0
   -0.1516   -2.3321   -1.2116 C   0  0  0  0  0  0  0  0  0  0  0  0
   -0.1516   -2.3321    0.1119 C   0  0  0  0  0  0  0  0  0  0  0  0
   -0.1516   -1.1107    0.9839 C   0  0  0  0  0  3  0  0  0  0  0  0
    1.1077   -1.0703    1.8516 C   0  0  0  0  0  0  0  0  0  0  0  0
   -1.4110   -1.0703    1.8516 C   0  0  0  0  0  0  0  0  0  0  0  0
   -0.1516   -3.2538   -1.7799 H   0  0  0  0  0  0  0  0  0  0  0  0
   -0.1516   -1.4055   -1.7762 H   0  0  0  0  0  0  0  0  0  0  0  0
   -0.1516   -3.2834    0.6424 H   0  0  0  0  0  0  0  0  0  0  0  0
   -0.1516   -0.0543    0.2035 H   0  0  0  0  0  0  0  0  0  0  0  0
    2.0092   -1.0644    1.2374 H   0  0  0  0  0  0  0  0  0  0  0  0
    1.1522   -1.9441    2.5074 H   0  0  0  0  0  0  0  0  0  0  0  0
    1.1152   -0.1791    2.4826 H   0  0  0  0  0  0  0  0  0  0  0  0
   -1.4555   -1.9441    2.5074 H   0  0  0  0  0  0  0  0  0  0  0  0
   -2.3125   -1.0644    1.2374 H   0  0  0  0  0  0  0  0  0  0  0  0
   -1.4185   -0.1791    2.4826 H   0  0  0  0  0  0  0  0  0  0  0  0
  1  2  2  0
  2  3  1  0
  2 14  1  0
  3  4  3  0
  4  5  1  0
  6  7  2  3
  6 11  1  0
  6 12  1  0
  7  8  1  0
  7 13  1  0
  8  9  1  0
  8 10  1  0
  9 15  1  0
  9 16  1  0
  9 17  1  0
 10 18  1  0
 10 19  1  0
 10 20  1  0
M  RAD  1   8   2
M  END
>  <reaction>  (7) 
rxn_1124

>  <mol_properties>  (7) 
{"0": {"label": "*4", "atom_type": "S2d"}, "1": {"label": "*3", "atom_type": "CS"}, "6": {"label": "*0", "atom_type": "Cd"}, "7": {"label": "*1", "atom_type": "Cs"}, "13": {"label": "*2", "atom_type": "H0"}}

>  <type>  (7) 
unop_3

>  <geom_source>  (7) 
Heuristics

$$$$

     RDKit          3D

 20 18  0  0  0  0  0  0  0  0999 V2000
    1.1215    1.2078   -1.6471 S   0  0  0  0  0  0  0  0  0  0  0  0
   -0.0832    0.9640   -0.6022 C   0  0  0  0  0  0  0  0  0  0  0  0
   -0.8103    1.9909    0.0478 C   0  0  0  0  0  0  0  0  0  0  0  0
   -1.4409    2.8433    0.6109 C   0  0  0  0  0  0  0  0  0  0  0  0
   -1.9998    3.5989    1.1101 H   0  0  0  0  0  0  0  0  0  0  0  0
   -0.0832   -2.3656   -1.2402 C   0  0  0  0  0  0  0  0  0  0  0  0
   -0.0832   -2.3656    0.0833 C   0  0  0  0  0  0  0  0  0  0  0  0
   -0.0832   -1.1442    0.9553 C   0  0  0  0  0  3  0  0  0  0  0  0
    1.1761   -1.1038    1.8230 C   0  0  0  0  0  0  0  0  0  0  0  0
   -1.3425   -1.1038    1.8230 C   0  0  0  0  0  0  0  0  0  0  0  0
   -0.0832   -3.2873   -1.8085 H   0  0  0  0  0  0  0  0  0  0  0  0
   -0.0832   -1.4391   -1.8048 H   0  0  0  0  0  0  0  0  0  0  0  0
   -0.0832   -3.3169    0.6138 H   0  0  0  0  0  0  0  0  0  0  0  0
   -0.0832   -0.0879    0.1749 H   0  0  0  0  0  0  0  0  0  0  0  0
    2.0777   -1.0979    1.2088 H   0  0  0  0  0  0  0  0  0  0  0  0
    1.2207   -1.9776    2.4788 H   0  0  0  0  0  0  0  0  0  0  0  0
    1.1837   -0.2126    2.4539 H   0  0  0  0  0  0  0  0  0  0  0  0
   -1.3871   -1.9776    2.4788 H   0  0  0  0  0  0  0  0  0  0  0  0
   -2.2440   -1.0979    1.2088 H   0  0  0  0  0  0  0  0  0  0  0  0
   -1.3500   -0.2126    2.4539 H   0  0  0  0  0  0  0  0  0  0  0  0
  1  2  2  0
  2  3  1  0
  2 14  1  0
  3  4  3  0
  4  5  1  0
  6  7  2  3
  6 11  1  0
  6 12  1  0
  7  8  1  0
  7 13  1  0
  8  9  1  0
  8 10  1  0
  9 15  1  0
  9 16  1  0
  9 17  1  0
 10 18  1  0
 10 19  1  0
 10 20  1  0
M  RAD  1   8   2
M  END
>  <reaction>  (8) 
rxn_1124

>  <mol_properties>  (8) 
{"0": {"label": "*4", "atom_type": "S2d"}, "1": {"label": "*3", "atom_type": "CS"}, "6": {"label": "*0", "atom_type": "Cd"}, "7": {"label": "*1", "atom_type": "Cs"}, "13": {"label": "*2", "atom_type": "H0"}}

>  <type>  (8) 
unop_4

>  <geom_source>  (8) 
Heuristics

$$$$

     RDKit          3D

 20 18  0  0  0  0  0  0  0  0999 V2000
    0.0000    2.5110    0.1849 S   0  0  0  0  0  0  0  0  0  0  0  0
    0.0000    1.0274   -0.4486 C   0  0  0  0  0  0  0  0  0  0  0  0
    0.0000    0.7400   -1.8353 C   0  0  0  0  0  0  0  0  0  0  0  0
    0.0000    0.4710   -3.0053 C   0  0  0  0  0  0  0  0  0  0  0  0
    0.0000    0.2326   -4.0425 H   0  0  0  0  0  0  0  0  0  0  0  0
   -0.0000   -2.3022   -1.0865 C   0  0  0  0  0  0  0  0  0  0  0  0
   -0.0000   -2.3022    0.2369 C   0  0  0  0  0  0  0  0  0  0  0  0
   -0.0000   -1.0809    1.1090 C   0  0  0  0  0  3  0  0  0  0  0  0
    1.2593   -1.0404    1.9766 C   0  0  0  0  0  0  0  0  0  0  0  0
   -1.2593   -1.0404    1.9766 C   0  0  0  0  0  0  0  0  0  0  0  0
   -0.0000   -3.2240   -1.6548 H   0  0  0  0  0  0  0  0  0  0  0  0
   -0.0000   -1.3757   -1.6511 H   0  0  0  0  0  0  0  0  0  0  0  0
   -0.0000   -3.2536    0.7675 H   0  0  0  0  0  0  0  0  0  0  0  0
    0.0000   -0.0245    0.3285 H   0  0  0  0  0  0  0  0  0  0  0  0
    2.1609   -1.0345    1.3625 H   0  0  0  0  0  0  0  0  0  0  0  0
    1.3039   -1.9143    2.6324 H   0  0  0  0  0  0  0  0  0  0  0  0
    1.2668   -0.1492    2.6076 H   0  0  0  0  0  0  0  0  0  0  0  0
   -1.3039   -1.9143    2.6324 H   0  0  0  0  0  0  0  0  0  0  0  0
   -2.1609   -1.0345    1.3625 H   0  0  0  0  0  0  0  0  0  0  0  0
   -1.2668   -0.1492    2.6076 H   0  0  0  0  0  0  0  0  0  0  0  0
  1  2  2  0
  2  3  1  0
  2 14  1  0
  3  4  3  0
  4  5  1  0
  6  7  2  3
  6 11  1  0
  6 12  1  0
  7  8  1  0
  7 13  1  0
  8  9  1  0
  8 10  1  0
  9 15  1  0
  9 16  1  0
  9 17  1  0
 10 18  1  0
 10 19  1  0
 10 20  1  0
M  RAD  1   8   2
M  END
>  <reaction>  (9) 
rxn_1124

>  <mol_properties>  (9) 
{"0": {"label": "*4", "atom_type": "S2d"}, "1": {"label": "*3", "atom_type": "CS"}, "6": {"label": "*0", "atom_type": "Cd"}, "7": {"label": "*1", "atom_type": "Cs"}, "13": {"label": "*2", "atom_type": "H0"}}

>  <type>  (9) 
unop_5

>  <geom_source>  (9) 
Heuristics

$$$$

     RDKit          3D

 20 18  0  0  0  0  0  0  0  0999 V2000
    1.3735    1.6045   -1.1541 S   0  0  0  0  0  0  0  0  0  0  0  0
   -0.0175    0.9474   -0.6687 C   0  0  0  0  0  0  0  0  0  0  0  0
   -1.1554    1.6795   -0.2506 C   0  0  0  0  0  0  0  0  0  0  0  0
   -2.1326    2.2778    0.1079 C   0  0  0  0  0  0  0  0  0  0  0  0
   -2.9988    2.8082    0.4257 H   0  0  0  0  0  0  0  0  0  0  0  0
   -0.0175   -2.3822   -1.3067 C   0  0  0  0  0  0  0  0  0  0  0  0
   -0.0175   -2.3822    0.0168 C   0  0  0  0  0  0  0  0  0  0  0  0
   -0.0175   -1.1609    0.8888 C   0  0  0  0  0  3  0  0  0  0  0  0
    1.2418   -1.1204    1.7565 C   0  0  0  0  0  0  0  0  0  0  0  0
   -1.2768   -1.1204    1.7565 C   0  0  0  0  0  0  0  0  0  0  0  0
   -0.0175   -3.3040   -1.8750 H   0  0  0  0  0  0  0  0  0  0  0  0
   -0.0175   -1.4557   -1.8713 H   0  0  0  0  0  0  0  0  0  0  0  0
   -0.0175   -3.3336    0.5473 H   0  0  0  0  0  0  0  0  0  0  0  0
   -0.0175   -0.1045    0.1084 H   0  0  0  0  0  0  0  0  0  0  0  0
    2.1434   -1.1145    1.1423 H   0  0  0  0  0  0  0  0  0  0  0  0
    1.2864   -1.9943    2.4123 H   0  0  0  0  0  0  0  0  0  0  0  0
    1.2493   -0.2292    2.3875 H   0  0  0  0  0  0  0  0  0  0  0  0
   -1.3214   -1.9943    2.4123 H   0  0  0  0  0  0  0  0  0  0  0  0
   -2.1784   -1.1145    1.1423 H   0  0  0  0  0  0  0  0  0  0  0  0
   -1.2843   -0.2292    2.3875 H   0  0  0  0  0  0  0  0  0  0  0  0
  1  2  2  0
  2  3  1  0
  2 14  1  0
  3  4  3  0
  4  5  1  0
  6  7  2  3
  6 11  1  0
  6 12  1  0
  7  8  1  0
  7 13  1  0
  8  9  1  0
  8 10  1  0
  9 15  1  0
  9 16  1  0
  9 17  1  0
 10 18  1  0
 10 19  1  0
 10 20  1  0
M  RAD  1   8   2
M  END
>  <reaction>  (10) 
rxn_1124

>  <mol_properties>  (10) 
{"0": {"label": "*4", "atom_type": "S2d"}, "1": {"label": "*3", "atom_type": "CS"}, "6": {"label": "*0", "atom_type": "Cd"}, "7": {"label": "*1", "atom_type": "Cs"}, "13": {"label": "*2", "atom_type": "H0"}}

>  <type>  (10) 
unop_6

>  <geom_source>  (10) 
Heuristics

$$$$

     RDKit          3D

 20 18  0  0  0  0  0  0  0  0999 V2000
    1.2922    2.0286   -0.5966 S   0  0  0  0  0  0  0  0  0  0  0  0
    0.0875    0.9583   -0.6707 C   0  0  0  0  0  0  0  0  0  0  0  0
   -1.2878    1.2912   -0.7295 C   0  0  0  0  0  0  0  0  0  0  0  0
   -2.4594    1.5481   -0.7800 C   0  0  0  0  0  0  0  0  0  0  0  0
   -3.4981    1.7759   -0.8248 H   0  0  0  0  0  0  0  0  0  0  0  0
    0.0875   -2.3714   -1.3087 C   0  0  0  0  0  0  0  0  0  0  0  0
    0.0875   -2.3714    0.0148 C   0  0  0  0  0  0  0  0  0  0  0  0
    0.0875   -1.1500    0.8869 C   0  0  0  0  0  3  0  0  0  0  0  0
    1.3468   -1.1095    1.7545 C   0  0  0  0  0  0  0  0  0  0  0  0
   -1.1718   -1.1095    1.7545 C   0  0  0  0  0  0  0  0  0  0  0  0
    0.0875   -3.2931   -1.8769 H   0  0  0  0  0  0  0  0  0  0  0  0
    0.0875   -1.4448   -1.8732 H   0  0  0  0  0  0  0  0  0  0  0  0
    0.0875   -3.3227    0.5454 H   0  0  0  0  0  0  0  0  0  0  0  0
    0.0875   -0.0936    0.1064 H   0  0  0  0  0  0  0  0  0  0  0  0
    2.2483   -1.1036    1.1404 H   0  0  0  0  0  0  0  0  0  0  0  0
    1.3914   -1.9834    2.4103 H   0  0  0  0  0  0  0  0  0  0  0  0
    1.3543   -0.2183    2.3855 H   0  0  0  0  0  0  0  0  0  0  0  0
   -1.2164   -1.9834    2.4103 H   0  0  0  0  0  0  0  0  0  0  0  0
   -2.0734   -1.1036    1.1404 H   0  0  0  0  0  0  0  0  0  0  0  0
   -1.1794   -0.2183    2.3855 H   0  0  0  0  0  0  0  0  0  0  0  0
  1  2  2  0
  2  3  1  0
  2 14  1  0
  3  4  3  0
  4  5  1  0
  6  7  2  3
  6 11  1  0
  6 12  1  0
  7  8  1  0
  7 13  1  0
  8  9  1  0
  8 10  1  0
  9 15  1  0
  9 16  1  0
  9 17  1  0
 10 18  1  0
 10 19  1  0
 10 20  1  0
M  RAD  1   8   2
M  END
>  <reaction>  (11) 
rxn_1124

>  <mol_properties>  (11) 
{"0": {"label": "*4", "atom_type": "S2d"}, "1": {"label": "*3", "atom_type": "CS"}, "6": {"label": "*0", "atom_type": "Cd"}, "7": {"label": "*1", "atom_type": "Cs"}, "13": {"label": "*2", "atom_type": "H0"}}

>  <type>  (11) 
unop_7

>  <geom_source>  (11) 
Heuristics

$$$$

     RDKit          3D

 20 18  0  0  0  0  0  0  0  0999 V2000
   -1.3735    1.6045   -1.1541 S   0  0  0  0  0  0  0  0  0  0  0  0
    0.0175    0.9474   -0.6687 C   0  0  0  0  0  0  0  0  0  0  0  0
    1.1554    1.6795   -0.2506 C   0  0  0  0  0  0  0  0  0  0  0  0
    2.1326    2.2778    0.1079 C   0  0  0  0  0  0  0  0  0  0  0  0
    2.9988    2.8081    0.4257 H   0  0  0  0  0  0  0  0  0  0  0  0
    0.0175   -2.3822   -1.3067 C   0  0  0  0  0  0  0  0  0  0  0  0
    0.0175   -2.3822    0.0168 C   0  0  0  0  0  0  0  0  0  0  0  0
    0.0175   -1.1609    0.8888 C   0  0  0  0  0  3  0  0  0  0  0  0
    1.2768   -1.1204    1.7565 C   0  0  0  0  0  0  0  0  0  0  0  0
   -1.2418   -1.1204    1.7565 C   0  0  0  0  0  0  0  0  0  0  0  0
    0.0175   -3.3040   -1.8750 H   0  0  0  0  0  0  0  0  0  0  0  0
    0.0175   -1.4557   -1.8713 H   0  0  0  0  0  0  0  0  0  0  0  0
    0.0175   -3.3336    0.5473 H   0  0  0  0  0  0  0  0  0  0  0  0
    0.0175   -0.1045    0.1084 H   0  0  0  0  0  0  0  0  0  0  0  0
    2.1784   -1.1145    1.1423 H   0  0  0  0  0  0  0  0  0  0  0  0
    1.3214   -1.9943    2.4123 H   0  0  0  0  0  0  0  0  0  0  0  0
    1.2843   -0.2292    2.3875 H   0  0  0  0  0  0  0  0  0  0  0  0
   -1.2864   -1.9943    2.4123 H   0  0  0  0  0  0  0  0  0  0  0  0
   -2.1434   -1.1145    1.1423 H   0  0  0  0  0  0  0  0  0  0  0  0
   -1.2493   -0.2292    2.3875 H   0  0  0  0  0  0  0  0  0  0  0  0
  1  2  2  0
  2  3  1  0
  2 14  1  0
  3  4  3  0
  4  5  1  0
  6  7  2  3
  6 11  1  0
  6 12  1  0
  7  8  1  0
  7 13  1  0
  8  9  1  0
  8 10  1  0
  9 15  1  0
  9 16  1  0
  9 17  1  0
 10 18  1  0
 10 19  1  0
 10 20  1  0
M  RAD  1   8   2
M  END
>  <reaction>  (12) 
rxn_1124

>  <mol_properties>  (12) 
{"0": {"label": "*4", "atom_type": "S2d"}, "1": {"label": "*3", "atom_type": "CS"}, "6": {"label": "*0", "atom_type": "Cd"}, "7": {"label": "*1", "atom_type": "Cs"}, "13": {"label": "*2", "atom_type": "H0"}}

>  <type>  (12) 
unop_8

>  <geom_source>  (12) 
Heuristics

$$$$

     RDKit          3D

 20 18  0  0  0  0  0  0  0  0999 V2000
    0.6220    0.9310   -1.9750 S   0  0  0  0  0  0  0  0  0  0  0  0
   -0.0735    0.9897   -0.5206 C   0  0  0  0  0  0  0  0  0  0  0  0
   -0.3965    2.1809    0.1740 C   0  0  0  0  0  0  0  0  0  0  0  0
   -0.6797    3.1764    0.7823 C   0  0  0  0  0  0  0  0  0  0  0  0
   -0.9308    4.0589    1.3215 H   0  0  0  0  0  0  0  0  0  0  0  0
   -0.0735   -2.3399   -1.1586 C   0  0  0  0  0  0  0  0  0  0  0  0
   -0.0735   -2.3399    0.1649 C   0  0  0  0  0  0  0  0  0  0  0  0
   -0.0735   -1.1185    1.0369 C   0  0  0  0  0  3  0  0  0  0  0  0
    1.1858   -1.0781    1.9046 C   0  0  0  0  0  0  0  0  0  0  0  0
   -1.3328   -1.0781    1.9046 C   0  0  0  0  0  0  0  0  0  0  0  0
   -0.0735   -3.2616   -1.7269 H   0  0  0  0  0  0  0  0  0  0  0  0
   -0.0735   -1.4134   -1.7232 H   0  0  0  0  0  0  0  0  0  0  0  0
   -0.0735   -3.2912    0.6954 H   0  0  0  0  0  0  0  0  0  0  0  0
   -0.0735   -0.0622    0.2565 H   0  0  0  0  0  0  0  0  0  0  0  0
    2.0873   -1.0722    1.2904 H   0  0  0  0  0  0  0  0  0  0  0  0
    1.2304   -1.9519    2.5604 H   0  0  0  0  0  0  0  0  0  0  0  0
    1.1933   -0.1869    2.5356 H   0  0  0  0  0  0  0  0  0  0  0  0
   -1.3774   -1.9519    2.5604 H   0  0  0  0  0  0  0  0  0  0  0  0
   -2.2344   -1.0722    1.2904 H   0  0  0  0  0  0  0  0  0  0  0  0
   -1.3404   -0.1869    2.5356 H   0  0  0  0  0  0  0  0  0  0  0  0
  1  2  2  0
  2  3  1  0
  2 14  1  0
  3  4  3  0
  4  5  1  0
  6  7  2  3
  6 11  1  0
  6 12  1  0
  7  8  1  0
  7 13  1  0
  8  9  1  0
  8 10  1  0
  9 15  1  0
  9 16  1  0
  9 17  1  0
 10 18  1  0
 10 19  1  0
 10 20  1  0
M  RAD  1   8   2
M  END
>  <reaction>  (13) 
rxn_1124

>  <mol_properties>  (13) 
{"0": {"label": "*4", "atom_type": "S2d"}, "1": {"label": "*3", "atom_type": "CS"}, "6": {"label": "*0", "atom_type": "Cd"}, "7": {"label": "*1", "atom_type": "Cs"}, "13": {"label": "*2", "atom_type": "H0"}}

>  <type>  (13) 
unop_9

>  <geom_source>  (13) 
Heuristics

$$$$

     RDKit          3D

 20 18  0  0  0  0  0  0  0  0999 V2000
   -1.1215    1.2078   -1.6471 S   0  0  0  0  0  0  0  0  0  0  0  0
    0.0832    0.9640   -0.6022 C   0  0  0  0  0  0  0  0  0  0  0  0
    0.8103    1.9909    0.0478 C   0  0  0  0  0  0  0  0  0  0  0  0
    1.4409    2.8433    0.6109 C   0  0  0  0  0  0  0  0  0  0  0  0
    1.9999    3.5989    1.1101 H   0  0  0  0  0  0  0  0  0  0  0  0
    0.0832   -2.3656   -1.2402 C   0  0  0  0  0  0  0  0  0  0  0  0
    0.0832   -2.3656    0.0833 C   0  0  0  0  0  0  0  0  0  0  0  0
    0.0832   -1.1442    0.9553 C   0  0  0  0  0  3  0  0  0  0  0  0
    1.3425   -1.1038    1.8230 C   0  0  0  0  0  0  0  0  0  0  0  0
   -1.1761   -1.1038    1.8230 C   0  0  0  0  0  0  0  0  0  0  0  0
    0.0832   -3.2873   -1.8085 H   0  0  0  0  0  0  0  0  0  0  0  0
    0.0832   -1.4391   -1.8048 H   0  0  0  0  0  0  0  0  0  0  0  0
    0.0832   -3.3169    0.6138 H   0  0  0  0  0  0  0  0  0  0  0  0
    0.0832   -0.0879    0.1749 H   0  0  0  0  0  0  0  0  0  0  0  0
    2.2440   -1.0979    1.2088 H   0  0  0  0  0  0  0  0  0  0  0  0
    1.3871   -1.9776    2.4788 H   0  0  0  0  0  0  0  0  0  0  0  0
    1.3500   -0.2126    2.4539 H   0  0  0  0  0  0  0  0  0  0  0  0
   -1.2207   -1.9776    2.4788 H   0  0  0  0  0  0  0  0  0  0  0  0
   -2.0777   -1.0979    1.2088 H   0  0  0  0  0  0  0  0  0  0  0  0
   -1.1837   -0.2126    2.4539 H   0  0  0  0  0  0  0  0  0  0  0  0
  1  2  2  0
  2  3  1  0
  2 14  1  0
  3  4  3  0
  4  5  1  0
  6  7  2  3
  6 11  1  0
  6 12  1  0
  7  8  1  0
  7 13  1  0
  8  9  1  0
  8 10  1  0
  9 15  1  0
  9 16  1  0
  9 17  1  0
 10 18  1  0
 10 19  1  0
 10 20  1  0
M  RAD  1   8   2
M  END
>  <reaction>  (14) 
rxn_1124

>  <mol_properties>  (14) 
{"0": {"label": "*4", "atom_type": "S2d"}, "1": {"label": "*3", "atom_type": "CS"}, "6": {"label": "*0", "atom_type": "Cd"}, "7": {"label": "*1", "atom_type": "Cs"}, "13": {"label": "*2", "atom_type": "H0"}}

>  <type>  (14) 
unop_10

>  <geom_source>  (14) 
Heuristics

$$$$

     RDKit          3D

 20 18  0  0  0  0  0  0  0  0999 V2000
    0.8472    2.3704   -0.0901 S   0  0  0  0  0  0  0  0  0  0  0  0
    0.1516    0.9976   -0.5736 C   0  0  0  0  0  0  0  0  0  0  0  0
   -1.0265    0.9194   -1.3556 C   0  0  0  0  0  0  0  0  0  0  0  0
   -2.0237    0.8273   -2.0178 C   0  0  0  0  0  0  0  0  0  0  0  0
   -2.9076    0.7457   -2.6048 H   0  0  0  0  0  0  0  0  0  0  0  0
    0.1516   -2.3321   -1.2116 C   0  0  0  0  0  0  0  0  0  0  0  0
    0.1516   -2.3321    0.1119 C   0  0  0  0  0  0  0  0  0  0  0  0
    0.1516   -1.1107    0.9839 C   0  0  0  0  0  3  0  0  0  0  0  0
    1.4110   -1.0703    1.8516 C   0  0  0  0  0  0  0  0  0  0  0  0
   -1.1077   -1.0703    1.8516 C   0  0  0  0  0  0  0  0  0  0  0  0
    0.1516   -3.2538   -1.7799 H   0  0  0  0  0  0  0  0  0  0  0  0
    0.1516   -1.4055   -1.7762 H   0  0  0  0  0  0  0  0  0  0  0  0
    0.1516   -3.2834    0.6424 H   0  0  0  0  0  0  0  0  0  0  0  0
    0.1516   -0.0543    0.2035 H   0  0  0  0  0  0  0  0  0  0  0  0
    2.3125   -1.0644    1.2374 H   0  0  0  0  0  0  0  0  0  0  0  0
    1.4555   -1.9441    2.5074 H   0  0  0  0  0  0  0  0  0  0  0  0
    1.4185   -0.1791    2.4826 H   0  0  0  0  0  0  0  0  0  0  0  0
   -1.1522   -1.9441    2.5074 H   0  0  0  0  0  0  0  0  0  0  0  0
   -2.0092   -1.0644    1.2374 H   0  0  0  0  0  0  0  0  0  0  0  0
   -1.1152   -0.1791    2.4826 H   0  0  0  0  0  0  0  0  0  0  0  0
  1  2  2  0
  2  3  1  0
  2 14  1  0
  3  4  3  0
  4  5  1  0
  6  7  2  3
  6 11  1  0
  6 12  1  0
  7  8  1  0
  7 13  1  0
  8  9  1  0
  8 10  1  0
  9 15  1  0
  9 16  1  0
  9 17  1  0
 10 18  1  0
 10 19  1  0
 10 20  1  0
M  RAD  1   8   2
M  END
>  <reaction>  (15) 
rxn_1124

>  <mol_properties>  (15) 
{"0": {"label": "*4", "atom_type": "S2d"}, "1": {"label": "*3", "atom_type": "CS"}, "6": {"label": "*0", "atom_type": "Cd"}, "7": {"label": "*1", "atom_type": "Cs"}, "13": {"label": "*2", "atom_type": "H0"}}

>  <type>  (15) 
unop_11

>  <geom_source>  (15) 
Heuristics

$$$$

     RDKit          3D

 20 18  0  0  0  0  0  0  0  0999 V2000
    0.0000    0.8323   -2.0874 S   0  0  0  0  0  0  0  0  0  0  0  0
    0.0000    1.0018   -0.4832 C   0  0  0  0  0  0  0  0  0  0  0  0
    0.0000    2.2429    0.1990 C   0  0  0  0  0  0  0  0  0  0  0  0
    0.0000    3.2822    0.7999 C   0  0  0  0  0  0  0  0  0  0  0  0
    0.0000    4.2036    1.3326 H   0  0  0  0  0  0  0  0  0  0  0  0
   -0.0000   -2.3278   -1.1212 C   0  0  0  0  0  0  0  0  0  0  0  0
   -0.0000   -2.3278    0.2023 C   0  0  0  0  0  0  0  0  0  0  0  0
   -0.0000   -1.1064    1.0743 C   0  0  0  0  0  3  0  0  0  0  0  0
    1.2593   -1.0660    1.9420 C   0  0  0  0  0  0  0  0  0  0  0  0
   -1.2593   -1.0660    1.9420 C   0  0  0  0  0  0  0  0  0  0  0  0
   -0.0000   -3.2495   -1.6895 H   0  0  0  0  0  0  0  0  0  0  0  0
   -0.0000   -1.4013   -1.6858 H   0  0  0  0  0  0  0  0  0  0  0  0
   -0.0000   -3.2791    0.7329 H   0  0  0  0  0  0  0  0  0  0  0  0
   -0.0000   -0.0500    0.2939 H   0  0  0  0  0  0  0  0  0  0  0  0
    2.1609   -1.0601    1.3278 H   0  0  0  0  0  0  0  0  0  0  0  0
    1.3039   -1.9398    2.5978 H   0  0  0  0  0  0  0  0  0  0  0  0
    1.2668   -0.1748    2.5730 H   0  0  0  0  0  0  0  0  0  0  0  0
   -1.3039   -1.9398    2.5978 H   0  0  0  0  0  0  0  0  0  0  0  0
   -2.1609   -1.0601    1.3278 H   0  0  0  0  0  0  0  0  0  0  0  0
   -1.2668   -0.1748    2.5730 H   0  0  0  0  0  0  0  0  0  0  0  0
  1  2  2  0
  2  3  1  0
  2 14  1  0
  3  4  3  0
  4  5  1  0
  6  7  2  3
  6 11  1  0
  6 12  1  0
  7  8  1  0
  7 13  1  0
  8  9  1  0
  8 10  1  0
  9 15  1  0
  9 16  1  0
  9 17  1  0
 10 18  1  0
 10 19  1  0
 10 20  1  0
M  RAD  1   8   2
M  END
>  <reaction>  (16) 
rxn_1124

>  <mol_properties>  (16) 
{"0": {"label": "*4", "atom_type": "S2d"}, "1": {"label": "*3", "atom_type": "CS"}, "6": {"label": "*0", "atom_type": "Cd"}, "7": {"label": "*1", "atom_type": "Cs"}, "13": {"label": "*2", "atom_type": "H0"}}

>  <type>  (16) 
unop_12

>  <geom_source>  (16) 
Heuristics

$$$$

     RDKit          3D

 20 18  0  0  0  0  0  0  0  0999 V2000
    2.4342    2.2636    0.9072 S   0  0  0  0  0  0  0  0  0  0  0  0
   -0.0543   -1.0932   -0.6625 C   0  0  0  0  0  0  0  0  0  0  0  0
   -1.0273    1.1233   -1.4321 C   0  0  0  0  0  0  0  0  0  0  0  0
   -0.4488    0.3290   -0.2597 C   0  0  0  0  0  3  0  0  0  0  0  0
   -1.3503    0.3529    0.9490 C   0  0  0  0  0  0  0  0  0  0  0  0
   -2.5751   -0.1850    0.9485 C   0  0  0  0  0  0  0  0  0  0  0  0
    1.9250    0.7251    0.7108 C   0  0  0  0  0  0  0  0  0  0  0  0
    2.8769   -0.3485    0.6793 C   0  0  0  0  0  0  0  0  0  0  0  0
    3.6755   -1.2510    0.6526 C   0  0  0  0  0  0  0  0  0  0  0  0
   -0.9376   -1.6621   -1.0230 H   0  0  0  0  0  0  0  0  0  0  0  0
    0.3898   -1.6227    0.2068 H   0  0  0  0  0  0  0  0  0  0  0  0
    0.7050   -1.0571   -1.4717 H   0  0  0  0  0  0  0  0  0  0  0  0
   -1.9481    0.6396   -1.8222 H   0  0  0  0  0  0  0  0  0  0  0  0
   -0.2789    1.1841   -2.2499 H   0  0  0  0  0  0  0  0  0  0  0  0
   -1.2694    2.1568   -1.1056 H   0  0  0  0  0  0  0  0  0  0  0  0
   -0.9829    0.8280    1.8528 H   0  0  0  0  0  0  0  0  0  0  0  0
   -2.9766   -0.6685    0.0636 H   0  0  0  0  0  0  0  0  0  0  0  0
   -3.1860   -0.1421    1.8442 H   0  0  0  0  0  0  0  0  0  0  0  0
    0.6521    0.4711    0.5826 H   0  0  0  0  0  0  0  0  0  0  0  0
    4.3768   -2.0433    0.6292 H   0  0  0  0  0  0  0  0  0  0  0  0
  1  7  2  0
  2  4  1  0
  2 10  1  0
  2 11  1  0
  2 12  1  0
  3  4  1  0
  3 13  1  0
  3 14  1  0
  3 15  1  0
  4  5  1  0
  5  6  2  3
  5 16  1  0
  6 17  1  0
  6 18  1  0
  7  8  1  0
  7 19  1  0
  8  9  3  0
  9 20  1  0
M  RAD  1   4   2
M  END
>  <reaction>  (17) 
rxn_1124

>  <mol_properties>  (17) 
{"0": {"label": "*4", "atom_type": "S2d"}, "1": {"label": "*3", "atom_type": "CS"}, "6": {"label": "*0", "atom_type": "Cd"}, "7": {"label": "*1", "atom_type": "Cs"}, "13": {"label": "*2", "atom_type": "H0"}}

>  <type>  (17) 
unop_13

>  <geom_source>  (17) 
AutoTST

$$$$

     RDKit          3D

 20 18  0  0  0  0  0  0  0  0999 V2000
   -0.6220    0.9310   -1.9749 S   0  0  0  0  0  0  0  0  0  0  0  0
    0.0735    0.9897   -0.5206 C   0  0  0  0  0  0  0  0  0  0  0  0
    0.3965    2.1809    0.1740 C   0  0  0  0  0  0  0  0  0  0  0  0
    0.6797    3.1764    0.7823 C   0  0  0  0  0  0  0  0  0  0  0  0
    0.9308    4.0589    1.3215 H   0  0  0  0  0  0  0  0  0  0  0  0
    0.0735   -2.3399   -1.1586 C   0  0  0  0  0  0  0  0  0  0  0  0
    0.0735   -2.3399    0.1649 C   0  0  0  0  0  0  0  0  0  0  0  0
    0.0735   -1.1185    1.0369 C   0  0  0  0  0  3  0  0  0  0  0  0
    1.3328   -1.0781    1.9046 C   0  0  0  0  0  0  0  0  0  0  0  0
   -1.1858   -1.0781    1.9046 C   0  0  0  0  0  0  0  0  0  0  0  0
    0.0735   -3.2616   -1.7269 H   0  0  0  0  0  0  0  0  0  0  0  0
    0.0735   -1.4134   -1.7232 H   0  0  0  0  0  0  0  0  0  0  0  0
    0.0735   -3.2912    0.6954 H   0  0  0  0  0  0  0  0  0  0  0  0
    0.0735   -0.0621    0.2565 H   0  0  0  0  0  0  0  0  0  0  0  0
    2.2344   -1.0722    1.2904 H   0  0  0  0  0  0  0  0  0  0  0  0
    1.3774   -1.9520    2.5604 H   0  0  0  0  0  0  0  0  0  0  0  0
    1.3403   -0.1869    2.5356 H   0  0  0  0  0  0  0  0  0  0  0  0
   -1.2304   -1.9520    2.5604 H   0  0  0  0  0  0  0  0  0  0  0  0
   -2.0873   -1.0722    1.2904 H   0  0  0  0  0  0  0  0  0  0  0  0
   -1.1933   -0.1869    2.5356 H   0  0  0  0  0  0  0  0  0  0  0  0
  1  2  2  0
  2  3  1  0
  2 14  1  0
  3  4  3  0
  4  5  1  0
  6  7  2  3
  6 11  1  0
  6 12  1  0
  7  8  1  0
  7 13  1  0
  8  9  1  0
  8 10  1  0
  9 15  1  0
  9 16  1  0
  9 17  1  0
 10 18  1  0
 10 19  1  0
 10 20  1  0
M  RAD  1   8   2
M  END
>  <reaction>  (18) 
rxn_1124

>  <mol_properties>  (18) 
{"0": {"label": "*4", "atom_type": "S2d"}, "1": {"label": "*3", "atom_type": "CS"}, "6": {"label": "*0", "atom_type": "Cd"}, "7": {"label": "*1", "atom_type": "Cs"}, "13": {"label": "*2", "atom_type": "H0"}}

>  <type>  (18) 
unop_14

>  <geom_source>  (18) 
gaussian_log

$$$$
