
     RDKit          3D

 10  9  0  0  0  0  0  0  0  0999 V2000
   -1.1508    0.0666    0.2839 C   0  0  0  0  0  0  0  0  0  0  0  0
    0.1022   -0.3749   -0.4771 C   0  0  0  0  0  0  0  0  0  0  0  0
    1.3428    0.1620    0.1542 C   0  0  0  0  0  0  0  0  0  0  0  0
    2.5613   -0.6971    0.7526 S   0  0  0  0  0  0  0  0  0  0  0  0
   -1.2137    1.1546    0.3481 H   0  0  0  0  0  0  0  0  0  0  0  0
   -2.0472   -0.2935   -0.2212 H   0  0  0  0  0  0  0  0  0  0  0  0
   -1.1467   -0.3334    1.2987 H   0  0  0  0  0  0  0  0  0  0  0  0
    0.1602   -1.4616   -0.5369 H   0  0  0  0  0  0  0  0  0  0  0  0
    0.0536    0.0174   -1.4997 H   0  0  0  0  0  0  0  0  0  0  0  0
    1.3824    1.2528    0.2110 H   0  0  0  0  0  0  0  0  0  0  0  0
  1  2  1  0
  1  5  1  0
  1  6  1  0
  1  7  1  0
  2  3  1  0
  2  8  1  0
  2  9  1  0
  3  4  2  0
  3 10  1  0
M  END
>  <reaction>  (1) 
rxn_2026

>  <mol_properties>  (1) 
{"1": {"label": "donator", "atom_type": "Cs"}, "7": {"label": "d_hydrogen", "atom_type": "H0"}}

>  <type>  (1) 
r1h

$$$$

     RDKit          3D

 12 11  0  0  0  0  0  0  0  0999 V2000
   -0.9951    0.1196   -0.8321 C   0  0  0  0  0  0  0  0  0  0  0  0
   -0.3760    0.2571    0.5231 C   0  0  0  0  0  3  0  0  0  0  0  0
    0.9330   -0.1537    0.7810 C   0  0  0  0  0  0  0  0  0  0  0  0
    1.5987   -0.1880    1.9734 C   0  0  0  0  0  0  0  0  0  0  0  0
   -1.4483    0.9449    1.7152 S   0  0  0  0  0  0  0  0  0  0  0  0
   -1.9164   -0.4696   -0.7936 H   0  0  0  0  0  0  0  0  0  0  0  0
   -1.2565    1.0958   -1.2506 H   0  0  0  0  0  0  0  0  0  0  0  0
   -0.3088   -0.3780   -1.5170 H   0  0  0  0  0  0  0  0  0  0  0  0
    1.4783   -0.4898   -0.0971 H   0  0  0  0  0  0  0  0  0  0  0  0
    2.6278   -0.5153    2.0142 H   0  0  0  0  0  0  0  0  0  0  0  0
    1.1316    0.0690    2.9151 H   0  0  0  0  0  0  0  0  0  0  0  0
   -0.5306    1.3052    2.6211 H   0  0  0  0  0  0  0  0  0  0  0  0
  1  2  1  0
  1  6  1  0
  1  7  1  0
  1  8  1  0
  2  3  1  0
  2  5  1  0
  3  4  2  3
  3  9  1  0
  4 10  1  0
  4 11  1  0
  5 12  1  0
M  RAD  1   2   2
M  END
>  <reaction>  (2) 
rxn_2026

>  <mol_properties>  (2) 
{"1": {"label": "acceptor", "atom_type": "Cs"}}

>  <type>  (2) 
r2

$$$$

     RDKit          3D

 13 12  0  0  0  0  0  0  0  0999 V2000
   -1.1828    0.8269   -0.1645 C   0  0  0  0  0  0  0  0  0  0  0  0
   -0.4827   -0.4584   -0.5736 C   0  0  1  0  0  0  0  0  0  0  0  0
   -0.9759   -1.7030    0.1030 C   0  0  0  0  0  0  0  0  0  0  0  0
   -2.0084   -1.7831    0.9287 C   0  0  0  0  0  0  0  0  0  0  0  0
   -0.4908   -0.7025   -2.3913 S   0  0  0  0  0  0  0  0  0  0  0  0
   -1.0941    0.9860    0.9125 H   0  0  0  0  0  0  0  0  0  0  0  0
   -0.7405    1.6784   -0.6793 H   0  0  0  0  0  0  0  0  0  0  0  0
   -2.2437    0.7943   -0.4195 H   0  0  0  0  0  0  0  0  0  0  0  0
    0.5870   -0.3637   -0.3637 H   0  0  0  0  0  0  0  0  0  0  0  0
   -0.4209   -2.6026   -0.1443 H   0  0  0  0  0  0  0  0  0  0  0  0
   -2.2982   -2.7315    1.3623 H   0  0  0  0  0  0  0  0  0  0  0  0
   -2.5999   -0.9190    1.2055 H   0  0  0  0  0  0  0  0  0  0  0  0
   -1.8040   -0.9489   -2.4971 H   0  0  0  0  0  0  0  0  0  0  0  0
  1  2  1  0
  1  6  1  0
  1  7  1  0
  1  8  1  0
  2  3  1  0
  2  5  1  0
  2  9  1  1
  3  4  2  3
  3 10  1  0
  4 11  1  0
  4 12  1  0
  5 13  1  0
M  END
>  <reaction>  (3) 
rxn_2026

>  <mol_properties>  (3) 
{"1": {"label": "acceptor", "atom_type": "Cs"}, "12": {"label": "a_hydrogen", "atom_type": "H0"}}

>  <type>  (3) 
r2h

$$$$

     RDKit          3D

 22 20  0  0  0  0  0  0  0  0999 V2000
   -0.5358   -0.4932    1.8083 C   0  0  0  0  0  0  0  0  0  0  0  0
   -0.4851   -0.9592    0.3770 C   0  0  0  0  0  3  0  0  0  0  0  0
    0.1341   -2.2472    0.0653 C   0  0  0  0  0  0  0  0  0  0  0  0
    0.8363   -2.9962    0.9170 C   0  0  0  0  0  0  0  0  0  0  0  0
   -1.9325   -0.6668   -0.6111 S   0  0  0  0  0  0  0  0  0  0  0  0
   -1.2267   -1.1086    2.3898 H   0  0  0  0  0  0  0  0  0  0  0  0
    0.4533   -0.5528    2.2654 H   0  0  0  0  0  0  0  0  0  0  0  0
   -0.8615    0.5456    1.8637 H   0  0  0  0  0  0  0  0  0  0  0  0
    0.0275   -2.5840   -0.9619 H   0  0  0  0  0  0  0  0  0  0  0  0
    1.2909   -3.9220    0.5908 H   0  0  0  0  0  0  0  0  0  0  0  0
    0.9715   -2.7224    1.9555 H   0  0  0  0  0  0  0  0  0  0  0  0
   -2.1162    0.6099   -0.2423 H   0  0  0  0  0  0  0  0  0  0  0  0
    1.9756    0.1152   -1.6787 C   0  0  0  0  0  0  0  0  0  0  0  0
    1.2448    0.8590   -0.5881 C   0  0  0  0  0  0  0  0  0  0  0  0
    0.3815    1.9438   -0.9376 C   0  0  0  0  0  0  0  0  0  0  0  0
   -0.1744    3.0955    0.0917 S   0  0  0  0  0  0  0  0  0  0  0  0
    2.8257    0.6950   -2.0456 H   0  0  0  0  0  0  0  0  0  0  0  0
    2.3563   -0.8379   -1.3091 H   0  0  0  0  0  0  0  0  0  0  0  0
    1.3138   -0.0859   -2.5234 H   0  0  0  0  0  0  0  0  0  0  0  0
    0.3895   -0.0421   -0.1593 H   0  0  0  0  0  0  0  0  0  0  0  0
    1.7998    1.0101    0.3367 H   0  0  0  0  0  0  0  0  0  0  0  0
    0.0329    1.9526   -1.9714 H   0  0  0  0  0  0  0  0  0  0  0  0
  1  2  1  0
  1  6  1  0
  1  7  1  0
  1  8  1  0
  2  3  1  0
  2  5  1  0
  3  4  2  3
  3  9  1  0
  4 10  1  0
  4 11  1  0
  5 12  1  0
 13 14  1  0
 13 17  1  0
 13 18  1  0
 13 19  1  0
 14 15  1  0
 14 20  1  0
 14 21  1  0
 15 16  2  0
 15 22  1  0
M  RAD  1   2   2
M  END
>  <reaction>  (4) 
rxn_2026

>  <mol_properties>  (4) 
{"1": {"label": "*3", "atom_type": "Cs"}, "4": {"label": "*4", "atom_type": "S2s"}, "13": {"label": "*1", "atom_type": "Cs"}, "14": {"label": "*0", "atom_type": "CS"}, "19": {"label": "*2", "atom_type": "H0"}}

>  <type>  (4) 
ts

$$$$

     RDKit          3D

 22 21  0  0  0  0  0  0  0  0999 V2000
    0.0007   -2.3912    0.8822 C   0  0  0  0  0  0  0  0  0  0  0  0
   -0.4991   -1.2334    0.0341 C   0  0  0  0  0  0  0  0  0  0  0  0
   -1.9111   -1.3579   -0.4566 C   0  0  0  0  0  0  0  0  0  0  0  0
   -2.7643   -2.3191   -0.1368 C   0  0  0  0  0  0  0  0  0  0  0  0
   -0.2800    0.3833    0.8721 S   0  0  0  0  0  4  0  0  0  0  0  0
   -0.5859   -2.4891    1.7975 H   0  0  0  0  0  0  0  0  0  0  0  0
   -0.0689   -3.3302    0.3285 H   0  0  0  0  0  0  0  0  0  0  0  0
    1.0398   -2.2309    1.1656 H   0  0  0  0  0  0  0  0  0  0  0  0
   -2.2318   -0.5600   -1.1190 H   0  0  0  0  0  0  0  0  0  0  0  0
   -3.7714   -2.3199   -0.5334 H   0  0  0  0  0  0  0  0  0  0  0  0
   -2.4992   -3.1359    0.5233 H   0  0  0  0  0  0  0  0  0  0  0  0
   -1.2144    0.1854    1.8123 H   0  0  0  0  0  0  0  0  0  0  0  0
    1.5603    0.0880   -2.4361 C   0  0  0  0  0  0  0  0  0  0  0  0
    1.5603    0.0880   -0.9051 C   0  0  0  0  0  0  0  0  0  0  0  0
    1.5603    1.4762   -0.3584 C   0  0  0  0  0  3  0  0  0  0  0  0
    0.4408    2.1319    0.5892 S   0  0  0  0  0  0  0  0  0  0  0  0
    2.4155    0.6381   -2.8332 H   0  0  0  0  0  0  0  0  0  0  0  0
    1.6112   -0.9329   -2.8148 H   0  0  0  0  0  0  0  0  0  0  0  0
    0.6508    0.5504   -2.8218 H   0  0  0  0  0  0  0  0  0  0  0  0
    0.5327   -0.5714   -0.4364 H   0  0  0  0  0  0  0  0  0  0  0  0
    2.4707   -0.4087   -0.5496 H   0  0  0  0  0  0  0  0  0  0  0  0
    2.4158    2.0814   -0.6687 H   0  0  0  0  0  0  0  0  0  0  0  0
  1  2  1  0
  1  6  1  0
  1  7  1  0
  1  8  1  0
  2  3  1  0
  2  5  2  3
  3  4  2  3
  3  9  1  0
  4 10  1  0
  4 11  1  0
  5 16  1  0
  5 12  1  0
 13 14  1  0
 13 17  1  0
 13 18  1  0
 13 19  1  0
 14 15  1  0
 14 20  1  0
 14 21  1  0
 15 16  1  0
 15 22  1  0
M  RAD  1  15   2
M  END
>  <reaction>  (5) 
rxn_2026

>  <mol_properties>  (5) 
{"1": {"label": "*3", "atom_type": "Cs"}, "4": {"label": "*4", "atom_type": "S2s"}, "13": {"label": "*1", "atom_type": "Cs"}, "14": {"label": "*0", "atom_type": "CS"}, "19": {"label": "*2", "atom_type": "H0"}}

>  <type>  (5) 
unop_1

>  <geom_source>  (5) 
Heuristics

$$$$

     RDKit          3D

 22 20  0  0  0  0  0  0  0  0999 V2000
   -0.9845   -2.0797   -1.0176 C   0  0  0  0  0  0  0  0  0  0  0  0
   -0.6083   -0.9848   -0.0332 C   0  0  0  0  0  3  0  0  0  0  0  0
   -1.7618   -0.2614    0.5961 C   0  0  0  0  0  0  0  0  0  0  0  0
   -3.0435   -0.5583    0.4434 C   0  0  0  0  0  0  0  0  0  0  0  0
    0.5253   -1.5902    1.2753 S   0  0  0  0  0  0  0  0  0  0  0  0
   -1.5519   -2.8718   -0.5257 H   0  0  0  0  0  0  0  0  0  0  0  0
   -1.5943   -1.6740   -1.8280 H   0  0  0  0  0  0  0  0  0  0  0  0
   -0.0887   -2.5261   -1.4466 H   0  0  0  0  0  0  0  0  0  0  0  0
   -1.4799    0.5643    1.2419 H   0  0  0  0  0  0  0  0  0  0  0  0
   -3.8090    0.0163    0.9488 H   0  0  0  0  0  0  0  0  0  0  0  0
   -3.3805   -1.3742   -0.1842 H   0  0  0  0  0  0  0  0  0  0  0  0
   -0.3773   -2.3562    1.9039 H   0  0  0  0  0  0  0  0  0  0  0  0
    1.4511    0.3366   -2.5035 C   0  0  0  0  0  0  0  0  0  0  0  0
    1.4511    0.3366   -0.9724 C   0  0  0  0  0  0  0  0  0  0  0  0
    1.4511    1.7248   -0.4258 C   0  0  0  0  0  0  0  0  0  0  0  0
    0.3316    2.3805    0.5218 S   0  0  0  0  0  0  0  0  0  0  0  0
    2.3064    0.8868   -2.9006 H   0  0  0  0  0  0  0  0  0  0  0  0
    1.5020   -0.6843   -2.8822 H   0  0  0  0  0  0  0  0  0  0  0  0
    0.5417    0.7990   -2.8892 H   0  0  0  0  0  0  0  0  0  0  0  0
    0.4235   -0.3228   -0.5038 H   0  0  0  0  0  0  0  0  0  0  0  0
    2.3615   -0.1601   -0.6170 H   0  0  0  0  0  0  0  0  0  0  0  0
    2.3066    2.3300   -0.7361 H   0  0  0  0  0  0  0  0  0  0  0  0
  1  2  1  0
  1  6  1  0
  1  7  1  0
  1  8  1  0
  2  3  1  0
  2  5  1  0
  3  4  2  3
  3  9  1  0
  4 10  1  0
  4 11  1  0
  5 12  1  0
 13 14  1  0
 13 17  1  0
 13 18  1  0
 13 19  1  0
 14 15  1  0
 14 20  1  0
 14 21  1  0
 15 16  2  0
 15 22  1  0
M  RAD  1   2   2
M  END
>  <reaction>  (6) 
rxn_2026

>  <mol_properties>  (6) 
{"1": {"label": "*3", "atom_type": "Cs"}, "4": {"label": "*4", "atom_type": "S2s"}, "13": {"label": "*1", "atom_type": "Cs"}, "14": {"label": "*0", "atom_type": "CS"}, "19": {"label": "*2", "atom_type": "H0"}}

>  <type>  (6) 
unop_2

>  <geom_source>  (6) 
Heuristics

$$$$

     RDKit          3D

 22 21  0  0  0  0  0  0  0  0999 V2000
   -0.0411   -1.8013    1.5122 C   0  0  0  0  0  0  0  0  0  0  0  0
   -0.4156   -1.1880    0.1732 C   0  0  0  0  0  0  0  0  0  0  0  0
   -1.4172   -1.9620   -0.6315 C   0  0  0  0  0  0  0  0  0  0  0  0
   -2.0573   -3.0523   -0.2368 C   0  0  0  0  0  0  0  0  0  0  0  0
   -0.9735    0.5512    0.3404 S   0  0  0  0  0  4  0  0  0  0  0  0
   -0.9095   -1.8672    2.1703 H   0  0  0  0  0  0  0  0  0  0  0  0
    0.3612   -2.8074    1.3741 H   0  0  0  0  0  0  0  0  0  0  0  0
    0.7111   -1.1914    2.0100 H   0  0  0  0  0  0  0  0  0  0  0  0
   -1.6222   -1.5510   -1.6150 H   0  0  0  0  0  0  0  0  0  0  0  0
   -2.7744   -3.5387   -0.8854 H   0  0  0  0  0  0  0  0  0  0  0  0
   -1.8954   -3.5017    0.7353 H   0  0  0  0  0  0  0  0  0  0  0  0
   -2.1318    0.2719    0.9542 H   0  0  0  0  0  0  0  0  0  0  0  0
    1.6439    0.1334   -2.2971 C   0  0  0  0  0  0  0  0  0  0  0  0
    1.6439    0.1334   -0.7660 C   0  0  0  0  0  0  0  0  0  0  0  0
    1.6439    1.5216   -0.2193 C   0  0  0  0  0  3  0  0  0  0  0  0
    0.5243    2.1773    0.7282 S   0  0  0  0  0  0  0  0  0  0  0  0
    2.4991    0.6836   -2.6942 H   0  0  0  0  0  0  0  0  0  0  0  0
    1.6947   -0.8875   -2.6758 H   0  0  0  0  0  0  0  0  0  0  0  0
    0.7344    0.5958   -2.6827 H   0  0  0  0  0  0  0  0  0  0  0  0
    0.6162   -0.5259   -0.2974 H   0  0  0  0  0  0  0  0  0  0  0  0
    2.5542   -0.3633   -0.4106 H   0  0  0  0  0  0  0  0  0  0  0  0
    2.4993    2.1269   -0.5297 H   0  0  0  0  0  0  0  0  0  0  0  0
  1  2  1  0
  1  6  1  0
  1  7  1  0
  1  8  1  0
  2  3  1  0
  2  5  2  3
  3  4  2  3
  3  9  1  0
  4 10  1  0
  4 11  1  0
  5 16  1  0
  5 12  1  0
 13 14  1  0
 13 17  1  0
 13 18  1  0
 13 19  1  0
 14 15  1  0
 14 20  1  0
 14 21  1  0
 15 16  1  0
 15 22  1  0
M  RAD  1  15   2
M  END
>  <reaction>  (7) 
rxn_2026

>  <mol_properties>  (7) 
{"1": {"label": "*3", "atom_type": "Cs"}, "4": {"label": "*4", "atom_type": "S2s"}, "13": {"label": "*1", "atom_type": "Cs"}, "14": {"label": "*0", "atom_type": "CS"}, "19": {"label": "*2", "atom_type": "H0"}}

>  <type>  (7) 
unop_3

>  <geom_source>  (7) 
Heuristics

$$$$

     RDKit          3D

 22 20  0  0  0  0  0  0  0  0999 V2000
   -1.8854   -0.3205   -0.5236 C   0  0  0  0  0  0  0  0  0  0  0  0
   -0.6079   -0.9793   -0.0302 C   0  0  0  0  0  3  0  0  0  0  0  0
   -0.0770   -0.4584    1.2724 C   0  0  0  0  0  0  0  0  0  0  0  0
   -0.6685    0.4331    2.0533 C   0  0  0  0  0  0  0  0  0  0  0  0
   -0.7587   -2.8053    0.0537 S   0  0  0  0  0  0  0  0  0  0  0  0
   -2.7067   -0.4833    0.1766 H   0  0  0  0  0  0  0  0  0  0  0  0
   -1.7418    0.7563   -0.6389 H   0  0  0  0  0  0  0  0  0  0  0  0
   -2.1780   -0.7372   -1.4861 H   0  0  0  0  0  0  0  0  0  0  0  0
    0.8725   -0.8868    1.5777 H   0  0  0  0  0  0  0  0  0  0  0  0
   -0.2126    0.7418    2.9851 H   0  0  0  0  0  0  0  0  0  0  0  0
   -1.6181    0.8884    1.8003 H   0  0  0  0  0  0  0  0  0  0  0  0
   -1.6099   -2.8315    1.0887 H   0  0  0  0  0  0  0  0  0  0  0  0
    1.4516    0.3421   -2.5005 C   0  0  0  0  0  0  0  0  0  0  0  0
    1.4516    0.3421   -0.9694 C   0  0  0  0  0  0  0  0  0  0  0  0
    1.4516    1.7303   -0.4227 C   0  0  0  0  0  0  0  0  0  0  0  0
    0.3320    2.3860    0.5248 S   0  0  0  0  0  0  0  0  0  0  0  0
    2.3068    0.8923   -2.8976 H   0  0  0  0  0  0  0  0  0  0  0  0
    1.5024   -0.6788   -2.8791 H   0  0  0  0  0  0  0  0  0  0  0  0
    0.5421    0.8045   -2.8861 H   0  0  0  0  0  0  0  0  0  0  0  0
    0.4239   -0.3173   -0.5007 H   0  0  0  0  0  0  0  0  0  0  0  0
    2.3619   -0.1546   -0.6140 H   0  0  0  0  0  0  0  0  0  0  0  0
    2.3070    2.3355   -0.7331 H   0  0  0  0  0  0  0  0  0  0  0  0
  1  2  1  0
  1  6  1  0
  1  7  1  0
  1  8  1  0
  2  3  1  0
  2  5  1  0
  3  4  2  3
  3  9  1  0
  4 10  1  0
  4 11  1  0
  5 12  1  0
 13 14  1  0
 13 17  1  0
 13 18  1  0
 13 19  1  0
 14 15  1  0
 14 20  1  0
 14 21  1  0
 15 16  2  0
 15 22  1  0
M  RAD  1   2   2
M  END
>  <reaction>  (8) 
rxn_2026

>  <mol_properties>  (8) 
{"1": {"label": "*3", "atom_type": "Cs"}, "4": {"label": "*4", "atom_type": "S2s"}, "13": {"label": "*1", "atom_type": "Cs"}, "14": {"label": "*0", "atom_type": "CS"}, "19": {"label": "*2", "atom_type": "H0"}}

>  <type>  (8) 
unop_4

>  <geom_source>  (8) 
Heuristics

$$$$

     RDKit          3D

 22 20  0  0  0  0  0  0  0  0999 V2000
   -0.3913   -0.9532    1.7923 C   0  0  0  0  0  0  0  0  0  0  0  0
   -0.4359   -0.9818    0.2736 C   0  0  0  0  0  3  0  0  0  0  0  0
   -0.4264   -2.3484   -0.3447 C   0  0  0  0  0  0  0  0  0  0  0  0
   -0.4820   -3.4989    0.3090 C   0  0  0  0  0  0  0  0  0  0  0  0
   -1.8427   -0.0139   -0.3958 S   0  0  0  0  0  0  0  0  0  0  0  0
   -1.2703   -1.4391    2.2200 H   0  0  0  0  0  0  0  0  0  0  0  0
    0.4983   -1.4697    2.1598 H   0  0  0  0  0  0  0  0  0  0  0  0
   -0.3693    0.0749    2.1504 H   0  0  0  0  0  0  0  0  0  0  0  0
   -0.3865   -2.3538   -1.4295 H   0  0  0  0  0  0  0  0  0  0  0  0
   -0.4811   -4.4400   -0.2255 H   0  0  0  0  0  0  0  0  0  0  0  0
   -0.5284   -3.5518    1.3899 H   0  0  0  0  0  0  0  0  0  0  0  0
   -2.8031   -0.8530    0.0165 H   0  0  0  0  0  0  0  0  0  0  0  0
    1.6236    0.3396   -2.1967 C   0  0  0  0  0  0  0  0  0  0  0  0
    1.6236    0.3396   -0.6656 C   0  0  0  0  0  0  0  0  0  0  0  0
    1.6236    1.7278   -0.1189 C   0  0  0  0  0  0  0  0  0  0  0  0
    0.5041    2.3835    0.8286 S   0  0  0  0  0  0  0  0  0  0  0  0
    2.4788    0.8897   -2.5938 H   0  0  0  0  0  0  0  0  0  0  0  0
    1.6744   -0.6813   -2.5753 H   0  0  0  0  0  0  0  0  0  0  0  0
    0.7141    0.8020   -2.5823 H   0  0  0  0  0  0  0  0  0  0  0  0
    0.5959   -0.3198   -0.1969 H   0  0  0  0  0  0  0  0  0  0  0  0
    2.5339   -0.1571   -0.3102 H   0  0  0  0  0  0  0  0  0  0  0  0
    2.4790    2.3330   -0.4293 H   0  0  0  0  0  0  0  0  0  0  0  0
  1  2  1  0
  1  6  1  0
  1  7  1  0
  1  8  1  0
  2  3  1  0
  2  5  1  0
  3  4  2  3
  3  9  1  0
  4 10  1  0
  4 11  1  0
  5 12  1  0
 13 14  1  0
 13 17  1  0
 13 18  1  0
 13 19  1  0
 14 15  1  0
 14 20  1  0
 14 21  1  0
 15 16  2  0
 15 22  1  0
M  RAD  1   2   2
M  END
>  <reaction>  (9) 
rxn_2026

>  <mol_properties>  (9) 
{"1": {"label": "*3", "atom_type": "Cs"}, "4": {"label": "*4", "atom_type": "S2s"}, "13": {"label": "*1", "atom_type": "Cs"}, "14": {"label": "*0", "atom_type": "CS"}, "19": {"label": "*2", "atom_type": "H0"}}

>  <type>  (9) 
unop_5

>  <geom_source>  (9) 
Heuristics

$$$$

     RDKit          3D

 22 20  0  0  0  0  0  0  0  0999 V2000
   -1.8248    0.0416    0.1689 C   0  0  0  0  0  0  0  0  0  0  0  0
   -0.6601   -0.9182   -0.0084 C   0  0  0  0  0  3  0  0  0  0  0  0
    0.3366   -0.9345    1.1125 C   0  0  0  0  0  0  0  0  0  0  0  0
    0.2335   -0.2730    2.2553 C   0  0  0  0  0  0  0  0  0  0  0  0
   -1.2204   -2.6294   -0.3575 S   0  0  0  0  0  0  0  0  0  0  0  0
   -2.4211   -0.2222    1.0443 H   0  0  0  0  0  0  0  0  0  0  0  0
   -1.4630    1.0644    0.2964 H   0  0  0  0  0  0  0  0  0  0  0  0
   -2.4768    0.0096   -0.7026 H   0  0  0  0  0  0  0  0  0  0  0  0
    1.1994   -1.5706    0.9415 H   0  0  0  0  0  0  0  0  0  0  0  0
    1.0013   -0.3553    3.0138 H   0  0  0  0  0  0  0  0  0  0  0  0
   -0.6077    0.3710    2.4804 H   0  0  0  0  0  0  0  0  0  0  0  0
   -1.7137   -2.8710    0.8651 H   0  0  0  0  0  0  0  0  0  0  0  0
    1.3994    0.4031   -2.4787 C   0  0  0  0  0  0  0  0  0  0  0  0
    1.3994    0.4031   -0.9476 C   0  0  0  0  0  0  0  0  0  0  0  0
    1.3994    1.7913   -0.4009 C   0  0  0  0  0  0  0  0  0  0  0  0
    0.2799    2.4470    0.5466 S   0  0  0  0  0  0  0  0  0  0  0  0
    2.2546    0.9533   -2.8758 H   0  0  0  0  0  0  0  0  0  0  0  0
    1.4502   -0.6178   -2.8573 H   0  0  0  0  0  0  0  0  0  0  0  0
    0.4899    0.8655   -2.8643 H   0  0  0  0  0  0  0  0  0  0  0  0
    0.3717   -0.2562   -0.4789 H   0  0  0  0  0  0  0  0  0  0  0  0
    2.3097   -0.0936   -0.5922 H   0  0  0  0  0  0  0  0  0  0  0  0
    2.2548    2.3966   -0.7113 H   0  0  0  0  0  0  0  0  0  0  0  0
  1  2  1  0
  1  6  1  0
  1  7  1  0
  1  8  1  0
  2  3  1  0
  2  5  1  0
  3  4  2  3
  3  9  1  0
  4 10  1  0
  4 11  1  0
  5 12  1  0
 13 14  1  0
 13 17  1  0
 13 18  1  0
 13 19  1  0
 14 15  1  0
 14 20  1  0
 14 21  1  0
 15 16  2  0
 15 22  1  0
M  RAD  1   2   2
M  END
>  <reaction>  (10) 
rxn_2026

>  <mol_properties>  (10) 
{"1": {"label": "*3", "atom_type": "Cs"}, "4": {"label": "*4", "atom_type": "S2s"}, "13": {"label": "*1", "atom_type": "Cs"}, "14": {"label": "*0", "atom_type": "CS"}, "19": {"label": "*2", "atom_type": "H0"}}

>  <type>  (10) 
unop_6

>  <geom_source>  (10) 
Heuristics

$$$$

     RDKit          3D

 22 20  0  0  0  0  0  0  0  0999 V2000
   -1.5128    0.0924    0.9237 C   0  0  0  0  0  0  0  0  0  0  0  0
   -0.6687   -0.8445    0.0757 C   0  0  0  0  0  3  0  0  0  0  0  0
    0.5121   -1.4540    0.7715 C   0  0  0  0  0  0  0  0  0  0  0  0
    0.8118   -1.3237    2.0550 C   0  0  0  0  0  0  0  0  0  0  0  0
   -1.6730   -2.1668   -0.7033 S   0  0  0  0  0  0  0  0  0  0  0  0
   -1.9535   -0.4354    1.7716 H   0  0  0  0  0  0  0  0  0  0  0  0
   -0.9043    0.9132    1.3099 H   0  0  0  0  0  0  0  0  0  0  0  0
   -2.3247    0.5105    0.3307 H   0  0  0  0  0  0  0  0  0  0  0  0
    1.1465   -2.0640    0.1360 H   0  0  0  0  0  0  0  0  0  0  0  0
    1.6829   -1.8120    2.4725 H   0  0  0  0  0  0  0  0  0  0  0  0
    0.2114   -0.7319    2.7350 H   0  0  0  0  0  0  0  0  0  0  0  0
   -1.9367   -2.8328    0.4296 H   0  0  0  0  0  0  0  0  0  0  0  0
    1.3908    0.4769   -2.3946 C   0  0  0  0  0  0  0  0  0  0  0  0
    1.3908    0.4769   -0.8635 C   0  0  0  0  0  0  0  0  0  0  0  0
    1.3908    1.8651   -0.3168 C   0  0  0  0  0  0  0  0  0  0  0  0
    0.2712    2.5208    0.6307 S   0  0  0  0  0  0  0  0  0  0  0  0
    2.2460    1.0270   -2.7917 H   0  0  0  0  0  0  0  0  0  0  0  0
    1.4416   -0.5440   -2.7732 H   0  0  0  0  0  0  0  0  0  0  0  0
    0.4813    0.9393   -2.7802 H   0  0  0  0  0  0  0  0  0  0  0  0
    0.3631   -0.1825   -0.3948 H   0  0  0  0  0  0  0  0  0  0  0  0
    2.3011   -0.0198   -0.5081 H   0  0  0  0  0  0  0  0  0  0  0  0
    2.2462    2.4703   -0.6271 H   0  0  0  0  0  0  0  0  0  0  0  0
  1  2  1  0
  1  6  1  0
  1  7  1  0
  1  8  1  0
  2  3  1  0
  2  5  1  0
  3  4  2  3
  3  9  1  0
  4 10  1  0
  4 11  1  0
  5 12  1  0
 13 14  1  0
 13 17  1  0
 13 18  1  0
 13 19  1  0
 14 15  1  0
 14 20  1  0
 14 21  1  0
 15 16  2  0
 15 22  1  0
M  RAD  1   2   2
M  END
>  <reaction>  (11) 
rxn_2026

>  <mol_properties>  (11) 
{"1": {"label": "*3", "atom_type": "Cs"}, "4": {"label": "*4", "atom_type": "S2s"}, "13": {"label": "*1", "atom_type": "Cs"}, "14": {"label": "*0", "atom_type": "CS"}, "19": {"label": "*2", "atom_type": "H0"}}

>  <type>  (11) 
unop_7

>  <geom_source>  (11) 
Heuristics

$$$$

     RDKit          3D

 22 21  0  0  0  0  0  0  0  0999 V2000
   -0.1938   -2.6252    0.1273 C   0  0  0  0  0  0  0  0  0  0  0  0
   -0.5809   -1.1664   -0.0501 C   0  0  0  0  0  0  0  0  0  0  0  0
   -2.0547   -0.8955   -0.1181 C   0  0  0  0  0  0  0  0  0  0  0  0
   -3.0188   -1.7863    0.0591 C   0  0  0  0  0  0  0  0  0  0  0  0
    0.1842   -0.0880    1.2209 S   0  0  0  0  0  4  0  0  0  0  0  0
   -0.5755   -3.0208    1.0703 H   0  0  0  0  0  0  0  0  0  0  0  0
   -0.5980   -3.2310   -0.6869 H   0  0  0  0  0  0  0  0  0  0  0  0
    0.8900   -2.7304    0.1339 H   0  0  0  0  0  0  0  0  0  0  0  0
   -2.3158    0.1394   -0.3160 H   0  0  0  0  0  0  0  0  0  0  0  0
   -4.0595   -1.4944    0.0019 H   0  0  0  0  0  0  0  0  0  0  0  0
   -2.8153   -2.8301    0.2643 H   0  0  0  0  0  0  0  0  0  0  0  0
   -0.5453   -0.5399    2.2505 H   0  0  0  0  0  0  0  0  0  0  0  0
    1.4785    0.1549   -2.5203 C   0  0  0  0  0  0  0  0  0  0  0  0
    1.4785    0.1549   -0.9893 C   0  0  0  0  0  0  0  0  0  0  0  0
    1.4785    1.5431   -0.4426 C   0  0  0  0  0  3  0  0  0  0  0  0
    0.3590    2.1988    0.5050 S   0  0  0  0  0  0  0  0  0  0  0  0
    2.3337    0.7051   -2.9174 H   0  0  0  0  0  0  0  0  0  0  0  0
    1.5294   -0.8660   -2.8990 H   0  0  0  0  0  0  0  0  0  0  0  0
    0.5690    0.6173   -2.9060 H   0  0  0  0  0  0  0  0  0  0  0  0
    0.4509   -0.5044   -0.5206 H   0  0  0  0  0  0  0  0  0  0  0  0
    2.3889   -0.3418   -0.6338 H   0  0  0  0  0  0  0  0  0  0  0  0
    2.3340    2.1484   -0.7529 H   0  0  0  0  0  0  0  0  0  0  0  0
  1  2  1  0
  1  6  1  0
  1  7  1  0
  1  8  1  0
  2  3  1  0
  2  5  2  3
  3  4  2  3
  3  9  1  0
  4 10  1  0
  4 11  1  0
  5 16  1  0
  5 12  1  0
 13 14  1  0
 13 17  1  0
 13 18  1  0
 13 19  1  0
 14 15  1  0
 14 20  1  0
 14 21  1  0
 15 16  1  0
 15 22  1  0
M  RAD  1  15   2
M  END
>  <reaction>  (12) 
rxn_2026

>  <mol_properties>  (12) 
{"1": {"label": "*3", "atom_type": "Cs"}, "4": {"label": "*4", "atom_type": "S2s"}, "13": {"label": "*1", "atom_type": "Cs"}, "14": {"label": "*0", "atom_type": "CS"}, "19": {"label": "*2", "atom_type": "H0"}}

>  <type>  (12) 
unop_8

>  <geom_source>  (12) 
Heuristics

$$$$

     RDKit          3D

 22 20  0  0  0  0  0  0  0  0999 V2000
   -1.7162   -0.8771   -0.9969 C   0  0  0  0  0  0  0  0  0  0  0  0
   -0.5641   -0.9915   -0.0125 C   0  0  0  0  0  3  0  0  0  0  0  0
   -0.6723   -0.1261    1.2078 C   0  0  0  0  0  0  0  0  0  0  0  0
   -1.7079    0.6320    1.5351 C   0  0  0  0  0  0  0  0  0  0  0  0
   -0.2537   -2.7277    0.4907 S   0  0  0  0  0  0  0  0  0  0  0  0
   -2.6566   -1.1889   -0.5386 H   0  0  0  0  0  0  0  0  0  0  0  0
   -1.8273    0.1542   -1.3392 H   0  0  0  0  0  0  0  0  0  0  0  0
   -1.5382   -1.5134   -1.8625 H   0  0  0  0  0  0  0  0  0  0  0  0
    0.1893   -0.1638    1.8670 H   0  0  0  0  0  0  0  0  0  0  0  0
   -1.7001    1.2166    2.4460 H   0  0  0  0  0  0  0  0  0  0  0  0
   -2.5948    0.7029    0.9174 H   0  0  0  0  0  0  0  0  0  0  0  0
   -1.3724   -2.8693    1.2152 H   0  0  0  0  0  0  0  0  0  0  0  0
    1.4953    0.3298   -2.4828 C   0  0  0  0  0  0  0  0  0  0  0  0
    1.4953    0.3298   -0.9517 C   0  0  0  0  0  0  0  0  0  0  0  0
    1.4953    1.7180   -0.4050 C   0  0  0  0  0  0  0  0  0  0  0  0
    0.3758    2.3737    0.5425 S   0  0  0  0  0  0  0  0  0  0  0  0
    2.3505    0.8800   -2.8799 H   0  0  0  0  0  0  0  0  0  0  0  0
    1.5461   -0.6911   -2.8615 H   0  0  0  0  0  0  0  0  0  0  0  0
    0.5858    0.7922   -2.8685 H   0  0  0  0  0  0  0  0  0  0  0  0
    0.4676   -0.3295   -0.4831 H   0  0  0  0  0  0  0  0  0  0  0  0
    2.4057   -0.1669   -0.5963 H   0  0  0  0  0  0  0  0  0  0  0  0
    2.3508    2.3233   -0.7154 H   0  0  0  0  0  0  0  0  0  0  0  0
  1  2  1  0
  1  6  1  0
  1  7  1  0
  1  8  1  0
  2  3  1  0
  2  5  1  0
  3  4  2  3
  3  9  1  0
  4 10  1  0
  4 11  1  0
  5 12  1  0
 13 14  1  0
 13 17  1  0
 13 18  1  0
 13 19  1  0
 14 15  1  0
 14 20  1  0
 14 21  1  0
 15 16  2  0
 15 22  1  0
M  RAD  1   2   2
M  END
>  <reaction>  (13) 
rxn_2026

>  <mol_properties>  (13) 
{"1": {"label": "*3", "atom_type": "Cs"}, "4": {"label": "*4", "atom_type": "S2s"}, "13": {"label": "*1", "atom_type": "Cs"}, "14": {"label": "*0", "atom_type": "CS"}, "19": {"label": "*2", "atom_type": "H0"}}

>  <type>  (13) 
unop_9

>  <geom_source>  (13) 
Heuristics

$$$$

     RDKit          3D

 22 20  0  0  0  0  0  0  0  0999 V2000
   -0.5551   -2.4983   -0.5585 C   0  0  0  0  0  0  0  0  0  0  0  0
   -0.6215   -1.0625   -0.0651 C   0  0  0  0  0  3  0  0  0  0  0  0
   -1.9976   -0.5510    0.2427 C   0  0  0  0  0  0  0  0  0  0  0  0
   -3.1158   -1.2603    0.2155 C   0  0  0  0  0  0  0  0  0  0  0  0
    0.4777   -0.7738    1.3745 S   0  0  0  0  0  0  0  0  0  0  0  0
   -0.9276   -3.1910    0.1984 H   0  0  0  0  0  0  0  0  0  0  0  0
   -1.1568   -2.6217   -1.4617 H   0  0  0  0  0  0  0  0  0  0  0  0
    0.4739   -2.7723   -0.7861 H   0  0  0  0  0  0  0  0  0  0  0  0
   -2.0383    0.4963    0.5255 H   0  0  0  0  0  0  0  0  0  0  0  0
   -4.0660   -0.8059    0.4649 H   0  0  0  0  0  0  0  0  0  0  0  0
   -3.1325   -2.3092   -0.0541 H   0  0  0  0  0  0  0  0  0  0  0  0
   -0.2371   -1.4967    2.2480 H   0  0  0  0  0  0  0  0  0  0  0  0
    1.4379    0.2589   -2.5353 C   0  0  0  0  0  0  0  0  0  0  0  0
    1.4379    0.2589   -1.0043 C   0  0  0  0  0  0  0  0  0  0  0  0
    1.4379    1.6471   -0.4576 C   0  0  0  0  0  0  0  0  0  0  0  0
    0.3184    2.3028    0.4900 S   0  0  0  0  0  0  0  0  0  0  0  0
    2.2931    0.8091   -2.9324 H   0  0  0  0  0  0  0  0  0  0  0  0
    1.4887   -0.7620   -2.9140 H   0  0  0  0  0  0  0  0  0  0  0  0
    0.5284    0.7213   -2.9210 H   0  0  0  0  0  0  0  0  0  0  0  0
    0.4102   -0.4005   -0.5356 H   0  0  0  0  0  0  0  0  0  0  0  0
    2.3483   -0.2378   -0.6488 H   0  0  0  0  0  0  0  0  0  0  0  0
    2.2934    2.2523   -0.7679 H   0  0  0  0  0  0  0  0  0  0  0  0
  1  2  1  0
  1  6  1  0
  1  7  1  0
  1  8  1  0
  2  3  1  0
  2  5  1  0
  3  4  2  3
  3  9  1  0
  4 10  1  0
  4 11  1  0
  5 12  1  0
 13 14  1  0
 13 17  1  0
 13 18  1  0
 13 19  1  0
 14 15  1  0
 14 20  1  0
 14 21  1  0
 15 16  2  0
 15 22  1  0
M  RAD  1   2   2
M  END
>  <reaction>  (14) 
rxn_2026

>  <mol_properties>  (14) 
{"1": {"label": "*3", "atom_type": "Cs"}, "4": {"label": "*4", "atom_type": "S2s"}, "13": {"label": "*1", "atom_type": "Cs"}, "14": {"label": "*0", "atom_type": "CS"}, "19": {"label": "*2", "atom_type": "H0"}}

>  <type>  (14) 
unop_10

>  <geom_source>  (14) 
Heuristics

$$$$

     RDKit          3D

 22 20  0  0  0  0  0  0  0  0999 V2000
   -0.9879   -0.2337    1.5429 C   0  0  0  0  0  0  0  0  0  0  0  0
   -0.5864   -0.8297    0.2039 C   0  0  0  0  0  3  0  0  0  0  0  0
    0.3499   -1.9993    0.2751 C   0  0  0  0  0  0  0  0  0  0  0  0
    0.7632   -2.5993    1.3812 C   0  0  0  0  0  0  0  0  0  0  0  0
   -2.0417   -1.2689   -0.8224 S   0  0  0  0  0  0  0  0  0  0  0  0
   -1.5268   -0.9625    2.1512 H   0  0  0  0  0  0  0  0  0  0  0  0
   -0.1051    0.0905    2.0986 H   0  0  0  0  0  0  0  0  0  0  0  0
   -1.6398    0.6256    1.3937 H   0  0  0  0  0  0  0  0  0  0  0  0
    0.6847   -2.3702   -0.6887 H   0  0  0  0  0  0  0  0  0  0  0  0
    1.4338   -3.4476    1.3334 H   0  0  0  0  0  0  0  0  0  0  0  0
    0.4567   -2.2746    2.3680 H   0  0  0  0  0  0  0  0  0  0  0  0
   -2.4444   -2.2999   -0.0665 H   0  0  0  0  0  0  0  0  0  0  0  0
    1.4730    0.4917   -2.2664 C   0  0  0  0  0  0  0  0  0  0  0  0
    1.4730    0.4917   -0.7353 C   0  0  0  0  0  0  0  0  0  0  0  0
    1.4730    1.8799   -0.1886 C   0  0  0  0  0  0  0  0  0  0  0  0
    0.3535    2.5356    0.7589 S   0  0  0  0  0  0  0  0  0  0  0  0
    2.3282    1.0419   -2.6635 H   0  0  0  0  0  0  0  0  0  0  0  0
    1.5238   -0.5292   -2.6451 H   0  0  0  0  0  0  0  0  0  0  0  0
    0.5635    0.9541   -2.6521 H   0  0  0  0  0  0  0  0  0  0  0  0
    0.4454   -0.1677   -0.2667 H   0  0  0  0  0  0  0  0  0  0  0  0
    2.3834   -0.0050   -0.3799 H   0  0  0  0  0  0  0  0  0  0  0  0
    2.3285    2.4851   -0.4990 H   0  0  0  0  0  0  0  0  0  0  0  0
  1  2  1  0
  1  6  1  0
  1  7  1  0
  1  8  1  0
  2  3  1  0
  2  5  1  0
  3  4  2  3
  3  9  1  0
  4 10  1  0
  4 11  1  0
  5 12  1  0
 13 14  1  0
 13 17  1  0
 13 18  1  0
 13 19  1  0
 14 15  1  0
 14 20  1  0
 14 21  1  0
 15 16  2  0
 15 22  1  0
M  RAD  1   2   2
M  END
>  <reaction>  (15) 
rxn_2026

>  <mol_properties>  (15) 
{"1": {"label": "*3", "atom_type": "Cs"}, "4": {"label": "*4", "atom_type": "S2s"}, "13": {"label": "*1", "atom_type": "Cs"}, "14": {"label": "*0", "atom_type": "CS"}, "19": {"label": "*2", "atom_type": "H0"}}

>  <type>  (15) 
unop_11

>  <geom_source>  (15) 
Heuristics

$$$$

     RDKit          3D

 22 20  0  0  0  0  0  0  0  0999 V2000
   -1.3916   -1.4988   -1.1686 C   0  0  0  0  0  0  0  0  0  0  0  0
   -0.5694   -0.9713   -0.0045 C   0  0  0  0  0  3  0  0  0  0  0  0
   -1.3017   -0.0685    0.9435 C   0  0  0  0  0  0  0  0  0  0  0  0
   -2.5945    0.2169    0.9047 C   0  0  0  0  0  0  0  0  0  0  0  0
    0.2440   -2.3199    0.9356 S   0  0  0  0  0  0  0  0  0  0  0  0
   -2.2238   -2.1108   -0.8159 H   0  0  0  0  0  0  0  0  0  0  0  0
   -1.7987   -0.6728   -1.7560 H   0  0  0  0  0  0  0  0  0  0  0  0
   -0.7735   -2.1162   -1.8186 H   0  0  0  0  0  0  0  0  0  0  0  0
   -0.6858    0.3578    1.7292 H   0  0  0  0  0  0  0  0  0  0  0  0
   -3.0389    0.8735    1.6415 H   0  0  0  0  0  0  0  0  0  0  0  0
   -3.2559   -0.1844    0.1466 H   0  0  0  0  0  0  0  0  0  0  0  0
   -0.8785   -2.8173    1.4732 H   0  0  0  0  0  0  0  0  0  0  0  0
    1.4901    0.3501   -2.4747 C   0  0  0  0  0  0  0  0  0  0  0  0
    1.4901    0.3501   -0.9437 C   0  0  0  0  0  0  0  0  0  0  0  0
    1.4901    1.7383   -0.3970 C   0  0  0  0  0  0  0  0  0  0  0  0
    0.3705    2.3940    0.5506 S   0  0  0  0  0  0  0  0  0  0  0  0
    2.3453    0.9003   -2.8718 H   0  0  0  0  0  0  0  0  0  0  0  0
    1.5409   -0.6708   -2.8534 H   0  0  0  0  0  0  0  0  0  0  0  0
    0.5806    0.8125   -2.8604 H   0  0  0  0  0  0  0  0  0  0  0  0
    0.4624   -0.3093   -0.4750 H   0  0  0  0  0  0  0  0  0  0  0  0
    2.4004   -0.1466   -0.5882 H   0  0  0  0  0  0  0  0  0  0  0  0
    2.3455    2.3435   -0.7073 H   0  0  0  0  0  0  0  0  0  0  0  0
  1  2  1  0
  1  6  1  0
  1  7  1  0
  1  8  1  0
  2  3  1  0
  2  5  1  0
  3  4  2  3
  3  9  1  0
  4 10  1  0
  4 11  1  0
  5 12  1  0
 13 14  1  0
 13 17  1  0
 13 18  1  0
 13 19  1  0
 14 15  1  0
 14 20  1  0
 14 21  1  0
 15 16  2  0
 15 22  1  0
M  RAD  1   2   2
M  END
>  <reaction>  (16) 
rxn_2026

>  <mol_properties>  (16) 
{"1": {"label": "*3", "atom_type": "Cs"}, "4": {"label": "*4", "atom_type": "S2s"}, "13": {"label": "*1", "atom_type": "Cs"}, "14": {"label": "*0", "atom_type": "CS"}, "19": {"label": "*2", "atom_type": "H0"}}

>  <type>  (16) 
unop_12

>  <geom_source>  (16) 
Heuristics

$$$$

     RDKit          3D

 22 20  0  0  0  0  0  0  0  0999 V2000
   -0.4911   -1.1895   -2.1681 S   0  0  0  0  0  0  0  0  0  0  0  0
    0.2884    2.0487    1.5710 S   0  0  0  0  0  1  0  0  0  0  0  0
   -0.8547   -0.5695   -0.4927 C   0  0  0  0  0  0  0  0  0  0  0  0
   -0.9072   -1.7437    0.4829 C   0  0  0  0  0  0  0  0  0  0  0  0
    2.5165   -0.4011    0.0156 C   0  0  0  0  0  0  0  0  0  0  0  0
   -2.1572    0.1879   -0.4942 C   0  0  0  0  0  0  0  0  0  0  0  0
    1.4319    0.6445   -0.2021 C   0  0  0  0  0  0  0  0  0  0  0  0
   -2.5068    0.9718    0.5294 C   0  0  0  0  0  0  0  0  0  0  0  0
    1.4813    1.6972    0.8580 C   0  0  0  0  0  0  0  0  0  0  0  0
    0.1202    0.2402   -0.1369 H   0  0  0  0  0  0  0  0  0  0  0  0
   -1.7259   -2.4432    0.2082 H   0  0  0  0  0  0  0  0  0  0  0  0
   -1.0748   -1.3777    1.5179 H   0  0  0  0  0  0  0  0  0  0  0  0
    0.0580   -2.2925    0.4632 H   0  0  0  0  0  0  0  0  0  0  0  0
    2.4399   -1.1784   -0.7728 H   0  0  0  0  0  0  0  0  0  0  0  0
    3.5226    0.0674   -0.0380 H   0  0  0  0  0  0  0  0  0  0  0  0
    2.3856   -0.8859    1.0063 H   0  0  0  0  0  0  0  0  0  0  0  0
   -2.8197    0.1240   -1.3530 H   0  0  0  0  0  0  0  0  0  0  0  0
    1.5508    1.1146   -1.2016 H   0  0  0  0  0  0  0  0  0  0  0  0
   -1.8640    1.0774    1.3982 H   0  0  0  0  0  0  0  0  0  0  0  0
   -3.4441    1.5178    0.4998 H   0  0  0  0  0  0  0  0  0  0  0  0
    2.3840    2.2823    1.0022 H   0  0  0  0  0  0  0  0  0  0  0  0
   -0.3337    0.1076   -2.6933 H   0  0  0  0  0  0  0  0  0  0  0  0
  1  3  1  0
  1 22  1  0
  2  9  1  0
  3  4  1  0
  3  6  1  0
  3 10  1  0
  4 11  1  0
  4 12  1  0
  4 13  1  0
  5  7  1  0
  5 14  1  0
  5 15  1  0
  5 16  1  0
  6  8  2  3
  6 17  1  0
  7  9  2  3
  7 18  1  0
  8 19  1  0
  8 20  1  0
  9 21  1  0
M  RAD  1   2   2
M  END
>  <reaction>  (17) 
rxn_2026

>  <mol_properties>  (17) 
{"1": {"label": "*3", "atom_type": "Cs"}, "4": {"label": "*4", "atom_type": "S2s"}, "13": {"label": "*1", "atom_type": "Cs"}, "14": {"label": "*0", "atom_type": "CS"}, "19": {"label": "*2", "atom_type": "H0"}}

>  <type>  (17) 
unop_13

>  <geom_source>  (17) 
AutoTST

$$$$
