
     RDKit          3D

 10  9  0  0  0  0  0  0  0  0999 V2000
    2.2738    0.0217   -0.0992 C   0  0  0  0  0  0  0  0  0  0  0  0
    1.1083    0.2960   -0.0695 C   0  0  0  0  0  0  0  0  0  0  0  0
   -0.3173    0.6046   -0.0227 C   0  0  0  0  0  0  0  0  0  0  0  0
   -1.1561   -0.5495    0.5292 C   0  0  0  0  0  0  0  0  0  0  0  0
    3.3097   -0.2166   -0.1277 H   0  0  0  0  0  0  0  0  0  0  0  0
   -0.6542    0.8617   -1.0302 H   0  0  0  0  0  0  0  0  0  0  0  0
   -0.4633    1.4978    0.5900 H   0  0  0  0  0  0  0  0  0  0  0  0
   -0.8485   -0.7997    1.5447 H   0  0  0  0  0  0  0  0  0  0  0  0
   -2.2115   -0.2752    0.5459 H   0  0  0  0  0  0  0  0  0  0  0  0
   -1.0409   -1.4407   -0.0879 H   0  0  0  0  0  0  0  0  0  0  0  0
  1  2  3  0
  1  5  1  0
  2  3  1  0
  3  4  1  0
  3  6  1  0
  3  7  1  0
  4  8  1  0
  4  9  1  0
  4 10  1  0
M  END
>  <reaction>  (1) 
rxn_1270

>  <mol_properties>  (1) 
{"2": {"label": "donator", "atom_type": "Cs"}, "5": {"label": "d_hydrogen", "atom_type": "H0"}}

>  <type>  (1) 
r1h

$$$$

     RDKit          3D

 11 10  0  0  0  0  0  0  0  0999 V2000
   -0.9580    1.1013   -2.2955 C   0  0  0  0  0  0  0  0  0  0  0  0
   -0.5129    0.5941   -1.2929 C   0  0  0  0  0  0  0  0  0  0  0  0
   -0.0301   -0.0160   -0.1357 C   0  0  0  0  0  3  0  0  0  0  0  0
   -0.6593   -1.2845    0.3661 C   0  0  0  0  0  0  0  0  0  0  0  0
    1.0691    0.5292    0.5269 C   0  0  0  0  0  0  0  0  0  0  0  0
    2.0168    0.9794    1.1266 C   0  0  0  0  0  0  0  0  0  0  0  0
   -1.3415    1.5561   -3.1769 H   0  0  0  0  0  0  0  0  0  0  0  0
   -1.7166   -1.3186    0.1054 H   0  0  0  0  0  0  0  0  0  0  0  0
   -0.1742   -2.1550   -0.0865 H   0  0  0  0  0  0  0  0  0  0  0  0
   -0.5505   -1.3663    1.4470 H   0  0  0  0  0  0  0  0  0  0  0  0
    2.8514    1.3842    1.6465 H   0  0  0  0  0  0  0  0  0  0  0  0
  1  2  3  0
  1  7  1  0
  2  3  1  0
  3  4  1  0
  3  5  1  0
  4  8  1  0
  4  9  1  0
  4 10  1  0
  5  6  3  0
  6 11  1  0
M  RAD  1   3   2
M  END
>  <reaction>  (2) 
rxn_1270

>  <mol_properties>  (2) 
{"2": {"label": "acceptor", "atom_type": "Cs"}}

>  <type>  (2) 
r2

$$$$

     RDKit          3D

 12 11  0  0  0  0  0  0  0  0999 V2000
    2.1696    0.6854    1.1310 C   0  0  0  0  0  0  0  0  0  0  0  0
    1.2518    0.4145    0.4134 C   0  0  0  0  0  0  0  0  0  0  0  0
    0.1391    0.0443   -0.4683 C   0  0  0  0  0  0  0  0  0  0  0  0
   -0.2054   -1.4492   -0.3339 C   0  0  0  0  0  0  0  0  0  0  0  0
   -1.0375    0.8853   -0.2222 C   0  0  0  0  0  0  0  0  0  0  0  0
   -2.0160    1.5463   -0.0311 C   0  0  0  0  0  0  0  0  0  0  0  0
    2.9819    0.9356    1.7702 H   0  0  0  0  0  0  0  0  0  0  0  0
    0.4629    0.2285   -1.4981 H   0  0  0  0  0  0  0  0  0  0  0  0
   -0.5327   -1.6703    0.6812 H   0  0  0  0  0  0  0  0  0  0  0  0
    0.6727   -2.0535   -0.5593 H   0  0  0  0  0  0  0  0  0  0  0  0
   -1.0064   -1.7081   -1.0256 H   0  0  0  0  0  0  0  0  0  0  0  0
   -2.8802    2.1413    0.1426 H   0  0  0  0  0  0  0  0  0  0  0  0
  1  2  3  0
  1  7  1  0
  2  3  1  0
  3  4  1  0
  3  5  1  0
  3  8  1  0
  4  9  1  0
  4 10  1  0
  4 11  1  0
  5  6  3  0
  6 12  1  0
M  END
>  <reaction>  (3) 
rxn_1270

>  <mol_properties>  (3) 
{"2": {"label": "acceptor", "atom_type": "Cs"}, "11": {"label": "a_hydrogen", "atom_type": "H0"}}

>  <type>  (3) 
r2h

$$$$

     RDKit          3D

 21 19  0  0  0  0  0  0  0  0999 V2000
    2.1989   -0.3270   -1.2923 C   0  0  0  0  0  0  0  0  0  0  0  0
    1.4874   -0.4592   -0.3351 C   0  0  0  0  0  0  0  0  0  0  0  0
    0.5721   -0.6088    0.7637 C   0  0  0  0  0  0  0  0  0  0  0  0
   -0.0475   -1.9925    0.9064 C   0  0  0  0  0  0  0  0  0  0  0  0
    0.9895    0.0128    1.9924 C   0  0  0  0  0  0  0  0  0  0  0  0
    1.2728    0.5517    3.0264 C   0  0  0  0  0  0  0  0  0  0  0  0
    2.8442   -0.2153   -2.1300 H   0  0  0  0  0  0  0  0  0  0  0  0
   -0.5000   -2.2912   -0.0390 H   0  0  0  0  0  0  0  0  0  0  0  0
    0.7097   -2.7278    1.1831 H   0  0  0  0  0  0  0  0  0  0  0  0
   -0.8170   -1.9769    1.6780 H   0  0  0  0  0  0  0  0  0  0  0  0
    1.5456    1.0197    3.9415 H   0  0  0  0  0  0  0  0  0  0  0  0
   -2.6814   -0.5322   -1.8639 C   0  0  0  0  0  0  0  0  0  0  0  0
   -2.1756    0.1480   -1.0082 C   0  0  0  0  0  0  0  0  0  0  0  0
   -1.5206    0.9071   -0.0073 C   0  0  0  0  0  3  0  0  0  0  0  0
   -0.8130    2.1752   -0.4146 C   0  0  0  0  0  0  0  0  0  0  0  0
   -3.1424   -1.1205   -2.6203 H   0  0  0  0  0  0  0  0  0  0  0  0
   -0.4584    0.1105    0.3930 H   0  0  0  0  0  0  0  0  0  0  0  0
   -2.0607    0.9597    0.9367 H   0  0  0  0  0  0  0  0  0  0  0  0
   -1.5315    2.9542   -0.6827 H   0  0  0  0  0  0  0  0  0  0  0  0
   -0.1990    2.5438    0.4081 H   0  0  0  0  0  0  0  0  0  0  0  0
   -0.1678    1.9955   -1.2748 H   0  0  0  0  0  0  0  0  0  0  0  0
  1  2  3  0
  1  7  1  0
  2  3  1  0
  3  4  1  0
  3  5  1  0
  3 17  1  0
  4  8  1  0
  4  9  1  0
  4 10  1  0
  5  6  3  0
  6 11  1  0
 12 13  3  0
 12 16  1  0
 13 14  1  0
 14 15  1  0
 14 18  1  0
 15 19  1  0
 15 20  1  0
 15 21  1  0
M  RAD  1  14   2
M  END
>  <reaction>  (4) 
rxn_1270

>  <mol_properties>  (4) 
{"1": {"label": "*0", "atom_type": "Ct"}, "2": {"label": "*1", "atom_type": "Cs"}, "12": {"label": "*4", "atom_type": "Ct"}, "13": {"label": "*3", "atom_type": "Cs"}, "16": {"label": "*2", "atom_type": "H0"}}

>  <type>  (4) 
ts

$$$$

     RDKit          3D

 21 19  0  0  0  0  0  0  0  0999 V2000
    2.3434    1.0224    1.7338 C   0  0  0  0  0  0  0  0  0  0  0  0
    1.6589    0.2649    1.1105 C   0  0  0  0  0  0  0  0  0  0  0  0
    0.8516   -0.6750    0.3248 C   0  0  0  0  0  3  0  0  0  0  0  0
    1.7109   -1.8315   -0.2152 C   0  0  0  0  0  0  0  0  0  0  0  0
   -0.2873   -1.1769    1.1016 C   0  0  0  0  0  0  0  0  0  0  0  0
   -1.2149   -1.6138    1.7175 C   0  0  0  0  0  0  0  0  0  0  0  0
    2.9520    1.6957    2.2880 H   0  0  0  0  0  0  0  0  0  0  0  0
    2.5261   -1.4359   -0.8202 H   0  0  0  0  0  0  0  0  0  0  0  0
    2.1319   -2.4048    0.6097 H   0  0  0  0  0  0  0  0  0  0  0  0
    1.0986   -2.4934   -0.8268 H   0  0  0  0  0  0  0  0  0  0  0  0
   -2.0396   -2.0023    2.2652 H   0  0  0  0  0  0  0  0  0  0  0  0
   -1.2517    0.6063   -3.2010 C   0  0  0  0  0  0  0  0  0  0  0  0
   -1.2517    0.6063   -2.0033 C   0  0  0  0  0  0  0  0  0  0  0  0
   -1.2517    0.6345   -0.5441 C   0  0  0  0  0  0  0  0  0  0  0  0
   -1.2516    2.0559    0.0215 C   0  0  0  0  0  0  0  0  0  0  0  0
   -1.2517    0.6063   -4.2643 H   0  0  0  0  0  0  0  0  0  0  0  0
   -0.2011   -0.0196   -0.1101 H   0  0  0  0  0  0  0  0  0  0  0  0
   -2.1272    0.0895   -0.1824 H   0  0  0  0  0  0  0  0  0  0  0  0
   -2.1339    2.6038   -0.3100 H   0  0  0  0  0  0  0  0  0  0  0  0
   -1.2516    2.0286    1.1117 H   0  0  0  0  0  0  0  0  0  0  0  0
   -0.3694    2.6038   -0.3100 H   0  0  0  0  0  0  0  0  0  0  0  0
  1  2  3  0
  1  7  1  0
  2  3  1  0
  3  4  1  0
  3  5  1  0
  4  8  1  0
  4  9  1  0
  4 10  1  0
  5  6  3  0
  6 11  1  0
 12 13  3  0
 12 16  1  0
 13 14  1  0
 14 15  1  0
 14 17  1  0
 14 18  1  0
 15 19  1  0
 15 20  1  0
 15 21  1  0
M  RAD  1   3   2
M  END
>  <reaction>  (5) 
rxn_1270

>  <mol_properties>  (5) 
{"1": {"label": "*0", "atom_type": "Ct"}, "2": {"label": "*1", "atom_type": "Cs"}, "12": {"label": "*4", "atom_type": "Ct"}, "13": {"label": "*3", "atom_type": "Cs"}, "16": {"label": "*2", "atom_type": "H0"}}

>  <type>  (5) 
unop_1

>  <geom_source>  (5) 
Heuristics

$$$$

     RDKit          3D

 21 19  0  0  0  0  0  0  0  0999 V2000
    2.4428   -0.5901   -1.2419 C   0  0  0  0  0  0  0  0  0  0  0  0
    1.5871   -0.6757   -0.4104 C   0  0  0  0  0  0  0  0  0  0  0  0
    0.5334   -0.8195    0.6002 C   0  0  0  0  0  3  0  0  0  0  0  0
    0.4498   -2.2667    1.1162 C   0  0  0  0  0  0  0  0  0  0  0  0
    0.7218    0.1282    1.7042 C   0  0  0  0  0  0  0  0  0  0  0  0
    0.8607    0.8797    2.6244 C   0  0  0  0  0  0  0  0  0  0  0  0
    3.2036   -0.5140   -1.9811 H   0  0  0  0  0  0  0  0  0  0  0  0
    0.2707   -2.9467    0.2840 H   0  0  0  0  0  0  0  0  0  0  0  0
    1.3824   -2.5468    1.6043 H   0  0  0  0  0  0  0  0  0  0  0  0
   -0.3640   -2.3571    1.8349 H   0  0  0  0  0  0  0  0  0  0  0  0
    0.9842    1.5478    3.4425 H   0  0  0  0  0  0  0  0  0  0  0  0
   -1.5698    0.4618   -2.9256 C   0  0  0  0  0  0  0  0  0  0  0  0
   -1.5698    0.4618   -1.7279 C   0  0  0  0  0  0  0  0  0  0  0  0
   -1.5698    0.4900   -0.2688 C   0  0  0  0  0  0  0  0  0  0  0  0
   -1.5698    1.9114    0.2968 C   0  0  0  0  0  0  0  0  0  0  0  0
   -1.5698    0.4618   -3.9889 H   0  0  0  0  0  0  0  0  0  0  0  0
   -0.5192   -0.1641    0.1653 H   0  0  0  0  0  0  0  0  0  0  0  0
   -2.4454   -0.0551    0.0930 H   0  0  0  0  0  0  0  0  0  0  0  0
   -2.4521    2.4593   -0.0346 H   0  0  0  0  0  0  0  0  0  0  0  0
   -1.5698    1.8841    1.3871 H   0  0  0  0  0  0  0  0  0  0  0  0
   -0.6876    2.4592   -0.0346 H   0  0  0  0  0  0  0  0  0  0  0  0
  1  2  3  0
  1  7  1  0
  2  3  1  0
  3  4  1  0
  3  5  1  0
  4  8  1  0
  4  9  1  0
  4 10  1  0
  5  6  3  0
  6 11  1  0
 12 13  3  0
 12 16  1  0
 13 14  1  0
 14 15  1  0
 14 17  1  0
 14 18  1  0
 15 19  1  0
 15 20  1  0
 15 21  1  0
M  RAD  1   3   2
M  END
>  <reaction>  (6) 
rxn_1270

>  <mol_properties>  (6) 
{"1": {"label": "*0", "atom_type": "Ct"}, "2": {"label": "*1", "atom_type": "Cs"}, "12": {"label": "*4", "atom_type": "Ct"}, "13": {"label": "*3", "atom_type": "Cs"}, "16": {"label": "*2", "atom_type": "H0"}}

>  <type>  (6) 
unop_2

>  <geom_source>  (6) 
Heuristics

$$$$

     RDKit          3D

 21 19  0  0  0  0  0  0  0  0999 V2000
    1.6131    0.6014    2.6857 C   0  0  0  0  0  0  0  0  0  0  0  0
    1.2626    0.1013    1.6573 C   0  0  0  0  0  0  0  0  0  0  0  0
    0.8679   -0.5024    0.3797 C   0  0  0  0  0  3  0  0  0  0  0  0
    2.0972   -0.9681   -0.4200 C   0  0  0  0  0  0  0  0  0  0  0  0
   -0.0825   -1.6017    0.5814 C   0  0  0  0  0  0  0  0  0  0  0  0
   -0.8460   -2.5121    0.7187 C   0  0  0  0  0  0  0  0  0  0  0  0
    1.9248    1.0461    3.6001 H   0  0  0  0  0  0  0  0  0  0  0  0
    2.7683   -0.1269   -0.5907 H   0  0  0  0  0  0  0  0  0  0  0  0
    2.6341   -1.7397    0.1302 H   0  0  0  0  0  0  0  0  0  0  0  0
    1.7818   -1.3759   -1.3798 H   0  0  0  0  0  0  0  0  0  0  0  0
   -1.5249   -3.3216    0.8407 H   0  0  0  0  0  0  0  0  0  0  0  0
   -1.2354    0.7789   -3.1461 C   0  0  0  0  0  0  0  0  0  0  0  0
   -1.2354    0.7789   -1.9484 C   0  0  0  0  0  0  0  0  0  0  0  0
   -1.2354    0.8071   -0.4893 C   0  0  0  0  0  0  0  0  0  0  0  0
   -1.2353    2.2285    0.0763 C   0  0  0  0  0  0  0  0  0  0  0  0
   -1.2354    0.7789   -4.2094 H   0  0  0  0  0  0  0  0  0  0  0  0
   -0.1848    0.1530   -0.0552 H   0  0  0  0  0  0  0  0  0  0  0  0
   -2.1109    0.2621   -0.1276 H   0  0  0  0  0  0  0  0  0  0  0  0
   -2.1176    2.7764   -0.2551 H   0  0  0  0  0  0  0  0  0  0  0  0
   -1.2354    2.2012    1.1666 H   0  0  0  0  0  0  0  0  0  0  0  0
   -0.3531    2.7764   -0.2551 H   0  0  0  0  0  0  0  0  0  0  0  0
  1  2  3  0
  1  7  1  0
  2  3  1  0
  3  4  1  0
  3  5  1  0
  4  8  1  0
  4  9  1  0
  4 10  1  0
  5  6  3  0
  6 11  1  0
 12 13  3  0
 12 16  1  0
 13 14  1  0
 14 15  1  0
 14 17  1  0
 14 18  1  0
 15 19  1  0
 15 20  1  0
 15 21  1  0
M  RAD  1   3   2
M  END
>  <reaction>  (7) 
rxn_1270

>  <mol_properties>  (7) 
{"1": {"label": "*0", "atom_type": "Ct"}, "2": {"label": "*1", "atom_type": "Cs"}, "12": {"label": "*4", "atom_type": "Ct"}, "13": {"label": "*3", "atom_type": "Cs"}, "16": {"label": "*2", "atom_type": "H0"}}

>  <type>  (7) 
unop_3

>  <geom_source>  (7) 
Heuristics

$$$$

     RDKit          3D

 21 19  0  0  0  0  0  0  0  0999 V2000
    0.3810   -2.9545   -0.2562 C   0  0  0  0  0  0  0  0  0  0  0  0
    0.4954   -1.8288    0.1319 C   0  0  0  0  0  0  0  0  0  0  0  0
    0.6011   -0.4521    0.6277 C   0  0  0  0  0  3  0  0  0  0  0  0
   -0.1535   -0.2792    1.9574 C   0  0  0  0  0  0  0  0  0  0  0  0
    2.0028   -0.0381    0.7544 C   0  0  0  0  0  0  0  0  0  0  0  0
    3.1371    0.3197    0.8819 C   0  0  0  0  0  0  0  0  0  0  0  0
    0.2793   -3.9553   -0.6012 H   0  0  0  0  0  0  0  0  0  0  0  0
   -1.1995   -0.5551    1.8282 H   0  0  0  0  0  0  0  0  0  0  0  0
    0.2854   -0.9154    2.7249 H   0  0  0  0  0  0  0  0  0  0  0  0
   -0.0939    0.7583    2.2847 H   0  0  0  0  0  0  0  0  0  0  0  0
    4.1455    0.6377    0.9953 H   0  0  0  0  0  0  0  0  0  0  0  0
   -1.5022    0.8292   -2.8982 C   0  0  0  0  0  0  0  0  0  0  0  0
   -1.5022    0.8292   -1.7005 C   0  0  0  0  0  0  0  0  0  0  0  0
   -1.5022    0.8574   -0.2413 C   0  0  0  0  0  0  0  0  0  0  0  0
   -1.5022    2.2788    0.3243 C   0  0  0  0  0  0  0  0  0  0  0  0
   -1.5022    0.8292   -3.9615 H   0  0  0  0  0  0  0  0  0  0  0  0
   -0.4516    0.2033    0.1927 H   0  0  0  0  0  0  0  0  0  0  0  0
   -2.3777    0.3123    0.1204 H   0  0  0  0  0  0  0  0  0  0  0  0
   -2.3844    2.8267   -0.0072 H   0  0  0  0  0  0  0  0  0  0  0  0
   -1.5022    2.2515    1.4146 H   0  0  0  0  0  0  0  0  0  0  0  0
   -0.6199    2.8266   -0.0072 H   0  0  0  0  0  0  0  0  0  0  0  0
  1  2  3  0
  1  7  1  0
  2  3  1  0
  3  4  1  0
  3  5  1  0
  4  8  1  0
  4  9  1  0
  4 10  1  0
  5  6  3  0
  6 11  1  0
 12 13  3  0
 12 16  1  0
 13 14  1  0
 14 15  1  0
 14 17  1  0
 14 18  1  0
 15 19  1  0
 15 20  1  0
 15 21  1  0
M  RAD  1   3   2
M  END
>  <reaction>  (8) 
rxn_1270

>  <mol_properties>  (8) 
{"1": {"label": "*0", "atom_type": "Ct"}, "2": {"label": "*1", "atom_type": "Cs"}, "12": {"label": "*4", "atom_type": "Ct"}, "13": {"label": "*3", "atom_type": "Cs"}, "16": {"label": "*2", "atom_type": "H0"}}

>  <type>  (8) 
unop_4

>  <geom_source>  (8) 
Heuristics

$$$$

     RDKit          3D

 21 19  0  0  0  0  0  0  0  0999 V2000
    0.7136   -0.3016    3.1489 C   0  0  0  0  0  0  0  0  0  0  0  0
    0.7196   -0.3671    1.9546 C   0  0  0  0  0  0  0  0  0  0  0  0
    0.7493   -0.4142    0.4885 C   0  0  0  0  0  3  0  0  0  0  0  0
    2.0072    0.2771   -0.0659 C   0  0  0  0  0  0  0  0  0  0  0  0
    0.6405   -1.7925   -0.0021 C   0  0  0  0  0  0  0  0  0  0  0  0
    0.5690   -2.9078   -0.4285 C   0  0  0  0  0  0  0  0  0  0  0  0
    0.7083   -0.2434    4.2108 H   0  0  0  0  0  0  0  0  0  0  0  0
    2.0451    1.3095    0.2800 H   0  0  0  0  0  0  0  0  0  0  0  0
    2.9027   -0.2408    0.2752 H   0  0  0  0  0  0  0  0  0  0  0  0
    1.9871    0.2641   -1.1551 H   0  0  0  0  0  0  0  0  0  0  0  0
    0.5055   -3.8993   -0.8077 H   0  0  0  0  0  0  0  0  0  0  0  0
   -1.3540    0.8671   -3.0373 C   0  0  0  0  0  0  0  0  0  0  0  0
   -1.3540    0.8671   -1.8396 C   0  0  0  0  0  0  0  0  0  0  0  0
   -1.3540    0.8953   -0.3804 C   0  0  0  0  0  0  0  0  0  0  0  0
   -1.3540    2.3167    0.1852 C   0  0  0  0  0  0  0  0  0  0  0  0
   -1.3540    0.8671   -4.1006 H   0  0  0  0  0  0  0  0  0  0  0  0
   -0.3034    0.2412    0.0536 H   0  0  0  0  0  0  0  0  0  0  0  0
   -2.2295    0.3503   -0.0187 H   0  0  0  0  0  0  0  0  0  0  0  0
   -2.2362    2.8646   -0.1463 H   0  0  0  0  0  0  0  0  0  0  0  0
   -1.3540    2.2894    1.2755 H   0  0  0  0  0  0  0  0  0  0  0  0
   -0.4717    2.8645   -0.1463 H   0  0  0  0  0  0  0  0  0  0  0  0
  1  2  3  0
  1  7  1  0
  2  3  1  0
  3  4  1  0
  3  5  1  0
  4  8  1  0
  4  9  1  0
  4 10  1  0
  5  6  3  0
  6 11  1  0
 12 13  3  0
 12 16  1  0
 13 14  1  0
 14 15  1  0
 14 17  1  0
 14 18  1  0
 15 19  1  0
 15 20  1  0
 15 21  1  0
M  RAD  1   3   2
M  END
>  <reaction>  (9) 
rxn_1270

>  <mol_properties>  (9) 
{"1": {"label": "*0", "atom_type": "Ct"}, "2": {"label": "*1", "atom_type": "Cs"}, "12": {"label": "*4", "atom_type": "Ct"}, "13": {"label": "*3", "atom_type": "Cs"}, "16": {"label": "*2", "atom_type": "H0"}}

>  <type>  (9) 
unop_5

>  <geom_source>  (9) 
Heuristics

$$$$

     RDKit          3D

 21 19  0  0  0  0  0  0  0  0999 V2000
   -0.1101   -2.9857    0.8762 C   0  0  0  0  0  0  0  0  0  0  0  0
    0.2378   -1.8518    0.7208 C   0  0  0  0  0  0  0  0  0  0  0  0
    0.6338   -0.4492    0.5529 C   0  0  0  0  0  3  0  0  0  0  0  0
    0.1613    0.4090    1.7394 C   0  0  0  0  0  0  0  0  0  0  0  0
    2.0816   -0.3253    0.3508 C   0  0  0  0  0  0  0  0  0  0  0  0
    3.2609   -0.1947    0.1996 C   0  0  0  0  0  0  0  0  0  0  0  0
   -0.4194   -3.9938    1.0143 H   0  0  0  0  0  0  0  0  0  0  0  0
   -0.9203    0.3317    1.8448 H   0  0  0  0  0  0  0  0  0  0  0  0
    0.6295    0.0671    2.6615 H   0  0  0  0  0  0  0  0  0  0  0  0
    0.4320    1.4513    1.5734 H   0  0  0  0  0  0  0  0  0  0  0  0
    4.3095   -0.0786    0.0653 H   0  0  0  0  0  0  0  0  0  0  0  0
   -1.4695    0.8321   -2.9729 C   0  0  0  0  0  0  0  0  0  0  0  0
   -1.4695    0.8321   -1.7752 C   0  0  0  0  0  0  0  0  0  0  0  0
   -1.4695    0.8603   -0.3160 C   0  0  0  0  0  0  0  0  0  0  0  0
   -1.4695    2.2817    0.2496 C   0  0  0  0  0  0  0  0  0  0  0  0
   -1.4695    0.8321   -4.0362 H   0  0  0  0  0  0  0  0  0  0  0  0
   -0.4189    0.2062    0.1180 H   0  0  0  0  0  0  0  0  0  0  0  0
   -2.3450    0.3152    0.0457 H   0  0  0  0  0  0  0  0  0  0  0  0
   -2.3517    2.8295   -0.0819 H   0  0  0  0  0  0  0  0  0  0  0  0
   -1.4695    2.2544    1.3399 H   0  0  0  0  0  0  0  0  0  0  0  0
   -0.5872    2.8295   -0.0819 H   0  0  0  0  0  0  0  0  0  0  0  0
  1  2  3  0
  1  7  1  0
  2  3  1  0
  3  4  1  0
  3  5  1  0
  4  8  1  0
  4  9  1  0
  4 10  1  0
  5  6  3  0
  6 11  1  0
 12 13  3  0
 12 16  1  0
 13 14  1  0
 14 15  1  0
 14 17  1  0
 14 18  1  0
 15 19  1  0
 15 20  1  0
 15 21  1  0
M  RAD  1   3   2
M  END
>  <reaction>  (10) 
rxn_1270

>  <mol_properties>  (10) 
{"1": {"label": "*0", "atom_type": "Ct"}, "2": {"label": "*1", "atom_type": "Cs"}, "12": {"label": "*4", "atom_type": "Ct"}, "13": {"label": "*3", "atom_type": "Cs"}, "16": {"label": "*2", "atom_type": "H0"}}

>  <type>  (10) 
unop_6

>  <geom_source>  (10) 
Heuristics

$$$$

     RDKit          3D

 21 19  0  0  0  0  0  0  0  0999 V2000
   -0.2662   -2.4693    2.0324 C   0  0  0  0  0  0  0  0  0  0  0  0
    0.1475   -1.5846    1.3418 C   0  0  0  0  0  0  0  0  0  0  0  0
    0.6336   -0.4734    0.5164 C   0  0  0  0  0  3  0  0  0  0  0  0
    0.6291    0.8489    1.3034 C   0  0  0  0  0  0  0  0  0  0  0  0
    1.9634   -0.7603   -0.0328 C   0  0  0  0  0  0  0  0  0  0  0  0
    3.0540   -0.9622   -0.4808 C   0  0  0  0  0  0  0  0  0  0  0  0
   -0.6340   -3.2558    2.6464 H   0  0  0  0  0  0  0  0  0  0  0  0
   -0.3760    1.0598    1.6672 H   0  0  0  0  0  0  0  0  0  0  0  0
    1.3043    0.7822    2.1555 H   0  0  0  0  0  0  0  0  0  0  0  0
    0.9559    1.6643    0.6590 H   0  0  0  0  0  0  0  0  0  0  0  0
    4.0236   -1.1417   -0.8790 H   0  0  0  0  0  0  0  0  0  0  0  0
   -1.4696    0.8079   -3.0094 C   0  0  0  0  0  0  0  0  0  0  0  0
   -1.4696    0.8079   -1.8117 C   0  0  0  0  0  0  0  0  0  0  0  0
   -1.4696    0.8362   -0.3525 C   0  0  0  0  0  0  0  0  0  0  0  0
   -1.4696    2.2575    0.2131 C   0  0  0  0  0  0  0  0  0  0  0  0
   -1.4696    0.8079   -4.0727 H   0  0  0  0  0  0  0  0  0  0  0  0
   -0.4190    0.1820    0.0815 H   0  0  0  0  0  0  0  0  0  0  0  0
   -2.3451    0.2911    0.0092 H   0  0  0  0  0  0  0  0  0  0  0  0
   -2.3518    2.8054   -0.1184 H   0  0  0  0  0  0  0  0  0  0  0  0
   -1.4696    2.2302    1.3034 H   0  0  0  0  0  0  0  0  0  0  0  0
   -0.5874    2.8054   -0.1184 H   0  0  0  0  0  0  0  0  0  0  0  0
  1  2  3  0
  1  7  1  0
  2  3  1  0
  3  4  1  0
  3  5  1  0
  4  8  1  0
  4  9  1  0
  4 10  1  0
  5  6  3  0
  6 11  1  0
 12 13  3  0
 12 16  1  0
 13 14  1  0
 14 15  1  0
 14 17  1  0
 14 18  1  0
 15 19  1  0
 15 20  1  0
 15 21  1  0
M  RAD  1   3   2
M  END
>  <reaction>  (11) 
rxn_1270

>  <mol_properties>  (11) 
{"1": {"label": "*0", "atom_type": "Ct"}, "2": {"label": "*1", "atom_type": "Cs"}, "12": {"label": "*4", "atom_type": "Ct"}, "13": {"label": "*3", "atom_type": "Cs"}, "16": {"label": "*2", "atom_type": "H0"}}

>  <type>  (11) 
unop_7

>  <geom_source>  (11) 
Heuristics

$$$$

     RDKit          3D

 21 19  0  0  0  0  0  0  0  0999 V2000
    2.7642    0.9189    0.5672 C   0  0  0  0  0  0  0  0  0  0  0  0
    1.8501    0.1519    0.4844 C   0  0  0  0  0  0  0  0  0  0  0  0
    0.7525   -0.8139    0.3624 C   0  0  0  0  0  3  0  0  0  0  0  0
    1.2872   -2.2480    0.2037 C   0  0  0  0  0  0  0  0  0  0  0  0
   -0.1728   -0.7143    1.4965 C   0  0  0  0  0  0  0  0  0  0  0  0
   -0.9343   -0.6647    2.4176 C   0  0  0  0  0  0  0  0  0  0  0  0
    3.5769    1.6008    0.6407 H   0  0  0  0  0  0  0  0  0  0  0  0
    1.9399   -2.3056   -0.6667 H   0  0  0  0  0  0  0  0  0  0  0  0
    1.8537   -2.5386    1.0875 H   0  0  0  0  0  0  0  0  0  0  0  0
    0.4562   -2.9409    0.0756 H   0  0  0  0  0  0  0  0  0  0  0  0
   -1.6114   -0.6206    3.2365 H   0  0  0  0  0  0  0  0  0  0  0  0
   -1.3507    0.4673   -3.1634 C   0  0  0  0  0  0  0  0  0  0  0  0
   -1.3507    0.4673   -1.9657 C   0  0  0  0  0  0  0  0  0  0  0  0
   -1.3507    0.4956   -0.5066 C   0  0  0  0  0  0  0  0  0  0  0  0
   -1.3507    1.9169    0.0590 C   0  0  0  0  0  0  0  0  0  0  0  0
   -1.3507    0.4673   -4.2267 H   0  0  0  0  0  0  0  0  0  0  0  0
   -0.3001   -0.1585   -0.0725 H   0  0  0  0  0  0  0  0  0  0  0  0
   -2.2262   -0.0495   -0.1449 H   0  0  0  0  0  0  0  0  0  0  0  0
   -2.2329    2.4648   -0.2724 H   0  0  0  0  0  0  0  0  0  0  0  0
   -1.3507    1.8896    1.1493 H   0  0  0  0  0  0  0  0  0  0  0  0
   -0.4685    2.4648   -0.2724 H   0  0  0  0  0  0  0  0  0  0  0  0
  1  2  3  0
  1  7  1  0
  2  3  1  0
  3  4  1  0
  3  5  1  0
  4  8  1  0
  4  9  1  0
  4 10  1  0
  5  6  3  0
  6 11  1  0
 12 13  3  0
 12 16  1  0
 13 14  1  0
 14 15  1  0
 14 17  1  0
 14 18  1  0
 15 19  1  0
 15 20  1  0
 15 21  1  0
M  RAD  1   3   2
M  END
>  <reaction>  (12) 
rxn_1270

>  <mol_properties>  (12) 
{"1": {"label": "*0", "atom_type": "Ct"}, "2": {"label": "*1", "atom_type": "Cs"}, "12": {"label": "*4", "atom_type": "Ct"}, "13": {"label": "*3", "atom_type": "Cs"}, "16": {"label": "*2", "atom_type": "H0"}}

>  <type>  (12) 
unop_8

>  <geom_source>  (12) 
Heuristics

$$$$

     RDKit          3D

 21 19  0  0  0  0  0  0  0  0999 V2000
    1.0717   -2.4354   -1.0886 C   0  0  0  0  0  0  0  0  0  0  0  0
    0.8475   -1.5703   -0.2936 C   0  0  0  0  0  0  0  0  0  0  0  0
    0.5405   -0.5298    0.6941 C   0  0  0  0  0  3  0  0  0  0  0  0
   -0.2307   -1.1094    1.8928 C   0  0  0  0  0  0  0  0  0  0  0  0
    1.7566    0.1652    1.1305 C   0  0  0  0  0  0  0  0  0  0  0  0
    2.7339    0.7377    1.5151 C   0  0  0  0  0  0  0  0  0  0  0  0
    1.2711   -3.2046   -1.7954 H   0  0  0  0  0  0  0  0  0  0  0  0
   -1.1480   -1.5854    1.5477 H   0  0  0  0  0  0  0  0  0  0  0  0
    0.3775   -1.8513    2.4086 H   0  0  0  0  0  0  0  0  0  0  0  0
   -0.4812   -0.3125    2.5922 H   0  0  0  0  0  0  0  0  0  0  0  0
    3.6028    1.2466    1.8571 H   0  0  0  0  0  0  0  0  0  0  0  0
   -1.5627    0.7515   -2.8318 C   0  0  0  0  0  0  0  0  0  0  0  0
   -1.5627    0.7515   -1.6340 C   0  0  0  0  0  0  0  0  0  0  0  0
   -1.5627    0.7797   -0.1749 C   0  0  0  0  0  0  0  0  0  0  0  0
   -1.5627    2.2011    0.3907 C   0  0  0  0  0  0  0  0  0  0  0  0
   -1.5627    0.7515   -3.8951 H   0  0  0  0  0  0  0  0  0  0  0  0
   -0.5121    0.1256    0.2592 H   0  0  0  0  0  0  0  0  0  0  0  0
   -2.4383    0.2346    0.1868 H   0  0  0  0  0  0  0  0  0  0  0  0
   -2.4450    2.7489    0.0592 H   0  0  0  0  0  0  0  0  0  0  0  0
   -1.5627    2.1738    1.4810 H   0  0  0  0  0  0  0  0  0  0  0  0
   -0.6805    2.7489    0.0592 H   0  0  0  0  0  0  0  0  0  0  0  0
  1  2  3  0
  1  7  1  0
  2  3  1  0
  3  4  1  0
  3  5  1  0
  4  8  1  0
  4  9  1  0
  4 10  1  0
  5  6  3  0
  6 11  1  0
 12 13  3  0
 12 16  1  0
 13 14  1  0
 14 15  1  0
 14 17  1  0
 14 18  1  0
 15 19  1  0
 15 20  1  0
 15 21  1  0
M  RAD  1   3   2
M  END
>  <reaction>  (13) 
rxn_1270

>  <mol_properties>  (13) 
{"1": {"label": "*0", "atom_type": "Ct"}, "2": {"label": "*1", "atom_type": "Cs"}, "12": {"label": "*4", "atom_type": "Ct"}, "13": {"label": "*3", "atom_type": "Cs"}, "16": {"label": "*2", "atom_type": "H0"}}

>  <type>  (13) 
unop_9

>  <geom_source>  (13) 
Heuristics

$$$$

     RDKit          3D

 21 19  0  0  0  0  0  0  0  0999 V2000
    2.7969    0.3260   -0.5163 C   0  0  0  0  0  0  0  0  0  0  0  0
    1.8191   -0.1956   -0.0662 C   0  0  0  0  0  0  0  0  0  0  0  0
    0.6313   -0.8700    0.4693 C   0  0  0  0  0  3  0  0  0  0  0  0
    0.8843   -2.3756    0.6611 C   0  0  0  0  0  0  0  0  0  0  0  0
    0.1807   -0.2437    1.7171 C   0  0  0  0  0  0  0  0  0  0  0  0
   -0.1986    0.2381    2.7441 C   0  0  0  0  0  0  0  0  0  0  0  0
    3.6661    0.7898   -0.9166 H   0  0  0  0  0  0  0  0  0  0  0  0
    1.1792   -2.8252   -0.2865 H   0  0  0  0  0  0  0  0  0  0  0  0
    1.6800   -2.5342    1.3878 H   0  0  0  0  0  0  0  0  0  0  0  0
   -0.0225   -2.8605    1.0214 H   0  0  0  0  0  0  0  0  0  0  0  0
   -0.5359    0.6664    3.6572 H   0  0  0  0  0  0  0  0  0  0  0  0
   -1.4720    0.4112   -3.0565 C   0  0  0  0  0  0  0  0  0  0  0  0
   -1.4720    0.4112   -1.8588 C   0  0  0  0  0  0  0  0  0  0  0  0
   -1.4720    0.4395   -0.3997 C   0  0  0  0  0  0  0  0  0  0  0  0
   -1.4719    1.8608    0.1659 C   0  0  0  0  0  0  0  0  0  0  0  0
   -1.4720    0.4112   -4.1198 H   0  0  0  0  0  0  0  0  0  0  0  0
   -0.4214   -0.2146    0.0344 H   0  0  0  0  0  0  0  0  0  0  0  0
   -2.3475   -0.1056   -0.0380 H   0  0  0  0  0  0  0  0  0  0  0  0
   -2.3542    2.4087   -0.1655 H   0  0  0  0  0  0  0  0  0  0  0  0
   -1.4719    1.8336    1.2562 H   0  0  0  0  0  0  0  0  0  0  0  0
   -0.5897    2.4087   -0.1655 H   0  0  0  0  0  0  0  0  0  0  0  0
  1  2  3  0
  1  7  1  0
  2  3  1  0
  3  4  1  0
  3  5  1  0
  4  8  1  0
  4  9  1  0
  4 10  1  0
  5  6  3  0
  6 11  1  0
 12 13  3  0
 12 16  1  0
 13 14  1  0
 14 15  1  0
 14 17  1  0
 14 18  1  0
 15 19  1  0
 15 20  1  0
 15 21  1  0
M  RAD  1   3   2
M  END
>  <reaction>  (14) 
rxn_1270

>  <mol_properties>  (14) 
{"1": {"label": "*0", "atom_type": "Ct"}, "2": {"label": "*1", "atom_type": "Cs"}, "12": {"label": "*4", "atom_type": "Ct"}, "13": {"label": "*3", "atom_type": "Cs"}, "16": {"label": "*2", "atom_type": "H0"}}

>  <type>  (14) 
unop_10

>  <geom_source>  (14) 
Heuristics

$$$$

     RDKit          3D

 21 19  0  0  0  0  0  0  0  0999 V2000
    0.0014   -1.4840    2.8941 C   0  0  0  0  0  0  0  0  0  0  0  0
    0.2913   -1.0408    1.8216 C   0  0  0  0  0  0  0  0  0  0  0  0
    0.6434   -0.4602    0.5211 C   0  0  0  0  0  3  0  0  0  0  0  0
    1.2786    0.9316    0.6857 C   0  0  0  0  0  0  0  0  0  0  0  0
    1.5184   -1.3565   -0.2427 C   0  0  0  0  0  0  0  0  0  0  0  0
    2.2449   -2.0613   -0.8801 C   0  0  0  0  0  0  0  0  0  0  0  0
   -0.2563   -1.8780    3.8477 H   0  0  0  0  0  0  0  0  0  0  0  0
    0.5947    1.5897    1.2208 H   0  0  0  0  0  0  0  0  0  0  0  0
    2.2077    0.8572    1.2494 H   0  0  0  0  0  0  0  0  0  0  0  0
    1.4947    1.3581   -0.2933 H   0  0  0  0  0  0  0  0  0  0  0  0
    2.8908   -2.6879   -1.4468 H   0  0  0  0  0  0  0  0  0  0  0  0
   -1.4598    0.8211   -3.0047 C   0  0  0  0  0  0  0  0  0  0  0  0
   -1.4598    0.8211   -1.8070 C   0  0  0  0  0  0  0  0  0  0  0  0
   -1.4598    0.8493   -0.3478 C   0  0  0  0  0  0  0  0  0  0  0  0
   -1.4598    2.2707    0.2178 C   0  0  0  0  0  0  0  0  0  0  0  0
   -1.4598    0.8211   -4.0680 H   0  0  0  0  0  0  0  0  0  0  0  0
   -0.4092    0.1952    0.0862 H   0  0  0  0  0  0  0  0  0  0  0  0
   -2.3353    0.3043    0.0139 H   0  0  0  0  0  0  0  0  0  0  0  0
   -2.3420    2.8186   -0.1137 H   0  0  0  0  0  0  0  0  0  0  0  0
   -1.4598    2.2434    1.3080 H   0  0  0  0  0  0  0  0  0  0  0  0
   -0.5776    2.8186   -0.1137 H   0  0  0  0  0  0  0  0  0  0  0  0
  1  2  3  0
  1  7  1  0
  2  3  1  0
  3  4  1  0
  3  5  1  0
  4  8  1  0
  4  9  1  0
  4 10  1  0
  5  6  3  0
  6 11  1  0
 12 13  3  0
 12 16  1  0
 13 14  1  0
 14 15  1  0
 14 17  1  0
 14 18  1  0
 15 19  1  0
 15 20  1  0
 15 21  1  0
M  RAD  1   3   2
M  END
>  <reaction>  (15) 
rxn_1270

>  <mol_properties>  (15) 
{"1": {"label": "*0", "atom_type": "Ct"}, "2": {"label": "*1", "atom_type": "Cs"}, "12": {"label": "*4", "atom_type": "Ct"}, "13": {"label": "*3", "atom_type": "Cs"}, "16": {"label": "*2", "atom_type": "H0"}}

>  <type>  (15) 
unop_11

>  <geom_source>  (15) 
Heuristics

$$$$

     RDKit          3D

 21 19  0  0  0  0  0  0  0  0999 V2000
    1.8114   -1.5851   -1.4423 C   0  0  0  0  0  0  0  0  0  0  0  0
    1.2321   -1.1627   -0.4848 C   0  0  0  0  0  0  0  0  0  0  0  0
    0.5007   -0.6788    0.6913 C   0  0  0  0  0  3  0  0  0  0  0  0
    0.0109   -1.8483    1.5631 C   0  0  0  0  0  0  0  0  0  0  0  0
    1.3111    0.2627    1.4718 C   0  0  0  0  0  0  0  0  0  0  0  0
    1.9559    1.0210    2.1352 C   0  0  0  0  0  0  0  0  0  0  0  0
    2.3264   -1.9607   -2.2935 H   0  0  0  0  0  0  0  0  0  0  0  0
   -0.6199   -2.5116    0.9723 H   0  0  0  0  0  0  0  0  0  0  0  0
    0.8594   -2.4162    1.9425 H   0  0  0  0  0  0  0  0  0  0  0  0
   -0.5619   -1.4661    2.4074 H   0  0  0  0  0  0  0  0  0  0  0  0
    2.5292    1.6952    2.7249 H   0  0  0  0  0  0  0  0  0  0  0  0
   -1.6025    0.6025   -2.8345 C   0  0  0  0  0  0  0  0  0  0  0  0
   -1.6025    0.6025   -1.6368 C   0  0  0  0  0  0  0  0  0  0  0  0
   -1.6025    0.6307   -0.1776 C   0  0  0  0  0  0  0  0  0  0  0  0
   -1.6025    2.0521    0.3880 C   0  0  0  0  0  0  0  0  0  0  0  0
   -1.6025    0.6025   -3.8978 H   0  0  0  0  0  0  0  0  0  0  0  0
   -0.5519   -0.0234    0.2564 H   0  0  0  0  0  0  0  0  0  0  0  0
   -2.4780    0.0857    0.1841 H   0  0  0  0  0  0  0  0  0  0  0  0
   -2.4847    2.6000    0.0565 H   0  0  0  0  0  0  0  0  0  0  0  0
   -1.6025    2.0248    1.4783 H   0  0  0  0  0  0  0  0  0  0  0  0
   -0.7203    2.5999    0.0565 H   0  0  0  0  0  0  0  0  0  0  0  0
  1  2  3  0
  1  7  1  0
  2  3  1  0
  3  4  1  0
  3  5  1  0
  4  8  1  0
  4  9  1  0
  4 10  1  0
  5  6  3  0
  6 11  1  0
 12 13  3  0
 12 16  1  0
 13 14  1  0
 14 15  1  0
 14 17  1  0
 14 18  1  0
 15 19  1  0
 15 20  1  0
 15 21  1  0
M  RAD  1   3   2
M  END
>  <reaction>  (16) 
rxn_1270

>  <mol_properties>  (16) 
{"1": {"label": "*0", "atom_type": "Ct"}, "2": {"label": "*1", "atom_type": "Cs"}, "12": {"label": "*4", "atom_type": "Ct"}, "13": {"label": "*3", "atom_type": "Cs"}, "16": {"label": "*2", "atom_type": "H0"}}

>  <type>  (16) 
unop_12

>  <geom_source>  (16) 
Heuristics

$$$$

     RDKit          3D

 21 19  0  0  0  0  0  0  0  0999 V2000
    1.1157   -0.1009    0.1153 C   0  0  0  0  0  0  0  0  0  0  0  0
    1.5888   -1.1260   -0.9129 C   0  0  0  0  0  0  0  0  0  0  0  0
   -2.2877   -1.0450    0.1760 C   0  0  0  0  0  0  0  0  0  0  0  0
   -1.3939   -0.1107   -0.6265 C   0  0  0  0  0  3  0  0  0  0  0  0
    1.3791   -0.5831    1.4767 C   0  0  0  0  0  0  0  0  0  0  0  0
    1.8012    1.1812   -0.0879 C   0  0  0  0  0  0  0  0  0  0  0  0
   -1.8926    1.2674   -0.5634 C   0  0  0  0  0  0  0  0  0  0  0  0
    1.5937   -0.9799    2.5950 C   0  0  0  0  0  0  0  0  0  0  0  0
    2.3630    2.2349   -0.2561 C   0  0  0  0  0  0  0  0  0  0  0  0
   -2.3016    2.4004   -0.5120 C   0  0  0  0  0  0  0  0  0  0  0  0
   -0.1791    0.0833   -0.0262 H   0  0  0  0  0  0  0  0  0  0  0  0
    2.6825   -1.3057   -0.8204 H   0  0  0  0  0  0  0  0  0  0  0  0
    1.0521   -2.0876   -0.7649 H   0  0  0  0  0  0  0  0  0  0  0  0
    1.3691   -0.7629   -1.9397 H   0  0  0  0  0  0  0  0  0  0  0  0
   -3.3203   -1.0428   -0.2348 H   0  0  0  0  0  0  0  0  0  0  0  0
   -1.8823   -2.0767    0.1204 H   0  0  0  0  0  0  0  0  0  0  0  0
   -2.3117   -0.7310    1.2413 H   0  0  0  0  0  0  0  0  0  0  0  0
   -1.3535   -0.4409   -1.6859 H   0  0  0  0  0  0  0  0  0  0  0  0
    1.7822   -1.3282    3.5764 H   0  0  0  0  0  0  0  0  0  0  0  0
    2.8561    3.1596   -0.4037 H   0  0  0  0  0  0  0  0  0  0  0  0
   -2.6608    3.3948   -0.4667 H   0  0  0  0  0  0  0  0  0  0  0  0
  1  2  1  0
  1  5  1  0
  1  6  1  0
  1 11  1  0
  2 12  1  0
  2 13  1  0
  2 14  1  0
  3  4  1  0
  3 15  1  0
  3 16  1  0
  3 17  1  0
  4  7  1  0
  4 18  1  0
  5  8  3  0
  6  9  3  0
  7 10  3  0
  8 19  1  0
  9 20  1  0
 10 21  1  0
M  RAD  1   4   2
M  END
>  <reaction>  (17) 
rxn_1270

>  <mol_properties>  (17) 
{"1": {"label": "*0", "atom_type": "Ct"}, "2": {"label": "*1", "atom_type": "Cs"}, "12": {"label": "*4", "atom_type": "Ct"}, "13": {"label": "*3", "atom_type": "Cs"}, "16": {"label": "*2", "atom_type": "H0"}}

>  <type>  (17) 
unop_13

>  <geom_source>  (17) 
AutoTST

$$$$
