
     RDKit          3D

  9  8  0  0  0  0  0  0  0  0999 V2000
   -2.1022   -0.6873    0.3932 C   0  0  0  0  0  0  0  0  0  0  0  0
   -1.2072   -0.1086   -0.1482 C   0  0  0  0  0  0  0  0  0  0  0  0
   -0.1242    0.6105   -0.8193 C   0  0  0  0  0  0  0  0  0  0  0  0
    1.2067    0.1106   -0.4741 C   0  0  0  0  0  0  0  0  0  0  0  0
    2.3005   -0.2875   -0.2012 C   0  0  0  0  0  0  0  0  0  0  0  0
   -2.8942   -1.2059    0.8778 H   0  0  0  0  0  0  0  0  0  0  0  0
   -0.1862    1.6723   -0.5649 H   0  0  0  0  0  0  0  0  0  0  0  0
   -0.2641    0.5418   -1.9017 H   0  0  0  0  0  0  0  0  0  0  0  0
    3.2709   -0.6459    0.0455 H   0  0  0  0  0  0  0  0  0  0  0  0
  1  2  3  0
  1  6  1  0
  2  3  1  0
  3  4  1  0
  3  7  1  0
  3  8  1  0
  4  5  3  0
  5  9  1  0
M  END
>  <reaction>  (1) 
rxn_1386

>  <mol_properties>  (1) 
{"2": {"label": "donator", "atom_type": "Cs"}, "6": {"label": "d_hydrogen", "atom_type": "H0"}}

>  <type>  (1) 
r1h

$$$$

     RDKit          3D

  4  3  0  0  0  0  0  0  0  0999 V2000
   -0.7528   -0.8706   -0.3839 S   0  0  0  0  0  0  0  0  0  0  0  0
    0.7502   -0.2564   -0.0649 C   0  0  0  0  0  3  0  0  0  0  0  0
    1.5655    0.9691    0.4633 S   0  0  0  0  0  0  0  0  0  0  0  0
   -1.5629    0.1579   -0.0146 H   0  0  0  0  0  0  0  0  0  0  0  0
  1  2  1  0
  1  4  1  0
  2  3  2  0
M  RAD  1   2   2
M  END
>  <reaction>  (2) 
rxn_1386

>  <mol_properties>  (2) 
{"1": {"label": "acceptor", "atom_type": "CS"}}

>  <type>  (2) 
r2

$$$$

     RDKit          3D

  5  4  0  0  0  0  0  0  0  0999 V2000
    1.2280   -0.4626    0.1225 S   0  0  0  0  0  0  0  0  0  0  0  0
   -0.4732   -0.2566   -0.0746 C   0  0  0  0  0  0  0  0  0  0  0  0
   -1.3314    1.1074   -0.0947 S   0  0  0  0  0  0  0  0  0  0  0  0
    1.5289    0.8405    0.2416 H   0  0  0  0  0  0  0  0  0  0  0  0
   -0.9523   -1.2286   -0.1949 H   0  0  0  0  0  0  0  0  0  0  0  0
  1  2  1  0
  1  4  1  0
  2  3  2  0
  2  5  1  0
M  END
>  <reaction>  (3) 
rxn_1386

>  <mol_properties>  (3) 
{"0": {"label": "a_hydrogen", "atom_type": "H0"}, "2": {"label": "acceptor", "atom_type": "CS"}}

>  <type>  (3) 
r2h

$$$$

     RDKit          3D

 13 11  0  0  0  0  0  0  0  0999 V2000
   -0.9090   -1.1704   -3.0215 C   0  0  0  0  0  0  0  0  0  0  0  0
   -0.9125   -1.2984   -1.8288 C   0  0  0  0  0  0  0  0  0  0  0  0
   -0.8528   -1.4023   -0.3998 C   0  0  0  0  0  0  0  0  0  0  0  0
   -2.0522   -1.1623    0.3387 C   0  0  0  0  0  0  0  0  0  0  0  0
   -3.0150   -0.8993    1.0062 C   0  0  0  0  0  0  0  0  0  0  0  0
   -0.9231   -1.0692   -4.0800 H   0  0  0  0  0  0  0  0  0  0  0  0
   -0.0676   -0.4054   -0.0041 H   0  0  0  0  0  0  0  0  0  0  0  0
   -0.2947   -2.2716   -0.0518 H   0  0  0  0  0  0  0  0  0  0  0  0
   -3.8786   -0.6808    1.5869 H   0  0  0  0  0  0  0  0  0  0  0  0
    2.1087    0.7234   -0.4606 S   0  0  0  0  0  0  0  0  0  0  0  0
    0.6801    0.6818    0.4551 C   0  0  0  0  0  3  0  0  0  0  0  0
    0.0574    1.5598    1.6174 S   0  0  0  0  0  0  0  0  0  0  0  0
    2.6905    1.8016    0.1018 H   0  0  0  0  0  0  0  0  0  0  0  0
  1  2  3  0
  1  6  1  0
  2  3  1  0
  3  4  1  0
  3  7  1  0
  3  8  1  0
  4  5  3  0
  5  9  1  0
 10 11  1  0
 10 13  1  0
 11 12  2  0
M  RAD  1  11   2
M  END
>  <reaction>  (4) 
rxn_1386

>  <mol_properties>  (4) 
{"1": {"label": "*0", "atom_type": "Ct"}, "2": {"label": "*1", "atom_type": "Cs"}, "6": {"label": "*2", "atom_type": "H0"}, "9": {"label": "*4", "atom_type": "S2s"}, "10": {"label": "*3", "atom_type": "CS"}}

>  <type>  (4) 
ts

$$$$

     RDKit          3D

 13 11  0  0  0  0  0  0  0  0999 V2000
   -0.7500   -1.1716   -3.1898 C   0  0  0  0  0  0  0  0  0  0  0  0
   -0.7500   -1.1716   -1.9943 C   0  0  0  0  0  0  0  0  0  0  0  0
   -0.7500   -1.1716   -0.5313 C   0  0  0  0  0  3  0  0  0  0  0  0
   -2.0640   -0.8960    0.0498 C   0  0  0  0  0  0  0  0  0  0  0  0
   -3.1377   -0.6707    0.5247 C   0  0  0  0  0  0  0  0  0  0  0  0
   -0.7500   -1.1716   -4.2533 H   0  0  0  0  0  0  0  0  0  0  0  0
    0.1082   -0.2772   -0.1003 H   0  0  0  0  0  0  0  0  0  0  0  0
   -0.3946   -2.1414   -0.1721 H   0  0  0  0  0  0  0  0  0  0  0  0
   -4.0929   -0.4704    0.9472 H   0  0  0  0  0  0  0  0  0  0  0  0
    0.1484    1.7942    1.2880 S   0  0  0  0  0  0  0  0  0  0  0  0
    0.9637    0.6145    0.3295 C   0  0  0  0  0  0  0  0  0  0  0  0
    2.4135   -0.0505    0.5607 S   0  0  0  0  0  0  0  0  0  0  0  0
    1.1080    1.9285    2.2174 H   0  0  0  0  0  0  0  0  0  0  0  0
  1  2  3  0
  1  6  1  0
  2  3  1  0
  3  4  1  0
  3  8  1  0
  4  5  3  0
  5  9  1  0
  7 11  1  0
 10 11  1  0
 10 13  1  0
 11 12  2  0
M  RAD  1   3   2
M  END
>  <reaction>  (5) 
rxn_1386

>  <mol_properties>  (5) 
{"1": {"label": "*0", "atom_type": "Ct"}, "2": {"label": "*1", "atom_type": "Cs"}, "6": {"label": "*2", "atom_type": "H0"}, "9": {"label": "*4", "atom_type": "S2s"}, "10": {"label": "*3", "atom_type": "CS"}}

>  <type>  (5) 
unop_1

>  <geom_source>  (5) 
Heuristics

$$$$

     RDKit          3D

 13 11  0  0  0  0  0  0  0  0999 V2000
   -0.7367   -1.3478   -2.9984 C   0  0  0  0  0  0  0  0  0  0  0  0
   -0.7367   -1.3478   -1.8029 C   0  0  0  0  0  0  0  0  0  0  0  0
   -0.7367   -1.3478   -0.3399 C   0  0  0  0  0  3  0  0  0  0  0  0
   -2.0507   -1.0722    0.2412 C   0  0  0  0  0  0  0  0  0  0  0  0
   -3.1245   -0.8470    0.7161 C   0  0  0  0  0  0  0  0  0  0  0  0
   -0.7367   -1.3478   -4.0619 H   0  0  0  0  0  0  0  0  0  0  0  0
    0.1214   -0.4534    0.0911 H   0  0  0  0  0  0  0  0  0  0  0  0
   -0.3813   -2.3176    0.0192 H   0  0  0  0  0  0  0  0  0  0  0  0
   -4.0797   -0.6466    1.1386 H   0  0  0  0  0  0  0  0  0  0  0  0
    1.0941    1.7322   -0.6139 S   0  0  0  0  0  0  0  0  0  0  0  0
    0.9770    0.4383    0.5208 C   0  0  0  0  0  0  0  0  0  0  0  0
    1.4191    0.4087    2.0704 S   0  0  0  0  0  0  0  0  0  0  0  0
    1.6477    2.6233    0.2241 H   0  0  0  0  0  0  0  0  0  0  0  0
  1  2  3  0
  1  6  1  0
  2  3  1  0
  3  4  1  0
  3  8  1  0
  4  5  3  0
  5  9  1  0
  7 11  1  0
 10 11  1  0
 10 13  1  0
 11 12  2  0
M  RAD  1   3   2
M  END
>  <reaction>  (6) 
rxn_1386

>  <mol_properties>  (6) 
{"1": {"label": "*0", "atom_type": "Ct"}, "2": {"label": "*1", "atom_type": "Cs"}, "6": {"label": "*2", "atom_type": "H0"}, "9": {"label": "*4", "atom_type": "S2s"}, "10": {"label": "*3", "atom_type": "CS"}}

>  <type>  (6) 
unop_2

>  <geom_source>  (6) 
Heuristics

$$$$

     RDKit          3D

 13 11  0  0  0  0  0  0  0  0999 V2000
   -0.8315   -1.1637   -3.1343 C   0  0  0  0  0  0  0  0  0  0  0  0
   -0.8315   -1.1637   -1.9388 C   0  0  0  0  0  0  0  0  0  0  0  0
   -0.8315   -1.1637   -0.4758 C   0  0  0  0  0  3  0  0  0  0  0  0
   -2.1456   -0.8881    0.1053 C   0  0  0  0  0  0  0  0  0  0  0  0
   -3.2193   -0.6629    0.5802 C   0  0  0  0  0  0  0  0  0  0  0  0
   -0.8315   -1.1637   -4.1978 H   0  0  0  0  0  0  0  0  0  0  0  0
    0.0266   -0.2693   -0.0448 H   0  0  0  0  0  0  0  0  0  0  0  0
   -0.4762   -2.1335   -0.1166 H   0  0  0  0  0  0  0  0  0  0  0  0
   -4.1745   -0.4625    1.0027 H   0  0  0  0  0  0  0  0  0  0  0  0
    0.3603    1.2502    1.9044 S   0  0  0  0  0  0  0  0  0  0  0  0
    0.8821    0.6224    0.3849 C   0  0  0  0  0  0  0  0  0  0  0  0
    2.3806    0.4865   -0.1926 S   0  0  0  0  0  0  0  0  0  0  0  0
    1.5810    1.5535    2.3741 H   0  0  0  0  0  0  0  0  0  0  0  0
  1  2  3  0
  1  6  1  0
  2  3  1  0
  3  4  1  0
  3  8  1  0
  4  5  3  0
  5  9  1  0
  7 11  1  0
 10 11  1  0
 10 13  1  0
 11 12  2  0
M  RAD  1   3   2
M  END
>  <reaction>  (7) 
rxn_1386

>  <mol_properties>  (7) 
{"1": {"label": "*0", "atom_type": "Ct"}, "2": {"label": "*1", "atom_type": "Cs"}, "6": {"label": "*2", "atom_type": "H0"}, "9": {"label": "*4", "atom_type": "S2s"}, "10": {"label": "*3", "atom_type": "CS"}}

>  <type>  (7) 
unop_3

>  <geom_source>  (7) 
Heuristics

$$$$

     RDKit          3D

 13 11  0  0  0  0  0  0  0  0999 V2000
   -0.8821   -1.1226   -3.0921 C   0  0  0  0  0  0  0  0  0  0  0  0
   -0.8821   -1.1226   -1.8966 C   0  0  0  0  0  0  0  0  0  0  0  0
   -0.8821   -1.1226   -0.4336 C   0  0  0  0  0  3  0  0  0  0  0  0
   -2.1962   -0.8470    0.1476 C   0  0  0  0  0  0  0  0  0  0  0  0
   -3.2699   -0.6218    0.6225 C   0  0  0  0  0  0  0  0  0  0  0  0
   -0.8821   -1.1226   -4.1556 H   0  0  0  0  0  0  0  0  0  0  0  0
   -0.0240   -0.2282   -0.0026 H   0  0  0  0  0  0  0  0  0  0  0  0
   -0.5268   -2.0925   -0.0744 H   0  0  0  0  0  0  0  0  0  0  0  0
   -4.2251   -0.4215    1.0449 H   0  0  0  0  0  0  0  0  0  0  0  0
    2.4129    0.2822   -0.1466 S   0  0  0  0  0  0  0  0  0  0  0  0
    0.8316    0.6635    0.4272 C   0  0  0  0  0  0  0  0  0  0  0  0
    0.4010    1.3816    1.8043 S   0  0  0  0  0  0  0  0  0  0  0  0
    3.0829    0.7736    0.9080 H   0  0  0  0  0  0  0  0  0  0  0  0
  1  2  3  0
  1  6  1  0
  2  3  1  0
  3  4  1  0
  3  8  1  0
  4  5  3  0
  5  9  1  0
  7 11  1  0
 10 11  1  0
 10 13  1  0
 11 12  2  0
M  RAD  1   3   2
M  END
>  <reaction>  (8) 
rxn_1386

>  <mol_properties>  (8) 
{"1": {"label": "*0", "atom_type": "Ct"}, "2": {"label": "*1", "atom_type": "Cs"}, "6": {"label": "*2", "atom_type": "H0"}, "9": {"label": "*4", "atom_type": "S2s"}, "10": {"label": "*3", "atom_type": "CS"}}

>  <type>  (8) 
unop_4

>  <geom_source>  (8) 
Heuristics

$$$$

     RDKit          3D

 13 11  0  0  0  0  0  0  0  0999 V2000
   -0.8101   -1.2591   -3.0782 C   0  0  0  0  0  0  0  0  0  0  0  0
   -0.8101   -1.2591   -1.8827 C   0  0  0  0  0  0  0  0  0  0  0  0
   -0.8101   -1.2591   -0.4197 C   0  0  0  0  0  3  0  0  0  0  0  0
   -2.1241   -0.9835    0.1614 C   0  0  0  0  0  0  0  0  0  0  0  0
   -3.1979   -0.7583    0.6363 C   0  0  0  0  0  0  0  0  0  0  0  0
   -0.8101   -1.2591   -4.1417 H   0  0  0  0  0  0  0  0  0  0  0  0
    0.0481   -0.3647    0.0113 H   0  0  0  0  0  0  0  0  0  0  0  0
   -0.4547   -2.2290   -0.0605 H   0  0  0  0  0  0  0  0  0  0  0  0
   -4.1530   -0.5580    1.0588 H   0  0  0  0  0  0  0  0  0  0  0  0
    0.9177    0.5416    2.1658 S   0  0  0  0  0  0  0  0  0  0  0  0
    0.9036    0.5270    0.4411 C   0  0  0  0  0  0  0  0  0  0  0  0
    1.7640    1.4237   -0.5852 S   0  0  0  0  0  0  0  0  0  0  0  0
    1.8422    1.5053    2.3049 H   0  0  0  0  0  0  0  0  0  0  0  0
  1  2  3  0
  1  6  1  0
  2  3  1  0
  3  4  1  0
  3  8  1  0
  4  5  3  0
  5  9  1  0
  7 11  1  0
 10 11  1  0
 10 13  1  0
 11 12  2  0
M  RAD  1   3   2
M  END
>  <reaction>  (9) 
rxn_1386

>  <mol_properties>  (9) 
{"1": {"label": "*0", "atom_type": "Ct"}, "2": {"label": "*1", "atom_type": "Cs"}, "6": {"label": "*2", "atom_type": "H0"}, "9": {"label": "*4", "atom_type": "S2s"}, "10": {"label": "*3", "atom_type": "CS"}}

>  <type>  (9) 
unop_5

>  <geom_source>  (9) 
Heuristics

$$$$

     RDKit          3D

 13 11  0  0  0  0  0  0  0  0999 V2000
   -0.8052   -1.1279   -3.1717 C   0  0  0  0  0  0  0  0  0  0  0  0
   -0.8052   -1.1279   -1.9762 C   0  0  0  0  0  0  0  0  0  0  0  0
   -0.8052   -1.1279   -0.5132 C   0  0  0  0  0  3  0  0  0  0  0  0
   -2.1192   -0.8523    0.0680 C   0  0  0  0  0  0  0  0  0  0  0  0
   -3.1929   -0.6271    0.5429 C   0  0  0  0  0  0  0  0  0  0  0  0
   -0.8052   -1.1279   -4.2352 H   0  0  0  0  0  0  0  0  0  0  0  0
    0.0530   -0.2335   -0.0822 H   0  0  0  0  0  0  0  0  0  0  0  0
   -0.4498   -2.0978   -0.1540 H   0  0  0  0  0  0  0  0  0  0  0  0
   -4.1481   -0.4268    0.9653 H   0  0  0  0  0  0  0  0  0  0  0  0
    2.4622   -0.0659    0.5400 S   0  0  0  0  0  0  0  0  0  0  0  0
    0.9085    0.6582    0.3476 C   0  0  0  0  0  0  0  0  0  0  0  0
    0.1777    1.7484    1.2829 S   0  0  0  0  0  0  0  0  0  0  0  0
    2.7934    0.5767    1.6714 H   0  0  0  0  0  0  0  0  0  0  0  0
  1  2  3  0
  1  6  1  0
  2  3  1  0
  3  4  1  0
  3  8  1  0
  4  5  3  0
  5  9  1  0
  7 11  1  0
 10 11  1  0
 10 13  1  0
 11 12  2  0
M  RAD  1   3   2
M  END
>  <reaction>  (10) 
rxn_1386

>  <mol_properties>  (10) 
{"1": {"label": "*0", "atom_type": "Ct"}, "2": {"label": "*1", "atom_type": "Cs"}, "6": {"label": "*2", "atom_type": "H0"}, "9": {"label": "*4", "atom_type": "S2s"}, "10": {"label": "*3", "atom_type": "CS"}}

>  <type>  (10) 
unop_6

>  <geom_source>  (10) 
Heuristics

$$$$

     RDKit          3D

 13 11  0  0  0  0  0  0  0  0999 V2000
   -0.7251   -1.1955   -3.1898 C   0  0  0  0  0  0  0  0  0  0  0  0
   -0.7251   -1.1955   -1.9943 C   0  0  0  0  0  0  0  0  0  0  0  0
   -0.7251   -1.1955   -0.5313 C   0  0  0  0  0  3  0  0  0  0  0  0
   -2.0391   -0.9198    0.0498 C   0  0  0  0  0  0  0  0  0  0  0  0
   -3.1128   -0.6946    0.5247 C   0  0  0  0  0  0  0  0  0  0  0  0
   -0.7251   -1.1955   -4.2533 H   0  0  0  0  0  0  0  0  0  0  0  0
    0.1331   -0.3011   -0.1003 H   0  0  0  0  0  0  0  0  0  0  0  0
   -0.3697   -2.1653   -0.1721 H   0  0  0  0  0  0  0  0  0  0  0  0
   -4.0680   -0.4943    0.9472 H   0  0  0  0  0  0  0  0  0  0  0  0
    2.2010   -0.1752    1.2880 S   0  0  0  0  0  0  0  0  0  0  0  0
    0.9886    0.5907    0.3295 C   0  0  0  0  0  0  0  0  0  0  0  0
    0.2642    2.0116    0.5607 S   0  0  0  0  0  0  0  0  0  0  0  0
    2.2955    0.7892    2.2174 H   0  0  0  0  0  0  0  0  0  0  0  0
  1  2  3  0
  1  6  1  0
  2  3  1  0
  3  4  1  0
  3  8  1  0
  4  5  3  0
  5  9  1  0
  7 11  1  0
 10 11  1  0
 10 13  1  0
 11 12  2  0
M  RAD  1   3   2
M  END
>  <reaction>  (11) 
rxn_1386

>  <mol_properties>  (11) 
{"1": {"label": "*0", "atom_type": "Ct"}, "2": {"label": "*1", "atom_type": "Cs"}, "6": {"label": "*2", "atom_type": "H0"}, "9": {"label": "*4", "atom_type": "S2s"}, "10": {"label": "*3", "atom_type": "CS"}}

>  <type>  (11) 
unop_7

>  <geom_source>  (11) 
Heuristics

$$$$

     RDKit          3D

 13 11  0  0  0  0  0  0  0  0999 V2000
   -0.6792   -1.2488   -3.1717 C   0  0  0  0  0  0  0  0  0  0  0  0
   -0.6792   -1.2488   -1.9762 C   0  0  0  0  0  0  0  0  0  0  0  0
   -0.6792   -1.2488   -0.5132 C   0  0  0  0  0  3  0  0  0  0  0  0
   -1.9932   -0.9732    0.0680 C   0  0  0  0  0  0  0  0  0  0  0  0
   -3.0670   -0.7480    0.5429 C   0  0  0  0  0  0  0  0  0  0  0  0
   -0.6792   -1.2488   -4.2352 H   0  0  0  0  0  0  0  0  0  0  0  0
    0.1790   -0.3544   -0.0822 H   0  0  0  0  0  0  0  0  0  0  0  0
   -0.3238   -2.2186   -0.1540 H   0  0  0  0  0  0  0  0  0  0  0  0
   -4.0221   -0.5476    0.9653 H   0  0  0  0  0  0  0  0  0  0  0  0
    0.2468    2.0597    0.5400 S   0  0  0  0  0  0  0  0  0  0  0  0
    1.0345    0.5373    0.3476 C   0  0  0  0  0  0  0  0  0  0  0  0
    2.1540   -0.1477    1.2829 S   0  0  0  0  0  0  0  0  0  0  0  0
    0.8751    2.4172    1.6714 H   0  0  0  0  0  0  0  0  0  0  0  0
  1  2  3  0
  1  6  1  0
  2  3  1  0
  3  4  1  0
  3  8  1  0
  4  5  3  0
  5  9  1  0
  7 11  1  0
 10 11  1  0
 10 13  1  0
 11 12  2  0
M  RAD  1   3   2
M  END
>  <reaction>  (12) 
rxn_1386

>  <mol_properties>  (12) 
{"1": {"label": "*0", "atom_type": "Ct"}, "2": {"label": "*1", "atom_type": "Cs"}, "6": {"label": "*2", "atom_type": "H0"}, "9": {"label": "*4", "atom_type": "S2s"}, "10": {"label": "*3", "atom_type": "CS"}}

>  <type>  (12) 
unop_8

>  <geom_source>  (12) 
Heuristics

$$$$

     RDKit          3D

 13 11  0  0  0  0  0  0  0  0999 V2000
   -0.9017   -1.1895   -2.9984 C   0  0  0  0  0  0  0  0  0  0  0  0
   -0.9017   -1.1895   -1.8029 C   0  0  0  0  0  0  0  0  0  0  0  0
   -0.9017   -1.1895   -0.3399 C   0  0  0  0  0  3  0  0  0  0  0  0
   -2.2157   -0.9139    0.2412 C   0  0  0  0  0  0  0  0  0  0  0  0
   -3.2895   -0.6887    0.7161 C   0  0  0  0  0  0  0  0  0  0  0  0
   -0.9017   -1.1895   -4.0619 H   0  0  0  0  0  0  0  0  0  0  0  0
   -0.0435   -0.2951    0.0911 H   0  0  0  0  0  0  0  0  0  0  0  0
   -0.5463   -2.1593    0.0192 H   0  0  0  0  0  0  0  0  0  0  0  0
   -4.2446   -0.4883    1.1386 H   0  0  0  0  0  0  0  0  0  0  0  0
    2.0999    0.7672   -0.6139 S   0  0  0  0  0  0  0  0  0  0  0  0
    0.8120    0.5966    0.5208 C   0  0  0  0  0  0  0  0  0  0  0  0
    0.7641    1.0372    2.0704 S   0  0  0  0  0  0  0  0  0  0  0  0
    2.9674    1.3571    0.2241 H   0  0  0  0  0  0  0  0  0  0  0  0
  1  2  3  0
  1  6  1  0
  2  3  1  0
  3  4  1  0
  3  8  1  0
  4  5  3  0
  5  9  1  0
  7 11  1  0
 10 11  1  0
 10 13  1  0
 11 12  2  0
M  RAD  1   3   2
M  END
>  <reaction>  (13) 
rxn_1386

>  <mol_properties>  (13) 
{"1": {"label": "*0", "atom_type": "Ct"}, "2": {"label": "*1", "atom_type": "Cs"}, "6": {"label": "*2", "atom_type": "H0"}, "9": {"label": "*4", "atom_type": "S2s"}, "10": {"label": "*3", "atom_type": "CS"}}

>  <type>  (13) 
unop_9

>  <geom_source>  (13) 
Heuristics

$$$$

     RDKit          3D

 13 11  0  0  0  0  0  0  0  0999 V2000
   -0.6707   -1.3255   -3.0921 C   0  0  0  0  0  0  0  0  0  0  0  0
   -0.6707   -1.3255   -1.8966 C   0  0  0  0  0  0  0  0  0  0  0  0
   -0.6707   -1.3255   -0.4336 C   0  0  0  0  0  3  0  0  0  0  0  0
   -1.9847   -1.0499    0.1476 C   0  0  0  0  0  0  0  0  0  0  0  0
   -3.0585   -0.8247    0.6225 C   0  0  0  0  0  0  0  0  0  0  0  0
   -0.6707   -1.3255   -4.1556 H   0  0  0  0  0  0  0  0  0  0  0  0
    0.1874   -0.4311   -0.0026 H   0  0  0  0  0  0  0  0  0  0  0  0
   -0.3153   -2.2953   -0.0744 H   0  0  0  0  0  0  0  0  0  0  0  0
   -4.0137   -0.6243    1.0449 H   0  0  0  0  0  0  0  0  0  0  0  0
    0.5966    2.0248   -0.1466 S   0  0  0  0  0  0  0  0  0  0  0  0
    1.0430    0.4606    0.4272 C   0  0  0  0  0  0  0  0  0  0  0  0
    1.7783    0.0602    1.8043 S   0  0  0  0  0  0  0  0  0  0  0  0
    1.0599    2.7146    0.9080 H   0  0  0  0  0  0  0  0  0  0  0  0
  1  2  3  0
  1  6  1  0
  2  3  1  0
  3  4  1  0
  3  8  1  0
  4  5  3  0
  5  9  1  0
  7 11  1  0
 10 11  1  0
 10 13  1  0
 11 12  2  0
M  RAD  1   3   2
M  END
>  <reaction>  (14) 
rxn_1386

>  <mol_properties>  (14) 
{"1": {"label": "*0", "atom_type": "Ct"}, "2": {"label": "*1", "atom_type": "Cs"}, "6": {"label": "*2", "atom_type": "H0"}, "9": {"label": "*4", "atom_type": "S2s"}, "10": {"label": "*3", "atom_type": "CS"}}

>  <type>  (14) 
unop_10

>  <geom_source>  (14) 
Heuristics

$$$$

     RDKit          3D

 13 11  0  0  0  0  0  0  0  0999 V2000
   -0.7138   -1.2766   -3.1343 C   0  0  0  0  0  0  0  0  0  0  0  0
   -0.7138   -1.2766   -1.9388 C   0  0  0  0  0  0  0  0  0  0  0  0
   -0.7138   -1.2766   -0.4758 C   0  0  0  0  0  3  0  0  0  0  0  0
   -2.0278   -1.0010    0.1053 C   0  0  0  0  0  0  0  0  0  0  0  0
   -3.1016   -0.7758    0.5802 C   0  0  0  0  0  0  0  0  0  0  0  0
   -0.7138   -1.2766   -4.1978 H   0  0  0  0  0  0  0  0  0  0  0  0
    0.1443   -0.3822   -0.0448 H   0  0  0  0  0  0  0  0  0  0  0  0
   -0.3584   -2.2465   -0.1166 H   0  0  0  0  0  0  0  0  0  0  0  0
   -4.0568   -0.5755    1.0027 H   0  0  0  0  0  0  0  0  0  0  0  0
    1.6487    0.0140    1.9044 S   0  0  0  0  0  0  0  0  0  0  0  0
    0.9999    0.5095    0.3849 C   0  0  0  0  0  0  0  0  0  0  0  0
    0.8021    2.0011   -0.1926 S   0  0  0  0  0  0  0  0  0  0  0  0
    1.9012    1.2463    2.3741 H   0  0  0  0  0  0  0  0  0  0  0  0
  1  2  3  0
  1  6  1  0
  2  3  1  0
  3  4  1  0
  3  8  1  0
  4  5  3  0
  5  9  1  0
  7 11  1  0
 10 11  1  0
 10 13  1  0
 11 12  2  0
M  RAD  1   3   2
M  END
>  <reaction>  (15) 
rxn_1386

>  <mol_properties>  (15) 
{"1": {"label": "*0", "atom_type": "Ct"}, "2": {"label": "*1", "atom_type": "Cs"}, "6": {"label": "*2", "atom_type": "H0"}, "9": {"label": "*4", "atom_type": "S2s"}, "10": {"label": "*3", "atom_type": "CS"}}

>  <type>  (15) 
unop_11

>  <geom_source>  (15) 
Heuristics

$$$$

     RDKit          3D

 13 11  0  0  0  0  0  0  0  0999 V2000
   -0.8396   -1.2899   -2.9555 C   0  0  0  0  0  0  0  0  0  0  0  0
   -0.8396   -1.2899   -1.7600 C   0  0  0  0  0  0  0  0  0  0  0  0
   -0.8396   -1.2899   -0.2970 C   0  0  0  0  0  3  0  0  0  0  0  0
   -2.1536   -1.0143    0.2841 C   0  0  0  0  0  0  0  0  0  0  0  0
   -3.2274   -0.7891    0.7590 C   0  0  0  0  0  0  0  0  0  0  0  0
   -0.8396   -1.2899   -4.0190 H   0  0  0  0  0  0  0  0  0  0  0  0
    0.0185   -0.3955    0.1340 H   0  0  0  0  0  0  0  0  0  0  0  0
   -0.4842   -2.2598    0.0622 H   0  0  0  0  0  0  0  0  0  0  0  0
   -4.1826   -0.5888    1.1815 H   0  0  0  0  0  0  0  0  0  0  0  0
    1.6260    1.2799   -0.7763 S   0  0  0  0  0  0  0  0  0  0  0  0
    0.8741    0.4962    0.5637 C   0  0  0  0  0  0  0  0  0  0  0  0
    1.1079    0.7399    2.1396 S   0  0  0  0  0  0  0  0  0  0  0  0
    2.4108    2.0979   -0.0567 H   0  0  0  0  0  0  0  0  0  0  0  0
  1  2  3  0
  1  6  1  0
  2  3  1  0
  3  4  1  0
  3  8  1  0
  4  5  3  0
  5  9  1  0
  7 11  1  0
 10 11  1  0
 10 13  1  0
 11 12  2  0
M  RAD  1   3   2
M  END
>  <reaction>  (16) 
rxn_1386

>  <mol_properties>  (16) 
{"1": {"label": "*0", "atom_type": "Ct"}, "2": {"label": "*1", "atom_type": "Cs"}, "6": {"label": "*2", "atom_type": "H0"}, "9": {"label": "*4", "atom_type": "S2s"}, "10": {"label": "*3", "atom_type": "CS"}}

>  <type>  (16) 
unop_12

>  <geom_source>  (16) 
Heuristics

$$$$

     RDKit          3D

 13 11  0  0  0  0  0  0  0  0999 V2000
    2.5715   -1.1689    0.6894 S   0  0  0  0  0  0  0  0  0  0  0  0
    2.9347    1.4460   -0.2347 S   0  0  0  0  0  0  0  0  0  0  0  0
   -0.4649    0.0051   -0.8138 C   0  0  0  0  0  3  0  0  0  0  0  0
    2.0569    0.3150   -0.1678 C   0  0  0  0  0  0  0  0  0  0  0  0
   -0.9835   -1.2047   -0.1723 C   0  0  0  0  0  0  0  0  0  0  0  0
   -1.1802    1.1785   -0.3086 C   0  0  0  0  0  0  0  0  0  0  0  0
   -1.4092   -2.2020    0.3550 C   0  0  0  0  0  0  0  0  0  0  0  0
   -1.7679    2.1461    0.1064 C   0  0  0  0  0  0  0  0  0  0  0  0
   -0.6045   -0.0693   -1.9120 H   0  0  0  0  0  0  0  0  0  0  0  0
    0.8983    0.3631   -0.7349 H   0  0  0  0  0  0  0  0  0  0  0  0
    2.0156   -0.7269    1.9047 H   0  0  0  0  0  0  0  0  0  0  0  0
   -1.7829   -3.0772    0.8179 H   0  0  0  0  0  0  0  0  0  0  0  0
   -2.2839    2.9952    0.4707 H   0  0  0  0  0  0  0  0  0  0  0  0
  1  4  1  0
  1 11  1  0
  2  4  2  0
  3  5  1  0
  3  6  1  0
  3  9  1  0
  4 10  1  0
  5  7  3  0
  6  8  3  0
  7 12  1  0
  8 13  1  0
M  RAD  1   3   2
M  END
>  <reaction>  (17) 
rxn_1386

>  <mol_properties>  (17) 
{"1": {"label": "*0", "atom_type": "Ct"}, "2": {"label": "*1", "atom_type": "Cs"}, "6": {"label": "*2", "atom_type": "H0"}, "9": {"label": "*4", "atom_type": "S2s"}, "10": {"label": "*3", "atom_type": "CS"}}

>  <type>  (17) 
unop_13

>  <geom_source>  (17) 
AutoTST

$$$$
