
     RDKit          3D

 21 21  0  0  0  0  0  0  0  0999 V2000
   -1.3695    1.3367   -1.0719 C   0  0  0  0  0  0  0  0  0  0  0  0
   -1.4091   -0.0981   -0.5428 C   0  0  0  0  0  0  0  0  0  0  0  0
   -0.1819   -0.3999    0.3191 C   0  0  0  0  0  0  0  0  0  0  0  0
   -1.5636   -1.1028   -1.6652 C   0  0  0  0  0  0  0  0  0  0  0  0
   -0.5920   -1.2314   -2.6553 C   0  0  0  0  0  0  0  0  0  0  0  0
   -0.7353   -2.1509   -3.6809 C   0  0  0  0  0  0  0  0  0  0  0  0
   -1.8582   -2.9642   -3.7377 C   0  0  0  0  0  0  0  0  0  0  0  0
   -2.8325   -2.8475   -2.7602 C   0  0  0  0  0  0  0  0  0  0  0  0
   -2.6828   -1.9241   -1.7351 C   0  0  0  0  0  0  0  0  0  0  0  0
   -0.4920    1.4974   -1.7025 H   0  0  0  0  0  0  0  0  0  0  0  0
   -2.2553    1.5607   -1.6679 H   0  0  0  0  0  0  0  0  0  0  0  0
   -1.3211    2.0496   -0.2461 H   0  0  0  0  0  0  0  0  0  0  0  0
   -2.2930   -0.1918    0.0948 H   0  0  0  0  0  0  0  0  0  0  0  0
   -0.1215    0.2955    1.1588 H   0  0  0  0  0  0  0  0  0  0  0  0
   -0.2200   -1.4155    0.7159 H   0  0  0  0  0  0  0  0  0  0  0  0
    0.7383   -0.3016   -0.2615 H   0  0  0  0  0  0  0  0  0  0  0  0
    0.2915   -0.6040   -2.6263 H   0  0  0  0  0  0  0  0  0  0  0  0
    0.0326   -2.2338   -4.4401 H   0  0  0  0  0  0  0  0  0  0  0  0
   -1.9712   -3.6833   -4.5391 H   0  0  0  0  0  0  0  0  0  0  0  0
   -3.7135   -3.4765   -2.7932 H   0  0  0  0  0  0  0  0  0  0  0  0
   -3.4509   -1.8400   -0.9743 H   0  0  0  0  0  0  0  0  0  0  0  0
  1  2  1  0
  1 10  1  0
  1 11  1  0
  1 12  1  0
  2  3  1  0
  2  4  1  0
  2 13  1  0
  3 14  1  0
  3 15  1  0
  3 16  1  0
  4  5  2  0
  4  9  1  0
  5  6  1  0
  5 17  1  0
  6  7  2  0
  6 18  1  0
  7  8  1  0
  7 19  1  0
  8  9  2  0
  8 20  1  0
  9 21  1  0
M  END
>  <reaction>  (1) 
rxn_1555

>  <mol_properties>  (1) 
{"1": {"label": "donator", "atom_type": "Cs"}, "12": {"label": "d_hydrogen", "atom_type": "H0"}}

>  <type>  (1) 
r1h

$$$$

     RDKit          3D

  7  6  0  0  0  0  0  0  0  0999 V2000
   -2.0652    0.3855   -0.2963 S   0  0  0  0  0  0  0  0  0  0  0  0
   -0.7169   -0.5853    0.1792 C   0  0  0  0  0  3  0  0  0  0  0  0
    0.5987   -0.2168    0.0254 C   0  0  0  0  0  0  0  0  0  0  0  0
    1.7547    0.1211   -0.1163 C   0  0  0  0  0  0  0  0  0  0  0  0
   -1.3643    1.4227   -0.7731 H   0  0  0  0  0  0  0  0  0  0  0  0
   -0.9781   -1.5363    0.6220 H   0  0  0  0  0  0  0  0  0  0  0  0
    2.7711    0.4089   -0.2366 H   0  0  0  0  0  0  0  0  0  0  0  0
  1  2  1  0
  1  5  1  0
  2  3  1  0
  2  6  1  0
  3  4  3  0
  4  7  1  0
M  RAD  1   2   2
M  END
>  <reaction>  (2) 
rxn_1555

>  <mol_properties>  (2) 
{"1": {"label": "acceptor", "atom_type": "Cs"}}

>  <type>  (2) 
r2

$$$$

     RDKit          3D

  8  7  0  0  0  0  0  0  0  0999 V2000
   -0.7014    1.0753    1.5530 S   0  0  0  0  0  0  0  0  0  0  0  0
   -0.3105   -0.4583    0.6462 C   0  0  0  0  0  0  0  0  0  0  0  0
    0.0935   -0.2424   -0.7319 C   0  0  0  0  0  0  0  0  0  0  0  0
    0.4431   -0.0604   -1.8621 C   0  0  0  0  0  0  0  0  0  0  0  0
    0.4994    1.6466    1.3970 H   0  0  0  0  0  0  0  0  0  0  0  0
   -1.2277   -1.0477    0.6819 H   0  0  0  0  0  0  0  0  0  0  0  0
    0.4563   -1.0151    1.1841 H   0  0  0  0  0  0  0  0  0  0  0  0
    0.7474    0.1020   -2.8681 H   0  0  0  0  0  0  0  0  0  0  0  0
  1  2  1  0
  1  5  1  0
  2  3  1  0
  2  6  1  0
  2  7  1  0
  3  4  3  0
  4  8  1  0
M  END
>  <reaction>  (3) 
rxn_1555

>  <mol_properties>  (3) 
{"1": {"label": "acceptor", "atom_type": "Cs"}, "7": {"label": "a_hydrogen", "atom_type": "H0"}}

>  <type>  (3) 
r2h

$$$$

     RDKit          3D

 28 27  0  0  0  0  0  0  0  0999 V2000
   -2.0548   -1.0638    1.0666 S   0  0  0  0  0  0  0  0  0  0  0  0
   -2.1622   -0.3418   -0.5612 C   0  0  0  0  0  3  0  0  0  0  0  0
   -2.0105   -1.1961   -1.6883 C   0  0  0  0  0  0  0  0  0  0  0  0
   -1.8112   -1.8863   -2.6529 C   0  0  0  0  0  0  0  0  0  0  0  0
   -0.8309   -1.5912    0.9138 H   0  0  0  0  0  0  0  0  0  0  0  0
   -3.0296    0.3126   -0.6085 H   0  0  0  0  0  0  0  0  0  0  0  0
   -1.6640   -2.5103   -3.5011 H   0  0  0  0  0  0  0  0  0  0  0  0
    0.0576    1.6856   -2.1157 C   0  0  0  0  0  0  0  0  0  0  0  0
   -0.0808    1.3661   -0.6432 C   0  0  0  0  0  0  0  0  0  0  0  0
   -0.5709    2.5296    0.1847 C   0  0  0  0  0  0  0  0  0  0  0  0
    0.9701    0.5070   -0.0468 C   0  0  0  0  0  0  0  0  0  0  0  0
    1.3990   -0.6495   -0.7117 C   0  0  0  0  0  0  0  0  0  0  0  0
    2.3235   -1.5052   -0.1400 C   0  0  0  0  0  0  0  0  0  0  0  0
    2.8552   -1.2287    1.1118 C   0  0  0  0  0  0  0  0  0  0  0  0
    2.4459   -0.0877    1.7834 C   0  0  0  0  0  0  0  0  0  0  0  0
    1.5123    0.7641    1.2156 C   0  0  0  0  0  0  0  0  0  0  0  0
    0.8856    2.3837   -2.2782 H   0  0  0  0  0  0  0  0  0  0  0  0
    0.2454    0.7995   -2.7202 H   0  0  0  0  0  0  0  0  0  0  0  0
   -0.8536    2.1547   -2.4917 H   0  0  0  0  0  0  0  0  0  0  0  0
   -1.1282    0.5398   -0.6261 H   0  0  0  0  0  0  0  0  0  0  0  0
   -1.4167    3.0112   -0.3086 H   0  0  0  0  0  0  0  0  0  0  0  0
   -0.8972    2.2106    1.1761 H   0  0  0  0  0  0  0  0  0  0  0  0
    0.2090    3.2883    0.3115 H   0  0  0  0  0  0  0  0  0  0  0  0
    0.9799   -0.8992   -1.6777 H   0  0  0  0  0  0  0  0  0  0  0  0
    2.6282   -2.3966   -0.6743 H   0  0  0  0  0  0  0  0  0  0  0  0
    3.5802   -1.8970    1.5584 H   0  0  0  0  0  0  0  0  0  0  0  0
    2.8529    0.1418    2.7604 H   0  0  0  0  0  0  0  0  0  0  0  0
    1.2071    1.6436    1.7658 H   0  0  0  0  0  0  0  0  0  0  0  0
  1  2  1  0
  1  5  1  0
  2  3  1  0
  2  6  1  0
  3  4  3  0
  4  7  1  0
  8  9  1  0
  8 17  1  0
  8 18  1  0
  8 19  1  0
  9 10  1  0
  9 11  1  0
  9 20  1  0
 10 21  1  0
 10 22  1  0
 10 23  1  0
 11 12  2  0
 11 16  1  0
 12 13  1  0
 12 24  1  0
 13 14  2  0
 13 25  1  0
 14 15  1  0
 14 26  1  0
 15 16  2  0
 15 27  1  0
 16 28  1  0
M  RAD  1   2   2
M  END
>  <reaction>  (4) 
rxn_1555

>  <mol_properties>  (4) 
{"0": {"label": "*4", "atom_type": "S2s"}, "1": {"label": "*3", "atom_type": "Cs"}, "8": {"label": "*1", "atom_type": "Cs"}, "10": {"label": "*0", "atom_type": "Cd"}, "19": {"label": "*2", "atom_type": "H0"}}

>  <type>  (4) 
ts

$$$$

     RDKit          3D

 28 27  0  0  0  0  0  0  0  0999 V2000
   -1.5744   -1.3731    1.0425 S   0  0  0  0  0  0  0  0  0  0  0  0
   -2.1203    0.0637    0.0603 C   0  0  0  0  0  0  0  0  0  0  0  0
   -3.4711   -0.0555   -0.4594 C   0  0  0  0  0  0  0  0  0  0  0  0
   -4.5844   -0.1538   -0.8878 C   0  0  0  0  0  0  0  0  0  0  0  0
   -2.5501   -1.3033    1.9567 H   0  0  0  0  0  0  0  0  0  0  0  0
   -2.0278    0.9705    0.6573 H   0  0  0  0  0  0  0  0  0  0  0  0
   -5.5736   -0.2411   -1.2685 H   0  0  0  0  0  0  0  0  0  0  0  0
    0.0944    1.2204   -2.2636 C   0  0  0  0  0  0  0  0  0  0  0  0
    0.0944    1.2204   -0.7339 C   0  0  0  0  0  3  0  0  0  0  0  0
    0.0944    2.6480   -0.1844 C   0  0  0  0  0  0  0  0  0  0  0  0
    1.2438    0.4075   -0.1758 C   0  0  0  0  0  0  0  0  0  0  0  0
    2.5668    0.7673   -0.4228 C   0  0  0  0  0  0  0  0  0  0  0  0
    3.6165    0.0225    0.0886 C   0  0  0  0  0  0  0  0  0  0  0  0
    3.3634   -1.1023    0.8609 C   0  0  0  0  0  0  0  0  0  0  0  0
    2.0530   -1.4721    1.1148 C   0  0  0  0  0  0  0  0  0  0  0  0
    1.0057   -0.7214    0.5994 C   0  0  0  0  0  0  0  0  0  0  0  0
    0.9887    1.7106   -2.6552 H   0  0  0  0  0  0  0  0  0  0  0  0
    0.0714    0.2030   -2.6570 H   0  0  0  0  0  0  0  0  0  0  0  0
   -0.7751    1.7576   -2.6479 H   0  0  0  0  0  0  0  0  0  0  0  0
   -1.0144    0.6412   -0.3362 H   0  0  0  0  0  0  0  0  0  0  0  0
   -0.7751    3.1996   -0.5478 H   0  0  0  0  0  0  0  0  0  0  0  0
    0.0714    2.6497    0.9063 H   0  0  0  0  0  0  0  0  0  0  0  0
    0.9887    3.1896   -0.5013 H   0  0  0  0  0  0  0  0  0  0  0  0
    2.7826    1.6430   -1.0241 H   0  0  0  0  0  0  0  0  0  0  0  0
    4.6373    0.3206   -0.1161 H   0  0  0  0  0  0  0  0  0  0  0  0
    4.1832   -1.6851    1.2611 H   0  0  0  0  0  0  0  0  0  0  0  0
    1.8422   -2.3478    1.7161 H   0  0  0  0  0  0  0  0  0  0  0  0
   -0.0169   -1.0187    0.8035 H   0  0  0  0  0  0  0  0  0  0  0  0
  1  2  1  0
  1  5  1  0
  2  3  1  0
  2  6  1  0
  2 20  1  0
  3  4  3  0
  4  7  1  0
  8  9  1  0
  8 17  1  0
  8 18  1  0
  8 19  1  0
  9 10  1  0
  9 11  1  0
 10 21  1  0
 10 22  1  0
 10 23  1  0
 11 12  2  0
 11 16  1  0
 12 13  1  0
 12 24  1  0
 13 14  2  0
 13 25  1  0
 14 15  1  0
 14 26  1  0
 15 16  2  0
 15 27  1  0
 16 28  1  0
M  RAD  1   9   2
M  END
>  <reaction>  (5) 
rxn_1555

>  <mol_properties>  (5) 
{"0": {"label": "*4", "atom_type": "S2s"}, "1": {"label": "*3", "atom_type": "Cs"}, "8": {"label": "*1", "atom_type": "Cs"}, "10": {"label": "*0", "atom_type": "Cd"}, "19": {"label": "*2", "atom_type": "H0"}}

>  <type>  (5) 
unop_1

>  <geom_source>  (5) 
Heuristics

$$$$

     RDKit          3D

 28 27  0  0  0  0  0  0  0  0999 V2000
   -2.3967   -1.3262   -1.0543 S   0  0  0  0  0  0  0  0  0  0  0  0
   -1.9976   -0.1236    0.2578 C   0  0  0  0  0  0  0  0  0  0  0  0
   -3.1520    0.5881    0.7773 C   0  0  0  0  0  0  0  0  0  0  0  0
   -4.1035    1.1746    1.2054 C   0  0  0  0  0  0  0  0  0  0  0  0
   -3.2446   -2.0616   -0.3243 H   0  0  0  0  0  0  0  0  0  0  0  0
   -1.4733   -0.6285    1.0687 H   0  0  0  0  0  0  0  0  0  0  0  0
   -4.9489    1.6958    1.5859 H   0  0  0  0  0  0  0  0  0  0  0  0
    0.2171    1.0331   -2.0661 C   0  0  0  0  0  0  0  0  0  0  0  0
    0.2171    1.0331   -0.5364 C   0  0  0  0  0  3  0  0  0  0  0  0
    0.2171    2.4607    0.0131 C   0  0  0  0  0  0  0  0  0  0  0  0
    1.3664    0.2202    0.0217 C   0  0  0  0  0  0  0  0  0  0  0  0
    2.6895    0.5800   -0.2253 C   0  0  0  0  0  0  0  0  0  0  0  0
    3.7391   -0.1648    0.2861 C   0  0  0  0  0  0  0  0  0  0  0  0
    3.4861   -1.2896    1.0584 C   0  0  0  0  0  0  0  0  0  0  0  0
    2.1757   -1.6593    1.3123 C   0  0  0  0  0  0  0  0  0  0  0  0
    1.1284   -0.9087    0.7969 C   0  0  0  0  0  0  0  0  0  0  0  0
    1.1114    1.5233   -2.4577 H   0  0  0  0  0  0  0  0  0  0  0  0
    0.1941    0.0158   -2.4595 H   0  0  0  0  0  0  0  0  0  0  0  0
   -0.6524    1.5703   -2.4504 H   0  0  0  0  0  0  0  0  0  0  0  0
   -0.8918    0.4539   -0.1388 H   0  0  0  0  0  0  0  0  0  0  0  0
   -0.6524    3.0123   -0.3503 H   0  0  0  0  0  0  0  0  0  0  0  0
    0.1941    2.4624    1.1038 H   0  0  0  0  0  0  0  0  0  0  0  0
    1.1114    3.0023   -0.3038 H   0  0  0  0  0  0  0  0  0  0  0  0
    2.9053    1.4557   -0.8266 H   0  0  0  0  0  0  0  0  0  0  0  0
    4.7600    0.1334    0.0814 H   0  0  0  0  0  0  0  0  0  0  0  0
    4.3059   -1.8724    1.4586 H   0  0  0  0  0  0  0  0  0  0  0  0
    1.9649   -2.5351    1.9136 H   0  0  0  0  0  0  0  0  0  0  0  0
    0.1058   -1.2060    1.0010 H   0  0  0  0  0  0  0  0  0  0  0  0
  1  2  1  0
  1  5  1  0
  2  3  1  0
  2  6  1  0
  2 20  1  0
  3  4  3  0
  4  7  1  0
  8  9  1  0
  8 17  1  0
  8 18  1  0
  8 19  1  0
  9 10  1  0
  9 11  1  0
 10 21  1  0
 10 22  1  0
 10 23  1  0
 11 12  2  0
 11 16  1  0
 12 13  1  0
 12 24  1  0
 13 14  2  0
 13 25  1  0
 14 15  1  0
 14 26  1  0
 15 16  2  0
 15 27  1  0
 16 28  1  0
M  RAD  1   9   2
M  END
>  <reaction>  (6) 
rxn_1555

>  <mol_properties>  (6) 
{"0": {"label": "*4", "atom_type": "S2s"}, "1": {"label": "*3", "atom_type": "Cs"}, "8": {"label": "*1", "atom_type": "Cs"}, "10": {"label": "*0", "atom_type": "Cd"}, "19": {"label": "*2", "atom_type": "H0"}}

>  <type>  (6) 
unop_2

>  <geom_source>  (6) 
Heuristics

$$$$

     RDKit          3D

 28 27  0  0  0  0  0  0  0  0999 V2000
   -1.7465   -0.7058    1.6053 S   0  0  0  0  0  0  0  0  0  0  0  0
   -2.1670    0.0687    0.0083 C   0  0  0  0  0  0  0  0  0  0  0  0
   -3.1396   -0.6766   -0.7712 C   0  0  0  0  0  0  0  0  0  0  0  0
   -3.9413   -1.2908   -1.4137 C   0  0  0  0  0  0  0  0  0  0  0  0
   -2.9923   -0.7129    2.0958 H   0  0  0  0  0  0  0  0  0  0  0  0
   -2.5225    1.0847    0.1776 H   0  0  0  0  0  0  0  0  0  0  0  0
   -4.6536   -1.8365   -1.9846 H   0  0  0  0  0  0  0  0  0  0  0  0
    0.0477    1.2254   -2.3156 C   0  0  0  0  0  0  0  0  0  0  0  0
    0.0477    1.2254   -0.7859 C   0  0  0  0  0  3  0  0  0  0  0  0
    0.0477    2.6530   -0.2365 C   0  0  0  0  0  0  0  0  0  0  0  0
    1.1970    0.4125   -0.2278 C   0  0  0  0  0  0  0  0  0  0  0  0
    2.5201    0.7723   -0.4748 C   0  0  0  0  0  0  0  0  0  0  0  0
    3.5697    0.0275    0.0366 C   0  0  0  0  0  0  0  0  0  0  0  0
    3.3166   -1.0973    0.8089 C   0  0  0  0  0  0  0  0  0  0  0  0
    2.0063   -1.4671    1.0627 C   0  0  0  0  0  0  0  0  0  0  0  0
    0.9590   -0.7164    0.5473 C   0  0  0  0  0  0  0  0  0  0  0  0
    0.9420    1.7156   -2.7073 H   0  0  0  0  0  0  0  0  0  0  0  0
    0.0247    0.2080   -2.7090 H   0  0  0  0  0  0  0  0  0  0  0  0
   -0.8218    1.7626   -2.6999 H   0  0  0  0  0  0  0  0  0  0  0  0
   -1.0612    0.6462   -0.3883 H   0  0  0  0  0  0  0  0  0  0  0  0
   -0.8218    3.2046   -0.5998 H   0  0  0  0  0  0  0  0  0  0  0  0
    0.0247    2.6547    0.8543 H   0  0  0  0  0  0  0  0  0  0  0  0
    0.9420    3.1946   -0.5533 H   0  0  0  0  0  0  0  0  0  0  0  0
    2.7359    1.6480   -1.0761 H   0  0  0  0  0  0  0  0  0  0  0  0
    4.5906    0.3256   -0.1682 H   0  0  0  0  0  0  0  0  0  0  0  0
    4.1365   -1.6801    1.2091 H   0  0  0  0  0  0  0  0  0  0  0  0
    1.7955   -2.3428    1.6640 H   0  0  0  0  0  0  0  0  0  0  0  0
   -0.0636   -1.0137    0.7515 H   0  0  0  0  0  0  0  0  0  0  0  0
  1  2  1  0
  1  5  1  0
  2  3  1  0
  2  6  1  0
  2 20  1  0
  3  4  3  0
  4  7  1  0
  8  9  1  0
  8 17  1  0
  8 18  1  0
  8 19  1  0
  9 10  1  0
  9 11  1  0
 10 21  1  0
 10 22  1  0
 10 23  1  0
 11 12  2  0
 11 16  1  0
 12 13  1  0
 12 24  1  0
 13 14  2  0
 13 25  1  0
 14 15  1  0
 14 26  1  0
 15 16  2  0
 15 27  1  0
 16 28  1  0
M  RAD  1   9   2
M  END
>  <reaction>  (7) 
rxn_1555

>  <mol_properties>  (7) 
{"0": {"label": "*4", "atom_type": "S2s"}, "1": {"label": "*3", "atom_type": "Cs"}, "8": {"label": "*1", "atom_type": "Cs"}, "10": {"label": "*0", "atom_type": "Cd"}, "19": {"label": "*2", "atom_type": "H0"}}

>  <type>  (7) 
unop_3

>  <geom_source>  (7) 
Heuristics

$$$$

     RDKit          3D

 28 27  0  0  0  0  0  0  0  0999 V2000
   -3.4780    0.5670   -0.6936 S   0  0  0  0  0  0  0  0  0  0  0  0
   -2.1376   -0.4548    0.0037 C   0  0  0  0  0  0  0  0  0  0  0  0
   -1.6834   -0.0195    1.3126 C   0  0  0  0  0  0  0  0  0  0  0  0
   -1.3091    0.3394    2.3914 C   0  0  0  0  0  0  0  0  0  0  0  0
   -4.3443    0.3740    0.3088 H   0  0  0  0  0  0  0  0  0  0  0  0
   -2.4561   -1.4960    0.0454 H   0  0  0  0  0  0  0  0  0  0  0  0
   -0.9765    0.6582    3.3499 H   0  0  0  0  0  0  0  0  0  0  0  0
    0.0771    0.7019   -2.3202 C   0  0  0  0  0  0  0  0  0  0  0  0
    0.0771    0.7019   -0.7905 C   0  0  0  0  0  3  0  0  0  0  0  0
    0.0771    2.1295   -0.2411 C   0  0  0  0  0  0  0  0  0  0  0  0
    1.2264   -0.1110   -0.2324 C   0  0  0  0  0  0  0  0  0  0  0  0
    2.5495    0.2488   -0.4794 C   0  0  0  0  0  0  0  0  0  0  0  0
    3.5992   -0.4960    0.0320 C   0  0  0  0  0  0  0  0  0  0  0  0
    3.3461   -1.6208    0.8043 C   0  0  0  0  0  0  0  0  0  0  0  0
    2.0357   -1.9905    1.0581 C   0  0  0  0  0  0  0  0  0  0  0  0
    0.9884   -1.2399    0.5427 C   0  0  0  0  0  0  0  0  0  0  0  0
    0.9714    1.1921   -2.7119 H   0  0  0  0  0  0  0  0  0  0  0  0
    0.0541   -0.3154   -2.7136 H   0  0  0  0  0  0  0  0  0  0  0  0
   -0.7924    1.2391   -2.7045 H   0  0  0  0  0  0  0  0  0  0  0  0
   -1.0317    0.1227   -0.3929 H   0  0  0  0  0  0  0  0  0  0  0  0
   -0.7924    2.6811   -0.6044 H   0  0  0  0  0  0  0  0  0  0  0  0
    0.0541    2.1312    0.8497 H   0  0  0  0  0  0  0  0  0  0  0  0
    0.9714    2.6711   -0.5579 H   0  0  0  0  0  0  0  0  0  0  0  0
    2.7653    1.1245   -1.0807 H   0  0  0  0  0  0  0  0  0  0  0  0
    4.6200   -0.1978   -0.1728 H   0  0  0  0  0  0  0  0  0  0  0  0
    4.1659   -2.2036    1.2045 H   0  0  0  0  0  0  0  0  0  0  0  0
    1.8249   -2.8663    1.6594 H   0  0  0  0  0  0  0  0  0  0  0  0
   -0.0342   -1.5372    0.7469 H   0  0  0  0  0  0  0  0  0  0  0  0
  1  2  1  0
  1  5  1  0
  2  3  1  0
  2  6  1  0
  2 20  1  0
  3  4  3  0
  4  7  1  0
  8  9  1  0
  8 17  1  0
  8 18  1  0
  8 19  1  0
  9 10  1  0
  9 11  1  0
 10 21  1  0
 10 22  1  0
 10 23  1  0
 11 12  2  0
 11 16  1  0
 12 13  1  0
 12 24  1  0
 13 14  2  0
 13 25  1  0
 14 15  1  0
 14 26  1  0
 15 16  2  0
 15 27  1  0
 16 28  1  0
M  RAD  1   9   2
M  END
>  <reaction>  (8) 
rxn_1555

>  <mol_properties>  (8) 
{"0": {"label": "*4", "atom_type": "S2s"}, "1": {"label": "*3", "atom_type": "Cs"}, "8": {"label": "*1", "atom_type": "Cs"}, "10": {"label": "*0", "atom_type": "Cd"}, "19": {"label": "*2", "atom_type": "H0"}}

>  <type>  (8) 
unop_4

>  <geom_source>  (8) 
Heuristics

$$$$

     RDKit          3D

 28 27  0  0  0  0  0  0  0  0999 V2000
   -2.1970    0.0863    1.7533 S   0  0  0  0  0  0  0  0  0  0  0  0
   -2.2729    0.0466   -0.0687 C   0  0  0  0  0  0  0  0  0  0  0  0
   -2.3679   -1.2909   -0.6265 C   0  0  0  0  0  0  0  0  0  0  0  0
   -2.4462   -2.3932   -1.0863 C   0  0  0  0  0  0  0  0  0  0  0  0
   -3.3611   -0.5417    1.9610 H   0  0  0  0  0  0  0  0  0  0  0  0
   -3.1084    0.6556   -0.4126 H   0  0  0  0  0  0  0  0  0  0  0  0
   -2.5157   -3.3726   -1.4948 H   0  0  0  0  0  0  0  0  0  0  0  0
   -0.0582    1.2033   -2.3926 C   0  0  0  0  0  0  0  0  0  0  0  0
   -0.0582    1.2033   -0.8629 C   0  0  0  0  0  3  0  0  0  0  0  0
   -0.0582    2.6309   -0.3134 C   0  0  0  0  0  0  0  0  0  0  0  0
    1.0911    0.3904   -0.3047 C   0  0  0  0  0  0  0  0  0  0  0  0
    2.4142    0.7502   -0.5517 C   0  0  0  0  0  0  0  0  0  0  0  0
    3.4638    0.0054   -0.0404 C   0  0  0  0  0  0  0  0  0  0  0  0
    3.2107   -1.1194    0.7319 C   0  0  0  0  0  0  0  0  0  0  0  0
    1.9003   -1.4891    0.9858 C   0  0  0  0  0  0  0  0  0  0  0  0
    0.8531   -0.7385    0.4704 C   0  0  0  0  0  0  0  0  0  0  0  0
    0.8361    1.6935   -2.7842 H   0  0  0  0  0  0  0  0  0  0  0  0
   -0.0813    0.1860   -2.7859 H   0  0  0  0  0  0  0  0  0  0  0  0
   -0.9278    1.7405   -2.7769 H   0  0  0  0  0  0  0  0  0  0  0  0
   -1.1671    0.6242   -0.4652 H   0  0  0  0  0  0  0  0  0  0  0  0
   -0.9278    3.1825   -0.6767 H   0  0  0  0  0  0  0  0  0  0  0  0
   -0.0813    2.6326    0.7773 H   0  0  0  0  0  0  0  0  0  0  0  0
    0.8361    3.1725   -0.6302 H   0  0  0  0  0  0  0  0  0  0  0  0
    2.6300    1.6259   -1.1531 H   0  0  0  0  0  0  0  0  0  0  0  0
    4.4847    0.3036   -0.2451 H   0  0  0  0  0  0  0  0  0  0  0  0
    4.0306   -1.7022    1.1321 H   0  0  0  0  0  0  0  0  0  0  0  0
    1.6896   -2.3648    1.5871 H   0  0  0  0  0  0  0  0  0  0  0  0
   -0.1695   -1.0358    0.6745 H   0  0  0  0  0  0  0  0  0  0  0  0
  1  2  1  0
  1  5  1  0
  2  3  1  0
  2  6  1  0
  2 20  1  0
  3  4  3  0
  4  7  1  0
  8  9  1  0
  8 17  1  0
  8 18  1  0
  8 19  1  0
  9 10  1  0
  9 11  1  0
 10 21  1  0
 10 22  1  0
 10 23  1  0
 11 12  2  0
 11 16  1  0
 12 13  1  0
 12 24  1  0
 13 14  2  0
 13 25  1  0
 14 15  1  0
 14 26  1  0
 15 16  2  0
 15 27  1  0
 16 28  1  0
M  RAD  1   9   2
M  END
>  <reaction>  (9) 
rxn_1555

>  <mol_properties>  (9) 
{"0": {"label": "*4", "atom_type": "S2s"}, "1": {"label": "*3", "atom_type": "Cs"}, "8": {"label": "*1", "atom_type": "Cs"}, "10": {"label": "*0", "atom_type": "Cd"}, "19": {"label": "*2", "atom_type": "H0"}}

>  <type>  (9) 
unop_5

>  <geom_source>  (9) 
Heuristics

$$$$

     RDKit          3D

 28 27  0  0  0  0  0  0  0  0999 V2000
   -3.4523    0.9526    0.0312 S   0  0  0  0  0  0  0  0  0  0  0  0
   -2.2392   -0.4021   -0.1113 C   0  0  0  0  0  0  0  0  0  0  0  0
   -1.3699   -0.5399    1.0439 C   0  0  0  0  0  0  0  0  0  0  0  0
   -0.6534   -0.6534    1.9959 C   0  0  0  0  0  0  0  0  0  0  0  0
   -4.0434    0.5018    1.1447 H   0  0  0  0  0  0  0  0  0  0  0  0
   -2.7599   -1.3401   -0.3016 H   0  0  0  0  0  0  0  0  0  0  0  0
   -0.0168   -0.7543    2.8419 H   0  0  0  0  0  0  0  0  0  0  0  0
   -0.0244    0.7546   -2.4352 C   0  0  0  0  0  0  0  0  0  0  0  0
   -0.0244    0.7546   -0.9055 C   0  0  0  0  0  3  0  0  0  0  0  0
   -0.0244    2.1822   -0.3560 C   0  0  0  0  0  0  0  0  0  0  0  0
    1.1249   -0.0582   -0.3474 C   0  0  0  0  0  0  0  0  0  0  0  0
    2.4479    0.3015   -0.5944 C   0  0  0  0  0  0  0  0  0  0  0  0
    3.4976   -0.4432   -0.0830 C   0  0  0  0  0  0  0  0  0  0  0  0
    3.2445   -1.5680    0.6893 C   0  0  0  0  0  0  0  0  0  0  0  0
    1.9341   -1.9378    0.9432 C   0  0  0  0  0  0  0  0  0  0  0  0
    0.8869   -1.1872    0.4278 C   0  0  0  0  0  0  0  0  0  0  0  0
    0.8698    1.2449   -2.8268 H   0  0  0  0  0  0  0  0  0  0  0  0
   -0.0475   -0.2627   -2.8286 H   0  0  0  0  0  0  0  0  0  0  0  0
   -0.8940    1.2919   -2.8195 H   0  0  0  0  0  0  0  0  0  0  0  0
   -1.1333    0.1755   -0.5078 H   0  0  0  0  0  0  0  0  0  0  0  0
   -0.8940    2.7339   -0.7194 H   0  0  0  0  0  0  0  0  0  0  0  0
   -0.0475    2.1839    0.7347 H   0  0  0  0  0  0  0  0  0  0  0  0
    0.8698    2.7238   -0.6729 H   0  0  0  0  0  0  0  0  0  0  0  0
    2.6637    1.1773   -1.1957 H   0  0  0  0  0  0  0  0  0  0  0  0
    4.5184   -0.1451   -0.2877 H   0  0  0  0  0  0  0  0  0  0  0  0
    4.0644   -2.1509    1.0895 H   0  0  0  0  0  0  0  0  0  0  0  0
    1.7234   -2.8135    1.5445 H   0  0  0  0  0  0  0  0  0  0  0  0
   -0.1358   -1.4845    0.6319 H   0  0  0  0  0  0  0  0  0  0  0  0
  1  2  1  0
  1  5  1  0
  2  3  1  0
  2  6  1  0
  2 20  1  0
  3  4  3  0
  4  7  1  0
  8  9  1  0
  8 17  1  0
  8 18  1  0
  8 19  1  0
  9 10  1  0
  9 11  1  0
 10 21  1  0
 10 22  1  0
 10 23  1  0
 11 12  2  0
 11 16  1  0
 12 13  1  0
 12 24  1  0
 13 14  2  0
 13 25  1  0
 14 15  1  0
 14 26  1  0
 15 16  2  0
 15 27  1  0
 16 28  1  0
M  RAD  1   9   2
M  END
>  <reaction>  (10) 
rxn_1555

>  <mol_properties>  (10) 
{"0": {"label": "*4", "atom_type": "S2s"}, "1": {"label": "*3", "atom_type": "Cs"}, "8": {"label": "*1", "atom_type": "Cs"}, "10": {"label": "*0", "atom_type": "Cd"}, "19": {"label": "*2", "atom_type": "H0"}}

>  <type>  (10) 
unop_6

>  <geom_source>  (10) 
Heuristics

$$$$

     RDKit          3D

 28 25  0  0  0  0  0  0  0  0999 V2000
   -3.1920    0.9965    0.8067 S   0  0  0  0  0  0  0  0  0  0  0  0
   -2.3248   -0.2725   -0.1755 C   0  0  0  0  0  3  0  0  0  0  0  0
   -1.3173   -1.0081    0.5682 C   0  0  0  0  0 15  0  0  0  0  0  0
   -0.4870   -1.6143    1.1811 C   0  0  0  0  0  2  0  0  0  0  0  0
   -3.6632    0.1606    1.7405 H   0  0  0  0  0  0  0  0  0  0  0  0
   -3.0514   -0.9622   -0.6040 H   0  0  0  0  0  0  0  0  0  0  0  0
    0.2508   -2.1530    1.7256 H   0  0  0  0  0  0  0  0  0  0  0  0
   -0.1100    0.8842   -2.4994 C   0  0  0  0  0  0  0  0  0  0  0  0
   -0.1100    0.8842   -0.9697 C   0  0  0  0  0  3  0  0  0  0  0  0
   -0.1100    2.3118   -0.4202 C   0  0  0  0  0  0  0  0  0  0  0  0
    1.0393    0.0714   -0.4116 C   0  0  0  0  0  0  0  0  0  0  0  0
    2.3623    0.4311   -0.6586 C   0  0  0  0  0  0  0  0  0  0  0  0
    3.4120   -0.3136   -0.1472 C   0  0  0  0  0  0  0  0  0  0  0  0
    3.1589   -1.4384    0.6251 C   0  0  0  0  0  0  0  0  0  0  0  0
    1.8485   -1.8082    0.8790 C   0  0  0  0  0  0  0  0  0  0  0  0
    0.8013   -1.0576    0.3636 C   0  0  0  0  0  3  0  0  0  0  0  0
    0.7842    1.3745   -2.8910 H   0  0  0  0  0  0  0  0  0  0  0  0
   -0.1331   -0.1331   -2.8928 H   0  0  0  0  0  0  0  0  0  0  0  0
   -0.9796    1.4215   -2.8837 H   0  0  0  0  0  0  0  0  0  0  0  0
   -1.2189    0.3051   -0.5720 H   0  0  0  0  0  0  0  0  0  0  0  0
   -0.9796    2.8635   -0.7836 H   0  0  0  0  0  0  0  0  0  0  0  0
   -0.1331    2.3135    0.6705 H   0  0  0  0  0  0  0  0  0  0  0  0
    0.7842    2.8534   -0.7371 H   0  0  0  0  0  0  0  0  0  0  0  0
    2.5781    1.3069   -1.2599 H   0  0  0  0  0  0  0  0  0  0  0  0
    4.4328   -0.0155   -0.3519 H   0  0  0  0  0  0  0  0  0  0  0  0
    3.9787   -2.0213    1.0253 H   0  0  0  0  0  0  0  0  0  0  0  0
    1.6377   -2.6839    1.4803 H   0  0  0  0  0  0  0  0  0  0  0  0
   -0.2214   -1.3549    0.5677 H   0  0  0  0  0  0  0  0  0  0  0  0
  1  2  1  0
  1  5  1  0
  2  6  1  0
  2 20  1  0
  4  7  1  0
  4 28  1  0
  8  9  1  0
  8 17  1  0
  8 18  1  0
  8 19  1  0
  9 10  1  0
  9 11  1  0
 10 21  1  0
 10 22  1  0
 10 23  1  0
 11 12  2  0
 11 16  1  0
 12 13  1  0
 12 24  1  0
 13 14  2  0
 13 25  1  0
 14 15  1  0
 14 26  1  0
 15 16  2  0
 15 27  1  0
M  CHG  2   9   1  16  -1
M  RAD  2   2   2   4   3
M  END
>  <reaction>  (11) 
rxn_1555

>  <mol_properties>  (11) 
{"0": {"label": "*4", "atom_type": "S2s"}, "1": {"label": "*3", "atom_type": "Cs"}, "8": {"label": "*1", "atom_type": "Cs"}, "10": {"label": "*0", "atom_type": "Cd"}, "19": {"label": "*2", "atom_type": "H0"}}

>  <type>  (11) 
unop_7

>  <geom_source>  (11) 
Heuristics

$$$$

     RDKit          3D

 28 27  0  0  0  0  0  0  0  0999 V2000
   -1.6690   -1.7175    0.2724 S   0  0  0  0  0  0  0  0  0  0  0  0
   -2.0876    0.0521    0.1299 C   0  0  0  0  0  0  0  0  0  0  0  0
   -3.5096    0.3131   -0.0073 C   0  0  0  0  0  0  0  0  0  0  0  0
   -4.6816    0.5282   -0.1204 C   0  0  0  0  0  0  0  0  0  0  0  0
   -2.4047   -1.9533    1.3659 H   0  0  0  0  0  0  0  0  0  0  0  0
   -1.6893    0.5918    0.9886 H   0  0  0  0  0  0  0  0  0  0  0  0
   -5.7229    0.7194   -0.2209 H   0  0  0  0  0  0  0  0  0  0  0  0
    0.1271    1.2088   -2.1940 C   0  0  0  0  0  0  0  0  0  0  0  0
    0.1271    1.2088   -0.6643 C   0  0  0  0  0  3  0  0  0  0  0  0
    0.1271    2.6364   -0.1148 C   0  0  0  0  0  0  0  0  0  0  0  0
    1.2764    0.3960   -0.1062 C   0  0  0  0  0  0  0  0  0  0  0  0
    2.5995    0.7557   -0.3532 C   0  0  0  0  0  0  0  0  0  0  0  0
    3.6491    0.0109    0.1582 C   0  0  0  0  0  0  0  0  0  0  0  0
    3.3961   -1.1139    0.9305 C   0  0  0  0  0  0  0  0  0  0  0  0
    2.0857   -1.4836    1.1844 C   0  0  0  0  0  0  0  0  0  0  0  0
    1.0384   -0.7330    0.6690 C   0  0  0  0  0  0  0  0  0  0  0  0
    1.0214    1.6990   -2.5856 H   0  0  0  0  0  0  0  0  0  0  0  0
    0.1041    0.1915   -2.5873 H   0  0  0  0  0  0  0  0  0  0  0  0
   -0.7424    1.7460   -2.5783 H   0  0  0  0  0  0  0  0  0  0  0  0
   -0.9818    0.6297   -0.2666 H   0  0  0  0  0  0  0  0  0  0  0  0
   -0.7424    3.1880   -0.4782 H   0  0  0  0  0  0  0  0  0  0  0  0
    0.1041    2.6381    0.9759 H   0  0  0  0  0  0  0  0  0  0  0  0
    1.0214    3.1780   -0.4317 H   0  0  0  0  0  0  0  0  0  0  0  0
    2.8153    1.6314   -0.9545 H   0  0  0  0  0  0  0  0  0  0  0  0
    4.6700    0.3091   -0.0465 H   0  0  0  0  0  0  0  0  0  0  0  0
    4.2159   -1.6967    1.3307 H   0  0  0  0  0  0  0  0  0  0  0  0
    1.8749   -2.3593    1.7857 H   0  0  0  0  0  0  0  0  0  0  0  0
    0.0158   -1.0303    0.8731 H   0  0  0  0  0  0  0  0  0  0  0  0
  1  2  1  0
  1  5  1  0
  2  3  1  0
  2  6  1  0
  2 20  1  0
  3  4  3  0
  4  7  1  0
  8  9  1  0
  8 17  1  0
  8 18  1  0
  8 19  1  0
  9 10  1  0
  9 11  1  0
 10 21  1  0
 10 22  1  0
 10 23  1  0
 11 12  2  0
 11 16  1  0
 12 13  1  0
 12 24  1  0
 13 14  2  0
 13 25  1  0
 14 15  1  0
 14 26  1  0
 15 16  2  0
 15 27  1  0
 16 28  1  0
M  RAD  1   9   2
M  END
>  <reaction>  (12) 
rxn_1555

>  <mol_properties>  (12) 
{"0": {"label": "*4", "atom_type": "S2s"}, "1": {"label": "*3", "atom_type": "Cs"}, "8": {"label": "*1", "atom_type": "Cs"}, "10": {"label": "*0", "atom_type": "Cd"}, "19": {"label": "*2", "atom_type": "H0"}}

>  <type>  (12) 
unop_8

>  <geom_source>  (12) 
Heuristics

$$$$

     RDKit          3D

 28 27  0  0  0  0  0  0  0  0999 V2000
   -3.2599   -0.0558   -1.1781 S   0  0  0  0  0  0  0  0  0  0  0  0
   -2.0449   -0.4154    0.1339 C   0  0  0  0  0  0  0  0  0  0  0  0
   -2.1910    0.4139    1.3171 C   0  0  0  0  0  0  0  0  0  0  0  0
   -2.3115    1.0975    2.2923 C   0  0  0  0  0  0  0  0  0  0  0  0
   -4.3490   -0.2976   -0.4379 H   0  0  0  0  0  0  0  0  0  0  0  0
   -2.1023   -1.4689    0.4061 H   0  0  0  0  0  0  0  0  0  0  0  0
   -2.4185    1.7048    3.1587 H   0  0  0  0  0  0  0  0  0  0  0  0
    0.1699    0.7413   -2.1900 C   0  0  0  0  0  0  0  0  0  0  0  0
    0.1699    0.7413   -0.6603 C   0  0  0  0  0  3  0  0  0  0  0  0
    0.1699    2.1689   -0.1108 C   0  0  0  0  0  0  0  0  0  0  0  0
    1.3192   -0.0715   -0.1022 C   0  0  0  0  0  0  0  0  0  0  0  0
    2.6422    0.2882   -0.3492 C   0  0  0  0  0  0  0  0  0  0  0  0
    3.6919   -0.4566    0.1622 C   0  0  0  0  0  0  0  0  0  0  0  0
    3.4388   -1.5813    0.9345 C   0  0  0  0  0  0  0  0  0  0  0  0
    2.1284   -1.9511    1.1884 C   0  0  0  0  0  0  0  0  0  0  0  0
    1.0812   -1.2005    0.6730 C   0  0  0  0  0  0  0  0  0  0  0  0
    1.0641    1.2316   -2.5816 H   0  0  0  0  0  0  0  0  0  0  0  0
    0.1468   -0.2760   -2.5833 H   0  0  0  0  0  0  0  0  0  0  0  0
   -0.6997    1.2786   -2.5743 H   0  0  0  0  0  0  0  0  0  0  0  0
   -0.9390    0.1622   -0.2626 H   0  0  0  0  0  0  0  0  0  0  0  0
   -0.6997    2.7206   -0.4741 H   0  0  0  0  0  0  0  0  0  0  0  0
    0.1468    2.1706    0.9799 H   0  0  0  0  0  0  0  0  0  0  0  0
    1.0641    2.7105   -0.4276 H   0  0  0  0  0  0  0  0  0  0  0  0
    2.8580    1.1639   -0.9505 H   0  0  0  0  0  0  0  0  0  0  0  0
    4.7127   -0.1584   -0.0425 H   0  0  0  0  0  0  0  0  0  0  0  0
    4.2586   -2.1642    1.3347 H   0  0  0  0  0  0  0  0  0  0  0  0
    1.9176   -2.8268    1.7897 H   0  0  0  0  0  0  0  0  0  0  0  0
    0.0585   -1.4978    0.8771 H   0  0  0  0  0  0  0  0  0  0  0  0
  1  2  1  0
  1  5  1  0
  2  3  1  0
  2  6  1  0
  2 20  1  0
  3  4  3  0
  4  7  1  0
  8  9  1  0
  8 17  1  0
  8 18  1  0
  8 19  1  0
  9 10  1  0
  9 11  1  0
 10 21  1  0
 10 22  1  0
 10 23  1  0
 11 12  2  0
 11 16  1  0
 12 13  1  0
 12 24  1  0
 13 14  2  0
 13 25  1  0
 14 15  1  0
 14 26  1  0
 15 16  2  0
 15 27  1  0
 16 28  1  0
M  RAD  1   9   2
M  END
>  <reaction>  (13) 
rxn_1555

>  <mol_properties>  (13) 
{"0": {"label": "*4", "atom_type": "S2s"}, "1": {"label": "*3", "atom_type": "Cs"}, "8": {"label": "*1", "atom_type": "Cs"}, "10": {"label": "*0", "atom_type": "Cd"}, "19": {"label": "*2", "atom_type": "H0"}}

>  <type>  (13) 
unop_9

>  <geom_source>  (13) 
Heuristics

$$$$

     RDKit          3D

 28 27  0  0  0  0  0  0  0  0999 V2000
   -1.9702   -1.6866   -0.4884 S   0  0  0  0  0  0  0  0  0  0  0  0
   -2.0429   -0.0027    0.2089 C   0  0  0  0  0  0  0  0  0  0  0  0
   -3.3922    0.4919    0.4180 C   0  0  0  0  0  0  0  0  0  0  0  0
   -4.5044    0.8995    0.5904 C   0  0  0  0  0  0  0  0  0  0  0  0
   -2.6540   -2.2815    0.4970 H   0  0  0  0  0  0  0  0  0  0  0  0
   -1.4834    0.0300    1.1434 H   0  0  0  0  0  0  0  0  0  0  0  0
   -5.4925    1.2616    0.7435 H   0  0  0  0  0  0  0  0  0  0  0  0
    0.1718    1.1540   -2.1150 C   0  0  0  0  0  0  0  0  0  0  0  0
    0.1718    1.1540   -0.5853 C   0  0  0  0  0  3  0  0  0  0  0  0
    0.1718    2.5816   -0.0358 C   0  0  0  0  0  0  0  0  0  0  0  0
    1.3211    0.3412   -0.0271 C   0  0  0  0  0  0  0  0  0  0  0  0
    2.6442    0.7009   -0.2742 C   0  0  0  0  0  0  0  0  0  0  0  0
    3.6939   -0.0439    0.2372 C   0  0  0  0  0  0  0  0  0  0  0  0
    3.4408   -1.1687    1.0095 C   0  0  0  0  0  0  0  0  0  0  0  0
    2.1304   -1.5384    1.2634 C   0  0  0  0  0  0  0  0  0  0  0  0
    1.0831   -0.7878    0.7480 C   0  0  0  0  0  0  0  0  0  0  0  0
    1.0661    1.6443   -2.5066 H   0  0  0  0  0  0  0  0  0  0  0  0
    0.1488    0.1367   -2.5083 H   0  0  0  0  0  0  0  0  0  0  0  0
   -0.6977    1.6912   -2.4993 H   0  0  0  0  0  0  0  0  0  0  0  0
   -0.9370    0.5749   -0.1876 H   0  0  0  0  0  0  0  0  0  0  0  0
   -0.6977    3.1332   -0.3991 H   0  0  0  0  0  0  0  0  0  0  0  0
    0.1488    2.5833    1.0549 H   0  0  0  0  0  0  0  0  0  0  0  0
    1.0661    3.1232   -0.3526 H   0  0  0  0  0  0  0  0  0  0  0  0
    2.8600    1.5766   -0.8755 H   0  0  0  0  0  0  0  0  0  0  0  0
    4.7147    0.2543    0.0325 H   0  0  0  0  0  0  0  0  0  0  0  0
    4.2606   -1.7515    1.4097 H   0  0  0  0  0  0  0  0  0  0  0  0
    1.9196   -2.4141    1.8647 H   0  0  0  0  0  0  0  0  0  0  0  0
    0.0605   -1.0851    0.9521 H   0  0  0  0  0  0  0  0  0  0  0  0
  1  2  1  0
  1  5  1  0
  2  3  1  0
  2  6  1  0
  2 20  1  0
  3  4  3  0
  4  7  1  0
  8  9  1  0
  8 17  1  0
  8 18  1  0
  8 19  1  0
  9 10  1  0
  9 11  1  0
 10 21  1  0
 10 22  1  0
 10 23  1  0
 11 12  2  0
 11 16  1  0
 12 13  1  0
 12 24  1  0
 13 14  2  0
 13 25  1  0
 14 15  1  0
 14 26  1  0
 15 16  2  0
 15 27  1  0
 16 28  1  0
M  RAD  1   9   2
M  END
>  <reaction>  (14) 
rxn_1555

>  <mol_properties>  (14) 
{"0": {"label": "*4", "atom_type": "S2s"}, "1": {"label": "*3", "atom_type": "Cs"}, "8": {"label": "*1", "atom_type": "Cs"}, "10": {"label": "*0", "atom_type": "Cd"}, "19": {"label": "*2", "atom_type": "H0"}}

>  <type>  (14) 
unop_10

>  <geom_source>  (14) 
Heuristics

$$$$

     RDKit          3D

 28 27  0  0  0  0  0  0  0  0999 V2000
   -2.7485    0.6933    1.4369 S   0  0  0  0  0  0  0  0  0  0  0  0
   -2.3532   -0.0943   -0.1600 C   0  0  0  0  0  0  0  0  0  0  0  0
   -1.6123   -1.3373   -0.0377 C   0  0  0  0  0  0  0  0  0  0  0  0
   -1.0017   -2.3619    0.0631 C   0  0  0  0  0  0  0  0  0  0  0  0
   -3.4366   -0.3385    1.9415 H   0  0  0  0  0  0  0  0  0  0  0  0
   -3.2714   -0.2599   -0.7228 H   0  0  0  0  0  0  0  0  0  0  0  0
   -0.4591   -3.2722    0.1526 H   0  0  0  0  0  0  0  0  0  0  0  0
   -0.1385    1.0624   -2.4839 C   0  0  0  0  0  0  0  0  0  0  0  0
   -0.1385    1.0624   -0.9542 C   0  0  0  0  0  3  0  0  0  0  0  0
   -0.1385    2.4900   -0.4048 C   0  0  0  0  0  0  0  0  0  0  0  0
    1.0109    0.2496   -0.3961 C   0  0  0  0  0  0  0  0  0  0  0  0
    2.3339    0.6093   -0.6431 C   0  0  0  0  0  0  0  0  0  0  0  0
    3.3836   -0.1355   -0.1318 C   0  0  0  0  0  0  0  0  0  0  0  0
    3.1305   -1.2603    0.6406 C   0  0  0  0  0  0  0  0  0  0  0  0
    1.8201   -1.6300    0.8944 C   0  0  0  0  0  0  0  0  0  0  0  0
    0.7728   -0.8794    0.3790 C   0  0  0  0  0  0  0  0  0  0  0  0
    0.7558    1.5526   -2.8756 H   0  0  0  0  0  0  0  0  0  0  0  0
   -0.1615    0.0451   -2.8773 H   0  0  0  0  0  0  0  0  0  0  0  0
   -1.0080    1.5996   -2.8682 H   0  0  0  0  0  0  0  0  0  0  0  0
   -1.2473    0.4833   -0.5566 H   0  0  0  0  0  0  0  0  0  0  0  0
   -1.0080    3.0416   -0.7681 H   0  0  0  0  0  0  0  0  0  0  0  0
   -0.1615    2.4917    0.6860 H   0  0  0  0  0  0  0  0  0  0  0  0
    0.7558    3.0316   -0.7216 H   0  0  0  0  0  0  0  0  0  0  0  0
    2.5497    1.4850   -1.2444 H   0  0  0  0  0  0  0  0  0  0  0  0
    4.4044    0.1627   -0.3365 H   0  0  0  0  0  0  0  0  0  0  0  0
    3.9503   -1.8431    1.0407 H   0  0  0  0  0  0  0  0  0  0  0  0
    1.6093   -2.5057    1.4957 H   0  0  0  0  0  0  0  0  0  0  0  0
   -0.2498   -1.1767    0.5832 H   0  0  0  0  0  0  0  0  0  0  0  0
  1  2  1  0
  1  5  1  0
  2  3  1  0
  2  6  1  0
  2 20  1  0
  3  4  3  0
  4  7  1  0
  8  9  1  0
  8 17  1  0
  8 18  1  0
  8 19  1  0
  9 10  1  0
  9 11  1  0
 10 21  1  0
 10 22  1  0
 10 23  1  0
 11 12  2  0
 11 16  1  0
 12 13  1  0
 12 24  1  0
 13 14  2  0
 13 25  1  0
 14 15  1  0
 14 26  1  0
 15 16  2  0
 15 27  1  0
 16 28  1  0
M  RAD  1   9   2
M  END
>  <reaction>  (15) 
rxn_1555

>  <mol_properties>  (15) 
{"0": {"label": "*4", "atom_type": "S2s"}, "1": {"label": "*3", "atom_type": "Cs"}, "8": {"label": "*1", "atom_type": "Cs"}, "10": {"label": "*0", "atom_type": "Cd"}, "19": {"label": "*2", "atom_type": "H0"}}

>  <type>  (15) 
unop_11

>  <geom_source>  (15) 
Heuristics

$$$$

     RDKit          3D

 28 27  0  0  0  0  0  0  0  0999 V2000
   -2.8610   -0.7413   -1.3036 S   0  0  0  0  0  0  0  0  0  0  0  0
   -1.9905   -0.2866    0.2335 C   0  0  0  0  0  0  0  0  0  0  0  0
   -2.7425    0.6085    1.0950 C   0  0  0  0  0  0  0  0  0  0  0  0
   -3.3623    1.3462    1.8051 C   0  0  0  0  0  0  0  0  0  0  0  0
   -3.9326   -1.2810   -0.7095 H   0  0  0  0  0  0  0  0  0  0  0  0
   -1.7174   -1.1894    0.7791 H   0  0  0  0  0  0  0  0  0  0  0  0
   -3.9130    2.0018    2.4361 H   0  0  0  0  0  0  0  0  0  0  0  0
    0.2242    0.8701   -2.0904 C   0  0  0  0  0  0  0  0  0  0  0  0
    0.2242    0.8701   -0.5607 C   0  0  0  0  0  3  0  0  0  0  0  0
    0.2242    2.2977   -0.0113 C   0  0  0  0  0  0  0  0  0  0  0  0
    1.3735    0.0572   -0.0026 C   0  0  0  0  0  0  0  0  0  0  0  0
    2.6966    0.4169   -0.2496 C   0  0  0  0  0  0  0  0  0  0  0  0
    3.7462   -0.3278    0.2618 C   0  0  0  0  0  0  0  0  0  0  0  0
    3.4931   -1.4526    1.0341 C   0  0  0  0  0  0  0  0  0  0  0  0
    2.1827   -1.8224    1.2879 C   0  0  0  0  0  0  0  0  0  0  0  0
    1.1355   -1.0717    0.7725 C   0  0  0  0  0  0  0  0  0  0  0  0
    1.1184    1.3603   -2.4821 H   0  0  0  0  0  0  0  0  0  0  0  0
    0.2011   -0.1473   -2.4838 H   0  0  0  0  0  0  0  0  0  0  0  0
   -0.6454    1.4073   -2.4747 H   0  0  0  0  0  0  0  0  0  0  0  0
   -0.8847    0.2909   -0.1631 H   0  0  0  0  0  0  0  0  0  0  0  0
   -0.6454    2.8493   -0.3746 H   0  0  0  0  0  0  0  0  0  0  0  0
    0.2011    2.2993    1.0795 H   0  0  0  0  0  0  0  0  0  0  0  0
    1.1184    2.8393   -0.3281 H   0  0  0  0  0  0  0  0  0  0  0  0
    2.9124    1.2927   -0.8509 H   0  0  0  0  0  0  0  0  0  0  0  0
    4.7671   -0.0297    0.0570 H   0  0  0  0  0  0  0  0  0  0  0  0
    4.3130   -2.0355    1.4343 H   0  0  0  0  0  0  0  0  0  0  0  0
    1.9720   -2.6981    1.8892 H   0  0  0  0  0  0  0  0  0  0  0  0
    0.1129   -1.3690    0.9767 H   0  0  0  0  0  0  0  0  0  0  0  0
  1  2  1  0
  1  5  1  0
  2  3  1  0
  2  6  1  0
  2 20  1  0
  3  4  3  0
  4  7  1  0
  8  9  1  0
  8 17  1  0
  8 18  1  0
  8 19  1  0
  9 10  1  0
  9 11  1  0
 10 21  1  0
 10 22  1  0
 10 23  1  0
 11 12  2  0
 11 16  1  0
 12 13  1  0
 12 24  1  0
 13 14  2  0
 13 25  1  0
 14 15  1  0
 14 26  1  0
 15 16  2  0
 15 27  1  0
 16 28  1  0
M  RAD  1   9   2
M  END
>  <reaction>  (16) 
rxn_1555

>  <mol_properties>  (16) 
{"0": {"label": "*4", "atom_type": "S2s"}, "1": {"label": "*3", "atom_type": "Cs"}, "8": {"label": "*1", "atom_type": "Cs"}, "10": {"label": "*0", "atom_type": "Cd"}, "19": {"label": "*2", "atom_type": "H0"}}

>  <type>  (16) 
unop_12

>  <geom_source>  (16) 
Heuristics

$$$$

     RDKit          3D

 28 27  0  0  0  0  0  0  0  0999 V2000
    1.7171    2.4462    0.0974 S   0  0  0  0  0  0  0  0  0  0  0  0
    0.8843   -1.6314   -0.1942 C   0  0  0  0  0  0  0  0  0  0  0  0
   -0.5087   -1.0420   -2.2363 C   0  0  0  0  0  0  0  0  0  0  0  0
    2.2086    0.8044   -0.5051 C   0  0  0  0  0  3  0  0  0  0  0  0
    0.0189   -0.5729   -0.8796 C   0  0  0  0  0  0  0  0  0  0  0  0
   -1.0803   -0.0665    0.0163 C   0  0  0  0  0  0  0  0  0  0  0  0
   -2.1073   -0.9126    0.4728 C   0  0  0  0  0  0  0  0  0  0  0  0
   -1.0759    1.2814    0.4023 C   0  0  0  0  0  0  0  0  0  0  0  0
   -3.1136   -0.4106    1.3041 C   0  0  0  0  0  0  0  0  0  0  0  0
   -3.1020    0.9343    1.6843 C   0  0  0  0  0  0  0  0  0  0  0  0
   -2.0841    1.7795    1.2338 C   0  0  0  0  0  0  0  0  0  0  0  0
    3.2979    0.2785    0.3199 C   0  0  0  0  0  0  0  0  0  0  0  0
    4.1948   -0.1555    0.9985 C   0  0  0  0  0  0  0  0  0  0  0  0
    2.5437    0.8787   -1.5604 H   0  0  0  0  0  0  0  0  0  0  0  0
    1.1440   -0.0377   -0.4311 H   0  0  0  0  0  0  0  0  0  0  0  0
    1.7519   -1.8821   -0.8399 H   0  0  0  0  0  0  0  0  0  0  0  0
    1.2708   -1.2370    0.7693 H   0  0  0  0  0  0  0  0  0  0  0  0
    0.3001   -2.5561   -0.0011 H   0  0  0  0  0  0  0  0  0  0  0  0
   -1.1030   -0.2327   -2.7107 H   0  0  0  0  0  0  0  0  0  0  0  0
    0.3426   -1.2859   -2.9059 H   0  0  0  0  0  0  0  0  0  0  0  0
   -1.1471   -1.9439   -2.1225 H   0  0  0  0  0  0  0  0  0  0  0  0
   -2.1293   -1.9563    0.1866 H   0  0  0  0  0  0  0  0  0  0  0  0
   -3.9023   -1.0643    1.6535 H   0  0  0  0  0  0  0  0  0  0  0  0
   -0.2920    1.9455    0.0592 H   0  0  0  0  0  0  0  0  0  0  0  0
   -3.8816    1.3213    2.3278 H   0  0  0  0  0  0  0  0  0  0  0  0
   -2.0761    2.8208    1.5289 H   0  0  0  0  0  0  0  0  0  0  0  0
    2.9461    3.0330   -0.2624 H   0  0  0  0  0  0  0  0  0  0  0  0
    4.9822   -0.5362    1.5943 H   0  0  0  0  0  0  0  0  0  0  0  0
  1  4  1  0
  1 27  1  0
  2  5  1  0
  2 16  1  0
  2 17  1  0
  2 18  1  0
  3  5  1  0
  3 19  1  0
  3 20  1  0
  3 21  1  0
  4 12  1  0
  4 14  1  0
  5  6  1  0
  5 15  1  0
  6  7  2  0
  6  8  1  0
  7  9  1  0
  7 22  1  0
  8 11  2  0
  8 24  1  0
  9 10  2  0
  9 23  1  0
 10 11  1  0
 10 25  1  0
 11 26  1  0
 12 13  3  0
 13 28  1  0
M  RAD  1   4   2
M  END
>  <reaction>  (17) 
rxn_1555

>  <mol_properties>  (17) 
{"0": {"label": "*4", "atom_type": "S2s"}, "1": {"label": "*3", "atom_type": "Cs"}, "8": {"label": "*1", "atom_type": "Cs"}, "10": {"label": "*0", "atom_type": "Cd"}, "19": {"label": "*2", "atom_type": "H0"}}

>  <type>  (17) 
unop_13

>  <geom_source>  (17) 
AutoTST

$$$$
