
     RDKit          3D

 25 26  0  0  0  0  0  0  0  0999 V2000
    2.0298   -1.1515    0.0571 C   0  0  0  0  0  0  0  0  0  0  0  0
    2.2278    0.2445    0.6528 C   0  0  0  0  0  0  0  0  0  0  0  0
    1.2292    1.2625    0.0947 C   0  0  0  0  0  0  0  0  0  0  0  0
   -0.1869    0.7454    0.2762 C   0  0  0  0  0  0  0  0  0  0  0  0
   -1.3415    1.5501   -0.3122 C   0  0  0  0  0  0  0  0  0  0  0  0
   -2.5060    0.5338   -0.4178 C   0  0  0  0  0  0  0  0  0  0  0  0
   -1.8709   -0.8658   -0.2234 C   0  0  0  0  0  0  0  0  0  0  0  0
   -0.3715   -0.6265   -0.3693 C   0  0  0  0  0  0  0  0  0  0  0  0
    0.5898   -1.6500    0.2086 C   0  0  0  0  0  0  0  0  0  0  0  0
    2.2820   -1.1226   -1.0088 H   0  0  0  0  0  0  0  0  0  0  0  0
    2.7243   -1.8549    0.5221 H   0  0  0  0  0  0  0  0  0  0  0  0
    2.1030    0.1885    1.7400 H   0  0  0  0  0  0  0  0  0  0  0  0
    3.2514    0.5819    0.4743 H   0  0  0  0  0  0  0  0  0  0  0  0
    1.3611    2.2304    0.5855 H   0  0  0  0  0  0  0  0  0  0  0  0
    1.4198    1.4194   -0.9737 H   0  0  0  0  0  0  0  0  0  0  0  0
   -0.3675    0.6209    1.3539 H   0  0  0  0  0  0  0  0  0  0  0  0
   -1.5992    2.4249    0.2862 H   0  0  0  0  0  0  0  0  0  0  0  0
   -1.0595    1.9116   -1.3055 H   0  0  0  0  0  0  0  0  0  0  0  0
   -3.2666    0.7244    0.3399 H   0  0  0  0  0  0  0  0  0  0  0  0
   -3.0030    0.6112   -1.3853 H   0  0  0  0  0  0  0  0  0  0  0  0
   -2.2549   -1.6039   -0.9288 H   0  0  0  0  0  0  0  0  0  0  0  0
   -2.0796   -1.2429    0.7821 H   0  0  0  0  0  0  0  0  0  0  0  0
   -0.1432   -0.5121   -1.4391 H   0  0  0  0  0  0  0  0  0  0  0  0
    0.4720   -2.6209   -0.2799 H   0  0  0  0  0  0  0  0  0  0  0  0
    0.3601   -1.7986    1.2704 H   0  0  0  0  0  0  0  0  0  0  0  0
  1  2  1  0
  1  9  1  0
  1 10  1  0
  1 11  1  0
  2  3  1  0
  2 12  1  0
  2 13  1  0
  3  4  1  0
  3 14  1  0
  3 15  1  0
  4  5  1  0
  4  8  1  0
  4 16  1  0
  5  6  1  0
  5 17  1  0
  5 18  1  0
  6  7  1  0
  6 19  1  0
  6 20  1  0
  7  8  1  0
  7 21  1  0
  7 22  1  0
  8  9  1  0
  8 23  1  0
  9 24  1  0
  9 25  1  0
M  END
>  <reaction>  (1) 
rxn_605

>  <mol_properties>  (1) 
{"5": {"label": "donator", "atom_type": "Cs"}, "18": {"label": "d_hydrogen", "atom_type": "H0"}}

>  <type>  (1) 
r1h

$$$$

     RDKit          3D

 14 13  0  0  0  0  0  0  0  0999 V2000
    1.0767   -1.6838    1.2931 C   0  0  0  0  0  0  0  0  0  0  0  0
    1.0020   -0.3665    0.9163 C   0  0  0  0  0  0  0  0  0  0  0  0
    1.3965    0.7260    1.6806 C   0  0  0  0  0  3  0  0  0  0  0  0
    1.2666    2.1197    1.1619 C   0  0  0  0  0  0  0  0  0  0  0  0
    1.9670    0.5479    3.0536 C   0  0  0  0  0  0  0  0  0  0  0  0
    0.7448   -2.4705    0.6300 H   0  0  0  0  0  0  0  0  0  0  0  0
    1.4663   -1.9826    2.2578 H   0  0  0  0  0  0  0  0  0  0  0  0
    0.5980   -0.1511   -0.0695 H   0  0  0  0  0  0  0  0  0  0  0  0
    0.6296    2.7241    1.8172 H   0  0  0  0  0  0  0  0  0  0  0  0
    2.2410    2.6200    1.1341 H   0  0  0  0  0  0  0  0  0  0  0  0
    0.8426    2.1448    0.1579 H   0  0  0  0  0  0  0  0  0  0  0  0
    2.8745   -0.0634    3.0328 H   0  0  0  0  0  0  0  0  0  0  0  0
    1.2599    0.0408    3.7173 H   0  0  0  0  0  0  0  0  0  0  0  0
    2.2205    1.5071    3.5054 H   0  0  0  0  0  0  0  0  0  0  0  0
  1  2  2  3
  1  6  1  0
  1  7  1  0
  2  3  1  0
  2  8  1  0
  3  4  1  0
  3  5  1  0
  4  9  1  0
  4 10  1  0
  4 11  1  0
  5 12  1  0
  5 13  1  0
  5 14  1  0
M  RAD  1   3   2
M  END
>  <reaction>  (2) 
rxn_605

>  <mol_properties>  (2) 
{"2": {"label": "acceptor", "atom_type": "Cs"}}

>  <type>  (2) 
r2

$$$$

     RDKit          3D

 15 14  0  0  0  0  0  0  0  0999 V2000
    2.1256    0.4849   -0.6284 C   0  0  0  0  0  0  0  0  0  0  0  0
    1.1128    0.2141    0.1794 C   0  0  0  0  0  0  0  0  0  0  0  0
   -0.3017   -0.0425   -0.2513 C   0  0  0  0  0  0  0  0  0  0  0  0
   -1.2427    1.0075    0.3423 C   0  0  0  0  0  0  0  0  0  0  0  0
   -0.7381   -1.4526    0.1504 C   0  0  0  0  0  0  0  0  0  0  0  0
    3.1243    0.6602   -0.2486 H   0  0  0  0  0  0  0  0  0  0  0  0
    1.9908    0.5411   -1.7036 H   0  0  0  0  0  0  0  0  0  0  0  0
    1.2888    0.1665    1.2533 H   0  0  0  0  0  0  0  0  0  0  0  0
   -0.3426    0.0343   -1.3424 H   0  0  0  0  0  0  0  0  0  0  0  0
   -0.9570    2.0133    0.0315 H   0  0  0  0  0  0  0  0  0  0  0  0
   -1.2189    0.9728    1.4350 H   0  0  0  0  0  0  0  0  0  0  0  0
   -2.2723    0.8287    0.0254 H   0  0  0  0  0  0  0  0  0  0  0  0
   -0.6964   -1.5744    1.2363 H   0  0  0  0  0  0  0  0  0  0  0  0
   -0.0911   -2.2079   -0.2978 H   0  0  0  0  0  0  0  0  0  0  0  0
   -1.7646   -1.6461   -0.1677 H   0  0  0  0  0  0  0  0  0  0  0  0
  1  2  2  3
  1  6  1  0
  1  7  1  0
  2  3  1  0
  2  8  1  0
  3  4  1  0
  3  5  1  0
  3  9  1  0
  4 10  1  0
  4 11  1  0
  4 12  1  0
  5 13  1  0
  5 14  1  0
  5 15  1  0
M  END
>  <reaction>  (3) 
rxn_605

>  <mol_properties>  (3) 
{"2": {"label": "acceptor", "atom_type": "Cs"}, "14": {"label": "a_hydrogen", "atom_type": "H0"}}

>  <type>  (3) 
r2h

$$$$

     RDKit          3D

 39 39  0  0  0  0  0  0  0  0999 V2000
   -1.8667    2.0577   -0.6320 C   0  0  0  0  0  0  0  0  0  0  0  0
   -0.6019    2.4710   -0.5283 C   0  0  0  0  0  0  0  0  0  0  0  0
    0.2307    2.4875    0.6826 C   0  0  0  0  0  0  0  0  0  0  0  0
   -0.4949    2.2976    1.9964 C   0  0  0  0  0  0  0  0  0  0  0  0
    1.2513    3.6089    0.7106 C   0  0  0  0  0  0  0  0  0  0  0  0
   -2.3760    2.0599   -1.5870 H   0  0  0  0  0  0  0  0  0  0  0  0
   -2.4358    1.7137    0.2230 H   0  0  0  0  0  0  0  0  0  0  0  0
   -0.1047    2.8125   -1.4338 H   0  0  0  0  0  0  0  0  0  0  0  0
    0.2171    2.2404    2.8218 H   0  0  0  0  0  0  0  0  0  0  0  0
   -1.1727    3.1345    2.1939 H   0  0  0  0  0  0  0  0  0  0  0  0
   -1.0874    1.3812    2.0053 H   0  0  0  0  0  0  0  0  0  0  0  0
    0.7699    4.5782    0.8752 H   0  0  0  0  0  0  0  0  0  0  0  0
    1.8015    3.6649   -0.2311 H   0  0  0  0  0  0  0  0  0  0  0  0
    1.9746    3.4553    1.5145 H   0  0  0  0  0  0  0  0  0  0  0  0
   -1.0631   -3.0143   -1.5767 C   0  0  0  0  0  0  0  0  0  0  0  0
   -1.7334   -2.9093   -0.2039 C   0  0  0  0  0  0  0  0  0  0  0  0
   -0.7437   -2.5359    0.9046 C   0  0  0  0  0  0  0  0  0  0  0  0
   -0.0070   -1.2695    0.5122 C   0  0  1  0  0  0  0  0  0  0  0  0
    1.0949   -0.7225    1.4124 C   0  0  0  0  0  0  0  0  0  0  0  0
    1.7807    0.2729    0.4985 C   0  0  0  0  0  3  0  0  0  0  0  0
    1.5729   -0.1724   -0.9414 C   0  0  0  0  0  0  0  0  0  0  0  0
    0.7150   -1.4390   -0.8258 C   0  0  2  0  0  0  0  0  0  0  0  0
   -0.2671   -1.7567   -1.9391 C   0  0  0  0  0  0  0  0  0  0  0  0
   -0.3818   -3.8725   -1.5747 H   0  0  0  0  0  0  0  0  0  0  0  0
   -1.8169   -3.2179   -2.3407 H   0  0  0  0  0  0  0  0  0  0  0  0
   -2.5141   -2.1417   -0.2477 H   0  0  0  0  0  0  0  0  0  0  0  0
   -2.2340   -3.8501    0.0361 H   0  0  0  0  0  0  0  0  0  0  0  0
   -1.2711   -2.4078    1.8537 H   0  0  0  0  0  0  0  0  0  0  0  0
   -0.0215   -3.3483    1.0480 H   0  0  0  0  0  0  0  0  0  0  0  0
   -0.7499   -0.4710    0.3779 H   0  0  0  0  0  0  0  0  0  0  0  0
    0.7258   -0.2746    2.3374 H   0  0  0  0  0  0  0  0  0  0  0  0
    1.7821   -1.5305    1.6978 H   0  0  0  0  0  0  0  0  0  0  0  0
    0.9743    1.4385    0.5872 H   0  0  0  0  0  0  0  0  0  0  0  0
    2.7590    0.6486    0.7867 H   0  0  0  0  0  0  0  0  0  0  0  0
    2.5143   -0.3515   -1.4658 H   0  0  0  0  0  0  0  0  0  0  0  0
    1.0362    0.5939   -1.5142 H   0  0  0  0  0  0  0  0  0  0  0  0
    1.3914   -2.2981   -0.7150 H   0  0  0  0  0  0  0  0  0  0  0  0
    0.2486   -1.8987   -2.8927 H   0  0  0  0  0  0  0  0  0  0  0  0
   -0.9475   -0.9065   -2.0655 H   0  0  0  0  0  0  0  0  0  0  0  0
  1  2  2  3
  1  6  1  0
  1  7  1  0
  2  3  1  0
  2  8  1  0
  3  4  1  0
  3  5  1  0
  3 33  1  0
  4  9  1  0
  4 10  1  0
  4 11  1  0
  5 12  1  0
  5 13  1  0
  5 14  1  0
 15 16  1  0
 15 23  1  0
 15 24  1  0
 15 25  1  0
 16 17  1  0
 16 26  1  0
 16 27  1  0
 17 18  1  0
 17 28  1  0
 17 29  1  0
 18 19  1  0
 18 22  1  0
 18 30  1  6
 19 20  1  0
 19 31  1  0
 19 32  1  0
 20 21  1  0
 20 34  1  0
 21 22  1  0
 21 35  1  0
 21 36  1  0
 22 23  1  0
 22 37  1  1
 23 38  1  0
 23 39  1  0
M  RAD  1  20   2
M  END
>  <reaction>  (4) 
rxn_605

>  <mol_properties>  (4) 
{"1": {"label": "*0", "atom_type": "Cd"}, "2": {"label": "*1", "atom_type": "Cs"}, "18": {"label": "*4", "atom_type": "Cs"}, "19": {"label": "*3", "atom_type": "Cs"}, "32": {"label": "*2", "atom_type": "H0"}}

>  <type>  (4) 
ts

$$$$

     RDKit          3D

 39 39  0  0  0  0  0  0  0  0999 V2000
    2.3529    3.6830    0.6035 C   0  0  0  0  0  0  0  0  0  0  0  0
    1.0514    3.8405    0.4220 C   0  0  0  0  0  0  0  0  0  0  0  0
    0.0106    2.7744    0.6023 C   0  0  0  0  0  3  0  0  0  0  0  0
   -0.7201    2.5090   -0.7152 C   0  0  0  0  0  0  0  0  0  0  0  0
   -0.9773    3.1688    1.7017 C   0  0  0  0  0  0  0  0  0  0  0  0
    3.0501    4.4982    0.4552 H   0  0  0  0  0  0  0  0  0  0  0  0
    2.7691    2.7285    0.9084 H   0  0  0  0  0  0  0  0  0  0  0  0
    0.6725    4.8146    0.1158 H   0  0  0  0  0  0  0  0  0  0  0  0
   -1.4736    1.7285   -0.5902 H   0  0  0  0  0  0  0  0  0  0  0  0
   -1.2293    3.4122   -1.0625 H   0  0  0  0  0  0  0  0  0  0  0  0
   -0.0249    2.1941   -1.4947 H   0  0  0  0  0  0  0  0  0  0  0  0
   -1.4957    4.0954    1.4401 H   0  0  0  0  0  0  0  0  0  0  0  0
   -0.4663    3.3263    2.6526 H   0  0  0  0  0  0  0  0  0  0  0  0
   -1.7323    2.3923    1.8412 H   0  0  0  0  0  0  0  0  0  0  0  0
   -1.1722   -3.7660   -1.0533 C   0  0  0  0  0  0  0  0  0  0  0  0
   -1.1722   -3.7660    0.4773 C   0  0  0  0  0  0  0  0  0  0  0  0
   -0.0290   -2.9296    1.0593 C   0  0  0  0  0  0  0  0  0  0  0  0
   -0.0687   -1.5287    0.4752 C   0  0  0  0  0  0  0  0  0  0  0  0
    1.0504   -0.5549    0.8306 C   0  0  0  0  0  0  0  0  0  0  0  0
    1.0004    0.5157   -0.2880 C   0  0  0  0  0  0  0  0  0  0  0  0
    0.1070   -0.0762   -1.4066 C   0  0  0  0  0  0  0  0  0  0  0  0
   -0.0181   -1.5543   -1.0512 C   0  0  0  0  0  0  0  0  0  0  0  0
   -1.1722   -2.3496   -1.6353 C   0  0  0  0  0  0  0  0  0  0  0  0
   -0.2797   -4.2928   -1.4092 H   0  0  0  0  0  0  0  0  0  0  0  0
   -2.0330   -4.3271   -1.4240 H   0  0  0  0  0  0  0  0  0  0  0  0
   -2.1243   -3.3569    0.8332 H   0  0  0  0  0  0  0  0  0  0  0  0
   -1.1166   -4.7921    0.8480 H   0  0  0  0  0  0  0  0  0  0  0  0
   -0.0963   -2.9037    2.1501 H   0  0  0  0  0  0  0  0  0  0  0  0
    0.9325   -3.3948    0.8113 H   0  0  0  0  0  0  0  0  0  0  0  0
   -1.0274   -1.0698    0.7577 H   0  0  0  0  0  0  0  0  0  0  0  0
    0.9416   -0.1269    1.8281 H   0  0  0  0  0  0  0  0  0  0  0  0
    2.0080   -1.0834    0.8102 H   0  0  0  0  0  0  0  0  0  0  0  0
    0.5065    1.6429    0.1563 H   0  0  0  0  0  0  0  0  0  0  0  0
    2.0016    0.7382   -0.6583 H   0  0  0  0  0  0  0  0  0  0  0  0
    0.5166    0.0887   -2.4040 H   0  0  0  0  0  0  0  0  0  0  0  0
   -0.8851    0.3846   -1.3862 H   0  0  0  0  0  0  0  0  0  0  0  0
    0.9183   -2.0571   -1.3337 H   0  0  0  0  0  0  0  0  0  0  0  0
   -1.1115   -2.3886   -2.7261 H   0  0  0  0  0  0  0  0  0  0  0  0
   -2.1153   -1.8483   -1.3872 H   0  0  0  0  0  0  0  0  0  0  0  0
  1  2  2  3
  1  6  1  0
  1  7  1  0
  2  3  1  0
  2  8  1  0
  3  4  1  0
  3  5  1  0
  4  9  1  0
  4 10  1  0
  4 11  1  0
  5 12  1  0
  5 13  1  0
  5 14  1  0
 15 16  1  0
 15 23  1  0
 15 24  1  0
 15 25  1  0
 16 17  1  0
 16 26  1  0
 16 27  1  0
 17 18  1  0
 17 28  1  0
 17 29  1  0
 18 19  1  0
 18 22  1  0
 18 30  1  0
 19 20  1  0
 19 31  1  0
 19 32  1  0
 20 21  1  0
 20 33  1  0
 20 34  1  0
 21 22  1  0
 21 35  1  0
 21 36  1  0
 22 23  1  0
 22 37  1  0
 23 38  1  0
 23 39  1  0
M  RAD  1   3   2
M  END
>  <reaction>  (5) 
rxn_605

>  <mol_properties>  (5) 
{"1": {"label": "*0", "atom_type": "Cd"}, "2": {"label": "*1", "atom_type": "Cs"}, "18": {"label": "*4", "atom_type": "Cs"}, "19": {"label": "*3", "atom_type": "Cs"}, "32": {"label": "*2", "atom_type": "H0"}}

>  <type>  (5) 
unop_1

>  <geom_source>  (5) 
Heuristics

$$$$

     RDKit          3D

 39 39  0  0  0  0  0  0  0  0999 V2000
    0.7900    1.9943    2.6352 C   0  0  0  0  0  0  0  0  0  0  0  0
    0.4201    2.9943    1.8512 C   0  0  0  0  0  0  0  0  0  0  0  0
    0.0781    2.8797    0.3944 C   0  0  0  0  0  3  0  0  0  0  0  0
    1.0372    3.7206   -0.4502 C   0  0  0  0  0  0  0  0  0  0  0  0
   -1.3725    3.2989    0.1488 C   0  0  0  0  0  0  0  0  0  0  0  0
    1.0230    2.1486    3.6814 H   0  0  0  0  0  0  0  0  0  0  0  0
    0.8732    0.9809    2.2565 H   0  0  0  0  0  0  0  0  0  0  0  0
    0.3484    3.9976    2.2692 H   0  0  0  0  0  0  0  0  0  0  0  0
    0.7964    3.6343   -1.5118 H   0  0  0  0  0  0  0  0  0  0  0  0
    0.9669    4.7770   -0.1766 H   0  0  0  0  0  0  0  0  0  0  0  0
    2.0710    3.4038   -0.3053 H   0  0  0  0  0  0  0  0  0  0  0  0
   -1.5281    4.3403    0.4435 H   0  0  0  0  0  0  0  0  0  0  0  0
   -2.0639    2.6801    0.7225 H   0  0  0  0  0  0  0  0  0  0  0  0
   -1.6278    3.2100   -0.9092 H   0  0  0  0  0  0  0  0  0  0  0  0
   -1.1047   -3.6607   -1.2612 C   0  0  0  0  0  0  0  0  0  0  0  0
   -1.1047   -3.6607    0.2694 C   0  0  0  0  0  0  0  0  0  0  0  0
    0.0385   -2.8243    0.8514 C   0  0  0  0  0  0  0  0  0  0  0  0
   -0.0011   -1.4233    0.2673 C   0  0  0  0  0  0  0  0  0  0  0  0
    1.1179   -0.4496    0.6228 C   0  0  0  0  0  0  0  0  0  0  0  0
    1.0679    0.6210   -0.4959 C   0  0  0  0  0  0  0  0  0  0  0  0
    0.1745    0.0292   -1.6145 C   0  0  0  0  0  0  0  0  0  0  0  0
    0.0494   -1.4490   -1.2590 C   0  0  0  0  0  0  0  0  0  0  0  0
   -1.1047   -2.2443   -1.8432 C   0  0  0  0  0  0  0  0  0  0  0  0
   -0.2122   -4.1875   -1.6171 H   0  0  0  0  0  0  0  0  0  0  0  0
   -1.9655   -4.2218   -1.6319 H   0  0  0  0  0  0  0  0  0  0  0  0
   -2.0568   -3.2516    0.6254 H   0  0  0  0  0  0  0  0  0  0  0  0
   -1.0491   -4.6868    0.6402 H   0  0  0  0  0  0  0  0  0  0  0  0
   -0.0288   -2.7984    1.9423 H   0  0  0  0  0  0  0  0  0  0  0  0
    1.0000   -3.2895    0.6034 H   0  0  0  0  0  0  0  0  0  0  0  0
   -0.9599   -0.9645    0.5499 H   0  0  0  0  0  0  0  0  0  0  0  0
    1.0091   -0.0216    1.6202 H   0  0  0  0  0  0  0  0  0  0  0  0
    2.0755   -0.9781    0.6023 H   0  0  0  0  0  0  0  0  0  0  0  0
    0.5740    1.7483   -0.0515 H   0  0  0  0  0  0  0  0  0  0  0  0
    2.0691    0.8435   -0.8661 H   0  0  0  0  0  0  0  0  0  0  0  0
    0.5841    0.1940   -2.6119 H   0  0  0  0  0  0  0  0  0  0  0  0
   -0.8176    0.4899   -1.5941 H   0  0  0  0  0  0  0  0  0  0  0  0
    0.9858   -1.9518   -1.5416 H   0  0  0  0  0  0  0  0  0  0  0  0
   -1.0440   -2.2832   -2.9340 H   0  0  0  0  0  0  0  0  0  0  0  0
   -2.0478   -1.7430   -1.5951 H   0  0  0  0  0  0  0  0  0  0  0  0
  1  2  2  3
  1  6  1  0
  1  7  1  0
  2  3  1  0
  2  8  1  0
  3  4  1  0
  3  5  1  0
  4  9  1  0
  4 10  1  0
  4 11  1  0
  5 12  1  0
  5 13  1  0
  5 14  1  0
 15 16  1  0
 15 23  1  0
 15 24  1  0
 15 25  1  0
 16 17  1  0
 16 26  1  0
 16 27  1  0
 17 18  1  0
 17 28  1  0
 17 29  1  0
 18 19  1  0
 18 22  1  0
 18 30  1  0
 19 20  1  0
 19 31  1  0
 19 32  1  0
 20 21  1  0
 20 33  1  0
 20 34  1  0
 21 22  1  0
 21 35  1  0
 21 36  1  0
 22 23  1  0
 22 37  1  0
 23 38  1  0
 23 39  1  0
M  RAD  1   3   2
M  END
>  <reaction>  (6) 
rxn_605

>  <mol_properties>  (6) 
{"1": {"label": "*0", "atom_type": "Cd"}, "2": {"label": "*1", "atom_type": "Cs"}, "18": {"label": "*4", "atom_type": "Cs"}, "19": {"label": "*3", "atom_type": "Cs"}, "32": {"label": "*2", "atom_type": "H0"}}

>  <type>  (6) 
unop_2

>  <geom_source>  (6) 
Heuristics

$$$$

     RDKit          3D

 39 39  0  0  0  0  0  0  0  0999 V2000
    1.8738    3.8570   -0.7027 C   0  0  0  0  0  0  0  0  0  0  0  0
    0.6847    3.8904   -0.1225 C   0  0  0  0  0  0  0  0  0  0  0  0
    0.0655    2.7709    0.6621 C   0  0  0  0  0  3  0  0  0  0  0  0
   -1.2351    2.3083    0.0027 C   0  0  0  0  0  0  0  0  0  0  0  0
   -0.1821    3.2019    2.1089 C   0  0  0  0  0  0  0  0  0  0  0  0
    2.2605    4.7040   -1.2554 H   0  0  0  0  0  0  0  0  0  0  0  0
    2.5056    2.9767   -0.6451 H   0  0  0  0  0  0  0  0  0  0  0  0
    0.0802    4.7929   -0.2032 H   0  0  0  0  0  0  0  0  0  0  0  0
   -1.6853    1.4886    0.5665 H   0  0  0  0  0  0  0  0  0  0  0  0
   -1.9604    3.1257   -0.0349 H   0  0  0  0  0  0  0  0  0  0  0  0
   -1.0594    1.9673   -1.0186 H   0  0  0  0  0  0  0  0  0  0  0  0
   -0.8701    4.0509    2.1459 H   0  0  0  0  0  0  0  0  0  0  0  0
    0.7474    3.5007    2.5955 H   0  0  0  0  0  0  0  0  0  0  0  0
   -0.6261    2.3876    2.6853 H   0  0  0  0  0  0  0  0  0  0  0  0
   -1.1173   -3.7695   -0.9935 C   0  0  0  0  0  0  0  0  0  0  0  0
   -1.1173   -3.7695    0.5371 C   0  0  0  0  0  0  0  0  0  0  0  0
    0.0258   -2.9331    1.1191 C   0  0  0  0  0  0  0  0  0  0  0  0
   -0.0138   -1.5322    0.5349 C   0  0  0  0  0  0  0  0  0  0  0  0
    1.1053   -0.5584    0.8904 C   0  0  0  0  0  0  0  0  0  0  0  0
    1.0553    0.5122   -0.2282 C   0  0  0  0  0  0  0  0  0  0  0  0
    0.1618   -0.0797   -1.3469 C   0  0  0  0  0  0  0  0  0  0  0  0
    0.0368   -1.5578   -0.9914 C   0  0  0  0  0  0  0  0  0  0  0  0
   -1.1173   -2.3531   -1.5755 C   0  0  0  0  0  0  0  0  0  0  0  0
   -0.2248   -4.2963   -1.3495 H   0  0  0  0  0  0  0  0  0  0  0  0
   -1.9782   -4.3306   -1.3643 H   0  0  0  0  0  0  0  0  0  0  0  0
   -2.0694   -3.3604    0.8930 H   0  0  0  0  0  0  0  0  0  0  0  0
   -1.0617   -4.7956    0.9078 H   0  0  0  0  0  0  0  0  0  0  0  0
   -0.0414   -2.9072    2.2099 H   0  0  0  0  0  0  0  0  0  0  0  0
    0.9874   -3.3983    0.8710 H   0  0  0  0  0  0  0  0  0  0  0  0
   -0.9726   -1.0733    0.8175 H   0  0  0  0  0  0  0  0  0  0  0  0
    0.9964   -0.1304    1.8878 H   0  0  0  0  0  0  0  0  0  0  0  0
    2.0629   -1.0869    0.8700 H   0  0  0  0  0  0  0  0  0  0  0  0
    0.5613    1.6394    0.2161 H   0  0  0  0  0  0  0  0  0  0  0  0
    2.0565    0.7347   -0.5985 H   0  0  0  0  0  0  0  0  0  0  0  0
    0.5715    0.0852   -2.3443 H   0  0  0  0  0  0  0  0  0  0  0  0
   -0.8302    0.3811   -1.3264 H   0  0  0  0  0  0  0  0  0  0  0  0
    0.9732   -2.0606   -1.2740 H   0  0  0  0  0  0  0  0  0  0  0  0
   -1.0566   -2.3921   -2.6664 H   0  0  0  0  0  0  0  0  0  0  0  0
   -2.0604   -1.8518   -1.3275 H   0  0  0  0  0  0  0  0  0  0  0  0
  1  2  2  3
  1  6  1  0
  1  7  1  0
  2  3  1  0
  2  8  1  0
  3  4  1  0
  3  5  1  0
  4  9  1  0
  4 10  1  0
  4 11  1  0
  5 12  1  0
  5 13  1  0
  5 14  1  0
 15 16  1  0
 15 23  1  0
 15 24  1  0
 15 25  1  0
 16 17  1  0
 16 26  1  0
 16 27  1  0
 17 18  1  0
 17 28  1  0
 17 29  1  0
 18 19  1  0
 18 22  1  0
 18 30  1  0
 19 20  1  0
 19 31  1  0
 19 32  1  0
 20 21  1  0
 20 33  1  0
 20 34  1  0
 21 22  1  0
 21 35  1  0
 21 36  1  0
 22 23  1  0
 22 37  1  0
 23 38  1  0
 23 39  1  0
M  RAD  1   3   2
M  END
>  <reaction>  (7) 
rxn_605

>  <mol_properties>  (7) 
{"1": {"label": "*0", "atom_type": "Cd"}, "2": {"label": "*1", "atom_type": "Cs"}, "18": {"label": "*4", "atom_type": "Cs"}, "19": {"label": "*3", "atom_type": "Cs"}, "32": {"label": "*2", "atom_type": "H0"}}

>  <type>  (7) 
unop_3

>  <geom_source>  (7) 
Heuristics

$$$$

     RDKit          3D

 39 39  0  0  0  0  0  0  0  0999 V2000
   -1.5184    1.5293    1.5554 C   0  0  0  0  0  0  0  0  0  0  0  0
   -1.0979    2.6622    1.0155 C   0  0  0  0  0  0  0  0  0  0  0  0
    0.2934    2.9283    0.5200 C   0  0  0  0  0  3  0  0  0  0  0  0
    0.9313    4.0780    1.3020 C   0  0  0  0  0  0  0  0  0  0  0  0
    0.2806    3.2322   -0.9793 C   0  0  0  0  0  0  0  0  0  0  0  0
   -2.5398    1.4053    1.8927 H   0  0  0  0  0  0  0  0  0  0  0  0
   -0.8525    0.6818    1.6797 H   0  0  0  0  0  0  0  0  0  0  0  0
   -1.7972    3.4903    0.9080 H   0  0  0  0  0  0  0  0  0  0  0  0
    1.9468    4.2702    0.9495 H   0  0  0  0  0  0  0  0  0  0  0  0
    0.3540    4.9979    1.1749 H   0  0  0  0  0  0  0  0  0  0  0  0
    0.9745    3.8527    2.3686 H   0  0  0  0  0  0  0  0  0  0  0  0
   -0.3198    4.1222   -1.1872 H   0  0  0  0  0  0  0  0  0  0  0  0
   -0.1421    2.4015   -1.5461 H   0  0  0  0  0  0  0  0  0  0  0  0
    1.2922    3.4194   -1.3456 H   0  0  0  0  0  0  0  0  0  0  0  0
   -0.8893   -3.6121   -1.1357 C   0  0  0  0  0  0  0  0  0  0  0  0
   -0.8893   -3.6121    0.3950 C   0  0  0  0  0  0  0  0  0  0  0  0
    0.2538   -2.7757    0.9769 C   0  0  0  0  0  0  0  0  0  0  0  0
    0.2142   -1.3748    0.3928 C   0  0  0  0  0  0  0  0  0  0  0  0
    1.3332   -0.4010    0.7483 C   0  0  0  0  0  0  0  0  0  0  0  0
    1.2833    0.6696   -0.3704 C   0  0  0  0  0  0  0  0  0  0  0  0
    0.3898    0.0777   -1.4890 C   0  0  0  0  0  0  0  0  0  0  0  0
    0.2647   -1.4004   -1.1335 C   0  0  0  0  0  0  0  0  0  0  0  0
   -0.8893   -2.1957   -1.7176 C   0  0  0  0  0  0  0  0  0  0  0  0
    0.0031   -4.1389   -1.4916 H   0  0  0  0  0  0  0  0  0  0  0  0
   -1.7502   -4.1732   -1.5064 H   0  0  0  0  0  0  0  0  0  0  0  0
   -1.8415   -3.2030    0.7509 H   0  0  0  0  0  0  0  0  0  0  0  0
   -0.8338   -4.6382    0.7657 H   0  0  0  0  0  0  0  0  0  0  0  0
    0.1865   -2.7498    2.0678 H   0  0  0  0  0  0  0  0  0  0  0  0
    1.2153   -3.2409    0.7289 H   0  0  0  0  0  0  0  0  0  0  0  0
   -0.7446   -0.9159    0.6754 H   0  0  0  0  0  0  0  0  0  0  0  0
    1.2244    0.0270    1.7457 H   0  0  0  0  0  0  0  0  0  0  0  0
    2.2908   -0.9295    0.7278 H   0  0  0  0  0  0  0  0  0  0  0  0
    0.7893    1.7968    0.0740 H   0  0  0  0  0  0  0  0  0  0  0  0
    2.2845    0.8921   -0.7406 H   0  0  0  0  0  0  0  0  0  0  0  0
    0.7994    0.2426   -2.4864 H   0  0  0  0  0  0  0  0  0  0  0  0
   -0.6023    0.5385   -1.4686 H   0  0  0  0  0  0  0  0  0  0  0  0
    1.2012   -1.9032   -1.4161 H   0  0  0  0  0  0  0  0  0  0  0  0
   -0.8287   -2.2347   -2.8085 H   0  0  0  0  0  0  0  0  0  0  0  0
   -1.8325   -1.6944   -1.4696 H   0  0  0  0  0  0  0  0  0  0  0  0
  1  2  2  3
  1  6  1  0
  1  7  1  0
  2  3  1  0
  2  8  1  0
  3  4  1  0
  3  5  1  0
  4  9  1  0
  4 10  1  0
  4 11  1  0
  5 12  1  0
  5 13  1  0
  5 14  1  0
 15 16  1  0
 15 23  1  0
 15 24  1  0
 15 25  1  0
 16 17  1  0
 16 26  1  0
 16 27  1  0
 17 18  1  0
 17 28  1  0
 17 29  1  0
 18 19  1  0
 18 22  1  0
 18 30  1  0
 19 20  1  0
 19 31  1  0
 19 32  1  0
 20 21  1  0
 20 33  1  0
 20 34  1  0
 21 22  1  0
 21 35  1  0
 21 36  1  0
 22 23  1  0
 22 37  1  0
 23 38  1  0
 23 39  1  0
M  RAD  1   3   2
M  END
>  <reaction>  (8) 
rxn_605

>  <mol_properties>  (8) 
{"1": {"label": "*0", "atom_type": "Cd"}, "2": {"label": "*1", "atom_type": "Cs"}, "18": {"label": "*4", "atom_type": "Cs"}, "19": {"label": "*3", "atom_type": "Cs"}, "32": {"label": "*2", "atom_type": "H0"}}

>  <type>  (8) 
unop_4

>  <geom_source>  (8) 
Heuristics

$$$$

     RDKit          3D

 39 39  0  0  0  0  0  0  0  0999 V2000
    0.5302    3.5190   -1.6783 C   0  0  0  0  0  0  0  0  0  0  0  0
    0.1139    3.7637   -0.4461 C   0  0  0  0  0  0  0  0  0  0  0  0
    0.1291    2.7836    0.6903 C   0  0  0  0  0  3  0  0  0  0  0  0
   -1.2918    2.5231    1.1939 C   0  0  0  0  0  0  0  0  0  0  0  0
    1.0233    3.2894    1.8238 C   0  0  0  0  0  0  0  0  0  0  0  0
    0.4905    4.2752   -2.4523 H   0  0  0  0  0  0  0  0  0  0  0  0
    0.9273    2.5487   -1.9579 H   0  0  0  0  0  0  0  0  0  0  0  0
   -0.2785    4.7508   -0.2049 H   0  0  0  0  0  0  0  0  0  0  0  0
   -1.2860    1.8047    2.0163 H   0  0  0  0  0  0  0  0  0  0  0  0
   -1.7461    3.4474    1.5612 H   0  0  0  0  0  0  0  0  0  0  0  0
   -1.9259    2.1298    0.3982 H   0  0  0  0  0  0  0  0  0  0  0  0
    0.6509    4.2408    2.2134 H   0  0  0  0  0  0  0  0  0  0  0  0
    2.0465    3.4446    1.4791 H   0  0  0  0  0  0  0  0  0  0  0  0
    1.0430    2.5755    2.6500 H   0  0  0  0  0  0  0  0  0  0  0  0
   -1.0537   -3.7569   -0.9653 C   0  0  0  0  0  0  0  0  0  0  0  0
   -1.0537   -3.7569    0.5653 C   0  0  0  0  0  0  0  0  0  0  0  0
    0.0894   -2.9205    1.1473 C   0  0  0  0  0  0  0  0  0  0  0  0
    0.0498   -1.5195    0.5632 C   0  0  0  0  0  0  0  0  0  0  0  0
    1.1689   -0.5457    0.9186 C   0  0  0  0  0  0  0  0  0  0  0  0
    1.1189    0.5248   -0.2000 C   0  0  0  0  0  0  0  0  0  0  0  0
    0.2254   -0.0670   -1.3186 C   0  0  0  0  0  0  0  0  0  0  0  0
    0.1003   -1.5451   -0.9632 C   0  0  0  0  0  0  0  0  0  0  0  0
   -1.0537   -2.3404   -1.5473 C   0  0  0  0  0  0  0  0  0  0  0  0
   -0.1613   -4.2837   -1.3212 H   0  0  0  0  0  0  0  0  0  0  0  0
   -1.9146   -4.3180   -1.3360 H   0  0  0  0  0  0  0  0  0  0  0  0
   -2.0058   -3.3477    0.9212 H   0  0  0  0  0  0  0  0  0  0  0  0
   -0.9982   -4.7830    0.9360 H   0  0  0  0  0  0  0  0  0  0  0  0
    0.0222   -2.8945    2.2381 H   0  0  0  0  0  0  0  0  0  0  0  0
    1.0510   -3.3856    0.8992 H   0  0  0  0  0  0  0  0  0  0  0  0
   -0.9090   -1.0607    0.8457 H   0  0  0  0  0  0  0  0  0  0  0  0
    1.0600   -0.1178    1.9160 H   0  0  0  0  0  0  0  0  0  0  0  0
    2.1265   -1.0743    0.8982 H   0  0  0  0  0  0  0  0  0  0  0  0
    0.6249    1.6521    0.2443 H   0  0  0  0  0  0  0  0  0  0  0  0
    2.1201    0.7473   -0.5703 H   0  0  0  0  0  0  0  0  0  0  0  0
    0.6351    0.0979   -2.3161 H   0  0  0  0  0  0  0  0  0  0  0  0
   -0.7666    0.3937   -1.2982 H   0  0  0  0  0  0  0  0  0  0  0  0
    1.0368   -2.0480   -1.2457 H   0  0  0  0  0  0  0  0  0  0  0  0
   -0.9930   -2.3794   -2.6381 H   0  0  0  0  0  0  0  0  0  0  0  0
   -1.9969   -1.8391   -1.2993 H   0  0  0  0  0  0  0  0  0  0  0  0
  1  2  2  3
  1  6  1  0
  1  7  1  0
  2  3  1  0
  2  8  1  0
  3  4  1  0
  3  5  1  0
  4  9  1  0
  4 10  1  0
  4 11  1  0
  5 12  1  0
  5 13  1  0
  5 14  1  0
 15 16  1  0
 15 23  1  0
 15 24  1  0
 15 25  1  0
 16 17  1  0
 16 26  1  0
 16 27  1  0
 17 18  1  0
 17 28  1  0
 17 29  1  0
 18 19  1  0
 18 22  1  0
 18 30  1  0
 19 20  1  0
 19 31  1  0
 19 32  1  0
 20 21  1  0
 20 33  1  0
 20 34  1  0
 21 22  1  0
 21 35  1  0
 21 36  1  0
 22 23  1  0
 22 37  1  0
 23 38  1  0
 23 39  1  0
M  RAD  1   3   2
M  END
>  <reaction>  (9) 
rxn_605

>  <mol_properties>  (9) 
{"1": {"label": "*0", "atom_type": "Cd"}, "2": {"label": "*1", "atom_type": "Cs"}, "18": {"label": "*4", "atom_type": "Cs"}, "19": {"label": "*3", "atom_type": "Cs"}, "32": {"label": "*2", "atom_type": "H0"}}

>  <type>  (9) 
unop_5

>  <geom_source>  (9) 
Heuristics

$$$$

     RDKit          3D

 39 39  0  0  0  0  0  0  0  0999 V2000
   -1.9662    1.8050    0.5771 C   0  0  0  0  0  0  0  0  0  0  0  0
   -1.1915    2.8643    0.4054 C   0  0  0  0  0  0  0  0  0  0  0  0
    0.2955    2.8985    0.6046 C   0  0  0  0  0  3  0  0  0  0  0  0
    0.6667    3.8902    1.7088 C   0  0  0  0  0  0  0  0  0  0  0  0
    1.0048    3.2517   -0.7040 C   0  0  0  0  0  0  0  0  0  0  0  0
   -3.0359    1.8511    0.4150 H   0  0  0  0  0  0  0  0  0  0  0  0
   -1.5559    0.8497    0.8874 H   0  0  0  0  0  0  0  0  0  0  0  0
   -1.6416    3.8057    0.0932 H   0  0  0  0  0  0  0  0  0  0  0  0
    1.7477    3.9128    1.8621 H   0  0  0  0  0  0  0  0  0  0  0  0
    0.3459    4.9011    1.4429 H   0  0  0  0  0  0  0  0  0  0  0  0
    0.1909    3.6240    2.6537 H   0  0  0  0  0  0  0  0  0  0  0  0
    0.6960    4.2401   -1.0553 H   0  0  0  0  0  0  0  0  0  0  0  0
    0.7710    2.5284   -1.4865 H   0  0  0  0  0  0  0  0  0  0  0  0
    2.0878    3.2706   -0.5651 H   0  0  0  0  0  0  0  0  0  0  0  0
   -0.8872   -3.6420   -1.0510 C   0  0  0  0  0  0  0  0  0  0  0  0
   -0.8872   -3.6420    0.4796 C   0  0  0  0  0  0  0  0  0  0  0  0
    0.2559   -2.8056    1.0616 C   0  0  0  0  0  0  0  0  0  0  0  0
    0.2163   -1.4046    0.4775 C   0  0  0  0  0  0  0  0  0  0  0  0
    1.3353   -0.4308    0.8330 C   0  0  0  0  0  0  0  0  0  0  0  0
    1.2854    0.6398   -0.2857 C   0  0  0  0  0  0  0  0  0  0  0  0
    0.3919    0.0479   -1.4043 C   0  0  0  0  0  0  0  0  0  0  0  0
    0.2668   -1.4302   -1.0488 C   0  0  0  0  0  0  0  0  0  0  0  0
   -0.8872   -2.2255   -1.6330 C   0  0  0  0  0  0  0  0  0  0  0  0
    0.0052   -4.1688   -1.4069 H   0  0  0  0  0  0  0  0  0  0  0  0
   -1.7481   -4.2030   -1.4217 H   0  0  0  0  0  0  0  0  0  0  0  0
   -1.8394   -3.2328    0.8356 H   0  0  0  0  0  0  0  0  0  0  0  0
   -0.8317   -4.6680    0.8504 H   0  0  0  0  0  0  0  0  0  0  0  0
    0.1886   -2.7796    2.1525 H   0  0  0  0  0  0  0  0  0  0  0  0
    1.2174   -3.2707    0.8136 H   0  0  0  0  0  0  0  0  0  0  0  0
   -0.7425   -0.9457    0.7601 H   0  0  0  0  0  0  0  0  0  0  0  0
    1.2265   -0.0029    1.8304 H   0  0  0  0  0  0  0  0  0  0  0  0
    2.2930   -0.9593    0.8125 H   0  0  0  0  0  0  0  0  0  0  0  0
    0.7914    1.7670    0.1587 H   0  0  0  0  0  0  0  0  0  0  0  0
    2.2866    0.8622   -0.6559 H   0  0  0  0  0  0  0  0  0  0  0  0
    0.8015    0.2128   -2.4017 H   0  0  0  0  0  0  0  0  0  0  0  0
   -0.6001    0.5087   -1.3839 H   0  0  0  0  0  0  0  0  0  0  0  0
    1.2033   -1.9331   -1.3314 H   0  0  0  0  0  0  0  0  0  0  0  0
   -0.8266   -2.2645   -2.7238 H   0  0  0  0  0  0  0  0  0  0  0  0
   -1.8304   -1.7242   -1.3849 H   0  0  0  0  0  0  0  0  0  0  0  0
  1  2  2  3
  1  6  1  0
  1  7  1  0
  2  3  1  0
  2  8  1  0
  3  4  1  0
  3  5  1  0
  4  9  1  0
  4 10  1  0
  4 11  1  0
  5 12  1  0
  5 13  1  0
  5 14  1  0
 15 16  1  0
 15 23  1  0
 15 24  1  0
 15 25  1  0
 16 17  1  0
 16 26  1  0
 16 27  1  0
 17 18  1  0
 17 28  1  0
 17 29  1  0
 18 19  1  0
 18 22  1  0
 18 30  1  0
 19 20  1  0
 19 31  1  0
 19 32  1  0
 20 21  1  0
 20 33  1  0
 20 34  1  0
 21 22  1  0
 21 35  1  0
 21 36  1  0
 22 23  1  0
 22 37  1  0
 23 38  1  0
 23 39  1  0
M  RAD  1   3   2
M  END
>  <reaction>  (10) 
rxn_605

>  <mol_properties>  (10) 
{"1": {"label": "*0", "atom_type": "Cd"}, "2": {"label": "*1", "atom_type": "Cs"}, "18": {"label": "*4", "atom_type": "Cs"}, "19": {"label": "*3", "atom_type": "Cs"}, "32": {"label": "*2", "atom_type": "H0"}}

>  <type>  (10) 
unop_6

>  <geom_source>  (10) 
Heuristics

$$$$

     RDKit          3D

 39 39  0  0  0  0  0  0  0  0999 V2000
   -1.8681    2.2860   -0.5450 C   0  0  0  0  0  0  0  0  0  0  0  0
   -0.9749    3.1698   -0.1293 C   0  0  0  0  0  0  0  0  0  0  0  0
    0.2564    2.8558    0.6692 C   0  0  0  0  0  3  0  0  0  0  0  0
    0.2118    3.5624    2.0253 C   0  0  0  0  0  0  0  0  0  0  0  0
    1.5146    3.2486   -0.1072 C   0  0  0  0  0  0  0  0  0  0  0  0
   -2.7367    2.5829   -1.1193 H   0  0  0  0  0  0  0  0  0  0  0  0
   -1.7615    1.2290   -0.3243 H   0  0  0  0  0  0  0  0  0  0  0  0
   -1.1175    4.2222   -0.3713 H   0  0  0  0  0  0  0  0  0  0  0  0
    1.1027    3.3307    2.6126 H   0  0  0  0  0  0  0  0  0  0  0  0
    0.1714    4.6472    1.8937 H   0  0  0  0  0  0  0  0  0  0  0  0
   -0.6660    3.2603    2.5983 H   0  0  0  0  0  0  0  0  0  0  0  0
    1.5204    4.3223   -0.3143 H   0  0  0  0  0  0  0  0  0  0  0  0
    1.5696    2.7218   -1.0609 H   0  0  0  0  0  0  0  0  0  0  0  0
    2.4134    3.0150    0.4674 H   0  0  0  0  0  0  0  0  0  0  0  0
   -0.9264   -3.6847   -0.9864 C   0  0  0  0  0  0  0  0  0  0  0  0
   -0.9264   -3.6847    0.5442 C   0  0  0  0  0  0  0  0  0  0  0  0
    0.2167   -2.8483    1.1262 C   0  0  0  0  0  0  0  0  0  0  0  0
    0.1771   -1.4473    0.5421 C   0  0  0  0  0  0  0  0  0  0  0  0
    1.2962   -0.4735    0.8975 C   0  0  0  0  0  0  0  0  0  0  0  0
    1.2462    0.5970   -0.2211 C   0  0  0  0  0  0  0  0  0  0  0  0
    0.3527    0.0052   -1.3397 C   0  0  0  0  0  0  0  0  0  0  0  0
    0.2276   -1.4730   -0.9843 C   0  0  0  0  0  0  0  0  0  0  0  0
   -0.9264   -2.2683   -1.5684 C   0  0  0  0  0  0  0  0  0  0  0  0
   -0.0340   -4.2115   -1.3423 H   0  0  0  0  0  0  0  0  0  0  0  0
   -1.7873   -4.2458   -1.3571 H   0  0  0  0  0  0  0  0  0  0  0  0
   -1.8785   -3.2755    0.9001 H   0  0  0  0  0  0  0  0  0  0  0  0
   -0.8709   -4.7108    0.9149 H   0  0  0  0  0  0  0  0  0  0  0  0
    0.1495   -2.8224    2.2170 H   0  0  0  0  0  0  0  0  0  0  0  0
    1.1782   -3.3134    0.8781 H   0  0  0  0  0  0  0  0  0  0  0  0
   -0.7817   -0.9885    0.8246 H   0  0  0  0  0  0  0  0  0  0  0  0
    1.1873   -0.0456    1.8949 H   0  0  0  0  0  0  0  0  0  0  0  0
    2.2538   -1.0021    0.8771 H   0  0  0  0  0  0  0  0  0  0  0  0
    0.7522    1.7243    0.2232 H   0  0  0  0  0  0  0  0  0  0  0  0
    2.2474    0.8195   -0.5914 H   0  0  0  0  0  0  0  0  0  0  0  0
    0.7623    0.1700   -2.3372 H   0  0  0  0  0  0  0  0  0  0  0  0
   -0.6393    0.4659   -1.3193 H   0  0  0  0  0  0  0  0  0  0  0  0
    1.1641   -1.9758   -1.2668 H   0  0  0  0  0  0  0  0  0  0  0  0
   -0.8658   -2.3072   -2.6593 H   0  0  0  0  0  0  0  0  0  0  0  0
   -1.8696   -1.7669   -1.3204 H   0  0  0  0  0  0  0  0  0  0  0  0
  1  2  2  3
  1  6  1  0
  1  7  1  0
  2  3  1  0
  2  8  1  0
  3  4  1  0
  3  5  1  0
  4  9  1  0
  4 10  1  0
  4 11  1  0
  5 12  1  0
  5 13  1  0
  5 14  1  0
 15 16  1  0
 15 23  1  0
 15 24  1  0
 15 25  1  0
 16 17  1  0
 16 26  1  0
 16 27  1  0
 17 18  1  0
 17 28  1  0
 17 29  1  0
 18 19  1  0
 18 22  1  0
 18 30  1  0
 19 20  1  0
 19 31  1  0
 19 32  1  0
 20 21  1  0
 20 33  1  0
 20 34  1  0
 21 22  1  0
 21 35  1  0
 21 36  1  0
 22 23  1  0
 22 37  1  0
 23 38  1  0
 23 39  1  0
M  RAD  1   3   2
M  END
>  <reaction>  (11) 
rxn_605

>  <mol_properties>  (11) 
{"1": {"label": "*0", "atom_type": "Cd"}, "2": {"label": "*1", "atom_type": "Cs"}, "18": {"label": "*4", "atom_type": "Cs"}, "19": {"label": "*3", "atom_type": "Cs"}, "32": {"label": "*2", "atom_type": "H0"}}

>  <type>  (11) 
unop_7

>  <geom_source>  (11) 
Heuristics

$$$$

     RDKit          3D

 39 39  0  0  0  0  0  0  0  0999 V2000
    2.1737    3.1753    1.7035 C   0  0  0  0  0  0  0  0  0  0  0  0
    1.1259    3.6313    1.0359 C   0  0  0  0  0  0  0  0  0  0  0  0
   -0.0106    2.7972    0.5213 C   0  0  0  0  0  3  0  0  0  0  0  0
   -0.0958    2.8875   -1.0034 C   0  0  0  0  0  0  0  0  0  0  0  0
   -1.3290    3.2296    1.1658 C   0  0  0  0  0  0  0  0  0  0  0  0
    2.9603    3.8357    2.0466 H   0  0  0  0  0  0  0  0  0  0  0  0
    2.2823    2.1201    1.9317 H   0  0  0  0  0  0  0  0  0  0  0  0
    1.0534    4.6977    0.8264 H   0  0  0  0  0  0  0  0  0  0  0  0
   -0.9172    2.2760   -1.3827 H   0  0  0  0  0  0  0  0  0  0  0  0
   -0.2739    3.9190   -1.3192 H   0  0  0  0  0  0  0  0  0  0  0  0
    0.8298    2.5479   -1.4705 H   0  0  0  0  0  0  0  0  0  0  0  0
   -1.5508    4.2733    0.9268 H   0  0  0  0  0  0  0  0  0  0  0  0
   -1.2863    3.1350    2.2517 H   0  0  0  0  0  0  0  0  0  0  0  0
   -2.1578    2.6202    0.7995 H   0  0  0  0  0  0  0  0  0  0  0  0
   -1.1934   -3.7433   -1.1343 C   0  0  0  0  0  0  0  0  0  0  0  0
   -1.1934   -3.7433    0.3963 C   0  0  0  0  0  0  0  0  0  0  0  0
   -0.0503   -2.9069    0.9783 C   0  0  0  0  0  0  0  0  0  0  0  0
   -0.0899   -1.5059    0.3942 C   0  0  0  0  0  0  0  0  0  0  0  0
    1.0292   -0.5321    0.7497 C   0  0  0  0  0  0  0  0  0  0  0  0
    0.9792    0.5384   -0.3690 C   0  0  0  0  0  0  0  0  0  0  0  0
    0.0857   -0.0534   -1.4876 C   0  0  0  0  0  0  0  0  0  0  0  0
   -0.0394   -1.5316   -1.1321 C   0  0  0  0  0  0  0  0  0  0  0  0
   -1.1934   -2.3269   -1.7163 C   0  0  0  0  0  0  0  0  0  0  0  0
   -0.3010   -4.2701   -1.4902 H   0  0  0  0  0  0  0  0  0  0  0  0
   -2.0543   -4.3044   -1.5050 H   0  0  0  0  0  0  0  0  0  0  0  0
   -2.1455   -3.3341    0.7523 H   0  0  0  0  0  0  0  0  0  0  0  0
   -1.1379   -4.7694    0.7671 H   0  0  0  0  0  0  0  0  0  0  0  0
   -0.1175   -2.8810    2.0692 H   0  0  0  0  0  0  0  0  0  0  0  0
    0.9112   -3.3720    0.7303 H   0  0  0  0  0  0  0  0  0  0  0  0
   -1.0487   -1.0471    0.6767 H   0  0  0  0  0  0  0  0  0  0  0  0
    0.9203   -0.1042    1.7471 H   0  0  0  0  0  0  0  0  0  0  0  0
    1.9868   -1.0607    0.7292 H   0  0  0  0  0  0  0  0  0  0  0  0
    0.4852    1.6657    0.0753 H   0  0  0  0  0  0  0  0  0  0  0  0
    1.9804    0.7609   -0.7392 H   0  0  0  0  0  0  0  0  0  0  0  0
    0.4953    0.1114   -2.4850 H   0  0  0  0  0  0  0  0  0  0  0  0
   -0.9063    0.4073   -1.4672 H   0  0  0  0  0  0  0  0  0  0  0  0
    0.8971   -2.0344   -1.4147 H   0  0  0  0  0  0  0  0  0  0  0  0
   -1.1328   -2.3658   -2.8071 H   0  0  0  0  0  0  0  0  0  0  0  0
   -2.1366   -1.8255   -1.4682 H   0  0  0  0  0  0  0  0  0  0  0  0
  1  2  2  3
  1  6  1  0
  1  7  1  0
  2  3  1  0
  2  8  1  0
  3  4  1  0
  3  5  1  0
  4  9  1  0
  4 10  1  0
  4 11  1  0
  5 12  1  0
  5 13  1  0
  5 14  1  0
 15 16  1  0
 15 23  1  0
 15 24  1  0
 15 25  1  0
 16 17  1  0
 16 26  1  0
 16 27  1  0
 17 18  1  0
 17 28  1  0
 17 29  1  0
 18 19  1  0
 18 22  1  0
 18 30  1  0
 19 20  1  0
 19 31  1  0
 19 32  1  0
 20 21  1  0
 20 33  1  0
 20 34  1  0
 21 22  1  0
 21 35  1  0
 21 36  1  0
 22 23  1  0
 22 37  1  0
 23 38  1  0
 23 39  1  0
M  RAD  1   3   2
M  END
>  <reaction>  (12) 
rxn_605

>  <mol_properties>  (12) 
{"1": {"label": "*0", "atom_type": "Cd"}, "2": {"label": "*1", "atom_type": "Cs"}, "18": {"label": "*4", "atom_type": "Cs"}, "19": {"label": "*3", "atom_type": "Cs"}, "32": {"label": "*2", "atom_type": "H0"}}

>  <type>  (12) 
unop_8

>  <geom_source>  (12) 
Heuristics

$$$$

     RDKit          3D

 39 39  0  0  0  0  0  0  0  0999 V2000
   -0.7796    1.4747    2.2081 C   0  0  0  0  0  0  0  0  0  0  0  0
   -0.7233    2.6159    1.5401 C   0  0  0  0  0  0  0  0  0  0  0  0
    0.2465    2.9355    0.4402 C   0  0  0  0  0  3  0  0  0  0  0  0
    1.1256    4.1257    0.8285 C   0  0  0  0  0  0  0  0  0  0  0  0
   -0.4971    3.2128   -0.8676 C   0  0  0  0  0  0  0  0  0  0  0  0
   -1.5076    1.3110    2.9928 H   0  0  0  0  0  0  0  0  0  0  0  0
   -0.0961    0.6601    1.9927 H   0  0  0  0  0  0  0  0  0  0  0  0
   -1.4271    3.4099    1.7860 H   0  0  0  0  0  0  0  0  0  0  0  0
    1.8379    4.3571    0.0337 H   0  0  0  0  0  0  0  0  0  0  0  0
    0.5150    5.0165    0.9994 H   0  0  0  0  0  0  0  0  0  0  0  0
    1.6848    3.9209    1.7425 H   0  0  0  0  0  0  0  0  0  0  0  0
   -1.1651    4.0713   -0.7568 H   0  0  0  0  0  0  0  0  0  0  0  0
   -1.0996    2.3544   -1.1679 H   0  0  0  0  0  0  0  0  0  0  0  0
    0.2054    3.4387   -1.6725 H   0  0  0  0  0  0  0  0  0  0  0  0
   -0.9363   -3.6050   -1.2154 C   0  0  0  0  0  0  0  0  0  0  0  0
   -0.9363   -3.6050    0.3152 C   0  0  0  0  0  0  0  0  0  0  0  0
    0.2068   -2.7686    0.8972 C   0  0  0  0  0  0  0  0  0  0  0  0
    0.1672   -1.3676    0.3131 C   0  0  0  0  0  0  0  0  0  0  0  0
    1.2863   -0.3938    0.6686 C   0  0  0  0  0  0  0  0  0  0  0  0
    1.2363    0.6767   -0.4501 C   0  0  0  0  0  0  0  0  0  0  0  0
    0.3428    0.0849   -1.5687 C   0  0  0  0  0  0  0  0  0  0  0  0
    0.2177   -1.3933   -1.2132 C   0  0  0  0  0  0  0  0  0  0  0  0
   -0.9363   -2.1886   -1.7973 C   0  0  0  0  0  0  0  0  0  0  0  0
   -0.0439   -4.1318   -1.5713 H   0  0  0  0  0  0  0  0  0  0  0  0
   -1.7972   -4.1661   -1.5861 H   0  0  0  0  0  0  0  0  0  0  0  0
   -1.8884   -3.1958    0.6712 H   0  0  0  0  0  0  0  0  0  0  0  0
   -0.8808   -4.6311    0.6860 H   0  0  0  0  0  0  0  0  0  0  0  0
    0.1396   -2.7427    1.9881 H   0  0  0  0  0  0  0  0  0  0  0  0
    1.1684   -3.2337    0.6492 H   0  0  0  0  0  0  0  0  0  0  0  0
   -0.7916   -0.9088    0.5957 H   0  0  0  0  0  0  0  0  0  0  0  0
    1.1774    0.0341    1.6660 H   0  0  0  0  0  0  0  0  0  0  0  0
    2.2439   -0.9224    0.6481 H   0  0  0  0  0  0  0  0  0  0  0  0
    0.7423    1.8040   -0.0057 H   0  0  0  0  0  0  0  0  0  0  0  0
    2.2375    0.8992   -0.8203 H   0  0  0  0  0  0  0  0  0  0  0  0
    0.7525    0.2498   -2.5661 H   0  0  0  0  0  0  0  0  0  0  0  0
   -0.6492    0.5456   -1.5483 H   0  0  0  0  0  0  0  0  0  0  0  0
    1.1542   -1.8961   -1.4958 H   0  0  0  0  0  0  0  0  0  0  0  0
   -0.8756   -2.2275   -2.8882 H   0  0  0  0  0  0  0  0  0  0  0  0
   -1.8795   -1.6872   -1.5493 H   0  0  0  0  0  0  0  0  0  0  0  0
  1  2  2  3
  1  6  1  0
  1  7  1  0
  2  3  1  0
  2  8  1  0
  3  4  1  0
  3  5  1  0
  4  9  1  0
  4 10  1  0
  4 11  1  0
  5 12  1  0
  5 13  1  0
  5 14  1  0
 15 16  1  0
 15 23  1  0
 15 24  1  0
 15 25  1  0
 16 17  1  0
 16 26  1  0
 16 27  1  0
 17 18  1  0
 17 28  1  0
 17 29  1  0
 18 19  1  0
 18 22  1  0
 18 30  1  0
 19 20  1  0
 19 31  1  0
 19 32  1  0
 20 21  1  0
 20 33  1  0
 20 34  1  0
 21 22  1  0
 21 35  1  0
 21 36  1  0
 22 23  1  0
 22 37  1  0
 23 38  1  0
 23 39  1  0
M  RAD  1   3   2
M  END
>  <reaction>  (13) 
rxn_605

>  <mol_properties>  (13) 
{"1": {"label": "*0", "atom_type": "Cd"}, "2": {"label": "*1", "atom_type": "Cs"}, "18": {"label": "*4", "atom_type": "Cs"}, "19": {"label": "*3", "atom_type": "Cs"}, "32": {"label": "*2", "atom_type": "H0"}}

>  <type>  (13) 
unop_9

>  <geom_source>  (13) 
Heuristics

$$$$

     RDKit          3D

 39 39  0  0  0  0  0  0  0  0999 V2000
    1.5692    2.5512    2.3955 C   0  0  0  0  0  0  0  0  0  0  0  0
    0.8938    3.3214    1.5574 C   0  0  0  0  0  0  0  0  0  0  0  0
    0.0131    2.8355    0.4437 C   0  0  0  0  0  3  0  0  0  0  0  0
    0.5413    3.3185   -0.9084 C   0  0  0  0  0  0  0  0  0  0  0  0
   -1.4295    3.2966    0.6597 C   0  0  0  0  0  0  0  0  0  0  0  0
    2.1881    2.9701    3.1791 H   0  0  0  0  0  0  0  0  0  0  0  0
    1.5268    1.4692    2.3270 H   0  0  0  0  0  0  0  0  0  0  0  0
    0.9625    4.4037    1.6588 H   0  0  0  0  0  0  0  0  0  0  0  0
   -0.0928    2.9610   -1.7224 H   0  0  0  0  0  0  0  0  0  0  0  0
    0.5533    4.4111   -0.9497 H   0  0  0  0  0  0  0  0  0  0  0  0
    1.5581    2.9642   -1.0835 H   0  0  0  0  0  0  0  0  0  0  0  0
   -1.4873    4.3884    0.6739 H   0  0  0  0  0  0  0  0  0  0  0  0
   -1.8237    2.9266    1.6072 H   0  0  0  0  0  0  0  0  0  0  0  0
   -2.0754    2.9389   -0.1449 H   0  0  0  0  0  0  0  0  0  0  0  0
   -1.1697   -3.7049   -1.2119 C   0  0  0  0  0  0  0  0  0  0  0  0
   -1.1697   -3.7049    0.3187 C   0  0  0  0  0  0  0  0  0  0  0  0
   -0.0266   -2.8685    0.9007 C   0  0  0  0  0  0  0  0  0  0  0  0
   -0.0662   -1.4675    0.3166 C   0  0  0  0  0  0  0  0  0  0  0  0
    1.0529   -0.4938    0.6720 C   0  0  0  0  0  0  0  0  0  0  0  0
    1.0029    0.5768   -0.4466 C   0  0  0  0  0  0  0  0  0  0  0  0
    0.1094   -0.0150   -1.5653 C   0  0  0  0  0  0  0  0  0  0  0  0
   -0.0156   -1.4932   -1.2098 C   0  0  0  0  0  0  0  0  0  0  0  0
   -1.1697   -2.2885   -1.7939 C   0  0  0  0  0  0  0  0  0  0  0  0
   -0.2773   -4.2317   -1.5679 H   0  0  0  0  0  0  0  0  0  0  0  0
   -2.0306   -4.2660   -1.5827 H   0  0  0  0  0  0  0  0  0  0  0  0
   -2.1218   -3.2958    0.6746 H   0  0  0  0  0  0  0  0  0  0  0  0
   -1.1142   -4.7310    0.6894 H   0  0  0  0  0  0  0  0  0  0  0  0
   -0.0938   -2.8426    1.9915 H   0  0  0  0  0  0  0  0  0  0  0  0
    0.9350   -3.3337    0.6526 H   0  0  0  0  0  0  0  0  0  0  0  0
   -1.0250   -1.0087    0.5991 H   0  0  0  0  0  0  0  0  0  0  0  0
    0.9440   -0.0658    1.6694 H   0  0  0  0  0  0  0  0  0  0  0  0
    2.0105   -1.0223    0.6516 H   0  0  0  0  0  0  0  0  0  0  0  0
    0.5089    1.7040   -0.0023 H   0  0  0  0  0  0  0  0  0  0  0  0
    2.0041    0.7993   -0.8169 H   0  0  0  0  0  0  0  0  0  0  0  0
    0.5191    0.1498   -2.5627 H   0  0  0  0  0  0  0  0  0  0  0  0
   -0.8826    0.4457   -1.5448 H   0  0  0  0  0  0  0  0  0  0  0  0
    0.9208   -1.9960   -1.4923 H   0  0  0  0  0  0  0  0  0  0  0  0
   -1.1090   -2.3274   -2.8848 H   0  0  0  0  0  0  0  0  0  0  0  0
   -2.1129   -1.7872   -1.5459 H   0  0  0  0  0  0  0  0  0  0  0  0
  1  2  2  3
  1  6  1  0
  1  7  1  0
  2  3  1  0
  2  8  1  0
  3  4  1  0
  3  5  1  0
  4  9  1  0
  4 10  1  0
  4 11  1  0
  5 12  1  0
  5 13  1  0
  5 14  1  0
 15 16  1  0
 15 23  1  0
 15 24  1  0
 15 25  1  0
 16 17  1  0
 16 26  1  0
 16 27  1  0
 17 18  1  0
 17 28  1  0
 17 29  1  0
 18 19  1  0
 18 22  1  0
 18 30  1  0
 19 20  1  0
 19 31  1  0
 19 32  1  0
 20 21  1  0
 20 33  1  0
 20 34  1  0
 21 22  1  0
 21 35  1  0
 21 36  1  0
 22 23  1  0
 22 37  1  0
 23 38  1  0
 23 39  1  0
M  RAD  1   3   2
M  END
>  <reaction>  (14) 
rxn_605

>  <mol_properties>  (14) 
{"1": {"label": "*0", "atom_type": "Cd"}, "2": {"label": "*1", "atom_type": "Cs"}, "18": {"label": "*4", "atom_type": "Cs"}, "19": {"label": "*3", "atom_type": "Cs"}, "32": {"label": "*2", "atom_type": "H0"}}

>  <type>  (14) 
unop_10

>  <geom_source>  (14) 
Heuristics

$$$$

     RDKit          3D

 39 39  0  0  0  0  0  0  0  0999 V2000
   -1.0343    2.8945   -1.4940 C   0  0  0  0  0  0  0  0  0  0  0  0
   -0.4995    3.4984   -0.4447 C   0  0  0  0  0  0  0  0  0  0  0  0
    0.1930    2.8131    0.6968 C   0  0  0  0  0  3  0  0  0  0  0  0
   -0.5424    3.0826    2.0109 C   0  0  0  0  0  0  0  0  0  0  0  0
    1.6521    3.2638    0.7882 C   0  0  0  0  0  0  0  0  0  0  0  0
   -1.5206    3.4526   -2.2842 H   0  0  0  0  0  0  0  0  0  0  0  0
   -1.0042    1.8151   -1.6001 H   0  0  0  0  0  0  0  0  0  0  0  0
   -0.5502    4.5842   -0.3747 H   0  0  0  0  0  0  0  0  0  0  0  0
   -0.0458    2.5796    2.8432 H   0  0  0  0  0  0  0  0  0  0  0  0
   -0.5597    4.1537    2.2304 H   0  0  0  0  0  0  0  0  0  0  0  0
   -1.5745    2.7323    1.9638 H   0  0  0  0  0  0  0  0  0  0  0  0
    1.7124    4.3413    0.9645 H   0  0  0  0  0  0  0  0  0  0  0  0
    2.1911    3.0432   -0.1342 H   0  0  0  0  0  0  0  0  0  0  0  0
    2.1618    2.7619    1.6133 H   0  0  0  0  0  0  0  0  0  0  0  0
   -0.9898   -3.7273   -0.9588 C   0  0  0  0  0  0  0  0  0  0  0  0
   -0.9898   -3.7273    0.5718 C   0  0  0  0  0  0  0  0  0  0  0  0
    0.1533   -2.8909    1.1537 C   0  0  0  0  0  0  0  0  0  0  0  0
    0.1137   -1.4900    0.5696 C   0  0  0  0  0  0  0  0  0  0  0  0
    1.2328   -0.5162    0.9251 C   0  0  0  0  0  0  0  0  0  0  0  0
    1.1828    0.5544   -0.1935 C   0  0  0  0  0  0  0  0  0  0  0  0
    0.2893   -0.0375   -1.3122 C   0  0  0  0  0  0  0  0  0  0  0  0
    0.1643   -1.5156   -0.9567 C   0  0  0  0  0  0  0  0  0  0  0  0
   -0.9898   -2.3109   -1.5408 C   0  0  0  0  0  0  0  0  0  0  0  0
   -0.0973   -4.2541   -1.3148 H   0  0  0  0  0  0  0  0  0  0  0  0
   -1.8507   -4.2884   -1.3296 H   0  0  0  0  0  0  0  0  0  0  0  0
   -1.9419   -3.3182    0.9277 H   0  0  0  0  0  0  0  0  0  0  0  0
   -0.9342   -4.7534    0.9425 H   0  0  0  0  0  0  0  0  0  0  0  0
    0.0861   -2.8650    2.2446 H   0  0  0  0  0  0  0  0  0  0  0  0
    1.1149   -3.3561    0.9057 H   0  0  0  0  0  0  0  0  0  0  0  0
   -0.8450   -1.0311    0.8522 H   0  0  0  0  0  0  0  0  0  0  0  0
    1.1240   -0.0882    1.9225 H   0  0  0  0  0  0  0  0  0  0  0  0
    2.1904   -1.0447    0.9047 H   0  0  0  0  0  0  0  0  0  0  0  0
    0.6888    1.6816    0.2508 H   0  0  0  0  0  0  0  0  0  0  0  0
    2.1840    0.7769   -0.5638 H   0  0  0  0  0  0  0  0  0  0  0  0
    0.6990    0.1274   -2.3096 H   0  0  0  0  0  0  0  0  0  0  0  0
   -0.7027    0.4233   -1.2917 H   0  0  0  0  0  0  0  0  0  0  0  0
    1.1007   -2.0184   -1.2393 H   0  0  0  0  0  0  0  0  0  0  0  0
   -0.9291   -2.3499   -2.6317 H   0  0  0  0  0  0  0  0  0  0  0  0
   -1.9329   -1.8096   -1.2928 H   0  0  0  0  0  0  0  0  0  0  0  0
  1  2  2  3
  1  6  1  0
  1  7  1  0
  2  3  1  0
  2  8  1  0
  3  4  1  0
  3  5  1  0
  4  9  1  0
  4 10  1  0
  4 11  1  0
  5 12  1  0
  5 13  1  0
  5 14  1  0
 15 16  1  0
 15 23  1  0
 15 24  1  0
 15 25  1  0
 16 17  1  0
 16 26  1  0
 16 27  1  0
 17 18  1  0
 17 28  1  0
 17 29  1  0
 18 19  1  0
 18 22  1  0
 18 30  1  0
 19 20  1  0
 19 31  1  0
 19 32  1  0
 20 21  1  0
 20 33  1  0
 20 34  1  0
 21 22  1  0
 21 35  1  0
 21 36  1  0
 22 23  1  0
 22 37  1  0
 23 38  1  0
 23 39  1  0
M  RAD  1   3   2
M  END
>  <reaction>  (15) 
rxn_605

>  <mol_properties>  (15) 
{"1": {"label": "*0", "atom_type": "Cd"}, "2": {"label": "*1", "atom_type": "Cs"}, "18": {"label": "*4", "atom_type": "Cs"}, "19": {"label": "*3", "atom_type": "Cs"}, "32": {"label": "*2", "atom_type": "H0"}}

>  <type>  (15) 
unop_11

>  <geom_source>  (15) 
Heuristics

$$$$

     RDKit          3D

 39 39  0  0  0  0  0  0  0  0999 V2000
    0.0081    1.6266    2.5423 C   0  0  0  0  0  0  0  0  0  0  0  0
   -0.1694    2.7369    1.8441 C   0  0  0  0  0  0  0  0  0  0  0  0
    0.1659    2.9171    0.3924 C   0  0  0  0  0  3  0  0  0  0  0  0
    1.2220    4.0099    0.2169 C   0  0  0  0  0  0  0  0  0  0  0  0
   -1.0930    3.2436   -0.4130 C   0  0  0  0  0  0  0  0  0  0  0  0
   -0.2570    1.5659    3.5904 H   0  0  0  0  0  0  0  0  0  0  0  0
    0.4269    0.7348    2.0878 H   0  0  0  0  0  0  0  0  0  0  0  0
   -0.5928    3.6113    2.3366 H   0  0  0  0  0  0  0  0  0  0  0  0
    1.4744    4.1393   -0.8377 H   0  0  0  0  0  0  0  0  0  0  0  0
    0.8515    4.9680    0.5915 H   0  0  0  0  0  0  0  0  0  0  0  0
    2.1353    3.7663    0.7615 H   0  0  0  0  0  0  0  0  0  0  0  0
   -1.5455    4.1746   -0.0607 H   0  0  0  0  0  0  0  0  0  0  0  0
   -1.8371    2.4515   -0.3193 H   0  0  0  0  0  0  0  0  0  0  0  0
   -0.8546    3.3684   -1.4714 H   0  0  0  0  0  0  0  0  0  0  0  0
   -1.0168   -3.6233   -1.2632 C   0  0  0  0  0  0  0  0  0  0  0  0
   -1.0168   -3.6233    0.2674 C   0  0  0  0  0  0  0  0  0  0  0  0
    0.1263   -2.7869    0.8494 C   0  0  0  0  0  0  0  0  0  0  0  0
    0.0867   -1.3860    0.2653 C   0  0  0  0  0  0  0  0  0  0  0  0
    1.2057   -0.4122    0.6208 C   0  0  0  0  0  0  0  0  0  0  0  0
    1.1558    0.6584   -0.4979 C   0  0  0  0  0  0  0  0  0  0  0  0
    0.2623    0.0665   -1.6165 C   0  0  0  0  0  0  0  0  0  0  0  0
    0.1372   -1.4116   -1.2610 C   0  0  0  0  0  0  0  0  0  0  0  0
   -1.0168   -2.2069   -1.8452 C   0  0  0  0  0  0  0  0  0  0  0  0
   -0.1244   -4.1501   -1.6191 H   0  0  0  0  0  0  0  0  0  0  0  0
   -1.8777   -4.1844   -1.6339 H   0  0  0  0  0  0  0  0  0  0  0  0
   -1.9690   -3.2142    0.6234 H   0  0  0  0  0  0  0  0  0  0  0  0
   -0.9613   -4.6494    0.6382 H   0  0  0  0  0  0  0  0  0  0  0  0
    0.0590   -2.7610    1.9403 H   0  0  0  0  0  0  0  0  0  0  0  0
    1.0878   -3.2521    0.6014 H   0  0  0  0  0  0  0  0  0  0  0  0
   -0.8721   -0.9271    0.5479 H   0  0  0  0  0  0  0  0  0  0  0  0
    1.0969    0.0158    1.6182 H   0  0  0  0  0  0  0  0  0  0  0  0
    2.1633   -0.9407    0.6003 H   0  0  0  0  0  0  0  0  0  0  0  0
    0.6618    1.7856   -0.0535 H   0  0  0  0  0  0  0  0  0  0  0  0
    2.1569    0.8809   -0.8681 H   0  0  0  0  0  0  0  0  0  0  0  0
    0.6719    0.2314   -2.6139 H   0  0  0  0  0  0  0  0  0  0  0  0
   -0.7298    0.5273   -1.5961 H   0  0  0  0  0  0  0  0  0  0  0  0
    1.0736   -1.9144   -1.5436 H   0  0  0  0  0  0  0  0  0  0  0  0
   -0.9562   -2.2459   -2.9360 H   0  0  0  0  0  0  0  0  0  0  0  0
   -1.9600   -1.7056   -1.5971 H   0  0  0  0  0  0  0  0  0  0  0  0
  1  2  2  3
  1  6  1  0
  1  7  1  0
  2  3  1  0
  2  8  1  0
  3  4  1  0
  3  5  1  0
  4  9  1  0
  4 10  1  0
  4 11  1  0
  5 12  1  0
  5 13  1  0
  5 14  1  0
 15 16  1  0
 15 23  1  0
 15 24  1  0
 15 25  1  0
 16 17  1  0
 16 26  1  0
 16 27  1  0
 17 18  1  0
 17 28  1  0
 17 29  1  0
 18 19  1  0
 18 22  1  0
 18 30  1  0
 19 20  1  0
 19 31  1  0
 19 32  1  0
 20 21  1  0
 20 33  1  0
 20 34  1  0
 21 22  1  0
 21 35  1  0
 21 36  1  0
 22 23  1  0
 22 37  1  0
 23 38  1  0
 23 39  1  0
M  RAD  1   3   2
M  END
>  <reaction>  (16) 
rxn_605

>  <mol_properties>  (16) 
{"1": {"label": "*0", "atom_type": "Cd"}, "2": {"label": "*1", "atom_type": "Cs"}, "18": {"label": "*4", "atom_type": "Cs"}, "19": {"label": "*3", "atom_type": "Cs"}, "32": {"label": "*2", "atom_type": "H0"}}

>  <type>  (16) 
unop_12

>  <geom_source>  (16) 
Heuristics

$$$$

     RDKit          3D

 39 39  0  0  0  0  0  0  0  0999 V2000
   -1.6861    0.2024   -0.7275 C   0  0  0  0  0  0  0  0  0  0  0  0
   -1.7963   -0.1969    0.7295 C   0  0  0  0  0  0  0  0  0  0  0  0
    3.1107    0.2672    0.0874 C   0  0  0  0  0  3  0  0  0  0  0  0
   -2.8636   -0.3782   -1.5158 C   0  0  0  0  0  0  0  0  0  0  0  0
   -3.0342    0.4529    1.3543 C   0  0  0  0  0  0  0  0  0  0  0  0
   -4.1785    0.1821   -0.9319 C   0  0  0  0  0  0  0  0  0  0  0  0
   -4.2882   -0.0336    0.5964 C   0  0  0  0  0  0  0  0  0  0  0  0
   -0.2952   -0.2668   -1.1158 C   0  0  0  0  0  0  0  0  0  0  0  0
   -0.4459    0.1927    1.3048 C   0  0  0  0  0  0  0  0  0  0  0  0
    3.3599    1.7735   -0.0308 C   0  0  0  0  0  0  0  0  0  0  0  0
    3.4205   -0.2170    1.5077 C   0  0  0  0  0  0  0  0  0  0  0  0
    0.5401   -0.0533    0.1545 C   0  0  0  0  0  0  0  0  0  0  0  0
    3.9381   -0.4872   -0.9253 C   0  0  0  0  0  0  0  0  0  0  0  0
    3.6759   -1.7623   -1.2257 C   0  0  0  0  0  0  0  0  0  0  0  0
   -1.7084    1.3151   -0.8209 H   0  0  0  0  0  0  0  0  0  0  0  0
   -1.8942   -1.3062    0.8146 H   0  0  0  0  0  0  0  0  0  0  0  0
    1.8001    0.0449   -0.1682 H   0  0  0  0  0  0  0  0  0  0  0  0
   -2.8666   -1.4889   -1.4540 H   0  0  0  0  0  0  0  0  0  0  0  0
   -2.7786   -0.0867   -2.5847 H   0  0  0  0  0  0  0  0  0  0  0  0
   -4.2395    1.2713   -1.1487 H   0  0  0  0  0  0  0  0  0  0  0  0
   -5.0396   -0.3091   -1.4336 H   0  0  0  0  0  0  0  0  0  0  0  0
   -4.4400   -1.1167    0.7987 H   0  0  0  0  0  0  0  0  0  0  0  0
   -5.1796    0.5079    0.9793 H   0  0  0  0  0  0  0  0  0  0  0  0
   -3.1107    0.1610    2.4237 H   0  0  0  0  0  0  0  0  0  0  0  0
   -2.9653    1.5617    1.2971 H   0  0  0  0  0  0  0  0  0  0  0  0
    0.1120    0.3308   -1.9586 H   0  0  0  0  0  0  0  0  0  0  0  0
   -0.3071   -1.3456   -1.3886 H   0  0  0  0  0  0  0  0  0  0  0  0
   -0.4278    1.2715    1.5723 H   0  0  0  0  0  0  0  0  0  0  0  0
   -0.1946   -0.4197    2.1977 H   0  0  0  0  0  0  0  0  0  0  0  0
    3.1119    2.1191   -1.0570 H   0  0  0  0  0  0  0  0  0  0  0  0
    4.4229    2.0161    0.1856 H   0  0  0  0  0  0  0  0  0  0  0  0
    2.7119    2.3234    0.6842 H   0  0  0  0  0  0  0  0  0  0  0  0
    4.4940   -0.0615    1.7498 H   0  0  0  0  0  0  0  0  0  0  0  0
    2.8006    0.3386    2.2429 H   0  0  0  0  0  0  0  0  0  0  0  0
    3.1816   -1.2969    1.6064 H   0  0  0  0  0  0  0  0  0  0  0  0
    1.1723   -0.9453    0.3561 H   0  0  0  0  0  0  0  0  0  0  0  0
    4.7477    0.0155   -1.4482 H   0  0  0  0  0  0  0  0  0  0  0  0
    4.2760   -2.2800   -1.9669 H   0  0  0  0  0  0  0  0  0  0  0  0
    2.8640   -2.2959   -0.7408 H   0  0  0  0  0  0  0  0  0  0  0  0
  1  4  1  0
  1  8  1  0
  1  2  1  0
  1 15  1  0
  2  5  1  0
  2  9  1  0
  2 16  1  0
  3 10  1  0
  3 11  1  0
  3 13  1  0
  4  6  1  0
  4 18  1  0
  4 19  1  0
  5  7  1  0
  5 24  1  0
  5 25  1  0
  6  7  1  0
  6 20  1  0
  6 21  1  0
  7 22  1  0
  7 23  1  0
  8 12  1  0
  8 26  1  0
  8 27  1  0
  9 12  1  0
  9 28  1  0
  9 29  1  0
 10 30  1  0
 10 31  1  0
 10 32  1  0
 11 33  1  0
 11 34  1  0
 11 35  1  0
 12 17  1  0
 12 36  1  0
 13 14  2  3
 13 37  1  0
 14 38  1  0
 14 39  1  0
M  RAD  1   3   2
M  END
>  <reaction>  (17) 
rxn_605

>  <mol_properties>  (17) 
{"1": {"label": "*0", "atom_type": "Cd"}, "2": {"label": "*1", "atom_type": "Cs"}, "18": {"label": "*4", "atom_type": "Cs"}, "19": {"label": "*3", "atom_type": "Cs"}, "32": {"label": "*2", "atom_type": "H0"}}

>  <type>  (17) 
unop_13

>  <geom_source>  (17) 
AutoTST

$$$$
