
     RDKit          3D

 18 18  0  0  0  0  0  0  0  0999 V2000
   -2.4852    0.3210   -0.3966 C   0  0  0  0  0  0  0  0  0  0  0  0
   -1.5917   -0.2708    0.6941 C   0  0  0  0  0  0  0  0  0  0  0  0
   -0.1292   -0.1692    0.3493 C   0  0  0  0  0  0  0  0  0  0  0  0
    0.6099    0.9558    0.7015 C   0  0  0  0  0  0  0  0  0  0  0  0
    1.9447    1.0728    0.3458 C   0  0  0  0  0  0  0  0  0  0  0  0
    2.5646    0.0613   -0.3720 C   0  0  0  0  0  0  0  0  0  0  0  0
    1.8399   -1.0657   -0.7287 C   0  0  0  0  0  0  0  0  0  0  0  0
    0.5055   -1.1769   -0.3700 C   0  0  0  0  0  0  0  0  0  0  0  0
   -2.3325   -0.1971   -1.3452 H   0  0  0  0  0  0  0  0  0  0  0  0
   -2.2554    1.3763   -0.5546 H   0  0  0  0  0  0  0  0  0  0  0  0
   -3.5397    0.2376   -0.1280 H   0  0  0  0  0  0  0  0  0  0  0  0
   -1.7801    0.2462    1.6380 H   0  0  0  0  0  0  0  0  0  0  0  0
   -1.8568   -1.3190    0.8516 H   0  0  0  0  0  0  0  0  0  0  0  0
    0.1327    1.7497    1.2656 H   0  0  0  0  0  0  0  0  0  0  0  0
    2.5033    1.9550    0.6330 H   0  0  0  0  0  0  0  0  0  0  0  0
    3.6077    0.1491   -0.6484 H   0  0  0  0  0  0  0  0  0  0  0  0
    2.3163   -1.8632   -1.2854 H   0  0  0  0  0  0  0  0  0  0  0  0
   -0.0540   -2.0629   -0.6500 H   0  0  0  0  0  0  0  0  0  0  0  0
  1  2  1  0
  1  9  1  0
  1 10  1  0
  1 11  1  0
  2  3  1  0
  2 12  1  0
  2 13  1  0
  3  4  2  0
  3  8  1  0
  4  5  1  0
  4 14  1  0
  5  6  2  0
  5 15  1  0
  6  7  1  0
  6 16  1  0
  7  8  2  0
  7 17  1  0
  8 18  1  0
M  END
>  <reaction>  (1) 
rxn_1507

>  <mol_properties>  (1) 
{"1": {"label": "donator", "atom_type": "Cs"}, "11": {"label": "d_hydrogen", "atom_type": "H0"}}

>  <type>  (1) 
r1h

$$$$

     RDKit          3D

  9  8  0  0  0  0  0  0  0  0999 V2000
    2.3991   -0.1292   -0.2384 S   0  0  0  0  0  0  0  0  0  0  0  0
    0.7460    0.2807    0.0931 C   0  0  0  0  0  3  0  0  0  0  0  0
   -0.3131   -0.5719   -0.2043 C   0  0  0  0  0  0  0  0  0  0  0  0
   -0.2286   -1.8095   -0.7775 C   0  0  0  0  0  0  0  0  0  0  0  0
    2.9373    1.0009    0.2312 H   0  0  0  0  0  0  0  0  0  0  0  0
    0.5618    1.2421    0.5487 H   0  0  0  0  0  0  0  0  0  0  0  0
   -1.2978   -0.1954    0.0537 H   0  0  0  0  0  0  0  0  0  0  0  0
    0.7207   -2.2479   -1.0607 H   0  0  0  0  0  0  0  0  0  0  0  0
   -1.1177   -2.3938   -0.9670 H   0  0  0  0  0  0  0  0  0  0  0  0
  1  2  1  0
  1  5  1  0
  2  3  1  0
  2  6  1  0
  3  4  2  3
  3  7  1  0
  4  8  1  0
  4  9  1  0
M  RAD  1   2   2
M  END
>  <reaction>  (2) 
rxn_1507

>  <mol_properties>  (2) 
{"1": {"label": "acceptor", "atom_type": "Cs"}}

>  <type>  (2) 
r2

$$$$

     RDKit          3D

 10  9  0  0  0  0  0  0  0  0999 V2000
    2.2097   -0.5315    0.2575 S   0  0  0  0  0  0  0  0  0  0  0  0
    0.5401   -0.7188   -0.4494 C   0  0  0  0  0  0  0  0  0  0  0  0
   -0.5263   -0.1678    0.4365 C   0  0  0  0  0  0  0  0  0  0  0  0
   -1.3394    0.8185    0.0912 C   0  0  0  0  0  0  0  0  0  0  0  0
    2.1701    0.8016    0.3806 H   0  0  0  0  0  0  0  0  0  0  0  0
    0.4238   -1.7978   -0.5701 H   0  0  0  0  0  0  0  0  0  0  0  0
    0.5053   -0.2663   -1.4400 H   0  0  0  0  0  0  0  0  0  0  0  0
   -0.6005   -0.6141    1.4236 H   0  0  0  0  0  0  0  0  0  0  0  0
   -2.0960    1.1907    0.7700 H   0  0  0  0  0  0  0  0  0  0  0  0
   -1.2784    1.2877   -0.8850 H   0  0  0  0  0  0  0  0  0  0  0  0
  1  2  1  0
  1  5  1  0
  2  3  1  0
  2  6  1  0
  2  7  1  0
  3  4  2  3
  3  8  1  0
  4  9  1  0
  4 10  1  0
M  END
>  <reaction>  (3) 
rxn_1507

>  <mol_properties>  (3) 
{"1": {"label": "acceptor", "atom_type": "Cs"}, "9": {"label": "a_hydrogen", "atom_type": "H0"}}

>  <type>  (3) 
r2h

$$$$

     RDKit          3D

 27 26  0  0  0  0  0  0  0  0999 V2000
   -2.3444   -0.9664   -0.6196 S   0  0  0  0  0  0  0  0  0  0  0  0
   -1.0158   -1.7020    0.3109 C   0  0  0  0  0  0  0  0  0  0  0  0
   -0.9521   -1.4689    1.7526 C   0  0  0  0  0  0  0  0  0  0  0  0
   -0.3944   -2.3087    2.6246 C   0  0  0  0  0  0  0  0  0  0  0  0
   -2.0840    0.3054   -0.2789 H   0  0  0  0  0  0  0  0  0  0  0  0
   -0.9034   -2.7430    0.0130 H   0  0  0  0  0  0  0  0  0  0  0  0
   -1.3365   -0.5154    2.1028 H   0  0  0  0  0  0  0  0  0  0  0  0
    0.0007   -3.2696    2.3141 H   0  0  0  0  0  0  0  0  0  0  0  0
   -0.3263   -2.0631    3.6762 H   0  0  0  0  0  0  0  0  0  0  0  0
    1.2128   -0.8971   -2.1332 C   0  0  0  0  0  0  0  0  0  0  0  0
    1.1550   -0.4655   -0.6936 C   0  0  0  0  0  0  0  0  0  0  0  0
    0.8116    0.9155   -0.3489 C   0  0  0  0  0  0  0  0  0  0  0  0
    0.2303    1.7979   -1.2664 C   0  0  0  0  0  3  0  0  0  0  0  0
   -0.1591    3.0703   -0.8813 C   0  0  0  0  0  0  0  0  0  0  0  0
    0.0141    3.4924    0.4288 C   0  0  0  0  0  0  0  0  0  0  0  0
    0.5890    2.6292    1.3526 C   0  0  0  0  0  0  0  0  0  0  0  0
    0.9821    1.3603    0.9688 C   0  0  0  0  0  0  0  0  0  0  0  0
    1.9509   -0.3193   -2.6984 H   0  0  0  0  0  0  0  0  0  0  0  0
    0.2450   -0.7731   -2.6248 H   0  0  0  0  0  0  0  0  0  0  0  0
    1.4864   -1.9499   -2.2060 H   0  0  0  0  0  0  0  0  0  0  0  0
    0.0910   -1.1432   -0.1851 H   0  0  0  0  0  0  0  0  0  0  0  0
    1.9402   -0.8810   -0.0636 H   0  0  0  0  0  0  0  0  0  0  0  0
    0.0820    1.4858   -2.2920 H   0  0  0  0  0  0  0  0  0  0  0  0
   -0.6015    3.7376   -1.6105 H   0  0  0  0  0  0  0  0  0  0  0  0
   -0.2919    4.4869    0.7272 H   0  0  0  0  0  0  0  0  0  0  0  0
    0.7330    2.9495    2.3770 H   0  0  0  0  0  0  0  0  0  0  0  0
    1.4258    0.6893    1.6955 H   0  0  0  0  0  0  0  0  0  0  0  0
  1  2  1  0
  1  5  1  0
  2  3  1  0
  2  6  1  0
  2 21  1  0
  3  4  2  3
  3  7  1  0
  4  8  1  0
  4  9  1  0
 10 11  1  0
 10 18  1  0
 10 19  1  0
 10 20  1  0
 11 12  2  3
 11 22  1  0
 12 13  1  0
 12 17  1  0
 13 14  1  0
 13 23  1  0
 14 15  2  0
 14 24  1  0
 15 16  1  0
 15 25  1  0
 16 17  2  0
 16 26  1  0
 17 27  1  0
M  RAD  1  13   2
M  END
>  <reaction>  (4) 
rxn_1507

>  <mol_properties>  (4) 
{"0": {"label": "*0", "atom_type": "S2s"}, "1": {"label": "*1", "atom_type": "Cs"}, "10": {"label": "*3", "atom_type": "Cd"}, "11": {"label": "*4", "atom_type": "Cd"}, "20": {"label": "*2", "atom_type": "H0"}}

>  <type>  (4) 
ts

$$$$

     RDKit          3D

 27 26  0  0  0  0  0  0  0  0999 V2000
   -0.3701   -3.0745    1.0286 S   0  0  0  0  0  0  0  0  0  0  0  0
   -1.0714   -1.7074    0.0480 C   0  0  0  0  0  0  0  0  0  0  0  0
   -2.4526   -1.9951   -0.4371 C   0  0  0  0  0  0  0  0  0  0  0  0
   -3.5154   -1.2736   -0.1162 C   0  0  0  0  0  0  0  0  0  0  0  0
   -1.3332   -3.0990    1.9591 H   0  0  0  0  0  0  0  0  0  0  0  0
   -1.0386   -0.7838    0.6251 H   0  0  0  0  0  0  0  0  0  0  0  0
   -2.5590   -2.8666   -1.0759 H   0  0  0  0  0  0  0  0  0  0  0  0
   -3.4369   -0.4048    0.5286 H   0  0  0  0  0  0  0  0  0  0  0  0
   -4.5009   -1.5236   -0.4876 H   0  0  0  0  0  0  0  0  0  0  0  0
    1.0318   -0.4077   -2.3524 C   0  0  0  0  0  0  0  0  0  0  0  0
    1.0318   -0.4077   -0.8232 C   0  0  0  0  0  0  0  0  0  0  0  0
    1.0318    0.9865   -0.2538 C   0  0  0  0  0  0  0  0  0  0  0  0
   -0.1627    1.6555   -0.0061 C   0  0  0  0  0  3  0  0  0  0  0  0
   -0.1660    2.9557    0.4748 C   0  0  0  0  0  0  0  0  0  0  0  0
    1.0318    3.6111    0.7166 C   0  0  0  0  0  0  0  0  0  0  0  0
    2.2296    2.9557    0.4748 C   0  0  0  0  0  0  0  0  0  0  0  0
    2.2263    1.6555   -0.0061 C   0  0  0  0  0  0  0  0  0  0  0  0
    1.9131    0.1073   -2.7392 H   0  0  0  0  0  0  0  0  0  0  0  0
    0.1505    0.1073   -2.7392 H   0  0  0  0  0  0  0  0  0  0  0  0
    1.0318   -1.4262   -2.7447 H   0  0  0  0  0  0  0  0  0  0  0  0
   -0.0201   -1.0578   -0.3875 H   0  0  0  0  0  0  0  0  0  0  0  0
    1.9084   -0.9494   -0.4601 H   0  0  0  0  0  0  0  0  0  0  0  0
   -1.1036    1.1483   -0.1898 H   0  0  0  0  0  0  0  0  0  0  0  0
   -1.1068    3.4574    0.6647 H   0  0  0  0  0  0  0  0  0  0  0  0
    1.0318    4.6254    1.0950 H   0  0  0  0  0  0  0  0  0  0  0  0
    3.1704    3.4574    0.6647 H   0  0  0  0  0  0  0  0  0  0  0  0
    3.1672    1.1483   -0.1898 H   0  0  0  0  0  0  0  0  0  0  0  0
  1  2  1  0
  1  5  1  0
  2  3  1  0
  2  6  1  0
  2 21  1  0
  3  4  2  3
  3  7  1  0
  4  8  1  0
  4  9  1  0
 10 11  1  0
 10 18  1  0
 10 19  1  0
 10 20  1  0
 11 12  2  3
 11 22  1  0
 12 13  1  0
 12 17  1  0
 13 14  1  0
 13 23  1  0
 14 15  2  0
 14 24  1  0
 15 16  1  0
 15 25  1  0
 16 17  2  0
 16 26  1  0
 17 27  1  0
M  RAD  1  13   2
M  END
>  <reaction>  (5) 
rxn_1507

>  <mol_properties>  (5) 
{"0": {"label": "*0", "atom_type": "S2s"}, "1": {"label": "*1", "atom_type": "Cs"}, "10": {"label": "*3", "atom_type": "Cd"}, "11": {"label": "*4", "atom_type": "Cd"}, "20": {"label": "*2", "atom_type": "H0"}}

>  <type>  (5) 
unop_1

>  <geom_source>  (5) 
Heuristics

$$$$

     RDKit          3D

 27 26  0  0  0  0  0  0  0  0999 V2000
   -1.2815   -3.0375   -1.0598 S   0  0  0  0  0  0  0  0  0  0  0  0
   -0.9594   -1.7990    0.2382 C   0  0  0  0  0  0  0  0  0  0  0  0
   -2.2086   -1.1705    0.7581 C   0  0  0  0  0  0  0  0  0  0  0  0
   -2.6055   -1.2449    2.0191 C   0  0  0  0  0  0  0  0  0  0  0  0
   -2.0782   -3.8218   -0.3223 H   0  0  0  0  0  0  0  0  0  0  0  0
   -0.3780   -2.2491    1.0423 H   0  0  0  0  0  0  0  0  0  0  0  0
   -2.8139   -0.6430    0.0272 H   0  0  0  0  0  0  0  0  0  0  0  0
   -2.0238   -1.7748    2.7659 H   0  0  0  0  0  0  0  0  0  0  0  0
   -3.5237   -0.7774    2.3507 H   0  0  0  0  0  0  0  0  0  0  0  0
    1.1438   -0.4994   -2.1622 C   0  0  0  0  0  0  0  0  0  0  0  0
    1.1438   -0.4994   -0.6331 C   0  0  0  0  0  0  0  0  0  0  0  0
    1.1438    0.8948   -0.0636 C   0  0  0  0  0  0  0  0  0  0  0  0
   -0.0507    1.5638    0.1841 C   0  0  0  0  0  3  0  0  0  0  0  0
   -0.0540    2.8640    0.6650 C   0  0  0  0  0  0  0  0  0  0  0  0
    1.1438    3.5194    0.9068 C   0  0  0  0  0  0  0  0  0  0  0  0
    2.3416    2.8640    0.6650 C   0  0  0  0  0  0  0  0  0  0  0  0
    2.3383    1.5638    0.1841 C   0  0  0  0  0  0  0  0  0  0  0  0
    2.0251    0.0156   -2.5490 H   0  0  0  0  0  0  0  0  0  0  0  0
    0.2625    0.0156   -2.5490 H   0  0  0  0  0  0  0  0  0  0  0  0
    1.1438   -1.5179   -2.5545 H   0  0  0  0  0  0  0  0  0  0  0  0
    0.0918   -1.1494   -0.1973 H   0  0  0  0  0  0  0  0  0  0  0  0
    2.0204   -1.0411   -0.2699 H   0  0  0  0  0  0  0  0  0  0  0  0
   -0.9916    1.0566    0.0004 H   0  0  0  0  0  0  0  0  0  0  0  0
   -0.9948    3.3657    0.8549 H   0  0  0  0  0  0  0  0  0  0  0  0
    1.1438    4.5337    1.2852 H   0  0  0  0  0  0  0  0  0  0  0  0
    3.2824    3.3657    0.8549 H   0  0  0  0  0  0  0  0  0  0  0  0
    3.2792    1.0566    0.0003 H   0  0  0  0  0  0  0  0  0  0  0  0
  1  2  1  0
  1  5  1  0
  2  3  1  0
  2  6  1  0
  2 21  1  0
  3  4  2  3
  3  7  1  0
  4  8  1  0
  4  9  1  0
 10 11  1  0
 10 18  1  0
 10 19  1  0
 10 20  1  0
 11 12  2  3
 11 22  1  0
 12 13  1  0
 12 17  1  0
 13 14  1  0
 13 23  1  0
 14 15  2  0
 14 24  1  0
 15 16  1  0
 15 25  1  0
 16 17  2  0
 16 26  1  0
 17 27  1  0
M  RAD  1  13   2
M  END
>  <reaction>  (6) 
rxn_1507

>  <mol_properties>  (6) 
{"0": {"label": "*0", "atom_type": "S2s"}, "1": {"label": "*1", "atom_type": "Cs"}, "10": {"label": "*3", "atom_type": "Cd"}, "11": {"label": "*4", "atom_type": "Cd"}, "20": {"label": "*2", "atom_type": "H0"}}

>  <type>  (6) 
unop_2

>  <geom_source>  (6) 
Heuristics

$$$$

     RDKit          3D

 27 26  0  0  0  0  0  0  0  0999 V2000
   -0.5481   -2.4088    1.6195 S   0  0  0  0  0  0  0  0  0  0  0  0
   -1.0922   -1.7054    0.0283 C   0  0  0  0  0  0  0  0  0  0  0  0
   -2.0372   -2.5981   -0.7036 C   0  0  0  0  0  0  0  0  0  0  0  0
   -3.2778   -2.2617   -1.0213 C   0  0  0  0  0  0  0  0  0  0  0  0
   -1.7711   -2.5408    2.1493 H   0  0  0  0  0  0  0  0  0  0  0  0
   -1.5239   -0.7180    0.1890 H   0  0  0  0  0  0  0  0  0  0  0  0
   -1.6575   -3.5824   -0.9604 H   0  0  0  0  0  0  0  0  0  0  0  0
   -3.6839   -1.2885   -0.7668 H   0  0  0  0  0  0  0  0  0  0  0  0
   -3.9309   -2.9452   -1.5485 H   0  0  0  0  0  0  0  0  0  0  0  0
    1.0111   -0.4058   -2.3720 C   0  0  0  0  0  0  0  0  0  0  0  0
    1.0111   -0.4058   -0.8429 C   0  0  0  0  0  0  0  0  0  0  0  0
    1.0111    0.9885   -0.2735 C   0  0  0  0  0  0  0  0  0  0  0  0
   -0.1834    1.6574   -0.0258 C   0  0  0  0  0  3  0  0  0  0  0  0
   -0.1867    2.9576    0.4552 C   0  0  0  0  0  0  0  0  0  0  0  0
    1.0111    3.6130    0.6969 C   0  0  0  0  0  0  0  0  0  0  0  0
    2.2089    2.9576    0.4552 C   0  0  0  0  0  0  0  0  0  0  0  0
    2.2056    1.6574   -0.0258 C   0  0  0  0  0  0  0  0  0  0  0  0
    1.8924    0.1092   -2.7589 H   0  0  0  0  0  0  0  0  0  0  0  0
    0.1298    0.1092   -2.7589 H   0  0  0  0  0  0  0  0  0  0  0  0
    1.0111   -1.4242   -2.7644 H   0  0  0  0  0  0  0  0  0  0  0  0
   -0.0409   -1.0558   -0.4072 H   0  0  0  0  0  0  0  0  0  0  0  0
    1.8877   -0.9475   -0.4798 H   0  0  0  0  0  0  0  0  0  0  0  0
   -1.1243    1.1502   -0.2095 H   0  0  0  0  0  0  0  0  0  0  0  0
   -1.1275    3.4593    0.6451 H   0  0  0  0  0  0  0  0  0  0  0  0
    1.0111    4.6273    1.0753 H   0  0  0  0  0  0  0  0  0  0  0  0
    3.1497    3.4593    0.6451 H   0  0  0  0  0  0  0  0  0  0  0  0
    3.1465    1.1502   -0.2095 H   0  0  0  0  0  0  0  0  0  0  0  0
  1  2  1  0
  1  5  1  0
  2  3  1  0
  2  6  1  0
  2 21  1  0
  3  4  2  3
  3  7  1  0
  4  8  1  0
  4  9  1  0
 10 11  1  0
 10 18  1  0
 10 19  1  0
 10 20  1  0
 11 12  2  3
 11 22  1  0
 12 13  1  0
 12 17  1  0
 13 14  1  0
 13 23  1  0
 14 15  2  0
 14 24  1  0
 15 16  1  0
 15 25  1  0
 16 17  2  0
 16 26  1  0
 17 27  1  0
M  RAD  1  13   2
M  END
>  <reaction>  (7) 
rxn_1507

>  <mol_properties>  (7) 
{"0": {"label": "*0", "atom_type": "S2s"}, "1": {"label": "*1", "atom_type": "Cs"}, "10": {"label": "*3", "atom_type": "Cd"}, "11": {"label": "*4", "atom_type": "Cd"}, "20": {"label": "*2", "atom_type": "H0"}}

>  <type>  (7) 
unop_3

>  <geom_source>  (7) 
Heuristics

$$$$

     RDKit          3D

 27 26  0  0  0  0  0  0  0  0999 V2000
   -2.4573   -1.2034   -0.6726 S   0  0  0  0  0  0  0  0  0  0  0  0
   -1.0483   -2.1332    0.0149 C   0  0  0  0  0  0  0  0  0  0  0  0
   -0.5993   -1.6061    1.3363 C   0  0  0  0  0  0  0  0  0  0  0  0
   -0.6062   -2.3124    2.4563 C   0  0  0  0  0  0  0  0  0  0  0  0
   -3.2863   -1.4052    0.3599 H   0  0  0  0  0  0  0  0  0  0  0  0
   -1.2982   -3.1921    0.0749 H   0  0  0  0  0  0  0  0  0  0  0  0
   -0.2699   -0.5716    1.3473 H   0  0  0  0  0  0  0  0  0  0  0  0
   -0.9404   -3.3443    2.4735 H   0  0  0  0  0  0  0  0  0  0  0  0
   -0.2763   -1.8860    3.3949 H   0  0  0  0  0  0  0  0  0  0  0  0
    1.0549   -0.8336   -2.3855 C   0  0  0  0  0  0  0  0  0  0  0  0
    1.0549   -0.8336   -0.8564 C   0  0  0  0  0  0  0  0  0  0  0  0
    1.0549    0.5606   -0.2869 C   0  0  0  0  0  0  0  0  0  0  0  0
   -0.1396    1.2296   -0.0392 C   0  0  0  0  0  3  0  0  0  0  0  0
   -0.1429    2.5298    0.4417 C   0  0  0  0  0  0  0  0  0  0  0  0
    1.0549    3.1852    0.6835 C   0  0  0  0  0  0  0  0  0  0  0  0
    2.2527    2.5298    0.4417 C   0  0  0  0  0  0  0  0  0  0  0  0
    2.2495    1.2296   -0.0392 C   0  0  0  0  0  0  0  0  0  0  0  0
    1.9362   -0.3186   -2.7723 H   0  0  0  0  0  0  0  0  0  0  0  0
    0.1736   -0.3186   -2.7723 H   0  0  0  0  0  0  0  0  0  0  0  0
    1.0549   -1.8521   -2.7778 H   0  0  0  0  0  0  0  0  0  0  0  0
    0.0030   -1.4836   -0.4206 H   0  0  0  0  0  0  0  0  0  0  0  0
    1.9316   -1.3753   -0.4932 H   0  0  0  0  0  0  0  0  0  0  0  0
   -1.0805    0.7224   -0.2230 H   0  0  0  0  0  0  0  0  0  0  0  0
   -1.0837    3.0315    0.6316 H   0  0  0  0  0  0  0  0  0  0  0  0
    1.0549    4.1995    1.0619 H   0  0  0  0  0  0  0  0  0  0  0  0
    3.1935    3.0315    0.6316 H   0  0  0  0  0  0  0  0  0  0  0  0
    3.1903    0.7224   -0.2230 H   0  0  0  0  0  0  0  0  0  0  0  0
  1  2  1  0
  1  5  1  0
  2  3  1  0
  2  6  1  0
  2 21  1  0
  3  4  2  3
  3  7  1  0
  4  8  1  0
  4  9  1  0
 10 11  1  0
 10 18  1  0
 10 19  1  0
 10 20  1  0
 11 12  2  3
 11 22  1  0
 12 13  1  0
 12 17  1  0
 13 14  1  0
 13 23  1  0
 14 15  2  0
 14 24  1  0
 15 16  1  0
 15 25  1  0
 16 17  2  0
 16 26  1  0
 17 27  1  0
M  RAD  1  13   2
M  END
>  <reaction>  (8) 
rxn_1507

>  <mol_properties>  (8) 
{"0": {"label": "*0", "atom_type": "S2s"}, "1": {"label": "*1", "atom_type": "Cs"}, "10": {"label": "*3", "atom_type": "Cd"}, "11": {"label": "*4", "atom_type": "Cd"}, "20": {"label": "*2", "atom_type": "H0"}}

>  <type>  (8) 
unop_4

>  <geom_source>  (8) 
Heuristics

$$$$

     RDKit          3D

 27 26  0  0  0  0  0  0  0  0999 V2000
   -1.0354   -1.6078    1.7991 S   0  0  0  0  0  0  0  0  0  0  0  0
   -1.1817   -1.6982   -0.0155 C   0  0  0  0  0  0  0  0  0  0  0  0
   -1.1851   -3.1005   -0.5246 C   0  0  0  0  0  0  0  0  0  0  0  0
   -2.1890   -3.6414   -1.1976 C   0  0  0  0  0  0  0  0  0  0  0  0
   -2.1259   -2.3359    2.0724 H   0  0  0  0  0  0  0  0  0  0  0  0
   -2.0684   -1.1558   -0.3423 H   0  0  0  0  0  0  0  0  0  0  0  0
   -0.3026   -3.6903   -0.2961 H   0  0  0  0  0  0  0  0  0  0  0  0
   -3.0856   -3.0764   -1.4293 H   0  0  0  0  0  0  0  0  0  0  0  0
   -2.1500   -4.6665   -1.5429 H   0  0  0  0  0  0  0  0  0  0  0  0
    0.9216   -0.3986   -2.4158 C   0  0  0  0  0  0  0  0  0  0  0  0
    0.9216   -0.3986   -0.8867 C   0  0  0  0  0  0  0  0  0  0  0  0
    0.9216    0.9957   -0.3173 C   0  0  0  0  0  0  0  0  0  0  0  0
   -0.2729    1.6647   -0.0696 C   0  0  0  0  0  3  0  0  0  0  0  0
   -0.2762    2.9649    0.4113 C   0  0  0  0  0  0  0  0  0  0  0  0
    0.9216    3.6202    0.6531 C   0  0  0  0  0  0  0  0  0  0  0  0
    2.1194    2.9649    0.4113 C   0  0  0  0  0  0  0  0  0  0  0  0
    2.1161    1.6647   -0.0696 C   0  0  0  0  0  0  0  0  0  0  0  0
    1.8029    0.1165   -2.8027 H   0  0  0  0  0  0  0  0  0  0  0  0
    0.0403    0.1165   -2.8027 H   0  0  0  0  0  0  0  0  0  0  0  0
    0.9216   -1.4170   -2.8082 H   0  0  0  0  0  0  0  0  0  0  0  0
   -0.1304   -1.0486   -0.4510 H   0  0  0  0  0  0  0  0  0  0  0  0
    1.7982   -0.9402   -0.5236 H   0  0  0  0  0  0  0  0  0  0  0  0
   -1.2138    1.1575   -0.2533 H   0  0  0  0  0  0  0  0  0  0  0  0
   -1.2170    3.4666    0.6013 H   0  0  0  0  0  0  0  0  0  0  0  0
    0.9216    4.6346    1.0315 H   0  0  0  0  0  0  0  0  0  0  0  0
    3.0602    3.4666    0.6013 H   0  0  0  0  0  0  0  0  0  0  0  0
    3.0570    1.1575   -0.2533 H   0  0  0  0  0  0  0  0  0  0  0  0
  1  2  1  0
  1  5  1  0
  2  3  1  0
  2  6  1  0
  2 21  1  0
  3  4  2  3
  3  7  1  0
  4  8  1  0
  4  9  1  0
 10 11  1  0
 10 18  1  0
 10 19  1  0
 10 20  1  0
 11 12  2  3
 11 22  1  0
 12 13  1  0
 12 17  1  0
 13 14  1  0
 13 23  1  0
 14 15  2  0
 14 24  1  0
 15 16  1  0
 15 25  1  0
 16 17  2  0
 16 26  1  0
 17 27  1  0
M  RAD  1  13   2
M  END
>  <reaction>  (9) 
rxn_1507

>  <mol_properties>  (9) 
{"0": {"label": "*0", "atom_type": "S2s"}, "1": {"label": "*1", "atom_type": "Cs"}, "10": {"label": "*3", "atom_type": "Cd"}, "11": {"label": "*4", "atom_type": "Cd"}, "20": {"label": "*2", "atom_type": "H0"}}

>  <type>  (9) 
unop_5

>  <geom_source>  (9) 
Heuristics

$$$$

     RDKit          3D

 27 26  0  0  0  0  0  0  0  0999 V2000
   -2.4400   -0.7981    0.0564 S   0  0  0  0  0  0  0  0  0  0  0  0
   -1.1566   -2.0841   -0.0902 C   0  0  0  0  0  0  0  0  0  0  0  0
   -0.2384   -2.1189    1.0852 C   0  0  0  0  0  0  0  0  0  0  0  0
   -0.0939   -3.1673    1.8810 C   0  0  0  0  0  0  0  0  0  0  0  0
   -2.9642   -1.2419    1.2063 H   0  0  0  0  0  0  0  0  0  0  0  0
   -1.6230   -3.0544   -0.2575 H   0  0  0  0  0  0  0  0  0  0  0  0
    0.3162   -1.2063    1.2811 H   0  0  0  0  0  0  0  0  0  0  0  0
   -0.6444   -4.0867    1.7126 H   0  0  0  0  0  0  0  0  0  0  0  0
    0.5808   -3.1452    2.7272 H   0  0  0  0  0  0  0  0  0  0  0  0
    0.9467   -0.7844   -2.4905 C   0  0  0  0  0  0  0  0  0  0  0  0
    0.9467   -0.7844   -0.9614 C   0  0  0  0  0  0  0  0  0  0  0  0
    0.9467    0.6098   -0.3920 C   0  0  0  0  0  0  0  0  0  0  0  0
   -0.2478    1.2788   -0.1442 C   0  0  0  0  0  3  0  0  0  0  0  0
   -0.2511    2.5790    0.3367 C   0  0  0  0  0  0  0  0  0  0  0  0
    0.9467    3.2344    0.5785 C   0  0  0  0  0  0  0  0  0  0  0  0
    2.1445    2.5790    0.3367 C   0  0  0  0  0  0  0  0  0  0  0  0
    2.1412    1.2788   -0.1442 C   0  0  0  0  0  0  0  0  0  0  0  0
    1.8280   -0.2694   -2.8773 H   0  0  0  0  0  0  0  0  0  0  0  0
    0.0654   -0.2694   -2.8773 H   0  0  0  0  0  0  0  0  0  0  0  0
    0.9467   -1.8029   -2.8828 H   0  0  0  0  0  0  0  0  0  0  0  0
   -0.1053   -1.4345   -0.5256 H   0  0  0  0  0  0  0  0  0  0  0  0
    1.8233   -1.3261   -0.5983 H   0  0  0  0  0  0  0  0  0  0  0  0
   -1.1887    0.7716   -0.3280 H   0  0  0  0  0  0  0  0  0  0  0  0
   -1.1919    3.0807    0.5266 H   0  0  0  0  0  0  0  0  0  0  0  0
    0.9467    4.2487    0.9568 H   0  0  0  0  0  0  0  0  0  0  0  0
    3.0853    3.0807    0.5266 H   0  0  0  0  0  0  0  0  0  0  0  0
    3.0821    0.7716   -0.3280 H   0  0  0  0  0  0  0  0  0  0  0  0
  1  2  1  0
  1  5  1  0
  2  3  1  0
  2  6  1  0
  2 21  1  0
  3  4  2  3
  3  7  1  0
  4  8  1  0
  4  9  1  0
 10 11  1  0
 10 18  1  0
 10 19  1  0
 10 20  1  0
 11 12  2  3
 11 22  1  0
 12 13  1  0
 12 17  1  0
 13 14  1  0
 13 23  1  0
 14 15  2  0
 14 24  1  0
 15 16  1  0
 15 25  1  0
 16 17  2  0
 16 26  1  0
 17 27  1  0
M  RAD  1  13   2
M  END
>  <reaction>  (10) 
rxn_1507

>  <mol_properties>  (10) 
{"0": {"label": "*0", "atom_type": "S2s"}, "1": {"label": "*1", "atom_type": "Cs"}, "10": {"label": "*3", "atom_type": "Cd"}, "11": {"label": "*4", "atom_type": "Cd"}, "20": {"label": "*2", "atom_type": "H0"}}

>  <type>  (10) 
unop_6

>  <geom_source>  (10) 
Heuristics

$$$$

     RDKit          3D

 27 26  0  0  0  0  0  0  0  0999 V2000
   -2.1551   -0.7201    0.8445 S   0  0  0  0  0  0  0  0  0  0  0  0
   -1.2462   -1.9590   -0.1361 C   0  0  0  0  0  0  0  0  0  0  0  0
   -0.1485   -2.6121    0.6347 C   0  0  0  0  0  0  0  0  0  0  0  0
   -0.0906   -3.9112    0.8845 C   0  0  0  0  0  0  0  0  0  0  0  0
   -2.5314   -1.5529    1.8237 H   0  0  0  0  0  0  0  0  0  0  0  0
   -1.9417   -2.6958   -0.5369 H   0  0  0  0  0  0  0  0  0  0  0  0
    0.6238   -1.9500    1.0141 H   0  0  0  0  0  0  0  0  0  0  0  0
   -0.8552   -4.5919    0.5255 H   0  0  0  0  0  0  0  0  0  0  0  0
    0.7232   -4.3410    1.4542 H   0  0  0  0  0  0  0  0  0  0  0  0
    0.8571   -0.6594   -2.5364 C   0  0  0  0  0  0  0  0  0  0  0  0
    0.8571   -0.6594   -1.0073 C   0  0  0  0  0  0  0  0  0  0  0  0
    0.8571    0.7349   -0.4379 C   0  0  0  0  0  0  0  0  0  0  0  0
   -0.3375    1.4038   -0.1902 C   0  0  0  0  0  3  0  0  0  0  0  0
   -0.3407    2.7041    0.2907 C   0  0  0  0  0  0  0  0  0  0  0  0
    0.8571    3.3594    0.5325 C   0  0  0  0  0  0  0  0  0  0  0  0
    2.0549    2.7041    0.2907 C   0  0  0  0  0  0  0  0  0  0  0  0
    2.0516    1.4039   -0.1902 C   0  0  0  0  0  0  0  0  0  0  0  0
    1.7383   -0.1443   -2.9233 H   0  0  0  0  0  0  0  0  0  0  0  0
   -0.0242   -0.1443   -2.9233 H   0  0  0  0  0  0  0  0  0  0  0  0
    0.8571   -1.6778   -2.9288 H   0  0  0  0  0  0  0  0  0  0  0  0
   -0.1949   -1.3094   -0.5716 H   0  0  0  0  0  0  0  0  0  0  0  0
    1.7337   -1.2010   -0.6442 H   0  0  0  0  0  0  0  0  0  0  0  0
   -1.2784    0.8967   -0.3739 H   0  0  0  0  0  0  0  0  0  0  0  0
   -1.2815    3.2058    0.4807 H   0  0  0  0  0  0  0  0  0  0  0  0
    0.8571    4.3738    0.9109 H   0  0  0  0  0  0  0  0  0  0  0  0
    2.9957    3.2058    0.4807 H   0  0  0  0  0  0  0  0  0  0  0  0
    2.9925    0.8967   -0.3739 H   0  0  0  0  0  0  0  0  0  0  0  0
  1  2  1  0
  1  5  1  0
  2  3  1  0
  2  6  1  0
  2 21  1  0
  3  4  2  3
  3  7  1  0
  4  8  1  0
  4  9  1  0
 10 11  1  0
 10 18  1  0
 10 19  1  0
 10 20  1  0
 11 12  2  3
 11 22  1  0
 12 13  1  0
 12 17  1  0
 13 14  1  0
 13 23  1  0
 14 15  2  0
 14 24  1  0
 15 16  1  0
 15 25  1  0
 16 17  2  0
 16 26  1  0
 17 27  1  0
M  RAD  1  13   2
M  END
>  <reaction>  (11) 
rxn_1507

>  <mol_properties>  (11) 
{"0": {"label": "*0", "atom_type": "S2s"}, "1": {"label": "*1", "atom_type": "Cs"}, "10": {"label": "*3", "atom_type": "Cd"}, "11": {"label": "*4", "atom_type": "Cd"}, "20": {"label": "*2", "atom_type": "H0"}}

>  <type>  (11) 
unop_7

>  <geom_source>  (11) 
Heuristics

$$$$

     RDKit          3D

 27 26  0  0  0  0  0  0  0  0999 V2000
   -0.4830   -3.4159    0.2457 S   0  0  0  0  0  0  0  0  0  0  0  0
   -1.0589   -1.6928    0.0991 C   0  0  0  0  0  0  0  0  0  0  0  0
   -2.5426   -1.5885   -0.0166 C   0  0  0  0  0  0  0  0  0  0  0  0
   -3.3099   -0.9487    0.8524 C   0  0  0  0  0  0  0  0  0  0  0  0
   -1.1867   -3.7146    1.3454 H   0  0  0  0  0  0  0  0  0  0  0  0
   -0.6846   -1.1055    0.9370 H   0  0  0  0  0  0  0  0  0  0  0  0
   -2.9888   -2.0946   -0.8673 H   0  0  0  0  0  0  0  0  0  0  0  0
   -2.8893   -0.4443    1.7158 H   0  0  0  0  0  0  0  0  0  0  0  0
   -4.3846   -0.9041    0.7311 H   0  0  0  0  0  0  0  0  0  0  0  0
    1.0444   -0.3932   -2.3013 C   0  0  0  0  0  0  0  0  0  0  0  0
    1.0444   -0.3932   -0.7722 C   0  0  0  0  0  0  0  0  0  0  0  0
    1.0444    1.0011   -0.2027 C   0  0  0  0  0  0  0  0  0  0  0  0
   -0.1501    1.6701    0.0450 C   0  0  0  0  0  3  0  0  0  0  0  0
   -0.1534    2.9703    0.5259 C   0  0  0  0  0  0  0  0  0  0  0  0
    1.0444    3.6256    0.7677 C   0  0  0  0  0  0  0  0  0  0  0  0
    2.2422    2.9703    0.5259 C   0  0  0  0  0  0  0  0  0  0  0  0
    2.2389    1.6701    0.0450 C   0  0  0  0  0  0  0  0  0  0  0  0
    1.9257    0.1219   -2.6881 H   0  0  0  0  0  0  0  0  0  0  0  0
    0.1631    0.1219   -2.6881 H   0  0  0  0  0  0  0  0  0  0  0  0
    1.0444   -1.4116   -2.6936 H   0  0  0  0  0  0  0  0  0  0  0  0
   -0.0076   -1.0432   -0.3364 H   0  0  0  0  0  0  0  0  0  0  0  0
    1.9210   -0.9348   -0.4090 H   0  0  0  0  0  0  0  0  0  0  0  0
   -1.0910    1.1629   -0.1387 H   0  0  0  0  0  0  0  0  0  0  0  0
   -1.0942    3.4720    0.7158 H   0  0  0  0  0  0  0  0  0  0  0  0
    1.0444    4.6400    1.1461 H   0  0  0  0  0  0  0  0  0  0  0  0
    3.1830    3.4720    0.7158 H   0  0  0  0  0  0  0  0  0  0  0  0
    3.1798    1.1629   -0.1388 H   0  0  0  0  0  0  0  0  0  0  0  0
  1  2  1  0
  1  5  1  0
  2  3  1  0
  2  6  1  0
  2 21  1  0
  3  4  2  3
  3  7  1  0
  4  8  1  0
  4  9  1  0
 10 11  1  0
 10 18  1  0
 10 19  1  0
 10 20  1  0
 11 12  2  3
 11 22  1  0
 12 13  1  0
 12 17  1  0
 13 14  1  0
 13 23  1  0
 14 15  2  0
 14 24  1  0
 15 16  1  0
 15 25  1  0
 16 17  2  0
 16 26  1  0
 17 27  1  0
M  RAD  1  13   2
M  END
>  <reaction>  (12) 
rxn_1507

>  <mol_properties>  (12) 
{"0": {"label": "*0", "atom_type": "S2s"}, "1": {"label": "*1", "atom_type": "Cs"}, "10": {"label": "*3", "atom_type": "Cd"}, "11": {"label": "*4", "atom_type": "Cd"}, "20": {"label": "*2", "atom_type": "H0"}}

>  <type>  (12) 
unop_8

>  <geom_source>  (12) 
Heuristics

$$$$

     RDKit          3D

 27 26  0  0  0  0  0  0  0  0999 V2000
   -2.2100   -1.8191   -1.1577 S   0  0  0  0  0  0  0  0  0  0  0  0
   -0.9583   -2.0851    0.1403 C   0  0  0  0  0  0  0  0  0  0  0  0
   -1.1638   -1.2063    1.3282 C   0  0  0  0  0  0  0  0  0  0  0  0
   -1.3960   -1.6571    2.5514 C   0  0  0  0  0  0  0  0  0  0  0  0
   -3.2760   -2.0924   -0.3943 H   0  0  0  0  0  0  0  0  0  0  0  0
   -0.9381   -3.1369    0.4242 H   0  0  0  0  0  0  0  0  0  0  0  0
   -1.1320   -0.1377    1.1389 H   0  0  0  0  0  0  0  0  0  0  0  0
   -1.4428   -2.7198    2.7643 H   0  0  0  0  0  0  0  0  0  0  0  0
   -1.5452   -0.9811    3.3835 H   0  0  0  0  0  0  0  0  0  0  0  0
    1.1449   -0.7855   -2.2601 C   0  0  0  0  0  0  0  0  0  0  0  0
    1.1449   -0.7855   -0.7310 C   0  0  0  0  0  0  0  0  0  0  0  0
    1.1449    0.6088   -0.1616 C   0  0  0  0  0  0  0  0  0  0  0  0
   -0.0496    1.2777    0.0862 C   0  0  0  0  0  3  0  0  0  0  0  0
   -0.0529    2.5779    0.5671 C   0  0  0  0  0  0  0  0  0  0  0  0
    1.1449    3.2333    0.8089 C   0  0  0  0  0  0  0  0  0  0  0  0
    2.3427    2.5779    0.5671 C   0  0  0  0  0  0  0  0  0  0  0  0
    2.3395    1.2777    0.0862 C   0  0  0  0  0  0  0  0  0  0  0  0
    2.0262   -0.2705   -2.6469 H   0  0  0  0  0  0  0  0  0  0  0  0
    0.2636   -0.2705   -2.6469 H   0  0  0  0  0  0  0  0  0  0  0  0
    1.1449   -1.8039   -2.6524 H   0  0  0  0  0  0  0  0  0  0  0  0
    0.0930   -1.4355   -0.2952 H   0  0  0  0  0  0  0  0  0  0  0  0
    2.0216   -1.3272   -0.3678 H   0  0  0  0  0  0  0  0  0  0  0  0
   -0.9905    0.7705   -0.0976 H   0  0  0  0  0  0  0  0  0  0  0  0
   -0.9937    3.0796    0.7570 H   0  0  0  0  0  0  0  0  0  0  0  0
    1.1449    4.2476    1.1873 H   0  0  0  0  0  0  0  0  0  0  0  0
    3.2835    3.0796    0.7570 H   0  0  0  0  0  0  0  0  0  0  0  0
    3.2803    0.7705   -0.0976 H   0  0  0  0  0  0  0  0  0  0  0  0
  1  2  1  0
  1  5  1  0
  2  3  1  0
  2  6  1  0
  2 21  1  0
  3  4  2  3
  3  7  1  0
  4  8  1  0
  4  9  1  0
 10 11  1  0
 10 18  1  0
 10 19  1  0
 10 20  1  0
 11 12  2  3
 11 22  1  0
 12 13  1  0
 12 17  1  0
 13 14  1  0
 13 23  1  0
 14 15  2  0
 14 24  1  0
 15 16  1  0
 15 25  1  0
 16 17  2  0
 16 26  1  0
 17 27  1  0
M  RAD  1  13   2
M  END
>  <reaction>  (13) 
rxn_1507

>  <mol_properties>  (13) 
{"0": {"label": "*0", "atom_type": "S2s"}, "1": {"label": "*1", "atom_type": "Cs"}, "10": {"label": "*3", "atom_type": "Cd"}, "11": {"label": "*4", "atom_type": "Cd"}, "20": {"label": "*2", "atom_type": "H0"}}

>  <type>  (13) 
unop_9

>  <geom_source>  (13) 
Heuristics

$$$$

     RDKit          3D

 27 26  0  0  0  0  0  0  0  0999 V2000
   -0.8182   -3.3867   -0.5109 S   0  0  0  0  0  0  0  0  0  0  0  0
   -1.0195   -1.7106    0.1766 C   0  0  0  0  0  0  0  0  0  0  0  0
   -2.4492   -1.3449    0.3950 C   0  0  0  0  0  0  0  0  0  0  0  0
   -2.9648   -1.0464    1.5776 C   0  0  0  0  0  0  0  0  0  0  0  0
   -1.4510   -4.0301    0.4788 H   0  0  0  0  0  0  0  0  0  0  0  0
   -0.4415   -1.6162    1.0954 H   0  0  0  0  0  0  0  0  0  0  0  0
   -3.0807   -1.3510   -0.4882 H   0  0  0  0  0  0  0  0  0  0  0  0
   -2.3572   -1.0435    2.4762 H   0  0  0  0  0  0  0  0  0  0  0  0
   -4.0109   -0.7923    1.6897 H   0  0  0  0  0  0  0  0  0  0  0  0
    1.0838   -0.4110   -2.2238 C   0  0  0  0  0  0  0  0  0  0  0  0
    1.0838   -0.4110   -0.6947 C   0  0  0  0  0  0  0  0  0  0  0  0
    1.0838    0.9833   -0.1253 C   0  0  0  0  0  0  0  0  0  0  0  0
   -0.1107    1.6522    0.1225 C   0  0  0  0  0  3  0  0  0  0  0  0
   -0.1140    2.9524    0.6034 C   0  0  0  0  0  0  0  0  0  0  0  0
    1.0838    3.6078    0.8452 C   0  0  0  0  0  0  0  0  0  0  0  0
    2.2816    2.9524    0.6034 C   0  0  0  0  0  0  0  0  0  0  0  0
    2.2783    1.6522    0.1225 C   0  0  0  0  0  0  0  0  0  0  0  0
    1.9651    0.1040   -2.6106 H   0  0  0  0  0  0  0  0  0  0  0  0
    0.2025    0.1040   -2.6106 H   0  0  0  0  0  0  0  0  0  0  0  0
    1.0838   -1.4294   -2.6161 H   0  0  0  0  0  0  0  0  0  0  0  0
    0.0318   -1.0610   -0.2589 H   0  0  0  0  0  0  0  0  0  0  0  0
    1.9604   -0.9527   -0.3316 H   0  0  0  0  0  0  0  0  0  0  0  0
   -1.0516    1.1450   -0.0613 H   0  0  0  0  0  0  0  0  0  0  0  0
   -1.0548    3.4541    0.7933 H   0  0  0  0  0  0  0  0  0  0  0  0
    1.0838    4.6221    1.2236 H   0  0  0  0  0  0  0  0  0  0  0  0
    3.2224    3.4541    0.7933 H   0  0  0  0  0  0  0  0  0  0  0  0
    3.2192    1.1450   -0.0613 H   0  0  0  0  0  0  0  0  0  0  0  0
  1  2  1  0
  1  5  1  0
  2  3  1  0
  2  6  1  0
  2 21  1  0
  3  4  2  3
  3  7  1  0
  4  8  1  0
  4  9  1  0
 10 11  1  0
 10 18  1  0
 10 19  1  0
 10 20  1  0
 11 12  2  3
 11 22  1  0
 12 13  1  0
 12 17  1  0
 13 14  1  0
 13 23  1  0
 14 15  2  0
 14 24  1  0
 15 16  1  0
 15 25  1  0
 16 17  2  0
 16 26  1  0
 17 27  1  0
M  RAD  1  13   2
M  END
>  <reaction>  (14) 
rxn_1507

>  <mol_properties>  (14) 
{"0": {"label": "*0", "atom_type": "S2s"}, "1": {"label": "*1", "atom_type": "Cs"}, "10": {"label": "*3", "atom_type": "Cd"}, "11": {"label": "*4", "atom_type": "Cd"}, "20": {"label": "*2", "atom_type": "H0"}}

>  <type>  (14) 
unop_10

>  <geom_source>  (14) 
Heuristics

$$$$

     RDKit          3D

 27 26  0  0  0  0  0  0  0  0999 V2000
   -1.6538   -0.9979    1.4891 S   0  0  0  0  0  0  0  0  0  0  0  0
   -1.2682   -1.7991   -0.1021 C   0  0  0  0  0  0  0  0  0  0  0  0
   -0.4178   -3.0147    0.0556 C   0  0  0  0  0  0  0  0  0  0  0  0
   -0.7895   -4.2311   -0.3125 C   0  0  0  0  0  0  0  0  0  0  0  0
   -2.2387   -2.0624    2.0534 H   0  0  0  0  0  0  0  0  0  0  0  0
   -2.1912   -2.0276   -0.6341 H   0  0  0  0  0  0  0  0  0  0  0  0
    0.5511   -2.8588    0.5201 H   0  0  0  0  0  0  0  0  0  0  0  0
   -1.7563   -4.4144   -0.7690 H   0  0  0  0  0  0  0  0  0  0  0  0
   -0.1407   -5.0863   -0.1731 H   0  0  0  0  0  0  0  0  0  0  0  0
    0.8350   -0.4995   -2.5024 C   0  0  0  0  0  0  0  0  0  0  0  0
    0.8350   -0.4995   -0.9733 C   0  0  0  0  0  0  0  0  0  0  0  0
    0.8350    0.8948   -0.4039 C   0  0  0  0  0  0  0  0  0  0  0  0
   -0.3595    1.5637   -0.1562 C   0  0  0  0  0  3  0  0  0  0  0  0
   -0.3628    2.8639    0.3248 C   0  0  0  0  0  0  0  0  0  0  0  0
    0.8350    3.5193    0.5665 C   0  0  0  0  0  0  0  0  0  0  0  0
    2.0328    2.8639    0.3248 C   0  0  0  0  0  0  0  0  0  0  0  0
    2.0296    1.5637   -0.1562 C   0  0  0  0  0  0  0  0  0  0  0  0
    1.7163    0.0156   -2.8893 H   0  0  0  0  0  0  0  0  0  0  0  0
   -0.0462    0.0156   -2.8893 H   0  0  0  0  0  0  0  0  0  0  0  0
    0.8350   -1.5179   -2.8948 H   0  0  0  0  0  0  0  0  0  0  0  0
   -0.2169   -1.1495   -0.5376 H   0  0  0  0  0  0  0  0  0  0  0  0
    1.7117   -1.0412   -0.6102 H   0  0  0  0  0  0  0  0  0  0  0  0
   -1.3004    1.0566   -0.3399 H   0  0  0  0  0  0  0  0  0  0  0  0
   -1.3036    3.3656    0.5147 H   0  0  0  0  0  0  0  0  0  0  0  0
    0.8350    4.5336    0.9449 H   0  0  0  0  0  0  0  0  0  0  0  0
    2.9736    3.3656    0.5147 H   0  0  0  0  0  0  0  0  0  0  0  0
    2.9705    1.0566   -0.3399 H   0  0  0  0  0  0  0  0  0  0  0  0
  1  2  1  0
  1  5  1  0
  2  3  1  0
  2  6  1  0
  2 21  1  0
  3  4  2  3
  3  7  1  0
  4  8  1  0
  4  9  1  0
 10 11  1  0
 10 18  1  0
 10 19  1  0
 10 20  1  0
 11 12  2  3
 11 22  1  0
 12 13  1  0
 12 17  1  0
 13 14  1  0
 13 23  1  0
 14 15  2  0
 14 24  1  0
 15 16  1  0
 15 25  1  0
 16 17  2  0
 16 26  1  0
 17 27  1  0
M  RAD  1  13   2
M  END
>  <reaction>  (15) 
rxn_1507

>  <mol_properties>  (15) 
{"0": {"label": "*0", "atom_type": "S2s"}, "1": {"label": "*1", "atom_type": "Cs"}, "10": {"label": "*3", "atom_type": "Cd"}, "11": {"label": "*4", "atom_type": "Cd"}, "20": {"label": "*2", "atom_type": "H0"}}

>  <type>  (15) 
unop_11

>  <geom_source>  (15) 
Heuristics

$$$$

     RDKit          3D

 27 26  0  0  0  0  0  0  0  0999 V2000
   -1.7783   -2.4773   -1.2910 S   0  0  0  0  0  0  0  0  0  0  0  0
   -0.9244   -1.9497    0.2305 C   0  0  0  0  0  0  0  0  0  0  0  0
   -1.7695   -1.0717    1.0910 C   0  0  0  0  0  0  0  0  0  0  0  0
   -2.1295   -1.3735    2.3290 C   0  0  0  0  0  0  0  0  0  0  0  0
   -2.8167   -3.0646   -0.6824 H   0  0  0  0  0  0  0  0  0  0  0  0
   -0.5736   -2.8231    0.7792 H   0  0  0  0  0  0  0  0  0  0  0  0
   -2.1069   -0.1450    0.6367 H   0  0  0  0  0  0  0  0  0  0  0  0
   -1.8142   -2.2977    2.8015 H   0  0  0  0  0  0  0  0  0  0  0  0
   -2.7497   -0.7075    2.9151 H   0  0  0  0  0  0  0  0  0  0  0  0
    1.1789   -0.6501   -2.1699 C   0  0  0  0  0  0  0  0  0  0  0  0
    1.1789   -0.6501   -0.6408 C   0  0  0  0  0  0  0  0  0  0  0  0
    1.1789    0.7442   -0.0714 C   0  0  0  0  0  0  0  0  0  0  0  0
   -0.0157    1.4132    0.1764 C   0  0  0  0  0  3  0  0  0  0  0  0
   -0.0189    2.7134    0.6573 C   0  0  0  0  0  0  0  0  0  0  0  0
    1.1789    3.3687    0.8991 C   0  0  0  0  0  0  0  0  0  0  0  0
    2.3767    2.7134    0.6573 C   0  0  0  0  0  0  0  0  0  0  0  0
    2.3734    1.4132    0.1764 C   0  0  0  0  0  0  0  0  0  0  0  0
    2.0601   -0.1350   -2.5567 H   0  0  0  0  0  0  0  0  0  0  0  0
    0.2976   -0.1350   -2.5567 H   0  0  0  0  0  0  0  0  0  0  0  0
    1.1789   -1.6685   -2.5622 H   0  0  0  0  0  0  0  0  0  0  0  0
    0.1269   -1.3001   -0.2050 H   0  0  0  0  0  0  0  0  0  0  0  0
    2.0555   -1.1917   -0.2777 H   0  0  0  0  0  0  0  0  0  0  0  0
   -0.9566    0.9060   -0.0074 H   0  0  0  0  0  0  0  0  0  0  0  0
   -0.9597    3.2151    0.8472 H   0  0  0  0  0  0  0  0  0  0  0  0
    1.1789    4.3831    1.2775 H   0  0  0  0  0  0  0  0  0  0  0  0
    3.3175    3.2151    0.8472 H   0  0  0  0  0  0  0  0  0  0  0  0
    3.3143    0.9060   -0.0074 H   0  0  0  0  0  0  0  0  0  0  0  0
  1  2  1  0
  1  5  1  0
  2  3  1  0
  2  6  1  0
  2 21  1  0
  3  4  2  3
  3  7  1  0
  4  8  1  0
  4  9  1  0
 10 11  1  0
 10 18  1  0
 10 19  1  0
 10 20  1  0
 11 12  2  3
 11 22  1  0
 12 13  1  0
 12 17  1  0
 13 14  1  0
 13 23  1  0
 14 15  2  0
 14 24  1  0
 15 16  1  0
 15 25  1  0
 16 17  2  0
 16 26  1  0
 17 27  1  0
M  RAD  1  13   2
M  END
>  <reaction>  (16) 
rxn_1507

>  <mol_properties>  (16) 
{"0": {"label": "*0", "atom_type": "S2s"}, "1": {"label": "*1", "atom_type": "Cs"}, "10": {"label": "*3", "atom_type": "Cd"}, "11": {"label": "*4", "atom_type": "Cd"}, "20": {"label": "*2", "atom_type": "H0"}}

>  <type>  (16) 
unop_12

>  <geom_source>  (16) 
Heuristics

$$$$

     RDKit          3D

 27 26  0  0  0  0  0  0  0  0999 V2000
    3.1363   -1.6243   -0.3988 S   0  0  0  0  0  0  0  0  0  0  0  0
    2.1968   -0.0783   -0.5864 C   0  0  0  0  0  0  0  0  0  0  0  0
   -0.3872   -1.8688    1.7234 C   0  0  0  0  0  0  0  0  0  0  0  0
   -1.2007   -0.2116    0.0436 C   0  0  0  0  0  0  0  0  0  0  0  0
   -0.0025   -0.9287    0.5884 C   0  0  0  0  0  0  0  0  0  0  0  0
    2.8234    1.0157    0.2245 C   0  0  0  0  0  0  0  0  0  0  0  0
   -1.7157    0.9211    0.6944 C   0  0  0  0  0  3  0  0  0  0  0  0
   -1.8331   -0.6951   -1.1105 C   0  0  0  0  0  0  0  0  0  0  0  0
   -2.8462    1.5687    0.1859 C   0  0  0  0  0  0  0  0  0  0  0  0
   -3.4692    1.0866   -0.9692 C   0  0  0  0  0  0  0  0  0  0  0  0
   -2.9635   -0.0450   -1.6163 C   0  0  0  0  0  0  0  0  0  0  0  0
    4.0123    1.5337   -0.0964 C   0  0  0  0  0  0  0  0  0  0  0  0
    2.1611    0.2127   -1.6579 H   0  0  0  0  0  0  0  0  0  0  0  0
    0.9390   -0.2829   -0.1537 H   0  0  0  0  0  0  0  0  0  0  0  0
   -1.1306   -2.6131    1.3672 H   0  0  0  0  0  0  0  0  0  0  0  0
    0.5165   -2.4093    2.0738 H   0  0  0  0  0  0  0  0  0  0  0  0
   -0.8151   -1.2952    2.5730 H   0  0  0  0  0  0  0  0  0  0  0  0
    2.2816    1.4146    1.0764 H   0  0  0  0  0  0  0  0  0  0  0  0
    0.7693   -0.2046    0.9282 H   0  0  0  0  0  0  0  0  0  0  0  0
   -1.2429    1.2993    1.5924 H   0  0  0  0  0  0  0  0  0  0  0  0
   -3.2404    2.4428    0.6880 H   0  0  0  0  0  0  0  0  0  0  0  0
   -1.4513   -1.5735   -1.6162 H   0  0  0  0  0  0  0  0  0  0  0  0
   -4.3444    1.5882   -1.3613 H   0  0  0  0  0  0  0  0  0  0  0  0
   -3.4485   -0.4193   -2.5086 H   0  0  0  0  0  0  0  0  0  0  0  0
    4.4349    2.3347    0.5013 H   0  0  0  0  0  0  0  0  0  0  0  0
    4.5690    1.1654   -0.9530 H   0  0  0  0  0  0  0  0  0  0  0  0
    2.2513   -2.3338   -1.2323 H   0  0  0  0  0  0  0  0  0  0  0  0
  1  2  1  0
  1 27  1  0
  2  6  1  0
  2 13  1  0
  2 14  1  0
  3  5  1  0
  3 15  1  0
  3 16  1  0
  3 17  1  0
  4  5  2  3
  4  7  1  0
  4  8  1  0
  5 19  1  0
  6 12  2  3
  6 18  1  0
  7  9  1  0
  7 20  1  0
  8 11  2  0
  8 22  1  0
  9 10  2  0
  9 21  1  0
 10 11  1  0
 10 23  1  0
 11 24  1  0
 12 25  1  0
 12 26  1  0
M  RAD  1   7   2
M  END
>  <reaction>  (17) 
rxn_1507

>  <mol_properties>  (17) 
{"0": {"label": "*0", "atom_type": "S2s"}, "1": {"label": "*1", "atom_type": "Cs"}, "10": {"label": "*3", "atom_type": "Cd"}, "11": {"label": "*4", "atom_type": "Cd"}, "20": {"label": "*2", "atom_type": "H0"}}

>  <type>  (17) 
unop_13

>  <geom_source>  (17) 
AutoTST

$$$$
