
     RDKit          3D

  8  7  0  0  0  0  0  0  0  0999 V2000
    0.7610    0.0250    0.0051 C   0  0  0  0  0  0  0  0  0  0  0  0
   -0.7610   -0.0250   -0.0051 C   0  0  0  0  0  0  0  0  0  0  0  0
    1.1904   -0.9237   -0.3217 H   0  0  0  0  0  0  0  0  0  0  0  0
    1.1359    0.8041   -0.6609 H   0  0  0  0  0  0  0  0  0  0  0  0
    1.1435    0.2336    1.0058 H   0  0  0  0  0  0  0  0  0  0  0  0
   -1.1435   -0.2336   -1.0058 H   0  0  0  0  0  0  0  0  0  0  0  0
   -1.1904    0.9237    0.3216 H   0  0  0  0  0  0  0  0  0  0  0  0
   -1.1359   -0.8041    0.6609 H   0  0  0  0  0  0  0  0  0  0  0  0
  1  2  1  0
  1  3  1  0
  1  4  1  0
  1  5  1  0
  2  6  1  0
  2  7  1  0
  2  8  1  0
M  END
>  <reaction>  (1) 
rxn_877

>  <mol_properties>  (1) 
{"1": {"label": "donator", "atom_type": "Cs"}, "5": {"label": "d_hydrogen", "atom_type": "H0"}}

>  <type>  (1) 
r1h

$$$$

     RDKit          3D

 12 11  0  0  0  0  0  0  0  0999 V2000
    2.5164   -0.5559   -0.0242 C   0  0  0  0  0  0  0  0  0  0  0  0
    1.3287   -0.2938   -0.0132 C   0  0  0  0  0  0  0  0  0  0  0  0
   -0.0146    0.0027   -0.0006 C   0  0  0  0  0  3  0  0  0  0  0  0
   -1.0396   -1.0729   -0.1642 C   0  0  0  0  0  0  0  0  0  0  0  0
   -0.4887    1.4091    0.1769 C   0  0  0  0  0  0  0  0  0  0  0  0
    3.5543   -0.7850   -0.0339 H   0  0  0  0  0  0  0  0  0  0  0  0
   -1.7064   -1.1056    0.7044 H   0  0  0  0  0  0  0  0  0  0  0  0
   -0.5831   -2.0533   -0.2854 H   0  0  0  0  0  0  0  0  0  0  0  0
   -1.6716   -0.8741   -1.0367 H   0  0  0  0  0  0  0  0  0  0  0  0
   -1.0951    1.7228   -0.6798 H   0  0  0  0  0  0  0  0  0  0  0  0
    0.3401    2.1059    0.2861 H   0  0  0  0  0  0  0  0  0  0  0  0
   -1.1300    1.4913    1.0613 H   0  0  0  0  0  0  0  0  0  0  0  0
  1  2  3  0
  1  6  1  0
  2  3  1  0
  3  4  1  0
  3  5  1  0
  4  7  1  0
  4  8  1  0
  4  9  1  0
  5 10  1  0
  5 11  1  0
  5 12  1  0
M  RAD  1   3   2
M  END
>  <reaction>  (2) 
rxn_877

>  <mol_properties>  (2) 
{"2": {"label": "acceptor", "atom_type": "Cs"}}

>  <type>  (2) 
r2

$$$$

     RDKit          3D

 13 12  0  0  0  0  0  0  0  0999 V2000
    2.2975   -0.6134    0.7685 C   0  0  0  0  0  0  0  0  0  0  0  0
    1.1676   -0.5248    0.3802 C   0  0  0  0  0  0  0  0  0  0  0  0
   -0.2109   -0.3926   -0.0948 C   0  0  0  0  0  0  0  0  0  0  0  0
   -0.2501    0.2584   -1.4808 C   0  0  0  0  0  0  0  0  0  0  0  0
   -1.0633    0.3831    0.9141 C   0  0  0  0  0  0  0  0  0  0  0  0
    3.2999   -0.6974    1.1133 H   0  0  0  0  0  0  0  0  0  0  0  0
   -0.6209   -1.4038   -0.1814 H   0  0  0  0  0  0  0  0  0  0  0  0
    0.3402   -0.3102   -2.1992 H   0  0  0  0  0  0  0  0  0  0  0  0
    0.1511    1.2724   -1.4369 H   0  0  0  0  0  0  0  0  0  0  0  0
   -1.2791    0.3109   -1.8407 H   0  0  0  0  0  0  0  0  0  0  0  0
   -0.6861    1.4008    1.0287 H   0  0  0  0  0  0  0  0  0  0  0  0
   -1.0492   -0.0971    1.8924 H   0  0  0  0  0  0  0  0  0  0  0  0
   -2.0971    0.4363    0.5680 H   0  0  0  0  0  0  0  0  0  0  0  0
  1  2  3  0
  1  6  1  0
  2  3  1  0
  3  4  1  0
  3  5  1  0
  3  7  1  0
  4  8  1  0
  4  9  1  0
  4 10  1  0
  5 11  1  0
  5 12  1  0
  5 13  1  0
M  END
>  <reaction>  (3) 
rxn_877

>  <mol_properties>  (3) 
{"2": {"label": "acceptor", "atom_type": "Cs"}, "12": {"label": "a_hydrogen", "atom_type": "H0"}}

>  <type>  (3) 
r2h

$$$$

     RDKit          3D

 20 18  0  0  0  0  0  0  0  0999 V2000
   -2.0790    0.9056    0.9512 C   0  0  0  0  0  0  0  0  0  0  0  0
   -0.9508    0.8160    0.5466 C   0  0  0  0  0  0  0  0  0  0  0  0
    0.3829    0.6700    0.0294 C   0  0  0  0  0  0  0  0  0  0  0  0
    1.3738    0.1022    1.0303 C   0  0  0  0  0  0  0  0  0  0  0  0
    0.8908    1.8846   -0.7274 C   0  0  0  0  0  0  0  0  0  0  0  0
   -3.0730    0.9954    1.3175 H   0  0  0  0  0  0  0  0  0  0  0  0
    2.3137   -0.1404    0.5300 H   0  0  0  0  0  0  0  0  0  0  0  0
    0.9855   -0.8036    1.4965 H   0  0  0  0  0  0  0  0  0  0  0  0
    1.5873    0.8253    1.8222 H   0  0  0  0  0  0  0  0  0  0  0  0
    1.0647    2.7235   -0.0480 H   0  0  0  0  0  0  0  0  0  0  0  0
    0.1732    2.2047   -1.4831 H   0  0  0  0  0  0  0  0  0  0  0  0
    1.8345    1.6485   -1.2235 H   0  0  0  0  0  0  0  0  0  0  0  0
   -0.4797   -2.4069   -1.0282 C   0  0  0  0  0  0  0  0  0  0  0  0
    0.1835   -1.3060   -1.8012 C   0  0  0  0  0  3  0  0  0  0  0  0
    0.1569   -2.7607   -0.2151 H   0  0  0  0  0  0  0  0  0  0  0  0
   -1.4217   -2.0664   -0.5935 H   0  0  0  0  0  0  0  0  0  0  0  0
   -0.7039   -3.2689   -1.6660 H   0  0  0  0  0  0  0  0  0  0  0  0
    0.2853   -0.2363   -0.8624 H   0  0  0  0  0  0  0  0  0  0  0  0
   -0.4139   -0.8453   -2.5844 H   0  0  0  0  0  0  0  0  0  0  0  0
    1.2149   -1.4774   -2.1005 H   0  0  0  0  0  0  0  0  0  0  0  0
  1  2  3  0
  1  6  1  0
  2  3  1  0
  3  4  1  0
  3  5  1  0
  3 18  1  0
  4  7  1  0
  4  8  1  0
  4  9  1  0
  5 10  1  0
  5 11  1  0
  5 12  1  0
 13 14  1  0
 13 15  1  0
 13 16  1  0
 13 17  1  0
 14 19  1  0
 14 20  1  0
M  RAD  1  14   2
M  END
>  <reaction>  (4) 
rxn_877

>  <mol_properties>  (4) 
{"1": {"label": "*0", "atom_type": "Ct"}, "2": {"label": "*1", "atom_type": "Cs"}, "12": {"label": "*4", "atom_type": "Cs"}, "13": {"label": "*3", "atom_type": "Cs"}, "17": {"label": "*2", "atom_type": "H0"}}

>  <type>  (4) 
ts

$$$$

     RDKit          3D

 20 18  0  0  0  0  0  0  0  0999 V2000
   -1.9976    0.8768    1.6615 C   0  0  0  0  0  0  0  0  0  0  0  0
   -1.0163    0.7443    0.9871 C   0  0  0  0  0  0  0  0  0  0  0  0
    0.1951    0.5956    0.1787 C   0  0  0  0  0  3  0  0  0  0  0  0
    1.2859   -0.1418    0.9613 C   0  0  0  0  0  0  0  0  0  0  0  0
    0.6868    1.9570   -0.3225 C   0  0  0  0  0  0  0  0  0  0  0  0
   -2.8686    0.9943    2.2601 H   0  0  0  0  0  0  0  0  0  0  0  0
    2.1666   -0.2839    0.3325 H   0  0  0  0  0  0  0  0  0  0  0  0
    0.9374   -1.1188    1.2962 H   0  0  0  0  0  0  0  0  0  0  0  0
    1.5800    0.4346    1.8401 H   0  0  0  0  0  0  0  0  0  0  0  0
    0.9633    2.5954    0.5184 H   0  0  0  0  0  0  0  0  0  0  0  0
   -0.0861    2.4671   -0.8973 H   0  0  0  0  0  0  0  0  0  0  0  0
    1.5641    1.8271   -0.9587 H   0  0  0  0  0  0  0  0  0  0  0  0
    0.1951   -1.8490   -2.2956 C   0  0  0  0  0  0  0  0  0  0  0  0
    0.1951   -1.8490   -0.7728 C   0  0  0  0  0  0  0  0  0  0  0  0
   -0.6857   -1.3405   -2.6914 H   0  0  0  0  0  0  0  0  0  0  0  0
    1.0760   -1.3405   -2.6914 H   0  0  0  0  0  0  0  0  0  0  0  0
    0.1951   -2.8661   -2.6914 H   0  0  0  0  0  0  0  0  0  0  0  0
    0.1951   -0.6285   -0.2978 H   0  0  0  0  0  0  0  0  0  0  0  0
    1.0760   -2.3576   -0.3769 H   0  0  0  0  0  0  0  0  0  0  0  0
   -0.6857   -2.3576   -0.3769 H   0  0  0  0  0  0  0  0  0  0  0  0
  1  2  3  0
  1  6  1  0
  2  3  1  0
  3  4  1  0
  3  5  1  0
  4  7  1  0
  4  8  1  0
  4  9  1  0
  5 10  1  0
  5 11  1  0
  5 12  1  0
 13 14  1  0
 13 15  1  0
 13 16  1  0
 13 17  1  0
 14 18  1  0
 14 19  1  0
 14 20  1  0
M  RAD  1   3   2
M  END
>  <reaction>  (5) 
rxn_877

>  <mol_properties>  (5) 
{"1": {"label": "*0", "atom_type": "Ct"}, "2": {"label": "*1", "atom_type": "Cs"}, "12": {"label": "*4", "atom_type": "Cs"}, "13": {"label": "*3", "atom_type": "Cs"}, "17": {"label": "*2", "atom_type": "H0"}}

>  <type>  (5) 
unop_1

>  <geom_source>  (5) 
Heuristics

$$$$

     RDKit          3D

 20 18  0  0  0  0  0  0  0  0999 V2000
   -1.0680    1.9311   -1.1329 C   0  0  0  0  0  0  0  0  0  0  0  0
   -0.4930    1.2286   -0.3509 C   0  0  0  0  0  0  0  0  0  0  0  0
    0.2064    0.3869    0.6214 C   0  0  0  0  0  3  0  0  0  0  0  0
   -0.7209    0.0056    1.7794 C   0  0  0  0  0  0  0  0  0  0  0  0
    1.4783    1.0763    1.1244 C   0  0  0  0  0  0  0  0  0  0  0  0
   -1.5782    2.5546   -1.8268 H   0  0  0  0  0  0  0  0  0  0  0  0
   -0.2002   -0.6566    2.4734 H   0  0  0  0  0  0  0  0  0  0  0  0
   -1.6135   -0.5042    1.4170 H   0  0  0  0  0  0  0  0  0  0  0  0
   -1.0354    0.8969    2.3250 H   0  0  0  0  0  0  0  0  0  0  0  0
    1.2287    1.9993    1.6507 H   0  0  0  0  0  0  0  0  0  0  0  0
    2.1439    1.3252    0.2980 H   0  0  0  0  0  0  0  0  0  0  0  0
    2.0117    0.4204    1.8146 H   0  0  0  0  0  0  0  0  0  0  0  0
    0.2064   -2.0578   -1.8528 C   0  0  0  0  0  0  0  0  0  0  0  0
    0.2064   -2.0578   -0.3300 C   0  0  0  0  0  0  0  0  0  0  0  0
   -0.6744   -1.5492   -2.2486 H   0  0  0  0  0  0  0  0  0  0  0  0
    1.0872   -1.5492   -2.2486 H   0  0  0  0  0  0  0  0  0  0  0  0
    0.2064   -3.0749   -2.2486 H   0  0  0  0  0  0  0  0  0  0  0  0
    0.2064   -0.8373    0.1450 H   0  0  0  0  0  0  0  0  0  0  0  0
    1.0872   -2.5664    0.0658 H   0  0  0  0  0  0  0  0  0  0  0  0
   -0.6744   -2.5664    0.0658 H   0  0  0  0  0  0  0  0  0  0  0  0
  1  2  3  0
  1  6  1  0
  2  3  1  0
  3  4  1  0
  3  5  1  0
  4  7  1  0
  4  8  1  0
  4  9  1  0
  5 10  1  0
  5 11  1  0
  5 12  1  0
 13 14  1  0
 13 15  1  0
 13 16  1  0
 13 17  1  0
 14 18  1  0
 14 19  1  0
 14 20  1  0
M  RAD  1   3   2
M  END
>  <reaction>  (6) 
rxn_877

>  <mol_properties>  (6) 
{"1": {"label": "*0", "atom_type": "Ct"}, "2": {"label": "*1", "atom_type": "Cs"}, "12": {"label": "*4", "atom_type": "Cs"}, "13": {"label": "*3", "atom_type": "Cs"}, "17": {"label": "*2", "atom_type": "H0"}}

>  <type>  (6) 
unop_2

>  <geom_source>  (6) 
Heuristics

$$$$

     RDKit          3D

 20 18  0  0  0  0  0  0  0  0999 V2000
   -1.1985    0.5365    2.4796 C   0  0  0  0  0  0  0  0  0  0  0  0
   -0.6363    0.5512    1.4216 C   0  0  0  0  0  0  0  0  0  0  0  0
    0.0631    0.5882    0.1361 C   0  0  0  0  0  3  0  0  0  0  0  0
    1.5675    0.3727    0.3273 C   0  0  0  0  0  0  0  0  0  0  0  0
   -0.2268    1.8969   -0.6050 C   0  0  0  0  0  0  0  0  0  0  0  0
   -1.6974    0.5235    3.4185 H   0  0  0  0  0  0  0  0  0  0  0  0
    2.0699    0.3593   -0.6415 H   0  0  0  0  0  0  0  0  0  0  0  0
    1.7683   -0.5704    0.8354 H   0  0  0  0  0  0  0  0  0  0  0  0
    1.9949    1.1795    0.9252 H   0  0  0  0  0  0  0  0  0  0  0  0
    0.1476    2.7487   -0.0347 H   0  0  0  0  0  0  0  0  0  0  0  0
   -1.2973    2.0338   -0.7576 H   0  0  0  0  0  0  0  0  0  0  0  0
    0.2651    1.8923   -1.5793 H   0  0  0  0  0  0  0  0  0  0  0  0
    0.0631   -1.8565   -2.3382 C   0  0  0  0  0  0  0  0  0  0  0  0
    0.0631   -1.8565   -0.8154 C   0  0  0  0  0  0  0  0  0  0  0  0
   -0.8177   -1.3479   -2.7340 H   0  0  0  0  0  0  0  0  0  0  0  0
    0.9440   -1.3479   -2.7340 H   0  0  0  0  0  0  0  0  0  0  0  0
    0.0631   -2.8736   -2.7340 H   0  0  0  0  0  0  0  0  0  0  0  0
    0.0631   -0.6360   -0.3404 H   0  0  0  0  0  0  0  0  0  0  0  0
    0.9440   -2.3651   -0.4195 H   0  0  0  0  0  0  0  0  0  0  0  0
   -0.8177   -2.3651   -0.4195 H   0  0  0  0  0  0  0  0  0  0  0  0
  1  2  3  0
  1  6  1  0
  2  3  1  0
  3  4  1  0
  3  5  1  0
  4  7  1  0
  4  8  1  0
  4  9  1  0
  5 10  1  0
  5 11  1  0
  5 12  1  0
 13 14  1  0
 13 15  1  0
 13 16  1  0
 13 17  1  0
 14 18  1  0
 14 19  1  0
 14 20  1  0
M  RAD  1   3   2
M  END
>  <reaction>  (7) 
rxn_877

>  <mol_properties>  (7) 
{"1": {"label": "*0", "atom_type": "Ct"}, "2": {"label": "*1", "atom_type": "Cs"}, "12": {"label": "*4", "atom_type": "Cs"}, "13": {"label": "*3", "atom_type": "Cs"}, "17": {"label": "*2", "atom_type": "H0"}}

>  <type>  (7) 
unop_3

>  <geom_source>  (7) 
Heuristics

$$$$

     RDKit          3D

 20 18  0  0  0  0  0  0  0  0999 V2000
    1.8865    1.6713   -0.4132 C   0  0  0  0  0  0  0  0  0  0  0  0
    0.8943    1.1237   -0.0243 C   0  0  0  0  0  0  0  0  0  0  0  0
   -0.3171    0.4677    0.4709 C   0  0  0  0  0  3  0  0  0  0  0  0
   -1.4467    1.4837    0.6658 C   0  0  0  0  0  0  0  0  0  0  0  0
   -0.0296   -0.3065    1.7609 C   0  0  0  0  0  0  0  0  0  0  0  0
    2.7671    2.1572   -0.7583 H   0  0  0  0  0  0  0  0  0  0  0  0
   -2.3552    0.9751    0.9932 H   0  0  0  0  0  0  0  0  0  0  0  0
   -1.6615    2.0156   -0.2609 H   0  0  0  0  0  0  0  0  0  0  0  0
   -1.1714    2.2185    1.4245 H   0  0  0  0  0  0  0  0  0  0  0  0
    0.2875    0.3754    2.5518 H   0  0  0  0  0  0  0  0  0  0  0  0
    0.7596   -1.0430    1.6100 H   0  0  0  0  0  0  0  0  0  0  0  0
   -0.9299   -0.8254    2.0946 H   0  0  0  0  0  0  0  0  0  0  0  0
   -0.3171   -1.9770   -2.0033 C   0  0  0  0  0  0  0  0  0  0  0  0
   -0.3171   -1.9770   -0.4805 C   0  0  0  0  0  0  0  0  0  0  0  0
   -1.1980   -1.4684   -2.3992 H   0  0  0  0  0  0  0  0  0  0  0  0
    0.5637   -1.4684   -2.3992 H   0  0  0  0  0  0  0  0  0  0  0  0
   -0.3171   -2.9941   -2.3992 H   0  0  0  0  0  0  0  0  0  0  0  0
   -0.3171   -0.7565   -0.0055 H   0  0  0  0  0  0  0  0  0  0  0  0
    0.5637   -2.4856   -0.0847 H   0  0  0  0  0  0  0  0  0  0  0  0
   -1.1980   -2.4856   -0.0847 H   0  0  0  0  0  0  0  0  0  0  0  0
  1  2  3  0
  1  6  1  0
  2  3  1  0
  3  4  1  0
  3  5  1  0
  4  7  1  0
  4  8  1  0
  4  9  1  0
  5 10  1  0
  5 11  1  0
  5 12  1  0
 13 14  1  0
 13 15  1  0
 13 16  1  0
 13 17  1  0
 14 18  1  0
 14 19  1  0
 14 20  1  0
M  RAD  1   3   2
M  END
>  <reaction>  (8) 
rxn_877

>  <mol_properties>  (8) 
{"1": {"label": "*0", "atom_type": "Ct"}, "2": {"label": "*1", "atom_type": "Cs"}, "12": {"label": "*4", "atom_type": "Cs"}, "13": {"label": "*3", "atom_type": "Cs"}, "17": {"label": "*2", "atom_type": "H0"}}

>  <type>  (8) 
unop_4

>  <geom_source>  (8) 
Heuristics

$$$$

     RDKit          3D

 20 18  0  0  0  0  0  0  0  0999 V2000
    0.0000    0.3902    2.7997 C   0  0  0  0  0  0  0  0  0  0  0  0
   -0.0000    0.4566    1.6034 C   0  0  0  0  0  0  0  0  0  0  0  0
   -0.0000    0.5616    0.1432 C   0  0  0  0  0  3  0  0  0  0  0  0
    1.2661    1.2666   -0.3529 C   0  0  0  0  0  0  0  0  0  0  0  0
   -1.2661    1.2666   -0.3529 C   0  0  0  0  0  0  0  0  0  0  0  0
    0.0000    0.3313    3.8614 H   0  0  0  0  0  0  0  0  0  0  0  0
    1.2735    1.2991   -1.4438 H   0  0  0  0  0  0  0  0  0  0  0  0
    2.1632    0.7478   -0.0151 H   0  0  0  0  0  0  0  0  0  0  0  0
    1.3035    2.2909    0.0220 H   0  0  0  0  0  0  0  0  0  0  0  0
   -1.3035    2.2909    0.0220 H   0  0  0  0  0  0  0  0  0  0  0  0
   -2.1632    0.7478   -0.0151 H   0  0  0  0  0  0  0  0  0  0  0  0
   -1.2735    1.2991   -1.4438 H   0  0  0  0  0  0  0  0  0  0  0  0
   -0.0000   -1.8831   -2.3310 C   0  0  0  0  0  0  0  0  0  0  0  0
   -0.0000   -1.8831   -0.8082 C   0  0  0  0  0  0  0  0  0  0  0  0
   -0.8808   -1.3745   -2.7269 H   0  0  0  0  0  0  0  0  0  0  0  0
    0.8808   -1.3745   -2.7269 H   0  0  0  0  0  0  0  0  0  0  0  0
   -0.0000   -2.9002   -2.7269 H   0  0  0  0  0  0  0  0  0  0  0  0
   -0.0000   -0.6626   -0.3332 H   0  0  0  0  0  0  0  0  0  0  0  0
    0.8808   -2.3917   -0.4124 H   0  0  0  0  0  0  0  0  0  0  0  0
   -0.8808   -2.3917   -0.4124 H   0  0  0  0  0  0  0  0  0  0  0  0
  1  2  3  0
  1  6  1  0
  2  3  1  0
  3  4  1  0
  3  5  1  0
  4  7  1  0
  4  8  1  0
  4  9  1  0
  5 10  1  0
  5 11  1  0
  5 12  1  0
 13 14  1  0
 13 15  1  0
 13 16  1  0
 13 17  1  0
 14 18  1  0
 14 19  1  0
 14 20  1  0
M  RAD  1   3   2
M  END
>  <reaction>  (9) 
rxn_877

>  <mol_properties>  (9) 
{"1": {"label": "*0", "atom_type": "Ct"}, "2": {"label": "*1", "atom_type": "Cs"}, "12": {"label": "*4", "atom_type": "Cs"}, "13": {"label": "*3", "atom_type": "Cs"}, "17": {"label": "*2", "atom_type": "H0"}}

>  <type>  (9) 
unop_5

>  <geom_source>  (9) 
Heuristics

$$$$

     RDKit          3D

 20 18  0  0  0  0  0  0  0  0999 V2000
    2.2351    1.2897    0.6036 C   0  0  0  0  0  0  0  0  0  0  0  0
    1.0950    0.9512    0.4587 C   0  0  0  0  0  0  0  0  0  0  0  0
   -0.3039    0.5489    0.3021 C   0  0  0  0  0  3  0  0  0  0  0  0
   -1.2117    1.7748    0.1630 C   0  0  0  0  0  0  0  0  0  0  0  0
   -0.7463   -0.3486    1.4619 C   0  0  0  0  0  0  0  0  0  0  0  0
    3.2470    1.5901    0.7321 H   0  0  0  0  0  0  0  0  0  0  0  0
   -2.2444    1.4596    0.0036 H   0  0  0  0  0  0  0  0  0  0  0  0
   -0.9053    2.3977   -0.6772 H   0  0  0  0  0  0  0  0  0  0  0  0
   -1.1734    2.3819    1.0691 H   0  0  0  0  0  0  0  0  0  0  0  0
   -0.6943    0.1959    2.4063 H   0  0  0  0  0  0  0  0  0  0  0  0
   -0.1103   -1.2301    1.5419 H   0  0  0  0  0  0  0  0  0  0  0  0
   -1.7763   -0.6760    1.3099 H   0  0  0  0  0  0  0  0  0  0  0  0
   -0.3039   -1.8958   -2.1721 C   0  0  0  0  0  0  0  0  0  0  0  0
   -0.3039   -1.8958   -0.6493 C   0  0  0  0  0  0  0  0  0  0  0  0
   -1.1848   -1.3873   -2.5679 H   0  0  0  0  0  0  0  0  0  0  0  0
    0.5769   -1.3873   -2.5679 H   0  0  0  0  0  0  0  0  0  0  0  0
   -0.3039   -2.9129   -2.5679 H   0  0  0  0  0  0  0  0  0  0  0  0
   -0.3039   -0.6753   -0.1743 H   0  0  0  0  0  0  0  0  0  0  0  0
    0.5769   -2.4044   -0.2535 H   0  0  0  0  0  0  0  0  0  0  0  0
   -1.1848   -2.4044   -0.2535 H   0  0  0  0  0  0  0  0  0  0  0  0
  1  2  3  0
  1  6  1  0
  2  3  1  0
  3  4  1  0
  3  5  1  0
  4  7  1  0
  4  8  1  0
  4  9  1  0
  5 10  1  0
  5 11  1  0
  5 12  1  0
 13 14  1  0
 13 15  1  0
 13 16  1  0
 13 17  1  0
 14 18  1  0
 14 19  1  0
 14 20  1  0
M  RAD  1   3   2
M  END
>  <reaction>  (10) 
rxn_877

>  <mol_properties>  (10) 
{"1": {"label": "*0", "atom_type": "Ct"}, "2": {"label": "*1", "atom_type": "Cs"}, "12": {"label": "*4", "atom_type": "Cs"}, "13": {"label": "*3", "atom_type": "Cs"}, "17": {"label": "*2", "atom_type": "H0"}}

>  <type>  (10) 
unop_6

>  <geom_source>  (10) 
Heuristics

$$$$

     RDKit          3D

 20 18  0  0  0  0  0  0  0  0999 V2000
    1.9976    0.8768    1.6615 C   0  0  0  0  0  0  0  0  0  0  0  0
    1.0163    0.7443    0.9871 C   0  0  0  0  0  0  0  0  0  0  0  0
   -0.1951    0.5956    0.1787 C   0  0  0  0  0  3  0  0  0  0  0  0
   -0.6868    1.9570   -0.3225 C   0  0  0  0  0  0  0  0  0  0  0  0
   -1.2859   -0.1418    0.9613 C   0  0  0  0  0  0  0  0  0  0  0  0
    2.8686    0.9943    2.2601 H   0  0  0  0  0  0  0  0  0  0  0  0
   -1.5641    1.8271   -0.9587 H   0  0  0  0  0  0  0  0  0  0  0  0
    0.0861    2.4671   -0.8973 H   0  0  0  0  0  0  0  0  0  0  0  0
   -0.9633    2.5954    0.5184 H   0  0  0  0  0  0  0  0  0  0  0  0
   -1.5800    0.4346    1.8401 H   0  0  0  0  0  0  0  0  0  0  0  0
   -0.9374   -1.1188    1.2962 H   0  0  0  0  0  0  0  0  0  0  0  0
   -2.1666   -0.2839    0.3325 H   0  0  0  0  0  0  0  0  0  0  0  0
   -0.1951   -1.8490   -2.2956 C   0  0  0  0  0  0  0  0  0  0  0  0
   -0.1951   -1.8490   -0.7728 C   0  0  0  0  0  0  0  0  0  0  0  0
   -1.0760   -1.3405   -2.6914 H   0  0  0  0  0  0  0  0  0  0  0  0
    0.6857   -1.3405   -2.6914 H   0  0  0  0  0  0  0  0  0  0  0  0
   -0.1951   -2.8661   -2.6914 H   0  0  0  0  0  0  0  0  0  0  0  0
   -0.1951   -0.6285   -0.2978 H   0  0  0  0  0  0  0  0  0  0  0  0
    0.6857   -2.3576   -0.3769 H   0  0  0  0  0  0  0  0  0  0  0  0
   -1.0760   -2.3576   -0.3769 H   0  0  0  0  0  0  0  0  0  0  0  0
  1  2  3  0
  1  6  1  0
  2  3  1  0
  3  4  1  0
  3  5  1  0
  4  7  1  0
  4  8  1  0
  4  9  1  0
  5 10  1  0
  5 11  1  0
  5 12  1  0
 13 14  1  0
 13 15  1  0
 13 16  1  0
 13 17  1  0
 14 18  1  0
 14 19  1  0
 14 20  1  0
M  RAD  1   3   2
M  END
>  <reaction>  (11) 
rxn_877

>  <mol_properties>  (11) 
{"1": {"label": "*0", "atom_type": "Ct"}, "2": {"label": "*1", "atom_type": "Cs"}, "12": {"label": "*4", "atom_type": "Cs"}, "13": {"label": "*3", "atom_type": "Cs"}, "17": {"label": "*2", "atom_type": "H0"}}

>  <type>  (11) 
unop_7

>  <geom_source>  (11) 
Heuristics

$$$$

     RDKit          3D

 20 18  0  0  0  0  0  0  0  0999 V2000
   -2.2351    1.2897    0.6036 C   0  0  0  0  0  0  0  0  0  0  0  0
   -1.0950    0.9512    0.4587 C   0  0  0  0  0  0  0  0  0  0  0  0
    0.3039    0.5489    0.3021 C   0  0  0  0  0  3  0  0  0  0  0  0
    0.7463   -0.3486    1.4619 C   0  0  0  0  0  0  0  0  0  0  0  0
    1.2117    1.7747    0.1630 C   0  0  0  0  0  0  0  0  0  0  0  0
   -3.2470    1.5901    0.7321 H   0  0  0  0  0  0  0  0  0  0  0  0
    1.7764   -0.6760    1.3099 H   0  0  0  0  0  0  0  0  0  0  0  0
    0.1103   -1.2301    1.5419 H   0  0  0  0  0  0  0  0  0  0  0  0
    0.6943    0.1959    2.4063 H   0  0  0  0  0  0  0  0  0  0  0  0
    1.1734    2.3819    1.0691 H   0  0  0  0  0  0  0  0  0  0  0  0
    0.9053    2.3977   -0.6772 H   0  0  0  0  0  0  0  0  0  0  0  0
    2.2444    1.4596    0.0036 H   0  0  0  0  0  0  0  0  0  0  0  0
    0.3039   -1.8958   -2.1721 C   0  0  0  0  0  0  0  0  0  0  0  0
    0.3039   -1.8958   -0.6493 C   0  0  0  0  0  0  0  0  0  0  0  0
   -0.5769   -1.3873   -2.5679 H   0  0  0  0  0  0  0  0  0  0  0  0
    1.1848   -1.3873   -2.5679 H   0  0  0  0  0  0  0  0  0  0  0  0
    0.3039   -2.9129   -2.5679 H   0  0  0  0  0  0  0  0  0  0  0  0
    0.3039   -0.6753   -0.1743 H   0  0  0  0  0  0  0  0  0  0  0  0
    1.1848   -2.4044   -0.2535 H   0  0  0  0  0  0  0  0  0  0  0  0
   -0.5769   -2.4044   -0.2535 H   0  0  0  0  0  0  0  0  0  0  0  0
  1  2  3  0
  1  6  1  0
  2  3  1  0
  3  4  1  0
  3  5  1  0
  4  7  1  0
  4  8  1  0
  4  9  1  0
  5 10  1  0
  5 11  1  0
  5 12  1  0
 13 14  1  0
 13 15  1  0
 13 16  1  0
 13 17  1  0
 14 18  1  0
 14 19  1  0
 14 20  1  0
M  RAD  1   3   2
M  END
>  <reaction>  (12) 
rxn_877

>  <mol_properties>  (12) 
{"1": {"label": "*0", "atom_type": "Ct"}, "2": {"label": "*1", "atom_type": "Cs"}, "12": {"label": "*4", "atom_type": "Cs"}, "13": {"label": "*3", "atom_type": "Cs"}, "17": {"label": "*2", "atom_type": "H0"}}

>  <type>  (12) 
unop_8

>  <geom_source>  (12) 
Heuristics

$$$$

     RDKit          3D

 20 18  0  0  0  0  0  0  0  0999 V2000
    1.0680    1.9311   -1.1329 C   0  0  0  0  0  0  0  0  0  0  0  0
    0.4930    1.2286   -0.3509 C   0  0  0  0  0  0  0  0  0  0  0  0
   -0.2064    0.3869    0.6214 C   0  0  0  0  0  3  0  0  0  0  0  0
   -1.4783    1.0763    1.1244 C   0  0  0  0  0  0  0  0  0  0  0  0
    0.7209    0.0056    1.7794 C   0  0  0  0  0  0  0  0  0  0  0  0
    1.5782    2.5546   -1.8268 H   0  0  0  0  0  0  0  0  0  0  0  0
   -2.0117    0.4204    1.8146 H   0  0  0  0  0  0  0  0  0  0  0  0
   -2.1439    1.3252    0.2980 H   0  0  0  0  0  0  0  0  0  0  0  0
   -1.2287    1.9993    1.6507 H   0  0  0  0  0  0  0  0  0  0  0  0
    1.0354    0.8969    2.3250 H   0  0  0  0  0  0  0  0  0  0  0  0
    1.6135   -0.5042    1.4170 H   0  0  0  0  0  0  0  0  0  0  0  0
    0.2002   -0.6566    2.4734 H   0  0  0  0  0  0  0  0  0  0  0  0
   -0.2064   -2.0578   -1.8528 C   0  0  0  0  0  0  0  0  0  0  0  0
   -0.2064   -2.0578   -0.3300 C   0  0  0  0  0  0  0  0  0  0  0  0
   -1.0872   -1.5492   -2.2486 H   0  0  0  0  0  0  0  0  0  0  0  0
    0.6745   -1.5492   -2.2486 H   0  0  0  0  0  0  0  0  0  0  0  0
   -0.2064   -3.0749   -2.2486 H   0  0  0  0  0  0  0  0  0  0  0  0
   -0.2064   -0.8373    0.1450 H   0  0  0  0  0  0  0  0  0  0  0  0
    0.6744   -2.5664    0.0658 H   0  0  0  0  0  0  0  0  0  0  0  0
   -1.0872   -2.5664    0.0658 H   0  0  0  0  0  0  0  0  0  0  0  0
  1  2  3  0
  1  6  1  0
  2  3  1  0
  3  4  1  0
  3  5  1  0
  4  7  1  0
  4  8  1  0
  4  9  1  0
  5 10  1  0
  5 11  1  0
  5 12  1  0
 13 14  1  0
 13 15  1  0
 13 16  1  0
 13 17  1  0
 14 18  1  0
 14 19  1  0
 14 20  1  0
M  RAD  1   3   2
M  END
>  <reaction>  (13) 
rxn_877

>  <mol_properties>  (13) 
{"1": {"label": "*0", "atom_type": "Ct"}, "2": {"label": "*1", "atom_type": "Cs"}, "12": {"label": "*4", "atom_type": "Cs"}, "13": {"label": "*3", "atom_type": "Cs"}, "17": {"label": "*2", "atom_type": "H0"}}

>  <type>  (13) 
unop_9

>  <geom_source>  (13) 
Heuristics

$$$$

     RDKit          3D

 20 18  0  0  0  0  0  0  0  0999 V2000
   -1.8865    1.6713   -0.4132 C   0  0  0  0  0  0  0  0  0  0  0  0
   -0.8943    1.1237   -0.0243 C   0  0  0  0  0  0  0  0  0  0  0  0
    0.3171    0.4677    0.4709 C   0  0  0  0  0  3  0  0  0  0  0  0
    0.0296   -0.3065    1.7609 C   0  0  0  0  0  0  0  0  0  0  0  0
    1.4467    1.4837    0.6658 C   0  0  0  0  0  0  0  0  0  0  0  0
   -2.7671    2.1572   -0.7583 H   0  0  0  0  0  0  0  0  0  0  0  0
    0.9299   -0.8254    2.0946 H   0  0  0  0  0  0  0  0  0  0  0  0
   -0.7596   -1.0430    1.6100 H   0  0  0  0  0  0  0  0  0  0  0  0
   -0.2875    0.3754    2.5518 H   0  0  0  0  0  0  0  0  0  0  0  0
    1.1714    2.2185    1.4245 H   0  0  0  0  0  0  0  0  0  0  0  0
    1.6615    2.0156   -0.2609 H   0  0  0  0  0  0  0  0  0  0  0  0
    2.3552    0.9752    0.9932 H   0  0  0  0  0  0  0  0  0  0  0  0
    0.3171   -1.9770   -2.0033 C   0  0  0  0  0  0  0  0  0  0  0  0
    0.3171   -1.9770   -0.4805 C   0  0  0  0  0  0  0  0  0  0  0  0
   -0.5637   -1.4684   -2.3992 H   0  0  0  0  0  0  0  0  0  0  0  0
    1.1980   -1.4684   -2.3992 H   0  0  0  0  0  0  0  0  0  0  0  0
    0.3171   -2.9941   -2.3992 H   0  0  0  0  0  0  0  0  0  0  0  0
    0.3171   -0.7565   -0.0055 H   0  0  0  0  0  0  0  0  0  0  0  0
    1.1980   -2.4856   -0.0847 H   0  0  0  0  0  0  0  0  0  0  0  0
   -0.5637   -2.4856   -0.0847 H   0  0  0  0  0  0  0  0  0  0  0  0
  1  2  3  0
  1  6  1  0
  2  3  1  0
  3  4  1  0
  3  5  1  0
  4  7  1  0
  4  8  1  0
  4  9  1  0
  5 10  1  0
  5 11  1  0
  5 12  1  0
 13 14  1  0
 13 15  1  0
 13 16  1  0
 13 17  1  0
 14 18  1  0
 14 19  1  0
 14 20  1  0
M  RAD  1   3   2
M  END
>  <reaction>  (14) 
rxn_877

>  <mol_properties>  (14) 
{"1": {"label": "*0", "atom_type": "Ct"}, "2": {"label": "*1", "atom_type": "Cs"}, "12": {"label": "*4", "atom_type": "Cs"}, "13": {"label": "*3", "atom_type": "Cs"}, "17": {"label": "*2", "atom_type": "H0"}}

>  <type>  (14) 
unop_10

>  <geom_source>  (14) 
Heuristics

$$$$

     RDKit          3D

 20 18  0  0  0  0  0  0  0  0999 V2000
    1.1985    0.5365    2.4796 C   0  0  0  0  0  0  0  0  0  0  0  0
    0.6363    0.5512    1.4216 C   0  0  0  0  0  0  0  0  0  0  0  0
   -0.0631    0.5882    0.1361 C   0  0  0  0  0  3  0  0  0  0  0  0
    0.2268    1.8969   -0.6050 C   0  0  0  0  0  0  0  0  0  0  0  0
   -1.5675    0.3727    0.3273 C   0  0  0  0  0  0  0  0  0  0  0  0
    1.6974    0.5235    3.4185 H   0  0  0  0  0  0  0  0  0  0  0  0
   -0.2651    1.8923   -1.5793 H   0  0  0  0  0  0  0  0  0  0  0  0
    1.2973    2.0338   -0.7576 H   0  0  0  0  0  0  0  0  0  0  0  0
   -0.1476    2.7487   -0.0347 H   0  0  0  0  0  0  0  0  0  0  0  0
   -1.9949    1.1795    0.9252 H   0  0  0  0  0  0  0  0  0  0  0  0
   -1.7683   -0.5704    0.8354 H   0  0  0  0  0  0  0  0  0  0  0  0
   -2.0699    0.3593   -0.6415 H   0  0  0  0  0  0  0  0  0  0  0  0
   -0.0631   -1.8565   -2.3382 C   0  0  0  0  0  0  0  0  0  0  0  0
   -0.0631   -1.8565   -0.8154 C   0  0  0  0  0  0  0  0  0  0  0  0
   -0.9440   -1.3479   -2.7340 H   0  0  0  0  0  0  0  0  0  0  0  0
    0.8177   -1.3479   -2.7340 H   0  0  0  0  0  0  0  0  0  0  0  0
   -0.0631   -2.8736   -2.7340 H   0  0  0  0  0  0  0  0  0  0  0  0
   -0.0631   -0.6360   -0.3404 H   0  0  0  0  0  0  0  0  0  0  0  0
    0.8177   -2.3651   -0.4195 H   0  0  0  0  0  0  0  0  0  0  0  0
   -0.9440   -2.3651   -0.4195 H   0  0  0  0  0  0  0  0  0  0  0  0
  1  2  3  0
  1  6  1  0
  2  3  1  0
  3  4  1  0
  3  5  1  0
  4  7  1  0
  4  8  1  0
  4  9  1  0
  5 10  1  0
  5 11  1  0
  5 12  1  0
 13 14  1  0
 13 15  1  0
 13 16  1  0
 13 17  1  0
 14 18  1  0
 14 19  1  0
 14 20  1  0
M  RAD  1   3   2
M  END
>  <reaction>  (15) 
rxn_877

>  <mol_properties>  (15) 
{"1": {"label": "*0", "atom_type": "Ct"}, "2": {"label": "*1", "atom_type": "Cs"}, "12": {"label": "*4", "atom_type": "Cs"}, "13": {"label": "*3", "atom_type": "Cs"}, "17": {"label": "*2", "atom_type": "H0"}}

>  <type>  (15) 
unop_11

>  <geom_source>  (15) 
Heuristics

$$$$

     RDKit          3D

 20 18  0  0  0  0  0  0  0  0999 V2000
   -0.0000    2.0209   -1.3901 C   0  0  0  0  0  0  0  0  0  0  0  0
   -0.0000    1.2611   -0.4637 C   0  0  0  0  0  0  0  0  0  0  0  0
   -0.0000    0.3514    0.6833 C   0  0  0  0  0  3  0  0  0  0  0  0
   -1.2661    0.5356    1.5254 C   0  0  0  0  0  0  0  0  0  0  0  0
    1.2661    0.5356    1.5254 C   0  0  0  0  0  0  0  0  0  0  0  0
   -0.0000    2.6951   -2.2123 H   0  0  0  0  0  0  0  0  0  0  0  0
   -1.2735   -0.1779    2.3513 H   0  0  0  0  0  0  0  0  0  0  0  0
   -2.1632    0.3815    0.9259 H   0  0  0  0  0  0  0  0  0  0  0  0
   -1.3035    1.5438    1.9416 H   0  0  0  0  0  0  0  0  0  0  0  0
    1.3035    1.5438    1.9416 H   0  0  0  0  0  0  0  0  0  0  0  0
    2.1632    0.3815    0.9259 H   0  0  0  0  0  0  0  0  0  0  0  0
    1.2735   -0.1779    2.3513 H   0  0  0  0  0  0  0  0  0  0  0  0
   -0.0000   -2.0933   -1.7909 C   0  0  0  0  0  0  0  0  0  0  0  0
   -0.0000   -2.0933   -0.2681 C   0  0  0  0  0  0  0  0  0  0  0  0
   -0.8808   -1.5847   -2.1868 H   0  0  0  0  0  0  0  0  0  0  0  0
    0.8808   -1.5847   -2.1868 H   0  0  0  0  0  0  0  0  0  0  0  0
   -0.0000   -3.1104   -2.1868 H   0  0  0  0  0  0  0  0  0  0  0  0
   -0.0000   -0.8728    0.2069 H   0  0  0  0  0  0  0  0  0  0  0  0
    0.8808   -2.6019    0.1277 H   0  0  0  0  0  0  0  0  0  0  0  0
   -0.8808   -2.6019    0.1277 H   0  0  0  0  0  0  0  0  0  0  0  0
  1  2  3  0
  1  6  1  0
  2  3  1  0
  3  4  1  0
  3  5  1  0
  4  7  1  0
  4  8  1  0
  4  9  1  0
  5 10  1  0
  5 11  1  0
  5 12  1  0
 13 14  1  0
 13 15  1  0
 13 16  1  0
 13 17  1  0
 14 18  1  0
 14 19  1  0
 14 20  1  0
M  RAD  1   3   2
M  END
>  <reaction>  (16) 
rxn_877

>  <mol_properties>  (16) 
{"1": {"label": "*0", "atom_type": "Ct"}, "2": {"label": "*1", "atom_type": "Cs"}, "12": {"label": "*4", "atom_type": "Cs"}, "13": {"label": "*3", "atom_type": "Cs"}, "17": {"label": "*2", "atom_type": "H0"}}

>  <type>  (16) 
unop_12

>  <geom_source>  (16) 
Heuristics

$$$$

     RDKit          3D

 20 18  0  0  0  0  0  0  0  0999 V2000
   -0.8540   -0.0980   -0.1145 C   0  0  0  0  0  3  0  0  0  0  0  0
   -1.5068   -1.1872   -0.9663 C   0  0  0  0  0  0  0  0  0  0  0  0
   -1.7461    0.2831    1.0673 C   0  0  0  0  0  0  0  0  0  0  0  0
    2.5883    0.1080    0.1186 C   0  0  0  0  0  0  0  0  0  0  0  0
    1.4670   -0.4478    0.9767 C   0  0  0  0  0  0  0  0  0  0  0  0
   -0.5737    1.0875   -0.9388 C   0  0  0  0  0  0  0  0  0  0  0  0
   -0.3428    2.0593   -1.6142 C   0  0  0  0  0  0  0  0  0  0  0  0
    0.3444   -0.5819    0.3763 H   0  0  0  0  0  0  0  0  0  0  0  0
   -1.6874   -2.0930   -0.3494 H   0  0  0  0  0  0  0  0  0  0  0  0
   -0.8338   -1.4692   -1.8041 H   0  0  0  0  0  0  0  0  0  0  0  0
   -2.4757   -0.8358   -1.3832 H   0  0  0  0  0  0  0  0  0  0  0  0
   -1.9293   -0.6068    1.7060 H   0  0  0  0  0  0  0  0  0  0  0  0
   -2.7224    0.6805    0.7139 H   0  0  0  0  0  0  0  0  0  0  0  0
   -1.2448    1.0560    1.6884 H   0  0  0  0  0  0  0  0  0  0  0  0
    2.5204    1.2154    0.0894 H   0  0  0  0  0  0  0  0  0  0  0  0
    3.5712   -0.1887    0.5415 H   0  0  0  0  0  0  0  0  0  0  0  0
    2.4981   -0.2885   -0.9141 H   0  0  0  0  0  0  0  0  0  0  0  0
    1.5452   -0.0486    2.0099 H   0  0  0  0  0  0  0  0  0  0  0  0
    1.5228   -1.5565    1.0038 H   0  0  0  0  0  0  0  0  0  0  0  0
   -0.1403    2.9121   -2.2071 H   0  0  0  0  0  0  0  0  0  0  0  0
  1  2  1  0
  1  3  1  0
  1  6  1  0
  2  9  1  0
  2 10  1  0
  2 11  1  0
  3 12  1  0
  3 13  1  0
  3 14  1  0
  4  5  1  0
  4 15  1  0
  4 16  1  0
  4 17  1  0
  5  8  1  0
  5 18  1  0
  5 19  1  0
  6  7  3  0
  7 20  1  0
M  RAD  1   1   2
M  END
>  <reaction>  (17) 
rxn_877

>  <mol_properties>  (17) 
{"1": {"label": "*0", "atom_type": "Ct"}, "2": {"label": "*1", "atom_type": "Cs"}, "12": {"label": "*4", "atom_type": "Cs"}, "13": {"label": "*3", "atom_type": "Cs"}, "17": {"label": "*2", "atom_type": "H0"}}

>  <type>  (17) 
unop_13

>  <geom_source>  (17) 
AutoTST

$$$$
