
     RDKit          3D

 13 12  0  0  0  0  0  0  0  0999 V2000
    1.4471   -0.5697   -0.3031 C   0  0  0  0  0  0  0  0  0  0  0  0
    0.1326   -0.0908    0.2824 C   0  0  0  0  0  0  0  0  0  0  0  0
   -0.9497   -1.1552    0.2479 C   0  0  0  0  0  0  0  0  0  0  0  0
    0.4558    0.2966    1.6153 O   0  0  0  0  0  0  0  0  0  0  0  0
   -0.6579    0.9916    2.1633 O   0  0  0  0  0  0  0  0  0  0  0  0
    1.3038   -0.8532   -1.3463 H   0  0  0  0  0  0  0  0  0  0  0  0
    2.2007    0.2158   -0.2551 H   0  0  0  0  0  0  0  0  0  0  0  0
    1.8154   -1.4406    0.2423 H   0  0  0  0  0  0  0  0  0  0  0  0
   -0.2086    0.8022   -0.2523 H   0  0  0  0  0  0  0  0  0  0  0  0
   -0.6253   -2.0447    0.7929 H   0  0  0  0  0  0  0  0  0  0  0  0
   -1.8753   -0.7853    0.6886 H   0  0  0  0  0  0  0  0  0  0  0  0
   -1.1623   -1.4423   -0.7833 H   0  0  0  0  0  0  0  0  0  0  0  0
   -0.9730    0.3636    2.8217 H   0  0  0  0  0  0  0  0  0  0  0  0
  1  2  1  0
  1  6  1  0
  1  7  1  0
  1  8  1  0
  2  3  1  0
  2  4  1  0
  2  9  1  0
  3 10  1  0
  3 11  1  0
  3 12  1  0
  4  5  1  0
  5 13  1  0
M  END
>  <reaction>  (1) 
rxn_453

>  <mol_properties>  (1) 
{"4": {"label": "donator", "atom_type": "O2s"}, "12": {"label": "d_hydrogen", "atom_type": "H0"}}

>  <type>  (1) 
r1h

$$$$

     RDKit          3D

  7  6  0  0  0  0  0  0  0  0999 V2000
   -0.6201    0.0189   -0.0017 C   0  0  0  0  0  0  0  0  0  0  0  0
    0.8589   -0.0553    0.0500 C   0  0  0  0  0  3  0  0  0  0  0  0
   -1.0738   -0.9730   -0.0559 H   0  0  0  0  0  0  0  0  0  0  0  0
   -0.9680    0.5706   -0.8872 H   0  0  0  0  0  0  0  0  0  0  0  0
   -1.0303    0.5369    0.8678 H   0  0  0  0  0  0  0  0  0  0  0  0
    1.3939   -0.8386   -0.4695 H   0  0  0  0  0  0  0  0  0  0  0  0
    1.4394    0.7404    0.4965 H   0  0  0  0  0  0  0  0  0  0  0  0
  1  2  1  0
  1  3  1  0
  1  4  1  0
  1  5  1  0
  2  6  1  0
  2  7  1  0
M  RAD  1   2   2
M  END
>  <reaction>  (2) 
rxn_453

>  <mol_properties>  (2) 
{"1": {"label": "acceptor", "atom_type": "Cs"}}

>  <type>  (2) 
r2

$$$$

     RDKit          3D

  8  7  0  0  0  0  0  0  0  0999 V2000
    0.7610    0.0250    0.0051 C   0  0  0  0  0  0  0  0  0  0  0  0
   -0.7610   -0.0250   -0.0051 C   0  0  0  0  0  0  0  0  0  0  0  0
    1.1904   -0.9237   -0.3217 H   0  0  0  0  0  0  0  0  0  0  0  0
    1.1359    0.8041   -0.6609 H   0  0  0  0  0  0  0  0  0  0  0  0
    1.1435    0.2336    1.0058 H   0  0  0  0  0  0  0  0  0  0  0  0
   -1.1435   -0.2336   -1.0058 H   0  0  0  0  0  0  0  0  0  0  0  0
   -1.1904    0.9237    0.3216 H   0  0  0  0  0  0  0  0  0  0  0  0
   -1.1359   -0.8041    0.6609 H   0  0  0  0  0  0  0  0  0  0  0  0
  1  2  1  0
  1  3  1  0
  1  4  1  0
  1  5  1  0
  2  6  1  0
  2  7  1  0
  2  8  1  0
M  END
>  <reaction>  (3) 
rxn_453

>  <mol_properties>  (3) 
{"0": {"label": "a_hydrogen", "atom_type": "H0"}, "2": {"label": "acceptor", "atom_type": "Cs"}}

>  <type>  (3) 
r2h

$$$$

     RDKit          3D

 20 18  0  0  0  0  0  0  0  0999 V2000
    0.8115   -0.2703   -2.3724 C   0  0  0  0  0  0  0  0  0  0  0  0
    1.1555   -0.0052   -0.9204 C   0  0  0  0  0  0  0  0  0  0  0  0
    0.8917    1.4300   -0.5039 C   0  0  0  0  0  0  0  0  0  0  0  0
    0.3546   -0.9332   -0.1821 O   0  0  0  0  0  0  0  0  0  0  0  0
    0.7369   -0.9384    1.1462 O   0  0  0  0  0  0  0  0  0  0  0  0
    1.4214    0.3616   -3.0188 H   0  0  0  0  0  0  0  0  0  0  0  0
    0.9966   -1.3130   -2.6294 H   0  0  0  0  0  0  0  0  0  0  0  0
   -0.2396   -0.0460   -2.5643 H   0  0  0  0  0  0  0  0  0  0  0  0
    2.2043   -0.2557   -0.7314 H   0  0  0  0  0  0  0  0  0  0  0  0
   -0.1579    1.6887   -0.6608 H   0  0  0  0  0  0  0  0  0  0  0  0
    1.1423    1.5830    0.5449 H   0  0  0  0  0  0  0  0  0  0  0  0
    1.5051    2.1076   -1.1000 H   0  0  0  0  0  0  0  0  0  0  0  0
   -0.0471   -0.2874    1.6909 H   0  0  0  0  0  0  0  0  0  0  0  0
   -2.2557    0.1587    1.4067 C   0  0  0  0  0  0  0  0  0  0  0  0
   -1.0631    0.4322    2.2684 C   0  0  0  0  0  3  0  0  0  0  0  0
   -3.1293    0.7138    1.7679 H   0  0  0  0  0  0  0  0  0  0  0  0
   -2.5114   -0.9011    1.4068 H   0  0  0  0  0  0  0  0  0  0  0  0
   -2.0779    0.4615    0.3737 H   0  0  0  0  0  0  0  0  0  0  0  0
   -1.0806    0.0004    3.2667 H   0  0  0  0  0  0  0  0  0  0  0  0
   -0.6810    1.4503    2.2514 H   0  0  0  0  0  0  0  0  0  0  0  0
  1  2  1  0
  1  6  1  0
  1  7  1  0
  1  8  1  0
  2  3  1  0
  2  4  1  0
  2  9  1  0
  3 10  1  0
  3 11  1  0
  3 12  1  0
  4  5  1  0
  5 13  1  0
 14 15  1  0
 14 16  1  0
 14 17  1  0
 14 18  1  0
 15 19  1  0
 15 20  1  0
M  RAD  1  15   2
M  END
>  <reaction>  (4) 
rxn_453

>  <mol_properties>  (4) 
{"3": {"label": "*0", "atom_type": "O2s"}, "4": {"label": "*1", "atom_type": "O2s"}, "12": {"label": "*2", "atom_type": "H0"}, "13": {"label": "*4", "atom_type": "Cs"}, "14": {"label": "*3", "atom_type": "Cs"}}

>  <type>  (4) 
ts

$$$$

     RDKit          3D

 20 18  0  0  0  0  0  0  0  0999 V2000
    1.3289    0.0457   -2.5482 C   0  0  0  0  0  0  0  0  0  0  0  0
    1.3289    0.0457   -1.0316 C   0  0  0  0  0  0  0  0  0  0  0  0
    1.3289    1.4453   -0.4430 C   0  0  0  0  0  0  0  0  0  0  0  0
    0.1563   -0.6817   -0.6749 O   0  0  0  0  0  0  0  0  0  0  0  0
    0.2019   -0.9498    0.7214 O   0  0  0  0  0  0  0  0  0  0  0  0
    2.2215    0.5525   -2.9163 H   0  0  0  0  0  0  0  0  0  0  0  0
    1.3214   -0.9731   -2.9348 H   0  0  0  0  0  0  0  0  0  0  0  0
    0.4524    0.5711   -2.9320 H   0  0  0  0  0  0  0  0  0  0  0  0
    2.1949   -0.5126   -0.6604 H   0  0  0  0  0  0  0  0  0  0  0  0
    0.4593    2.0054   -0.7948 H   0  0  0  0  0  0  0  0  0  0  0  0
    1.3136    1.4109    0.6462 H   0  0  0  0  0  0  0  0  0  0  0  0
    2.2293    1.9815   -0.7475 H   0  0  0  0  0  0  0  0  0  0  0  0
   -0.6448   -0.2697    1.1162 H   0  0  0  0  0  0  0  0  0  0  0  0
   -2.6849   -0.3119    2.2638 C   0  0  0  0  0  0  0  0  0  0  0  0
   -1.6045    0.5012    1.5636 C   0  0  0  0  0  3  0  0  0  0  0  0
   -3.0478    0.1986    3.1576 H   0  0  0  0  0  0  0  0  0  0  0  0
   -2.3081   -1.2890    2.5715 H   0  0  0  0  0  0  0  0  0  0  0  0
   -3.5414   -0.4796    1.6085 H   0  0  0  0  0  0  0  0  0  0  0  0
   -0.7480    0.6688    2.2189 H   0  0  0  0  0  0  0  0  0  0  0  0
   -1.9813    1.4782    1.2559 H   0  0  0  0  0  0  0  0  0  0  0  0
  1  2  1  0
  1  6  1  0
  1  7  1  0
  1  8  1  0
  2  3  1  0
  2  4  1  0
  2  9  1  0
  3 10  1  0
  3 11  1  0
  3 12  1  0
  4  5  1  0
  5 13  1  0
 14 15  1  0
 14 16  1  0
 14 17  1  0
 14 18  1  0
 15 19  1  0
 15 20  1  0
M  RAD  1  15   2
M  END
>  <reaction>  (5) 
rxn_453

>  <mol_properties>  (5) 
{"3": {"label": "*0", "atom_type": "O2s"}, "4": {"label": "*1", "atom_type": "O2s"}, "12": {"label": "*2", "atom_type": "H0"}, "13": {"label": "*4", "atom_type": "Cs"}, "14": {"label": "*3", "atom_type": "Cs"}}

>  <type>  (5) 
unop_1

>  <geom_source>  (5) 
Heuristics

$$$$

     RDKit          3D

 20 18  0  0  0  0  0  0  0  0999 V2000
    1.3363   -0.0950   -2.2948 C   0  0  0  0  0  0  0  0  0  0  0  0
    1.3363   -0.0950   -0.7782 C   0  0  0  0  0  0  0  0  0  0  0  0
    1.3363    1.3047   -0.1896 C   0  0  0  0  0  0  0  0  0  0  0  0
    0.1637   -0.8223   -0.4214 O   0  0  0  0  0  0  0  0  0  0  0  0
    0.2093   -1.0905    0.9748 O   0  0  0  0  0  0  0  0  0  0  0  0
    2.2289    0.4118   -2.6629 H   0  0  0  0  0  0  0  0  0  0  0  0
    1.3288   -1.1137   -2.6814 H   0  0  0  0  0  0  0  0  0  0  0  0
    0.4598    0.4304   -2.6786 H   0  0  0  0  0  0  0  0  0  0  0  0
    2.2024   -0.6532   -0.4069 H   0  0  0  0  0  0  0  0  0  0  0  0
    0.4667    1.8647   -0.5413 H   0  0  0  0  0  0  0  0  0  0  0  0
    1.3210    1.2702    0.8996 H   0  0  0  0  0  0  0  0  0  0  0  0
    2.2367    1.8408   -0.4941 H   0  0  0  0  0  0  0  0  0  0  0  0
   -0.6374   -0.4104    1.3696 H   0  0  0  0  0  0  0  0  0  0  0  0
   -2.6917    0.5415    0.7739 C   0  0  0  0  0  0  0  0  0  0  0  0
   -1.5971    0.3605    1.8170 C   0  0  0  0  0  3  0  0  0  0  0  0
   -3.6161    0.9019    1.2287 H   0  0  0  0  0  0  0  0  0  0  0  0
   -2.9169   -0.3995    0.2690 H   0  0  0  0  0  0  0  0  0  0  0  0
   -2.3957    1.2634    0.0107 H   0  0  0  0  0  0  0  0  0  0  0  0
   -1.8931   -0.3613    2.5802 H   0  0  0  0  0  0  0  0  0  0  0  0
   -1.3719    1.3015    2.3219 H   0  0  0  0  0  0  0  0  0  0  0  0
  1  2  1  0
  1  6  1  0
  1  7  1  0
  1  8  1  0
  2  3  1  0
  2  4  1  0
  2  9  1  0
  3 10  1  0
  3 11  1  0
  3 12  1  0
  4  5  1  0
  5 13  1  0
 14 15  1  0
 14 16  1  0
 14 17  1  0
 14 18  1  0
 15 19  1  0
 15 20  1  0
M  RAD  1  15   2
M  END
>  <reaction>  (6) 
rxn_453

>  <mol_properties>  (6) 
{"3": {"label": "*0", "atom_type": "O2s"}, "4": {"label": "*1", "atom_type": "O2s"}, "12": {"label": "*2", "atom_type": "H0"}, "13": {"label": "*4", "atom_type": "Cs"}, "14": {"label": "*3", "atom_type": "Cs"}}

>  <type>  (6) 
unop_2

>  <geom_source>  (6) 
Heuristics

$$$$

     RDKit          3D

 20 18  0  0  0  0  0  0  0  0999 V2000
    1.2669    0.0109   -2.6241 C   0  0  0  0  0  0  0  0  0  0  0  0
    1.2669    0.0109   -1.1075 C   0  0  0  0  0  0  0  0  0  0  0  0
    1.2669    1.4106   -0.5189 C   0  0  0  0  0  0  0  0  0  0  0  0
    0.0944   -0.7164   -0.7507 O   0  0  0  0  0  0  0  0  0  0  0  0
    0.1399   -0.9845    0.6455 O   0  0  0  0  0  0  0  0  0  0  0  0
    2.1595    0.5178   -2.9922 H   0  0  0  0  0  0  0  0  0  0  0  0
    1.2595   -1.0078   -3.0107 H   0  0  0  0  0  0  0  0  0  0  0  0
    0.3904    0.5364   -3.0079 H   0  0  0  0  0  0  0  0  0  0  0  0
    2.1330   -0.5473   -0.7362 H   0  0  0  0  0  0  0  0  0  0  0  0
    0.3974    1.9707   -0.8706 H   0  0  0  0  0  0  0  0  0  0  0  0
    1.2517    1.3761    0.5703 H   0  0  0  0  0  0  0  0  0  0  0  0
    2.1673    1.9468   -0.8234 H   0  0  0  0  0  0  0  0  0  0  0  0
   -0.7067   -0.3044    1.0403 H   0  0  0  0  0  0  0  0  0  0  0  0
   -2.3113   -0.1222    2.7353 C   0  0  0  0  0  0  0  0  0  0  0  0
   -1.6664    0.4665    1.4877 C   0  0  0  0  0  3  0  0  0  0  0  0
   -2.7086    0.6615    3.3828 H   0  0  0  0  0  0  0  0  0  0  0  0
   -1.5914   -0.6991    3.3184 H   0  0  0  0  0  0  0  0  0  0  0  0
   -3.1369   -0.7879    2.4775 H   0  0  0  0  0  0  0  0  0  0  0  0
   -0.8408    1.1322    1.7454 H   0  0  0  0  0  0  0  0  0  0  0  0
   -2.3863    1.0434    0.9045 H   0  0  0  0  0  0  0  0  0  0  0  0
  1  2  1  0
  1  6  1  0
  1  7  1  0
  1  8  1  0
  2  3  1  0
  2  4  1  0
  2  9  1  0
  3 10  1  0
  3 11  1  0
  3 12  1  0
  4  5  1  0
  5 13  1  0
 14 15  1  0
 14 16  1  0
 14 17  1  0
 14 18  1  0
 15 19  1  0
 15 20  1  0
M  RAD  1  15   2
M  END
>  <reaction>  (7) 
rxn_453

>  <mol_properties>  (7) 
{"3": {"label": "*0", "atom_type": "O2s"}, "4": {"label": "*1", "atom_type": "O2s"}, "12": {"label": "*2", "atom_type": "H0"}, "13": {"label": "*4", "atom_type": "Cs"}, "14": {"label": "*3", "atom_type": "Cs"}}

>  <type>  (7) 
unop_3

>  <geom_source>  (7) 
Heuristics

$$$$

     RDKit          3D

 20 18  0  0  0  0  0  0  0  0999 V2000
    1.1361   -0.2812   -2.4007 C   0  0  0  0  0  0  0  0  0  0  0  0
    1.1361   -0.2812   -0.8842 C   0  0  0  0  0  0  0  0  0  0  0  0
    1.1361    1.1185   -0.2956 C   0  0  0  0  0  0  0  0  0  0  0  0
   -0.0365   -1.0085   -0.5274 O   0  0  0  0  0  0  0  0  0  0  0  0
    0.0091   -1.2767    0.8689 O   0  0  0  0  0  0  0  0  0  0  0  0
    2.0287    0.2257   -2.7688 H   0  0  0  0  0  0  0  0  0  0  0  0
    1.1286   -1.2999   -2.7873 H   0  0  0  0  0  0  0  0  0  0  0  0
    0.2596    0.2443   -2.7845 H   0  0  0  0  0  0  0  0  0  0  0  0
    2.0022   -0.8394   -0.5129 H   0  0  0  0  0  0  0  0  0  0  0  0
    0.2666    1.6786   -0.6473 H   0  0  0  0  0  0  0  0  0  0  0  0
    1.1209    1.0840    0.7937 H   0  0  0  0  0  0  0  0  0  0  0  0
    2.0365    1.6547   -0.6000 H   0  0  0  0  0  0  0  0  0  0  0  0
   -0.8376   -0.5965    1.2636 H   0  0  0  0  0  0  0  0  0  0  0  0
   -1.5261    1.6376    1.3881 C   0  0  0  0  0  0  0  0  0  0  0  0
   -1.7972    0.1743    1.7110 C   0  0  0  0  0  3  0  0  0  0  0  0
   -1.9361    2.2951    2.1567 H   0  0  0  0  0  0  0  0  0  0  0  0
   -1.9759    1.9226    0.4353 H   0  0  0  0  0  0  0  0  0  0  0  0
   -0.4551    1.8362    1.3204 H   0  0  0  0  0  0  0  0  0  0  0  0
   -2.8683   -0.0242    1.7787 H   0  0  0  0  0  0  0  0  0  0  0  0
   -1.3475   -0.1107    2.6638 H   0  0  0  0  0  0  0  0  0  0  0  0
  1  2  1  0
  1  6  1  0
  1  7  1  0
  1  8  1  0
  2  3  1  0
  2  4  1  0
  2  9  1  0
  3 10  1  0
  3 11  1  0
  3 12  1  0
  4  5  1  0
  5 13  1  0
 14 15  1  0
 14 16  1  0
 14 17  1  0
 14 18  1  0
 15 19  1  0
 15 20  1  0
M  RAD  1  15   2
M  END
>  <reaction>  (8) 
rxn_453

>  <mol_properties>  (8) 
{"3": {"label": "*0", "atom_type": "O2s"}, "4": {"label": "*1", "atom_type": "O2s"}, "12": {"label": "*2", "atom_type": "H0"}, "13": {"label": "*4", "atom_type": "Cs"}, "14": {"label": "*3", "atom_type": "Cs"}}

>  <type>  (8) 
unop_4

>  <geom_source>  (8) 
Heuristics

$$$$

     RDKit          3D

 20 18  0  0  0  0  0  0  0  0999 V2000
    1.1993   -0.0548   -2.6591 C   0  0  0  0  0  0  0  0  0  0  0  0
    1.1993   -0.0548   -1.1426 C   0  0  0  0  0  0  0  0  0  0  0  0
    1.1993    1.3449   -0.5540 C   0  0  0  0  0  0  0  0  0  0  0  0
    0.0268   -0.7821   -0.7858 O   0  0  0  0  0  0  0  0  0  0  0  0
    0.0723   -1.0503    0.6105 O   0  0  0  0  0  0  0  0  0  0  0  0
    2.0919    0.4520   -3.0272 H   0  0  0  0  0  0  0  0  0  0  0  0
    1.1918   -1.0735   -3.0457 H   0  0  0  0  0  0  0  0  0  0  0  0
    0.3228    0.4707   -3.0429 H   0  0  0  0  0  0  0  0  0  0  0  0
    2.0654   -0.6130   -0.7713 H   0  0  0  0  0  0  0  0  0  0  0  0
    0.3298    1.9050   -0.9057 H   0  0  0  0  0  0  0  0  0  0  0  0
    1.1841    1.3104    0.5353 H   0  0  0  0  0  0  0  0  0  0  0  0
    2.0997    1.8811   -0.8584 H   0  0  0  0  0  0  0  0  0  0  0  0
   -0.7744   -0.3702    1.0052 H   0  0  0  0  0  0  0  0  0  0  0  0
   -1.8791    0.2814    2.9638 C   0  0  0  0  0  0  0  0  0  0  0  0
   -1.7340    0.4007    1.4526 C   0  0  0  0  0  3  0  0  0  0  0  0
   -2.6788    0.9238    3.3366 H   0  0  0  0  0  0  0  0  0  0  0  0
   -0.9584    0.5702    3.4739 H   0  0  0  0  0  0  0  0  0  0  0  0
   -2.1131   -0.7428    3.2594 H   0  0  0  0  0  0  0  0  0  0  0  0
   -1.4999    1.4250    1.1571 H   0  0  0  0  0  0  0  0  0  0  0  0
   -2.6547    0.1119    0.9426 H   0  0  0  0  0  0  0  0  0  0  0  0
  1  2  1  0
  1  6  1  0
  1  7  1  0
  1  8  1  0
  2  3  1  0
  2  4  1  0
  2  9  1  0
  3 10  1  0
  3 11  1  0
  3 12  1  0
  4  5  1  0
  5 13  1  0
 14 15  1  0
 14 16  1  0
 14 17  1  0
 14 18  1  0
 15 19  1  0
 15 20  1  0
M  RAD  1  15   2
M  END
>  <reaction>  (9) 
rxn_453

>  <mol_properties>  (9) 
{"3": {"label": "*0", "atom_type": "O2s"}, "4": {"label": "*1", "atom_type": "O2s"}, "12": {"label": "*2", "atom_type": "H0"}, "13": {"label": "*4", "atom_type": "Cs"}, "14": {"label": "*3", "atom_type": "Cs"}}

>  <type>  (9) 
unop_5

>  <geom_source>  (9) 
Heuristics

$$$$

     RDKit          3D

 20 18  0  0  0  0  0  0  0  0999 V2000
    1.1003   -0.2670   -2.4999 C   0  0  0  0  0  0  0  0  0  0  0  0
    1.1003   -0.2670   -0.9834 C   0  0  0  0  0  0  0  0  0  0  0  0
    1.1003    1.1327   -0.3947 C   0  0  0  0  0  0  0  0  0  0  0  0
   -0.0723   -0.9943   -0.6266 O   0  0  0  0  0  0  0  0  0  0  0  0
   -0.0267   -1.2625    0.7697 O   0  0  0  0  0  0  0  0  0  0  0  0
    1.9929    0.2399   -2.8680 H   0  0  0  0  0  0  0  0  0  0  0  0
    1.0928   -1.2857   -2.8865 H   0  0  0  0  0  0  0  0  0  0  0  0
    0.2238    0.2585   -2.8837 H   0  0  0  0  0  0  0  0  0  0  0  0
    1.9664   -0.8252   -0.6121 H   0  0  0  0  0  0  0  0  0  0  0  0
    0.2308    1.6928   -0.7465 H   0  0  0  0  0  0  0  0  0  0  0  0
    1.0851    1.0982    0.6945 H   0  0  0  0  0  0  0  0  0  0  0  0
    2.0007    1.6689   -0.6992 H   0  0  0  0  0  0  0  0  0  0  0  0
   -0.8734   -0.5823    1.1644 H   0  0  0  0  0  0  0  0  0  0  0  0
   -1.3075    1.5713    1.9733 C   0  0  0  0  0  0  0  0  0  0  0  0
   -1.8330    0.1885    1.6118 C   0  0  0  0  0  3  0  0  0  0  0  0
   -1.7773    1.9478    2.8837 H   0  0  0  0  0  0  0  0  0  0  0  0
   -1.5063    2.2909    1.1771 H   0  0  0  0  0  0  0  0  0  0  0  0
   -0.2292    1.5536    2.1409 H   0  0  0  0  0  0  0  0  0  0  0  0
   -2.9114    0.2062    1.4442 H   0  0  0  0  0  0  0  0  0  0  0  0
   -1.6343   -0.5311    2.4080 H   0  0  0  0  0  0  0  0  0  0  0  0
  1  2  1  0
  1  6  1  0
  1  7  1  0
  1  8  1  0
  2  3  1  0
  2  4  1  0
  2  9  1  0
  3 10  1  0
  3 11  1  0
  3 12  1  0
  4  5  1  0
  5 13  1  0
 14 15  1  0
 14 16  1  0
 14 17  1  0
 14 18  1  0
 15 19  1  0
 15 20  1  0
M  RAD  1  15   2
M  END
>  <reaction>  (10) 
rxn_453

>  <mol_properties>  (10) 
{"3": {"label": "*0", "atom_type": "O2s"}, "4": {"label": "*1", "atom_type": "O2s"}, "12": {"label": "*2", "atom_type": "H0"}, "13": {"label": "*4", "atom_type": "Cs"}, "14": {"label": "*3", "atom_type": "Cs"}}

>  <type>  (10) 
unop_6

>  <geom_source>  (10) 
Heuristics

$$$$

     RDKit          3D

 20 18  0  0  0  0  0  0  0  0999 V2000
    1.1017   -0.2126   -2.5904 C   0  0  0  0  0  0  0  0  0  0  0  0
    1.1017   -0.2126   -1.0738 C   0  0  0  0  0  0  0  0  0  0  0  0
    1.1017    1.1870   -0.4852 C   0  0  0  0  0  0  0  0  0  0  0  0
   -0.0709   -0.9400   -0.7171 O   0  0  0  0  0  0  0  0  0  0  0  0
   -0.0253   -1.2081    0.6792 O   0  0  0  0  0  0  0  0  0  0  0  0
    1.9943    0.2942   -2.9585 H   0  0  0  0  0  0  0  0  0  0  0  0
    1.0942   -1.2314   -2.9770 H   0  0  0  0  0  0  0  0  0  0  0  0
    0.2252    0.3128   -2.9742 H   0  0  0  0  0  0  0  0  0  0  0  0
    1.9678   -0.7709   -0.7025 H   0  0  0  0  0  0  0  0  0  0  0  0
    0.2322    1.7471   -0.8370 H   0  0  0  0  0  0  0  0  0  0  0  0
    1.0865    1.1526    0.6040 H   0  0  0  0  0  0  0  0  0  0  0  0
    2.0021    1.7232   -0.7897 H   0  0  0  0  0  0  0  0  0  0  0  0
   -0.8720   -0.5280    1.0740 H   0  0  0  0  0  0  0  0  0  0  0  0
   -1.3009    1.2618    2.5209 C   0  0  0  0  0  0  0  0  0  0  0  0
   -1.8316    0.2429    1.5214 C   0  0  0  0  0  3  0  0  0  0  0  0
   -1.9935    1.3974    3.3534 H   0  0  0  0  0  0  0  0  0  0  0  0
   -1.1530    2.2362    2.0521 H   0  0  0  0  0  0  0  0  0  0  0  0
   -0.3424    0.9462    2.9367 H   0  0  0  0  0  0  0  0  0  0  0  0
   -2.7902    0.5584    1.1056 H   0  0  0  0  0  0  0  0  0  0  0  0
   -1.9796   -0.7316    1.9901 H   0  0  0  0  0  0  0  0  0  0  0  0
  1  2  1  0
  1  6  1  0
  1  7  1  0
  1  8  1  0
  2  3  1  0
  2  4  1  0
  2  9  1  0
  3 10  1  0
  3 11  1  0
  3 12  1  0
  4  5  1  0
  5 13  1  0
 14 15  1  0
 14 16  1  0
 14 17  1  0
 14 18  1  0
 15 19  1  0
 15 20  1  0
M  RAD  1  15   2
M  END
>  <reaction>  (11) 
rxn_453

>  <mol_properties>  (11) 
{"3": {"label": "*0", "atom_type": "O2s"}, "4": {"label": "*1", "atom_type": "O2s"}, "12": {"label": "*2", "atom_type": "H0"}, "13": {"label": "*4", "atom_type": "Cs"}, "14": {"label": "*3", "atom_type": "Cs"}}

>  <type>  (11) 
unop_7

>  <geom_source>  (11) 
Heuristics

$$$$

     RDKit          3D

 20 18  0  0  0  0  0  0  0  0999 V2000
    1.3673    0.0366   -2.4503 C   0  0  0  0  0  0  0  0  0  0  0  0
    1.3673    0.0366   -0.9338 C   0  0  0  0  0  0  0  0  0  0  0  0
    1.3673    1.4363   -0.3452 C   0  0  0  0  0  0  0  0  0  0  0  0
    0.1947   -0.6907   -0.5770 O   0  0  0  0  0  0  0  0  0  0  0  0
    0.2403   -0.9588    0.8193 O   0  0  0  0  0  0  0  0  0  0  0  0
    2.2599    0.5435   -2.8184 H   0  0  0  0  0  0  0  0  0  0  0  0
    1.3598   -0.9821   -2.8369 H   0  0  0  0  0  0  0  0  0  0  0  0
    0.4908    0.5621   -2.8341 H   0  0  0  0  0  0  0  0  0  0  0  0
    2.2334   -0.5216   -0.5625 H   0  0  0  0  0  0  0  0  0  0  0  0
    0.4978    1.9964   -0.6969 H   0  0  0  0  0  0  0  0  0  0  0  0
    1.3521    1.4018    0.7441 H   0  0  0  0  0  0  0  0  0  0  0  0
    2.2677    1.9725   -0.6496 H   0  0  0  0  0  0  0  0  0  0  0  0
   -0.6064   -0.2787    1.2140 H   0  0  0  0  0  0  0  0  0  0  0  0
   -2.9009   -0.2405    1.6773 C   0  0  0  0  0  0  0  0  0  0  0  0
   -1.5660    0.4921    1.6614 C   0  0  0  0  0  3  0  0  0  0  0  0
   -3.4802    0.0114    2.5674 H   0  0  0  0  0  0  0  0  0  0  0  0
   -2.7586   -1.3226    1.6711 H   0  0  0  0  0  0  0  0  0  0  0  0
   -3.5049    0.0183    0.8059 H   0  0  0  0  0  0  0  0  0  0  0  0
   -0.9620    0.2333    2.5329 H   0  0  0  0  0  0  0  0  0  0  0  0
   -1.7083    1.5742    1.6677 H   0  0  0  0  0  0  0  0  0  0  0  0
  1  2  1  0
  1  6  1  0
  1  7  1  0
  1  8  1  0
  2  3  1  0
  2  4  1  0
  2  9  1  0
  3 10  1  0
  3 11  1  0
  3 12  1  0
  4  5  1  0
  5 13  1  0
 14 15  1  0
 14 16  1  0
 14 17  1  0
 14 18  1  0
 15 19  1  0
 15 20  1  0
M  RAD  1  15   2
M  END
>  <reaction>  (12) 
rxn_453

>  <mol_properties>  (12) 
{"3": {"label": "*0", "atom_type": "O2s"}, "4": {"label": "*1", "atom_type": "O2s"}, "12": {"label": "*2", "atom_type": "H0"}, "13": {"label": "*4", "atom_type": "Cs"}, "14": {"label": "*3", "atom_type": "Cs"}}

>  <type>  (12) 
unop_8

>  <geom_source>  (12) 
Heuristics

$$$$

     RDKit          3D

 20 18  0  0  0  0  0  0  0  0999 V2000
    1.1998   -0.2503   -2.3201 C   0  0  0  0  0  0  0  0  0  0  0  0
    1.1998   -0.2503   -0.8036 C   0  0  0  0  0  0  0  0  0  0  0  0
    1.1998    1.1494   -0.2150 C   0  0  0  0  0  0  0  0  0  0  0  0
    0.0272   -0.9776   -0.4468 O   0  0  0  0  0  0  0  0  0  0  0  0
    0.0727   -1.2457    0.9495 O   0  0  0  0  0  0  0  0  0  0  0  0
    2.0924    0.2566   -2.6882 H   0  0  0  0  0  0  0  0  0  0  0  0
    1.1923   -1.2690   -2.7067 H   0  0  0  0  0  0  0  0  0  0  0  0
    0.3232    0.2752   -2.7039 H   0  0  0  0  0  0  0  0  0  0  0  0
    2.0658   -0.8085   -0.4323 H   0  0  0  0  0  0  0  0  0  0  0  0
    0.3302    1.7095   -0.5667 H   0  0  0  0  0  0  0  0  0  0  0  0
    1.1845    1.1149    0.8743 H   0  0  0  0  0  0  0  0  0  0  0  0
    2.1002    1.6856   -0.5194 H   0  0  0  0  0  0  0  0  0  0  0  0
   -0.7739   -0.5656    1.3442 H   0  0  0  0  0  0  0  0  0  0  0  0
   -1.8980    1.4440    0.9214 C   0  0  0  0  0  0  0  0  0  0  0  0
   -1.7336    0.2053    1.7916 C   0  0  0  0  0  3  0  0  0  0  0  0
   -2.4528    2.2247    1.4448 H   0  0  0  0  0  0  0  0  0  0  0  0
   -2.4398    1.2132    0.0025 H   0  0  0  0  0  0  0  0  0  0  0  0
   -0.9296    1.8602    0.6382 H   0  0  0  0  0  0  0  0  0  0  0  0
   -2.7020   -0.2109    2.0748 H   0  0  0  0  0  0  0  0  0  0  0  0
   -1.1918    0.4361    2.7105 H   0  0  0  0  0  0  0  0  0  0  0  0
  1  2  1  0
  1  6  1  0
  1  7  1  0
  1  8  1  0
  2  3  1  0
  2  4  1  0
  2  9  1  0
  3 10  1  0
  3 11  1  0
  3 12  1  0
  4  5  1  0
  5 13  1  0
 14 15  1  0
 14 16  1  0
 14 17  1  0
 14 18  1  0
 15 19  1  0
 15 20  1  0
M  RAD  1  15   2
M  END
>  <reaction>  (13) 
rxn_453

>  <mol_properties>  (13) 
{"3": {"label": "*0", "atom_type": "O2s"}, "4": {"label": "*1", "atom_type": "O2s"}, "12": {"label": "*2", "atom_type": "H0"}, "13": {"label": "*4", "atom_type": "Cs"}, "14": {"label": "*3", "atom_type": "Cs"}}

>  <type>  (13) 
unop_9

>  <geom_source>  (13) 
Heuristics

$$$$

     RDKit          3D

 20 18  0  0  0  0  0  0  0  0999 V2000
    1.3704   -0.0148   -2.3572 C   0  0  0  0  0  0  0  0  0  0  0  0
    1.3704   -0.0148   -0.8407 C   0  0  0  0  0  0  0  0  0  0  0  0
    1.3704    1.3849   -0.2520 C   0  0  0  0  0  0  0  0  0  0  0  0
    0.1978   -0.7421   -0.4839 O   0  0  0  0  0  0  0  0  0  0  0  0
    0.2434   -1.0103    0.9124 O   0  0  0  0  0  0  0  0  0  0  0  0
    2.2630    0.4921   -2.7253 H   0  0  0  0  0  0  0  0  0  0  0  0
    1.3629   -1.0335   -2.7438 H   0  0  0  0  0  0  0  0  0  0  0  0
    0.4939    0.5107   -2.7410 H   0  0  0  0  0  0  0  0  0  0  0  0
    2.2365   -0.5730   -0.4694 H   0  0  0  0  0  0  0  0  0  0  0  0
    0.5008    1.9450   -0.6038 H   0  0  0  0  0  0  0  0  0  0  0  0
    1.3552    1.3504    0.8372 H   0  0  0  0  0  0  0  0  0  0  0  0
    2.2708    1.9211   -0.5565 H   0  0  0  0  0  0  0  0  0  0  0  0
   -0.6033   -0.3301    1.3071 H   0  0  0  0  0  0  0  0  0  0  0  0
   -2.9030    0.0720    1.1323 C   0  0  0  0  0  0  0  0  0  0  0  0
   -1.5630    0.4407    1.7545 C   0  0  0  0  0  3  0  0  0  0  0  0
   -3.7259    0.2600    1.8243 H   0  0  0  0  0  0  0  0  0  0  0  0
   -2.9355   -0.9843    0.8596 H   0  0  0  0  0  0  0  0  0  0  0  0
   -3.0927    0.6527    0.2279 H   0  0  0  0  0  0  0  0  0  0  0  0
   -1.3733   -0.1400    2.6590 H   0  0  0  0  0  0  0  0  0  0  0  0
   -1.5304    1.4970    2.0273 H   0  0  0  0  0  0  0  0  0  0  0  0
  1  2  1  0
  1  6  1  0
  1  7  1  0
  1  8  1  0
  2  3  1  0
  2  4  1  0
  2  9  1  0
  3 10  1  0
  3 11  1  0
  3 12  1  0
  4  5  1  0
  5 13  1  0
 14 15  1  0
 14 16  1  0
 14 17  1  0
 14 18  1  0
 15 19  1  0
 15 20  1  0
M  RAD  1  15   2
M  END
>  <reaction>  (14) 
rxn_453

>  <mol_properties>  (14) 
{"3": {"label": "*0", "atom_type": "O2s"}, "4": {"label": "*1", "atom_type": "O2s"}, "12": {"label": "*2", "atom_type": "H0"}, "13": {"label": "*4", "atom_type": "Cs"}, "14": {"label": "*3", "atom_type": "Cs"}}

>  <type>  (14) 
unop_10

>  <geom_source>  (14) 
Heuristics

$$$$

     RDKit          3D

 20 18  0  0  0  0  0  0  0  0999 V2000
    1.1390   -0.1345   -2.6479 C   0  0  0  0  0  0  0  0  0  0  0  0
    1.1390   -0.1345   -1.1313 C   0  0  0  0  0  0  0  0  0  0  0  0
    1.1390    1.2652   -0.5427 C   0  0  0  0  0  0  0  0  0  0  0  0
   -0.0335   -0.8618   -0.7745 O   0  0  0  0  0  0  0  0  0  0  0  0
    0.0120   -1.1300    0.6218 O   0  0  0  0  0  0  0  0  0  0  0  0
    2.0316    0.3723   -3.0159 H   0  0  0  0  0  0  0  0  0  0  0  0
    1.1315   -1.1532   -3.0344 H   0  0  0  0  0  0  0  0  0  0  0  0
    0.2625    0.3909   -3.0316 H   0  0  0  0  0  0  0  0  0  0  0  0
    2.0051   -0.6927   -0.7600 H   0  0  0  0  0  0  0  0  0  0  0  0
    0.2695    1.8252   -0.8944 H   0  0  0  0  0  0  0  0  0  0  0  0
    1.1238    1.2307    0.5465 H   0  0  0  0  0  0  0  0  0  0  0  0
    2.0394    1.8013   -0.8471 H   0  0  0  0  0  0  0  0  0  0  0  0
   -0.8347   -0.4499    1.0165 H   0  0  0  0  0  0  0  0  0  0  0  0
   -1.5091    0.7901    2.8843 C   0  0  0  0  0  0  0  0  0  0  0  0
   -1.7943    0.3210    1.4639 C   0  0  0  0  0  3  0  0  0  0  0  0
   -2.4340    0.9737    3.4338 H   0  0  0  0  0  0  0  0  0  0  0  0
   -0.9336    1.7175    2.8868 H   0  0  0  0  0  0  0  0  0  0  0  0
   -0.9371    0.0449    3.4399 H   0  0  0  0  0  0  0  0  0  0  0  0
   -2.3663    1.0662    0.9083 H   0  0  0  0  0  0  0  0  0  0  0  0
   -2.3698   -0.6064    1.4614 H   0  0  0  0  0  0  0  0  0  0  0  0
  1  2  1  0
  1  6  1  0
  1  7  1  0
  1  8  1  0
  2  3  1  0
  2  4  1  0
  2  9  1  0
  3 10  1  0
  3 11  1  0
  3 12  1  0
  4  5  1  0
  5 13  1  0
 14 15  1  0
 14 16  1  0
 14 17  1  0
 14 18  1  0
 15 19  1  0
 15 20  1  0
M  RAD  1  15   2
M  END
>  <reaction>  (15) 
rxn_453

>  <mol_properties>  (15) 
{"3": {"label": "*0", "atom_type": "O2s"}, "4": {"label": "*1", "atom_type": "O2s"}, "12": {"label": "*2", "atom_type": "H0"}, "13": {"label": "*4", "atom_type": "Cs"}, "14": {"label": "*3", "atom_type": "Cs"}}

>  <type>  (15) 
unop_11

>  <geom_source>  (15) 
Heuristics

$$$$

     RDKit          3D

 20 18  0  0  0  0  0  0  0  0999 V2000
    1.2736   -0.1818   -2.2810 C   0  0  0  0  0  0  0  0  0  0  0  0
    1.2736   -0.1818   -0.7645 C   0  0  0  0  0  0  0  0  0  0  0  0
    1.2736    1.2178   -0.1758 C   0  0  0  0  0  0  0  0  0  0  0  0
    0.1010   -0.9092   -0.4077 O   0  0  0  0  0  0  0  0  0  0  0  0
    0.1466   -1.1773    0.9886 O   0  0  0  0  0  0  0  0  0  0  0  0
    2.1662    0.3250   -2.6491 H   0  0  0  0  0  0  0  0  0  0  0  0
    1.2661   -1.2006   -2.6676 H   0  0  0  0  0  0  0  0  0  0  0  0
    0.3971    0.3436   -2.6648 H   0  0  0  0  0  0  0  0  0  0  0  0
    2.1396   -0.7401   -0.3932 H   0  0  0  0  0  0  0  0  0  0  0  0
    0.4040    1.7779   -0.5276 H   0  0  0  0  0  0  0  0  0  0  0  0
    1.2583    1.1834    0.9134 H   0  0  0  0  0  0  0  0  0  0  0  0
    2.1740    1.7540   -0.4803 H   0  0  0  0  0  0  0  0  0  0  0  0
   -0.7001   -0.4972    1.3833 H   0  0  0  0  0  0  0  0  0  0  0  0
   -2.3241    1.0431    0.6969 C   0  0  0  0  0  0  0  0  0  0  0  0
   -1.6598    0.2737    1.8307 C   0  0  0  0  0  3  0  0  0  0  0  0
   -3.1238    1.6855    1.0697 H   0  0  0  0  0  0  0  0  0  0  0  0
   -2.7606    0.3654   -0.0389 H   0  0  0  0  0  0  0  0  0  0  0  0
   -1.6059    1.6784    0.1756 H   0  0  0  0  0  0  0  0  0  0  0  0
   -2.3780   -0.3617    2.3520 H   0  0  0  0  0  0  0  0  0  0  0  0
   -1.2232    0.9514    2.5665 H   0  0  0  0  0  0  0  0  0  0  0  0
  1  2  1  0
  1  6  1  0
  1  7  1  0
  1  8  1  0
  2  3  1  0
  2  4  1  0
  2  9  1  0
  3 10  1  0
  3 11  1  0
  3 12  1  0
  4  5  1  0
  5 13  1  0
 14 15  1  0
 14 16  1  0
 14 17  1  0
 14 18  1  0
 15 19  1  0
 15 20  1  0
M  RAD  1  15   2
M  END
>  <reaction>  (16) 
rxn_453

>  <mol_properties>  (16) 
{"3": {"label": "*0", "atom_type": "O2s"}, "4": {"label": "*1", "atom_type": "O2s"}, "12": {"label": "*2", "atom_type": "H0"}, "13": {"label": "*4", "atom_type": "Cs"}, "14": {"label": "*3", "atom_type": "Cs"}}

>  <type>  (16) 
unop_12

>  <geom_source>  (16) 
Heuristics

$$$$

     RDKit          3D

 20 18  0  0  0  0  0  0  0  0999 V2000
   -0.4571    0.3588   -0.0686 O   0  0  0  0  0  0  0  0  0  0  0  0
    0.4064   -0.6055    0.1921 O   0  0  0  0  0  1  0  0  0  0  0  0
   -1.6700   -0.2693   -0.4099 C   0  0  0  0  0  0  0  0  0  0  0  0
   -2.4190   -0.6934    0.8580 C   0  0  0  0  0  0  0  0  0  0  0  0
   -2.5170    0.7081   -1.2239 C   0  0  0  0  0  0  0  0  0  0  0  0
    2.7473   -0.3830    0.7712 C   0  0  0  0  0  0  0  0  0  0  0  0
    3.2972    0.6925   -0.1498 C   0  0  0  0  0  0  0  0  0  0  0  0
   -1.4925   -1.1679   -1.0482 H   0  0  0  0  0  0  0  0  0  0  0  0
    2.5529    0.0458    1.7769 H   0  0  0  0  0  0  0  0  0  0  0  0
    3.4817   -1.2106    0.8642 H   0  0  0  0  0  0  0  0  0  0  0  0
    1.7660   -0.7969    0.3424 H   0  0  0  0  0  0  0  0  0  0  0  0
    4.2463    1.0935    0.2640 H   0  0  0  0  0  0  0  0  0  0  0  0
    3.4909    0.2633   -1.1553 H   0  0  0  0  0  0  0  0  0  0  0  0
    2.5622    1.5196   -0.2427 H   0  0  0  0  0  0  0  0  0  0  0  0
   -2.6094    0.1866    1.5092 H   0  0  0  0  0  0  0  0  0  0  0  0
   -1.8172   -1.4336    1.4264 H   0  0  0  0  0  0  0  0  0  0  0  0
   -3.3891   -1.1656    0.5927 H   0  0  0  0  0  0  0  0  0  0  0  0
   -2.7339    1.6229   -0.6314 H   0  0  0  0  0  0  0  0  0  0  0  0
   -1.9698    1.0021   -2.1447 H   0  0  0  0  0  0  0  0  0  0  0  0
   -3.4758    0.2327   -1.5226 H   0  0  0  0  0  0  0  0  0  0  0  0
  1  3  1  0
  1  2  1  0
  3  4  1  0
  3  5  1  0
  3  8  1  0
  4 15  1  0
  4 16  1  0
  4 17  1  0
  5 18  1  0
  5 19  1  0
  5 20  1  0
  6  7  1  0
  6  9  1  0
  6 10  1  0
  6 11  1  0
  7 12  1  0
  7 13  1  0
  7 14  1  0
M  RAD  1   2   2
M  END
>  <reaction>  (17) 
rxn_453

>  <mol_properties>  (17) 
{"3": {"label": "*0", "atom_type": "O2s"}, "4": {"label": "*1", "atom_type": "O2s"}, "12": {"label": "*2", "atom_type": "H0"}, "13": {"label": "*4", "atom_type": "Cs"}, "14": {"label": "*3", "atom_type": "Cs"}}

>  <type>  (17) 
unop_13

>  <geom_source>  (17) 
AutoTST

$$$$

     RDKit          3D

 20 18  0  0  0  0  0  0  0  0999 V2000
    1.3363   -0.0950   -2.2948 C   0  0  0  0  0  0  0  0  0  0  0  0
    1.3363   -0.0950   -0.7782 C   0  0  0  0  0  0  0  0  0  0  0  0
    1.3363    1.3047   -0.1896 C   0  0  0  0  0  0  0  0  0  0  0  0
    0.1637   -0.8223   -0.4214 O   0  0  0  0  0  0  0  0  0  0  0  0
    0.2093   -1.0905    0.9748 O   0  0  0  0  0  0  0  0  0  0  0  0
    2.2289    0.4118   -2.6629 H   0  0  0  0  0  0  0  0  0  0  0  0
    1.3288   -1.1137   -2.6814 H   0  0  0  0  0  0  0  0  0  0  0  0
    0.4598    0.4304   -2.6786 H   0  0  0  0  0  0  0  0  0  0  0  0
    2.2024   -0.6532   -0.4069 H   0  0  0  0  0  0  0  0  0  0  0  0
    0.4667    1.8647   -0.5413 H   0  0  0  0  0  0  0  0  0  0  0  0
    1.3210    1.2702    0.8996 H   0  0  0  0  0  0  0  0  0  0  0  0
    2.2367    1.8408   -0.4941 H   0  0  0  0  0  0  0  0  0  0  0  0
   -0.6374   -0.4104    1.3696 H   0  0  0  0  0  0  0  0  0  0  0  0
   -2.6917    0.5415    0.7739 C   0  0  0  0  0  0  0  0  0  0  0  0
   -1.5971    0.3605    1.8170 C   0  0  0  0  0  3  0  0  0  0  0  0
   -3.6161    0.9019    1.2287 H   0  0  0  0  0  0  0  0  0  0  0  0
   -2.9169   -0.3995    0.2690 H   0  0  0  0  0  0  0  0  0  0  0  0
   -2.3957    1.2634    0.0107 H   0  0  0  0  0  0  0  0  0  0  0  0
   -1.8931   -0.3614    2.5802 H   0  0  0  0  0  0  0  0  0  0  0  0
   -1.3719    1.3015    2.3219 H   0  0  0  0  0  0  0  0  0  0  0  0
  1  2  1  0
  1  6  1  0
  1  7  1  0
  1  8  1  0
  2  3  1  0
  2  4  1  0
  2  9  1  0
  3 10  1  0
  3 11  1  0
  3 12  1  0
  4  5  1  0
  5 13  1  0
 14 15  1  0
 14 16  1  0
 14 17  1  0
 14 18  1  0
 15 19  1  0
 15 20  1  0
M  RAD  1  15   2
M  END
>  <reaction>  (18) 
rxn_453

>  <mol_properties>  (18) 
{"3": {"label": "*0", "atom_type": "O2s"}, "4": {"label": "*1", "atom_type": "O2s"}, "12": {"label": "*2", "atom_type": "H0"}, "13": {"label": "*4", "atom_type": "Cs"}, "14": {"label": "*3", "atom_type": "Cs"}}

>  <type>  (18) 
unop_14

>  <geom_source>  (18) 
gaussian_log

$$$$
