
     RDKit          3D

 15 14  0  0  0  0  0  0  0  0999 V2000
   -0.6986    1.3249   -0.1641 C   0  0  0  0  0  0  0  0  0  0  0  0
   -0.2590   -0.0344    0.3671 C   0  0  0  0  0  0  0  0  0  0  0  0
   -0.4734   -0.1429    1.8733 C   0  0  0  0  0  0  0  0  0  0  0  0
   -0.9841   -1.1722   -0.3462 C   0  0  0  0  0  0  0  0  0  0  0  0
   -0.7805   -1.1911   -1.7444 O   0  0  0  0  0  0  0  0  0  0  0  0
   -0.1246    2.1306    0.2976 H   0  0  0  0  0  0  0  0  0  0  0  0
   -1.7557    1.4964    0.0581 H   0  0  0  0  0  0  0  0  0  0  0  0
   -0.5709    1.3852   -1.2449 H   0  0  0  0  0  0  0  0  0  0  0  0
    0.8141   -0.1541    0.1667 H   0  0  0  0  0  0  0  0  0  0  0  0
   -1.5346   -0.0466    2.1192 H   0  0  0  0  0  0  0  0  0  0  0  0
    0.0611    0.6480    2.4019 H   0  0  0  0  0  0  0  0  0  0  0  0
   -0.1249   -1.1023    2.2618 H   0  0  0  0  0  0  0  0  0  0  0  0
   -0.6918   -2.1316    0.1011 H   0  0  0  0  0  0  0  0  0  0  0  0
   -2.0629   -1.0627   -0.2056 H   0  0  0  0  0  0  0  0  0  0  0  0
    0.1528   -1.3298   -1.9125 H   0  0  0  0  0  0  0  0  0  0  0  0
  1  2  1  0
  1  6  1  0
  1  7  1  0
  1  8  1  0
  2  3  1  0
  2  4  1  0
  2  9  1  0
  3 10  1  0
  3 11  1  0
  3 12  1  0
  4  5  1  0
  4 13  1  0
  4 14  1  0
  5 15  1  0
M  END
>  <reaction>  (1) 
rxn_41

>  <mol_properties>  (1) 
{"1": {"label": "donator", "atom_type": "Cs"}, "8": {"label": "d_hydrogen", "atom_type": "H0"}}

>  <type>  (1) 
r1h

$$$$

     RDKit          3D

 10  9  0  0  0  0  0  0  0  0999 V2000
    1.2930    0.1441    0.3288 C   0  0  0  0  0  0  0  0  0  0  0  0
   -0.0374   -0.1647    0.9100 C   0  0  0  0  0  3  0  0  0  0  0  0
   -1.2664    0.4569    0.3567 C   0  0  0  0  0  0  0  0  0  0  0  0
    1.4384    1.2242    0.2174 H   0  0  0  0  0  0  0  0  0  0  0  0
    2.1077   -0.2477    0.9385 H   0  0  0  0  0  0  0  0  0  0  0  0
    1.4057   -0.2836   -0.6789 H   0  0  0  0  0  0  0  0  0  0  0  0
   -0.1309   -0.9912    1.6030 H   0  0  0  0  0  0  0  0  0  0  0  0
   -1.5005    0.0716   -0.6471 H   0  0  0  0  0  0  0  0  0  0  0  0
   -2.1382    0.2713    0.9849 H   0  0  0  0  0  0  0  0  0  0  0  0
   -1.1497    1.5406    0.2456 H   0  0  0  0  0  0  0  0  0  0  0  0
  1  2  1  0
  1  4  1  0
  1  5  1  0
  1  6  1  0
  2  3  1  0
  2  7  1  0
  3  8  1  0
  3  9  1  0
  3 10  1  0
M  RAD  1   2   2
M  END
>  <reaction>  (2) 
rxn_41

>  <mol_properties>  (2) 
{"1": {"label": "acceptor", "atom_type": "Cs"}}

>  <type>  (2) 
r2

$$$$

     RDKit          3D

 11 10  0  0  0  0  0  0  0  0999 V2000
   -1.2710    0.1907   -0.2084 C   0  0  0  0  0  0  0  0  0  0  0  0
    0.0202   -0.6130   -0.2928 C   0  0  0  0  0  0  0  0  0  0  0  0
    0.1086   -1.6953    0.7756 C   0  0  0  0  0  0  0  0  0  0  0  0
   -1.3607    0.6851    0.7620 H   0  0  0  0  0  0  0  0  0  0  0  0
   -2.1429   -0.4567   -0.3299 H   0  0  0  0  0  0  0  0  0  0  0  0
   -1.3158    0.9602   -0.9809 H   0  0  0  0  0  0  0  0  0  0  0  0
    0.8757    0.0616   -0.1992 H   0  0  0  0  0  0  0  0  0  0  0  0
    0.0997   -1.0712   -1.2825 H   0  0  0  0  0  0  0  0  0  0  0  0
   -0.7198   -2.4022    0.6850 H   0  0  0  0  0  0  0  0  0  0  0  0
    1.0395   -2.2596    0.6989 H   0  0  0  0  0  0  0  0  0  0  0  0
    0.0624   -1.2603    1.7770 H   0  0  0  0  0  0  0  0  0  0  0  0
  1  2  1  0
  1  4  1  0
  1  5  1  0
  1  6  1  0
  2  3  1  0
  2  7  1  0
  2  8  1  0
  3  9  1  0
  3 10  1  0
  3 11  1  0
M  END
>  <reaction>  (3) 
rxn_41

>  <mol_properties>  (3) 
{"0": {"label": "a_hydrogen", "atom_type": "H0"}, "2": {"label": "acceptor", "atom_type": "Cs"}}

>  <type>  (3) 
r2h

$$$$

     RDKit          3D

 25 23  0  0  0  0  0  0  0  0999 V2000
   -0.6394    0.4865   -1.7227 C   0  0  0  0  0  0  0  0  0  0  0  0
   -0.6244    0.8227   -0.2522 C   0  0  0  0  0  0  0  0  0  0  0  0
   -0.3253    2.2712    0.0496 C   0  0  0  0  0  0  0  0  0  0  0  0
   -1.8147    0.3020    0.5215 C   0  0  0  0  0  0  0  0  0  0  0  0
   -2.0757   -1.0731    0.3292 O   0  0  0  0  0  0  0  0  0  0  0  0
    0.2984    0.7776   -2.2005 H   0  0  0  0  0  0  0  0  0  0  0  0
   -1.4506    1.0194   -2.2341 H   0  0  0  0  0  0  0  0  0  0  0  0
   -0.7964   -0.5799   -1.8852 H   0  0  0  0  0  0  0  0  0  0  0  0
    0.4276    0.1784    0.2560 H   0  0  0  0  0  0  0  0  0  0  0  0
   -1.1168    2.9271   -0.3317 H   0  0  0  0  0  0  0  0  0  0  0  0
    0.6102    2.5830   -0.4197 H   0  0  0  0  0  0  0  0  0  0  0  0
   -0.2382    2.4475    1.1244 H   0  0  0  0  0  0  0  0  0  0  0  0
   -1.6829    0.5292    1.5886 H   0  0  0  0  0  0  0  0  0  0  0  0
   -2.7245    0.8201    0.1948 H   0  0  0  0  0  0  0  0  0  0  0  0
   -1.3117   -1.5687    0.6299 H   0  0  0  0  0  0  0  0  0  0  0  0
    2.5625   -0.2709   -0.3950 C   0  0  0  0  0  0  0  0  0  0  0  0
    1.5717   -0.4035    0.7310 C   0  0  0  0  0  3  0  0  0  0  0  0
    1.2148   -1.8130    1.1242 C   0  0  0  0  0  0  0  0  0  0  0  0
    2.2245   -0.8172   -1.2794 H   0  0  0  0  0  0  0  0  0  0  0  0
    2.7061    0.7730   -0.6803 H   0  0  0  0  0  0  0  0  0  0  0  0
    3.5430   -0.6747   -0.1173 H   0  0  0  0  0  0  0  0  0  0  0  0
    1.8058    0.2323    1.5855 H   0  0  0  0  0  0  0  0  0  0  0  0
    2.0906   -2.3663    1.4819 H   0  0  0  0  0  0  0  0  0  0  0  0
    0.4764   -1.8346    1.9301 H   0  0  0  0  0  0  0  0  0  0  0  0
    0.8183   -2.3713    0.2700 H   0  0  0  0  0  0  0  0  0  0  0  0
  1  2  1  0
  1  6  1  0
  1  7  1  0
  1  8  1  0
  2  3  1  0
  2  4  1  0
  2  9  1  0
  3 10  1  0
  3 11  1  0
  3 12  1  0
  4  5  1  0
  4 13  1  0
  4 14  1  0
  5 15  1  0
 16 17  1  0
 16 19  1  0
 16 20  1  0
 16 21  1  0
 17 18  1  0
 17 22  1  0
 18 23  1  0
 18 24  1  0
 18 25  1  0
M  RAD  1  17   2
M  END
>  <reaction>  (4) 
rxn_41

>  <mol_properties>  (4) 
{"1": {"label": "*1", "atom_type": "Cs"}, "3": {"label": "*0", "atom_type": "Cs"}, "8": {"label": "*2", "atom_type": "H0"}, "15": {"label": "*4", "atom_type": "Cs"}, "16": {"label": "*3", "atom_type": "Cs"}}

>  <type>  (4) 
ts

$$$$

     RDKit          3D

 25 23  0  0  0  0  0  0  0  0999 V2000
   -0.7063    0.6894   -1.8487 C   0  0  0  0  0  0  0  0  0  0  0  0
   -0.7063    0.6894   -0.3245 C   0  0  0  0  0  3  0  0  0  0  0  0
   -0.7063    2.1082    0.2354 C   0  0  0  0  0  0  0  0  0  0  0  0
   -1.8938   -0.0910    0.2324 C   0  0  0  0  0  0  0  0  0  0  0  0
   -1.9326   -1.4422   -0.1793 O   0  0  0  0  0  0  0  0  0  0  0  0
    0.1834    1.1860   -2.2407 H   0  0  0  0  0  0  0  0  0  0  0  0
   -1.5826    1.2221   -2.2291 H   0  0  0  0  0  0  0  0  0  0  0  0
   -0.7367   -0.3265   -2.2423 H   0  0  0  0  0  0  0  0  0  0  0  0
    0.3891    0.0864    0.0912 H   0  0  0  0  0  0  0  0  0  0  0  0
   -1.6096    2.6432   -0.0709 H   0  0  0  0  0  0  0  0  0  0  0  0
    0.1523    2.6728   -0.1316 H   0  0  0  0  0  0  0  0  0  0  0  0
   -0.6690    2.1106    1.3269 H   0  0  0  0  0  0  0  0  0  0  0  0
   -1.8990   -0.0194    1.3282 H   0  0  0  0  0  0  0  0  0  0  0  0
   -2.8250    0.3550   -0.1273 H   0  0  0  0  0  0  0  0  0  0  0  0
   -1.1500   -1.8831    0.1550 H   0  0  0  0  0  0  0  0  0  0  0  0
    2.3029    0.4530    1.3468 C   0  0  0  0  0  0  0  0  0  0  0  0
    1.4800   -0.5141    0.5053 C   0  0  0  0  0  0  0  0  0  0  0  0
    2.3016   -1.6887   -0.0104 C   0  0  0  0  0  0  0  0  0  0  0  0
    3.1320    0.8668    0.7677 H   0  0  0  0  0  0  0  0  0  0  0  0
    1.6977    1.2868    1.7066 H   0  0  0  0  0  0  0  0  0  0  0  0
    2.7288   -0.0517    2.2174 H   0  0  0  0  0  0  0  0  0  0  0  0
    0.6409   -0.8890    1.0978 H   0  0  0  0  0  0  0  0  0  0  0  0
    2.7274   -2.2608    0.8175 H   0  0  0  0  0  0  0  0  0  0  0  0
    1.6954   -2.3695   -0.6103 H   0  0  0  0  0  0  0  0  0  0  0  0
    3.1306   -1.3424   -0.6322 H   0  0  0  0  0  0  0  0  0  0  0  0
  1  2  1  0
  1  6  1  0
  1  7  1  0
  1  8  1  0
  2  3  1  0
  2  4  1  0
  3 10  1  0
  3 11  1  0
  3 12  1  0
  4  5  1  0
  4 13  1  0
  4 14  1  0
  5 15  1  0
  9 17  1  0
 16 17  1  0
 16 19  1  0
 16 20  1  0
 16 21  1  0
 17 18  1  0
 17 22  1  0
 18 23  1  0
 18 24  1  0
 18 25  1  0
M  RAD  1   2   2
M  END
>  <reaction>  (5) 
rxn_41

>  <mol_properties>  (5) 
{"1": {"label": "*1", "atom_type": "Cs"}, "3": {"label": "*0", "atom_type": "Cs"}, "8": {"label": "*2", "atom_type": "H0"}, "15": {"label": "*4", "atom_type": "Cs"}, "16": {"label": "*3", "atom_type": "Cs"}}

>  <type>  (5) 
unop_1

>  <geom_source>  (5) 
Heuristics

$$$$

     RDKit          3D

 25 23  0  0  0  0  0  0  0  0999 V2000
   -0.6416    0.8140   -1.7473 C   0  0  0  0  0  0  0  0  0  0  0  0
   -0.6416    0.8140   -0.2231 C   0  0  0  0  0  3  0  0  0  0  0  0
   -0.6416    2.2327    0.3368 C   0  0  0  0  0  0  0  0  0  0  0  0
   -1.8291    0.0336    0.3338 C   0  0  0  0  0  0  0  0  0  0  0  0
   -1.8679   -1.3177   -0.0779 O   0  0  0  0  0  0  0  0  0  0  0  0
    0.2481    1.3105   -2.1393 H   0  0  0  0  0  0  0  0  0  0  0  0
   -1.5179    1.3467   -2.1277 H   0  0  0  0  0  0  0  0  0  0  0  0
   -0.6720   -0.2020   -2.1409 H   0  0  0  0  0  0  0  0  0  0  0  0
    0.4538    0.2110    0.1926 H   0  0  0  0  0  0  0  0  0  0  0  0
   -1.5449    2.7677    0.0305 H   0  0  0  0  0  0  0  0  0  0  0  0
    0.2170    2.7974   -0.0302 H   0  0  0  0  0  0  0  0  0  0  0  0
   -0.6043    2.2351    1.4283 H   0  0  0  0  0  0  0  0  0  0  0  0
   -1.8343    0.1051    1.4296 H   0  0  0  0  0  0  0  0  0  0  0  0
   -2.7603    0.4795   -0.0259 H   0  0  0  0  0  0  0  0  0  0  0  0
   -1.0853   -1.7585    0.2564 H   0  0  0  0  0  0  0  0  0  0  0  0
    2.6564   -0.1816   -0.4138 C   0  0  0  0  0  0  0  0  0  0  0  0
    1.5447   -0.3895    0.6067 C   0  0  0  0  0  0  0  0  0  0  0  0
    1.5381   -1.7974    1.1885 C   0  0  0  0  0  0  0  0  0  0  0  0
    2.5542   -0.8775   -1.2501 H   0  0  0  0  0  0  0  0  0  0  0  0
    2.6448    0.8317   -0.8188 H   0  0  0  0  0  0  0  0  0  0  0  0
    3.6373   -0.3506    0.0372 H   0  0  0  0  0  0  0  0  0  0  0  0
    1.6525    0.3382    1.4157 H   0  0  0  0  0  0  0  0  0  0  0  0
    2.4837   -2.0172    1.6900 H   0  0  0  0  0  0  0  0  0  0  0  0
    0.7356   -1.9267    1.9166 H   0  0  0  0  0  0  0  0  0  0  0  0
    1.4006   -2.5441    0.4027 H   0  0  0  0  0  0  0  0  0  0  0  0
  1  2  1  0
  1  6  1  0
  1  7  1  0
  1  8  1  0
  2  3  1  0
  2  4  1  0
  3 10  1  0
  3 11  1  0
  3 12  1  0
  4  5  1  0
  4 13  1  0
  4 14  1  0
  5 15  1  0
  9 17  1  0
 16 17  1  0
 16 19  1  0
 16 20  1  0
 16 21  1  0
 17 18  1  0
 17 22  1  0
 18 23  1  0
 18 24  1  0
 18 25  1  0
M  RAD  1   2   2
M  END
>  <reaction>  (6) 
rxn_41

>  <mol_properties>  (6) 
{"1": {"label": "*1", "atom_type": "Cs"}, "3": {"label": "*0", "atom_type": "Cs"}, "8": {"label": "*2", "atom_type": "H0"}, "15": {"label": "*4", "atom_type": "Cs"}, "16": {"label": "*3", "atom_type": "Cs"}}

>  <type>  (6) 
unop_2

>  <geom_source>  (6) 
Heuristics

$$$$

     RDKit          3D

 25 23  0  0  0  0  0  0  0  0999 V2000
   -0.7023    0.6532   -1.8709 C   0  0  0  0  0  0  0  0  0  0  0  0
   -0.7023    0.6532   -0.3468 C   0  0  0  0  0  3  0  0  0  0  0  0
   -0.7023    2.0719    0.2131 C   0  0  0  0  0  0  0  0  0  0  0  0
   -1.8898   -0.1272    0.2102 C   0  0  0  0  0  0  0  0  0  0  0  0
   -1.9286   -1.4784   -0.2016 O   0  0  0  0  0  0  0  0  0  0  0  0
    0.1874    1.1497   -2.2629 H   0  0  0  0  0  0  0  0  0  0  0  0
   -1.5785    1.1859   -2.2514 H   0  0  0  0  0  0  0  0  0  0  0  0
   -0.7327   -0.3627   -2.2646 H   0  0  0  0  0  0  0  0  0  0  0  0
    0.3932    0.0502    0.0690 H   0  0  0  0  0  0  0  0  0  0  0  0
   -1.6055    2.6070   -0.0931 H   0  0  0  0  0  0  0  0  0  0  0  0
    0.1563    2.6366   -0.1538 H   0  0  0  0  0  0  0  0  0  0  0  0
   -0.6650    2.0744    1.3046 H   0  0  0  0  0  0  0  0  0  0  0  0
   -1.8949   -0.0556    1.3060 H   0  0  0  0  0  0  0  0  0  0  0  0
   -2.8210    0.3188   -0.1496 H   0  0  0  0  0  0  0  0  0  0  0  0
   -1.1459   -1.9193    0.1328 H   0  0  0  0  0  0  0  0  0  0  0  0
    1.9081    0.0362    1.8235 C   0  0  0  0  0  0  0  0  0  0  0  0
    1.4840   -0.5503    0.4830 C   0  0  0  0  0  0  0  0  0  0  0  0
    2.6656   -1.0476   -0.3399 C   0  0  0  0  0  0  0  0  0  0  0  0
    2.5845    0.8828    1.6831 H   0  0  0  0  0  0  0  0  0  0  0  0
    1.0489    0.3866    2.3979 H   0  0  0  0  0  0  0  0  0  0  0  0
    2.4330   -0.7082    2.4271 H   0  0  0  0  0  0  0  0  0  0  0  0
    0.7849   -1.3742    0.6510 H   0  0  0  0  0  0  0  0  0  0  0  0
    3.2144   -1.8262    0.1955 H   0  0  0  0  0  0  0  0  0  0  0  0
    2.3421   -1.4636   -1.2955 H   0  0  0  0  0  0  0  0  0  0  0  0
    3.3659   -0.2351   -0.5485 H   0  0  0  0  0  0  0  0  0  0  0  0
  1  2  1  0
  1  6  1  0
  1  7  1  0
  1  8  1  0
  2  3  1  0
  2  4  1  0
  3 10  1  0
  3 11  1  0
  3 12  1  0
  4  5  1  0
  4 13  1  0
  4 14  1  0
  5 15  1  0
  9 17  1  0
 16 17  1  0
 16 19  1  0
 16 20  1  0
 16 21  1  0
 17 18  1  0
 17 22  1  0
 18 23  1  0
 18 24  1  0
 18 25  1  0
M  RAD  1   2   2
M  END
>  <reaction>  (7) 
rxn_41

>  <mol_properties>  (7) 
{"1": {"label": "*1", "atom_type": "Cs"}, "3": {"label": "*0", "atom_type": "Cs"}, "8": {"label": "*2", "atom_type": "H0"}, "15": {"label": "*4", "atom_type": "Cs"}, "16": {"label": "*3", "atom_type": "Cs"}}

>  <type>  (7) 
unop_3

>  <geom_source>  (7) 
Heuristics

$$$$

     RDKit          3D

 25 23  0  0  0  0  0  0  0  0999 V2000
   -0.4116    0.8321   -1.9133 C   0  0  0  0  0  0  0  0  0  0  0  0
   -0.4116    0.8321   -0.3892 C   0  0  0  0  0  3  0  0  0  0  0  0
   -0.4116    2.2508    0.1707 C   0  0  0  0  0  0  0  0  0  0  0  0
   -1.5991    0.0517    0.1677 C   0  0  0  0  0  0  0  0  0  0  0  0
   -1.6380   -1.2996   -0.2440 O   0  0  0  0  0  0  0  0  0  0  0  0
    0.4781    1.3286   -2.3054 H   0  0  0  0  0  0  0  0  0  0  0  0
   -1.2879    1.3648   -2.2938 H   0  0  0  0  0  0  0  0  0  0  0  0
   -0.4421   -0.1839   -2.3070 H   0  0  0  0  0  0  0  0  0  0  0  0
    0.6838    0.2291    0.0266 H   0  0  0  0  0  0  0  0  0  0  0  0
   -1.3149    2.7858   -0.1356 H   0  0  0  0  0  0  0  0  0  0  0  0
    0.4469    2.8155   -0.1963 H   0  0  0  0  0  0  0  0  0  0  0  0
   -0.3743    2.2532    1.2622 H   0  0  0  0  0  0  0  0  0  0  0  0
   -1.6043    0.1233    1.2635 H   0  0  0  0  0  0  0  0  0  0  0  0
   -2.5304    0.4976   -0.1920 H   0  0  0  0  0  0  0  0  0  0  0  0
   -0.8553   -1.7404    0.0903 H   0  0  0  0  0  0  0  0  0  0  0  0
    1.7948   -1.8025   -0.0810 C   0  0  0  0  0  0  0  0  0  0  0  0
    1.7747   -0.3714    0.4406 C   0  0  0  0  0  0  0  0  0  0  0  0
    1.0984   -0.2520    1.8003 C   0  0  0  0  0  0  0  0  0  0  0  0
    0.7801   -2.1936   -0.1881 H   0  0  0  0  0  0  0  0  0  0  0  0
    2.2827   -1.8677   -1.0550 H   0  0  0  0  0  0  0  0  0  0  0  0
    2.3308   -2.4613    0.6066 H   0  0  0  0  0  0  0  0  0  0  0  0
    2.7989    0.0055    0.5091 H   0  0  0  0  0  0  0  0  0  0  0  0
    1.6124   -0.8619    2.5472 H   0  0  0  0  0  0  0  0  0  0  0  0
    1.0938    0.7795    2.1569 H   0  0  0  0  0  0  0  0  0  0  0  0
    0.0618   -0.5941    1.7525 H   0  0  0  0  0  0  0  0  0  0  0  0
  1  2  1  0
  1  6  1  0
  1  7  1  0
  1  8  1  0
  2  3  1  0
  2  4  1  0
  3 10  1  0
  3 11  1  0
  3 12  1  0
  4  5  1  0
  4 13  1  0
  4 14  1  0
  5 15  1  0
  9 17  1  0
 16 17  1  0
 16 19  1  0
 16 20  1  0
 16 21  1  0
 17 18  1  0
 17 22  1  0
 18 23  1  0
 18 24  1  0
 18 25  1  0
M  RAD  1   2   2
M  END
>  <reaction>  (8) 
rxn_41

>  <mol_properties>  (8) 
{"1": {"label": "*1", "atom_type": "Cs"}, "3": {"label": "*0", "atom_type": "Cs"}, "8": {"label": "*2", "atom_type": "H0"}, "15": {"label": "*4", "atom_type": "Cs"}, "16": {"label": "*3", "atom_type": "Cs"}}

>  <type>  (8) 
unop_4

>  <geom_source>  (8) 
Heuristics

$$$$

     RDKit          3D

 25 23  0  0  0  0  0  0  0  0999 V2000
   -0.6588    0.5755   -1.9210 C   0  0  0  0  0  0  0  0  0  0  0  0
   -0.6588    0.5755   -0.3969 C   0  0  0  0  0  3  0  0  0  0  0  0
   -0.6588    1.9943    0.1630 C   0  0  0  0  0  0  0  0  0  0  0  0
   -1.8463   -0.2049    0.1601 C   0  0  0  0  0  0  0  0  0  0  0  0
   -1.8851   -1.5561   -0.2516 O   0  0  0  0  0  0  0  0  0  0  0  0
    0.2310    1.0721   -2.3130 H   0  0  0  0  0  0  0  0  0  0  0  0
   -1.5350    1.1082   -2.3015 H   0  0  0  0  0  0  0  0  0  0  0  0
   -0.6892   -0.4404   -2.3147 H   0  0  0  0  0  0  0  0  0  0  0  0
    0.4367   -0.0275    0.0189 H   0  0  0  0  0  0  0  0  0  0  0  0
   -1.5620    2.5293   -0.1432 H   0  0  0  0  0  0  0  0  0  0  0  0
    0.1998    2.5590   -0.2039 H   0  0  0  0  0  0  0  0  0  0  0  0
   -0.6215    1.9967    1.2545 H   0  0  0  0  0  0  0  0  0  0  0  0
   -1.8514   -0.1333    1.2559 H   0  0  0  0  0  0  0  0  0  0  0  0
   -2.7775    0.2411   -0.1996 H   0  0  0  0  0  0  0  0  0  0  0  0
   -1.1024   -1.9969    0.0827 H   0  0  0  0  0  0  0  0  0  0  0  0
    1.5520   -0.6414    1.9560 C   0  0  0  0  0  0  0  0  0  0  0  0
    1.5276   -0.6279    0.4329 C   0  0  0  0  0  0  0  0  0  0  0  0
    2.7455    0.0626   -0.1673 C   0  0  0  0  0  0  0  0  0  0  0  0
    1.5777    0.3754    2.3553 H   0  0  0  0  0  0  0  0  0  0  0  0
    0.6724   -1.1397    2.3670 H   0  0  0  0  0  0  0  0  0  0  0  0
    2.4369   -1.1637    2.3279 H   0  0  0  0  0  0  0  0  0  0  0  0
    1.4709   -1.6546    0.0607 H   0  0  0  0  0  0  0  0  0  0  0  0
    3.6679   -0.4375    0.1376 H   0  0  0  0  0  0  0  0  0  0  0  0
    2.7099    0.0622   -1.2581 H   0  0  0  0  0  0  0  0  0  0  0  0
    2.8088    1.1016    0.1650 H   0  0  0  0  0  0  0  0  0  0  0  0
  1  2  1  0
  1  6  1  0
  1  7  1  0
  1  8  1  0
  2  3  1  0
  2  4  1  0
  3 10  1  0
  3 11  1  0
  3 12  1  0
  4  5  1  0
  4 13  1  0
  4 14  1  0
  5 15  1  0
  9 17  1  0
 16 17  1  0
 16 19  1  0
 16 20  1  0
 16 21  1  0
 17 18  1  0
 17 22  1  0
 18 23  1  0
 18 24  1  0
 18 25  1  0
M  RAD  1   2   2
M  END
>  <reaction>  (9) 
rxn_41

>  <mol_properties>  (9) 
{"1": {"label": "*1", "atom_type": "Cs"}, "3": {"label": "*0", "atom_type": "Cs"}, "8": {"label": "*2", "atom_type": "H0"}, "15": {"label": "*4", "atom_type": "Cs"}, "16": {"label": "*3", "atom_type": "Cs"}}

>  <type>  (9) 
unop_5

>  <geom_source>  (9) 
Heuristics

$$$$

     RDKit          3D

 25 23  0  0  0  0  0  0  0  0999 V2000
   -0.4043    0.7487   -1.9833 C   0  0  0  0  0  0  0  0  0  0  0  0
   -0.4043    0.7487   -0.4592 C   0  0  0  0  0  3  0  0  0  0  0  0
   -0.4043    2.1674    0.1007 C   0  0  0  0  0  0  0  0  0  0  0  0
   -1.5918   -0.0317    0.0977 C   0  0  0  0  0  0  0  0  0  0  0  0
   -1.6306   -1.3830   -0.3140 O   0  0  0  0  0  0  0  0  0  0  0  0
    0.4854    1.2452   -2.3754 H   0  0  0  0  0  0  0  0  0  0  0  0
   -1.2806    1.2814   -2.3638 H   0  0  0  0  0  0  0  0  0  0  0  0
   -0.4347   -0.2673   -2.3770 H   0  0  0  0  0  0  0  0  0  0  0  0
    0.6911    0.1457   -0.0434 H   0  0  0  0  0  0  0  0  0  0  0  0
   -1.3076    2.7024   -0.2056 H   0  0  0  0  0  0  0  0  0  0  0  0
    0.4543    2.7321   -0.2663 H   0  0  0  0  0  0  0  0  0  0  0  0
   -0.3670    2.1698    1.1922 H   0  0  0  0  0  0  0  0  0  0  0  0
   -1.5970    0.0398    1.1935 H   0  0  0  0  0  0  0  0  0  0  0  0
   -2.5230    0.4142   -0.2620 H   0  0  0  0  0  0  0  0  0  0  0  0
   -0.8480   -1.8238    0.0203 H   0  0  0  0  0  0  0  0  0  0  0  0
    1.5108   -1.9452    0.5306 C   0  0  0  0  0  0  0  0  0  0  0  0
    1.7820   -0.4548    0.3706 C   0  0  0  0  0  0  0  0  0  0  0  0
    1.3401    0.3554    1.5826 C   0  0  0  0  0  0  0  0  0  0  0  0
    0.4446   -2.1349    0.6760 H   0  0  0  0  0  0  0  0  0  0  0  0
    1.8338   -2.5082   -0.3468 H   0  0  0  0  0  0  0  0  0  0  0  0
    2.0383   -2.3472    1.3990 H   0  0  0  0  0  0  0  0  0  0  0  0
    2.8497   -0.2958    0.1961 H   0  0  0  0  0  0  0  0  0  0  0  0
    1.8622    0.0259    2.4842 H   0  0  0  0  0  0  0  0  0  0  0  0
    1.5424    1.4194    1.4492 H   0  0  0  0  0  0  0  0  0  0  0  0
    0.2684    0.2382    1.7611 H   0  0  0  0  0  0  0  0  0  0  0  0
  1  2  1  0
  1  6  1  0
  1  7  1  0
  1  8  1  0
  2  3  1  0
  2  4  1  0
  3 10  1  0
  3 11  1  0
  3 12  1  0
  4  5  1  0
  4 13  1  0
  4 14  1  0
  5 15  1  0
  9 17  1  0
 16 17  1  0
 16 19  1  0
 16 20  1  0
 16 21  1  0
 17 18  1  0
 17 22  1  0
 18 23  1  0
 18 24  1  0
 18 25  1  0
M  RAD  1   2   2
M  END
>  <reaction>  (10) 
rxn_41

>  <mol_properties>  (10) 
{"1": {"label": "*1", "atom_type": "Cs"}, "3": {"label": "*0", "atom_type": "Cs"}, "8": {"label": "*2", "atom_type": "H0"}, "15": {"label": "*4", "atom_type": "Cs"}, "16": {"label": "*3", "atom_type": "Cs"}}

>  <type>  (10) 
unop_6

>  <geom_source>  (10) 
Heuristics

$$$$

     RDKit          3D

 25 23  0  0  0  0  0  0  0  0999 V2000
   -0.4467    0.6480   -2.0174 C   0  0  0  0  0  0  0  0  0  0  0  0
   -0.4467    0.6480   -0.4933 C   0  0  0  0  0  3  0  0  0  0  0  0
   -0.4467    2.0668    0.0666 C   0  0  0  0  0  0  0  0  0  0  0  0
   -1.6342   -0.1323    0.0637 C   0  0  0  0  0  0  0  0  0  0  0  0
   -1.6730   -1.4836   -0.3481 O   0  0  0  0  0  0  0  0  0  0  0  0
    0.4430    1.1446   -2.4095 H   0  0  0  0  0  0  0  0  0  0  0  0
   -1.3230    1.1807   -2.3979 H   0  0  0  0  0  0  0  0  0  0  0  0
   -0.4771   -0.3679   -2.4111 H   0  0  0  0  0  0  0  0  0  0  0  0
    0.6487    0.0450   -0.0775 H   0  0  0  0  0  0  0  0  0  0  0  0
   -1.3500    2.6018   -0.2396 H   0  0  0  0  0  0  0  0  0  0  0  0
    0.4119    2.6315   -0.3004 H   0  0  0  0  0  0  0  0  0  0  0  0
   -0.4094    2.0692    1.1581 H   0  0  0  0  0  0  0  0  0  0  0  0
   -1.6394   -0.0608    1.1595 H   0  0  0  0  0  0  0  0  0  0  0  0
   -2.5654    0.3136   -0.2961 H   0  0  0  0  0  0  0  0  0  0  0  0
   -0.8904   -1.9244   -0.0138 H   0  0  0  0  0  0  0  0  0  0  0  0
    1.3627   -1.7680    1.1781 C   0  0  0  0  0  0  0  0  0  0  0  0
    1.7396   -0.5554    0.3365 C   0  0  0  0  0  0  0  0  0  0  0  0
    1.7220    0.7415    1.1354 C   0  0  0  0  0  0  0  0  0  0  0  0
    0.3586   -1.6575    1.5947 H   0  0  0  0  0  0  0  0  0  0  0  0
    1.3810   -2.6865    0.5890 H   0  0  0  0  0  0  0  0  0  0  0  0
    2.0545   -1.8932    2.0146 H   0  0  0  0  0  0  0  0  0  0  0  0
    2.7342   -0.7051   -0.0926 H   0  0  0  0  0  0  0  0  0  0  0  0
    2.4250    0.6955    1.9706 H   0  0  0  0  0  0  0  0  0  0  0  0
    1.9943    1.5978    0.5161 H   0  0  0  0  0  0  0  0  0  0  0  0
    0.7292    0.9311    1.5506 H   0  0  0  0  0  0  0  0  0  0  0  0
  1  2  1  0
  1  6  1  0
  1  7  1  0
  1  8  1  0
  2  3  1  0
  2  4  1  0
  3 10  1  0
  3 11  1  0
  3 12  1  0
  4  5  1  0
  4 13  1  0
  4 14  1  0
  5 15  1  0
  9 17  1  0
 16 17  1  0
 16 19  1  0
 16 20  1  0
 16 21  1  0
 17 18  1  0
 17 22  1  0
 18 23  1  0
 18 24  1  0
 18 25  1  0
M  RAD  1   2   2
M  END
>  <reaction>  (11) 
rxn_41

>  <mol_properties>  (11) 
{"1": {"label": "*1", "atom_type": "Cs"}, "3": {"label": "*0", "atom_type": "Cs"}, "8": {"label": "*2", "atom_type": "H0"}, "15": {"label": "*4", "atom_type": "Cs"}, "16": {"label": "*3", "atom_type": "Cs"}}

>  <type>  (11) 
unop_7

>  <geom_source>  (11) 
Heuristics

$$$$

     RDKit          3D

 25 23  0  0  0  0  0  0  0  0999 V2000
   -0.7071    0.7115   -1.8147 C   0  0  0  0  0  0  0  0  0  0  0  0
   -0.7071    0.7115   -0.2905 C   0  0  0  0  0  3  0  0  0  0  0  0
   -0.7071    2.1302    0.2693 C   0  0  0  0  0  0  0  0  0  0  0  0
   -1.8946   -0.0689    0.2664 C   0  0  0  0  0  0  0  0  0  0  0  0
   -1.9334   -1.4201   -0.1453 O   0  0  0  0  0  0  0  0  0  0  0  0
    0.1826    1.2080   -2.2067 H   0  0  0  0  0  0  0  0  0  0  0  0
   -1.5833    1.2442   -2.1952 H   0  0  0  0  0  0  0  0  0  0  0  0
   -0.7375   -0.3045   -2.2083 H   0  0  0  0  0  0  0  0  0  0  0  0
    0.3884    0.1085    0.1252 H   0  0  0  0  0  0  0  0  0  0  0  0
   -1.6103    2.6652   -0.0369 H   0  0  0  0  0  0  0  0  0  0  0  0
    0.1515    2.6949   -0.0976 H   0  0  0  0  0  0  0  0  0  0  0  0
   -0.6698    2.1327    1.3609 H   0  0  0  0  0  0  0  0  0  0  0  0
   -1.8997    0.0027    1.3622 H   0  0  0  0  0  0  0  0  0  0  0  0
   -2.8258    0.3771   -0.0933 H   0  0  0  0  0  0  0  0  0  0  0  0
   -1.1507   -1.8610    0.1890 H   0  0  0  0  0  0  0  0  0  0  0  0
    2.5935    0.5344    0.6992 C   0  0  0  0  0  0  0  0  0  0  0  0
    1.4793   -0.4920    0.5393 C   0  0  0  0  0  0  0  0  0  0  0  0
    2.0053   -1.9180    0.4373 C   0  0  0  0  0  0  0  0  0  0  0  0
    3.2795    0.5020   -0.1507 H   0  0  0  0  0  0  0  0  0  0  0  0
    2.1973    1.5487    0.7705 H   0  0  0  0  0  0  0  0  0  0  0  0
    3.1778    0.3391    1.6017 H   0  0  0  0  0  0  0  0  0  0  0  0
    0.7914   -0.4175    1.3860 H   0  0  0  0  0  0  0  0  0  0  0  0
    2.5711   -2.1905    1.3315 H   0  0  0  0  0  0  0  0  0  0  0  0
    1.1932   -2.6380    0.3233 H   0  0  0  0  0  0  0  0  0  0  0  0
    2.6727   -2.0277   -0.4209 H   0  0  0  0  0  0  0  0  0  0  0  0
  1  2  1  0
  1  6  1  0
  1  7  1  0
  1  8  1  0
  2  3  1  0
  2  4  1  0
  3 10  1  0
  3 11  1  0
  3 12  1  0
  4  5  1  0
  4 13  1  0
  4 14  1  0
  5 15  1  0
  9 17  1  0
 16 17  1  0
 16 19  1  0
 16 20  1  0
 16 21  1  0
 17 18  1  0
 17 22  1  0
 18 23  1  0
 18 24  1  0
 18 25  1  0
M  RAD  1   2   2
M  END
>  <reaction>  (12) 
rxn_41

>  <mol_properties>  (12) 
{"1": {"label": "*1", "atom_type": "Cs"}, "3": {"label": "*0", "atom_type": "Cs"}, "8": {"label": "*2", "atom_type": "H0"}, "15": {"label": "*4", "atom_type": "Cs"}, "16": {"label": "*3", "atom_type": "Cs"}}

>  <type>  (12) 
unop_8

>  <geom_source>  (12) 
Heuristics

$$$$

     RDKit          3D

 25 23  0  0  0  0  0  0  0  0999 V2000
   -0.4670    0.8772   -1.8308 C   0  0  0  0  0  0  0  0  0  0  0  0
   -0.4670    0.8772   -0.3067 C   0  0  0  0  0  3  0  0  0  0  0  0
   -0.4670    2.2959    0.2532 C   0  0  0  0  0  0  0  0  0  0  0  0
   -1.6545    0.0968    0.2502 C   0  0  0  0  0  0  0  0  0  0  0  0
   -1.6933   -1.2544   -0.1615 O   0  0  0  0  0  0  0  0  0  0  0  0
    0.4228    1.3737   -2.2229 H   0  0  0  0  0  0  0  0  0  0  0  0
   -1.3432    1.4099   -2.2113 H   0  0  0  0  0  0  0  0  0  0  0  0
   -0.4974   -0.1387   -2.2245 H   0  0  0  0  0  0  0  0  0  0  0  0
    0.6285    0.2742    0.1091 H   0  0  0  0  0  0  0  0  0  0  0  0
   -1.3702    2.8310   -0.0530 H   0  0  0  0  0  0  0  0  0  0  0  0
    0.3916    2.8606   -0.1138 H   0  0  0  0  0  0  0  0  0  0  0  0
   -0.4297    2.2984    1.3447 H   0  0  0  0  0  0  0  0  0  0  0  0
   -1.6596    0.1684    1.3460 H   0  0  0  0  0  0  0  0  0  0  0  0
   -2.5857    0.5428   -0.1095 H   0  0  0  0  0  0  0  0  0  0  0  0
   -0.9106   -1.6953    0.1728 H   0  0  0  0  0  0  0  0  0  0  0  0
    2.1384   -1.3768   -0.4974 C   0  0  0  0  0  0  0  0  0  0  0  0
    1.7194   -0.3263    0.5231 C   0  0  0  0  0  0  0  0  0  0  0  0
    1.0633   -0.9348    1.7559 C   0  0  0  0  0  0  0  0  0  0  0  0
    1.2762   -1.9538   -0.8405 H   0  0  0  0  0  0  0  0  0  0  0  0
    2.6059   -0.9220   -1.3724 H   0  0  0  0  0  0  0  0  0  0  0  0
    2.8535   -2.0797   -0.0632 H   0  0  0  0  0  0  0  0  0  0  0  0
    2.5939    0.2560    0.8261 H   0  0  0  0  0  0  0  0  0  0  0  0
    1.7445   -1.6238    2.2611 H   0  0  0  0  0  0  0  0  0  0  0  0
    0.7704   -0.1674    2.4745 H   0  0  0  0  0  0  0  0  0  0  0  0
    0.1672   -1.4979    1.4838 H   0  0  0  0  0  0  0  0  0  0  0  0
  1  2  1  0
  1  6  1  0
  1  7  1  0
  1  8  1  0
  2  3  1  0
  2  4  1  0
  3 10  1  0
  3 11  1  0
  3 12  1  0
  4  5  1  0
  4 13  1  0
  4 14  1  0
  5 15  1  0
  9 17  1  0
 16 17  1  0
 16 19  1  0
 16 20  1  0
 16 21  1  0
 17 18  1  0
 17 22  1  0
 18 23  1  0
 18 24  1  0
 18 25  1  0
M  RAD  1   2   2
M  END
>  <reaction>  (13) 
rxn_41

>  <mol_properties>  (13) 
{"1": {"label": "*1", "atom_type": "Cs"}, "3": {"label": "*0", "atom_type": "Cs"}, "8": {"label": "*2", "atom_type": "H0"}, "15": {"label": "*4", "atom_type": "Cs"}, "16": {"label": "*3", "atom_type": "Cs"}}

>  <type>  (13) 
unop_9

>  <geom_source>  (13) 
Heuristics

$$$$

     RDKit          3D

 25 23  0  0  0  0  0  0  0  0999 V2000
   -0.6915    0.7520   -1.7724 C   0  0  0  0  0  0  0  0  0  0  0  0
   -0.6915    0.7520   -0.2483 C   0  0  0  0  0  3  0  0  0  0  0  0
   -0.6915    2.1707    0.3116 C   0  0  0  0  0  0  0  0  0  0  0  0
   -1.8790   -0.0284    0.3086 C   0  0  0  0  0  0  0  0  0  0  0  0
   -1.9178   -1.3796   -0.1031 O   0  0  0  0  0  0  0  0  0  0  0  0
    0.1982    1.2486   -2.1645 H   0  0  0  0  0  0  0  0  0  0  0  0
   -1.5677    1.2847   -2.1529 H   0  0  0  0  0  0  0  0  0  0  0  0
   -0.7219   -0.2639   -2.1661 H   0  0  0  0  0  0  0  0  0  0  0  0
    0.4040    0.1490    0.1674 H   0  0  0  0  0  0  0  0  0  0  0  0
   -1.5948    2.7058    0.0053 H   0  0  0  0  0  0  0  0  0  0  0  0
    0.1671    2.7354   -0.0554 H   0  0  0  0  0  0  0  0  0  0  0  0
   -0.6542    2.1732    1.4031 H   0  0  0  0  0  0  0  0  0  0  0  0
   -1.8841    0.0432    1.4044 H   0  0  0  0  0  0  0  0  0  0  0  0
   -2.8102    0.4176   -0.0511 H   0  0  0  0  0  0  0  0  0  0  0  0
   -1.1351   -1.8205    0.2312 H   0  0  0  0  0  0  0  0  0  0  0  0
    2.7148    0.2970    0.0599 C   0  0  0  0  0  0  0  0  0  0  0  0
    1.4948   -0.4515    0.5815 C   0  0  0  0  0  0  0  0  0  0  0  0
    1.7784   -1.9250    0.8437 C   0  0  0  0  0  0  0  0  0  0  0  0
    3.0677   -0.1371   -0.8787 H   0  0  0  0  0  0  0  0  0  0  0  0
    2.4921    1.3498   -0.1217 H   0  0  0  0  0  0  0  0  0  0  0  0
    3.5388    0.2479    0.7759 H   0  0  0  0  0  0  0  0  0  0  0  0
    1.1442    0.0214    1.5031 H   0  0  0  0  0  0  0  0  0  0  0  0
    2.5729   -2.0442    1.5844 H   0  0  0  0  0  0  0  0  0  0  0  0
    0.8935   -2.4437    1.2163 H   0  0  0  0  0  0  0  0  0  0  0  0
    2.1018   -2.4292   -0.0702 H   0  0  0  0  0  0  0  0  0  0  0  0
  1  2  1  0
  1  6  1  0
  1  7  1  0
  1  8  1  0
  2  3  1  0
  2  4  1  0
  3 10  1  0
  3 11  1  0
  3 12  1  0
  4  5  1  0
  4 13  1  0
  4 14  1  0
  5 15  1  0
  9 17  1  0
 16 17  1  0
 16 19  1  0
 16 20  1  0
 16 21  1  0
 17 18  1  0
 17 22  1  0
 18 23  1  0
 18 24  1  0
 18 25  1  0
M  RAD  1   2   2
M  END
>  <reaction>  (14) 
rxn_41

>  <mol_properties>  (14) 
{"1": {"label": "*1", "atom_type": "Cs"}, "3": {"label": "*0", "atom_type": "Cs"}, "8": {"label": "*2", "atom_type": "H0"}, "15": {"label": "*4", "atom_type": "Cs"}, "16": {"label": "*3", "atom_type": "Cs"}}

>  <type>  (14) 
unop_10

>  <geom_source>  (14) 
Heuristics

$$$$

     RDKit          3D

 25 23  0  0  0  0  0  0  0  0999 V2000
   -0.5411    0.5658   -1.9960 C   0  0  0  0  0  0  0  0  0  0  0  0
   -0.5411    0.5658   -0.4718 C   0  0  0  0  0  3  0  0  0  0  0  0
   -0.5411    1.9846    0.0880 C   0  0  0  0  0  0  0  0  0  0  0  0
   -1.7286   -0.2146    0.0851 C   0  0  0  0  0  0  0  0  0  0  0  0
   -1.7674   -1.5658   -0.3266 O   0  0  0  0  0  0  0  0  0  0  0  0
    0.3487    1.0624   -2.3880 H   0  0  0  0  0  0  0  0  0  0  0  0
   -1.4173    1.0985   -2.3765 H   0  0  0  0  0  0  0  0  0  0  0  0
   -0.5715   -0.4501   -2.3896 H   0  0  0  0  0  0  0  0  0  0  0  0
    0.5544   -0.0372   -0.0561 H   0  0  0  0  0  0  0  0  0  0  0  0
   -1.4443    2.5196   -0.2182 H   0  0  0  0  0  0  0  0  0  0  0  0
    0.3175    2.5493   -0.2789 H   0  0  0  0  0  0  0  0  0  0  0  0
   -0.5038    1.9870    1.1796 H   0  0  0  0  0  0  0  0  0  0  0  0
   -1.7337   -0.1430    1.1809 H   0  0  0  0  0  0  0  0  0  0  0  0
   -2.6598    0.2314   -0.2746 H   0  0  0  0  0  0  0  0  0  0  0  0
   -0.9847   -2.0066    0.0077 H   0  0  0  0  0  0  0  0  0  0  0  0
    1.3766   -1.3096    1.6984 C   0  0  0  0  0  0  0  0  0  0  0  0
    1.6453   -0.6376    0.3580 C   0  0  0  0  0  0  0  0  0  0  0  0
    2.2380    0.7575    0.5094 C   0  0  0  0  0  0  0  0  0  0  0  0
    0.6751   -0.7225    2.2961 H   0  0  0  0  0  0  0  0  0  0  0  0
    0.9526   -2.3069    1.5694 H   0  0  0  0  0  0  0  0  0  0  0  0
    2.2983   -1.4100    2.2767 H   0  0  0  0  0  0  0  0  0  0  0  0
    2.3245   -1.2597   -0.2314 H   0  0  0  0  0  0  0  0  0  0  0  0
    3.1868    0.7222    1.0502 H   0  0  0  0  0  0  0  0  0  0  0  0
    2.4232    1.2221   -0.4606 H   0  0  0  0  0  0  0  0  0  0  0  0
    1.5636    1.4097    1.0695 H   0  0  0  0  0  0  0  0  0  0  0  0
  1  2  1  0
  1  6  1  0
  1  7  1  0
  1  8  1  0
  2  3  1  0
  2  4  1  0
  3 10  1  0
  3 11  1  0
  3 12  1  0
  4  5  1  0
  4 13  1  0
  4 14  1  0
  5 15  1  0
  9 17  1  0
 16 17  1  0
 16 19  1  0
 16 20  1  0
 16 21  1  0
 17 18  1  0
 17 22  1  0
 18 23  1  0
 18 24  1  0
 18 25  1  0
M  RAD  1   2   2
M  END
>  <reaction>  (15) 
rxn_41

>  <mol_properties>  (15) 
{"1": {"label": "*1", "atom_type": "Cs"}, "3": {"label": "*0", "atom_type": "Cs"}, "8": {"label": "*2", "atom_type": "H0"}, "15": {"label": "*4", "atom_type": "Cs"}, "16": {"label": "*3", "atom_type": "Cs"}}

>  <type>  (15) 
unop_11

>  <geom_source>  (15) 
Heuristics

$$$$

     RDKit          3D

 25 23  0  0  0  0  0  0  0  0999 V2000
   -0.5562    0.8685   -1.7662 C   0  0  0  0  0  0  0  0  0  0  0  0
   -0.5562    0.8685   -0.2421 C   0  0  0  0  0  3  0  0  0  0  0  0
   -0.5562    2.2873    0.3178 C   0  0  0  0  0  0  0  0  0  0  0  0
   -1.7437    0.0881    0.3149 C   0  0  0  0  0  0  0  0  0  0  0  0
   -1.7825   -1.2631   -0.0969 O   0  0  0  0  0  0  0  0  0  0  0  0
    0.3335    1.3651   -2.1583 H   0  0  0  0  0  0  0  0  0  0  0  0
   -1.4325    1.4012   -2.1467 H   0  0  0  0  0  0  0  0  0  0  0  0
   -0.5866   -0.1474   -2.1599 H   0  0  0  0  0  0  0  0  0  0  0  0
    0.5392    0.2655    0.1737 H   0  0  0  0  0  0  0  0  0  0  0  0
   -1.4595    2.8223    0.0116 H   0  0  0  0  0  0  0  0  0  0  0  0
    0.3024    2.8519   -0.0492 H   0  0  0  0  0  0  0  0  0  0  0  0
   -0.5189    2.2897    1.4093 H   0  0  0  0  0  0  0  0  0  0  0  0
   -1.7489    0.1597    1.4107 H   0  0  0  0  0  0  0  0  0  0  0  0
   -2.6749    0.5341   -0.0449 H   0  0  0  0  0  0  0  0  0  0  0  0
   -0.9999   -1.7040    0.2374 H   0  0  0  0  0  0  0  0  0  0  0  0
    2.4487   -0.7855   -0.6154 C   0  0  0  0  0  0  0  0  0  0  0  0
    1.6301   -0.3349    0.5877 C   0  0  0  0  0  0  0  0  0  0  0  0
    1.2552   -1.4896    1.5080 C   0  0  0  0  0  0  0  0  0  0  0  0
    1.8943   -1.5114   -1.2153 H   0  0  0  0  0  0  0  0  0  0  0  0
    2.7073    0.0546   -1.2620 H   0  0  0  0  0  0  0  0  0  0  0  0
    3.3792   -1.2625   -0.2982 H   0  0  0  0  0  0  0  0  0  0  0  0
    2.1943    0.4123    1.1526 H   0  0  0  0  0  0  0  0  0  0  0  0
    2.1482   -1.9887    1.8921 H   0  0  0  0  0  0  0  0  0  0  0  0
    0.6698   -1.1473    2.3630 H   0  0  0  0  0  0  0  0  0  0  0  0
    0.6633   -2.2376    0.9750 H   0  0  0  0  0  0  0  0  0  0  0  0
  1  2  1  0
  1  6  1  0
  1  7  1  0
  1  8  1  0
  2  3  1  0
  2  4  1  0
  3 10  1  0
  3 11  1  0
  3 12  1  0
  4  5  1  0
  4 13  1  0
  4 14  1  0
  5 15  1  0
  9 17  1  0
 16 17  1  0
 16 19  1  0
 16 20  1  0
 16 21  1  0
 17 18  1  0
 17 22  1  0
 18 23  1  0
 18 24  1  0
 18 25  1  0
M  RAD  1   2   2
M  END
>  <reaction>  (16) 
rxn_41

>  <mol_properties>  (16) 
{"1": {"label": "*1", "atom_type": "Cs"}, "3": {"label": "*0", "atom_type": "Cs"}, "8": {"label": "*2", "atom_type": "H0"}, "15": {"label": "*4", "atom_type": "Cs"}, "16": {"label": "*3", "atom_type": "Cs"}}

>  <type>  (16) 
unop_12

>  <geom_source>  (16) 
Heuristics

$$$$

     RDKit          3D

 25 23  0  0  0  0  0  0  0  0999 V2000
   -1.6140   -0.5680    1.9324 O   0  0  0  0  0  0  0  0  0  0  0  0
    1.4753   -0.1216   -0.1502 C   0  0  0  0  0  0  0  0  0  0  0  0
   -1.8475   -0.7687    0.5650 C   0  0  0  0  0  0  0  0  0  0  0  0
    2.0166   -1.5316    0.0590 C   0  0  0  0  0  0  0  0  0  0  0  0
    2.1513    0.8769    0.7831 C   0  0  0  0  0  0  0  0  0  0  0  0
   -1.5363    1.6927    0.0152 C   0  0  0  0  0  0  0  0  0  0  0  0
   -1.1650   -0.0573   -1.7663 C   0  0  0  0  0  0  0  0  0  0  0  0
   -1.0732    0.2611   -0.2723 C   0  0  0  0  0  3  0  0  0  0  0  0
    1.6468    0.1857   -1.2044 H   0  0  0  0  0  0  0  0  0  0  0  0
    0.1968   -0.1186    0.0777 H   0  0  0  0  0  0  0  0  0  0  0  0
    1.8311   -1.8633    1.1026 H   0  0  0  0  0  0  0  0  0  0  0  0
    1.5016   -2.2310   -0.6324 H   0  0  0  0  0  0  0  0  0  0  0  0
    3.1073   -1.5620   -0.1493 H   0  0  0  0  0  0  0  0  0  0  0  0
    3.2454    0.9050    0.5924 H   0  0  0  0  0  0  0  0  0  0  0  0
    1.9687    0.5970    1.8423 H   0  0  0  0  0  0  0  0  0  0  0  0
    1.7322    1.8895    0.6064 H   0  0  0  0  0  0  0  0  0  0  0  0
   -1.5406   -1.8012    0.2820 H   0  0  0  0  0  0  0  0  0  0  0  0
   -2.9372   -0.6742    0.3686 H   0  0  0  0  0  0  0  0  0  0  0  0
   -1.3962    1.9315    1.0902 H   0  0  0  0  0  0  0  0  0  0  0  0
   -2.6085    1.8179   -0.2483 H   0  0  0  0  0  0  0  0  0  0  0  0
   -0.9317    2.4124   -0.5760 H   0  0  0  0  0  0  0  0  0  0  0  0
   -0.5587    0.6691   -2.3474 H   0  0  0  0  0  0  0  0  0  0  0  0
   -0.7641   -1.0740   -1.9628 H   0  0  0  0  0  0  0  0  0  0  0  0
   -2.2199   -0.0095   -2.1126 H   0  0  0  0  0  0  0  0  0  0  0  0
   -0.6802   -0.8578    2.1052 H   0  0  0  0  0  0  0  0  0  0  0  0
  1  3  1  0
  1 25  1  0
  2  4  1  0
  2  5  1  0
  2  9  1  0
  2 10  1  0
  3  8  1  0
  3 17  1  0
  3 18  1  0
  4 11  1  0
  4 12  1  0
  4 13  1  0
  5 14  1  0
  5 15  1  0
  5 16  1  0
  6  8  1  0
  6 19  1  0
  6 20  1  0
  6 21  1  0
  7  8  1  0
  7 22  1  0
  7 23  1  0
  7 24  1  0
M  RAD  1   8   2
M  END
>  <reaction>  (17) 
rxn_41

>  <mol_properties>  (17) 
{"1": {"label": "*1", "atom_type": "Cs"}, "3": {"label": "*0", "atom_type": "Cs"}, "8": {"label": "*2", "atom_type": "H0"}, "15": {"label": "*4", "atom_type": "Cs"}, "16": {"label": "*3", "atom_type": "Cs"}}

>  <type>  (17) 
unop_13

>  <geom_source>  (17) 
AutoTST

$$$$
