
     RDKit          3D

 10  9  0  0  0  0  0  0  0  0999 V2000
    1.8334    0.0847   -0.1062 C   0  0  0  0  0  0  0  0  0  0  0  0
    0.5993   -0.4071   -0.0750 C   0  0  0  0  0  0  0  0  0  0  0  0
   -0.5993    0.4071    0.0750 C   0  0  0  0  0  0  0  0  0  0  0  0
   -1.8334   -0.0847    0.1062 C   0  0  0  0  0  0  0  0  0  0  0  0
    2.0179    1.1498   -0.0189 H   0  0  0  0  0  0  0  0  0  0  0  0
    2.6972   -0.5572   -0.2194 H   0  0  0  0  0  0  0  0  0  0  0  0
    0.4465   -1.4793   -0.1649 H   0  0  0  0  0  0  0  0  0  0  0  0
   -0.4465    1.4793    0.1649 H   0  0  0  0  0  0  0  0  0  0  0  0
   -2.0179   -1.1498    0.0189 H   0  0  0  0  0  0  0  0  0  0  0  0
   -2.6972    0.5572    0.2194 H   0  0  0  0  0  0  0  0  0  0  0  0
  1  2  2  3
  1  5  1  0
  1  6  1  0
  2  3  1  0
  2  7  1  0
  3  4  2  3
  3  8  1  0
  4  9  1  0
  4 10  1  0
M  END
>  <reaction>  (1) 
rxn_1648

>  <mol_properties>  (1) 
{"2": {"label": "donator", "atom_type": "Cd"}, "7": {"label": "d_hydrogen", "atom_type": "H0"}}

>  <type>  (1) 
r1h

$$$$

     RDKit          3D

  7  6  0  0  0  0  0  0  0  0999 V2000
   -0.6201    0.0189   -0.0017 C   0  0  0  0  0  0  0  0  0  0  0  0
    0.8589   -0.0553    0.0500 C   0  0  0  0  0  3  0  0  0  0  0  0
   -1.0738   -0.9730   -0.0559 H   0  0  0  0  0  0  0  0  0  0  0  0
   -0.9680    0.5706   -0.8872 H   0  0  0  0  0  0  0  0  0  0  0  0
   -1.0303    0.5369    0.8678 H   0  0  0  0  0  0  0  0  0  0  0  0
    1.3939   -0.8386   -0.4695 H   0  0  0  0  0  0  0  0  0  0  0  0
    1.4394    0.7404    0.4965 H   0  0  0  0  0  0  0  0  0  0  0  0
  1  2  1  0
  1  3  1  0
  1  4  1  0
  1  5  1  0
  2  6  1  0
  2  7  1  0
M  RAD  1   2   2
M  END
>  <reaction>  (2) 
rxn_1648

>  <mol_properties>  (2) 
{"1": {"label": "acceptor", "atom_type": "Cs"}}

>  <type>  (2) 
r2

$$$$

     RDKit          3D

  8  7  0  0  0  0  0  0  0  0999 V2000
    0.7610    0.0250    0.0051 C   0  0  0  0  0  0  0  0  0  0  0  0
   -0.7610   -0.0250   -0.0051 C   0  0  0  0  0  0  0  0  0  0  0  0
    1.1904   -0.9237   -0.3217 H   0  0  0  0  0  0  0  0  0  0  0  0
    1.1359    0.8041   -0.6609 H   0  0  0  0  0  0  0  0  0  0  0  0
    1.1435    0.2336    1.0058 H   0  0  0  0  0  0  0  0  0  0  0  0
   -1.1359   -0.8041    0.6609 H   0  0  0  0  0  0  0  0  0  0  0  0
   -1.1435   -0.2336   -1.0058 H   0  0  0  0  0  0  0  0  0  0  0  0
   -1.1904    0.9237    0.3217 H   0  0  0  0  0  0  0  0  0  0  0  0
  1  2  1  0
  1  3  1  0
  1  4  1  0
  1  5  1  0
  2  6  1  0
  2  7  1  0
  2  8  1  0
M  END
>  <reaction>  (3) 
rxn_1648

>  <mol_properties>  (3) 
{"0": {"label": "a_hydrogen", "atom_type": "H0"}, "2": {"label": "acceptor", "atom_type": "Cs"}}

>  <type>  (3) 
r2h

$$$$

     RDKit          3D

 17 15  0  0  0  0  0  0  0  0999 V2000
    0.0767   -1.4743   -1.5073 C   0  0  0  0  0  0  0  0  0  0  0  0
   -0.0398   -1.6542   -0.1953 C   0  0  0  0  0  0  0  0  0  0  0  0
   -0.3165   -0.6000    0.7562 C   0  0  0  0  0  3  0  0  0  0  0  0
   -0.4665   -0.6761    2.0653 C   0  0  0  0  0  0  0  0  0  0  0  0
   -0.0355   -0.4929   -1.9528 H   0  0  0  0  0  0  0  0  0  0  0  0
    0.2847   -2.3013   -2.1733 H   0  0  0  0  0  0  0  0  0  0  0  0
    0.0774   -2.6558    0.2188 H   0  0  0  0  0  0  0  0  0  0  0  0
   -0.4151    0.6694    0.2127 H   0  0  0  0  0  0  0  0  0  0  0  0
   -0.3940   -1.6251    2.5934 H   0  0  0  0  0  0  0  0  0  0  0  0
   -0.6695    0.2031    2.6664 H   0  0  0  0  0  0  0  0  0  0  0  0
    1.0151    2.2381   -0.5631 C   0  0  0  0  0  0  0  0  0  0  0  0
   -0.4146    1.8791   -0.2496 C   0  0  0  0  0  0  0  0  0  0  0  0
    1.0951    3.2551   -0.9579 H   0  0  0  0  0  0  0  0  0  0  0  0
    1.4395    1.5617   -1.3077 H   0  0  0  0  0  0  0  0  0  0  0  0
    1.6396    2.1801    0.3300 H   0  0  0  0  0  0  0  0  0  0  0  0
   -1.0752    1.8357   -1.1145 H   0  0  0  0  0  0  0  0  0  0  0  0
   -0.8630    2.4607    0.5547 H   0  0  0  0  0  0  0  0  0  0  0  0
  1  2  2  3
  1  5  1  0
  1  6  1  0
  2  3  1  0
  2  7  1  0
  3  4  2  3
  4  9  1  0
  4 10  1  0
  8 12  1  0
 11 12  1  0
 11 13  1  0
 11 14  1  0
 11 15  1  0
 12 16  1  0
 12 17  1  0
M  RAD  1   3   2
M  END
>  <reaction>  (4) 
rxn_1648

>  <mol_properties>  (4) 
{"1": {"label": "*4", "atom_type": "Cd"}, "2": {"label": "*3", "atom_type": "Cd"}, "7": {"label": "*2", "atom_type": "H0"}, "10": {"label": "*0", "atom_type": "Cs"}, "11": {"label": "*1", "atom_type": "Cs"}}

>  <type>  (4) 
ts

$$$$

     RDKit          3D

 17 15  0  0  0  0  0  0  0  0999 V2000
    0.2192   -1.7743   -1.4900 C   0  0  0  0  0  0  0  0  0  0  0  0
    0.2192   -1.7743   -0.1611 C   0  0  0  0  0  0  0  0  0  0  0  0
    0.2192   -0.5670    0.6542 C   0  0  0  0  0  0  0  0  0  0  0  0
    0.2192   -0.5670    1.9830 C   0  0  0  0  0  0  0  0  0  0  0  0
    0.2192   -0.8477   -2.0535 H   0  0  0  0  0  0  0  0  0  0  0  0
    0.2192   -2.6959   -2.0572 H   0  0  0  0  0  0  0  0  0  0  0  0
    0.2192   -2.7193    0.3755 H   0  0  0  0  0  0  0  0  0  0  0  0
    0.2192    0.5669    0.0102 H   0  0  0  0  0  0  0  0  0  0  0  0
    0.2192   -1.4936    2.5465 H   0  0  0  0  0  0  0  0  0  0  0  0
    0.2192    0.3545    2.5502 H   0  0  0  0  0  0  0  0  0  0  0  0
   -1.0098    2.5365   -0.2923 C   0  0  0  0  0  0  0  0  0  0  0  0
    0.2192    1.7058   -0.6365 C   0  0  0  0  0  3  0  0  0  0  0  0
   -0.7583    3.5941   -0.1952 H   0  0  0  0  0  0  0  0  0  0  0  0
   -1.4536    2.2145    0.6514 H   0  0  0  0  0  0  0  0  0  0  0  0
   -1.7760    2.4486   -1.0646 H   0  0  0  0  0  0  0  0  0  0  0  0
    0.9854    1.7936    0.1358 H   0  0  0  0  0  0  0  0  0  0  0  0
    0.6629    2.0278   -1.5803 H   0  0  0  0  0  0  0  0  0  0  0  0
  1  2  2  3
  1  5  1  0
  1  6  1  0
  2  3  1  0
  2  7  1  0
  3  4  2  3
  3  8  1  0
  4  9  1  0
  4 10  1  0
 11 12  1  0
 11 13  1  0
 11 14  1  0
 11 15  1  0
 12 16  1  0
 12 17  1  0
M  RAD  1  12   2
M  END
>  <reaction>  (5) 
rxn_1648

>  <mol_properties>  (5) 
{"1": {"label": "*4", "atom_type": "Cd"}, "2": {"label": "*3", "atom_type": "Cd"}, "7": {"label": "*2", "atom_type": "H0"}, "10": {"label": "*0", "atom_type": "Cs"}, "11": {"label": "*1", "atom_type": "Cs"}}

>  <type>  (5) 
unop_1

>  <geom_source>  (5) 
Heuristics

$$$$

     RDKit          3D

 17 15  0  0  0  0  0  0  0  0999 V2000
    0.1317   -1.6003   -1.1793 C   0  0  0  0  0  0  0  0  0  0  0  0
    0.1317   -1.6003    0.1496 C   0  0  0  0  0  0  0  0  0  0  0  0
    0.1317   -0.3929    0.9649 C   0  0  0  0  0  0  0  0  0  0  0  0
    0.1317   -0.3929    2.2938 C   0  0  0  0  0  0  0  0  0  0  0  0
    0.1317   -0.6737   -1.7427 H   0  0  0  0  0  0  0  0  0  0  0  0
    0.1317   -2.5218   -1.7465 H   0  0  0  0  0  0  0  0  0  0  0  0
    0.1317   -2.5452    0.6862 H   0  0  0  0  0  0  0  0  0  0  0  0
    0.1317    0.7410    0.3210 H   0  0  0  0  0  0  0  0  0  0  0  0
    0.1317   -1.3195    2.8572 H   0  0  0  0  0  0  0  0  0  0  0  0
    0.1317    0.5286    2.8610 H   0  0  0  0  0  0  0  0  0  0  0  0
   -0.5778    1.7532   -1.6672 C   0  0  0  0  0  0  0  0  0  0  0  0
    0.1317    1.8799   -0.3258 C   0  0  0  0  0  3  0  0  0  0  0  0
   -0.8598    2.7318   -2.0598 H   0  0  0  0  0  0  0  0  0  0  0  0
   -1.4883    1.1579   -1.5788 H   0  0  0  0  0  0  0  0  0  0  0  0
    0.0613    1.2712   -2.4092 H   0  0  0  0  0  0  0  0  0  0  0  0
   -0.5074    2.3619    0.4161 H   0  0  0  0  0  0  0  0  0  0  0  0
    1.0422    2.4752   -0.4142 H   0  0  0  0  0  0  0  0  0  0  0  0
  1  2  2  3
  1  5  1  0
  1  6  1  0
  2  3  1  0
  2  7  1  0
  3  4  2  3
  3  8  1  0
  4  9  1  0
  4 10  1  0
 11 12  1  0
 11 13  1  0
 11 14  1  0
 11 15  1  0
 12 16  1  0
 12 17  1  0
M  RAD  1  12   2
M  END
>  <reaction>  (6) 
rxn_1648

>  <mol_properties>  (6) 
{"1": {"label": "*4", "atom_type": "Cd"}, "2": {"label": "*3", "atom_type": "Cd"}, "7": {"label": "*2", "atom_type": "H0"}, "10": {"label": "*0", "atom_type": "Cs"}, "11": {"label": "*1", "atom_type": "Cs"}}

>  <type>  (6) 
unop_2

>  <geom_source>  (6) 
Heuristics

$$$$

     RDKit          3D

 17 15  0  0  0  0  0  0  0  0999 V2000
    0.1234   -1.8199   -1.5677 C   0  0  0  0  0  0  0  0  0  0  0  0
    0.1234   -1.8199   -0.2388 C   0  0  0  0  0  0  0  0  0  0  0  0
    0.1234   -0.6125    0.5765 C   0  0  0  0  0  0  0  0  0  0  0  0
    0.1234   -0.6125    1.9054 C   0  0  0  0  0  0  0  0  0  0  0  0
    0.1234   -0.8933   -2.1311 H   0  0  0  0  0  0  0  0  0  0  0  0
    0.1234   -2.7414   -2.1349 H   0  0  0  0  0  0  0  0  0  0  0  0
    0.1234   -2.7648    0.2978 H   0  0  0  0  0  0  0  0  0  0  0  0
    0.1234    0.5214   -0.0675 H   0  0  0  0  0  0  0  0  0  0  0  0
    0.1234   -1.5391    2.4688 H   0  0  0  0  0  0  0  0  0  0  0  0
    0.1234    0.3090    2.4726 H   0  0  0  0  0  0  0  0  0  0  0  0
   -0.5861    2.7474    0.0817 C   0  0  0  0  0  0  0  0  0  0  0  0
    0.1234    1.6603   -0.7142 C   0  0  0  0  0  3  0  0  0  0  0  0
   -0.1836    3.7349   -0.1509 H   0  0  0  0  0  0  0  0  0  0  0  0
   -0.4733    2.5893    1.1557 H   0  0  0  0  0  0  0  0  0  0  0  0
   -1.6549    2.7660   -0.1390 H   0  0  0  0  0  0  0  0  0  0  0  0
    1.1921    1.6418   -0.4935 H   0  0  0  0  0  0  0  0  0  0  0  0
    0.0105    1.8184   -1.7882 H   0  0  0  0  0  0  0  0  0  0  0  0
  1  2  2  3
  1  5  1  0
  1  6  1  0
  2  3  1  0
  2  7  1  0
  3  4  2  3
  3  8  1  0
  4  9  1  0
  4 10  1  0
 11 12  1  0
 11 13  1  0
 11 14  1  0
 11 15  1  0
 12 16  1  0
 12 17  1  0
M  RAD  1  12   2
M  END
>  <reaction>  (7) 
rxn_1648

>  <mol_properties>  (7) 
{"1": {"label": "*4", "atom_type": "Cd"}, "2": {"label": "*3", "atom_type": "Cd"}, "7": {"label": "*2", "atom_type": "H0"}, "10": {"label": "*0", "atom_type": "Cs"}, "11": {"label": "*1", "atom_type": "Cs"}}

>  <type>  (7) 
unop_3

>  <geom_source>  (7) 
Heuristics

$$$$

     RDKit          3D

 17 15  0  0  0  0  0  0  0  0999 V2000
   -0.2260   -1.6474   -1.2646 C   0  0  0  0  0  0  0  0  0  0  0  0
   -0.2260   -1.6474    0.0643 C   0  0  0  0  0  0  0  0  0  0  0  0
   -0.2260   -0.4401    0.8796 C   0  0  0  0  0  0  0  0  0  0  0  0
   -0.2260   -0.4401    2.2084 C   0  0  0  0  0  0  0  0  0  0  0  0
   -0.2260   -0.7208   -1.8281 H   0  0  0  0  0  0  0  0  0  0  0  0
   -0.2260   -2.5690   -1.8318 H   0  0  0  0  0  0  0  0  0  0  0  0
   -0.2260   -2.5924    0.6009 H   0  0  0  0  0  0  0  0  0  0  0  0
   -0.2260    0.6938    0.2356 H   0  0  0  0  0  0  0  0  0  0  0  0
   -0.2260   -1.3667    2.7719 H   0  0  0  0  0  0  0  0  0  0  0  0
   -0.2260    0.4815    2.7756 H   0  0  0  0  0  0  0  0  0  0  0  0
    1.0029    1.9626   -1.3009 C   0  0  0  0  0  0  0  0  0  0  0  0
   -0.2260    1.8327   -0.4111 C   0  0  0  0  0  3  0  0  0  0  0  0
    1.3179    3.0037   -1.3914 H   0  0  0  0  0  0  0  0  0  0  0  0
    0.8046    1.5888   -2.3069 H   0  0  0  0  0  0  0  0  0  0  0  0
    1.8448    1.3966   -0.8982 H   0  0  0  0  0  0  0  0  0  0  0  0
   -1.0679    2.3987   -0.8138 H   0  0  0  0  0  0  0  0  0  0  0  0
   -0.0277    2.2065    0.5949 H   0  0  0  0  0  0  0  0  0  0  0  0
  1  2  2  3
  1  5  1  0
  1  6  1  0
  2  3  1  0
  2  7  1  0
  3  4  2  3
  3  8  1  0
  4  9  1  0
  4 10  1  0
 11 12  1  0
 11 13  1  0
 11 14  1  0
 11 15  1  0
 12 16  1  0
 12 17  1  0
M  RAD  1  12   2
M  END
>  <reaction>  (8) 
rxn_1648

>  <mol_properties>  (8) 
{"1": {"label": "*4", "atom_type": "Cd"}, "2": {"label": "*3", "atom_type": "Cd"}, "7": {"label": "*2", "atom_type": "H0"}, "10": {"label": "*0", "atom_type": "Cs"}, "11": {"label": "*1", "atom_type": "Cs"}}

>  <type>  (8) 
unop_4

>  <geom_source>  (8) 
Heuristics

$$$$

     RDKit          3D

 17 15  0  0  0  0  0  0  0  0999 V2000
   -0.0000   -1.8364   -1.5939 C   0  0  0  0  0  0  0  0  0  0  0  0
   -0.0000   -1.8364   -0.2650 C   0  0  0  0  0  0  0  0  0  0  0  0
   -0.0000   -0.6290    0.5503 C   0  0  0  0  0  0  0  0  0  0  0  0
   -0.0000   -0.6290    1.8792 C   0  0  0  0  0  0  0  0  0  0  0  0
   -0.0000   -0.9098   -2.1573 H   0  0  0  0  0  0  0  0  0  0  0  0
    0.0000   -2.7579   -2.1611 H   0  0  0  0  0  0  0  0  0  0  0  0
   -0.0000   -2.7813    0.2716 H   0  0  0  0  0  0  0  0  0  0  0  0
   -0.0000    0.5049   -0.0936 H   0  0  0  0  0  0  0  0  0  0  0  0
    0.0000   -1.5556    2.4426 H   0  0  0  0  0  0  0  0  0  0  0  0
    0.0000    0.2925    2.4464 H   0  0  0  0  0  0  0  0  0  0  0  0
   -0.0000    2.8248    0.2209 C   0  0  0  0  0  0  0  0  0  0  0  0
   -0.0000    1.6438   -0.7404 C   0  0  0  0  0  3  0  0  0  0  0  0
    0.0000    3.7739   -0.3181 H   0  0  0  0  0  0  0  0  0  0  0  0
    0.8808    2.8108    0.8652 H   0  0  0  0  0  0  0  0  0  0  0  0
   -0.8808    2.8108    0.8652 H   0  0  0  0  0  0  0  0  0  0  0  0
    0.8808    1.6578   -1.3847 H   0  0  0  0  0  0  0  0  0  0  0  0
   -0.8808    1.6578   -1.3847 H   0  0  0  0  0  0  0  0  0  0  0  0
  1  2  2  3
  1  5  1  0
  1  6  1  0
  2  3  1  0
  2  7  1  0
  3  4  2  3
  3  8  1  0
  4  9  1  0
  4 10  1  0
 11 12  1  0
 11 13  1  0
 11 14  1  0
 11 15  1  0
 12 16  1  0
 12 17  1  0
M  RAD  1  12   2
M  END
>  <reaction>  (9) 
rxn_1648

>  <mol_properties>  (9) 
{"1": {"label": "*4", "atom_type": "Cd"}, "2": {"label": "*3", "atom_type": "Cd"}, "7": {"label": "*2", "atom_type": "H0"}, "10": {"label": "*0", "atom_type": "Cs"}, "11": {"label": "*1", "atom_type": "Cs"}}

>  <type>  (9) 
unop_5

>  <geom_source>  (9) 
Heuristics

$$$$

     RDKit          3D

 17 15  0  0  0  0  0  0  0  0999 V2000
   -0.2576   -1.7113   -1.3788 C   0  0  0  0  0  0  0  0  0  0  0  0
   -0.2576   -1.7113   -0.0499 C   0  0  0  0  0  0  0  0  0  0  0  0
   -0.2576   -0.5039    0.7653 C   0  0  0  0  0  0  0  0  0  0  0  0
   -0.2576   -0.5039    2.0942 C   0  0  0  0  0  0  0  0  0  0  0  0
   -0.2576   -0.7847   -1.9423 H   0  0  0  0  0  0  0  0  0  0  0  0
   -0.2576   -2.6328   -1.9460 H   0  0  0  0  0  0  0  0  0  0  0  0
   -0.2576   -2.6562    0.4867 H   0  0  0  0  0  0  0  0  0  0  0  0
   -0.2576    0.6300    0.1214 H   0  0  0  0  0  0  0  0  0  0  0  0
   -0.2576   -1.4305    2.6577 H   0  0  0  0  0  0  0  0  0  0  0  0
   -0.2576    0.4176    2.6614 H   0  0  0  0  0  0  0  0  0  0  0  0
    1.1615    2.2492   -0.7981 C   0  0  0  0  0  0  0  0  0  0  0  0
   -0.2576    1.7689   -0.5254 C   0  0  0  0  0  3  0  0  0  0  0  0
    1.2450    3.3299   -0.6705 H   0  0  0  0  0  0  0  0  0  0  0  0
    1.4706    2.0120   -1.8176 H   0  0  0  0  0  0  0  0  0  0  0  0
    1.8755    1.7801   -0.1188 H   0  0  0  0  0  0  0  0  0  0  0  0
   -0.9717    2.2379   -1.2046 H   0  0  0  0  0  0  0  0  0  0  0  0
   -0.5667    2.0061    0.4942 H   0  0  0  0  0  0  0  0  0  0  0  0
  1  2  2  3
  1  5  1  0
  1  6  1  0
  2  3  1  0
  2  7  1  0
  3  4  2  3
  3  8  1  0
  4  9  1  0
  4 10  1  0
 11 12  1  0
 11 13  1  0
 11 14  1  0
 11 15  1  0
 12 16  1  0
 12 17  1  0
M  RAD  1  12   2
M  END
>  <reaction>  (10) 
rxn_1648

>  <mol_properties>  (10) 
{"1": {"label": "*4", "atom_type": "Cd"}, "2": {"label": "*3", "atom_type": "Cd"}, "7": {"label": "*2", "atom_type": "H0"}, "10": {"label": "*0", "atom_type": "Cs"}, "11": {"label": "*1", "atom_type": "Cs"}}

>  <type>  (10) 
unop_6

>  <geom_source>  (10) 
Heuristics

$$$$

     RDKit          3D

 17 15  0  0  0  0  0  0  0  0999 V2000
   -0.2192   -1.7743   -1.4900 C   0  0  0  0  0  0  0  0  0  0  0  0
   -0.2192   -1.7743   -0.1611 C   0  0  0  0  0  0  0  0  0  0  0  0
   -0.2192   -0.5670    0.6542 C   0  0  0  0  0  0  0  0  0  0  0  0
   -0.2192   -0.5670    1.9830 C   0  0  0  0  0  0  0  0  0  0  0  0
   -0.2192   -0.8477   -2.0535 H   0  0  0  0  0  0  0  0  0  0  0  0
   -0.2192   -2.6959   -2.0572 H   0  0  0  0  0  0  0  0  0  0  0  0
   -0.2192   -2.7193    0.3755 H   0  0  0  0  0  0  0  0  0  0  0  0
   -0.2192    0.5669    0.0102 H   0  0  0  0  0  0  0  0  0  0  0  0
   -0.2192   -1.4936    2.5465 H   0  0  0  0  0  0  0  0  0  0  0  0
   -0.2192    0.3545    2.5502 H   0  0  0  0  0  0  0  0  0  0  0  0
    1.0098    2.5365   -0.2923 C   0  0  0  0  0  0  0  0  0  0  0  0
   -0.2192    1.7058   -0.6365 C   0  0  0  0  0  3  0  0  0  0  0  0
    0.7583    3.5941   -0.1952 H   0  0  0  0  0  0  0  0  0  0  0  0
    1.7760    2.4486   -1.0646 H   0  0  0  0  0  0  0  0  0  0  0  0
    1.4536    2.2145    0.6514 H   0  0  0  0  0  0  0  0  0  0  0  0
   -0.6629    2.0278   -1.5803 H   0  0  0  0  0  0  0  0  0  0  0  0
   -0.9854    1.7936    0.1358 H   0  0  0  0  0  0  0  0  0  0  0  0
  1  2  2  3
  1  5  1  0
  1  6  1  0
  2  3  1  0
  2  7  1  0
  3  4  2  3
  3  8  1  0
  4  9  1  0
  4 10  1  0
 11 12  1  0
 11 13  1  0
 11 14  1  0
 11 15  1  0
 12 16  1  0
 12 17  1  0
M  RAD  1  12   2
M  END
>  <reaction>  (11) 
rxn_1648

>  <mol_properties>  (11) 
{"1": {"label": "*4", "atom_type": "Cd"}, "2": {"label": "*3", "atom_type": "Cd"}, "7": {"label": "*2", "atom_type": "H0"}, "10": {"label": "*0", "atom_type": "Cs"}, "11": {"label": "*1", "atom_type": "Cs"}}

>  <type>  (11) 
unop_7

>  <geom_source>  (11) 
Heuristics

$$$$

     RDKit          3D

 17 15  0  0  0  0  0  0  0  0999 V2000
    0.2576   -1.7113   -1.3788 C   0  0  0  0  0  0  0  0  0  0  0  0
    0.2576   -1.7113   -0.0499 C   0  0  0  0  0  0  0  0  0  0  0  0
    0.2576   -0.5039    0.7653 C   0  0  0  0  0  0  0  0  0  0  0  0
    0.2576   -0.5039    2.0942 C   0  0  0  0  0  0  0  0  0  0  0  0
    0.2576   -0.7847   -1.9423 H   0  0  0  0  0  0  0  0  0  0  0  0
    0.2576   -2.6328   -1.9460 H   0  0  0  0  0  0  0  0  0  0  0  0
    0.2576   -2.6562    0.4867 H   0  0  0  0  0  0  0  0  0  0  0  0
    0.2576    0.6300    0.1214 H   0  0  0  0  0  0  0  0  0  0  0  0
    0.2576   -1.4305    2.6577 H   0  0  0  0  0  0  0  0  0  0  0  0
    0.2576    0.4176    2.6614 H   0  0  0  0  0  0  0  0  0  0  0  0
   -1.1615    2.2492   -0.7981 C   0  0  0  0  0  0  0  0  0  0  0  0
    0.2576    1.7689   -0.5254 C   0  0  0  0  0  3  0  0  0  0  0  0
   -1.2450    3.3299   -0.6705 H   0  0  0  0  0  0  0  0  0  0  0  0
   -1.8755    1.7802   -0.1188 H   0  0  0  0  0  0  0  0  0  0  0  0
   -1.4706    2.0120   -1.8176 H   0  0  0  0  0  0  0  0  0  0  0  0
    0.5667    2.0061    0.4942 H   0  0  0  0  0  0  0  0  0  0  0  0
    0.9717    2.2379   -1.2046 H   0  0  0  0  0  0  0  0  0  0  0  0
  1  2  2  3
  1  5  1  0
  1  6  1  0
  2  3  1  0
  2  7  1  0
  3  4  2  3
  3  8  1  0
  4  9  1  0
  4 10  1  0
 11 12  1  0
 11 13  1  0
 11 14  1  0
 11 15  1  0
 12 16  1  0
 12 17  1  0
M  RAD  1  12   2
M  END
>  <reaction>  (12) 
rxn_1648

>  <mol_properties>  (12) 
{"1": {"label": "*4", "atom_type": "Cd"}, "2": {"label": "*3", "atom_type": "Cd"}, "7": {"label": "*2", "atom_type": "H0"}, "10": {"label": "*0", "atom_type": "Cs"}, "11": {"label": "*1", "atom_type": "Cs"}}

>  <type>  (12) 
unop_8

>  <geom_source>  (12) 
Heuristics

$$$$

     RDKit          3D

 17 15  0  0  0  0  0  0  0  0999 V2000
   -0.1317   -1.6003   -1.1793 C   0  0  0  0  0  0  0  0  0  0  0  0
   -0.1317   -1.6003    0.1496 C   0  0  0  0  0  0  0  0  0  0  0  0
   -0.1317   -0.3929    0.9649 C   0  0  0  0  0  0  0  0  0  0  0  0
   -0.1317   -0.3929    2.2938 C   0  0  0  0  0  0  0  0  0  0  0  0
   -0.1317   -0.6737   -1.7427 H   0  0  0  0  0  0  0  0  0  0  0  0
   -0.1317   -2.5218   -1.7465 H   0  0  0  0  0  0  0  0  0  0  0  0
   -0.1317   -2.5452    0.6862 H   0  0  0  0  0  0  0  0  0  0  0  0
   -0.1317    0.7410    0.3210 H   0  0  0  0  0  0  0  0  0  0  0  0
   -0.1317   -1.3195    2.8572 H   0  0  0  0  0  0  0  0  0  0  0  0
   -0.1317    0.5286    2.8610 H   0  0  0  0  0  0  0  0  0  0  0  0
    0.5778    1.7532   -1.6672 C   0  0  0  0  0  0  0  0  0  0  0  0
   -0.1317    1.8799   -0.3258 C   0  0  0  0  0  3  0  0  0  0  0  0
    0.8598    2.7318   -2.0598 H   0  0  0  0  0  0  0  0  0  0  0  0
   -0.0613    1.2712   -2.4092 H   0  0  0  0  0  0  0  0  0  0  0  0
    1.4883    1.1579   -1.5788 H   0  0  0  0  0  0  0  0  0  0  0  0
   -1.0422    2.4752   -0.4142 H   0  0  0  0  0  0  0  0  0  0  0  0
    0.5074    2.3619    0.4161 H   0  0  0  0  0  0  0  0  0  0  0  0
  1  2  2  3
  1  5  1  0
  1  6  1  0
  2  3  1  0
  2  7  1  0
  3  4  2  3
  3  8  1  0
  4  9  1  0
  4 10  1  0
 11 12  1  0
 11 13  1  0
 11 14  1  0
 11 15  1  0
 12 16  1  0
 12 17  1  0
M  RAD  1  12   2
M  END
>  <reaction>  (13) 
rxn_1648

>  <mol_properties>  (13) 
{"1": {"label": "*4", "atom_type": "Cd"}, "2": {"label": "*3", "atom_type": "Cd"}, "7": {"label": "*2", "atom_type": "H0"}, "10": {"label": "*0", "atom_type": "Cs"}, "11": {"label": "*1", "atom_type": "Cs"}}

>  <type>  (13) 
unop_9

>  <geom_source>  (13) 
Heuristics

$$$$

     RDKit          3D

 17 15  0  0  0  0  0  0  0  0999 V2000
    0.2260   -1.6474   -1.2646 C   0  0  0  0  0  0  0  0  0  0  0  0
    0.2260   -1.6474    0.0643 C   0  0  0  0  0  0  0  0  0  0  0  0
    0.2260   -0.4401    0.8796 C   0  0  0  0  0  0  0  0  0  0  0  0
    0.2260   -0.4401    2.2084 C   0  0  0  0  0  0  0  0  0  0  0  0
    0.2260   -0.7208   -1.8281 H   0  0  0  0  0  0  0  0  0  0  0  0
    0.2260   -2.5690   -1.8318 H   0  0  0  0  0  0  0  0  0  0  0  0
    0.2260   -2.5924    0.6009 H   0  0  0  0  0  0  0  0  0  0  0  0
    0.2260    0.6938    0.2356 H   0  0  0  0  0  0  0  0  0  0  0  0
    0.2260   -1.3667    2.7719 H   0  0  0  0  0  0  0  0  0  0  0  0
    0.2260    0.4815    2.7756 H   0  0  0  0  0  0  0  0  0  0  0  0
   -1.0029    1.9626   -1.3009 C   0  0  0  0  0  0  0  0  0  0  0  0
    0.2260    1.8327   -0.4111 C   0  0  0  0  0  3  0  0  0  0  0  0
   -1.3179    3.0037   -1.3914 H   0  0  0  0  0  0  0  0  0  0  0  0
   -1.8448    1.3966   -0.8982 H   0  0  0  0  0  0  0  0  0  0  0  0
   -0.8046    1.5888   -2.3069 H   0  0  0  0  0  0  0  0  0  0  0  0
    0.0277    2.2065    0.5949 H   0  0  0  0  0  0  0  0  0  0  0  0
    1.0679    2.3987   -0.8138 H   0  0  0  0  0  0  0  0  0  0  0  0
  1  2  2  3
  1  5  1  0
  1  6  1  0
  2  3  1  0
  2  7  1  0
  3  4  2  3
  3  8  1  0
  4  9  1  0
  4 10  1  0
 11 12  1  0
 11 13  1  0
 11 14  1  0
 11 15  1  0
 12 16  1  0
 12 17  1  0
M  RAD  1  12   2
M  END
>  <reaction>  (14) 
rxn_1648

>  <mol_properties>  (14) 
{"1": {"label": "*4", "atom_type": "Cd"}, "2": {"label": "*3", "atom_type": "Cd"}, "7": {"label": "*2", "atom_type": "H0"}, "10": {"label": "*0", "atom_type": "Cs"}, "11": {"label": "*1", "atom_type": "Cs"}}

>  <type>  (14) 
unop_10

>  <geom_source>  (14) 
Heuristics

$$$$

     RDKit          3D

 17 15  0  0  0  0  0  0  0  0999 V2000
   -0.1234   -1.8199   -1.5677 C   0  0  0  0  0  0  0  0  0  0  0  0
   -0.1234   -1.8199   -0.2388 C   0  0  0  0  0  0  0  0  0  0  0  0
   -0.1234   -0.6125    0.5765 C   0  0  0  0  0  0  0  0  0  0  0  0
   -0.1234   -0.6125    1.9054 C   0  0  0  0  0  0  0  0  0  0  0  0
   -0.1234   -0.8933   -2.1311 H   0  0  0  0  0  0  0  0  0  0  0  0
   -0.1234   -2.7414   -2.1349 H   0  0  0  0  0  0  0  0  0  0  0  0
   -0.1234   -2.7648    0.2978 H   0  0  0  0  0  0  0  0  0  0  0  0
   -0.1234    0.5214   -0.0675 H   0  0  0  0  0  0  0  0  0  0  0  0
   -0.1234   -1.5391    2.4688 H   0  0  0  0  0  0  0  0  0  0  0  0
   -0.1234    0.3090    2.4726 H   0  0  0  0  0  0  0  0  0  0  0  0
    0.5861    2.7474    0.0817 C   0  0  0  0  0  0  0  0  0  0  0  0
   -0.1234    1.6603   -0.7142 C   0  0  0  0  0  3  0  0  0  0  0  0
    0.1836    3.7349   -0.1509 H   0  0  0  0  0  0  0  0  0  0  0  0
    1.6549    2.7660   -0.1390 H   0  0  0  0  0  0  0  0  0  0  0  0
    0.4733    2.5893    1.1557 H   0  0  0  0  0  0  0  0  0  0  0  0
   -0.0105    1.8184   -1.7882 H   0  0  0  0  0  0  0  0  0  0  0  0
   -1.1921    1.6418   -0.4935 H   0  0  0  0  0  0  0  0  0  0  0  0
  1  2  2  3
  1  5  1  0
  1  6  1  0
  2  3  1  0
  2  7  1  0
  3  4  2  3
  3  8  1  0
  4  9  1  0
  4 10  1  0
 11 12  1  0
 11 13  1  0
 11 14  1  0
 11 15  1  0
 12 16  1  0
 12 17  1  0
M  RAD  1  12   2
M  END
>  <reaction>  (15) 
rxn_1648

>  <mol_properties>  (15) 
{"1": {"label": "*4", "atom_type": "Cd"}, "2": {"label": "*3", "atom_type": "Cd"}, "7": {"label": "*2", "atom_type": "H0"}, "10": {"label": "*0", "atom_type": "Cs"}, "11": {"label": "*1", "atom_type": "Cs"}}

>  <type>  (15) 
unop_11

>  <geom_source>  (15) 
Heuristics

$$$$

     RDKit          3D

 17 15  0  0  0  0  0  0  0  0999 V2000
   -0.0000   -1.5830   -1.1476 C   0  0  0  0  0  0  0  0  0  0  0  0
   -0.0000   -1.5830    0.1813 C   0  0  0  0  0  0  0  0  0  0  0  0
   -0.0000   -0.3756    0.9966 C   0  0  0  0  0  0  0  0  0  0  0  0
   -0.0000   -0.3756    2.3254 C   0  0  0  0  0  0  0  0  0  0  0  0
   -0.0000   -0.6563   -1.7111 H   0  0  0  0  0  0  0  0  0  0  0  0
    0.0000   -2.5045   -1.7148 H   0  0  0  0  0  0  0  0  0  0  0  0
   -0.0000   -2.5279    0.7179 H   0  0  0  0  0  0  0  0  0  0  0  0
   -0.0000    0.7583    0.3526 H   0  0  0  0  0  0  0  0  0  0  0  0
    0.0000   -1.3022    2.8889 H   0  0  0  0  0  0  0  0  0  0  0  0
    0.0000    0.5459    2.8926 H   0  0  0  0  0  0  0  0  0  0  0  0
   -0.0000    1.6767   -1.8009 C   0  0  0  0  0  0  0  0  0  0  0  0
   -0.0000    1.8972   -0.2941 C   0  0  0  0  0  3  0  0  0  0  0  0
   -0.0000    2.6258   -2.3398 H   0  0  0  0  0  0  0  0  0  0  0  0
   -0.8808    1.1162   -2.1189 H   0  0  0  0  0  0  0  0  0  0  0  0
    0.8808    1.1162   -2.1189 H   0  0  0  0  0  0  0  0  0  0  0  0
   -0.8808    2.4577    0.0239 H   0  0  0  0  0  0  0  0  0  0  0  0
    0.8808    2.4577    0.0239 H   0  0  0  0  0  0  0  0  0  0  0  0
  1  2  2  3
  1  5  1  0
  1  6  1  0
  2  3  1  0
  2  7  1  0
  3  4  2  3
  3  8  1  0
  4  9  1  0
  4 10  1  0
 11 12  1  0
 11 13  1  0
 11 14  1  0
 11 15  1  0
 12 16  1  0
 12 17  1  0
M  RAD  1  12   2
M  END
>  <reaction>  (16) 
rxn_1648

>  <mol_properties>  (16) 
{"1": {"label": "*4", "atom_type": "Cd"}, "2": {"label": "*3", "atom_type": "Cd"}, "7": {"label": "*2", "atom_type": "H0"}, "10": {"label": "*0", "atom_type": "Cs"}, "11": {"label": "*1", "atom_type": "Cs"}}

>  <type>  (16) 
unop_12

>  <geom_source>  (16) 
Heuristics

$$$$

     RDKit          3D

 17 15  0  0  0  0  0  0  0  0999 V2000
    1.1231   -0.4182   -0.3142 C   0  0  0  0  0  3  0  0  0  0  0  0
    2.4360   -0.2797    0.4351 C   0  0  0  0  0  0  0  0  0  0  0  0
   -1.9102   -0.2008   -0.1746 C   0  0  0  0  0  0  0  0  0  0  0  0
   -2.1261   -1.2688    0.5846 C   0  0  0  0  0  0  0  0  0  0  0  0
   -0.7888    1.9540   -0.4458 C   0  0  0  0  0  0  0  0  0  0  0  0
   -1.0253    0.8734    0.2892 C   0  0  0  0  0  0  0  0  0  0  0  0
    0.7182   -1.4434   -0.1795 H   0  0  0  0  0  0  0  0  0  0  0  0
    1.2847   -0.2291   -1.3964 H   0  0  0  0  0  0  0  0  0  0  0  0
    0.2137    0.4968    0.1755 H   0  0  0  0  0  0  0  0  0  0  0  0
    2.2704   -0.4664    1.5168 H   0  0  0  0  0  0  0  0  0  0  0  0
    2.8364    0.7469    0.3008 H   0  0  0  0  0  0  0  0  0  0  0  0
    3.1726   -1.0136    0.0456 H   0  0  0  0  0  0  0  0  0  0  0  0
   -2.3944   -0.1295   -1.1416 H   0  0  0  0  0  0  0  0  0  0  0  0
   -2.7802   -2.0575    0.2361 H   0  0  0  0  0  0  0  0  0  0  0  0
   -1.6564   -1.3685    1.5557 H   0  0  0  0  0  0  0  0  0  0  0  0
   -1.2440    2.0813   -1.4203 H   0  0  0  0  0  0  0  0  0  0  0  0
   -0.1298    2.7231   -0.0670 H   0  0  0  0  0  0  0  0  0  0  0  0
  1  2  1  0
  1  7  1  0
  1  8  1  0
  2 10  1  0
  2 11  1  0
  2 12  1  0
  3  4  2  3
  3  6  1  0
  3 13  1  0
  4 14  1  0
  4 15  1  0
  5  6  2  3
  5 16  1  0
  5 17  1  0
  6  9  1  0
M  RAD  1   1   2
M  END
>  <reaction>  (17) 
rxn_1648

>  <mol_properties>  (17) 
{"1": {"label": "*4", "atom_type": "Cd"}, "2": {"label": "*3", "atom_type": "Cd"}, "7": {"label": "*2", "atom_type": "H0"}, "10": {"label": "*0", "atom_type": "Cs"}, "11": {"label": "*1", "atom_type": "Cs"}}

>  <type>  (17) 
unop_13

>  <geom_source>  (17) 
AutoTST

$$$$
