
     RDKit          3D

  2  1  0  0  0  0  0  0  0  0999 V2000
    0.0000    0.0000    0.3721 H   0  0  0  0  0  0  0  0  0  0  0  0
    0.0000    0.0000   -0.3721 H   0  0  0  0  0  0  0  0  0  0  0  0
  1  2  1  0
M  END
>  <reaction>  (1) 
rxn_807

>  <mol_properties>  (1) 
{"0": {"label": "donator", "atom_type": "H0"}, "1": {"label": "d_hydrogen", "atom_type": "H0"}}

>  <type>  (1) 
r1h

$$$$

     RDKit          3D

  8  7  0  0  0  0  0  0  0  0999 V2000
   -1.0607    0.1793   -0.1423 C   0  0  0  0  0  0  0  0  0  0  0  0
    0.2796    0.0327    0.4820 C   0  0  0  0  0  3  0  0  0  0  0  0
    0.8817   -1.4663    1.0791 S   0  0  0  0  0  0  0  0  0  0  0  0
   -1.3043    1.2328   -0.2850 H   0  0  0  0  0  0  0  0  0  0  0  0
   -1.8444   -0.2641    0.4799 H   0  0  0  0  0  0  0  0  0  0  0  0
   -1.1164   -0.3100   -1.1237 H   0  0  0  0  0  0  0  0  0  0  0  0
    1.0449    0.7826    0.3391 H   0  0  0  0  0  0  0  0  0  0  0  0
   -0.2993   -2.0726    1.2718 H   0  0  0  0  0  0  0  0  0  0  0  0
  1  2  1  0
  1  4  1  0
  1  5  1  0
  1  6  1  0
  2  3  1  0
  2  7  1  0
  3  8  1  0
M  RAD  1   2   2
M  END
>  <reaction>  (2) 
rxn_807

>  <mol_properties>  (2) 
{"1": {"label": "acceptor", "atom_type": "Cs"}}

>  <type>  (2) 
r2

$$$$

     RDKit          3D

  9  8  0  0  0  0  0  0  0  0999 V2000
   -0.8818   -0.3578    0.1297 C   0  0  0  0  0  0  0  0  0  0  0  0
    0.6153   -0.3021   -0.1188 C   0  0  0  0  0  0  0  0  0  0  0  0
    1.5354   -1.7170    0.5545 S   0  0  0  0  0  0  0  0  0  0  0  0
   -1.1018   -0.3317    1.1984 H   0  0  0  0  0  0  0  0  0  0  0  0
   -1.3114   -1.2723   -0.2799 H   0  0  0  0  0  0  0  0  0  0  0  0
   -1.3767    0.4976   -0.3363 H   0  0  0  0  0  0  0  0  0  0  0  0
    1.0467    0.6194    0.2718 H   0  0  0  0  0  0  0  0  0  0  0  0
    0.8295   -0.3275   -1.1882 H   0  0  0  0  0  0  0  0  0  0  0  0
    1.2306   -1.5077    1.8423 H   0  0  0  0  0  0  0  0  0  0  0  0
  1  2  1  0
  1  4  1  0
  1  5  1  0
  1  6  1  0
  2  3  1  0
  2  7  1  0
  2  8  1  0
  3  9  1  0
M  END
>  <reaction>  (3) 
rxn_807

>  <mol_properties>  (3) 
{"0": {"label": "a_hydrogen", "atom_type": "H0"}, "2": {"label": "acceptor", "atom_type": "Cs"}}

>  <type>  (3) 
r2h

$$$$

     RDKit          3D

 10  8  0  0  0  0  0  0  0  0999 V2000
    0.4435    0.2719   -2.4529 H   0  0  0  0  0 15  0  0  0  0  0  0
    0.6244    0.1333   -1.4378 H   0  0  0  0  0  0  0  0  0  0  0  0
    0.8484    1.5154    0.2760 C   0  0  0  0  0  0  0  0  0  0  0  0
    0.8864    0.0907   -0.2201 C   0  0  0  0  0  0  0  0  0  0  0  0
   -0.2105   -1.0736    0.5637 S   0  0  0  0  0  0  0  0  0  0  0  0
    1.5418    2.1325   -0.2984 H   0  0  0  0  0  0  0  0  0  0  0  0
    1.1258    1.5695    1.3304 H   0  0  0  0  0  0  0  0  0  0  0  0
   -0.1513    1.9397    0.1661 H   0  0  0  0  0  0  0  0  0  0  0  0
    1.8841   -0.3471   -0.2004 H   0  0  0  0  0  0  0  0  0  0  0  0
   -1.3223   -0.3299    0.4774 H   0  0  0  0  0  0  0  0  0  0  0  0
  2  4  1  0
  3  4  1  0
  3  6  1  0
  3  7  1  0
  3  8  1  0
  4  5  1  0
  4  9  1  0
  5 10  1  0
M  END
>  <reaction>  (4) 
rxn_807

>  <mol_properties>  (4) 
{"0": {"label": "*1", "atom_type": "H0"}, "1": {"label": "*2", "atom_type": "H0"}, "3": {"label": "*3", "atom_type": "Cs"}, "4": {"label": "*4", "atom_type": "S2s"}}

>  <type>  (4) 
ts

$$$$

     RDKit          3D

 10  8  0  0  0  0  0  0  0  0999 V2000
    0.7539    0.1569   -2.5404 H   0  0  0  0  0 15  0  0  0  0  0  0
    0.7539    0.1569   -1.6474 H   0  0  0  0  0  0  0  0  0  0  0  0
    0.7539    1.5777    0.1979 C   0  0  0  0  0  0  0  0  0  0  0  0
    0.7539    0.1569   -0.3382 C   0  0  0  0  0  0  0  0  0  0  0  0
   -0.7198   -0.8079    0.1083 S   0  0  0  0  0  0  0  0  0  0  0  0
    1.6441    2.1124   -0.1418 H   0  0  0  0  0  0  0  0  0  0  0  0
    0.7549    1.5836    1.2893 H   0  0  0  0  0  0  0  0  0  0  0  0
   -0.1279    2.1224   -0.1405 H   0  0  0  0  0  0  0  0  0  0  0  0
    1.6431   -0.3861   -0.0186 H   0  0  0  0  0  0  0  0  0  0  0  0
   -0.5394   -0.7704    1.4354 H   0  0  0  0  0  0  0  0  0  0  0  0
  2  4  1  0
  3  4  1  0
  3  6  1  0
  3  7  1  0
  3  8  1  0
  4  5  1  0
  4  9  1  0
  5 10  1  0
M  END
>  <reaction>  (5) 
rxn_807

>  <mol_properties>  (5) 
{"0": {"label": "*1", "atom_type": "H0"}, "1": {"label": "*2", "atom_type": "H0"}, "3": {"label": "*3", "atom_type": "Cs"}, "4": {"label": "*4", "atom_type": "S2s"}}

>  <type>  (5) 
unop_1

>  <geom_source>  (5) 
Heuristics

$$$$

     RDKit          3D

 10  8  0  0  0  0  0  0  0  0999 V2000
    1.9398   -0.0636    0.5012 S   0  0  0  0  0  0  0  0  0  0  0  0
    0.1917    0.4383    0.4386 C   0  0  0  0  0  0  0  0  0  0  0  0
   -0.6888   -0.7415    0.0498 C   0  0  0  0  0  0  0  0  0  0  0  0
   -0.1107    0.8106    1.4400 H   0  0  0  0  0  0  0  0  0  0  0  0
    0.0779    1.2098   -0.2541 H   0  0  0  0  0  0  0  0  0  0  0  0
   -1.7527   -0.4238    0.0338 H   0  0  0  0  0  0  0  0  0  0  0  0
   -0.4121   -1.1125   -0.9599 H   0  0  0  0  0  0  0  0  0  0  0  0
   -0.5727   -1.5640    0.7871 H   0  0  0  0  0  0  0  0  0  0  0  0
    2.0143   -0.2702   -0.8899 H   0  0  0  0  0  0  0  0  0  0  0  0
   -0.6866    1.7168   -1.1467 H   0  0  0  0  0 15  0  0  0  0  0  0
  1  2  1  0
  1  9  1  0
  2  3  1  0
  2  4  1  0
  2  5  1  0
  3  6  1  0
  3  7  1  0
  3  8  1  0
M  END
>  <reaction>  (6) 
rxn_807

>  <mol_properties>  (6) 
{"0": {"label": "*1", "atom_type": "H0"}, "1": {"label": "*2", "atom_type": "H0"}, "3": {"label": "*3", "atom_type": "Cs"}, "4": {"label": "*4", "atom_type": "S2s"}}

>  <type>  (6) 
unop_2

>  <geom_source>  (6) 
AutoTST

$$$$

     RDKit          3D

 10  8  0  0  0  0  0  0  0  0999 V2000
    1.6000   -1.1383    0.4058 S   0  0  0  0  0  0  0  0  0  0  0  0
   -0.9552   -0.3025   -0.1774 C   0  0  0  0  0  0  0  0  0  0  0  0
    0.2774    0.0914    0.6208 C   0  0  0  0  0  0  0  0  0  0  0  0
   -0.7085   -0.3516   -1.2586 H   0  0  0  0  0  0  0  0  0  0  0  0
   -1.7490    0.4586   -0.0278 H   0  0  0  0  0  0  0  0  0  0  0  0
   -1.3331   -1.2903    0.1619 H   0  0  0  0  0  0  0  0  0  0  0  0
    0.0189    0.1664    1.6980 H   0  0  0  0  0  0  0  0  0  0  0  0
    1.8193   -0.7696   -0.9350 H   0  0  0  0  0  0  0  0  0  0  0  0
    0.5140    1.8897   -0.6394 H   0  0  0  0  0 15  0  0  0  0  0  0
    0.5162    1.2463    0.1517 H   0  0  0  0  0  0  0  0  0  0  0  0
  1  3  1  0
  1  8  1  0
  2  3  1  0
  2  4  1  0
  2  5  1  0
  2  6  1  0
  3  7  1  0
  3 10  1  0
M  END
>  <reaction>  (7) 
rxn_807

>  <mol_properties>  (7) 
{"0": {"label": "*1", "atom_type": "H0"}, "1": {"label": "*2", "atom_type": "H0"}, "3": {"label": "*3", "atom_type": "Cs"}, "4": {"label": "*4", "atom_type": "S2s"}}

>  <type>  (7) 
unop_3

>  <geom_source>  (7) 
gaussian_log

$$$$
