
     RDKit          3D

 15 14  0  0  0  0  0  0  0  0999 V2000
    2.1256    0.4849   -0.6284 C   0  0  0  0  0  0  0  0  0  0  0  0
    1.1128    0.2141    0.1794 C   0  0  0  0  0  0  0  0  0  0  0  0
   -0.3017   -0.0425   -0.2513 C   0  0  0  0  0  0  0  0  0  0  0  0
   -1.2427    1.0075    0.3423 C   0  0  0  0  0  0  0  0  0  0  0  0
   -0.7381   -1.4526    0.1504 C   0  0  0  0  0  0  0  0  0  0  0  0
    3.1243    0.6602   -0.2486 H   0  0  0  0  0  0  0  0  0  0  0  0
    1.9908    0.5411   -1.7036 H   0  0  0  0  0  0  0  0  0  0  0  0
    1.2888    0.1665    1.2533 H   0  0  0  0  0  0  0  0  0  0  0  0
   -0.3426    0.0343   -1.3424 H   0  0  0  0  0  0  0  0  0  0  0  0
   -0.9570    2.0133    0.0315 H   0  0  0  0  0  0  0  0  0  0  0  0
   -1.2189    0.9728    1.4350 H   0  0  0  0  0  0  0  0  0  0  0  0
   -2.2723    0.8287    0.0254 H   0  0  0  0  0  0  0  0  0  0  0  0
   -0.6964   -1.5744    1.2363 H   0  0  0  0  0  0  0  0  0  0  0  0
   -0.0911   -2.2079   -0.2978 H   0  0  0  0  0  0  0  0  0  0  0  0
   -1.7646   -1.6461   -0.1677 H   0  0  0  0  0  0  0  0  0  0  0  0
  1  2  2  3
  1  6  1  0
  1  7  1  0
  2  3  1  0
  2  8  1  0
  3  4  1  0
  3  5  1  0
  3  9  1  0
  4 10  1  0
  4 11  1  0
  4 12  1  0
  5 13  1  0
  5 14  1  0
  5 15  1  0
M  END
>  <reaction>  (1) 
rxn_1103

>  <mol_properties>  (1) 
{"2": {"label": "donator", "atom_type": "Cs"}, "8": {"label": "d_hydrogen", "atom_type": "H0"}}

>  <type>  (1) 
r1h

$$$$

     RDKit          3D

  5  4  0  0  0  0  0  0  0  0999 V2000
   -0.5642    0.0794    0.0348 C   0  0  0  0  0  3  0  0  0  0  0  0
    1.0624    0.5420    0.2853 S   0  0  0  0  0  0  0  0  0  0  0  0
   -1.3257    0.7631    0.3741 H   0  0  0  0  0  0  0  0  0  0  0  0
   -0.8236   -0.8519   -0.4401 H   0  0  0  0  0  0  0  0  0  0  0  0
    1.6511   -0.5325   -0.2540 H   0  0  0  0  0  0  0  0  0  0  0  0
  1  2  1  0
  1  3  1  0
  1  4  1  0
  2  5  1  0
M  RAD  1   1   2
M  END
>  <reaction>  (2) 
rxn_1103

>  <mol_properties>  (2) 
{"0": {"label": "acceptor", "atom_type": "Cs"}}

>  <type>  (2) 
r2

$$$$

     RDKit          3D

  6  5  0  0  0  0  0  0  0  0999 V2000
   -0.5072   -0.0291   -0.0097 C   0  0  0  0  0  0  0  0  0  0  0  0
    1.1321   -0.1527   -0.7687 S   0  0  0  0  0  0  0  0  0  0  0  0
   -0.6174   -0.7330    0.8127 H   0  0  0  0  0  0  0  0  0  0  0  0
   -0.5863    0.9827    0.3845 H   0  0  0  0  0  0  0  0  0  0  0  0
   -1.2962   -0.1800   -0.7434 H   0  0  0  0  0  0  0  0  0  0  0  0
    1.0312   -1.4237   -1.1764 H   0  0  0  0  0  0  0  0  0  0  0  0
  1  2  1  0
  1  3  1  0
  1  4  1  0
  1  5  1  0
  2  6  1  0
M  END
>  <reaction>  (3) 
rxn_1103

>  <mol_properties>  (3) 
{"0": {"label": "acceptor", "atom_type": "Cs"}, "5": {"label": "a_hydrogen", "atom_type": "H0"}}

>  <type>  (3) 
r2h

$$$$

     RDKit          3D

 20 18  0  0  0  0  0  0  0  0999 V2000
    0.5728    1.7838   -0.3090 C   0  0  0  0  0  3  0  0  0  0  0  0
   -0.7161    1.7107   -1.5043 S   0  0  0  0  0  0  0  0  0  0  0  0
    0.3606    2.5397    0.4415 H   0  0  0  0  0  0  0  0  0  0  0  0
    1.5821    1.8398   -0.7073 H   0  0  0  0  0  0  0  0  0  0  0  0
   -0.2329    0.6768   -2.2070 H   0  0  0  0  0  0  0  0  0  0  0  0
   -0.1785   -2.2336   -0.7790 C   0  0  0  0  0  0  0  0  0  0  0  0
    0.7345   -1.5552   -0.0840 C   0  0  0  0  0  0  0  0  0  0  0  0
    0.4837   -0.5908    0.9987 C   0  0  0  0  0  0  0  0  0  0  0  0
    1.5718   -0.5432    2.0529 C   0  0  0  0  0  0  0  0  0  0  0  0
   -0.9205   -0.5537    1.5572 C   0  0  0  0  0  0  0  0  0  0  0  0
    0.1138   -2.8971   -1.5829 H   0  0  0  0  0  0  0  0  0  0  0  0
   -1.2377   -2.1604   -0.5653 H   0  0  0  0  0  0  0  0  0  0  0  0
    1.7811   -1.6849   -0.3529 H   0  0  0  0  0  0  0  0  0  0  0  0
    0.5788    0.5379    0.3997 H   0  0  0  0  0  0  0  0  0  0  0  0
    2.5641   -0.4978    1.5990 H   0  0  0  0  0  0  0  0  0  0  0  0
    1.5386   -1.4317    2.6916 H   0  0  0  0  0  0  0  0  0  0  0  0
    1.4532    0.3313    2.6961 H   0  0  0  0  0  0  0  0  0  0  0  0
   -1.1839   -1.5076    2.0250 H   0  0  0  0  0  0  0  0  0  0  0  0
   -1.6549   -0.3442    0.7774 H   0  0  0  0  0  0  0  0  0  0  0  0
   -1.0089    0.2277    2.3141 H   0  0  0  0  0  0  0  0  0  0  0  0
  1  2  1  0
  1  3  1  0
  1  4  1  0
  2  5  1  0
  6  7  2  3
  6 11  1  0
  6 12  1  0
  7  8  1  0
  7 13  1  0
  8  9  1  0
  8 10  1  0
  8 14  1  0
  9 15  1  0
  9 16  1  0
  9 17  1  0
 10 18  1  0
 10 19  1  0
 10 20  1  0
M  RAD  1   1   2
M  END
>  <reaction>  (4) 
rxn_1103

>  <mol_properties>  (4) 
{"0": {"label": "*3", "atom_type": "Cs"}, "1": {"label": "*4", "atom_type": "S2s"}, "6": {"label": "*0", "atom_type": "Cd"}, "7": {"label": "*1", "atom_type": "Cs"}, "13": {"label": "*2", "atom_type": "H0"}}

>  <type>  (4) 
ts

$$$$

     RDKit          3D

 20 18  0  0  0  0  0  0  0  0999 V2000
    0.4073    1.2400   -0.8644 C   0  0  0  0  0  0  0  0  0  0  0  0
   -1.0530    2.2716   -0.5784 S   0  0  0  0  0  0  0  0  0  0  0  0
    1.0985    1.4559   -0.0514 H   0  0  0  0  0  0  0  0  0  0  0  0
    0.8898    1.4886   -1.8073 H   0  0  0  0  0  0  0  0  0  0  0  0
   -1.7521    1.8703   -1.6470 H   0  0  0  0  0  0  0  0  0  0  0  0
    0.4073   -2.0879   -1.5037 C   0  0  0  0  0  0  0  0  0  0  0  0
    0.4073   -2.0879   -0.1802 C   0  0  0  0  0  0  0  0  0  0  0  0
    0.4073   -0.8666    0.6918 C   0  0  0  0  0  3  0  0  0  0  0  0
    1.6666   -0.8261    1.5595 C   0  0  0  0  0  0  0  0  0  0  0  0
   -0.8520   -0.8261    1.5595 C   0  0  0  0  0  0  0  0  0  0  0  0
    0.4073   -3.0097   -2.0720 H   0  0  0  0  0  0  0  0  0  0  0  0
    0.4073   -1.1614   -2.0683 H   0  0  0  0  0  0  0  0  0  0  0  0
    0.4073   -3.0393    0.3503 H   0  0  0  0  0  0  0  0  0  0  0  0
    0.4073    0.1898   -0.0886 H   0  0  0  0  0  0  0  0  0  0  0  0
    2.5681   -0.8202    0.9453 H   0  0  0  0  0  0  0  0  0  0  0  0
    1.7112   -1.7000    2.2153 H   0  0  0  0  0  0  0  0  0  0  0  0
    1.6741    0.0651    2.1905 H   0  0  0  0  0  0  0  0  0  0  0  0
   -0.8966   -1.7000    2.2153 H   0  0  0  0  0  0  0  0  0  0  0  0
   -1.7536   -0.8202    0.9453 H   0  0  0  0  0  0  0  0  0  0  0  0
   -0.8596    0.0651    2.1905 H   0  0  0  0  0  0  0  0  0  0  0  0
  1  2  1  0
  1  3  1  0
  1  4  1  0
  1 14  1  0
  2  5  1  0
  6  7  2  3
  6 11  1  0
  6 12  1  0
  7  8  1  0
  7 13  1  0
  8  9  1  0
  8 10  1  0
  9 15  1  0
  9 16  1  0
  9 17  1  0
 10 18  1  0
 10 19  1  0
 10 20  1  0
M  RAD  1   8   2
M  END
>  <reaction>  (5) 
rxn_1103

>  <mol_properties>  (5) 
{"0": {"label": "*3", "atom_type": "Cs"}, "1": {"label": "*4", "atom_type": "S2s"}, "6": {"label": "*0", "atom_type": "Cd"}, "7": {"label": "*1", "atom_type": "Cs"}, "13": {"label": "*2", "atom_type": "H0"}}

>  <type>  (5) 
unop_1

>  <geom_source>  (5) 
Heuristics

$$$$

     RDKit          3D

 20 18  0  0  0  0  0  0  0  0999 V2000
    0.2274    1.6215   -0.3518 C   0  0  0  0  0  0  0  0  0  0  0  0
   -0.6157    1.2845   -1.9183 S   0  0  0  0  0  0  0  0  0  0  0  0
   -0.4874    2.1564    0.2715 H   0  0  0  0  0  0  0  0  0  0  0  0
    1.1014    2.2525   -0.4996 H   0  0  0  0  0  0  0  0  0  0  0  0
    0.3966    0.6461   -2.5181 H   0  0  0  0  0  0  0  0  0  0  0  0
    0.2274   -1.7064   -0.9911 C   0  0  0  0  0  0  0  0  0  0  0  0
    0.2274   -1.7064    0.3324 C   0  0  0  0  0  0  0  0  0  0  0  0
    0.2274   -0.4850    1.2044 C   0  0  0  0  0  3  0  0  0  0  0  0
    1.4867   -0.4446    2.0721 C   0  0  0  0  0  0  0  0  0  0  0  0
   -1.0319   -0.4446    2.0721 C   0  0  0  0  0  0  0  0  0  0  0  0
    0.2274   -2.6281   -1.5594 H   0  0  0  0  0  0  0  0  0  0  0  0
    0.2274   -0.7798   -1.5557 H   0  0  0  0  0  0  0  0  0  0  0  0
    0.2274   -2.6577    0.8629 H   0  0  0  0  0  0  0  0  0  0  0  0
    0.2274    0.5714    0.4240 H   0  0  0  0  0  0  0  0  0  0  0  0
    2.3883   -0.4387    1.4579 H   0  0  0  0  0  0  0  0  0  0  0  0
    1.5313   -1.3184    2.7279 H   0  0  0  0  0  0  0  0  0  0  0  0
    1.4942    0.4466    2.7031 H   0  0  0  0  0  0  0  0  0  0  0  0
   -1.0765   -1.3184    2.7279 H   0  0  0  0  0  0  0  0  0  0  0  0
   -1.9334   -0.4387    1.4579 H   0  0  0  0  0  0  0  0  0  0  0  0
   -1.0394    0.4466    2.7031 H   0  0  0  0  0  0  0  0  0  0  0  0
  1  2  1  0
  1  3  1  0
  1  4  1  0
  1 14  1  0
  2  5  1  0
  6  7  2  3
  6 11  1  0
  6 12  1  0
  7  8  1  0
  7 13  1  0
  8  9  1  0
  8 10  1  0
  9 15  1  0
  9 16  1  0
  9 17  1  0
 10 18  1  0
 10 19  1  0
 10 20  1  0
M  RAD  1   8   2
M  END
>  <reaction>  (6) 
rxn_1103

>  <mol_properties>  (6) 
{"0": {"label": "*3", "atom_type": "Cs"}, "1": {"label": "*4", "atom_type": "S2s"}, "6": {"label": "*0", "atom_type": "Cd"}, "7": {"label": "*1", "atom_type": "Cs"}, "13": {"label": "*2", "atom_type": "H0"}}

>  <type>  (6) 
unop_2

>  <geom_source>  (6) 
Heuristics

$$$$

     RDKit          3D

 20 18  0  0  0  0  0  0  0  0999 V2000
    0.2395    1.1383   -1.0037 C   0  0  0  0  0  0  0  0  0  0  0  0
   -0.6036    2.5367   -0.2213 S   0  0  0  0  0  0  0  0  0  0  0  0
    1.2841    1.2040   -0.7036 H   0  0  0  0  0  0  0  0  0  0  0  0
    0.1842    1.1987   -2.0886 H   0  0  0  0  0  0  0  0  0  0  0  0
   -1.8277    2.2814   -0.6989 H   0  0  0  0  0  0  0  0  0  0  0  0
    0.2395   -2.1896   -1.6430 C   0  0  0  0  0  0  0  0  0  0  0  0
    0.2395   -2.1896   -0.3195 C   0  0  0  0  0  0  0  0  0  0  0  0
    0.2395   -0.9682    0.5525 C   0  0  0  0  0  3  0  0  0  0  0  0
    1.4988   -0.9278    1.4202 C   0  0  0  0  0  0  0  0  0  0  0  0
   -1.0198   -0.9278    1.4202 C   0  0  0  0  0  0  0  0  0  0  0  0
    0.2395   -3.1113   -2.2113 H   0  0  0  0  0  0  0  0  0  0  0  0
    0.2395   -1.2630   -2.2076 H   0  0  0  0  0  0  0  0  0  0  0  0
    0.2395   -3.1409    0.2110 H   0  0  0  0  0  0  0  0  0  0  0  0
    0.2395    0.0882   -0.2279 H   0  0  0  0  0  0  0  0  0  0  0  0
    2.4004   -0.9219    0.8060 H   0  0  0  0  0  0  0  0  0  0  0  0
    1.5434   -1.8016    2.0760 H   0  0  0  0  0  0  0  0  0  0  0  0
    1.5064   -0.0366    2.0512 H   0  0  0  0  0  0  0  0  0  0  0  0
   -1.0644   -1.8016    2.0760 H   0  0  0  0  0  0  0  0  0  0  0  0
   -1.9213   -0.9219    0.8060 H   0  0  0  0  0  0  0  0  0  0  0  0
   -1.0273   -0.0366    2.0512 H   0  0  0  0  0  0  0  0  0  0  0  0
  1  2  1  0
  1  3  1  0
  1  4  1  0
  1 14  1  0
  2  5  1  0
  6  7  2  3
  6 11  1  0
  6 12  1  0
  7  8  1  0
  7 13  1  0
  8  9  1  0
  8 10  1  0
  9 15  1  0
  9 16  1  0
  9 17  1  0
 10 18  1  0
 10 19  1  0
 10 20  1  0
M  RAD  1   8   2
M  END
>  <reaction>  (7) 
rxn_1103

>  <mol_properties>  (7) 
{"0": {"label": "*3", "atom_type": "Cs"}, "1": {"label": "*4", "atom_type": "S2s"}, "6": {"label": "*0", "atom_type": "Cd"}, "7": {"label": "*1", "atom_type": "Cs"}, "13": {"label": "*2", "atom_type": "H0"}}

>  <type>  (7) 
unop_3

>  <geom_source>  (7) 
Heuristics

$$$$

     RDKit          3D

 20 18  0  0  0  0  0  0  0  0999 V2000
   -0.4132    1.5193   -0.5031 C   0  0  0  0  0  0  0  0  0  0  0  0
    1.0471    1.5490   -1.5733 S   0  0  0  0  0  0  0  0  0  0  0  0
   -1.2067    2.0212   -1.0543 H   0  0  0  0  0  0  0  0  0  0  0  0
   -0.2365    2.0608    0.4239 H   0  0  0  0  0  0  0  0  0  0  0  0
    1.8763    0.9074   -0.7411 H   0  0  0  0  0  0  0  0  0  0  0  0
   -0.4132   -1.8086   -1.1424 C   0  0  0  0  0  0  0  0  0  0  0  0
   -0.4132   -1.8086    0.1811 C   0  0  0  0  0  0  0  0  0  0  0  0
   -0.4132   -0.5872    1.0531 C   0  0  0  0  0  3  0  0  0  0  0  0
    0.8461   -0.5468    1.9208 C   0  0  0  0  0  0  0  0  0  0  0  0
   -1.6725   -0.5468    1.9208 C   0  0  0  0  0  0  0  0  0  0  0  0
   -0.4132   -2.7303   -1.7107 H   0  0  0  0  0  0  0  0  0  0  0  0
   -0.4132   -0.8821   -1.7070 H   0  0  0  0  0  0  0  0  0  0  0  0
   -0.4132   -2.7599    0.7116 H   0  0  0  0  0  0  0  0  0  0  0  0
   -0.4132    0.4692    0.2727 H   0  0  0  0  0  0  0  0  0  0  0  0
    1.7477   -0.5409    1.3066 H   0  0  0  0  0  0  0  0  0  0  0  0
    0.8907   -1.4206    2.5766 H   0  0  0  0  0  0  0  0  0  0  0  0
    0.8537    0.3444    2.5518 H   0  0  0  0  0  0  0  0  0  0  0  0
   -1.7171   -1.4206    2.5766 H   0  0  0  0  0  0  0  0  0  0  0  0
   -2.5740   -0.5409    1.3066 H   0  0  0  0  0  0  0  0  0  0  0  0
   -1.6800    0.3444    2.5518 H   0  0  0  0  0  0  0  0  0  0  0  0
  1  2  1  0
  1  3  1  0
  1  4  1  0
  1 14  1  0
  2  5  1  0
  6  7  2  3
  6 11  1  0
  6 12  1  0
  7  8  1  0
  7 13  1  0
  8  9  1  0
  8 10  1  0
  9 15  1  0
  9 16  1  0
  9 17  1  0
 10 18  1  0
 10 19  1  0
 10 20  1  0
M  RAD  1   8   2
M  END
>  <reaction>  (8) 
rxn_1103

>  <mol_properties>  (8) 
{"0": {"label": "*3", "atom_type": "Cs"}, "1": {"label": "*4", "atom_type": "S2s"}, "6": {"label": "*0", "atom_type": "Cd"}, "7": {"label": "*1", "atom_type": "Cs"}, "13": {"label": "*2", "atom_type": "H0"}}

>  <type>  (8) 
unop_4

>  <geom_source>  (8) 
Heuristics

$$$$

     RDKit          3D

 20 18  0  0  0  0  0  0  0  0999 V2000
    0.0094    1.1013   -1.0602 C   0  0  0  0  0  0  0  0  0  0  0  0
    0.0094    2.6339   -0.0961 S   0  0  0  0  0  0  0  0  0  0  0  0
    0.9301    1.1055   -1.6414 H   0  0  0  0  0  0  0  0  0  0  0  0
   -0.8349    1.0639   -1.7453 H   0  0  0  0  0  0  0  0  0  0  0  0
   -1.1609    2.4403    0.5242 H   0  0  0  0  0  0  0  0  0  0  0  0
    0.0094   -2.2266   -1.6995 C   0  0  0  0  0  0  0  0  0  0  0  0
    0.0094   -2.2266   -0.3760 C   0  0  0  0  0  0  0  0  0  0  0  0
    0.0094   -1.0052    0.4960 C   0  0  0  0  0  3  0  0  0  0  0  0
    1.2687   -0.9647    1.3637 C   0  0  0  0  0  0  0  0  0  0  0  0
   -1.2499   -0.9647    1.3637 C   0  0  0  0  0  0  0  0  0  0  0  0
    0.0094   -3.1483   -2.2678 H   0  0  0  0  0  0  0  0  0  0  0  0
    0.0094   -1.3000   -2.2641 H   0  0  0  0  0  0  0  0  0  0  0  0
    0.0094   -3.1779    0.1545 H   0  0  0  0  0  0  0  0  0  0  0  0
    0.0094    0.0512   -0.2844 H   0  0  0  0  0  0  0  0  0  0  0  0
    2.1703   -0.9589    0.7495 H   0  0  0  0  0  0  0  0  0  0  0  0
    1.3133   -1.8386    2.0195 H   0  0  0  0  0  0  0  0  0  0  0  0
    1.2763   -0.0735    1.9947 H   0  0  0  0  0  0  0  0  0  0  0  0
   -1.2945   -1.8386    2.0195 H   0  0  0  0  0  0  0  0  0  0  0  0
   -2.1514   -0.9588    0.7495 H   0  0  0  0  0  0  0  0  0  0  0  0
   -1.2574   -0.0735    1.9947 H   0  0  0  0  0  0  0  0  0  0  0  0
  1  2  1  0
  1  3  1  0
  1  4  1  0
  1 14  1  0
  2  5  1  0
  6  7  2  3
  6 11  1  0
  6 12  1  0
  7  8  1  0
  7 13  1  0
  8  9  1  0
  8 10  1  0
  9 15  1  0
  9 16  1  0
  9 17  1  0
 10 18  1  0
 10 19  1  0
 10 20  1  0
M  RAD  1   8   2
M  END
>  <reaction>  (9) 
rxn_1103

>  <mol_properties>  (9) 
{"0": {"label": "*3", "atom_type": "Cs"}, "1": {"label": "*4", "atom_type": "S2s"}, "6": {"label": "*0", "atom_type": "Cd"}, "7": {"label": "*1", "atom_type": "Cs"}, "13": {"label": "*2", "atom_type": "H0"}}

>  <type>  (9) 
unop_5

>  <geom_source>  (9) 
Heuristics

$$$$

     RDKit          3D

 20 18  0  0  0  0  0  0  0  0999 V2000
   -0.4718    1.3796   -0.6942 C   0  0  0  0  0  0  0  0  0  0  0  0
    1.2143    1.9103   -1.0862 S   0  0  0  0  0  0  0  0  0  0  0  0
   -1.1090    1.7779   -1.4822 H   0  0  0  0  0  0  0  0  0  0  0  0
   -0.8032    1.7845    0.2598 H   0  0  0  0  0  0  0  0  0  0  0  0
    1.8169    1.3389   -0.0364 H   0  0  0  0  0  0  0  0  0  0  0  0
   -0.4718   -1.9483   -1.3335 C   0  0  0  0  0  0  0  0  0  0  0  0
   -0.4718   -1.9483   -0.0100 C   0  0  0  0  0  0  0  0  0  0  0  0
   -0.4718   -0.7269    0.8620 C   0  0  0  0  0  3  0  0  0  0  0  0
    0.7875   -0.6865    1.7297 C   0  0  0  0  0  0  0  0  0  0  0  0
   -1.7311   -0.6865    1.7297 C   0  0  0  0  0  0  0  0  0  0  0  0
   -0.4718   -2.8700   -1.9018 H   0  0  0  0  0  0  0  0  0  0  0  0
   -0.4718   -1.0217   -1.8981 H   0  0  0  0  0  0  0  0  0  0  0  0
   -0.4718   -2.8996    0.5205 H   0  0  0  0  0  0  0  0  0  0  0  0
   -0.4718    0.3295    0.0816 H   0  0  0  0  0  0  0  0  0  0  0  0
    1.6890   -0.6806    1.1155 H   0  0  0  0  0  0  0  0  0  0  0  0
    0.8320   -1.5603    2.3855 H   0  0  0  0  0  0  0  0  0  0  0  0
    0.7950    0.2047    2.3607 H   0  0  0  0  0  0  0  0  0  0  0  0
   -1.7757   -1.5603    2.3855 H   0  0  0  0  0  0  0  0  0  0  0  0
   -2.6327   -0.6806    1.1155 H   0  0  0  0  0  0  0  0  0  0  0  0
   -1.7387    0.2047    2.3607 H   0  0  0  0  0  0  0  0  0  0  0  0
  1  2  1  0
  1  3  1  0
  1  4  1  0
  1 14  1  0
  2  5  1  0
  6  7  2  3
  6 11  1  0
  6 12  1  0
  7  8  1  0
  7 13  1  0
  8  9  1  0
  8 10  1  0
  9 15  1  0
  9 16  1  0
  9 17  1  0
 10 18  1  0
 10 19  1  0
 10 20  1  0
M  RAD  1   8   2
M  END
>  <reaction>  (10) 
rxn_1103

>  <mol_properties>  (10) 
{"0": {"label": "*3", "atom_type": "Cs"}, "1": {"label": "*4", "atom_type": "S2s"}, "6": {"label": "*0", "atom_type": "Cd"}, "7": {"label": "*1", "atom_type": "Cs"}, "13": {"label": "*2", "atom_type": "H0"}}

>  <type>  (10) 
unop_6

>  <geom_source>  (10) 
Heuristics

$$$$

     RDKit          3D

 20 18  0  0  0  0  0  0  0  0999 V2000
   -0.4039    1.2403   -0.8829 C   0  0  0  0  0  0  0  0  0  0  0  0
    1.0564    2.2719   -0.5969 S   0  0  0  0  0  0  0  0  0  0  0  0
   -0.7626    1.4877   -1.8807 H   0  0  0  0  0  0  0  0  0  0  0  0
   -1.1914    1.4601   -0.1651 H   0  0  0  0  0  0  0  0  0  0  0  0
    1.3329    1.8307    0.6363 H   0  0  0  0  0  0  0  0  0  0  0  0
   -0.4039   -2.0876   -1.5222 C   0  0  0  0  0  0  0  0  0  0  0  0
   -0.4039   -2.0876   -0.1987 C   0  0  0  0  0  0  0  0  0  0  0  0
   -0.4039   -0.8662    0.6733 C   0  0  0  0  0  3  0  0  0  0  0  0
    0.8554   -0.8258    1.5410 C   0  0  0  0  0  0  0  0  0  0  0  0
   -1.6632   -0.8258    1.5410 C   0  0  0  0  0  0  0  0  0  0  0  0
   -0.4039   -3.0093   -2.0905 H   0  0  0  0  0  0  0  0  0  0  0  0
   -0.4039   -1.1611   -2.0868 H   0  0  0  0  0  0  0  0  0  0  0  0
   -0.4039   -3.0389    0.3318 H   0  0  0  0  0  0  0  0  0  0  0  0
   -0.4039    0.1902   -0.1072 H   0  0  0  0  0  0  0  0  0  0  0  0
    1.7570   -0.8199    0.9268 H   0  0  0  0  0  0  0  0  0  0  0  0
    0.9000   -1.6996    2.1967 H   0  0  0  0  0  0  0  0  0  0  0  0
    0.8630    0.0654    2.1719 H   0  0  0  0  0  0  0  0  0  0  0  0
   -1.7078   -1.6996    2.1967 H   0  0  0  0  0  0  0  0  0  0  0  0
   -2.5647   -0.8199    0.9268 H   0  0  0  0  0  0  0  0  0  0  0  0
   -1.6707    0.0654    2.1719 H   0  0  0  0  0  0  0  0  0  0  0  0
  1  2  1  0
  1  3  1  0
  1  4  1  0
  1 14  1  0
  2  5  1  0
  6  7  2  3
  6 11  1  0
  6 12  1  0
  7  8  1  0
  7 13  1  0
  8  9  1  0
  8 10  1  0
  9 15  1  0
  9 16  1  0
  9 17  1  0
 10 18  1  0
 10 19  1  0
 10 20  1  0
M  RAD  1   8   2
M  END
>  <reaction>  (11) 
rxn_1103

>  <mol_properties>  (11) 
{"0": {"label": "*3", "atom_type": "Cs"}, "1": {"label": "*4", "atom_type": "S2s"}, "6": {"label": "*0", "atom_type": "Cd"}, "7": {"label": "*1", "atom_type": "Cs"}, "13": {"label": "*2", "atom_type": "H0"}}

>  <type>  (11) 
unop_7

>  <geom_source>  (11) 
Heuristics

$$$$

     RDKit          3D

 20 18  0  0  0  0  0  0  0  0999 V2000
    0.4675    1.3793   -0.6759 C   0  0  0  0  0  0  0  0  0  0  0  0
   -1.2187    1.9100   -1.0679 S   0  0  0  0  0  0  0  0  0  0  0  0
    0.6783    1.7465    0.3272 H   0  0  0  0  0  0  0  0  0  0  0  0
    1.1898    1.8127   -1.3645 H   0  0  0  0  0  0  0  0  0  0  0  0
   -1.2795    1.3781   -2.2948 H   0  0  0  0  0  0  0  0  0  0  0  0
    0.4675   -1.9486   -1.3152 C   0  0  0  0  0  0  0  0  0  0  0  0
    0.4675   -1.9486    0.0083 C   0  0  0  0  0  0  0  0  0  0  0  0
    0.4675   -0.7272    0.8804 C   0  0  0  0  0  3  0  0  0  0  0  0
    1.7268   -0.6868    1.7480 C   0  0  0  0  0  0  0  0  0  0  0  0
   -0.7918   -0.6868    1.7480 C   0  0  0  0  0  0  0  0  0  0  0  0
    0.4675   -2.8703   -1.8834 H   0  0  0  0  0  0  0  0  0  0  0  0
    0.4675   -1.0220   -1.8797 H   0  0  0  0  0  0  0  0  0  0  0  0
    0.4675   -2.8999    0.5389 H   0  0  0  0  0  0  0  0  0  0  0  0
    0.4675    0.3292    0.0999 H   0  0  0  0  0  0  0  0  0  0  0  0
    2.6283   -0.6809    1.1339 H   0  0  0  0  0  0  0  0  0  0  0  0
    1.7714   -1.5606    2.4038 H   0  0  0  0  0  0  0  0  0  0  0  0
    1.7343    0.2044    2.3790 H   0  0  0  0  0  0  0  0  0  0  0  0
   -0.8364   -1.5606    2.4038 H   0  0  0  0  0  0  0  0  0  0  0  0
   -1.6934   -0.6809    1.1339 H   0  0  0  0  0  0  0  0  0  0  0  0
   -0.7994    0.2044    2.3790 H   0  0  0  0  0  0  0  0  0  0  0  0
  1  2  1  0
  1  3  1  0
  1  4  1  0
  1 14  1  0
  2  5  1  0
  6  7  2  3
  6 11  1  0
  6 12  1  0
  7  8  1  0
  7 13  1  0
  8  9  1  0
  8 10  1  0
  9 15  1  0
  9 16  1  0
  9 17  1  0
 10 18  1  0
 10 19  1  0
 10 20  1  0
M  RAD  1   8   2
M  END
>  <reaction>  (12) 
rxn_1103

>  <mol_properties>  (12) 
{"0": {"label": "*3", "atom_type": "Cs"}, "1": {"label": "*4", "atom_type": "S2s"}, "6": {"label": "*0", "atom_type": "Cd"}, "7": {"label": "*1", "atom_type": "Cs"}, "13": {"label": "*2", "atom_type": "H0"}}

>  <type>  (12) 
unop_8

>  <geom_source>  (12) 
Heuristics

$$$$

     RDKit          3D

 20 18  0  0  0  0  0  0  0  0999 V2000
   -0.2440    1.6217   -0.3607 C   0  0  0  0  0  0  0  0  0  0  0  0
    0.5991    1.2847   -1.9273 S   0  0  0  0  0  0  0  0  0  0  0  0
   -1.1492    2.1717   -0.6126 H   0  0  0  0  0  0  0  0  0  0  0  0
    0.3678    2.2387    0.2940 H   0  0  0  0  0  0  0  0  0  0  0  0
    1.6462    0.6269   -1.4146 H   0  0  0  0  0  0  0  0  0  0  0  0
   -0.2440   -1.7062   -1.0000 C   0  0  0  0  0  0  0  0  0  0  0  0
   -0.2440   -1.7062    0.3235 C   0  0  0  0  0  0  0  0  0  0  0  0
   -0.2440   -0.4848    1.1955 C   0  0  0  0  0  3  0  0  0  0  0  0
    1.0153   -0.4444    2.0632 C   0  0  0  0  0  0  0  0  0  0  0  0
   -1.5033   -0.4444    2.0632 C   0  0  0  0  0  0  0  0  0  0  0  0
   -0.2440   -2.6279   -1.5683 H   0  0  0  0  0  0  0  0  0  0  0  0
   -0.2440   -0.7797   -1.5646 H   0  0  0  0  0  0  0  0  0  0  0  0
   -0.2440   -2.6575    0.8540 H   0  0  0  0  0  0  0  0  0  0  0  0
   -0.2440    0.5715    0.4151 H   0  0  0  0  0  0  0  0  0  0  0  0
    1.9169   -0.4385    1.4490 H   0  0  0  0  0  0  0  0  0  0  0  0
    1.0599   -1.3183    2.7189 H   0  0  0  0  0  0  0  0  0  0  0  0
    1.0229    0.4468    2.6941 H   0  0  0  0  0  0  0  0  0  0  0  0
   -1.5479   -1.3183    2.7189 H   0  0  0  0  0  0  0  0  0  0  0  0
   -2.4048   -0.4385    1.4490 H   0  0  0  0  0  0  0  0  0  0  0  0
   -1.5108    0.4468    2.6941 H   0  0  0  0  0  0  0  0  0  0  0  0
  1  2  1  0
  1  3  1  0
  1  4  1  0
  1 14  1  0
  2  5  1  0
  6  7  2  3
  6 11  1  0
  6 12  1  0
  7  8  1  0
  7 13  1  0
  8  9  1  0
  8 10  1  0
  9 15  1  0
  9 16  1  0
  9 17  1  0
 10 18  1  0
 10 19  1  0
 10 20  1  0
M  RAD  1   8   2
M  END
>  <reaction>  (13) 
rxn_1103

>  <mol_properties>  (13) 
{"0": {"label": "*3", "atom_type": "Cs"}, "1": {"label": "*4", "atom_type": "S2s"}, "6": {"label": "*0", "atom_type": "Cd"}, "7": {"label": "*1", "atom_type": "Cs"}, "13": {"label": "*2", "atom_type": "H0"}}

>  <type>  (13) 
unop_9

>  <geom_source>  (13) 
Heuristics

$$$$

     RDKit          3D

 20 18  0  0  0  0  0  0  0  0999 V2000
    0.4020    1.5190   -0.4879 C   0  0  0  0  0  0  0  0  0  0  0  0
   -1.0582    1.5488   -1.5581 S   0  0  0  0  0  0  0  0  0  0  0  0
    0.1069    1.9951    0.4457 H   0  0  0  0  0  0  0  0  0  0  0  0
    1.2238    2.0842   -0.9227 H   0  0  0  0  0  0  0  0  0  0  0  0
   -0.5036    0.9399   -2.6133 H   0  0  0  0  0  0  0  0  0  0  0  0
    0.4020   -1.8089   -1.1272 C   0  0  0  0  0  0  0  0  0  0  0  0
    0.4020   -1.8089    0.1963 C   0  0  0  0  0  0  0  0  0  0  0  0
    0.4020   -0.5875    1.0683 C   0  0  0  0  0  3  0  0  0  0  0  0
    1.6613   -0.5471    1.9360 C   0  0  0  0  0  0  0  0  0  0  0  0
   -0.8573   -0.5471    1.9360 C   0  0  0  0  0  0  0  0  0  0  0  0
    0.4020   -2.7306   -1.6955 H   0  0  0  0  0  0  0  0  0  0  0  0
    0.4020   -0.8823   -1.6918 H   0  0  0  0  0  0  0  0  0  0  0  0
    0.4020   -2.7602    0.7268 H   0  0  0  0  0  0  0  0  0  0  0  0
    0.4020    0.4689    0.2879 H   0  0  0  0  0  0  0  0  0  0  0  0
    2.5629   -0.5412    1.3218 H   0  0  0  0  0  0  0  0  0  0  0  0
    1.7059   -1.4209    2.5918 H   0  0  0  0  0  0  0  0  0  0  0  0
    1.6689    0.3441    2.5670 H   0  0  0  0  0  0  0  0  0  0  0  0
   -0.9018   -1.4209    2.5918 H   0  0  0  0  0  0  0  0  0  0  0  0
   -1.7588   -0.5412    1.3218 H   0  0  0  0  0  0  0  0  0  0  0  0
   -0.8648    0.3441    2.5670 H   0  0  0  0  0  0  0  0  0  0  0  0
  1  2  1  0
  1  3  1  0
  1  4  1  0
  1 14  1  0
  2  5  1  0
  6  7  2  3
  6 11  1  0
  6 12  1  0
  7  8  1  0
  7 13  1  0
  8  9  1  0
  8 10  1  0
  9 15  1  0
  9 16  1  0
  9 17  1  0
 10 18  1  0
 10 19  1  0
 10 20  1  0
M  RAD  1   8   2
M  END
>  <reaction>  (14) 
rxn_1103

>  <mol_properties>  (14) 
{"0": {"label": "*3", "atom_type": "Cs"}, "1": {"label": "*4", "atom_type": "S2s"}, "6": {"label": "*0", "atom_type": "Cd"}, "7": {"label": "*1", "atom_type": "Cs"}, "13": {"label": "*2", "atom_type": "H0"}}

>  <type>  (14) 
unop_10

>  <geom_source>  (14) 
Heuristics

$$$$

     RDKit          3D

 20 18  0  0  0  0  0  0  0  0999 V2000
   -0.2269    1.1386   -1.0177 C   0  0  0  0  0  0  0  0  0  0  0  0
    0.6161    2.5369   -0.2353 S   0  0  0  0  0  0  0  0  0  0  0  0
   -0.0403    1.2280   -2.0866 H   0  0  0  0  0  0  0  0  0  0  0  0
   -1.3008    1.1771   -0.8471 H   0  0  0  0  0  0  0  0  0  0  0  0
    0.2753    2.2514    1.0273 H   0  0  0  0  0  0  0  0  0  0  0  0
   -0.2269   -2.1893   -1.6570 C   0  0  0  0  0  0  0  0  0  0  0  0
   -0.2269   -2.1893   -0.3335 C   0  0  0  0  0  0  0  0  0  0  0  0
   -0.2269   -0.9680    0.5385 C   0  0  0  0  0  3  0  0  0  0  0  0
    1.0324   -0.9275    1.4062 C   0  0  0  0  0  0  0  0  0  0  0  0
   -1.4862   -0.9275    1.4062 C   0  0  0  0  0  0  0  0  0  0  0  0
   -0.2269   -3.1111   -2.2253 H   0  0  0  0  0  0  0  0  0  0  0  0
   -0.2269   -1.2628   -2.2216 H   0  0  0  0  0  0  0  0  0  0  0  0
   -0.2269   -3.1407    0.1970 H   0  0  0  0  0  0  0  0  0  0  0  0
   -0.2269    0.0884   -0.2419 H   0  0  0  0  0  0  0  0  0  0  0  0
    1.9339   -0.9216    0.7920 H   0  0  0  0  0  0  0  0  0  0  0  0
    1.0770   -1.8014    2.0620 H   0  0  0  0  0  0  0  0  0  0  0  0
    1.0399   -0.0363    2.0372 H   0  0  0  0  0  0  0  0  0  0  0  0
   -1.5308   -1.8014    2.0620 H   0  0  0  0  0  0  0  0  0  0  0  0
   -2.3878   -0.9216    0.7920 H   0  0  0  0  0  0  0  0  0  0  0  0
   -1.4938   -0.0363    2.0372 H   0  0  0  0  0  0  0  0  0  0  0  0
  1  2  1  0
  1  3  1  0
  1  4  1  0
  1 14  1  0
  2  5  1  0
  6  7  2  3
  6 11  1  0
  6 12  1  0
  7  8  1  0
  7 13  1  0
  8  9  1  0
  8 10  1  0
  9 15  1  0
  9 16  1  0
  9 17  1  0
 10 18  1  0
 10 19  1  0
 10 20  1  0
M  RAD  1   8   2
M  END
>  <reaction>  (15) 
rxn_1103

>  <mol_properties>  (15) 
{"0": {"label": "*3", "atom_type": "Cs"}, "1": {"label": "*4", "atom_type": "S2s"}, "6": {"label": "*0", "atom_type": "Cd"}, "7": {"label": "*1", "atom_type": "Cs"}, "13": {"label": "*2", "atom_type": "H0"}}

>  <type>  (15) 
unop_11

>  <geom_source>  (15) 
Heuristics

$$$$

     RDKit          3D

 20 18  0  0  0  0  0  0  0  0999 V2000
   -0.0094    1.6591   -0.3052 C   0  0  0  0  0  0  0  0  0  0  0  0
   -0.0094    1.1879   -2.0534 S   0  0  0  0  0  0  0  0  0  0  0  0
   -0.9301    2.2159   -0.1384 H   0  0  0  0  0  0  0  0  0  0  0  0
    0.8349    2.3030   -0.0681 H   0  0  0  0  0  0  0  0  0  0  0  0
    1.1609    0.5381   -2.0506 H   0  0  0  0  0  0  0  0  0  0  0  0
   -0.0094   -1.6688   -0.9445 C   0  0  0  0  0  0  0  0  0  0  0  0
   -0.0094   -1.6688    0.3790 C   0  0  0  0  0  0  0  0  0  0  0  0
   -0.0094   -0.4474    1.2510 C   0  0  0  0  0  3  0  0  0  0  0  0
    1.2499   -0.4070    2.1187 C   0  0  0  0  0  0  0  0  0  0  0  0
   -1.2687   -0.4070    2.1187 C   0  0  0  0  0  0  0  0  0  0  0  0
   -0.0094   -2.5905   -1.5128 H   0  0  0  0  0  0  0  0  0  0  0  0
   -0.0094   -0.7422   -1.5091 H   0  0  0  0  0  0  0  0  0  0  0  0
   -0.0094   -2.6201    0.9096 H   0  0  0  0  0  0  0  0  0  0  0  0
   -0.0094    0.6090    0.4706 H   0  0  0  0  0  0  0  0  0  0  0  0
    2.1514   -0.4011    1.5045 H   0  0  0  0  0  0  0  0  0  0  0  0
    1.2945   -1.2808    2.7745 H   0  0  0  0  0  0  0  0  0  0  0  0
    1.2574    0.4842    2.7497 H   0  0  0  0  0  0  0  0  0  0  0  0
   -1.3133   -1.2808    2.7745 H   0  0  0  0  0  0  0  0  0  0  0  0
   -2.1703   -0.4011    1.5045 H   0  0  0  0  0  0  0  0  0  0  0  0
   -1.2763    0.4842    2.7497 H   0  0  0  0  0  0  0  0  0  0  0  0
  1  2  1  0
  1  3  1  0
  1  4  1  0
  1 14  1  0
  2  5  1  0
  6  7  2  3
  6 11  1  0
  6 12  1  0
  7  8  1  0
  7 13  1  0
  8  9  1  0
  8 10  1  0
  9 15  1  0
  9 16  1  0
  9 17  1  0
 10 18  1  0
 10 19  1  0
 10 20  1  0
M  RAD  1   8   2
M  END
>  <reaction>  (16) 
rxn_1103

>  <mol_properties>  (16) 
{"0": {"label": "*3", "atom_type": "Cs"}, "1": {"label": "*4", "atom_type": "S2s"}, "6": {"label": "*0", "atom_type": "Cd"}, "7": {"label": "*1", "atom_type": "Cs"}, "13": {"label": "*2", "atom_type": "H0"}}

>  <type>  (16) 
unop_12

>  <geom_source>  (16) 
Heuristics

$$$$

     RDKit          3D

 20 18  0  0  0  0  0  0  0  0999 V2000
    3.5846    0.4944    0.4131 S   0  0  0  0  0  0  0  0  0  0  0  0
   -0.6150   -1.2858   -0.7786 C   0  0  0  0  0  0  0  0  0  0  0  0
   -0.5649   -0.4213    1.6093 C   0  0  0  0  0  0  0  0  0  0  0  0
    2.2225   -0.2756   -0.5057 C   0  0  0  0  0  0  0  0  0  0  0  0
   -0.2815   -0.1080    0.1390 C   0  0  0  0  0  3  0  0  0  0  0  0
   -0.9386    1.1727   -0.3109 C   0  0  0  0  0  0  0  0  0  0  0  0
   -2.2664    1.3325   -0.3409 C   0  0  0  0  0  0  0  0  0  0  0  0
   -0.0136   -2.1719   -0.4855 H   0  0  0  0  0  0  0  0  0  0  0  0
   -0.3647   -1.0287   -1.8296 H   0  0  0  0  0  0  0  0  0  0  0  0
   -1.6931   -1.5454   -0.7140 H   0  0  0  0  0  0  0  0  0  0  0  0
    0.0371   -1.2978    1.9290 H   0  0  0  0  0  0  0  0  0  0  0  0
   -0.2793    0.4454    2.2422 H   0  0  0  0  0  0  0  0  0  0  0  0
   -1.6411   -0.6476    1.7657 H   0  0  0  0  0  0  0  0  0  0  0  0
    2.3468   -1.3779   -0.4938 H   0  0  0  0  0  0  0  0  0  0  0  0
    2.2310    0.0843   -1.5553 H   0  0  0  0  0  0  0  0  0  0  0  0
    1.0843    0.0386    0.0542 H   0  0  0  0  0  0  0  0  0  0  0  0
   -0.3010    1.9939   -0.6216 H   0  0  0  0  0  0  0  0  0  0  0  0
   -2.6914    2.2741   -0.6729 H   0  0  0  0  0  0  0  0  0  0  0  0
   -2.9359    0.5339   -0.0378 H   0  0  0  0  0  0  0  0  0  0  0  0
    3.0803    1.7904    0.1943 H   0  0  0  0  0  0  0  0  0  0  0  0
  1  4  1  0
  1 20  1  0
  2  5  1  0
  2  8  1  0
  2  9  1  0
  2 10  1  0
  3  5  1  0
  3 11  1  0
  3 12  1  0
  3 13  1  0
  4 14  1  0
  4 15  1  0
  4 16  1  0
  5  6  1  0
  6  7  2  3
  6 17  1  0
  7 18  1  0
  7 19  1  0
M  RAD  1   5   2
M  END
>  <reaction>  (17) 
rxn_1103

>  <mol_properties>  (17) 
{"0": {"label": "*3", "atom_type": "Cs"}, "1": {"label": "*4", "atom_type": "S2s"}, "6": {"label": "*0", "atom_type": "Cd"}, "7": {"label": "*1", "atom_type": "Cs"}, "13": {"label": "*2", "atom_type": "H0"}}

>  <type>  (17) 
unop_13

>  <geom_source>  (17) 
AutoTST

$$$$

     RDKit          3D

 20 18  0  0  0  0  0  0  0  0999 V2000
    0.2274    1.6215   -0.3518 C   0  0  0  0  0  0  0  0  0  0  0  0
   -0.6157    1.2845   -1.9183 S   0  0  0  0  0  0  0  0  0  0  0  0
   -0.4874    2.1564    0.2715 H   0  0  0  0  0  0  0  0  0  0  0  0
    1.1014    2.2525   -0.4996 H   0  0  0  0  0  0  0  0  0  0  0  0
    0.3966    0.6461   -2.5181 H   0  0  0  0  0  0  0  0  0  0  0  0
    0.2274   -1.7064   -0.9911 C   0  0  0  0  0  0  0  0  0  0  0  0
    0.2274   -1.7064    0.3324 C   0  0  0  0  0  0  0  0  0  0  0  0
    0.2274   -0.4850    1.2044 C   0  0  0  0  0  3  0  0  0  0  0  0
    1.4867   -0.4446    2.0721 C   0  0  0  0  0  0  0  0  0  0  0  0
   -1.0319   -0.4446    2.0721 C   0  0  0  0  0  0  0  0  0  0  0  0
    0.2274   -2.6281   -1.5594 H   0  0  0  0  0  0  0  0  0  0  0  0
    0.2274   -0.7798   -1.5557 H   0  0  0  0  0  0  0  0  0  0  0  0
    0.2274   -2.6577    0.8629 H   0  0  0  0  0  0  0  0  0  0  0  0
    0.2274    0.5714    0.4240 H   0  0  0  0  0  0  0  0  0  0  0  0
    2.3883   -0.4387    1.4579 H   0  0  0  0  0  0  0  0  0  0  0  0
    1.5313   -1.3184    2.7279 H   0  0  0  0  0  0  0  0  0  0  0  0
    1.4943    0.4466    2.7031 H   0  0  0  0  0  0  0  0  0  0  0  0
   -1.0765   -1.3184    2.7279 H   0  0  0  0  0  0  0  0  0  0  0  0
   -1.9334   -0.4387    1.4579 H   0  0  0  0  0  0  0  0  0  0  0  0
   -1.0394    0.4466    2.7031 H   0  0  0  0  0  0  0  0  0  0  0  0
  1  2  1  0
  1  3  1  0
  1  4  1  0
  1 14  1  0
  2  5  1  0
  6  7  2  3
  6 11  1  0
  6 12  1  0
  7  8  1  0
  7 13  1  0
  8  9  1  0
  8 10  1  0
  9 15  1  0
  9 16  1  0
  9 17  1  0
 10 18  1  0
 10 19  1  0
 10 20  1  0
M  RAD  1   8   2
M  END
>  <reaction>  (18) 
rxn_1103

>  <mol_properties>  (18) 
{"0": {"label": "*3", "atom_type": "Cs"}, "1": {"label": "*4", "atom_type": "S2s"}, "6": {"label": "*0", "atom_type": "Cd"}, "7": {"label": "*1", "atom_type": "Cs"}, "13": {"label": "*2", "atom_type": "H0"}}

>  <type>  (18) 
unop_14

>  <geom_source>  (18) 
gaussian_log

$$$$
