
     RDKit          3D

  9  8  0  0  0  0  0  0  0  0999 V2000
   -0.8818   -0.3578    0.1297 C   0  0  0  0  0  0  0  0  0  0  0  0
    0.6153   -0.3021   -0.1188 C   0  0  0  0  0  0  0  0  0  0  0  0
    1.5354   -1.7170    0.5545 S   0  0  0  0  0  0  0  0  0  0  0  0
   -1.1018   -0.3317    1.1984 H   0  0  0  0  0  0  0  0  0  0  0  0
   -1.3114   -1.2723   -0.2799 H   0  0  0  0  0  0  0  0  0  0  0  0
   -1.3767    0.4976   -0.3363 H   0  0  0  0  0  0  0  0  0  0  0  0
    1.0467    0.6194    0.2718 H   0  0  0  0  0  0  0  0  0  0  0  0
    0.8295   -0.3275   -1.1882 H   0  0  0  0  0  0  0  0  0  0  0  0
    1.2306   -1.5077    1.8423 H   0  0  0  0  0  0  0  0  0  0  0  0
  1  2  1  0
  1  4  1  0
  1  5  1  0
  1  6  1  0
  2  3  1  0
  2  7  1  0
  2  8  1  0
  3  9  1  0
M  END
>  <reaction>  (1) 
rxn_1881

>  <mol_properties>  (1) 
{"1": {"label": "donator", "atom_type": "Cs"}, "6": {"label": "d_hydrogen", "atom_type": "H0"}}

>  <type>  (1) 
r1h

$$$$

     RDKit          3D

  5  4  0  0  0  0  0  0  0  0999 V2000
    0.0397    0.7134    0.0000 C   0  0  0  0  0  3  0  0  0  0  0  0
    0.0458   -0.5870    0.0000 C   0  0  0  0  0  0  0  0  0  0  0  0
   -0.6871    1.5118    0.0000 H   0  0  0  0  0  0  0  0  0  0  0  0
   -0.8806   -1.1637    0.0000 H   0  0  0  0  0  0  0  0  0  0  0  0
    0.9690   -1.1600    0.0000 H   0  0  0  0  0  0  0  0  0  0  0  0
  1  2  2  3
  1  3  1  0
  2  4  1  0
  2  5  1  0
M  RAD  1   1   2
M  END
>  <reaction>  (2) 
rxn_1881

>  <mol_properties>  (2) 
{"0": {"label": "acceptor", "atom_type": "Cd"}}

>  <type>  (2) 
r2

$$$$

     RDKit          3D

  6  5  0  0  0  0  0  0  0  0999 V2000
    0.6594    0.0438   -0.0050 C   0  0  0  0  0  0  0  0  0  0  0  0
   -0.6594   -0.0438    0.0050 C   0  0  0  0  0  0  0  0  0  0  0  0
    1.1706    0.8681   -0.4881 H   0  0  0  0  0  0  0  0  0  0  0  0
    1.2824   -0.7051    0.4696 H   0  0  0  0  0  0  0  0  0  0  0  0
   -1.2824    0.7051   -0.4696 H   0  0  0  0  0  0  0  0  0  0  0  0
   -1.1706   -0.8681    0.4881 H   0  0  0  0  0  0  0  0  0  0  0  0
  1  2  2  3
  1  3  1  0
  1  4  1  0
  2  5  1  0
  2  6  1  0
M  END
>  <reaction>  (3) 
rxn_1881

>  <mol_properties>  (3) 
{"0": {"label": "acceptor", "atom_type": "Cd"}, "5": {"label": "a_hydrogen", "atom_type": "H0"}}

>  <type>  (3) 
r2h

$$$$

     RDKit          3D

 14 12  0  0  0  0  0  0  0  0999 V2000
    1.2412   -1.6822    0.5326 C   0  0  0  0  0  3  0  0  0  0  0  0
    1.9560   -1.0841    1.4545 C   0  0  0  0  0  0  0  0  0  0  0  0
    1.3762   -2.6636    0.0928 H   0  0  0  0  0  0  0  0  0  0  0  0
    2.8287   -1.5530    1.9053 H   0  0  0  0  0  0  0  0  0  0  0  0
    1.6984   -0.0890    1.8080 H   0  0  0  0  0  0  0  0  0  0  0  0
   -0.8270   -0.3327   -1.8884 C   0  0  0  0  0  0  0  0  0  0  0  0
   -0.7797   -0.1517   -0.3900 C   0  0  0  0  0  0  0  0  0  0  0  0
   -0.4668    1.5036    0.2054 S   0  0  0  0  0  0  0  0  0  0  0  0
    0.1232   -0.0460   -2.3436 H   0  0  0  0  0  0  0  0  0  0  0  0
   -1.6146    0.2752   -2.3386 H   0  0  0  0  0  0  0  0  0  0  0  0
   -1.0155   -1.3797   -2.1355 H   0  0  0  0  0  0  0  0  0  0  0  0
    0.1254   -0.8974    0.0408 H   0  0  0  0  0  0  0  0  0  0  0  0
   -1.6804   -0.5013    0.1145 H   0  0  0  0  0  0  0  0  0  0  0  0
    0.6507    1.7178   -0.5039 H   0  0  0  0  0  0  0  0  0  0  0  0
  1  2  2  3
  1  3  1  0
  2  4  1  0
  2  5  1  0
  6  7  1  0
  6  9  1  0
  6 10  1  0
  6 11  1  0
  7  8  1  0
  7 12  1  0
  7 13  1  0
  8 14  1  0
M  RAD  1   1   2
M  END
>  <reaction>  (4) 
rxn_1881

>  <mol_properties>  (4) 
{"0": {"label": "*3", "atom_type": "Cd"}, "1": {"label": "*4", "atom_type": "Cd"}, "6": {"label": "*1", "atom_type": "Cs"}, "7": {"label": "*0", "atom_type": "S2s"}, "11": {"label": "*2", "atom_type": "H0"}}

>  <type>  (4) 
ts

$$$$

     RDKit          3D

 14 12  0  0  0  0  0  0  0  0999 V2000
    1.2438   -1.6322    0.5156 C   0  0  0  0  0  0  0  0  0  0  0  0
    2.1541   -1.0695    1.2914 C   0  0  0  0  0  0  0  0  0  0  0  0
    0.8083   -2.5947    0.7565 H   0  0  0  0  0  0  0  0  0  0  0  0
    2.5015   -1.5481    2.1994 H   0  0  0  0  0  0  0  0  0  0  0  0
    2.5896   -0.1069    1.0505 H   0  0  0  0  0  0  0  0  0  0  0  0
   -0.7742   -0.2773   -1.9486 C   0  0  0  0  0  0  0  0  0  0  0  0
   -0.7742   -0.2773   -0.4299 C   0  0  0  0  0  3  0  0  0  0  0  0
   -0.7742    1.3800    0.3151 S   0  0  0  0  0  0  0  0  0  0  0  0
    0.1324    0.1881   -2.3393 H   0  0  0  0  0  0  0  0  0  0  0  0
   -1.6302    0.2739   -2.3387 H   0  0  0  0  0  0  0  0  0  0  0  0
   -0.8173   -1.3007   -2.3289 H   0  0  0  0  0  0  0  0  0  0  0  0
    0.2377   -0.9567    0.0442 H   0  0  0  0  0  0  0  0  0  0  0  0
   -1.6818   -0.7444   -0.0448 H   0  0  0  0  0  0  0  0  0  0  0  0
    0.4006    1.7817   -0.1885 H   0  0  0  0  0  0  0  0  0  0  0  0
  1  2  2  3
  1  3  1  0
  1 12  1  0
  2  4  1  0
  2  5  1  0
  6  7  1  0
  6  9  1  0
  6 10  1  0
  6 11  1  0
  7  8  1  0
  7 13  1  0
  8 14  1  0
M  RAD  1   7   2
M  END
>  <reaction>  (5) 
rxn_1881

>  <mol_properties>  (5) 
{"0": {"label": "*3", "atom_type": "Cd"}, "1": {"label": "*4", "atom_type": "Cd"}, "6": {"label": "*1", "atom_type": "Cs"}, "7": {"label": "*0", "atom_type": "S2s"}, "11": {"label": "*2", "atom_type": "H0"}}

>  <type>  (5) 
unop_1

>  <geom_source>  (5) 
Heuristics

$$$$

     RDKit          3D

 14 12  0  0  0  0  0  0  0  0999 V2000
    1.2007   -1.5314    0.7458 C   0  0  0  0  0  0  0  0  0  0  0  0
    2.3441   -1.6213    0.0890 C   0  0  0  0  0  0  0  0  0  0  0  0
    1.1327   -1.7612    1.8026 H   0  0  0  0  0  0  0  0  0  0  0  0
    3.2595   -1.9285    0.5808 H   0  0  0  0  0  0  0  0  0  0  0  0
    2.4121   -1.3915   -0.9678 H   0  0  0  0  0  0  0  0  0  0  0  0
   -0.8174   -0.1765   -1.7184 C   0  0  0  0  0  0  0  0  0  0  0  0
   -0.8174   -0.1765   -0.1997 C   0  0  0  0  0  3  0  0  0  0  0  0
   -0.8174    1.4808    0.5453 S   0  0  0  0  0  0  0  0  0  0  0  0
    0.0893    0.2889   -2.1091 H   0  0  0  0  0  0  0  0  0  0  0  0
   -1.6733    0.3747   -2.1085 H   0  0  0  0  0  0  0  0  0  0  0  0
   -0.8604   -1.1999   -2.0987 H   0  0  0  0  0  0  0  0  0  0  0  0
    0.1945   -0.8559    0.2744 H   0  0  0  0  0  0  0  0  0  0  0  0
   -1.7250   -0.6436    0.1854 H   0  0  0  0  0  0  0  0  0  0  0  0
    0.3574    1.8825    0.0417 H   0  0  0  0  0  0  0  0  0  0  0  0
  1  2  2  3
  1  3  1  0
  1 12  1  0
  2  4  1  0
  2  5  1  0
  6  7  1  0
  6  9  1  0
  6 10  1  0
  6 11  1  0
  7  8  1  0
  7 13  1  0
  8 14  1  0
M  RAD  1   7   2
M  END
>  <reaction>  (6) 
rxn_1881

>  <mol_properties>  (6) 
{"0": {"label": "*3", "atom_type": "Cd"}, "1": {"label": "*4", "atom_type": "Cd"}, "6": {"label": "*1", "atom_type": "Cs"}, "7": {"label": "*0", "atom_type": "S2s"}, "11": {"label": "*2", "atom_type": "H0"}}

>  <type>  (6) 
unop_2

>  <geom_source>  (6) 
Heuristics

$$$$

     RDKit          3D

 14 12  0  0  0  0  0  0  0  0999 V2000
    1.2993   -1.5882    0.4578 C   0  0  0  0  0  0  0  0  0  0  0  0
    1.8561   -1.2842    1.6174 C   0  0  0  0  0  0  0  0  0  0  0  0
    1.1803   -2.6162    0.1366 H   0  0  0  0  0  0  0  0  0  0  0  0
    2.2159   -2.0508    2.2935 H   0  0  0  0  0  0  0  0  0  0  0  0
    1.9751   -0.2562    1.9387 H   0  0  0  0  0  0  0  0  0  0  0  0
   -0.7187   -0.2333   -2.0064 C   0  0  0  0  0  0  0  0  0  0  0  0
   -0.7187   -0.2333   -0.4877 C   0  0  0  0  0  3  0  0  0  0  0  0
   -0.7187    1.4240    0.2573 S   0  0  0  0  0  0  0  0  0  0  0  0
    0.1879    0.2321   -2.3971 H   0  0  0  0  0  0  0  0  0  0  0  0
   -1.5747    0.3179   -2.3965 H   0  0  0  0  0  0  0  0  0  0  0  0
   -0.7618   -1.2567   -2.3867 H   0  0  0  0  0  0  0  0  0  0  0  0
    0.2932   -0.9127   -0.0136 H   0  0  0  0  0  0  0  0  0  0  0  0
   -1.6263   -0.7004   -0.1026 H   0  0  0  0  0  0  0  0  0  0  0  0
    0.4561    1.8257   -0.2463 H   0  0  0  0  0  0  0  0  0  0  0  0
  1  2  2  3
  1  3  1  0
  1 12  1  0
  2  4  1  0
  2  5  1  0
  6  7  1  0
  6  9  1  0
  6 10  1  0
  6 11  1  0
  7  8  1  0
  7 13  1  0
  8 14  1  0
M  RAD  1   7   2
M  END
>  <reaction>  (7) 
rxn_1881

>  <mol_properties>  (7) 
{"0": {"label": "*3", "atom_type": "Cd"}, "1": {"label": "*4", "atom_type": "Cd"}, "6": {"label": "*1", "atom_type": "Cs"}, "7": {"label": "*0", "atom_type": "S2s"}, "11": {"label": "*2", "atom_type": "H0"}}

>  <type>  (7) 
unop_3

>  <geom_source>  (7) 
Heuristics

$$$$

     RDKit          3D

 14 12  0  0  0  0  0  0  0  0999 V2000
    1.3603   -1.3394    0.6829 C   0  0  0  0  0  0  0  0  0  0  0  0
    1.5229   -2.6223    0.4099 C   0  0  0  0  0  0  0  0  0  0  0  0
    1.6740   -0.9155    1.6296 H   0  0  0  0  0  0  0  0  0  0  0  0
    1.9764   -3.3019    1.1218 H   0  0  0  0  0  0  0  0  0  0  0  0
    1.2093   -3.0462   -0.5368 H   0  0  0  0  0  0  0  0  0  0  0  0
   -0.6578    0.0155   -1.7813 C   0  0  0  0  0  0  0  0  0  0  0  0
   -0.6578    0.0155   -0.2626 C   0  0  0  0  0  3  0  0  0  0  0  0
   -0.6578    1.6728    0.4823 S   0  0  0  0  0  0  0  0  0  0  0  0
    0.2489    0.4809   -2.1721 H   0  0  0  0  0  0  0  0  0  0  0  0
   -1.5137    0.5667   -2.1714 H   0  0  0  0  0  0  0  0  0  0  0  0
   -0.7008   -1.0079   -2.1616 H   0  0  0  0  0  0  0  0  0  0  0  0
    0.3542   -0.6639    0.2115 H   0  0  0  0  0  0  0  0  0  0  0  0
   -1.5654   -0.4516    0.1225 H   0  0  0  0  0  0  0  0  0  0  0  0
    0.5170    2.0745   -0.0212 H   0  0  0  0  0  0  0  0  0  0  0  0
  1  2  2  3
  1  3  1  0
  1 12  1  0
  2  4  1  0
  2  5  1  0
  6  7  1  0
  6  9  1  0
  6 10  1  0
  6 11  1  0
  7  8  1  0
  7 13  1  0
  8 14  1  0
M  RAD  1   7   2
M  END
>  <reaction>  (8) 
rxn_1881

>  <mol_properties>  (8) 
{"0": {"label": "*3", "atom_type": "Cd"}, "1": {"label": "*4", "atom_type": "Cd"}, "6": {"label": "*1", "atom_type": "Cs"}, "7": {"label": "*0", "atom_type": "S2s"}, "11": {"label": "*2", "atom_type": "H0"}}

>  <type>  (8) 
unop_4

>  <geom_source>  (8) 
Heuristics

$$$$

     RDKit          3D

 14 12  0  0  0  0  0  0  0  0999 V2000
    1.3504   -1.5217    0.4389 C   0  0  0  0  0  0  0  0  0  0  0  0
    1.5481   -1.6545    1.7390 C   0  0  0  0  0  0  0  0  0  0  0  0
    2.0189   -1.9705   -0.2864 H   0  0  0  0  0  0  0  0  0  0  0  0
    2.3866   -2.2174    2.1319 H   0  0  0  0  0  0  0  0  0  0  0  0
    0.8797   -1.2057    2.4643 H   0  0  0  0  0  0  0  0  0  0  0  0
   -0.6676   -0.1669   -2.0253 C   0  0  0  0  0  0  0  0  0  0  0  0
   -0.6676   -0.1669   -0.5066 C   0  0  0  0  0  3  0  0  0  0  0  0
   -0.6676    1.4904    0.2383 S   0  0  0  0  0  0  0  0  0  0  0  0
    0.2390    0.2985   -2.4161 H   0  0  0  0  0  0  0  0  0  0  0  0
   -1.5236    0.3843   -2.4154 H   0  0  0  0  0  0  0  0  0  0  0  0
   -0.7107   -1.1903   -2.4056 H   0  0  0  0  0  0  0  0  0  0  0  0
    0.3443   -0.8463   -0.0325 H   0  0  0  0  0  0  0  0  0  0  0  0
   -1.5752   -0.6340   -0.1215 H   0  0  0  0  0  0  0  0  0  0  0  0
    0.5072    1.8921   -0.2652 H   0  0  0  0  0  0  0  0  0  0  0  0
  1  2  2  3
  1  3  1  0
  1 12  1  0
  2  4  1  0
  2  5  1  0
  6  7  1  0
  6  9  1  0
  6 10  1  0
  6 11  1  0
  7  8  1  0
  7 13  1  0
  8 14  1  0
M  RAD  1   7   2
M  END
>  <reaction>  (9) 
rxn_1881

>  <mol_properties>  (9) 
{"0": {"label": "*3", "atom_type": "Cd"}, "1": {"label": "*4", "atom_type": "Cd"}, "6": {"label": "*1", "atom_type": "Cs"}, "7": {"label": "*0", "atom_type": "S2s"}, "11": {"label": "*2", "atom_type": "H0"}}

>  <type>  (9) 
unop_5

>  <geom_source>  (9) 
Heuristics

$$$$

     RDKit          3D

 14 12  0  0  0  0  0  0  0  0999 V2000
    1.4005   -1.3403    0.5983 C   0  0  0  0  0  0  0  0  0  0  0  0
    1.3097   -2.6347    0.8497 C   0  0  0  0  0  0  0  0  0  0  0  0
    1.9046   -0.6633    1.2779 H   0  0  0  0  0  0  0  0  0  0  0  0
    1.7357   -3.0711    1.7454 H   0  0  0  0  0  0  0  0  0  0  0  0
    0.8056   -3.3117    0.1701 H   0  0  0  0  0  0  0  0  0  0  0  0
   -0.6176    0.0145   -1.8659 C   0  0  0  0  0  0  0  0  0  0  0  0
   -0.6176    0.0145   -0.3473 C   0  0  0  0  0  3  0  0  0  0  0  0
   -0.6176    1.6719    0.3977 S   0  0  0  0  0  0  0  0  0  0  0  0
    0.2891    0.4799   -2.2567 H   0  0  0  0  0  0  0  0  0  0  0  0
   -1.4735    0.5657   -2.2560 H   0  0  0  0  0  0  0  0  0  0  0  0
   -0.6606   -1.0089   -2.2462 H   0  0  0  0  0  0  0  0  0  0  0  0
    0.3944   -0.6648    0.1269 H   0  0  0  0  0  0  0  0  0  0  0  0
   -1.5252   -0.4525    0.0379 H   0  0  0  0  0  0  0  0  0  0  0  0
    0.5572    2.0736   -0.1058 H   0  0  0  0  0  0  0  0  0  0  0  0
  1  2  2  3
  1  3  1  0
  1 12  1  0
  2  4  1  0
  2  5  1  0
  6  7  1  0
  6  9  1  0
  6 10  1  0
  6 11  1  0
  7  8  1  0
  7 13  1  0
  8 14  1  0
M  RAD  1   7   2
M  END
>  <reaction>  (10) 
rxn_1881

>  <mol_properties>  (10) 
{"0": {"label": "*3", "atom_type": "Cd"}, "1": {"label": "*4", "atom_type": "Cd"}, "6": {"label": "*1", "atom_type": "Cs"}, "7": {"label": "*0", "atom_type": "S2s"}, "11": {"label": "*2", "atom_type": "H0"}}

>  <type>  (10) 
unop_6

>  <geom_source>  (10) 
Heuristics

$$$$

     RDKit          3D

 14 12  0  0  0  0  0  0  0  0999 V2000
    1.4123   -1.3813    0.5156 C   0  0  0  0  0  0  0  0  0  0  0  0
    1.2361   -2.4368    1.2914 C   0  0  0  0  0  0  0  0  0  0  0  0
    2.1383   -0.6137    0.7564 H   0  0  0  0  0  0  0  0  0  0  0  0
    1.8107   -2.5771    2.1994 H   0  0  0  0  0  0  0  0  0  0  0  0
    0.5101   -3.2044    1.0506 H   0  0  0  0  0  0  0  0  0  0  0  0
   -0.6058   -0.0264   -1.9486 C   0  0  0  0  0  0  0  0  0  0  0  0
   -0.6058   -0.0264   -0.4299 C   0  0  0  0  0  3  0  0  0  0  0  0
   -0.6058    1.6309    0.3151 S   0  0  0  0  0  0  0  0  0  0  0  0
    0.3008    0.4390   -2.3393 H   0  0  0  0  0  0  0  0  0  0  0  0
   -1.4618    0.5248   -2.3387 H   0  0  0  0  0  0  0  0  0  0  0  0
   -0.6489   -1.0498   -2.3289 H   0  0  0  0  0  0  0  0  0  0  0  0
    0.4061   -0.7058    0.0442 H   0  0  0  0  0  0  0  0  0  0  0  0
   -1.5134   -0.4935   -0.0448 H   0  0  0  0  0  0  0  0  0  0  0  0
    0.5690    2.0326   -0.1885 H   0  0  0  0  0  0  0  0  0  0  0  0
  1  2  2  3
  1  3  1  0
  1 12  1  0
  2  4  1  0
  2  5  1  0
  6  7  1  0
  6  9  1  0
  6 10  1  0
  6 11  1  0
  7  8  1  0
  7 13  1  0
  8 14  1  0
M  RAD  1   7   2
M  END
>  <reaction>  (11) 
rxn_1881

>  <mol_properties>  (11) 
{"0": {"label": "*3", "atom_type": "Cd"}, "1": {"label": "*4", "atom_type": "Cd"}, "6": {"label": "*1", "atom_type": "Cs"}, "7": {"label": "*0", "atom_type": "S2s"}, "11": {"label": "*2", "atom_type": "H0"}}

>  <type>  (11) 
unop_7

>  <geom_source>  (11) 
Heuristics

$$$$

     RDKit          3D

 14 12  0  0  0  0  0  0  0  0999 V2000
    1.2015   -1.6368    0.5983 C   0  0  0  0  0  0  0  0  0  0  0  0
    2.3652   -1.0626    0.8497 C   0  0  0  0  0  0  0  0  0  0  0  0
    0.7658   -2.3597    1.2779 H   0  0  0  0  0  0  0  0  0  0  0  0
    2.9303   -1.2917    1.7454 H   0  0  0  0  0  0  0  0  0  0  0  0
    2.8009   -0.3397    0.1701 H   0  0  0  0  0  0  0  0  0  0  0  0
   -0.8166   -0.2820   -1.8659 C   0  0  0  0  0  0  0  0  0  0  0  0
   -0.8166   -0.2820   -0.3473 C   0  0  0  0  0  3  0  0  0  0  0  0
   -0.8166    1.3754    0.3977 S   0  0  0  0  0  0  0  0  0  0  0  0
    0.0901    0.1835   -2.2567 H   0  0  0  0  0  0  0  0  0  0  0  0
   -1.6726    0.2692   -2.2560 H   0  0  0  0  0  0  0  0  0  0  0  0
   -0.8597   -1.3053   -2.2462 H   0  0  0  0  0  0  0  0  0  0  0  0
    0.1953   -0.9613    0.1269 H   0  0  0  0  0  0  0  0  0  0  0  0
   -1.7242   -0.7490    0.0379 H   0  0  0  0  0  0  0  0  0  0  0  0
    0.3582    1.7771   -0.1058 H   0  0  0  0  0  0  0  0  0  0  0  0
  1  2  2  3
  1  3  1  0
  1 12  1  0
  2  4  1  0
  2  5  1  0
  6  7  1  0
  6  9  1  0
  6 10  1  0
  6 11  1  0
  7  8  1  0
  7 13  1  0
  8 14  1  0
M  RAD  1   7   2
M  END
>  <reaction>  (12) 
rxn_1881

>  <mol_properties>  (12) 
{"0": {"label": "*3", "atom_type": "Cd"}, "1": {"label": "*4", "atom_type": "Cd"}, "6": {"label": "*1", "atom_type": "Cs"}, "7": {"label": "*0", "atom_type": "S2s"}, "11": {"label": "*2", "atom_type": "H0"}}

>  <type>  (12) 
unop_8

>  <geom_source>  (12) 
Heuristics

$$$$

     RDKit          3D

 14 12  0  0  0  0  0  0  0  0999 V2000
    1.3027   -1.3795    0.7458 C   0  0  0  0  0  0  0  0  0  0  0  0
    1.8188   -2.4037    0.0890 C   0  0  0  0  0  0  0  0  0  0  0  0
    1.4896   -1.2296    1.8026 H   0  0  0  0  0  0  0  0  0  0  0  0
    2.4498   -3.1347    0.5808 H   0  0  0  0  0  0  0  0  0  0  0  0
    1.6318   -2.5537   -0.9678 H   0  0  0  0  0  0  0  0  0  0  0  0
   -0.7154   -0.0247   -1.7184 C   0  0  0  0  0  0  0  0  0  0  0  0
   -0.7154   -0.0247   -0.1997 C   0  0  0  0  0  3  0  0  0  0  0  0
   -0.7154    1.6327    0.5453 S   0  0  0  0  0  0  0  0  0  0  0  0
    0.1912    0.4407   -2.1091 H   0  0  0  0  0  0  0  0  0  0  0  0
   -1.5714    0.5265   -2.1085 H   0  0  0  0  0  0  0  0  0  0  0  0
   -0.7585   -1.0481   -2.0987 H   0  0  0  0  0  0  0  0  0  0  0  0
    0.2965   -0.7040    0.2744 H   0  0  0  0  0  0  0  0  0  0  0  0
   -1.6230   -0.4917    0.1854 H   0  0  0  0  0  0  0  0  0  0  0  0
    0.4594    2.0344    0.0417 H   0  0  0  0  0  0  0  0  0  0  0  0
  1  2  2  3
  1  3  1  0
  1 12  1  0
  2  4  1  0
  2  5  1  0
  6  7  1  0
  6  9  1  0
  6 10  1  0
  6 11  1  0
  7  8  1  0
  7 13  1  0
  8 14  1  0
M  RAD  1   7   2
M  END
>  <reaction>  (13) 
rxn_1881

>  <mol_properties>  (13) 
{"0": {"label": "*3", "atom_type": "Cd"}, "1": {"label": "*4", "atom_type": "Cd"}, "6": {"label": "*1", "atom_type": "Cs"}, "7": {"label": "*0", "atom_type": "S2s"}, "11": {"label": "*2", "atom_type": "H0"}}

>  <type>  (13) 
unop_9

>  <geom_source>  (13) 
Heuristics

$$$$

     RDKit          3D

 14 12  0  0  0  0  0  0  0  0999 V2000
    1.1854   -1.5999    0.6829 C   0  0  0  0  0  0  0  0  0  0  0  0
    2.4344   -1.2647    0.4099 C   0  0  0  0  0  0  0  0  0  0  0  0
    0.9118   -2.0507    1.6296 H   0  0  0  0  0  0  0  0  0  0  0  0
    3.2351   -1.4271    1.1218 H   0  0  0  0  0  0  0  0  0  0  0  0
    2.7079   -0.8139   -0.5368 H   0  0  0  0  0  0  0  0  0  0  0  0
   -0.8327   -0.2451   -1.7813 C   0  0  0  0  0  0  0  0  0  0  0  0
   -0.8327   -0.2451   -0.2626 C   0  0  0  0  0  3  0  0  0  0  0  0
   -0.8327    1.4122    0.4823 S   0  0  0  0  0  0  0  0  0  0  0  0
    0.0740    0.2203   -2.1721 H   0  0  0  0  0  0  0  0  0  0  0  0
   -1.6886    0.3061   -2.1714 H   0  0  0  0  0  0  0  0  0  0  0  0
   -0.8758   -1.2685   -2.1616 H   0  0  0  0  0  0  0  0  0  0  0  0
    0.1792   -0.9245    0.2115 H   0  0  0  0  0  0  0  0  0  0  0  0
   -1.7403   -0.7122    0.1225 H   0  0  0  0  0  0  0  0  0  0  0  0
    0.3421    1.8139   -0.0212 H   0  0  0  0  0  0  0  0  0  0  0  0
  1  2  2  3
  1  3  1  0
  1 12  1  0
  2  4  1  0
  2  5  1  0
  6  7  1  0
  6  9  1  0
  6 10  1  0
  6 11  1  0
  7  8  1  0
  7 13  1  0
  8 14  1  0
M  RAD  1   7   2
M  END
>  <reaction>  (14) 
rxn_1881

>  <mol_properties>  (14) 
{"0": {"label": "*3", "atom_type": "Cd"}, "1": {"label": "*4", "atom_type": "Cd"}, "6": {"label": "*1", "atom_type": "Cs"}, "7": {"label": "*0", "atom_type": "S2s"}, "11": {"label": "*2", "atom_type": "H0"}}

>  <type>  (14) 
unop_10

>  <geom_source>  (14) 
Heuristics

$$$$

     RDKit          3D

 14 12  0  0  0  0  0  0  0  0999 V2000
    1.3926   -1.4493    0.4578 C   0  0  0  0  0  0  0  0  0  0  0  0
    1.3221   -2.0796    1.6174 C   0  0  0  0  0  0  0  0  0  0  0  0
    2.2990   -0.9499    0.1366 H   0  0  0  0  0  0  0  0  0  0  0  0
    2.1678   -2.1224    2.2935 H   0  0  0  0  0  0  0  0  0  0  0  0
    0.4156   -2.5791    1.9387 H   0  0  0  0  0  0  0  0  0  0  0  0
   -0.6255   -0.0945   -2.0064 C   0  0  0  0  0  0  0  0  0  0  0  0
   -0.6255   -0.0945   -0.4877 C   0  0  0  0  0  3  0  0  0  0  0  0
   -0.6255    1.5629    0.2573 S   0  0  0  0  0  0  0  0  0  0  0  0
    0.2811    0.3709   -2.3971 H   0  0  0  0  0  0  0  0  0  0  0  0
   -1.4815    0.4567   -2.3965 H   0  0  0  0  0  0  0  0  0  0  0  0
   -0.6686   -1.1178   -2.3867 H   0  0  0  0  0  0  0  0  0  0  0  0
    0.3864   -0.7738   -0.0136 H   0  0  0  0  0  0  0  0  0  0  0  0
   -1.5331   -0.5615   -0.1026 H   0  0  0  0  0  0  0  0  0  0  0  0
    0.5493    1.9646   -0.2463 H   0  0  0  0  0  0  0  0  0  0  0  0
  1  2  2  3
  1  3  1  0
  1 12  1  0
  2  4  1  0
  2  5  1  0
  6  7  1  0
  6  9  1  0
  6 10  1  0
  6 11  1  0
  7  8  1  0
  7 13  1  0
  8 14  1  0
M  RAD  1   7   2
M  END
>  <reaction>  (15) 
rxn_1881

>  <mol_properties>  (15) 
{"0": {"label": "*3", "atom_type": "Cd"}, "1": {"label": "*4", "atom_type": "Cd"}, "6": {"label": "*1", "atom_type": "Cs"}, "7": {"label": "*0", "atom_type": "S2s"}, "11": {"label": "*2", "atom_type": "H0"}}

>  <type>  (15) 
unop_11

>  <geom_source>  (15) 
Heuristics

$$$$

     RDKit          3D

 14 12  0  0  0  0  0  0  0  0999 V2000
    1.2438   -1.4501    0.7691 C   0  0  0  0  0  0  0  0  0  0  0  0
    2.1190   -2.0377   -0.0283 C   0  0  0  0  0  0  0  0  0  0  0  0
    1.3296   -1.5077    1.8478 H   0  0  0  0  0  0  0  0  0  0  0  0
    2.9574   -2.6006    0.3646 H   0  0  0  0  0  0  0  0  0  0  0  0
    2.0332   -1.9801   -1.1070 H   0  0  0  0  0  0  0  0  0  0  0  0
   -0.7743   -0.0953   -1.6951 C   0  0  0  0  0  0  0  0  0  0  0  0
   -0.7743   -0.0953   -0.1765 C   0  0  0  0  0  3  0  0  0  0  0  0
   -0.7743    1.5620    0.5685 S   0  0  0  0  0  0  0  0  0  0  0  0
    0.1324    0.3701   -2.0859 H   0  0  0  0  0  0  0  0  0  0  0  0
   -1.6302    0.4559   -2.0853 H   0  0  0  0  0  0  0  0  0  0  0  0
   -0.8173   -1.1187   -2.0754 H   0  0  0  0  0  0  0  0  0  0  0  0
    0.2376   -0.7747    0.2976 H   0  0  0  0  0  0  0  0  0  0  0  0
   -1.6819   -0.5624    0.2086 H   0  0  0  0  0  0  0  0  0  0  0  0
    0.4005    1.9637    0.0650 H   0  0  0  0  0  0  0  0  0  0  0  0
  1  2  2  3
  1  3  1  0
  1 12  1  0
  2  4  1  0
  2  5  1  0
  6  7  1  0
  6  9  1  0
  6 10  1  0
  6 11  1  0
  7  8  1  0
  7 13  1  0
  8 14  1  0
M  RAD  1   7   2
M  END
>  <reaction>  (16) 
rxn_1881

>  <mol_properties>  (16) 
{"0": {"label": "*3", "atom_type": "Cd"}, "1": {"label": "*4", "atom_type": "Cd"}, "6": {"label": "*1", "atom_type": "Cs"}, "7": {"label": "*0", "atom_type": "S2s"}, "11": {"label": "*2", "atom_type": "H0"}}

>  <type>  (16) 
unop_12

>  <geom_source>  (16) 
Heuristics

$$$$

     RDKit          3D

 14 12  0  0  0  0  0  0  0  0999 V2000
   -1.7708    0.5628    1.6194 S   0  0  0  0  0  0  0  0  0  0  0  0
   -1.5848   -0.7616   -0.7846 C   0  0  0  0  0  0  0  0  0  0  0  0
   -0.8612   -0.5847    0.5408 C   0  0  0  0  0  3  0  0  0  0  0  0
    2.5920    0.3401   -0.1175 C   0  0  0  0  0  0  0  0  0  0  0  0
    1.3436    0.7211    0.1411 C   0  0  0  0  0  0  0  0  0  0  0  0
   -1.0150   -1.4678   -1.4235 H   0  0  0  0  0  0  0  0  0  0  0  0
   -2.6037   -1.1697   -0.6145 H   0  0  0  0  0  0  0  0  0  0  0  0
   -1.6592    0.2133   -1.3104 H   0  0  0  0  0  0  0  0  0  0  0  0
   -0.7647   -1.5668    1.0498 H   0  0  0  0  0  0  0  0  0  0  0  0
    3.3182    1.0579   -0.4851 H   0  0  0  0  0  0  0  0  0  0  0  0
    2.8899   -0.6914    0.0382 H   0  0  0  0  0  0  0  0  0  0  0  0
    1.0431    1.7523   -0.0137 H   0  0  0  0  0  0  0  0  0  0  0  0
    0.5383   -0.0792    0.5497 H   0  0  0  0  0  0  0  0  0  0  0  0
   -1.4656    1.6738    0.8105 H   0  0  0  0  0  0  0  0  0  0  0  0
  1  3  1  0
  1 14  1  0
  2  3  1  0
  2  6  1  0
  2  7  1  0
  2  8  1  0
  3  9  1  0
  4  5  2  3
  4 10  1  0
  4 11  1  0
  5 12  1  0
  5 13  1  0
M  RAD  1   3   2
M  END
>  <reaction>  (17) 
rxn_1881

>  <mol_properties>  (17) 
{"0": {"label": "*3", "atom_type": "Cd"}, "1": {"label": "*4", "atom_type": "Cd"}, "6": {"label": "*1", "atom_type": "Cs"}, "7": {"label": "*0", "atom_type": "S2s"}, "11": {"label": "*2", "atom_type": "H0"}}

>  <type>  (17) 
unop_13

>  <geom_source>  (17) 
AutoTST

$$$$
