
     RDKit          3D

 12 11  0  0  0  0  0  0  0  0999 V2000
    2.1696    0.6854    1.1310 C   0  0  0  0  0  0  0  0  0  0  0  0
    1.2518    0.4145    0.4134 C   0  0  0  0  0  0  0  0  0  0  0  0
    0.1391    0.0443   -0.4683 C   0  0  0  0  0  0  0  0  0  0  0  0
   -0.2054   -1.4492   -0.3339 C   0  0  0  0  0  0  0  0  0  0  0  0
   -1.0375    0.8853   -0.2222 C   0  0  0  0  0  0  0  0  0  0  0  0
   -2.0160    1.5463   -0.0311 C   0  0  0  0  0  0  0  0  0  0  0  0
    2.9819    0.9356    1.7702 H   0  0  0  0  0  0  0  0  0  0  0  0
    0.4629    0.2285   -1.4981 H   0  0  0  0  0  0  0  0  0  0  0  0
   -0.5327   -1.6703    0.6812 H   0  0  0  0  0  0  0  0  0  0  0  0
    0.6727   -2.0535   -0.5593 H   0  0  0  0  0  0  0  0  0  0  0  0
   -1.0064   -1.7081   -1.0256 H   0  0  0  0  0  0  0  0  0  0  0  0
   -2.8802    2.1413    0.1426 H   0  0  0  0  0  0  0  0  0  0  0  0
  1  2  3  0
  1  7  1  0
  2  3  1  0
  3  4  1  0
  3  5  1  0
  3  8  1  0
  4  9  1  0
  4 10  1  0
  4 11  1  0
  5  6  3  0
  6 12  1  0
M  END
>  <reaction>  (1) 
rxn_1401

>  <mol_properties>  (1) 
{"2": {"label": "donator", "atom_type": "Cs"}, "7": {"label": "d_hydrogen", "atom_type": "H0"}}

>  <type>  (1) 
r1h

$$$$

     RDKit          3D

 12 11  0  0  0  0  0  0  0  0999 V2000
    2.5164   -0.5559   -0.0242 C   0  0  0  0  0  0  0  0  0  0  0  0
    1.3287   -0.2938   -0.0132 C   0  0  0  0  0  0  0  0  0  0  0  0
   -0.0146    0.0027   -0.0006 C   0  0  0  0  0  3  0  0  0  0  0  0
   -1.0396   -1.0729   -0.1642 C   0  0  0  0  0  0  0  0  0  0  0  0
   -0.4887    1.4091    0.1769 C   0  0  0  0  0  0  0  0  0  0  0  0
    3.5543   -0.7850   -0.0339 H   0  0  0  0  0  0  0  0  0  0  0  0
   -1.7064   -1.1056    0.7044 H   0  0  0  0  0  0  0  0  0  0  0  0
   -0.5831   -2.0533   -0.2854 H   0  0  0  0  0  0  0  0  0  0  0  0
   -1.6716   -0.8741   -1.0367 H   0  0  0  0  0  0  0  0  0  0  0  0
   -1.0951    1.7228   -0.6798 H   0  0  0  0  0  0  0  0  0  0  0  0
    0.3401    2.1059    0.2861 H   0  0  0  0  0  0  0  0  0  0  0  0
   -1.1300    1.4913    1.0613 H   0  0  0  0  0  0  0  0  0  0  0  0
  1  2  3  0
  1  6  1  0
  2  3  1  0
  3  4  1  0
  3  5  1  0
  4  7  1  0
  4  8  1  0
  4  9  1  0
  5 10  1  0
  5 11  1  0
  5 12  1  0
M  RAD  1   3   2
M  END
>  <reaction>  (2) 
rxn_1401

>  <mol_properties>  (2) 
{"2": {"label": "acceptor", "atom_type": "Cs"}}

>  <type>  (2) 
r2

$$$$

     RDKit          3D

 13 12  0  0  0  0  0  0  0  0999 V2000
    2.2975   -0.6134    0.7685 C   0  0  0  0  0  0  0  0  0  0  0  0
    1.1676   -0.5248    0.3802 C   0  0  0  0  0  0  0  0  0  0  0  0
   -0.2109   -0.3926   -0.0948 C   0  0  0  0  0  0  0  0  0  0  0  0
   -0.2501    0.2584   -1.4808 C   0  0  0  0  0  0  0  0  0  0  0  0
   -1.0633    0.3831    0.9141 C   0  0  0  0  0  0  0  0  0  0  0  0
    3.2999   -0.6974    1.1133 H   0  0  0  0  0  0  0  0  0  0  0  0
   -0.6209   -1.4038   -0.1814 H   0  0  0  0  0  0  0  0  0  0  0  0
    0.3402   -0.3102   -2.1992 H   0  0  0  0  0  0  0  0  0  0  0  0
    0.1511    1.2724   -1.4369 H   0  0  0  0  0  0  0  0  0  0  0  0
   -1.2791    0.3109   -1.8407 H   0  0  0  0  0  0  0  0  0  0  0  0
   -0.6861    1.4008    1.0287 H   0  0  0  0  0  0  0  0  0  0  0  0
   -1.0492   -0.0971    1.8924 H   0  0  0  0  0  0  0  0  0  0  0  0
   -2.0971    0.4363    0.5680 H   0  0  0  0  0  0  0  0  0  0  0  0
  1  2  3  0
  1  6  1  0
  2  3  1  0
  3  4  1  0
  3  5  1  0
  3  7  1  0
  4  8  1  0
  4  9  1  0
  4 10  1  0
  5 11  1  0
  5 12  1  0
  5 13  1  0
M  END
>  <reaction>  (3) 
rxn_1401

>  <mol_properties>  (3) 
{"0": {"label": "a_hydrogen", "atom_type": "H0"}, "3": {"label": "acceptor", "atom_type": "Cs"}}

>  <type>  (3) 
r2h

$$$$

     RDKit          3D

 24 22  0  0  0  0  0  0  0  0999 V2000
   -1.1080   -1.1809   -2.3574 C   0  0  0  0  0  0  0  0  0  0  0  0
   -1.1882   -0.5684   -1.3284 C   0  0  0  0  0  0  0  0  0  0  0  0
   -1.2095    0.1890   -0.1078 C   0  0  0  0  0  0  0  0  0  0  0  0
   -1.4555    1.6822   -0.2723 C   0  0  0  0  0  0  0  0  0  0  0  0
   -1.8977   -0.4377    0.9871 C   0  0  0  0  0  0  0  0  0  0  0  0
   -2.4282   -0.9408    1.9395 C   0  0  0  0  0  0  0  0  0  0  0  0
   -1.0539   -1.7265   -3.2683 H   0  0  0  0  0  0  0  0  0  0  0  0
    0.0611    0.1700    0.2681 H   0  0  0  0  0  0  0  0  0  0  0  0
   -2.4639    1.8701   -0.6449 H   0  0  0  0  0  0  0  0  0  0  0  0
   -0.7365    2.0966   -0.9791 H   0  0  0  0  0  0  0  0  0  0  0  0
   -1.3405    2.1857    0.6874 H   0  0  0  0  0  0  0  0  0  0  0  0
   -2.9169   -1.3918    2.7692 H   0  0  0  0  0  0  0  0  0  0  0  0
    2.5699    1.5513   -1.1511 C   0  0  0  0  0  0  0  0  0  0  0  0
    2.0424    0.8971   -0.2892 C   0  0  0  0  0  0  0  0  0  0  0  0
    1.3606    0.1339    0.7010 C   0  0  0  0  0  3  0  0  0  0  0  0
    1.2601    0.7644    2.0717 C   0  0  0  0  0  0  0  0  0  0  0  0
    1.6130   -1.3566    0.6807 C   0  0  0  0  0  0  0  0  0  0  0  0
    3.0487    2.1235   -1.9086 H   0  0  0  0  0  0  0  0  0  0  0  0
    0.4930    0.2588    2.6612 H   0  0  0  0  0  0  0  0  0  0  0  0
    1.0100    1.8230    2.0039 H   0  0  0  0  0  0  0  0  0  0  0  0
    2.2118    0.6755    2.6045 H   0  0  0  0  0  0  0  0  0  0  0  0
    2.6085   -1.5833    1.0739 H   0  0  0  0  0  0  0  0  0  0  0  0
    1.5457   -1.7509   -0.3328 H   0  0  0  0  0  0  0  0  0  0  0  0
    0.8759   -1.8677    1.3030 H   0  0  0  0  0  0  0  0  0  0  0  0
  1  2  3  0
  1  7  1  0
  2  3  1  0
  3  4  1  0
  3  5  1  0
  3  8  1  0
  4  9  1  0
  4 10  1  0
  4 11  1  0
  5  6  3  0
  6 12  1  0
 13 14  3  0
 13 18  1  0
 14 15  1  0
 15 16  1  0
 15 17  1  0
 16 19  1  0
 16 20  1  0
 16 21  1  0
 17 22  1  0
 17 23  1  0
 17 24  1  0
M  RAD  1  15   2
M  END
>  <reaction>  (4) 
rxn_1401

>  <mol_properties>  (4) 
{"1": {"label": "*0", "atom_type": "Ct"}, "2": {"label": "*1", "atom_type": "Cs"}, "7": {"label": "*2", "atom_type": "H0"}, "13": {"label": "*4", "atom_type": "Ct"}, "14": {"label": "*3", "atom_type": "Cs"}}

>  <type>  (4) 
ts

$$$$

     RDKit          3D

 24 22  0  0  0  0  0  0  0  0999 V2000
   -1.0571    0.0123   -3.0853 C   0  0  0  0  0  0  0  0  0  0  0  0
   -1.0571    0.0123   -1.8891 C   0  0  0  0  0  0  0  0  0  0  0  0
   -1.0571    0.0524   -0.4225 C   0  0  0  0  0  3  0  0  0  0  0  0
   -1.6951    1.3516    0.0995 C   0  0  0  0  0  0  0  0  0  0  0  0
   -1.7189   -1.1289    0.1422 C   0  0  0  0  0  0  0  0  0  0  0  0
   -2.2671   -2.0741    0.6287 C   0  0  0  0  0  0  0  0  0  0  0  0
   -1.0571    0.0123   -4.1487 H   0  0  0  0  0  0  0  0  0  0  0  0
    0.1965    0.0251   -0.0294 H   0  0  0  0  0  0  0  0  0  0  0  0
   -2.7383    1.4088   -0.2083 H   0  0  0  0  0  0  0  0  0  0  0  0
   -1.1625    2.2130   -0.3022 H   0  0  0  0  0  0  0  0  0  0  0  0
   -1.6479    1.3760    1.1877 H   0  0  0  0  0  0  0  0  0  0  0  0
   -2.7546   -2.9146    1.0612 H   0  0  0  0  0  0  0  0  0  0  0  0
    1.8972    2.2172    1.7638 C   0  0  0  0  0  0  0  0  0  0  0  0
    1.6896    1.2240    1.1268 C   0  0  0  0  0  0  0  0  0  0  0  0
    1.4497   -0.0021    0.3636 C   0  0  0  0  0  0  0  0  0  0  0  0
    0.7344   -1.0486    1.2235 C   0  0  0  0  0  0  0  0  0  0  0  0
    2.7583   -0.5496   -0.2143 C   0  0  0  0  0  0  0  0  0  0  0  0
    2.0815    3.0987    2.3292 H   0  0  0  0  0  0  0  0  0  0  0  0
    0.5233   -1.9399    0.6299 H   0  0  0  0  0  0  0  0  0  0  0  0
   -0.2065   -0.6607    1.6135 H   0  0  0  0  0  0  0  0  0  0  0  0
    1.3600   -1.3388    2.0693 H   0  0  0  0  0  0  0  0  0  0  0  0
    3.4437   -0.8251    0.5892 H   0  0  0  0  0  0  0  0  0  0  0  0
    3.2514    0.1918   -0.8428 H   0  0  0  0  0  0  0  0  0  0  0  0
    2.5590   -1.4380   -0.8161 H   0  0  0  0  0  0  0  0  0  0  0  0
  1  2  3  0
  1  7  1  0
  2  3  1  0
  3  4  1  0
  3  5  1  0
  4  9  1  0
  4 10  1  0
  4 11  1  0
  5  6  3  0
  6 12  1  0
  8 15  1  0
 13 14  3  0
 13 18  1  0
 14 15  1  0
 15 16  1  0
 15 17  1  0
 16 19  1  0
 16 20  1  0
 16 21  1  0
 17 22  1  0
 17 23  1  0
 17 24  1  0
M  RAD  1   3   2
M  END
>  <reaction>  (5) 
rxn_1401

>  <mol_properties>  (5) 
{"1": {"label": "*0", "atom_type": "Ct"}, "2": {"label": "*1", "atom_type": "Cs"}, "7": {"label": "*2", "atom_type": "H0"}, "13": {"label": "*4", "atom_type": "Ct"}, "14": {"label": "*3", "atom_type": "Cs"}}

>  <type>  (5) 
unop_1

>  <geom_source>  (5) 
Heuristics

$$$$

     RDKit          3D

 24 22  0  0  0  0  0  0  0  0999 V2000
   -1.1765    0.0167   -2.7801 C   0  0  0  0  0  0  0  0  0  0  0  0
   -1.1765    0.0167   -1.5840 C   0  0  0  0  0  0  0  0  0  0  0  0
   -1.1765    0.0568   -0.1174 C   0  0  0  0  0  3  0  0  0  0  0  0
   -1.8145    1.3560    0.4046 C   0  0  0  0  0  0  0  0  0  0  0  0
   -1.8383   -1.1244    0.4474 C   0  0  0  0  0  0  0  0  0  0  0  0
   -2.3866   -2.0697    0.9338 C   0  0  0  0  0  0  0  0  0  0  0  0
   -1.1765    0.0167   -3.8436 H   0  0  0  0  0  0  0  0  0  0  0  0
    0.0771    0.0296    0.2757 H   0  0  0  0  0  0  0  0  0  0  0  0
   -2.8578    1.4133    0.0968 H   0  0  0  0  0  0  0  0  0  0  0  0
   -1.2819    2.2174    0.0029 H   0  0  0  0  0  0  0  0  0  0  0  0
   -1.7673    1.3804    1.4928 H   0  0  0  0  0  0  0  0  0  0  0  0
   -2.8740   -2.9101    1.3664 H   0  0  0  0  0  0  0  0  0  0  0  0
    2.7896    1.1819   -1.2194 C   0  0  0  0  0  0  0  0  0  0  0  0
    2.1248    0.6497   -0.3767 C   0  0  0  0  0  0  0  0  0  0  0  0
    1.3303    0.0023    0.6687 C   0  0  0  0  0  0  0  0  0  0  0  0
    1.0567    0.9702    1.8239 C   0  0  0  0  0  0  0  0  0  0  0  0
    2.0135   -1.2780    1.1588 C   0  0  0  0  0  0  0  0  0  0  0  0
    3.3797    1.6543   -1.9674 H   0  0  0  0  0  0  0  0  0  0  0  0
    0.4278    0.4887    2.5748 H   0  0  0  0  0  0  0  0  0  0  0  0
    0.5508    1.8693    1.4723 H   0  0  0  0  0  0  0  0  0  0  0  0
    1.9922    1.2697    2.2996 H   0  0  0  0  0  0  0  0  0  0  0  0
    2.9772   -1.0449    1.6149 H   0  0  0  0  0  0  0  0  0  0  0  0
    2.1854   -1.9718    0.3360 H   0  0  0  0  0  0  0  0  0  0  0  0
    1.3901   -1.7725    1.9058 H   0  0  0  0  0  0  0  0  0  0  0  0
  1  2  3  0
  1  7  1  0
  2  3  1  0
  3  4  1  0
  3  5  1  0
  4  9  1  0
  4 10  1  0
  4 11  1  0
  5  6  3  0
  6 12  1  0
  8 15  1  0
 13 14  3  0
 13 18  1  0
 14 15  1  0
 15 16  1  0
 15 17  1  0
 16 19  1  0
 16 20  1  0
 16 21  1  0
 17 22  1  0
 17 23  1  0
 17 24  1  0
M  RAD  1   3   2
M  END
>  <reaction>  (6) 
rxn_1401

>  <mol_properties>  (6) 
{"1": {"label": "*0", "atom_type": "Ct"}, "2": {"label": "*1", "atom_type": "Cs"}, "7": {"label": "*2", "atom_type": "H0"}, "13": {"label": "*4", "atom_type": "Ct"}, "14": {"label": "*3", "atom_type": "Cs"}}

>  <type>  (6) 
unop_2

>  <geom_source>  (6) 
Heuristics

$$$$

     RDKit          3D

 24 22  0  0  0  0  0  0  0  0999 V2000
   -1.0613    0.1000   -3.1158 C   0  0  0  0  0  0  0  0  0  0  0  0
   -1.0613    0.1000   -1.9196 C   0  0  0  0  0  0  0  0  0  0  0  0
   -1.0613    0.1401   -0.4531 C   0  0  0  0  0  3  0  0  0  0  0  0
   -1.6993    1.4393    0.0689 C   0  0  0  0  0  0  0  0  0  0  0  0
   -1.7231   -1.0411    0.1117 C   0  0  0  0  0  0  0  0  0  0  0  0
   -2.2714   -1.9864    0.5982 C   0  0  0  0  0  0  0  0  0  0  0  0
   -1.0613    0.1000   -4.1792 H   0  0  0  0  0  0  0  0  0  0  0  0
    0.1923    0.1129   -0.0599 H   0  0  0  0  0  0  0  0  0  0  0  0
   -2.7426    1.4966   -0.2388 H   0  0  0  0  0  0  0  0  0  0  0  0
   -1.1667    2.3007   -0.3327 H   0  0  0  0  0  0  0  0  0  0  0  0
   -1.6521    1.4638    1.1572 H   0  0  0  0  0  0  0  0  0  0  0  0
   -2.7588   -2.8268    1.0307 H   0  0  0  0  0  0  0  0  0  0  0  0
    1.5913    1.4069    2.6394 C   0  0  0  0  0  0  0  0  0  0  0  0
    1.5170    0.8181    1.5987 C   0  0  0  0  0  0  0  0  0  0  0  0
    1.4454    0.0856    0.3331 C   0  0  0  0  0  0  0  0  0  0  0  0
    1.1980   -1.4058    0.5794 C   0  0  0  0  0  0  0  0  0  0  0  0
    2.7090    0.3147   -0.5018 C   0  0  0  0  0  0  0  0  0  0  0  0
    1.6573    1.9294    3.5631 H   0  0  0  0  0  0  0  0  0  0  0  0
    1.1036   -1.9317   -0.3723 H   0  0  0  0  0  0  0  0  0  0  0  0
    0.2859   -1.5634    1.1549 H   0  0  0  0  0  0  0  0  0  0  0  0
    2.0303   -1.8436    1.1332 H   0  0  0  0  0  0  0  0  0  0  0  0
    3.5858   -0.0724    0.0201 H   0  0  0  0  0  0  0  0  0  0  0  0
    2.8675    1.3761   -0.6924 H   0  0  0  0  0  0  0  0  0  0  0  0
    2.6233   -0.2012   -1.4598 H   0  0  0  0  0  0  0  0  0  0  0  0
  1  2  3  0
  1  7  1  0
  2  3  1  0
  3  4  1  0
  3  5  1  0
  4  9  1  0
  4 10  1  0
  4 11  1  0
  5  6  3  0
  6 12  1  0
  8 15  1  0
 13 14  3  0
 13 18  1  0
 14 15  1  0
 15 16  1  0
 15 17  1  0
 16 19  1  0
 16 20  1  0
 16 21  1  0
 17 22  1  0
 17 23  1  0
 17 24  1  0
M  RAD  1   3   2
M  END
>  <reaction>  (7) 
rxn_1401

>  <mol_properties>  (7) 
{"1": {"label": "*0", "atom_type": "Ct"}, "2": {"label": "*1", "atom_type": "Cs"}, "7": {"label": "*2", "atom_type": "H0"}, "13": {"label": "*4", "atom_type": "Ct"}, "14": {"label": "*3", "atom_type": "Cs"}}

>  <type>  (7) 
unop_3

>  <geom_source>  (7) 
Heuristics

$$$$

     RDKit          3D

 24 22  0  0  0  0  0  0  0  0999 V2000
   -1.1188    0.3625   -2.8938 C   0  0  0  0  0  0  0  0  0  0  0  0
   -1.1188    0.3625   -1.6977 C   0  0  0  0  0  0  0  0  0  0  0  0
   -1.1188    0.4026   -0.2311 C   0  0  0  0  0  3  0  0  0  0  0  0
   -1.7568    1.7018    0.2909 C   0  0  0  0  0  0  0  0  0  0  0  0
   -1.7806   -0.7787    0.3337 C   0  0  0  0  0  0  0  0  0  0  0  0
   -2.3289   -1.7240    0.8202 C   0  0  0  0  0  0  0  0  0  0  0  0
   -1.1188    0.3625   -3.9573 H   0  0  0  0  0  0  0  0  0  0  0  0
    0.1348    0.3753    0.1620 H   0  0  0  0  0  0  0  0  0  0  0  0
   -2.8001    1.7590   -0.0169 H   0  0  0  0  0  0  0  0  0  0  0  0
   -1.2242    2.5632   -0.1108 H   0  0  0  0  0  0  0  0  0  0  0  0
   -1.7096    1.7262    1.3791 H   0  0  0  0  0  0  0  0  0  0  0  0
   -2.8163   -2.5644    1.2527 H   0  0  0  0  0  0  0  0  0  0  0  0
    2.4614   -1.9146   -0.3473 C   0  0  0  0  0  0  0  0  0  0  0  0
    1.9718   -0.8959    0.0501 C   0  0  0  0  0  0  0  0  0  0  0  0
    1.3879    0.3481    0.5550 C   0  0  0  0  0  0  0  0  0  0  0  0
    2.4486    1.4490    0.6504 C   0  0  0  0  0  0  0  0  0  0  0  0
    0.6948    0.1181    1.9015 C   0  0  0  0  0  0  0  0  0  0  0  0
    2.8959   -2.8187   -0.7001 H   0  0  0  0  0  0  0  0  0  0  0  0
    1.9912    2.3814    0.9863 H   0  0  0  0  0  0  0  0  0  0  0  0
    2.9226    1.6233   -0.3155 H   0  0  0  0  0  0  0  0  0  0  0  0
    3.2245    1.1696    1.3652 H   0  0  0  0  0  0  0  0  0  0  0  0
    1.4190   -0.2006    2.6532 H   0  0  0  0  0  0  0  0  0  0  0  0
   -0.0737   -0.6506    1.8220 H   0  0  0  0  0  0  0  0  0  0  0  0
    0.2273    1.0427    2.2445 H   0  0  0  0  0  0  0  0  0  0  0  0
  1  2  3  0
  1  7  1  0
  2  3  1  0
  3  4  1  0
  3  5  1  0
  4  9  1  0
  4 10  1  0
  4 11  1  0
  5  6  3  0
  6 12  1  0
  8 15  1  0
 13 14  3  0
 13 18  1  0
 14 15  1  0
 15 16  1  0
 15 17  1  0
 16 19  1  0
 16 20  1  0
 16 21  1  0
 17 22  1  0
 17 23  1  0
 17 24  1  0
M  RAD  1   3   2
M  END
>  <reaction>  (8) 
rxn_1401

>  <mol_properties>  (8) 
{"1": {"label": "*0", "atom_type": "Ct"}, "2": {"label": "*1", "atom_type": "Cs"}, "7": {"label": "*2", "atom_type": "H0"}, "13": {"label": "*4", "atom_type": "Ct"}, "14": {"label": "*3", "atom_type": "Cs"}}

>  <type>  (8) 
unop_4

>  <geom_source>  (8) 
Heuristics

$$$$

     RDKit          3D

 24 22  0  0  0  0  0  0  0  0999 V2000
   -1.0774    0.1429   -3.1109 C   0  0  0  0  0  0  0  0  0  0  0  0
   -1.0774    0.1429   -1.9148 C   0  0  0  0  0  0  0  0  0  0  0  0
   -1.0774    0.1830   -0.4482 C   0  0  0  0  0  3  0  0  0  0  0  0
   -1.7155    1.4822    0.0738 C   0  0  0  0  0  0  0  0  0  0  0  0
   -1.7393   -0.9983    0.1165 C   0  0  0  0  0  0  0  0  0  0  0  0
   -2.2875   -1.9435    0.6030 C   0  0  0  0  0  0  0  0  0  0  0  0
   -1.0774    0.1429   -4.1744 H   0  0  0  0  0  0  0  0  0  0  0  0
    0.1762    0.1557   -0.0551 H   0  0  0  0  0  0  0  0  0  0  0  0
   -2.7587    1.5395   -0.2340 H   0  0  0  0  0  0  0  0  0  0  0  0
   -1.1829    2.3436   -0.3279 H   0  0  0  0  0  0  0  0  0  0  0  0
   -1.6683    1.5066    1.1620 H   0  0  0  0  0  0  0  0  0  0  0  0
   -2.7749   -2.7840    1.0355 H   0  0  0  0  0  0  0  0  0  0  0  0
    1.4389    0.2009    2.9989 C   0  0  0  0  0  0  0  0  0  0  0  0
    1.4238    0.1687    1.8013 C   0  0  0  0  0  0  0  0  0  0  0  0
    1.4293    0.1285    0.3379 C   0  0  0  0  0  0  0  0  0  0  0  0
    2.0603   -1.1717   -0.1696 C   0  0  0  0  0  0  0  0  0  0  0  0
    2.1370    1.3585   -0.2388 C   0  0  0  0  0  0  0  0  0  0  0  0
    1.4523    0.2296    4.0617 H   0  0  0  0  0  0  0  0  0  0  0  0
    2.0183   -1.2075   -1.2597 H   0  0  0  0  0  0  0  0  0  0  0  0
    1.5387   -2.0428    0.2265 H   0  0  0  0  0  0  0  0  0  0  0  0
    3.1061   -1.2324    0.1365 H   0  0  0  0  0  0  0  0  0  0  0  0
    3.1850    1.3724    0.0653 H   0  0  0  0  0  0  0  0  0  0  0  0
    1.6697    2.2799    0.1084 H   0  0  0  0  0  0  0  0  0  0  0  0
    2.0954    1.3373   -1.3292 H   0  0  0  0  0  0  0  0  0  0  0  0
  1  2  3  0
  1  7  1  0
  2  3  1  0
  3  4  1  0
  3  5  1  0
  4  9  1  0
  4 10  1  0
  4 11  1  0
  5  6  3  0
  6 12  1  0
  8 15  1  0
 13 14  3  0
 13 18  1  0
 14 15  1  0
 15 16  1  0
 15 17  1  0
 16 19  1  0
 16 20  1  0
 16 21  1  0
 17 22  1  0
 17 23  1  0
 17 24  1  0
M  RAD  1   3   2
M  END
>  <reaction>  (9) 
rxn_1401

>  <mol_properties>  (9) 
{"1": {"label": "*0", "atom_type": "Ct"}, "2": {"label": "*1", "atom_type": "Cs"}, "7": {"label": "*2", "atom_type": "H0"}, "13": {"label": "*4", "atom_type": "Ct"}, "14": {"label": "*3", "atom_type": "Cs"}}

>  <type>  (9) 
unop_5

>  <geom_source>  (9) 
Heuristics

$$$$

     RDKit          3D

 24 22  0  0  0  0  0  0  0  0999 V2000
   -1.0725    0.3491   -3.0099 C   0  0  0  0  0  0  0  0  0  0  0  0
   -1.0725    0.3491   -1.8137 C   0  0  0  0  0  0  0  0  0  0  0  0
   -1.0725    0.3892   -0.3471 C   0  0  0  0  0  3  0  0  0  0  0  0
   -1.7106    1.6884    0.1749 C   0  0  0  0  0  0  0  0  0  0  0  0
   -1.7344   -0.7921    0.2176 C   0  0  0  0  0  0  0  0  0  0  0  0
   -2.2826   -1.7374    0.7041 C   0  0  0  0  0  0  0  0  0  0  0  0
   -1.0725    0.3491   -4.0733 H   0  0  0  0  0  0  0  0  0  0  0  0
    0.1811    0.3619    0.0460 H   0  0  0  0  0  0  0  0  0  0  0  0
   -2.7538    1.7456   -0.1329 H   0  0  0  0  0  0  0  0  0  0  0  0
   -1.1780    2.5498   -0.2268 H   0  0  0  0  0  0  0  0  0  0  0  0
   -1.6634    1.7128    1.2631 H   0  0  0  0  0  0  0  0  0  0  0  0
   -2.7700   -2.5778    1.1366 H   0  0  0  0  0  0  0  0  0  0  0  0
    2.1166   -2.2184    0.7592 C   0  0  0  0  0  0  0  0  0  0  0  0
    1.8037   -1.0720    0.6064 C   0  0  0  0  0  0  0  0  0  0  0  0
    1.4342    0.3347    0.4390 C   0  0  0  0  0  0  0  0  0  0  0  0
    2.6747    1.1989    0.1932 C   0  0  0  0  0  0  0  0  0  0  0  0
    0.6314    0.8347    1.6438 C   0  0  0  0  0  0  0  0  0  0  0  0
    2.3942   -3.2358    0.8949 H   0  0  0  0  0  0  0  0  0  0  0  0
    2.3809    2.2368    0.0271 H   0  0  0  0  0  0  0  0  0  0  0  0
    3.2296    0.8517   -0.6783 H   0  0  0  0  0  0  0  0  0  0  0  0
    3.3406    1.1640    1.0571 H   0  0  0  0  0  0  0  0  0  0  0  0
    1.2370    0.7890    2.5506 H   0  0  0  0  0  0  0  0  0  0  0  0
   -0.2615    0.2294    1.8001 H   0  0  0  0  0  0  0  0  0  0  0  0
    0.3257    1.8705    1.4862 H   0  0  0  0  0  0  0  0  0  0  0  0
  1  2  3  0
  1  7  1  0
  2  3  1  0
  3  4  1  0
  3  5  1  0
  4  9  1  0
  4 10  1  0
  4 11  1  0
  5  6  3  0
  6 12  1  0
  8 15  1  0
 13 14  3  0
 13 18  1  0
 14 15  1  0
 15 16  1  0
 15 17  1  0
 16 19  1  0
 16 20  1  0
 16 21  1  0
 17 22  1  0
 17 23  1  0
 17 24  1  0
M  RAD  1   3   2
M  END
>  <reaction>  (10) 
rxn_1401

>  <mol_properties>  (10) 
{"1": {"label": "*0", "atom_type": "Ct"}, "2": {"label": "*1", "atom_type": "Cs"}, "7": {"label": "*2", "atom_type": "H0"}, "13": {"label": "*4", "atom_type": "Ct"}, "14": {"label": "*3", "atom_type": "Cs"}}

>  <type>  (10) 
unop_6

>  <geom_source>  (10) 
Heuristics

$$$$

     RDKit          3D

 24 22  0  0  0  0  0  0  0  0999 V2000
   -1.0491    0.2733   -3.0924 C   0  0  0  0  0  0  0  0  0  0  0  0
   -1.0491    0.2733   -1.8962 C   0  0  0  0  0  0  0  0  0  0  0  0
   -1.0491    0.3133   -0.4297 C   0  0  0  0  0  3  0  0  0  0  0  0
   -1.6872    1.6126    0.0923 C   0  0  0  0  0  0  0  0  0  0  0  0
   -1.7110   -0.8679    0.1351 C   0  0  0  0  0  0  0  0  0  0  0  0
   -2.2592   -1.8132    0.6216 C   0  0  0  0  0  0  0  0  0  0  0  0
   -1.0491    0.2733   -4.1558 H   0  0  0  0  0  0  0  0  0  0  0  0
    0.2044    0.2861   -0.0365 H   0  0  0  0  0  0  0  0  0  0  0  0
   -2.7304    1.6698   -0.2154 H   0  0  0  0  0  0  0  0  0  0  0  0
   -1.1546    2.4740   -0.3093 H   0  0  0  0  0  0  0  0  0  0  0  0
   -1.6400    1.6370    1.1805 H   0  0  0  0  0  0  0  0  0  0  0  0
   -2.7467   -2.6536    1.0541 H   0  0  0  0  0  0  0  0  0  0  0  0
    1.7723   -1.9038    1.8764 C   0  0  0  0  0  0  0  0  0  0  0  0
    1.6241   -0.9360    1.1858 C   0  0  0  0  0  0  0  0  0  0  0  0
    1.4576    0.2589    0.3565 C   0  0  0  0  0  0  0  0  0  0  0  0
    2.7960    0.6938   -0.2482 C   0  0  0  0  0  0  0  0  0  0  0  0
    0.8083    1.3921    1.1568 C   0  0  0  0  0  0  0  0  0  0  0  0
    1.9038   -2.7626    2.4893 H   0  0  0  0  0  0  0  0  0  0  0  0
    2.6498    1.5585   -0.8980 H   0  0  0  0  0  0  0  0  0  0  0  0
    3.2422   -0.1093   -0.8346 H   0  0  0  0  0  0  0  0  0  0  0  0
    3.4981    0.9708    0.5401 H   0  0  0  0  0  0  0  0  0  0  0  0
    1.4518    1.6896    1.9865 H   0  0  0  0  0  0  0  0  0  0  0  0
   -0.1537    1.0836    1.5659 H   0  0  0  0  0  0  0  0  0  0  0  0
    0.6506    2.2608    0.5151 H   0  0  0  0  0  0  0  0  0  0  0  0
  1  2  3  0
  1  7  1  0
  2  3  1  0
  3  4  1  0
  3  5  1  0
  4  9  1  0
  4 10  1  0
  4 11  1  0
  5  6  3  0
  6 12  1  0
  8 15  1  0
 13 14  3  0
 13 18  1  0
 14 15  1  0
 15 16  1  0
 15 17  1  0
 16 19  1  0
 16 20  1  0
 16 21  1  0
 17 22  1  0
 17 23  1  0
 17 24  1  0
M  RAD  1   3   2
M  END
>  <reaction>  (11) 
rxn_1401

>  <mol_properties>  (11) 
{"1": {"label": "*0", "atom_type": "Ct"}, "2": {"label": "*1", "atom_type": "Cs"}, "7": {"label": "*2", "atom_type": "H0"}, "13": {"label": "*4", "atom_type": "Ct"}, "14": {"label": "*3", "atom_type": "Cs"}}

>  <type>  (11) 
unop_7

>  <geom_source>  (11) 
Heuristics

$$$$

     RDKit          3D

 24 22  0  0  0  0  0  0  0  0999 V2000
   -1.0849   -0.0573   -2.9987 C   0  0  0  0  0  0  0  0  0  0  0  0
   -1.0849   -0.0573   -1.8026 C   0  0  0  0  0  0  0  0  0  0  0  0
   -1.0849   -0.0173   -0.3360 C   0  0  0  0  0  3  0  0  0  0  0  0
   -1.7229    1.2820    0.1860 C   0  0  0  0  0  0  0  0  0  0  0  0
   -1.7467   -1.1985    0.2287 C   0  0  0  0  0  0  0  0  0  0  0  0
   -2.2949   -2.1438    0.7152 C   0  0  0  0  0  0  0  0  0  0  0  0
   -1.0849   -0.0573   -4.0622 H   0  0  0  0  0  0  0  0  0  0  0  0
    0.1687   -0.0445    0.0571 H   0  0  0  0  0  0  0  0  0  0  0  0
   -2.7662    1.3392   -0.1218 H   0  0  0  0  0  0  0  0  0  0  0  0
   -1.1903    2.1434   -0.2157 H   0  0  0  0  0  0  0  0  0  0  0  0
   -1.6757    1.3064    1.2742 H   0  0  0  0  0  0  0  0  0  0  0  0
   -2.7824   -2.9842    1.1477 H   0  0  0  0  0  0  0  0  0  0  0  0
    2.2580    2.4490    0.6317 C   0  0  0  0  0  0  0  0  0  0  0  0
    1.8761    1.3170    0.5411 C   0  0  0  0  0  0  0  0  0  0  0  0
    1.4219   -0.0717    0.4501 C   0  0  0  0  0  0  0  0  0  0  0  0
    0.5923   -0.4558    1.6791 C   0  0  0  0  0  0  0  0  0  0  0  0
    2.6074   -1.0216    0.2538 C   0  0  0  0  0  0  0  0  0  0  0  0
    2.5969    3.4536    0.7121 H   0  0  0  0  0  0  0  0  0  0  0  0
    0.2242   -1.4783    1.5777 H   0  0  0  0  0  0  0  0  0  0  0  0
   -0.2620    0.2100    1.8007 H   0  0  0  0  0  0  0  0  0  0  0  0
    1.2010   -0.3975    2.5830 H   0  0  0  0  0  0  0  0  0  0  0  0
    3.2756   -0.9799    1.1157 H   0  0  0  0  0  0  0  0  0  0  0  0
    3.1808   -0.7566   -0.6344 H   0  0  0  0  0  0  0  0  0  0  0  0
    2.2511   -2.0473    0.1442 H   0  0  0  0  0  0  0  0  0  0  0  0
  1  2  3  0
  1  7  1  0
  2  3  1  0
  3  4  1  0
  3  5  1  0
  4  9  1  0
  4 10  1  0
  4 11  1  0
  5  6  3  0
  6 12  1  0
  8 15  1  0
 13 14  3  0
 13 18  1  0
 14 15  1  0
 15 16  1  0
 15 17  1  0
 16 19  1  0
 16 20  1  0
 16 21  1  0
 17 22  1  0
 17 23  1  0
 17 24  1  0
M  RAD  1   3   2
M  END
>  <reaction>  (12) 
rxn_1401

>  <mol_properties>  (12) 
{"1": {"label": "*0", "atom_type": "Ct"}, "2": {"label": "*1", "atom_type": "Cs"}, "7": {"label": "*2", "atom_type": "H0"}, "13": {"label": "*4", "atom_type": "Ct"}, "14": {"label": "*3", "atom_type": "Cs"}}

>  <type>  (12) 
unop_8

>  <geom_source>  (12) 
Heuristics

$$$$

     RDKit          3D

 24 22  0  0  0  0  0  0  0  0999 V2000
   -1.1681    0.2927   -2.7877 C   0  0  0  0  0  0  0  0  0  0  0  0
   -1.1681    0.2927   -1.5915 C   0  0  0  0  0  0  0  0  0  0  0  0
   -1.1681    0.3328   -0.1250 C   0  0  0  0  0  3  0  0  0  0  0  0
   -1.8061    1.6320    0.3970 C   0  0  0  0  0  0  0  0  0  0  0  0
   -1.8299   -0.8484    0.4398 C   0  0  0  0  0  0  0  0  0  0  0  0
   -2.3782   -1.7937    0.9263 C   0  0  0  0  0  0  0  0  0  0  0  0
   -1.1681    0.2927   -3.8511 H   0  0  0  0  0  0  0  0  0  0  0  0
    0.0855    0.3056    0.2682 H   0  0  0  0  0  0  0  0  0  0  0  0
   -2.8494    1.6893    0.0893 H   0  0  0  0  0  0  0  0  0  0  0  0
   -1.2735    2.4935   -0.0046 H   0  0  0  0  0  0  0  0  0  0  0  0
   -1.7589    1.6565    1.4853 H   0  0  0  0  0  0  0  0  0  0  0  0
   -2.8656   -2.6341    1.3588 H   0  0  0  0  0  0  0  0  0  0  0  0
    2.7208   -1.0887   -1.1574 C   0  0  0  0  0  0  0  0  0  0  0  0
    2.0908   -0.4720   -0.3461 C   0  0  0  0  0  0  0  0  0  0  0  0
    1.3386    0.2783    0.6612 C   0  0  0  0  0  0  0  0  0  0  0  0
    2.0989    1.5398    1.0818 C   0  0  0  0  0  0  0  0  0  0  0  0
    1.0090   -0.6068    1.8670 C   0  0  0  0  0  0  0  0  0  0  0  0
    3.2800   -1.6359   -1.8775 H   0  0  0  0  0  0  0  0  0  0  0  0
    1.5077    2.1112    1.7997 H   0  0  0  0  0  0  0  0  0  0  0  0
    2.3111    2.1760    0.2227 H   0  0  0  0  0  0  0  0  0  0  0  0
    3.0475    1.2740    1.5515 H   0  0  0  0  0  0  0  0  0  0  0  0
    1.9254   -0.9359    2.3599 H   0  0  0  0  0  0  0  0  0  0  0  0
    0.4490   -1.4915    1.5642 H   0  0  0  0  0  0  0  0  0  0  0  0
    0.4115   -0.0479    2.5894 H   0  0  0  0  0  0  0  0  0  0  0  0
  1  2  3  0
  1  7  1  0
  2  3  1  0
  3  4  1  0
  3  5  1  0
  4  9  1  0
  4 10  1  0
  4 11  1  0
  5  6  3  0
  6 12  1  0
  8 15  1  0
 13 14  3  0
 13 18  1  0
 14 15  1  0
 15 16  1  0
 15 17  1  0
 16 19  1  0
 16 20  1  0
 16 21  1  0
 17 22  1  0
 17 23  1  0
 17 24  1  0
M  RAD  1   3   2
M  END
>  <reaction>  (13) 
rxn_1401

>  <mol_properties>  (13) 
{"1": {"label": "*0", "atom_type": "Ct"}, "2": {"label": "*1", "atom_type": "Cs"}, "7": {"label": "*2", "atom_type": "H0"}, "13": {"label": "*4", "atom_type": "Ct"}, "14": {"label": "*3", "atom_type": "Cs"}}

>  <type>  (13) 
unop_9

>  <geom_source>  (13) 
Heuristics

$$$$

     RDKit          3D

 24 22  0  0  0  0  0  0  0  0999 V2000
   -1.1316   -0.0616   -2.8822 C   0  0  0  0  0  0  0  0  0  0  0  0
   -1.1316   -0.0616   -1.6861 C   0  0  0  0  0  0  0  0  0  0  0  0
   -1.1316   -0.0215   -0.2195 C   0  0  0  0  0  3  0  0  0  0  0  0
   -1.7697    1.2777    0.3025 C   0  0  0  0  0  0  0  0  0  0  0  0
   -1.7935   -1.2028    0.3453 C   0  0  0  0  0  0  0  0  0  0  0  0
   -2.3417   -2.1480    0.8318 C   0  0  0  0  0  0  0  0  0  0  0  0
   -1.1316   -0.0616   -3.9457 H   0  0  0  0  0  0  0  0  0  0  0  0
    0.1220   -0.0488    0.1736 H   0  0  0  0  0  0  0  0  0  0  0  0
   -2.8129    1.3350   -0.0053 H   0  0  0  0  0  0  0  0  0  0  0  0
   -1.2370    2.1391   -0.0992 H   0  0  0  0  0  0  0  0  0  0  0  0
   -1.7225    1.3021    1.3907 H   0  0  0  0  0  0  0  0  0  0  0  0
   -2.8291   -2.9885    1.2643 H   0  0  0  0  0  0  0  0  0  0  0  0
    2.5820    2.0650   -0.4561 C   0  0  0  0  0  0  0  0  0  0  0  0
    2.0324    1.1010   -0.0044 C   0  0  0  0  0  0  0  0  0  0  0  0
    1.3751   -0.0760    0.5666 C   0  0  0  0  0  0  0  0  0  0  0  0
    0.6994    0.2686    1.8973 C   0  0  0  0  0  0  0  0  0  0  0  0
    2.3673   -1.2322    0.7237 C   0  0  0  0  0  0  0  0  0  0  0  0
    3.0698    2.9205   -0.8569 H   0  0  0  0  0  0  0  0  0  0  0  0
    0.1773   -0.6059    2.2896 H   0  0  0  0  0  0  0  0  0  0  0  0
   -0.0214    1.0770    1.7748 H   0  0  0  0  0  0  0  0  0  0  0  0
    1.4428    0.5835    2.6318 H   0  0  0  0  0  0  0  0  0  0  0  0
    3.1599   -0.9617    1.4235 H   0  0  0  0  0  0  0  0  0  0  0  0
    2.8283   -1.4873   -0.2305 H   0  0  0  0  0  0  0  0  0  0  0  0
    1.8549   -2.1155    1.1091 H   0  0  0  0  0  0  0  0  0  0  0  0
  1  2  3  0
  1  7  1  0
  2  3  1  0
  3  4  1  0
  3  5  1  0
  4  9  1  0
  4 10  1  0
  4 11  1  0
  5  6  3  0
  6 12  1  0
  8 15  1  0
 13 14  3  0
 13 18  1  0
 14 15  1  0
 15 16  1  0
 15 17  1  0
 16 19  1  0
 16 20  1  0
 16 21  1  0
 17 22  1  0
 17 23  1  0
 17 24  1  0
M  RAD  1   3   2
M  END
>  <reaction>  (14) 
rxn_1401

>  <mol_properties>  (14) 
{"1": {"label": "*0", "atom_type": "Ct"}, "2": {"label": "*1", "atom_type": "Cs"}, "7": {"label": "*2", "atom_type": "H0"}, "13": {"label": "*4", "atom_type": "Ct"}, "14": {"label": "*3", "atom_type": "Cs"}}

>  <type>  (14) 
unop_10

>  <geom_source>  (14) 
Heuristics

$$$$

     RDKit          3D

 24 22  0  0  0  0  0  0  0  0999 V2000
   -1.0587    0.1844   -3.1181 C   0  0  0  0  0  0  0  0  0  0  0  0
   -1.0587    0.1844   -1.9219 C   0  0  0  0  0  0  0  0  0  0  0  0
   -1.0587    0.2245   -0.4554 C   0  0  0  0  0  3  0  0  0  0  0  0
   -1.6968    1.5237    0.0666 C   0  0  0  0  0  0  0  0  0  0  0  0
   -1.7206   -0.9567    0.1094 C   0  0  0  0  0  0  0  0  0  0  0  0
   -2.2688   -1.9020    0.5959 C   0  0  0  0  0  0  0  0  0  0  0  0
   -1.0587    0.1844   -4.1815 H   0  0  0  0  0  0  0  0  0  0  0  0
    0.1949    0.1973   -0.0622 H   0  0  0  0  0  0  0  0  0  0  0  0
   -2.7400    1.5810   -0.2411 H   0  0  0  0  0  0  0  0  0  0  0  0
   -1.1642    2.3851   -0.3350 H   0  0  0  0  0  0  0  0  0  0  0  0
   -1.6496    1.5482    1.1549 H   0  0  0  0  0  0  0  0  0  0  0  0
   -2.7562   -2.7424    1.0284 H   0  0  0  0  0  0  0  0  0  0  0  0
    1.5175   -1.0298    2.7060 C   0  0  0  0  0  0  0  0  0  0  0  0
    1.4773   -0.4953    1.6346 C   0  0  0  0  0  0  0  0  0  0  0  0
    1.4480    0.1700    0.3308 C   0  0  0  0  0  0  0  0  0  0  0  0
    2.6940   -0.1803   -0.4883 C   0  0  0  0  0  0  0  0  0  0  0  0
    1.2917    1.6849    0.4949 C   0  0  0  0  0  0  0  0  0  0  0  0
    1.5532   -1.5043    3.6570 H   0  0  0  0  0  0  0  0  0  0  0  0
    2.6381    0.2868   -1.4731 H   0  0  0  0  0  0  0  0  0  0  0  0
    2.7876   -1.2581   -0.6204 H   0  0  0  0  0  0  0  0  0  0  0  0
    3.5935    0.1809    0.0132 H   0  0  0  0  0  0  0  0  0  0  0  0
    2.1498    2.1011    1.0254 H   0  0  0  0  0  0  0  0  0  0  0  0
    0.3918    1.9285    1.0595 H   0  0  0  0  0  0  0  0  0  0  0  0
    1.2276    2.1628   -0.4842 H   0  0  0  0  0  0  0  0  0  0  0  0
  1  2  3  0
  1  7  1  0
  2  3  1  0
  3  4  1  0
  3  5  1  0
  4  9  1  0
  4 10  1  0
  4 11  1  0
  5  6  3  0
  6 12  1  0
  8 15  1  0
 13 14  3  0
 13 18  1  0
 14 15  1  0
 15 16  1  0
 15 17  1  0
 16 19  1  0
 16 20  1  0
 16 21  1  0
 17 22  1  0
 17 23  1  0
 17 24  1  0
M  RAD  1   3   2
M  END
>  <reaction>  (15) 
rxn_1401

>  <mol_properties>  (15) 
{"1": {"label": "*0", "atom_type": "Ct"}, "2": {"label": "*1", "atom_type": "Cs"}, "7": {"label": "*2", "atom_type": "H0"}, "13": {"label": "*4", "atom_type": "Ct"}, "14": {"label": "*3", "atom_type": "Cs"}}

>  <type>  (15) 
unop_11

>  <geom_source>  (15) 
Heuristics

$$$$

     RDKit          3D

 24 22  0  0  0  0  0  0  0  0999 V2000
   -1.1932    0.1565   -2.7410 C   0  0  0  0  0  0  0  0  0  0  0  0
   -1.1932    0.1565   -1.5449 C   0  0  0  0  0  0  0  0  0  0  0  0
   -1.1932    0.1966   -0.0783 C   0  0  0  0  0  3  0  0  0  0  0  0
   -1.8312    1.4958    0.4437 C   0  0  0  0  0  0  0  0  0  0  0  0
   -1.8550   -0.9846    0.4865 C   0  0  0  0  0  0  0  0  0  0  0  0
   -2.4032   -1.9299    0.9730 C   0  0  0  0  0  0  0  0  0  0  0  0
   -1.1932    0.1565   -3.8045 H   0  0  0  0  0  0  0  0  0  0  0  0
    0.0604    0.1694    0.3148 H   0  0  0  0  0  0  0  0  0  0  0  0
   -2.8745    1.5531    0.1359 H   0  0  0  0  0  0  0  0  0  0  0  0
   -1.2986    2.3573    0.0420 H   0  0  0  0  0  0  0  0  0  0  0  0
   -1.7840    1.5203    1.5319 H   0  0  0  0  0  0  0  0  0  0  0  0
   -2.8907   -2.7703    1.4055 H   0  0  0  0  0  0  0  0  0  0  0  0
    2.8375    0.0364   -1.4722 C   0  0  0  0  0  0  0  0  0  0  0  0
    2.1428    0.0841   -0.4973 C   0  0  0  0  0  0  0  0  0  0  0  0
    1.3136    0.1421    0.7078 C   0  0  0  0  0  0  0  0  0  0  0  0
    1.5928    1.4225    1.5008 C   0  0  0  0  0  0  0  0  0  0  0  0
    1.5161   -1.1076    1.5699 C   0  0  0  0  0  0  0  0  0  0  0  0
    3.4541   -0.0059   -2.3375 H   0  0  0  0  0  0  0  0  0  0  0  0
    0.9376    1.4735    2.3722 H   0  0  0  0  0  0  0  0  0  0  0  0
    1.4256    2.3086    0.8886 H   0  0  0  0  0  0  0  0  0  0  0  0
    2.6276    1.4380    1.8472 H   0  0  0  0  0  0  0  0  0  0  0  0
    2.5487   -1.1668    1.9184 H   0  0  0  0  0  0  0  0  0  0  0  0
    1.2946   -2.0141    1.0068 H   0  0  0  0  0  0  0  0  0  0  0  0
    0.8605   -1.0713    2.4417 H   0  0  0  0  0  0  0  0  0  0  0  0
  1  2  3  0
  1  7  1  0
  2  3  1  0
  3  4  1  0
  3  5  1  0
  4  9  1  0
  4 10  1  0
  4 11  1  0
  5  6  3  0
  6 12  1  0
  8 15  1  0
 13 14  3  0
 13 18  1  0
 14 15  1  0
 15 16  1  0
 15 17  1  0
 16 19  1  0
 16 20  1  0
 16 21  1  0
 17 22  1  0
 17 23  1  0
 17 24  1  0
M  RAD  1   3   2
M  END
>  <reaction>  (16) 
rxn_1401

>  <mol_properties>  (16) 
{"1": {"label": "*0", "atom_type": "Ct"}, "2": {"label": "*1", "atom_type": "Cs"}, "7": {"label": "*2", "atom_type": "H0"}, "13": {"label": "*4", "atom_type": "Ct"}, "14": {"label": "*3", "atom_type": "Cs"}}

>  <type>  (16) 
unop_12

>  <geom_source>  (16) 
Heuristics

$$$$

     RDKit          3D

 24 22  0  0  0  0  0  0  0  0999 V2000
   -1.2235    0.1429    0.1519 C   0  0  0  0  0  0  0  0  0  0  0  0
   -1.4266    0.5073    1.6231 C   0  0  0  0  0  0  0  0  0  0  0  0
   -1.6582   -1.2975   -0.1216 C   0  0  0  0  0  0  0  0  0  0  0  0
    1.6896   -1.5514   -0.8052 C   0  0  0  0  0  0  0  0  0  0  0  0
    1.3123   -0.2241   -0.1536 C   0  0  0  0  0  3  0  0  0  0  0  0
   -1.9776    1.0694   -0.7063 C   0  0  0  0  0  0  0  0  0  0  0  0
    1.6143    0.8988   -1.0496 C   0  0  0  0  0  0  0  0  0  0  0  0
    2.0256   -0.0480    1.1172 C   0  0  0  0  0  0  0  0  0  0  0  0
   -2.5948    1.8292   -1.4103 C   0  0  0  0  0  0  0  0  0  0  0  0
    1.8608    1.8210   -1.7864 C   0  0  0  0  0  0  0  0  0  0  0  0
    2.6103    0.0957    2.1620 C   0  0  0  0  0  0  0  0  0  0  0  0
    0.0681    0.2585   -0.1392 H   0  0  0  0  0  0  0  0  0  0  0  0
   -2.4985    0.4254    1.9065 H   0  0  0  0  0  0  0  0  0  0  0  0
   -0.8309   -0.1732    2.2679 H   0  0  0  0  0  0  0  0  0  0  0  0
   -1.0825    1.5473    1.8087 H   0  0  0  0  0  0  0  0  0  0  0  0
   -1.4804   -1.5527   -1.1883 H   0  0  0  0  0  0  0  0  0  0  0  0
   -2.7373   -1.4352    0.1077 H   0  0  0  0  0  0  0  0  0  0  0  0
   -1.0651   -1.9977    0.5040 H   0  0  0  0  0  0  0  0  0  0  0  0
    1.4299   -2.3922   -0.1273 H   0  0  0  0  0  0  0  0  0  0  0  0
    2.7786   -1.5887   -1.0282 H   0  0  0  0  0  0  0  0  0  0  0  0
    1.1217   -1.6828   -1.7508 H   0  0  0  0  0  0  0  0  0  0  0  0
   -3.1366    2.4960   -2.0281 H   0  0  0  0  0  0  0  0  0  0  0  0
    2.0774    2.6303   -2.4330 H   0  0  0  0  0  0  0  0  0  0  0  0
    3.1236    0.2218    3.0788 H   0  0  0  0  0  0  0  0  0  0  0  0
  1  2  1  0
  1  3  1  0
  1  6  1  0
  1 12  1  0
  2 13  1  0
  2 14  1  0
  2 15  1  0
  3 16  1  0
  3 17  1  0
  3 18  1  0
  4  5  1  0
  4 19  1  0
  4 20  1  0
  4 21  1  0
  5  7  1  0
  5  8  1  0
  6  9  3  0
  7 10  3  0
  8 11  3  0
  9 22  1  0
 10 23  1  0
 11 24  1  0
M  RAD  1   5   2
M  END
>  <reaction>  (17) 
rxn_1401

>  <mol_properties>  (17) 
{"1": {"label": "*0", "atom_type": "Ct"}, "2": {"label": "*1", "atom_type": "Cs"}, "7": {"label": "*2", "atom_type": "H0"}, "13": {"label": "*4", "atom_type": "Ct"}, "14": {"label": "*3", "atom_type": "Cs"}}

>  <type>  (17) 
unop_13

>  <geom_source>  (17) 
AutoTST

$$$$
