
     RDKit          3D

  6  5  0  0  0  0  0  0  0  0999 V2000
   -0.5072   -0.0291   -0.0097 C   0  0  0  0  0  0  0  0  0  0  0  0
    1.1321   -0.1527   -0.7687 S   0  0  0  0  0  0  0  0  0  0  0  0
   -0.6174   -0.7330    0.8127 H   0  0  0  0  0  0  0  0  0  0  0  0
   -0.5863    0.9827    0.3845 H   0  0  0  0  0  0  0  0  0  0  0  0
   -1.2962   -0.1800   -0.7434 H   0  0  0  0  0  0  0  0  0  0  0  0
    1.0312   -1.4237   -1.1764 H   0  0  0  0  0  0  0  0  0  0  0  0
  1  2  1  0
  1  3  1  0
  1  4  1  0
  1  5  1  0
  2  6  1  0
M  END
>  <reaction>  (1) 
rxn_1860

>  <mol_properties>  (1) 
{"0": {"label": "donator", "atom_type": "Cs"}, "2": {"label": "d_hydrogen", "atom_type": "H0"}}

>  <type>  (1) 
r1h

$$$$

     RDKit          3D

  4  3  0  0  0  0  0  0  0  0999 V2000
   -0.7528   -0.8706   -0.3839 S   0  0  0  0  0  0  0  0  0  0  0  0
    0.7502   -0.2564   -0.0649 C   0  0  0  0  0  3  0  0  0  0  0  0
    1.5655    0.9691    0.4633 S   0  0  0  0  0  0  0  0  0  0  0  0
   -1.5629    0.1579   -0.0146 H   0  0  0  0  0  0  0  0  0  0  0  0
  1  2  1  0
  1  4  1  0
  2  3  2  0
M  RAD  1   2   2
M  END
>  <reaction>  (2) 
rxn_1860

>  <mol_properties>  (2) 
{"1": {"label": "acceptor", "atom_type": "CS"}}

>  <type>  (2) 
r2

$$$$

     RDKit          3D

  5  4  0  0  0  0  0  0  0  0999 V2000
    1.2280   -0.4626    0.1225 S   0  0  0  0  0  0  0  0  0  0  0  0
   -0.4732   -0.2566   -0.0746 C   0  0  0  0  0  0  0  0  0  0  0  0
   -1.3314    1.1074   -0.0947 S   0  0  0  0  0  0  0  0  0  0  0  0
    1.5289    0.8405    0.2416 H   0  0  0  0  0  0  0  0  0  0  0  0
   -0.9523   -1.2286   -0.1949 H   0  0  0  0  0  0  0  0  0  0  0  0
  1  2  1  0
  1  4  1  0
  2  3  2  0
  2  5  1  0
M  END
>  <reaction>  (3) 
rxn_1860

>  <mol_properties>  (3) 
{"1": {"label": "acceptor", "atom_type": "CS"}, "4": {"label": "a_hydrogen", "atom_type": "H0"}}

>  <type>  (3) 
r2h

$$$$

     RDKit          3D

 10  8  0  0  0  0  0  0  0  0999 V2000
    0.8262    0.7254    2.1416 S   0  0  0  0  0  0  0  0  0  0  0  0
    0.2690    0.6526    0.5326 C   0  0  0  0  0  0  0  0  0  0  0  0
   -0.1832    1.7716   -0.5110 S   0  0  0  0  0  0  0  0  0  0  0  0
    0.7927    2.0604    2.3210 H   0  0  0  0  0  0  0  0  0  0  0  0
    0.1821   -1.8705   -0.4462 C   0  0  0  0  0  3  0  0  0  0  0  0
   -1.0392   -1.8017   -1.7039 S   0  0  0  0  0  0  0  0  0  0  0  0
    0.2376   -0.6243    0.1335 H   0  0  0  0  0  0  0  0  0  0  0  0
   -0.1214   -2.5535    0.3430 H   0  0  0  0  0  0  0  0  0  0  0  0
    1.1988   -2.0420   -0.7904 H   0  0  0  0  0  0  0  0  0  0  0  0
   -0.3850   -0.9791   -2.5346 H   0  0  0  0  0  0  0  0  0  0  0  0
  1  2  1  0
  1  4  1  0
  2  3  2  0
  2  7  1  0
  5  6  1  0
  5  8  1  0
  5  9  1  0
  6 10  1  0
M  RAD  1   5   2
M  END
>  <reaction>  (4) 
rxn_1860

>  <mol_properties>  (4) 
{"0": {"label": "*0", "atom_type": "S2s"}, "1": {"label": "*1", "atom_type": "CS"}, "4": {"label": "*3", "atom_type": "Cs"}, "5": {"label": "*4", "atom_type": "S2s"}, "6": {"label": "*2", "atom_type": "H0"}}

>  <type>  (4) 
ts

$$$$

     RDKit          3D

 10  8  0  0  0  0  0  0  0  0999 V2000
   -1.4333    0.9751    1.4768 S   0  0  0  0  0  0  0  0  0  0  0  0
   -0.0283    0.7253    0.5080 C   0  0  0  0  0  3  0  0  0  0  0  0
    1.4782    1.2399    0.7591 S   0  0  0  0  0  0  0  0  0  0  0  0
   -0.8339    1.7003    2.4347 H   0  0  0  0  0  0  0  0  0  0  0  0
   -0.0283   -1.7089   -0.4446 C   0  0  0  0  0  0  0  0  0  0  0  0
   -0.0283   -1.7089   -2.2552 S   0  0  0  0  0  0  0  0  0  0  0  0
   -0.0283   -0.4931    0.0312 H   0  0  0  0  0  0  0  0  0  0  0  0
   -0.9490   -2.2030   -0.1387 H   0  0  0  0  0  0  0  0  0  0  0  0
    0.8161   -2.2689   -0.0481 H   0  0  0  0  0  0  0  0  0  0  0  0
    1.1420   -1.0808   -2.4216 H   0  0  0  0  0  0  0  0  0  0  0  0
  1  2  1  0
  1  4  1  0
  2  3  2  0
  5  6  1  0
  5  7  1  0
  5  8  1  0
  5  9  1  0
  6 10  1  0
M  RAD  1   2   2
M  END
>  <reaction>  (5) 
rxn_1860

>  <mol_properties>  (5) 
{"0": {"label": "*0", "atom_type": "S2s"}, "1": {"label": "*1", "atom_type": "CS"}, "4": {"label": "*3", "atom_type": "Cs"}, "5": {"label": "*4", "atom_type": "S2s"}, "6": {"label": "*2", "atom_type": "H0"}}

>  <type>  (5) 
unop_1

>  <geom_source>  (5) 
Heuristics

$$$$

     RDKit          3D

 10  8  0  0  0  0  0  0  0  0999 V2000
   -0.6911    1.6415   -0.3764 S   0  0  0  0  0  0  0  0  0  0  0  0
    0.1202    0.5841    0.7186 C   0  0  0  0  0  3  0  0  0  0  0  0
    0.4597    0.8092    2.2780 S   0  0  0  0  0  0  0  0  0  0  0  0
   -0.9086    2.6349    0.5003 H   0  0  0  0  0  0  0  0  0  0  0  0
    0.1202   -1.8502   -0.2339 C   0  0  0  0  0  0  0  0  0  0  0  0
    0.1202   -1.8502   -2.0446 S   0  0  0  0  0  0  0  0  0  0  0  0
    0.1202   -0.6343    0.2418 H   0  0  0  0  0  0  0  0  0  0  0  0
   -0.8005   -2.3443    0.0720 H   0  0  0  0  0  0  0  0  0  0  0  0
    0.9645   -2.4102    0.1625 H   0  0  0  0  0  0  0  0  0  0  0  0
    1.2905   -1.2220   -2.2110 H   0  0  0  0  0  0  0  0  0  0  0  0
  1  2  1  0
  1  4  1  0
  2  3  2  0
  5  6  1  0
  5  7  1  0
  5  8  1  0
  5  9  1  0
  6 10  1  0
M  RAD  1   2   2
M  END
>  <reaction>  (6) 
rxn_1860

>  <mol_properties>  (6) 
{"0": {"label": "*0", "atom_type": "S2s"}, "1": {"label": "*1", "atom_type": "CS"}, "4": {"label": "*3", "atom_type": "Cs"}, "5": {"label": "*4", "atom_type": "S2s"}, "6": {"label": "*2", "atom_type": "H0"}}

>  <type>  (6) 
unop_2

>  <geom_source>  (6) 
Heuristics

$$$$

     RDKit          3D

 10  8  0  0  0  0  0  0  0  0999 V2000
   -0.9121    0.6991    2.0902 S   0  0  0  0  0  0  0  0  0  0  0  0
   -0.1009    0.6657    0.5683 C   0  0  0  0  0  3  0  0  0  0  0  0
    1.0745    1.6265    0.0272 S   0  0  0  0  0  0  0  0  0  0  0  0
   -0.2411    1.7443    2.6003 H   0  0  0  0  0  0  0  0  0  0  0  0
   -0.1009   -1.7685   -0.3842 C   0  0  0  0  0  0  0  0  0  0  0  0
   -0.1009   -1.7685   -2.1949 S   0  0  0  0  0  0  0  0  0  0  0  0
   -0.1009   -0.5527    0.0915 H   0  0  0  0  0  0  0  0  0  0  0  0
   -1.0216   -2.2627   -0.0783 H   0  0  0  0  0  0  0  0  0  0  0  0
    0.7435   -2.3285    0.0122 H   0  0  0  0  0  0  0  0  0  0  0  0
    1.0694   -1.1404   -2.3613 H   0  0  0  0  0  0  0  0  0  0  0  0
  1  2  1  0
  1  4  1  0
  2  3  2  0
  5  6  1  0
  5  7  1  0
  5  8  1  0
  5  9  1  0
  6 10  1  0
M  RAD  1   2   2
M  END
>  <reaction>  (7) 
rxn_1860

>  <mol_properties>  (7) 
{"0": {"label": "*0", "atom_type": "S2s"}, "1": {"label": "*1", "atom_type": "CS"}, "4": {"label": "*3", "atom_type": "Cs"}, "5": {"label": "*4", "atom_type": "S2s"}, "6": {"label": "*2", "atom_type": "H0"}}

>  <type>  (7) 
unop_3

>  <geom_source>  (7) 
Heuristics

$$$$

     RDKit          3D

 10  8  0  0  0  0  0  0  0  0999 V2000
    1.2309    1.4988    0.0737 S   0  0  0  0  0  0  0  0  0  0  0  0
   -0.1741    0.6577    0.6157 C   0  0  0  0  0  3  0  0  0  0  0  0
   -0.9820    0.8249    2.0002 S   0  0  0  0  0  0  0  0  0  0  0  0
    1.3742    2.2763    1.1590 H   0  0  0  0  0  0  0  0  0  0  0  0
   -0.1741   -1.7765   -0.3369 C   0  0  0  0  0  0  0  0  0  0  0  0
   -0.1741   -1.7765   -2.1475 S   0  0  0  0  0  0  0  0  0  0  0  0
   -0.1741   -0.5607    0.1389 H   0  0  0  0  0  0  0  0  0  0  0  0
   -1.0948   -2.2706   -0.0309 H   0  0  0  0  0  0  0  0  0  0  0  0
    0.6702   -2.3365    0.0596 H   0  0  0  0  0  0  0  0  0  0  0  0
    0.9962   -1.1483   -2.3139 H   0  0  0  0  0  0  0  0  0  0  0  0
  1  2  1  0
  1  4  1  0
  2  3  2  0
  5  6  1  0
  5  7  1  0
  5  8  1  0
  5  9  1  0
  6 10  1  0
M  RAD  1   2   2
M  END
>  <reaction>  (8) 
rxn_1860

>  <mol_properties>  (8) 
{"0": {"label": "*0", "atom_type": "S2s"}, "1": {"label": "*1", "atom_type": "CS"}, "4": {"label": "*3", "atom_type": "Cs"}, "5": {"label": "*4", "atom_type": "S2s"}, "6": {"label": "*2", "atom_type": "H0"}}

>  <type>  (8) 
unop_4

>  <geom_source>  (8) 
Heuristics

$$$$

     RDKit          3D

 10  8  0  0  0  0  0  0  0  0999 V2000
   -0.0088    0.5565    2.3535 S   0  0  0  0  0  0  0  0  0  0  0  0
   -0.0088    0.6023    0.6293 C   0  0  0  0  0  3  0  0  0  0  0  0
   -0.0088    1.8835   -0.3486 S   0  0  0  0  0  0  0  0  0  0  0  0
   -0.0088    1.8857    2.5437 H   0  0  0  0  0  0  0  0  0  0  0  0
   -0.0088   -1.8319   -0.3233 C   0  0  0  0  0  0  0  0  0  0  0  0
   -0.0088   -1.8319   -2.1340 S   0  0  0  0  0  0  0  0  0  0  0  0
   -0.0088   -0.6160    0.1525 H   0  0  0  0  0  0  0  0  0  0  0  0
   -0.9295   -2.3260   -0.0174 H   0  0  0  0  0  0  0  0  0  0  0  0
    0.8355   -2.3919    0.0732 H   0  0  0  0  0  0  0  0  0  0  0  0
    1.1615   -1.2037   -2.3004 H   0  0  0  0  0  0  0  0  0  0  0  0
  1  2  1  0
  1  4  1  0
  2  3  2  0
  5  6  1  0
  5  7  1  0
  5  8  1  0
  5  9  1  0
  6 10  1  0
M  RAD  1   2   2
M  END
>  <reaction>  (9) 
rxn_1860

>  <mol_properties>  (9) 
{"0": {"label": "*0", "atom_type": "S2s"}, "1": {"label": "*1", "atom_type": "CS"}, "4": {"label": "*3", "atom_type": "Cs"}, "5": {"label": "*4", "atom_type": "S2s"}, "6": {"label": "*2", "atom_type": "H0"}}

>  <type>  (9) 
unop_5

>  <geom_source>  (9) 
Heuristics

$$$$

     RDKit          3D

 10  8  0  0  0  0  0  0  0  0999 V2000
    1.5151    1.2624    0.7415 S   0  0  0  0  0  0  0  0  0  0  0  0
   -0.1073    0.7170    0.5281 C   0  0  0  0  0  3  0  0  0  0  0  0
   -1.3894    0.9617    1.4735 S   0  0  0  0  0  0  0  0  0  0  0  0
    1.3092    1.9115    1.8987 H   0  0  0  0  0  0  0  0  0  0  0  0
   -0.1073   -1.7173   -0.4245 C   0  0  0  0  0  0  0  0  0  0  0  0
   -0.1073   -1.7173   -2.2351 S   0  0  0  0  0  0  0  0  0  0  0  0
   -0.1073   -0.5014    0.0513 H   0  0  0  0  0  0  0  0  0  0  0  0
   -1.0280   -2.2114   -0.1185 H   0  0  0  0  0  0  0  0  0  0  0  0
    0.7370   -2.2773   -0.0280 H   0  0  0  0  0  0  0  0  0  0  0  0
    1.0630   -1.0891   -2.4015 H   0  0  0  0  0  0  0  0  0  0  0  0
  1  2  1  0
  1  4  1  0
  2  3  2  0
  5  6  1  0
  5  7  1  0
  5  8  1  0
  5  9  1  0
  6 10  1  0
M  RAD  1   2   2
M  END
>  <reaction>  (10) 
rxn_1860

>  <mol_properties>  (10) 
{"0": {"label": "*0", "atom_type": "S2s"}, "1": {"label": "*1", "atom_type": "CS"}, "4": {"label": "*3", "atom_type": "Cs"}, "5": {"label": "*4", "atom_type": "S2s"}, "6": {"label": "*2", "atom_type": "H0"}}

>  <type>  (10) 
unop_6

>  <geom_source>  (10) 
Heuristics

$$$$

     RDKit          3D

 10  8  0  0  0  0  0  0  0  0999 V2000
    1.4157    0.9751    1.4768 S   0  0  0  0  0  0  0  0  0  0  0  0
    0.0106    0.7253    0.5080 C   0  0  0  0  0  3  0  0  0  0  0  0
   -1.4959    1.2399    0.7591 S   0  0  0  0  0  0  0  0  0  0  0  0
    0.8162    1.7003    2.4347 H   0  0  0  0  0  0  0  0  0  0  0  0
    0.0106   -1.7089   -0.4446 C   0  0  0  0  0  0  0  0  0  0  0  0
    0.0106   -1.7089   -2.2552 S   0  0  0  0  0  0  0  0  0  0  0  0
    0.0106   -0.4931    0.0312 H   0  0  0  0  0  0  0  0  0  0  0  0
   -0.9100   -2.2030   -0.1387 H   0  0  0  0  0  0  0  0  0  0  0  0
    0.8550   -2.2689   -0.0481 H   0  0  0  0  0  0  0  0  0  0  0  0
    1.1810   -1.0808   -2.4216 H   0  0  0  0  0  0  0  0  0  0  0  0
  1  2  1  0
  1  4  1  0
  2  3  2  0
  5  6  1  0
  5  7  1  0
  5  8  1  0
  5  9  1  0
  6 10  1  0
M  RAD  1   2   2
M  END
>  <reaction>  (11) 
rxn_1860

>  <mol_properties>  (11) 
{"0": {"label": "*0", "atom_type": "S2s"}, "1": {"label": "*1", "atom_type": "CS"}, "4": {"label": "*3", "atom_type": "Cs"}, "5": {"label": "*4", "atom_type": "S2s"}, "6": {"label": "*2", "atom_type": "H0"}}

>  <type>  (11) 
unop_7

>  <geom_source>  (11) 
Heuristics

$$$$

     RDKit          3D

 10  8  0  0  0  0  0  0  0  0999 V2000
   -1.5327    1.2624    0.7415 S   0  0  0  0  0  0  0  0  0  0  0  0
    0.0897    0.7170    0.5281 C   0  0  0  0  0  3  0  0  0  0  0  0
    1.3718    0.9617    1.4735 S   0  0  0  0  0  0  0  0  0  0  0  0
   -1.3268    1.9115    1.8987 H   0  0  0  0  0  0  0  0  0  0  0  0
    0.0897   -1.7173   -0.4245 C   0  0  0  0  0  0  0  0  0  0  0  0
    0.0897   -1.7173   -2.2351 S   0  0  0  0  0  0  0  0  0  0  0  0
    0.0897   -0.5014    0.0513 H   0  0  0  0  0  0  0  0  0  0  0  0
   -0.8310   -2.2114   -0.1185 H   0  0  0  0  0  0  0  0  0  0  0  0
    0.9340   -2.2773   -0.0280 H   0  0  0  0  0  0  0  0  0  0  0  0
    1.2600   -1.0891   -2.4015 H   0  0  0  0  0  0  0  0  0  0  0  0
  1  2  1  0
  1  4  1  0
  2  3  2  0
  5  6  1  0
  5  7  1  0
  5  8  1  0
  5  9  1  0
  6 10  1  0
M  RAD  1   2   2
M  END
>  <reaction>  (12) 
rxn_1860

>  <mol_properties>  (12) 
{"0": {"label": "*0", "atom_type": "S2s"}, "1": {"label": "*1", "atom_type": "CS"}, "4": {"label": "*3", "atom_type": "Cs"}, "5": {"label": "*4", "atom_type": "S2s"}, "6": {"label": "*2", "atom_type": "H0"}}

>  <type>  (12) 
unop_8

>  <geom_source>  (12) 
Heuristics

$$$$

     RDKit          3D

 10  8  0  0  0  0  0  0  0  0999 V2000
    0.6734    1.6415   -0.3764 S   0  0  0  0  0  0  0  0  0  0  0  0
   -0.1378    0.5841    0.7186 C   0  0  0  0  0  3  0  0  0  0  0  0
   -0.4774    0.8092    2.2780 S   0  0  0  0  0  0  0  0  0  0  0  0
    0.8909    2.6349    0.5003 H   0  0  0  0  0  0  0  0  0  0  0  0
   -0.1378   -1.8502   -0.2339 C   0  0  0  0  0  0  0  0  0  0  0  0
   -0.1378   -1.8502   -2.0446 S   0  0  0  0  0  0  0  0  0  0  0  0
   -0.1378   -0.6343    0.2418 H   0  0  0  0  0  0  0  0  0  0  0  0
   -1.0585   -2.3443    0.0720 H   0  0  0  0  0  0  0  0  0  0  0  0
    0.7066   -2.4102    0.1625 H   0  0  0  0  0  0  0  0  0  0  0  0
    1.0325   -1.2220   -2.2110 H   0  0  0  0  0  0  0  0  0  0  0  0
  1  2  1  0
  1  4  1  0
  2  3  2  0
  5  6  1  0
  5  7  1  0
  5  8  1  0
  5  9  1  0
  6 10  1  0
M  RAD  1   2   2
M  END
>  <reaction>  (13) 
rxn_1860

>  <mol_properties>  (13) 
{"0": {"label": "*0", "atom_type": "S2s"}, "1": {"label": "*1", "atom_type": "CS"}, "4": {"label": "*3", "atom_type": "Cs"}, "5": {"label": "*4", "atom_type": "S2s"}, "6": {"label": "*2", "atom_type": "H0"}}

>  <type>  (13) 
unop_9

>  <geom_source>  (13) 
Heuristics

$$$$

     RDKit          3D

 10  8  0  0  0  0  0  0  0  0999 V2000
   -1.2486    1.4988    0.0737 S   0  0  0  0  0  0  0  0  0  0  0  0
    0.1565    0.6577    0.6157 C   0  0  0  0  0  3  0  0  0  0  0  0
    0.9643    0.8249    2.0002 S   0  0  0  0  0  0  0  0  0  0  0  0
   -1.3918    2.2763    1.1590 H   0  0  0  0  0  0  0  0  0  0  0  0
    0.1565   -1.7765   -0.3369 C   0  0  0  0  0  0  0  0  0  0  0  0
    0.1565   -1.7765   -2.1475 S   0  0  0  0  0  0  0  0  0  0  0  0
    0.1565   -0.5607    0.1389 H   0  0  0  0  0  0  0  0  0  0  0  0
   -0.7642   -2.2706   -0.0309 H   0  0  0  0  0  0  0  0  0  0  0  0
    1.0008   -2.3365    0.0596 H   0  0  0  0  0  0  0  0  0  0  0  0
    1.3268   -1.1483   -2.3139 H   0  0  0  0  0  0  0  0  0  0  0  0
  1  2  1  0
  1  4  1  0
  2  3  2  0
  5  6  1  0
  5  7  1  0
  5  8  1  0
  5  9  1  0
  6 10  1  0
M  RAD  1   2   2
M  END
>  <reaction>  (14) 
rxn_1860

>  <mol_properties>  (14) 
{"0": {"label": "*0", "atom_type": "S2s"}, "1": {"label": "*1", "atom_type": "CS"}, "4": {"label": "*3", "atom_type": "Cs"}, "5": {"label": "*4", "atom_type": "S2s"}, "6": {"label": "*2", "atom_type": "H0"}}

>  <type>  (14) 
unop_10

>  <geom_source>  (14) 
Heuristics

$$$$

     RDKit          3D

 10  8  0  0  0  0  0  0  0  0999 V2000
    0.8944    0.6991    2.0902 S   0  0  0  0  0  0  0  0  0  0  0  0
    0.0832    0.6657    0.5683 C   0  0  0  0  0  3  0  0  0  0  0  0
   -1.0922    1.6265    0.0272 S   0  0  0  0  0  0  0  0  0  0  0  0
    0.2235    1.7443    2.6003 H   0  0  0  0  0  0  0  0  0  0  0  0
    0.0832   -1.7685   -0.3842 C   0  0  0  0  0  0  0  0  0  0  0  0
    0.0832   -1.7685   -2.1949 S   0  0  0  0  0  0  0  0  0  0  0  0
    0.0832   -0.5527    0.0915 H   0  0  0  0  0  0  0  0  0  0  0  0
   -0.8375   -2.2627   -0.0783 H   0  0  0  0  0  0  0  0  0  0  0  0
    0.9276   -2.3285    0.0122 H   0  0  0  0  0  0  0  0  0  0  0  0
    1.2535   -1.1404   -2.3613 H   0  0  0  0  0  0  0  0  0  0  0  0
  1  2  1  0
  1  4  1  0
  2  3  2  0
  5  6  1  0
  5  7  1  0
  5  8  1  0
  5  9  1  0
  6 10  1  0
M  RAD  1   2   2
M  END
>  <reaction>  (15) 
rxn_1860

>  <mol_properties>  (15) 
{"0": {"label": "*0", "atom_type": "S2s"}, "1": {"label": "*1", "atom_type": "CS"}, "4": {"label": "*3", "atom_type": "Cs"}, "5": {"label": "*4", "atom_type": "S2s"}, "6": {"label": "*2", "atom_type": "H0"}}

>  <type>  (15) 
unop_11

>  <geom_source>  (15) 
Heuristics

$$$$

     RDKit          3D

 10  8  0  0  0  0  0  0  0  0999 V2000
   -0.0088    1.6856   -0.5317 S   0  0  0  0  0  0  0  0  0  0  0  0
   -0.0088    0.5489    0.7657 C   0  0  0  0  0  3  0  0  0  0  0  0
   -0.0088    0.8261    2.3534 S   0  0  0  0  0  0  0  0  0  0  0  0
   -0.0088    2.7908    0.2308 H   0  0  0  0  0  0  0  0  0  0  0  0
   -0.0088   -1.8853   -0.1868 C   0  0  0  0  0  0  0  0  0  0  0  0
   -0.0088   -1.8853   -1.9975 S   0  0  0  0  0  0  0  0  0  0  0  0
   -0.0088   -0.6695    0.2889 H   0  0  0  0  0  0  0  0  0  0  0  0
   -0.9295   -2.3794    0.1191 H   0  0  0  0  0  0  0  0  0  0  0  0
    0.8355   -2.4453    0.2096 H   0  0  0  0  0  0  0  0  0  0  0  0
    1.1615   -1.2571   -2.1639 H   0  0  0  0  0  0  0  0  0  0  0  0
  1  2  1  0
  1  4  1  0
  2  3  2  0
  5  6  1  0
  5  7  1  0
  5  8  1  0
  5  9  1  0
  6 10  1  0
M  RAD  1   2   2
M  END
>  <reaction>  (16) 
rxn_1860

>  <mol_properties>  (16) 
{"0": {"label": "*0", "atom_type": "S2s"}, "1": {"label": "*1", "atom_type": "CS"}, "4": {"label": "*3", "atom_type": "Cs"}, "5": {"label": "*4", "atom_type": "S2s"}, "6": {"label": "*2", "atom_type": "H0"}}

>  <type>  (16) 
unop_12

>  <geom_source>  (16) 
Heuristics

$$$$

     RDKit          3D

 10  8  0  0  0  0  0  0  0  0999 V2000
   -2.0411    0.7607    0.6473 S   0  0  0  0  0  0  0  0  0  0  0  0
    0.9453    0.3957    0.6225 S   0  0  0  0  0  0  0  0  0  0  0  0
   -1.3674   -1.9393    0.9292 S   0  0  0  0  0  0  0  0  0  0  0  0
    0.8705    0.2083   -1.1805 C   0  0  0  0  0  3  0  0  0  0  0  0
   -1.0550   -0.6910    0.2983 C   0  0  0  0  0  0  0  0  0  0  0  0
   -0.0337   -0.6134   -0.5587 H   0  0  0  0  0  0  0  0  0  0  0  0
    0.1049    0.8977   -1.5918 H   0  0  0  0  0  0  0  0  0  0  0  0
    1.8596    0.4510   -1.6211 H   0  0  0  0  0  0  0  0  0  0  0  0
   -1.2020    1.1438    1.7105 H   0  0  0  0  0  0  0  0  0  0  0  0
    1.9188   -0.6135    0.7442 H   0  0  0  0  0  0  0  0  0  0  0  0
  1  5  1  0
  1  9  1  0
  2  4  1  0
  2 10  1  0
  3  5  2  0
  4  7  1  0
  4  8  1  0
  5  6  1  0
M  RAD  1   4   2
M  END
>  <reaction>  (17) 
rxn_1860

>  <mol_properties>  (17) 
{"0": {"label": "*0", "atom_type": "S2s"}, "1": {"label": "*1", "atom_type": "CS"}, "4": {"label": "*3", "atom_type": "Cs"}, "5": {"label": "*4", "atom_type": "S2s"}, "6": {"label": "*2", "atom_type": "H0"}}

>  <type>  (17) 
unop_13

>  <geom_source>  (17) 
AutoTST

$$$$
