
     RDKit          3D

 12 11  0  0  0  0  0  0  0  0999 V2000
    1.9877    0.1011    0.4814 C   0  0  0  0  0  0  0  0  0  0  0  0
    0.8179    0.5502    0.0525 C   0  0  0  0  0  0  0  0  0  0  0  0
   -0.2939   -0.2692   -0.5320 C   0  0  0  0  0  0  0  0  0  0  0  0
   -0.0292   -1.7631   -0.6328 C   0  0  0  0  0  0  0  0  0  0  0  0
    2.2522   -0.9490    0.4436 H   0  0  0  0  0  0  0  0  0  0  0  0
    2.7295    0.7757    0.8896 H   0  0  0  0  0  0  0  0  0  0  0  0
    0.6162    1.6164    0.1190 H   0  0  0  0  0  0  0  0  0  0  0  0
   -0.5268    0.1319   -1.5245 H   0  0  0  0  0  0  0  0  0  0  0  0
   -1.1959   -0.0938    0.0644 H   0  0  0  0  0  0  0  0  0  0  0  0
    0.1590   -2.1992    0.3502 H   0  0  0  0  0  0  0  0  0  0  0  0
    0.8382   -1.9701   -1.2626 H   0  0  0  0  0  0  0  0  0  0  0  0
   -0.8879   -2.2759   -1.0672 H   0  0  0  0  0  0  0  0  0  0  0  0
  1  2  2  3
  1  5  1  0
  1  6  1  0
  2  3  1  0
  2  7  1  0
  3  4  1  0
  3  8  1  0
  3  9  1  0
  4 10  1  0
  4 11  1  0
  4 12  1  0
M  END
>  <reaction>  (1) 
rxn_753

>  <mol_properties>  (1) 
{"2": {"label": "donator", "atom_type": "Cs"}, "7": {"label": "d_hydrogen", "atom_type": "H0"}}

>  <type>  (1) 
r1h

$$$$

     RDKit          3D

  1  0  0  0  0  0  0  0  0  0999 V2000
    0.0000    0.0000    0.0000 H   0  0  0  0  0 15  0  0  0  0  0  0
M  END
>  <reaction>  (2) 
rxn_753

>  <mol_properties>  (2) 
{"0": {"label": "acceptor", "atom_type": "H0"}}

>  <type>  (2) 
r2

$$$$

     RDKit          3D

  2  1  0  0  0  0  0  0  0  0999 V2000
    0.0000    0.0000    0.3721 H   0  0  0  0  0  0  0  0  0  0  0  0
    0.0000    0.0000   -0.3721 H   0  0  0  0  0  0  0  0  0  0  0  0
  1  2  1  0
M  END
>  <reaction>  (3) 
rxn_753

>  <mol_properties>  (3) 
{"0": {"label": "acceptor", "atom_type": "H0"}, "1": {"label": "a_hydrogen", "atom_type": "H0"}}

>  <type>  (3) 
r2h

$$$$

     RDKit          3D

 13 11  0  0  0  0  0  0  0  0999 V2000
    1.8465    0.1714    2.1493 H   0  0  0  0  0 15  0  0  0  0  0  0
    0.0311   -0.9985   -1.3046 C   0  0  0  0  0  0  0  0  0  0  0  0
   -0.1026   -0.9916    0.0168 C   0  0  0  0  0  0  0  0  0  0  0  0
   -0.0907    0.2056    0.8853 C   0  0  0  0  0  0  0  0  0  0  0  0
   -0.0599    1.5631    0.2232 C   0  0  0  0  0  0  0  0  0  0  0  0
    0.1442   -0.0860   -1.8776 H   0  0  0  0  0  0  0  0  0  0  0  0
    0.0223   -1.9266   -1.8614 H   0  0  0  0  0  0  0  0  0  0  0  0
   -0.2162   -1.9404    0.5336 H   0  0  0  0  0  0  0  0  0  0  0  0
    0.9245    0.1304    1.5531 H   0  0  0  0  0  0  0  0  0  0  0  0
   -0.8558    0.1384    1.6615 H   0  0  0  0  0  0  0  0  0  0  0  0
   -0.9546    1.7214   -0.3838 H   0  0  0  0  0  0  0  0  0  0  0  0
    0.8101    1.6681   -0.4272 H   0  0  0  0  0  0  0  0  0  0  0  0
   -0.0151    2.3539    0.9722 H   0  0  0  0  0  0  0  0  0  0  0  0
  2  3  2  3
  2  6  1  0
  2  7  1  0
  3  4  1  0
  3  8  1  0
  4  5  1  0
  4  9  1  0
  4 10  1  0
  5 11  1  0
  5 12  1  0
  5 13  1  0
M  END
>  <reaction>  (4) 
rxn_753

>  <mol_properties>  (4) 
{"0": {"label": "*1", "atom_type": "H0"}, "2": {"label": "*4", "atom_type": "Cd"}, "3": {"label": "*3", "atom_type": "Cs"}, "8": {"label": "*2", "atom_type": "H0"}}

>  <type>  (4) 
ts

$$$$

     RDKit          3D

 13 11  0  0  0  0  0  0  0  0999 V2000
    1.7179    0.0828    2.2420 H   0  0  0  0  0 15  0  0  0  0  0  0
   -0.0340   -0.9847   -1.3121 C   0  0  0  0  0  0  0  0  0  0  0  0
   -0.0340   -0.9847    0.0122 C   0  0  0  0  0  0  0  0  0  0  0  0
   -0.0340    0.2198    0.9057 C   0  0  0  0  0  0  0  0  0  0  0  0
   -0.0340    1.5655    0.1980 C   0  0  0  0  0  0  0  0  0  0  0  0
   -0.0340   -0.0678   -1.8896 H   0  0  0  0  0  0  0  0  0  0  0  0
   -0.0340   -1.9121   -1.8708 H   0  0  0  0  0  0  0  0  0  0  0  0
   -0.0340   -1.9405    0.5304 H   0  0  0  0  0  0  0  0  0  0  0  0
    1.0093    0.1382    1.7014 H   0  0  0  0  0  0  0  0  0  0  0  0
   -0.9034    0.1518    1.5688 H   0  0  0  0  0  0  0  0  0  0  0  0
   -0.9165    1.6805   -0.4344 H   0  0  0  0  0  0  0  0  0  0  0  0
    0.8484    1.6805   -0.4344 H   0  0  0  0  0  0  0  0  0  0  0  0
   -0.0340    2.3799    0.9233 H   0  0  0  0  0  0  0  0  0  0  0  0
  2  3  2  3
  2  6  1  0
  2  7  1  0
  3  4  1  0
  3  8  1  0
  4  5  1  0
  4  9  1  0
  4 10  1  0
  5 11  1  0
  5 12  1  0
  5 13  1  0
M  END
>  <reaction>  (5) 
rxn_753

>  <mol_properties>  (5) 
{"0": {"label": "*1", "atom_type": "H0"}, "2": {"label": "*4", "atom_type": "Cd"}, "3": {"label": "*3", "atom_type": "Cs"}, "8": {"label": "*2", "atom_type": "H0"}}

>  <type>  (5) 
unop_1

>  <geom_source>  (5) 
Heuristics

$$$$

     RDKit          3D

 13 11  0  0  0  0  0  0  0  0999 V2000
   -1.0002   -1.0168   -0.2364 C   0  0  0  0  0  0  0  0  0  0  0  0
   -0.4366    0.3988   -0.2120 C   0  0  0  0  0  0  0  0  0  0  0  0
    0.8049    0.4939    0.6267 C   0  0  0  0  0  0  0  0  0  0  0  0
    1.9632   -0.0433    0.2334 C   0  0  0  0  0  0  0  0  0  0  0  0
   -1.9495   -1.0224   -0.8111 H   0  0  0  0  0  0  0  0  0  0  0  0
   -1.2094   -1.3622    0.7982 H   0  0  0  0  0  0  0  0  0  0  0  0
   -0.2842   -1.7133   -0.7220 H   0  0  0  0  0  0  0  0  0  0  0  0
   -0.2431    0.7644   -1.2436 H   0  0  0  0  0  0  0  0  0  0  0  0
    0.7608    1.0416    1.5624 H   0  0  0  0  0  0  0  0  0  0  0  0
    2.8464    0.0553    0.8560 H   0  0  0  0  0  0  0  0  0  0  0  0
    2.0398   -0.5791   -0.7079 H   0  0  0  0  0  0  0  0  0  0  0  0
   -1.9601    2.0045    0.0695 H   0  0  0  0  0 15  0  0  0  0  0  0
   -1.3320    0.9786   -0.2132 H   0  0  0  0  0  0  0  0  0  0  0  0
  1  2  1  0
  1  5  1  0
  1  6  1  0
  1  7  1  0
  2  3  1  0
  2  8  1  0
  2 13  1  0
  3  4  2  3
  3  9  1  0
  4 10  1  0
  4 11  1  0
M  END
>  <reaction>  (6) 
rxn_753

>  <mol_properties>  (6) 
{"0": {"label": "*1", "atom_type": "H0"}, "2": {"label": "*4", "atom_type": "Cd"}, "3": {"label": "*3", "atom_type": "Cs"}, "8": {"label": "*2", "atom_type": "H0"}}

>  <type>  (6) 
unop_2

>  <geom_source>  (6) 
AutoTST

$$$$

     RDKit          3D

 13 11  0  0  0  0  0  0  0  0999 V2000
    0.5650   -0.0780   -0.4971 C   0  0  0  0  0  0  0  0  0  0  0  0
    0.5842    1.4091   -0.1571 C   0  0  0  0  0  0  0  0  0  0  0  0
   -0.8257   -0.6421   -0.4128 C   0  0  0  0  0  0  0  0  0  0  0  0
   -1.4408   -0.8192    0.7599 C   0  0  0  0  0  0  0  0  0  0  0  0
    1.3153   -0.6933    0.2747 H   0  0  0  0  0  0  0  0  0  0  0  0
    0.9471   -0.2133   -1.5317 H   0  0  0  0  0  0  0  0  0  0  0  0
    1.6174    1.7998   -0.2678 H   0  0  0  0  0  0  0  0  0  0  0  0
    0.2561    1.5724    0.8912 H   0  0  0  0  0  0  0  0  0  0  0  0
   -0.0849    1.9702   -0.8441 H   0  0  0  0  0  0  0  0  0  0  0  0
   -1.3293   -0.9441   -1.3263 H   0  0  0  0  0  0  0  0  0  0  0  0
   -0.9555   -0.5480    1.6926 H   0  0  0  0  0  0  0  0  0  0  0  0
   -2.4391   -1.2434    0.7905 H   0  0  0  0  0  0  0  0  0  0  0  0
    1.7901   -1.5701    0.6279 H   0  0  0  0  0 15  0  0  0  0  0  0
  1  2  1  0
  1  3  1  0
  1  5  1  0
  1  6  1  0
  2  7  1  0
  2  8  1  0
  2  9  1  0
  3  4  2  3
  3 10  1  0
  4 11  1  0
  4 12  1  0
M  END
>  <reaction>  (7) 
rxn_753

>  <mol_properties>  (7) 
{"0": {"label": "*1", "atom_type": "H0"}, "2": {"label": "*4", "atom_type": "Cd"}, "3": {"label": "*3", "atom_type": "Cs"}, "8": {"label": "*2", "atom_type": "H0"}}

>  <type>  (7) 
unop_3

>  <geom_source>  (7) 
gaussian_log

$$$$
