
     RDKit          3D

 10  9  0  0  0  0  0  0  0  0999 V2000
    2.2738    0.0217   -0.0992 C   0  0  0  0  0  0  0  0  0  0  0  0
    1.1083    0.2960   -0.0695 C   0  0  0  0  0  0  0  0  0  0  0  0
   -0.3173    0.6046   -0.0227 C   0  0  0  0  0  0  0  0  0  0  0  0
   -1.1561   -0.5495    0.5292 C   0  0  0  0  0  0  0  0  0  0  0  0
    3.3097   -0.2166   -0.1277 H   0  0  0  0  0  0  0  0  0  0  0  0
   -0.6542    0.8617   -1.0302 H   0  0  0  0  0  0  0  0  0  0  0  0
   -0.4633    1.4978    0.5900 H   0  0  0  0  0  0  0  0  0  0  0  0
   -0.8485   -0.7997    1.5447 H   0  0  0  0  0  0  0  0  0  0  0  0
   -2.2115   -0.2752    0.5459 H   0  0  0  0  0  0  0  0  0  0  0  0
   -1.0409   -1.4407   -0.0879 H   0  0  0  0  0  0  0  0  0  0  0  0
  1  2  3  0
  1  5  1  0
  2  3  1  0
  3  4  1  0
  3  6  1  0
  3  7  1  0
  4  8  1  0
  4  9  1  0
  4 10  1  0
M  END
>  <reaction>  (1) 
rxn_1272

>  <mol_properties>  (1) 
{"2": {"label": "donator", "atom_type": "Cs"}, "5": {"label": "d_hydrogen", "atom_type": "H0"}}

>  <type>  (1) 
r1h

$$$$

     RDKit          3D

 17 17  0  0  0  0  0  0  0  0999 V2000
    2.7069    0.2860   -0.1817 C   0  0  0  0  0  0  0  0  0  0  0  0
    1.6304   -0.7245    0.0085 C   0  0  0  0  0  0  0  0  0  0  0  0
    1.4786   -1.8800   -0.7837 C   0  0  0  0  0  0  0  0  0  0  0  0
    0.4231   -2.7891   -0.5312 C   0  0  0  0  0  3  0  0  0  0  0  0
    0.2582   -3.9235   -1.2940 C   0  0  0  0  0  0  0  0  0  0  0  0
    1.1348   -4.2030   -2.3401 C   0  0  0  0  0  0  0  0  0  0  0  0
    2.1804   -3.3260   -2.6093 C   0  0  0  0  0  0  0  0  0  0  0  0
    2.3549   -2.1866   -1.8513 C   0  0  0  0  0  0  0  0  0  0  0  0
    2.6698    0.7343   -1.1808 H   0  0  0  0  0  0  0  0  0  0  0  0
    3.7029   -0.1584   -0.0766 H   0  0  0  0  0  0  0  0  0  0  0  0
    2.6250    1.0917    0.5463 H   0  0  0  0  0  0  0  0  0  0  0  0
    0.9136   -0.5677    0.8059 H   0  0  0  0  0  0  0  0  0  0  0  0
   -0.2629   -2.5783    0.2811 H   0  0  0  0  0  0  0  0  0  0  0  0
   -0.5582   -4.6017   -1.0785 H   0  0  0  0  0  0  0  0  0  0  0  0
    1.0033   -5.0952   -2.9384 H   0  0  0  0  0  0  0  0  0  0  0  0
    2.8650   -3.5382   -3.4214 H   0  0  0  0  0  0  0  0  0  0  0  0
    3.1750   -1.5169   -2.0772 H   0  0  0  0  0  0  0  0  0  0  0  0
  1  2  1  0
  1  9  1  0
  1 10  1  0
  1 11  1  0
  2  3  2  3
  2 12  1  0
  3  4  1  0
  3  8  1  0
  4  5  1  0
  4 13  1  0
  5  6  2  0
  5 14  1  0
  6  7  1  0
  6 15  1  0
  7  8  2  0
  7 16  1  0
  8 17  1  0
M  RAD  1   4   2
M  END
>  <reaction>  (2) 
rxn_1272

>  <mol_properties>  (2) 
{"1": {"label": "acceptor", "atom_type": "Cs"}}

>  <type>  (2) 
r2

$$$$

     RDKit          3D

 18 18  0  0  0  0  0  0  0  0999 V2000
   -2.4852    0.3210   -0.3966 C   0  0  0  0  0  0  0  0  0  0  0  0
   -1.5917   -0.2708    0.6941 C   0  0  0  0  0  0  0  0  0  0  0  0
   -0.1292   -0.1692    0.3493 C   0  0  0  0  0  0  0  0  0  0  0  0
    0.6099    0.9558    0.7015 C   0  0  0  0  0  0  0  0  0  0  0  0
    1.9447    1.0728    0.3458 C   0  0  0  0  0  0  0  0  0  0  0  0
    2.5646    0.0613   -0.3720 C   0  0  0  0  0  0  0  0  0  0  0  0
    1.8399   -1.0657   -0.7287 C   0  0  0  0  0  0  0  0  0  0  0  0
    0.5055   -1.1769   -0.3700 C   0  0  0  0  0  0  0  0  0  0  0  0
   -2.3325   -0.1971   -1.3452 H   0  0  0  0  0  0  0  0  0  0  0  0
   -2.2554    1.3763   -0.5546 H   0  0  0  0  0  0  0  0  0  0  0  0
   -3.5397    0.2376   -0.1280 H   0  0  0  0  0  0  0  0  0  0  0  0
   -1.7801    0.2462    1.6380 H   0  0  0  0  0  0  0  0  0  0  0  0
   -1.8568   -1.3190    0.8516 H   0  0  0  0  0  0  0  0  0  0  0  0
    0.1327    1.7497    1.2656 H   0  0  0  0  0  0  0  0  0  0  0  0
    2.5033    1.9550    0.6330 H   0  0  0  0  0  0  0  0  0  0  0  0
    3.6077    0.1491   -0.6484 H   0  0  0  0  0  0  0  0  0  0  0  0
    2.3163   -1.8632   -1.2854 H   0  0  0  0  0  0  0  0  0  0  0  0
   -0.0540   -2.0629   -0.6500 H   0  0  0  0  0  0  0  0  0  0  0  0
  1  2  1  0
  1  9  1  0
  1 10  1  0
  1 11  1  0
  2  3  1  0
  2 12  1  0
  2 13  1  0
  3  4  2  0
  3  8  1  0
  4  5  1  0
  4 14  1  0
  5  6  2  0
  5 15  1  0
  6  7  1  0
  6 16  1  0
  7  8  2  0
  7 17  1  0
  8 18  1  0
M  END
>  <reaction>  (3) 
rxn_1272

>  <mol_properties>  (3) 
{"0": {"label": "a_hydrogen", "atom_type": "H0"}, "2": {"label": "acceptor", "atom_type": "Cs"}}

>  <type>  (3) 
r2h

$$$$

     RDKit          3D

 27 26  0  0  0  0  0  0  0  0999 V2000
   -2.0287    0.8159   -2.4580 C   0  0  0  0  0  0  0  0  0  0  0  0
   -1.7375    1.3656   -1.4271 C   0  0  0  0  0  0  0  0  0  0  0  0
   -1.3210    1.9946   -0.2219 C   0  0  0  0  0  3  0  0  0  0  0  0
   -1.0443    3.4799   -0.2728 C   0  0  0  0  0  0  0  0  0  0  0  0
   -2.3114    0.3342   -3.3626 H   0  0  0  0  0  0  0  0  0  0  0  0
   -0.1175    1.4268    0.0593 H   0  0  0  0  0  0  0  0  0  0  0  0
   -1.8870    1.6678    0.6493 H   0  0  0  0  0  0  0  0  0  0  0  0
   -1.9655    4.0509   -0.4131 H   0  0  0  0  0  0  0  0  0  0  0  0
   -0.5789    3.8124    0.6564 H   0  0  0  0  0  0  0  0  0  0  0  0
   -0.3749    3.7201   -1.0999 H   0  0  0  0  0  0  0  0  0  0  0  0
    1.7462    1.1714   -1.1122 C   0  0  0  0  0  0  0  0  0  0  0  0
    1.0878    0.8796    0.2121 C   0  0  0  0  0  0  0  0  0  0  0  0
    0.7935   -0.5097    0.5886 C   0  0  0  0  0  0  0  0  0  0  0  0
    0.6375   -0.8490    1.9369 C   0  0  0  0  0  0  0  0  0  0  0  0
    0.3065   -2.1364    2.3180 C   0  0  0  0  0  0  0  0  0  0  0  0
    0.1183   -3.1213    1.3576 C   0  0  0  0  0  0  0  0  0  0  0  0
    0.2649   -2.8012    0.0163 C   0  0  0  0  0  0  0  0  0  0  0  0
    0.5959   -1.5117   -0.3655 C   0  0  0  0  0  0  0  0  0  0  0  0
    1.1106    0.8733   -1.9487 H   0  0  0  0  0  0  0  0  0  0  0  0
    2.6985    0.6421   -1.2093 H   0  0  0  0  0  0  0  0  0  0  0  0
    1.9417    2.2392   -1.2148 H   0  0  0  0  0  0  0  0  0  0  0  0
    1.4889    1.4637    1.0398 H   0  0  0  0  0  0  0  0  0  0  0  0
    0.7857   -0.0860    2.6931 H   0  0  0  0  0  0  0  0  0  0  0  0
    0.1971   -2.3753    3.3686 H   0  0  0  0  0  0  0  0  0  0  0  0
   -0.1397   -4.1302    1.6535 H   0  0  0  0  0  0  0  0  0  0  0  0
    0.1182   -3.5620   -0.7404 H   0  0  0  0  0  0  0  0  0  0  0  0
    0.6979   -1.2795   -1.4175 H   0  0  0  0  0  0  0  0  0  0  0  0
  1  2  3  0
  1  5  1  0
  2  3  1  0
  3  4  1  0
  3  7  1  0
  4  8  1  0
  4  9  1  0
  4 10  1  0
  6 12  1  0
 11 12  1  0
 11 19  1  0
 11 20  1  0
 11 21  1  0
 12 13  1  0
 12 22  1  0
 13 14  2  0
 13 18  1  0
 14 15  1  0
 14 23  1  0
 15 16  2  0
 15 24  1  0
 16 17  1  0
 16 25  1  0
 17 18  2  0
 17 26  1  0
 18 27  1  0
M  RAD  1   3   2
M  END
>  <reaction>  (4) 
rxn_1272

>  <mol_properties>  (4) 
{"1": {"label": "*4", "atom_type": "Ct"}, "2": {"label": "*3", "atom_type": "Cs"}, "5": {"label": "*2", "atom_type": "H0"}, "11": {"label": "*1", "atom_type": "Cs"}, "12": {"label": "*0", "atom_type": "Cd"}}

>  <type>  (4) 
ts

$$$$

     RDKit          3D

 27 26  0  0  0  0  0  0  0  0999 V2000
   -2.2044    1.7532   -2.6013 C   0  0  0  0  0  0  0  0  0  0  0  0
   -2.2044    1.7532   -1.4036 C   0  0  0  0  0  0  0  0  0  0  0  0
   -2.2044    1.7814    0.0555 C   0  0  0  0  0  3  0  0  0  0  0  0
   -2.2044    3.2028    0.6211 C   0  0  0  0  0  0  0  0  0  0  0  0
   -2.2044    1.7532   -3.6646 H   0  0  0  0  0  0  0  0  0  0  0  0
   -1.1538    1.1273    0.4896 H   0  0  0  0  0  0  0  0  0  0  0  0
   -3.0800    1.2364    0.4173 H   0  0  0  0  0  0  0  0  0  0  0  0
   -3.0867    3.7507    0.2897 H   0  0  0  0  0  0  0  0  0  0  0  0
   -2.2044    3.1755    1.7114 H   0  0  0  0  0  0  0  0  0  0  0  0
   -1.3222    3.7507    0.2897 H   0  0  0  0  0  0  0  0  0  0  0  0
    0.7737    1.4130    1.7516 C   0  0  0  0  0  0  0  0  0  0  0  0
   -0.1035    0.4734    0.9235 C   0  0  0  0  0  0  0  0  0  0  0  0
    0.6528   -0.7379    0.4452 C   0  0  0  0  0  0  0  0  0  0  0  0
    0.7201   -1.8895    1.2231 C   0  0  0  0  0  0  0  0  0  0  0  0
    1.4533   -2.9900    0.8069 C   0  0  0  0  0  0  0  0  0  0  0  0
    2.1348   -2.9558   -0.4002 C   0  0  0  0  0  0  0  0  0  0  0  0
    2.0755   -1.8147   -1.1857 C   0  0  0  0  0  0  0  0  0  0  0  0
    1.3406   -0.7174   -0.7641 C   0  0  0  0  0  0  0  0  0  0  0  0
    1.6246    1.7648    1.1653 H   0  0  0  0  0  0  0  0  0  0  0  0
    1.1668    0.9001    2.6314 H   0  0  0  0  0  0  0  0  0  0  0  0
    0.2077    2.2833    2.0882 H   0  0  0  0  0  0  0  0  0  0  0  0
   -0.9603    0.1549    1.5220 H   0  0  0  0  0  0  0  0  0  0  0  0
    0.1872   -1.9249    2.1670 H   0  0  0  0  0  0  0  0  0  0  0  0
    1.4897   -3.8782    1.4254 H   0  0  0  0  0  0  0  0  0  0  0  0
    2.7056   -3.8150   -0.7288 H   0  0  0  0  0  0  0  0  0  0  0  0
    2.6006   -1.7798   -2.1322 H   0  0  0  0  0  0  0  0  0  0  0  0
    1.2964    0.1705   -1.3853 H   0  0  0  0  0  0  0  0  0  0  0  0
  1  2  3  0
  1  5  1  0
  2  3  1  0
  3  4  1  0
  3  7  1  0
  4  8  1  0
  4  9  1  0
  4 10  1  0
  6 12  1  0
 11 12  1  0
 11 19  1  0
 11 20  1  0
 11 21  1  0
 12 13  1  0
 12 22  1  0
 13 14  2  0
 13 18  1  0
 14 15  1  0
 14 23  1  0
 15 16  2  0
 15 24  1  0
 16 17  1  0
 16 25  1  0
 17 18  2  0
 17 26  1  0
 18 27  1  0
M  RAD  1   3   2
M  END
>  <reaction>  (5) 
rxn_1272

>  <mol_properties>  (5) 
{"1": {"label": "*4", "atom_type": "Ct"}, "2": {"label": "*3", "atom_type": "Cs"}, "5": {"label": "*2", "atom_type": "H0"}, "11": {"label": "*1", "atom_type": "Cs"}, "12": {"label": "*0", "atom_type": "Cd"}}

>  <type>  (5) 
unop_1

>  <geom_source>  (5) 
Heuristics

$$$$

     RDKit          3D

 27 26  0  0  0  0  0  0  0  0999 V2000
   -1.4377    2.0029   -3.4102 C   0  0  0  0  0  0  0  0  0  0  0  0
   -1.4377    2.0029   -2.2125 C   0  0  0  0  0  0  0  0  0  0  0  0
   -1.4377    2.0311   -0.7533 C   0  0  0  0  0  3  0  0  0  0  0  0
   -1.4376    3.4525   -0.1877 C   0  0  0  0  0  0  0  0  0  0  0  0
   -1.4377    2.0029   -4.4735 H   0  0  0  0  0  0  0  0  0  0  0  0
   -0.3871    1.3770   -0.3193 H   0  0  0  0  0  0  0  0  0  0  0  0
   -2.3132    1.4860   -0.3916 H   0  0  0  0  0  0  0  0  0  0  0  0
   -2.3199    4.0004   -0.5192 H   0  0  0  0  0  0  0  0  0  0  0  0
   -1.4376    3.4252    0.9026 H   0  0  0  0  0  0  0  0  0  0  0  0
   -0.5554    4.0003   -0.5192 H   0  0  0  0  0  0  0  0  0  0  0  0
    1.7943    0.8426   -0.9073 C   0  0  0  0  0  0  0  0  0  0  0  0
    0.6632    0.7231    0.1147 C   0  0  0  0  0  0  0  0  0  0  0  0
    0.5767   -0.6580    0.7092 C   0  0  0  0  0  0  0  0  0  0  0  0
    1.3049   -0.9913    1.8469 C   0  0  0  0  0  0  0  0  0  0  0  0
    1.2633   -2.2744    2.3703 C   0  0  0  0  0  0  0  0  0  0  0  0
    0.4887   -3.2496    1.7607 C   0  0  0  0  0  0  0  0  0  0  0  0
   -0.2428   -2.9306    0.6267 C   0  0  0  0  0  0  0  0  0  0  0  0
   -0.1970   -1.6458    0.1081 C   0  0  0  0  0  0  0  0  0  0  0  0
    1.6501    0.1378   -1.7282 H   0  0  0  0  0  0  0  0  0  0  0  0
    2.7581    0.6206   -0.4454 H   0  0  0  0  0  0  0  0  0  0  0  0
    1.8401    1.8495   -1.3258 H   0  0  0  0  0  0  0  0  0  0  0  0
    0.8157    1.4541    0.9123 H   0  0  0  0  0  0  0  0  0  0  0  0
    1.9106   -0.2331    2.3310 H   0  0  0  0  0  0  0  0  0  0  0  0
    1.8347   -2.5124    3.2589 H   0  0  0  0  0  0  0  0  0  0  0  0
    0.4522   -4.2515    2.1692 H   0  0  0  0  0  0  0  0  0  0  0  0
   -0.8543   -3.6841    0.1459 H   0  0  0  0  0  0  0  0  0  0  0  0
   -0.7743   -1.4030   -0.7774 H   0  0  0  0  0  0  0  0  0  0  0  0
  1  2  3  0
  1  5  1  0
  2  3  1  0
  3  4  1  0
  3  7  1  0
  4  8  1  0
  4  9  1  0
  4 10  1  0
  6 12  1  0
 11 12  1  0
 11 19  1  0
 11 20  1  0
 11 21  1  0
 12 13  1  0
 12 22  1  0
 13 14  2  0
 13 18  1  0
 14 15  1  0
 14 23  1  0
 15 16  2  0
 15 24  1  0
 16 17  1  0
 16 25  1  0
 17 18  2  0
 17 26  1  0
 18 27  1  0
M  RAD  1   3   2
M  END
>  <reaction>  (6) 
rxn_1272

>  <mol_properties>  (6) 
{"1": {"label": "*4", "atom_type": "Ct"}, "2": {"label": "*3", "atom_type": "Cs"}, "5": {"label": "*2", "atom_type": "H0"}, "11": {"label": "*1", "atom_type": "Cs"}, "12": {"label": "*0", "atom_type": "Cd"}}

>  <type>  (6) 
unop_2

>  <geom_source>  (6) 
Heuristics

$$$$

     RDKit          3D

 27 26  0  0  0  0  0  0  0  0999 V2000
   -2.5305    1.1849   -2.3616 C   0  0  0  0  0  0  0  0  0  0  0  0
   -2.5305    1.1849   -1.1639 C   0  0  0  0  0  0  0  0  0  0  0  0
   -2.5305    1.2131    0.2953 C   0  0  0  0  0  3  0  0  0  0  0  0
   -2.5305    2.6345    0.8609 C   0  0  0  0  0  0  0  0  0  0  0  0
   -2.5305    1.1849   -3.4249 H   0  0  0  0  0  0  0  0  0  0  0  0
   -1.4799    0.5590    0.7293 H   0  0  0  0  0  0  0  0  0  0  0  0
   -3.4060    0.6681    0.6570 H   0  0  0  0  0  0  0  0  0  0  0  0
   -3.4127    3.1824    0.5294 H   0  0  0  0  0  0  0  0  0  0  0  0
   -2.5305    2.6072    1.9512 H   0  0  0  0  0  0  0  0  0  0  0  0
   -1.6483    3.1824    0.5294 H   0  0  0  0  0  0  0  0  0  0  0  0
    0.0226    0.4983    2.4981 C   0  0  0  0  0  0  0  0  0  0  0  0
   -0.4296   -0.0949    1.1633 C   0  0  0  0  0  0  0  0  0  0  0  0
    0.7201   -0.6641    0.3744 C   0  0  0  0  0  0  0  0  0  0  0  0
    1.1157   -1.9871    0.5445 C   0  0  0  0  0  0  0  0  0  0  0  0
    2.2022   -2.5015   -0.1460 C   0  0  0  0  0  0  0  0  0  0  0  0
    2.9142   -1.6963   -1.0221 C   0  0  0  0  0  0  0  0  0  0  0  0
    2.5302   -0.3761   -1.2017 C   0  0  0  0  0  0  0  0  0  0  0  0
    1.4427    0.1324   -0.5083 C   0  0  0  0  0  0  0  0  0  0  0  0
    0.7446    1.3016    2.3396 H   0  0  0  0  0  0  0  0  0  0  0  0
    0.5033   -0.2621    3.1163 H   0  0  0  0  0  0  0  0  0  0  0  0
   -0.8241    0.9050    3.0537 H   0  0  0  0  0  0  0  0  0  0  0  0
   -1.1692   -0.8782    1.3460 H   0  0  0  0  0  0  0  0  0  0  0  0
    0.5618   -2.6239    1.2257 H   0  0  0  0  0  0  0  0  0  0  0  0
    2.4916   -3.5351   -0.0022 H   0  0  0  0  0  0  0  0  0  0  0  0
    3.7613   -2.0965   -1.5647 H   0  0  0  0  0  0  0  0  0  0  0  0
    3.0771    0.2595   -1.8870 H   0  0  0  0  0  0  0  0  0  0  0  0
    1.1464    1.1651   -0.6563 H   0  0  0  0  0  0  0  0  0  0  0  0
  1  2  3  0
  1  5  1  0
  2  3  1  0
  3  4  1  0
  3  7  1  0
  4  8  1  0
  4  9  1  0
  4 10  1  0
  6 12  1  0
 11 12  1  0
 11 19  1  0
 11 20  1  0
 11 21  1  0
 12 13  1  0
 12 22  1  0
 13 14  2  0
 13 18  1  0
 14 15  1  0
 14 23  1  0
 15 16  2  0
 15 24  1  0
 16 17  1  0
 16 25  1  0
 17 18  2  0
 17 26  1  0
 18 27  1  0
M  RAD  1   3   2
M  END
>  <reaction>  (7) 
rxn_1272

>  <mol_properties>  (7) 
{"1": {"label": "*4", "atom_type": "Ct"}, "2": {"label": "*3", "atom_type": "Cs"}, "5": {"label": "*2", "atom_type": "H0"}, "11": {"label": "*1", "atom_type": "Cs"}, "12": {"label": "*0", "atom_type": "Cd"}}

>  <type>  (7) 
unop_3

>  <geom_source>  (7) 
Heuristics

$$$$

     RDKit          3D

 27 26  0  0  0  0  0  0  0  0999 V2000
   -0.7442    0.7024   -4.1709 C   0  0  0  0  0  0  0  0  0  0  0  0
   -0.7442    0.7024   -2.9732 C   0  0  0  0  0  0  0  0  0  0  0  0
   -0.7442    0.7306   -1.5140 C   0  0  0  0  0  3  0  0  0  0  0  0
   -0.7442    2.1520   -0.9484 C   0  0  0  0  0  0  0  0  0  0  0  0
   -0.7442    0.7024   -5.2342 H   0  0  0  0  0  0  0  0  0  0  0  0
    0.3064    0.0765   -1.0799 H   0  0  0  0  0  0  0  0  0  0  0  0
   -1.6197    0.1855   -1.1523 H   0  0  0  0  0  0  0  0  0  0  0  0
   -1.6264    2.6999   -1.2799 H   0  0  0  0  0  0  0  0  0  0  0  0
   -0.7442    2.1247    0.1419 H   0  0  0  0  0  0  0  0  0  0  0  0
    0.1381    2.6998   -1.2799 H   0  0  0  0  0  0  0  0  0  0  0  0
    1.2937   -2.0239   -1.1377 C   0  0  0  0  0  0  0  0  0  0  0  0
    1.3567   -0.5774   -0.6460 C   0  0  0  0  0  0  0  0  0  0  0  0
    0.6807   -0.3995    0.6880 C   0  0  0  0  0  0  0  0  0  0  0  0
    1.3875   -0.5716    1.8740 C   0  0  0  0  0  0  0  0  0  0  0  0
    0.7579   -0.4537    3.1035 C   0  0  0  0  0  0  0  0  0  0  0  0
   -0.5959   -0.1605    3.1665 C   0  0  0  0  0  0  0  0  0  0  0  0
   -1.3121    0.0143    1.9921 C   0  0  0  0  0  0  0  0  0  0  0  0
   -0.6768   -0.1049    0.7657 C   0  0  0  0  0  0  0  0  0  0  0  0
    0.2579   -2.3510   -1.2458 H   0  0  0  0  0  0  0  0  0  0  0  0
    1.7808   -2.6953   -0.4281 H   0  0  0  0  0  0  0  0  0  0  0  0
    1.7884   -2.1316   -2.1046 H   0  0  0  0  0  0  0  0  0  0  0  0
    2.4009   -0.2650   -0.5697 H   0  0  0  0  0  0  0  0  0  0  0  0
    2.4474   -0.7980    1.8328 H   0  0  0  0  0  0  0  0  0  0  0  0
    1.3269   -0.5876    4.0151 H   0  0  0  0  0  0  0  0  0  0  0  0
   -1.0892   -0.0651    4.1255 H   0  0  0  0  0  0  0  0  0  0  0  0
   -2.3689    0.2479    2.0309 H   0  0  0  0  0  0  0  0  0  0  0  0
   -1.2430    0.0363   -0.1485 H   0  0  0  0  0  0  0  0  0  0  0  0
  1  2  3  0
  1  5  1  0
  2  3  1  0
  3  4  1  0
  3  7  1  0
  4  8  1  0
  4  9  1  0
  4 10  1  0
  6 12  1  0
 11 12  1  0
 11 19  1  0
 11 20  1  0
 11 21  1  0
 12 13  1  0
 12 22  1  0
 13 14  2  0
 13 18  1  0
 14 15  1  0
 14 23  1  0
 15 16  2  0
 15 24  1  0
 16 17  1  0
 16 25  1  0
 17 18  2  0
 17 26  1  0
 18 27  1  0
M  RAD  1   3   2
M  END
>  <reaction>  (8) 
rxn_1272

>  <mol_properties>  (8) 
{"1": {"label": "*4", "atom_type": "Ct"}, "2": {"label": "*3", "atom_type": "Cs"}, "5": {"label": "*2", "atom_type": "H0"}, "11": {"label": "*1", "atom_type": "Cs"}, "12": {"label": "*0", "atom_type": "Cd"}}

>  <type>  (8) 
unop_4

>  <geom_source>  (8) 
Heuristics

$$$$

     RDKit          3D

 27 26  0  0  0  0  0  0  0  0999 V2000
   -2.5765    0.1350   -2.5702 C   0  0  0  0  0  0  0  0  0  0  0  0
   -2.5765    0.1350   -1.3725 C   0  0  0  0  0  0  0  0  0  0  0  0
   -2.5765    0.1633    0.0867 C   0  0  0  0  0  3  0  0  0  0  0  0
   -2.5765    1.5846    0.6523 C   0  0  0  0  0  0  0  0  0  0  0  0
   -2.5765    0.1350   -3.6335 H   0  0  0  0  0  0  0  0  0  0  0  0
   -1.5259   -0.4908    0.5207 H   0  0  0  0  0  0  0  0  0  0  0  0
   -3.4520   -0.3818    0.4484 H   0  0  0  0  0  0  0  0  0  0  0  0
   -3.4587    2.1325    0.3208 H   0  0  0  0  0  0  0  0  0  0  0  0
   -2.5765    1.5574    1.7426 H   0  0  0  0  0  0  0  0  0  0  0  0
   -1.6943    2.1325    0.3208 H   0  0  0  0  0  0  0  0  0  0  0  0
   -0.4604   -1.1248    2.4836 C   0  0  0  0  0  0  0  0  0  0  0  0
   -0.4756   -1.1448    0.9547 C   0  0  0  0  0  0  0  0  0  0  0  0
    0.7712   -0.5400    0.3649 C   0  0  0  0  0  0  0  0  0  0  0  0
    1.8944   -1.3226    0.1162 C   0  0  0  0  0  0  0  0  0  0  0  0
    3.0590   -0.7609   -0.3837 C   0  0  0  0  0  0  0  0  0  0  0  0
    3.1193    0.5997   -0.6440 C   0  0  0  0  0  0  0  0  0  0  0  0
    2.0068    1.3912   -0.4014 C   0  0  0  0  0  0  0  0  0  0  0  0
    0.8450    0.8236    0.0985 C   0  0  0  0  0  0  0  0  0  0  0  0
   -0.3810   -0.1019    2.8563 H   0  0  0  0  0  0  0  0  0  0  0  0
    0.3932   -1.6853    2.8693 H   0  0  0  0  0  0  0  0  0  0  0  0
   -1.3714   -1.5668    2.8908 H   0  0  0  0  0  0  0  0  0  0  0  0
   -0.5808   -2.1749    0.6060 H   0  0  0  0  0  0  0  0  0  0  0  0
    1.8538   -2.3882    0.3143 H   0  0  0  0  0  0  0  0  0  0  0  0
    3.9210   -1.3883   -0.5740 H   0  0  0  0  0  0  0  0  0  0  0  0
    4.0267    1.0401   -1.0371 H   0  0  0  0  0  0  0  0  0  0  0  0
    2.0424    2.4541   -0.6056 H   0  0  0  0  0  0  0  0  0  0  0  0
   -0.0220    1.4485    0.2828 H   0  0  0  0  0  0  0  0  0  0  0  0
  1  2  3  0
  1  5  1  0
  2  3  1  0
  3  4  1  0
  3  7  1  0
  4  8  1  0
  4  9  1  0
  4 10  1  0
  6 12  1  0
 11 12  1  0
 11 19  1  0
 11 20  1  0
 11 21  1  0
 12 13  1  0
 12 22  1  0
 13 14  2  0
 13 18  1  0
 14 15  1  0
 14 23  1  0
 15 16  2  0
 15 24  1  0
 16 17  1  0
 16 25  1  0
 17 18  2  0
 17 26  1  0
 18 27  1  0
M  RAD  1   3   2
M  END
>  <reaction>  (9) 
rxn_1272

>  <mol_properties>  (9) 
{"1": {"label": "*4", "atom_type": "Ct"}, "2": {"label": "*3", "atom_type": "Cs"}, "5": {"label": "*2", "atom_type": "H0"}, "11": {"label": "*1", "atom_type": "Cs"}, "12": {"label": "*0", "atom_type": "Cd"}}

>  <type>  (9) 
unop_5

>  <geom_source>  (9) 
Heuristics

$$$$

     RDKit          3D

 27 25  0  0  0  0  0  0  0  0999 V2000
   -0.9677    0.0726   -4.1013 C   0  0  0  0  0  3  0  0  0  0  0  0
   -0.9677    0.0726   -2.9036 C   0  0  0  0  0  0  0  0  0  0  0  0
   -0.9677    0.1008   -1.4445 C   0  0  0  0  0  3  0  0  0  0  0  0
   -0.9676    1.5222   -0.8789 C   0  0  0  0  0  3  0  0  0  0  0  0
   -0.9677    0.0726   -5.1646 H   0  0  0  0  0  0  0  0  0  0  0  0
    0.0829   -0.5533   -1.0104 H   0  0  0  0  0  0  0  0  0  0  0  0
   -1.8432   -0.4443   -1.0828 H   0  0  0  0  0  0  0  0  0  0  0  0
   -1.8499    2.0701   -1.2103 H   0  0  0  0  0  0  0  0  0  0  0  0
   -0.9676    1.4949    0.2114 H   0  0  0  0  0  0  0  0  0  0  0  0
   -0.0854    2.0700   -1.2103 H   0  0  0  0  0  0  0  0  0  0  0  0
    0.7712   -2.6804   -0.3847 C   0  0  0  0  0  0  0  0  0  0  0  0
    1.1332   -1.2072   -0.5765 C   0  0  0  0  0  0  0  0  0  0  0  0
    0.7281   -0.3631    0.6031 C   0  0  0  0  0  0  0  0  0  0  0  0
    1.5920   -0.1783    1.6779 C   0  0  0  0  0  0  0  0  0  0  0  0
    1.2053    0.5601    2.7856 C   0  0  0  0  0  0  0  0  0  0  0  0
   -0.0586    1.1283    2.8362 C   0  0  0  0  0  0  0  0  0  0  0  0
   -0.9293    0.9527    1.7715 C   0  0  0  0  0  0  0  0  0  0  0  0
   -0.5367    0.2132    0.6666 C   0  0  0  0  0  0  0  0  0  0  0  0
   -0.3051   -2.7995   -0.2471 H   0  0  0  0  0  0  0  0  0  0  0  0
    1.2654   -3.0883    0.4990 H   0  0  0  0  0  0  0  0  0  0  0  0
    1.0727   -3.2743   -1.2493 H   0  0  0  0  0  0  0  0  0  0  0  0
    2.2101   -1.1158   -0.7370 H   0  0  0  0  0  0  0  0  0  0  0  0
    2.5833   -0.6170    1.6442 H   0  0  0  0  0  0  0  0  0  0  0  0
    1.8942    0.6953    3.6102 H   0  0  0  0  0  0  0  0  0  0  0  0
   -0.3619    1.7078    3.6989 H   0  0  0  0  0  0  0  0  0  0  0  0
   -1.9169    1.3962    1.7996 H   0  0  0  0  0  0  0  0  0  0  0  0
   -1.2222    0.0828   -0.1637 H   0  0  0  0  0  0  0  0  0  0  0  0
  1  2  2  0
  1  5  1  0
  2  3  2  0
  3  7  1  0
  4  8  1  0
  4  9  1  0
  4 10  1  0
  6 12  1  0
 11 12  1  0
 11 19  1  0
 11 20  1  0
 11 21  1  0
 12 13  1  0
 12 22  1  0
 13 14  2  0
 13 18  1  0
 14 15  1  0
 14 23  1  0
 15 16  2  0
 15 24  1  0
 16 17  1  0
 16 25  1  0
 17 18  2  0
 17 26  1  0
 18 27  1  0
M  CHG  2   1   1   3  -1
M  RAD  1   4   2
M  END
>  <reaction>  (10) 
rxn_1272

>  <mol_properties>  (10) 
{"1": {"label": "*4", "atom_type": "Ct"}, "2": {"label": "*3", "atom_type": "Cs"}, "5": {"label": "*2", "atom_type": "H0"}, "11": {"label": "*1", "atom_type": "Cs"}, "12": {"label": "*0", "atom_type": "Cd"}}

>  <type>  (10) 
unop_6

>  <geom_source>  (10) 
Heuristics

$$$$

     RDKit          3D

 27 25  0  0  0  0  0  0  0  0999 V2000
   -1.3845   -0.3888   -3.7868 C   0  0  0  0  0  3  0  0  0  0  0  0
   -1.3845   -0.3888   -2.5891 C   0  0  0  0  0  0  0  0  0  0  0  0
   -1.3845   -0.3606   -1.1299 C   0  0  0  0  0  3  0  0  0  0  0  0
   -1.3845    1.0608   -0.5643 C   0  0  0  0  0  3  0  0  0  0  0  0
   -1.3845   -0.3888   -4.8501 H   0  0  0  0  0  0  0  0  0  0  0  0
   -0.3339   -1.0147   -0.6959 H   0  0  0  0  0  0  0  0  0  0  0  0
   -2.2600   -0.9056   -0.7682 H   0  0  0  0  0  0  0  0  0  0  0  0
   -2.2667    1.6087   -0.8958 H   0  0  0  0  0  0  0  0  0  0  0  0
   -1.3845    1.0335    0.5260 H   0  0  0  0  0  0  0  0  0  0  0  0
   -0.5022    1.6087   -0.8958 H   0  0  0  0  0  0  0  0  0  0  0  0
    0.2614   -2.8416    0.6070 C   0  0  0  0  0  0  0  0  0  0  0  0
    0.7164   -1.6686   -0.2619 C   0  0  0  0  0  0  0  0  0  0  0  0
    0.7609   -0.3742    0.5067 C   0  0  0  0  0  0  0  0  0  0  0  0
    1.9101    0.0097    1.1906 C   0  0  0  0  0  0  0  0  0  0  0  0
    1.9399    1.1777    1.9367 C   0  0  0  0  0  0  0  0  0  0  0  0
    0.8146    1.9845    2.0112 C   0  0  0  0  0  0  0  0  0  0  0  0
   -0.3371    1.6142    1.3337 C   0  0  0  0  0  0  0  0  0  0  0  0
   -0.3607    0.4449    0.5893 C   0  0  0  0  0  0  0  0  0  0  0  0
   -0.7374   -2.6611    1.0085 H   0  0  0  0  0  0  0  0  0  0  0  0
    0.9379   -2.9822    1.4522 H   0  0  0  0  0  0  0  0  0  0  0  0
    0.2359   -3.7690    0.0322 H   0  0  0  0  0  0  0  0  0  0  0  0
    1.7062   -1.8829   -0.6720 H   0  0  0  0  0  0  0  0  0  0  0  0
    2.7952   -0.6146    1.1346 H   0  0  0  0  0  0  0  0  0  0  0  0
    2.8457    1.4606    2.4586 H   0  0  0  0  0  0  0  0  0  0  0  0
    0.8364    2.8986    2.5908 H   0  0  0  0  0  0  0  0  0  0  0  0
   -1.2198    2.2398    1.3820 H   0  0  0  0  0  0  0  0  0  0  0  0
   -1.2642    0.1634    0.0596 H   0  0  0  0  0  0  0  0  0  0  0  0
  1  2  2  0
  1  5  1  0
  2  3  2  0
  3  7  1  0
  4  8  1  0
  4  9  1  0
  4 10  1  0
  6 12  1  0
 11 12  1  0
 11 19  1  0
 11 20  1  0
 11 21  1  0
 12 13  1  0
 12 22  1  0
 13 14  2  0
 13 18  1  0
 14 15  1  0
 14 23  1  0
 15 16  2  0
 15 24  1  0
 16 17  1  0
 16 25  1  0
 17 18  2  0
 17 26  1  0
 18 27  1  0
M  CHG  2   1   1   3  -1
M  RAD  1   4   2
M  END
>  <reaction>  (11) 
rxn_1272

>  <mol_properties>  (11) 
{"1": {"label": "*4", "atom_type": "Ct"}, "2": {"label": "*3", "atom_type": "Cs"}, "5": {"label": "*2", "atom_type": "H0"}, "11": {"label": "*1", "atom_type": "Cs"}, "12": {"label": "*0", "atom_type": "Cd"}}

>  <type>  (11) 
unop_7

>  <geom_source>  (11) 
Heuristics

$$$$

     RDKit          3D

 27 26  0  0  0  0  0  0  0  0999 V2000
   -1.9467    1.9612   -2.9113 C   0  0  0  0  0  0  0  0  0  0  0  0
   -1.9467    1.9612   -1.7136 C   0  0  0  0  0  0  0  0  0  0  0  0
   -1.9467    1.9895   -0.2545 C   0  0  0  0  0  3  0  0  0  0  0  0
   -1.9467    3.4108    0.3111 C   0  0  0  0  0  0  0  0  0  0  0  0
   -1.9467    1.9612   -3.9746 H   0  0  0  0  0  0  0  0  0  0  0  0
   -0.8961    1.3354    0.1796 H   0  0  0  0  0  0  0  0  0  0  0  0
   -2.8222    1.4444    0.1073 H   0  0  0  0  0  0  0  0  0  0  0  0
   -2.8289    3.9587   -0.0203 H   0  0  0  0  0  0  0  0  0  0  0  0
   -1.9467    3.3836    1.4014 H   0  0  0  0  0  0  0  0  0  0  0  0
   -1.0645    3.9587   -0.0203 H   0  0  0  0  0  0  0  0  0  0  0  0
    1.3304    1.6477    0.7581 C   0  0  0  0  0  0  0  0  0  0  0  0
    0.1542    0.6814    0.6135 C   0  0  0  0  0  0  0  0  0  0  0  0
    0.6024   -0.7546    0.5422 C   0  0  0  0  0  0  0  0  0  0  0  0
    0.7593   -1.5109    1.6994 C   0  0  0  0  0  0  0  0  0  0  0  0
    1.2156   -2.8186    1.6409 C   0  0  0  0  0  0  0  0  0  0  0  0
    1.5241   -3.3937    0.4174 C   0  0  0  0  0  0  0  0  0  0  0  0
    1.3714   -2.6515   -0.7438 C   0  0  0  0  0  0  0  0  0  0  0  0
    0.9147   -1.3442   -0.6787 C   0  0  0  0  0  0  0  0  0  0  0  0
    2.0127    1.5561   -0.0890 H   0  0  0  0  0  0  0  0  0  0  0  0
    1.8980    1.4331    1.6655 H   0  0  0  0  0  0  0  0  0  0  0  0
    0.9849    2.6817    0.8080 H   0  0  0  0  0  0  0  0  0  0  0  0
   -0.5265    0.8089    1.4586 H   0  0  0  0  0  0  0  0  0  0  0  0
    0.5171   -1.0689    2.6598 H   0  0  0  0  0  0  0  0  0  0  0  0
    1.3272   -3.3915    2.5531 H   0  0  0  0  0  0  0  0  0  0  0  0
    1.8777   -4.4158    0.3689 H   0  0  0  0  0  0  0  0  0  0  0  0
    1.6054   -3.0931   -1.7046 H   0  0  0  0  0  0  0  0  0  0  0  0
    0.7949   -0.7709   -1.5916 H   0  0  0  0  0  0  0  0  0  0  0  0
  1  2  3  0
  1  5  1  0
  2  3  1  0
  3  4  1  0
  3  7  1  0
  4  8  1  0
  4  9  1  0
  4 10  1  0
  6 12  1  0
 11 12  1  0
 11 19  1  0
 11 20  1  0
 11 21  1  0
 12 13  1  0
 12 22  1  0
 13 14  2  0
 13 18  1  0
 14 15  1  0
 14 23  1  0
 15 16  2  0
 15 24  1  0
 16 17  1  0
 16 25  1  0
 17 18  2  0
 17 26  1  0
 18 27  1  0
M  RAD  1   3   2
M  END
>  <reaction>  (12) 
rxn_1272

>  <mol_properties>  (12) 
{"1": {"label": "*4", "atom_type": "Ct"}, "2": {"label": "*3", "atom_type": "Cs"}, "5": {"label": "*2", "atom_type": "H0"}, "11": {"label": "*1", "atom_type": "Cs"}, "12": {"label": "*0", "atom_type": "Cd"}}

>  <type>  (12) 
unop_8

>  <geom_source>  (12) 
Heuristics

$$$$

     RDKit          3D

 27 26  0  0  0  0  0  0  0  0999 V2000
   -0.7746    1.3488   -4.0054 C   0  0  0  0  0  0  0  0  0  0  0  0
   -0.7746    1.3488   -2.8077 C   0  0  0  0  0  0  0  0  0  0  0  0
   -0.7746    1.3770   -1.3486 C   0  0  0  0  0  3  0  0  0  0  0  0
   -0.7746    2.7984   -0.7830 C   0  0  0  0  0  0  0  0  0  0  0  0
   -0.7746    1.3488   -5.0687 H   0  0  0  0  0  0  0  0  0  0  0  0
    0.2760    0.7229   -0.9145 H   0  0  0  0  0  0  0  0  0  0  0  0
   -1.6501    0.8319   -0.9869 H   0  0  0  0  0  0  0  0  0  0  0  0
   -1.6568    3.3462   -1.1144 H   0  0  0  0  0  0  0  0  0  0  0  0
   -0.7746    2.7711    0.3073 H   0  0  0  0  0  0  0  0  0  0  0  0
    0.1077    3.3462   -1.1144 H   0  0  0  0  0  0  0  0  0  0  0  0
    1.6883   -1.0312   -1.4790 C   0  0  0  0  0  0  0  0  0  0  0  0
    1.3263    0.0690   -0.4806 C   0  0  0  0  0  0  0  0  0  0  0  0
    0.6316   -0.4756    0.7397 C   0  0  0  0  0  0  0  0  0  0  0  0
    1.3611   -0.8963    1.8472 C   0  0  0  0  0  0  0  0  0  0  0  0
    0.7280   -1.4405    2.9539 C   0  0  0  0  0  0  0  0  0  0  0  0
   -0.6522   -1.5735    2.9704 C   0  0  0  0  0  0  0  0  0  0  0  0
   -1.3914   -1.1574    1.8736 C   0  0  0  0  0  0  0  0  0  0  0  0
   -0.7525   -0.6140    0.7698 C   0  0  0  0  0  0  0  0  0  0  0  0
    0.7933   -1.5578   -1.8156 H   0  0  0  0  0  0  0  0  0  0  0  0
    2.3526   -1.7662   -1.0207 H   0  0  0  0  0  0  0  0  0  0  0  0
    2.1901   -0.6165   -2.3549 H   0  0  0  0  0  0  0  0  0  0  0  0
    2.2335    0.5974   -0.1778 H   0  0  0  0  0  0  0  0  0  0  0  0
    2.4407   -0.7926    1.8429 H   0  0  0  0  0  0  0  0  0  0  0  0
    1.3138   -1.7585    3.8074 H   0  0  0  0  0  0  0  0  0  0  0  0
   -1.1491   -1.9955    3.8348 H   0  0  0  0  0  0  0  0  0  0  0  0
   -2.4702   -1.2530    1.8787 H   0  0  0  0  0  0  0  0  0  0  0  0
   -1.3377   -0.2879   -0.0831 H   0  0  0  0  0  0  0  0  0  0  0  0
  1  2  3  0
  1  5  1  0
  2  3  1  0
  3  4  1  0
  3  7  1  0
  4  8  1  0
  4  9  1  0
  4 10  1  0
  6 12  1  0
 11 12  1  0
 11 19  1  0
 11 20  1  0
 11 21  1  0
 12 13  1  0
 12 22  1  0
 13 14  2  0
 13 18  1  0
 14 15  1  0
 14 23  1  0
 15 16  2  0
 15 24  1  0
 16 17  1  0
 16 25  1  0
 17 18  2  0
 17 26  1  0
 18 27  1  0
M  RAD  1   3   2
M  END
>  <reaction>  (13) 
rxn_1272

>  <mol_properties>  (13) 
{"1": {"label": "*4", "atom_type": "Ct"}, "2": {"label": "*3", "atom_type": "Cs"}, "5": {"label": "*2", "atom_type": "H0"}, "11": {"label": "*1", "atom_type": "Cs"}, "12": {"label": "*0", "atom_type": "Cd"}}

>  <type>  (13) 
unop_9

>  <geom_source>  (13) 
Heuristics

$$$$

     RDKit          3D

 27 26  0  0  0  0  0  0  0  0999 V2000
   -1.7254    2.0213   -3.1717 C   0  0  0  0  0  0  0  0  0  0  0  0
   -1.7254    2.0213   -1.9740 C   0  0  0  0  0  0  0  0  0  0  0  0
   -1.7254    2.0495   -0.5148 C   0  0  0  0  0  3  0  0  0  0  0  0
   -1.7254    3.4709    0.0508 C   0  0  0  0  0  0  0  0  0  0  0  0
   -1.7254    2.0213   -4.2350 H   0  0  0  0  0  0  0  0  0  0  0  0
   -0.6748    1.3954   -0.0808 H   0  0  0  0  0  0  0  0  0  0  0  0
   -2.6009    1.5044   -0.1531 H   0  0  0  0  0  0  0  0  0  0  0  0
   -2.6076    4.0188   -0.2807 H   0  0  0  0  0  0  0  0  0  0  0  0
   -1.7254    3.4436    1.1411 H   0  0  0  0  0  0  0  0  0  0  0  0
   -0.8432    4.0187   -0.2807 H   0  0  0  0  0  0  0  0  0  0  0  0
    1.6446    1.4076   -0.1794 C   0  0  0  0  0  0  0  0  0  0  0  0
    0.3755    0.7415    0.3532 C   0  0  0  0  0  0  0  0  0  0  0  0
    0.5776   -0.7237    0.6370 C   0  0  0  0  0  0  0  0  0  0  0  0
    1.0269   -1.1535    1.8817 C   0  0  0  0  0  0  0  0  0  0  0  0
    1.2578   -2.4973    2.1320 C   0  0  0  0  0  0  0  0  0  0  0  0
    1.0421   -3.4376    1.1361 C   0  0  0  0  0  0  0  0  0  0  0  0
    0.5935   -3.0230   -0.1088 C   0  0  0  0  0  0  0  0  0  0  0  0
    0.3644   -1.6778   -0.3530 C   0  0  0  0  0  0  0  0  0  0  0  0
    1.9706    0.9331   -1.1069 H   0  0  0  0  0  0  0  0  0  0  0  0
    2.4594    1.3199    0.5418 H   0  0  0  0  0  0  0  0  0  0  0  0
    1.4775    2.4675   -0.3785 H   0  0  0  0  0  0  0  0  0  0  0  0
    0.0551    1.2485    1.2664 H   0  0  0  0  0  0  0  0  0  0  0  0
    1.1949   -0.4242    2.6667 H   0  0  0  0  0  0  0  0  0  0  0  0
    1.6039   -2.8115    3.1089 H   0  0  0  0  0  0  0  0  0  0  0  0
    1.2189   -4.4879    1.3301 H   0  0  0  0  0  0  0  0  0  0  0  0
    0.4177   -3.7502   -0.8918 H   0  0  0  0  0  0  0  0  0  0  0  0
    0.0105   -1.3615   -1.3282 H   0  0  0  0  0  0  0  0  0  0  0  0
  1  2  3  0
  1  5  1  0
  2  3  1  0
  3  4  1  0
  3  7  1  0
  4  8  1  0
  4  9  1  0
  4 10  1  0
  6 12  1  0
 11 12  1  0
 11 19  1  0
 11 20  1  0
 11 21  1  0
 12 13  1  0
 12 22  1  0
 13 14  2  0
 13 18  1  0
 14 15  1  0
 14 23  1  0
 15 16  2  0
 15 24  1  0
 16 17  1  0
 16 25  1  0
 17 18  2  0
 17 26  1  0
 18 27  1  0
M  RAD  1   3   2
M  END
>  <reaction>  (14) 
rxn_1272

>  <mol_properties>  (14) 
{"1": {"label": "*4", "atom_type": "Ct"}, "2": {"label": "*3", "atom_type": "Cs"}, "5": {"label": "*2", "atom_type": "H0"}, "11": {"label": "*1", "atom_type": "Cs"}, "12": {"label": "*0", "atom_type": "Cd"}}

>  <type>  (14) 
unop_10

>  <geom_source>  (14) 
Heuristics

$$$$

     RDKit          3D

 27 25  0  0  0  0  0  0  0  0999 V2000
   -1.9837   -0.4995   -3.2384 C   0  0  0  0  0  3  0  0  0  0  0  0
   -1.9837   -0.4995   -2.0407 C   0  0  0  0  0  0  0  0  0  0  0  0
   -1.9837   -0.4713   -0.5816 C   0  0  0  0  0  3  0  0  0  0  0  0
   -1.9837    0.9501   -0.0160 C   0  0  0  0  0  0  0  0  0  0  0  0
   -1.9837   -0.4995   -4.3017 H   0  0  0  0  0  0  0  0  0  0  0  0
   -0.9331   -1.1254   -0.1475 H   0  0  0  0  0  0  0  0  0  0  0  0
   -2.8592   -1.0163   -0.2198 H   0  0  0  0  0  0  0  0  0  0  0  0
   -2.8659    1.4980   -0.3474 H   0  0  0  0  0  0  0  0  0  0  0  0
   -1.9837    0.9228    1.0743 H   0  0  0  0  0  0  0  0  0  0  0  0
   -1.1015    1.4980   -0.3474 H   0  0  0  0  0  0  0  0  0  0  0  0
   -0.1997   -2.4058    1.6448 C   0  0  0  0  0  0  0  0  0  0  0  0
    0.1172   -1.7793    0.2864 C   0  0  0  0  0  0  0  0  0  0  0  0
    0.7766   -0.4319    0.4207 C   0  0  0  0  0  0  0  0  0  0  0  0
    2.1603   -0.3217    0.5155 C   0  0  0  0  0  0  0  0  0  0  0  0
    2.7678    0.9128    0.6852 C   0  0  0  0  0  0  0  0  0  0  0  0
    1.9969    2.0627    0.7635 C   0  0  0  0  0  0  0  0  0  0  0  0
    0.6168    1.9672    0.6697 C   0  0  0  0  0  0  0  0  0  0  0  0
    0.0152    0.7298    0.5000 C   0  0  0  0  0  3  0  0  0  0  0  0
   -0.8712   -1.7649    2.2192 H   0  0  0  0  0  0  0  0  0  0  0  0
    0.7115   -2.5406    2.2306 H   0  0  0  0  0  0  0  0  0  0  0  0
   -0.6765   -3.3803    1.5258 H   0  0  0  0  0  0  0  0  0  0  0  0
    0.7692   -2.4491   -0.2792 H   0  0  0  0  0  0  0  0  0  0  0  0
    2.7701   -1.2163    0.4519 H   0  0  0  0  0  0  0  0  0  0  0  0
    3.8468    0.9774    0.7529 H   0  0  0  0  0  0  0  0  0  0  0  0
    2.4692    3.0282    0.8931 H   0  0  0  0  0  0  0  0  0  0  0  0
    0.0062    2.8599    0.7252 H   0  0  0  0  0  0  0  0  0  0  0  0
   -1.0647    0.6634    0.4243 H   0  0  0  0  0  0  0  0  0  0  0  0
  1  2  2  0
  1  5  1  0
  2  3  2  0
  3  7  1  0
  4  8  1  0
  4  9  1  0
  4 10  1  0
  4 27  1  0
  6 12  1  0
 11 12  1  0
 11 19  1  0
 11 20  1  0
 11 21  1  0
 12 13  1  0
 12 22  1  0
 13 14  2  0
 13 18  1  0
 14 15  1  0
 14 23  1  0
 15 16  2  0
 15 24  1  0
 16 17  1  0
 16 25  1  0
 17 18  2  0
 17 26  1  0
M  CHG  2   1   1   3  -1
M  RAD  1  18   2
M  END
>  <reaction>  (15) 
rxn_1272

>  <mol_properties>  (15) 
{"1": {"label": "*4", "atom_type": "Ct"}, "2": {"label": "*3", "atom_type": "Cs"}, "5": {"label": "*2", "atom_type": "H0"}, "11": {"label": "*1", "atom_type": "Cs"}, "12": {"label": "*0", "atom_type": "Cd"}}

>  <type>  (15) 
unop_11

>  <geom_source>  (15) 
Heuristics

$$$$

     RDKit          3D

 27 26  0  0  0  0  0  0  0  0999 V2000
   -1.0632    1.8154   -3.7007 C   0  0  0  0  0  0  0  0  0  0  0  0
   -1.0632    1.8154   -2.5030 C   0  0  0  0  0  0  0  0  0  0  0  0
   -1.0632    1.8436   -1.0439 C   0  0  0  0  0  3  0  0  0  0  0  0
   -1.0632    3.2650   -0.4783 C   0  0  0  0  0  0  0  0  0  0  0  0
   -1.0632    1.8154   -4.7640 H   0  0  0  0  0  0  0  0  0  0  0  0
   -0.0126    1.1895   -0.6098 H   0  0  0  0  0  0  0  0  0  0  0  0
   -1.9387    1.2985   -0.6822 H   0  0  0  0  0  0  0  0  0  0  0  0
   -1.9454    3.8129   -0.8097 H   0  0  0  0  0  0  0  0  0  0  0  0
   -1.0632    3.2377    0.6120 H   0  0  0  0  0  0  0  0  0  0  0  0
   -0.1810    3.8128   -0.8097 H   0  0  0  0  0  0  0  0  0  0  0  0
    1.8367    0.0086   -1.3684 C   0  0  0  0  0  0  0  0  0  0  0  0
    1.0377    0.5356   -0.1759 C   0  0  0  0  0  0  0  0  0  0  0  0
    0.5951   -0.5699    0.7462 C   0  0  0  0  0  0  0  0  0  0  0  0
    1.4069   -0.9920    1.7943 C   0  0  0  0  0  0  0  0  0  0  0  0
    1.0231   -2.0399    2.6168 C   0  0  0  0  0  0  0  0  0  0  0  0
   -0.1851   -2.6858    2.4028 C   0  0  0  0  0  0  0  0  0  0  0  0
   -1.0042   -2.2747    1.3622 C   0  0  0  0  0  0  0  0  0  0  0  0
   -0.6148   -1.2262    0.5431 C   0  0  0  0  0  0  0  0  0  0  0  0
    1.2395   -0.6919   -1.9550 H   0  0  0  0  0  0  0  0  0  0  0  0
    2.7310   -0.5191   -1.0320 H   0  0  0  0  0  0  0  0  0  0  0  0
    2.1476    0.8243   -2.0235 H   0  0  0  0  0  0  0  0  0  0  0  0
    1.6461    1.2524    0.3807 H   0  0  0  0  0  0  0  0  0  0  0  0
    2.3519   -0.4896    1.9699 H   0  0  0  0  0  0  0  0  0  0  0  0
    1.6678   -2.3506    3.4296 H   0  0  0  0  0  0  0  0  0  0  0  0
   -0.4883   -3.5024    3.0456 H   0  0  0  0  0  0  0  0  0  0  0  0
   -1.9517   -2.7698    1.1896 H   0  0  0  0  0  0  0  0  0  0  0  0
   -1.2623   -0.9082   -0.2668 H   0  0  0  0  0  0  0  0  0  0  0  0
  1  2  3  0
  1  5  1  0
  2  3  1  0
  3  4  1  0
  3  7  1  0
  4  8  1  0
  4  9  1  0
  4 10  1  0
  6 12  1  0
 11 12  1  0
 11 19  1  0
 11 20  1  0
 11 21  1  0
 12 13  1  0
 12 22  1  0
 13 14  2  0
 13 18  1  0
 14 15  1  0
 14 23  1  0
 15 16  2  0
 15 24  1  0
 16 17  1  0
 16 25  1  0
 17 18  2  0
 17 26  1  0
 18 27  1  0
M  RAD  1   3   2
M  END
>  <reaction>  (16) 
rxn_1272

>  <mol_properties>  (16) 
{"1": {"label": "*4", "atom_type": "Ct"}, "2": {"label": "*3", "atom_type": "Cs"}, "5": {"label": "*2", "atom_type": "H0"}, "11": {"label": "*1", "atom_type": "Cs"}, "12": {"label": "*0", "atom_type": "Cd"}}

>  <type>  (16) 
unop_12

>  <geom_source>  (16) 
Heuristics

$$$$

     RDKit          3D

 27 26  0  0  0  0  0  0  0  0999 V2000
   -0.1340   -0.3837    1.1750 C   0  0  0  0  0  0  0  0  0  0  0  0
    0.1604   -1.6850    1.9115 C   0  0  0  0  0  0  0  0  0  0  0  0
   -3.0899   -0.7525   -1.2986 C   0  0  0  0  0  0  0  0  0  0  0  0
    1.0491    0.0432    0.3510 C   0  0  0  0  0  0  0  0  0  0  0  0
    2.0590    0.8394    0.9168 C   0  0  0  0  0  0  0  0  0  0  0  0
    1.1792   -0.3945   -0.9769 C   0  0  0  0  0  0  0  0  0  0  0  0
    3.1722    1.2099    0.1557 C   0  0  0  0  0  0  0  0  0  0  0  0
    3.2888    0.7812   -1.1695 C   0  0  0  0  0  0  0  0  0  0  0  0
    2.2941   -0.0219   -1.7346 C   0  0  0  0  0  0  0  0  0  0  0  0
   -2.4776   -0.2002   -0.0196 C   0  0  0  0  0  3  0  0  0  0  0  0
   -2.3286    1.2569   -0.1015 C   0  0  0  0  0  0  0  0  0  0  0  0
   -2.2056    2.4543   -0.1679 C   0  0  0  0  0  0  0  0  0  0  0  0
   -0.3923    0.4070    1.9127 H   0  0  0  0  0  0  0  0  0  0  0  0
   -1.2107   -0.5624    0.3783 H   0  0  0  0  0  0  0  0  0  0  0  0
   -0.7282   -1.9812    2.5071 H   0  0  0  0  0  0  0  0  0  0  0  0
    1.0240   -1.5538    2.5982 H   0  0  0  0  0  0  0  0  0  0  0  0
    0.3869   -2.4940    1.1847 H   0  0  0  0  0  0  0  0  0  0  0  0
   -3.1811   -1.8554   -1.2142 H   0  0  0  0  0  0  0  0  0  0  0  0
   -4.1006   -0.3207   -1.4634 H   0  0  0  0  0  0  0  0  0  0  0  0
   -2.4396   -0.5165   -2.1677 H   0  0  0  0  0  0  0  0  0  0  0  0
    1.9841    1.1711    1.9451 H   0  0  0  0  0  0  0  0  0  0  0  0
    3.9460    1.8267    0.5942 H   0  0  0  0  0  0  0  0  0  0  0  0
    0.4203   -1.0245   -1.4240 H   0  0  0  0  0  0  0  0  0  0  0  0
    4.1515    1.0677   -1.7570 H   0  0  0  0  0  0  0  0  0  0  0  0
    2.3885   -0.3584   -2.7590 H   0  0  0  0  0  0  0  0  0  0  0  0
   -3.1182   -0.4579    0.8500 H   0  0  0  0  0  0  0  0  0  0  0  0
   -2.0978    3.5055   -0.2265 H   0  0  0  0  0  0  0  0  0  0  0  0
  1  2  1  0
  1  4  1  0
  1 13  1  0
  1 14  1  0
  2 15  1  0
  2 16  1  0
  2 17  1  0
  3 10  1  0
  3 18  1  0
  3 19  1  0
  3 20  1  0
  4  5  2  0
  4  6  1  0
  5  7  1  0
  5 21  1  0
  6  9  2  0
  6 23  1  0
  7  8  2  0
  7 22  1  0
  8  9  1  0
  8 24  1  0
  9 25  1  0
 10 11  1  0
 10 26  1  0
 11 12  3  0
 12 27  1  0
M  RAD  1  10   2
M  END
>  <reaction>  (17) 
rxn_1272

>  <mol_properties>  (17) 
{"1": {"label": "*4", "atom_type": "Ct"}, "2": {"label": "*3", "atom_type": "Cs"}, "5": {"label": "*2", "atom_type": "H0"}, "11": {"label": "*1", "atom_type": "Cs"}, "12": {"label": "*0", "atom_type": "Cd"}}

>  <type>  (17) 
unop_13

>  <geom_source>  (17) 
AutoTST

$$$$
