
     RDKit          3D

  7  6  0  0  0  0  0  0  0  0999 V2000
    1.6964   -0.0938    0.0583 C   0  0  0  0  0  0  0  0  0  0  0  0
    0.5019   -0.0278    0.0173 C   0  0  0  0  0  0  0  0  0  0  0  0
   -0.9505    0.0525   -0.0327 C   0  0  0  0  0  0  0  0  0  0  0  0
    2.7574   -0.1524    0.0947 H   0  0  0  0  0  0  0  0  0  0  0  0
   -1.2692    0.9972   -0.4754 H   0  0  0  0  0  0  0  0  0  0  0  0
   -1.3749   -0.0147    0.9700 H   0  0  0  0  0  0  0  0  0  0  0  0
   -1.3610   -0.7611   -0.6323 H   0  0  0  0  0  0  0  0  0  0  0  0
  1  2  3  0
  1  4  1  0
  2  3  1  0
  3  5  1  0
  3  6  1  0
  3  7  1  0
M  END
>  <reaction>  (1) 
rxn_1215

>  <mol_properties>  (1) 
{"2": {"label": "donator", "atom_type": "Cs"}, "4": {"label": "d_hydrogen", "atom_type": "H0"}}

>  <type>  (1) 
r1h

$$$$

     RDKit          3D

  7  6  0  0  0  0  0  0  0  0999 V2000
   -0.6201    0.0189   -0.0017 C   0  0  0  0  0  0  0  0  0  0  0  0
    0.8589   -0.0553    0.0500 C   0  0  0  0  0  3  0  0  0  0  0  0
   -1.0738   -0.9730   -0.0559 H   0  0  0  0  0  0  0  0  0  0  0  0
   -0.9680    0.5706   -0.8872 H   0  0  0  0  0  0  0  0  0  0  0  0
   -1.0303    0.5369    0.8678 H   0  0  0  0  0  0  0  0  0  0  0  0
    1.3939   -0.8386   -0.4695 H   0  0  0  0  0  0  0  0  0  0  0  0
    1.4394    0.7404    0.4965 H   0  0  0  0  0  0  0  0  0  0  0  0
  1  2  1  0
  1  3  1  0
  1  4  1  0
  1  5  1  0
  2  6  1  0
  2  7  1  0
M  RAD  1   2   2
M  END
>  <reaction>  (2) 
rxn_1215

>  <mol_properties>  (2) 
{"1": {"label": "acceptor", "atom_type": "Cs"}}

>  <type>  (2) 
r2

$$$$

     RDKit          3D

  8  7  0  0  0  0  0  0  0  0999 V2000
    0.7610    0.0250    0.0051 C   0  0  0  0  0  0  0  0  0  0  0  0
   -0.7610   -0.0250   -0.0051 C   0  0  0  0  0  0  0  0  0  0  0  0
    1.1904   -0.9237   -0.3217 H   0  0  0  0  0  0  0  0  0  0  0  0
    1.1359    0.8041   -0.6609 H   0  0  0  0  0  0  0  0  0  0  0  0
    1.1435    0.2336    1.0058 H   0  0  0  0  0  0  0  0  0  0  0  0
   -1.1435   -0.2336   -1.0058 H   0  0  0  0  0  0  0  0  0  0  0  0
   -1.1904    0.9237    0.3216 H   0  0  0  0  0  0  0  0  0  0  0  0
   -1.1359   -0.8041    0.6609 H   0  0  0  0  0  0  0  0  0  0  0  0
  1  2  1  0
  1  3  1  0
  1  4  1  0
  1  5  1  0
  2  6  1  0
  2  7  1  0
  2  8  1  0
M  END
>  <reaction>  (3) 
rxn_1215

>  <mol_properties>  (3) 
{"0": {"label": "a_hydrogen", "atom_type": "H0"}, "2": {"label": "acceptor", "atom_type": "Cs"}}

>  <type>  (3) 
r2h

$$$$

     RDKit          3D

 14 12  0  0  0  0  0  0  0  0999 V2000
   -1.1858   -0.9208   -1.7024 C   0  0  0  0  0  0  0  0  0  0  0  0
   -0.2758   -1.0240   -0.9233 C   0  0  0  0  0  0  0  0  0  0  0  0
    0.7735   -1.0931    0.0397 C   0  0  0  0  0  0  0  0  0  0  0  0
   -1.9812   -0.8456   -2.4037 H   0  0  0  0  0  0  0  0  0  0  0  0
    0.5290   -0.1965    0.9626 H   0  0  0  0  0  0  0  0  0  0  0  0
    1.7507   -0.8088   -0.3451 H   0  0  0  0  0  0  0  0  0  0  0  0
    0.8100   -2.0285    0.5939 H   0  0  0  0  0  0  0  0  0  0  0  0
   -0.3773    1.9044    1.0361 C   0  0  0  0  0  0  0  0  0  0  0  0
    0.2170    0.8043    1.8662 C   0  0  0  0  0  3  0  0  0  0  0  0
   -0.7105    2.7390    1.6619 H   0  0  0  0  0  0  0  0  0  0  0  0
   -1.2412    1.5475    0.4728 H   0  0  0  0  0  0  0  0  0  0  0  0
    0.3475    2.2989    0.3218 H   0  0  0  0  0  0  0  0  0  0  0  0
   -0.4700    0.2981    2.5409 H   0  0  0  0  0  0  0  0  0  0  0  0
    1.1745    1.0229    2.3342 H   0  0  0  0  0  0  0  0  0  0  0  0
  1  2  3  0
  1  4  1  0
  2  3  1  0
  3  5  1  0
  3  6  1  0
  3  7  1  0
  8  9  1  0
  8 10  1  0
  8 11  1  0
  8 12  1  0
  9 13  1  0
  9 14  1  0
M  RAD  1   9   2
M  END
>  <reaction>  (4) 
rxn_1215

>  <mol_properties>  (4) 
{"1": {"label": "*0", "atom_type": "Ct"}, "2": {"label": "*1", "atom_type": "Cs"}, "4": {"label": "*2", "atom_type": "H0"}, "7": {"label": "*4", "atom_type": "Cs"}, "8": {"label": "*3", "atom_type": "Cs"}}

>  <type>  (4) 
ts

$$$$

     RDKit          3D

 14 12  0  0  0  0  0  0  0  0999 V2000
    0.1625   -1.1191   -2.4911 C   0  0  0  0  0  0  0  0  0  0  0  0
    0.1625   -1.1191   -1.2940 C   0  0  0  0  0  0  0  0  0  0  0  0
    0.1625   -1.1191    0.1614 C   0  0  0  0  0  0  0  0  0  0  0  0
    0.1625   -1.1191   -3.5544 H   0  0  0  0  0  0  0  0  0  0  0  0
    0.2739    0.1005    0.6238 H   0  0  0  0  0  0  0  0  0  0  0  0
    0.9962   -1.7076    0.5468 H   0  0  0  0  0  0  0  0  0  0  0  0
   -0.7641   -1.5468    0.5468 H   0  0  0  0  0  0  0  0  0  0  0  0
   -0.8142    1.6975    1.9454 C   0  0  0  0  0  0  0  0  0  0  0  0
    0.3854    1.3207    1.0865 C   0  0  0  0  0  3  0  0  0  0  0  0
   -0.5090    2.2733    2.8209 H   0  0  0  0  0  0  0  0  0  0  0  0
   -1.3409    0.8101    2.3008 H   0  0  0  0  0  0  0  0  0  0  0  0
   -1.5283    2.3029    1.3843 H   0  0  0  0  0  0  0  0  0  0  0  0
    1.0995    0.7153    1.6476 H   0  0  0  0  0  0  0  0  0  0  0  0
    0.9122    2.2081    0.7310 H   0  0  0  0  0  0  0  0  0  0  0  0
  1  2  3  0
  1  4  1  0
  2  3  1  0
  3  5  1  0
  3  6  1  0
  3  7  1  0
  8  9  1  0
  8 10  1  0
  8 11  1  0
  8 12  1  0
  9 13  1  0
  9 14  1  0
M  RAD  1   9   2
M  END
>  <reaction>  (5) 
rxn_1215

>  <mol_properties>  (5) 
{"1": {"label": "*0", "atom_type": "Ct"}, "2": {"label": "*1", "atom_type": "Cs"}, "4": {"label": "*2", "atom_type": "H0"}, "7": {"label": "*4", "atom_type": "Cs"}, "8": {"label": "*3", "atom_type": "Cs"}}

>  <type>  (5) 
unop_1

>  <geom_source>  (5) 
Heuristics

$$$$

     RDKit          3D

 14 12  0  0  0  0  0  0  0  0999 V2000
    0.0437   -1.2626   -2.0912 C   0  0  0  0  0  0  0  0  0  0  0  0
    0.0437   -1.2626   -0.8941 C   0  0  0  0  0  0  0  0  0  0  0  0
    0.0437   -1.2626    0.5613 C   0  0  0  0  0  0  0  0  0  0  0  0
    0.0437   -1.2626   -3.1544 H   0  0  0  0  0  0  0  0  0  0  0  0
    0.1552   -0.0430    1.0237 H   0  0  0  0  0  0  0  0  0  0  0  0
    0.8774   -1.8511    0.9467 H   0  0  0  0  0  0  0  0  0  0  0  0
   -0.8829   -1.6903    0.9467 H   0  0  0  0  0  0  0  0  0  0  0  0
   -0.3534    2.1887    0.5317 C   0  0  0  0  0  0  0  0  0  0  0  0
    0.2667    1.1772    1.4864 C   0  0  0  0  0  3  0  0  0  0  0  0
   -0.5497    3.1378    1.0335 H   0  0  0  0  0  0  0  0  0  0  0  0
   -1.3009    1.8249    0.1304 H   0  0  0  0  0  0  0  0  0  0  0  0
    0.3070    2.3920   -0.3131 H   0  0  0  0  0  0  0  0  0  0  0  0
   -0.3936    0.9738    2.3313 H   0  0  0  0  0  0  0  0  0  0  0  0
    1.2142    1.5409    1.8878 H   0  0  0  0  0  0  0  0  0  0  0  0
  1  2  3  0
  1  4  1  0
  2  3  1  0
  3  5  1  0
  3  6  1  0
  3  7  1  0
  8  9  1  0
  8 10  1  0
  8 11  1  0
  8 12  1  0
  9 13  1  0
  9 14  1  0
M  RAD  1   9   2
M  END
>  <reaction>  (6) 
rxn_1215

>  <mol_properties>  (6) 
{"1": {"label": "*0", "atom_type": "Ct"}, "2": {"label": "*1", "atom_type": "Cs"}, "4": {"label": "*2", "atom_type": "H0"}, "7": {"label": "*4", "atom_type": "Cs"}, "8": {"label": "*3", "atom_type": "Cs"}}

>  <type>  (6) 
unop_2

>  <geom_source>  (6) 
Heuristics

$$$$

     RDKit          3D

 14 12  0  0  0  0  0  0  0  0999 V2000
    0.0511   -1.0719   -2.5929 C   0  0  0  0  0  0  0  0  0  0  0  0
    0.0511   -1.0719   -1.3959 C   0  0  0  0  0  0  0  0  0  0  0  0
    0.0511   -1.0719    0.0595 C   0  0  0  0  0  0  0  0  0  0  0  0
    0.0511   -1.0719   -3.6562 H   0  0  0  0  0  0  0  0  0  0  0  0
    0.1626    0.1477    0.5220 H   0  0  0  0  0  0  0  0  0  0  0  0
    0.8848   -1.6604    0.4449 H   0  0  0  0  0  0  0  0  0  0  0  0
   -0.8755   -1.4996    0.4449 H   0  0  0  0  0  0  0  0  0  0  0  0
   -0.4250    1.5147    2.3295 C   0  0  0  0  0  0  0  0  0  0  0  0
    0.2741    1.3679    0.9846 C   0  0  0  0  0  3  0  0  0  0  0  0
    0.0495    2.2846    2.9404 H   0  0  0  0  0  0  0  0  0  0  0  0
   -0.3970    0.5811    2.8942 H   0  0  0  0  0  0  0  0  0  0  0  0
   -1.4728    1.7927    2.2027 H   0  0  0  0  0  0  0  0  0  0  0  0
    1.3219    1.0898    1.1114 H   0  0  0  0  0  0  0  0  0  0  0  0
    0.2461    2.3015    0.4199 H   0  0  0  0  0  0  0  0  0  0  0  0
  1  2  3  0
  1  4  1  0
  2  3  1  0
  3  5  1  0
  3  6  1  0
  3  7  1  0
  8  9  1  0
  8 10  1  0
  8 11  1  0
  8 12  1  0
  9 13  1  0
  9 14  1  0
M  RAD  1   9   2
M  END
>  <reaction>  (7) 
rxn_1215

>  <mol_properties>  (7) 
{"1": {"label": "*0", "atom_type": "Ct"}, "2": {"label": "*1", "atom_type": "Cs"}, "4": {"label": "*2", "atom_type": "H0"}, "7": {"label": "*4", "atom_type": "Cs"}, "8": {"label": "*3", "atom_type": "Cs"}}

>  <type>  (7) 
unop_3

>  <geom_source>  (7) 
Heuristics

$$$$

     RDKit          3D

 14 12  0  0  0  0  0  0  0  0999 V2000
   -0.3810   -1.1808   -2.2004 C   0  0  0  0  0  0  0  0  0  0  0  0
   -0.3810   -1.1808   -1.0033 C   0  0  0  0  0  0  0  0  0  0  0  0
   -0.3810   -1.1808    0.4521 C   0  0  0  0  0  0  0  0  0  0  0  0
   -0.3810   -1.1808   -3.2637 H   0  0  0  0  0  0  0  0  0  0  0  0
   -0.2695    0.0387    0.9145 H   0  0  0  0  0  0  0  0  0  0  0  0
    0.4527   -1.7694    0.8375 H   0  0  0  0  0  0  0  0  0  0  0  0
   -1.3076   -1.6085    0.8375 H   0  0  0  0  0  0  0  0  0  0  0  0
    1.1357    1.9112    0.9085 C   0  0  0  0  0  0  0  0  0  0  0  0
   -0.1580    1.2589    1.3772 C   0  0  0  0  0  3  0  0  0  0  0  0
    1.5163    2.6144    1.6514 H   0  0  0  0  0  0  0  0  0  0  0  0
    0.9869    2.4620   -0.0220 H   0  0  0  0  0  0  0  0  0  0  0  0
    1.9129    1.1659    0.7304 H   0  0  0  0  0  0  0  0  0  0  0  0
   -0.9352    2.0042    1.5552 H   0  0  0  0  0  0  0  0  0  0  0  0
   -0.0091    0.7081    2.3076 H   0  0  0  0  0  0  0  0  0  0  0  0
  1  2  3  0
  1  4  1  0
  2  3  1  0
  3  5  1  0
  3  6  1  0
  3  7  1  0
  8  9  1  0
  8 10  1  0
  8 11  1  0
  8 12  1  0
  9 13  1  0
  9 14  1  0
M  RAD  1   9   2
M  END
>  <reaction>  (8) 
rxn_1215

>  <mol_properties>  (8) 
{"1": {"label": "*0", "atom_type": "Ct"}, "2": {"label": "*1", "atom_type": "Cs"}, "4": {"label": "*2", "atom_type": "H0"}, "7": {"label": "*4", "atom_type": "Cs"}, "8": {"label": "*3", "atom_type": "Cs"}}

>  <type>  (8) 
unop_4

>  <geom_source>  (8) 
Heuristics

$$$$

     RDKit          3D

 14 12  0  0  0  0  0  0  0  0999 V2000
   -0.0957   -1.0469   -2.6283 C   0  0  0  0  0  0  0  0  0  0  0  0
   -0.0957   -1.0469   -1.4313 C   0  0  0  0  0  0  0  0  0  0  0  0
   -0.0957   -1.0469    0.0241 C   0  0  0  0  0  0  0  0  0  0  0  0
   -0.0957   -1.0469   -3.6916 H   0  0  0  0  0  0  0  0  0  0  0  0
    0.0158    0.1727    0.4866 H   0  0  0  0  0  0  0  0  0  0  0  0
    0.7380   -1.6355    0.4095 H   0  0  0  0  0  0  0  0  0  0  0  0
   -1.0223   -1.4746    0.4095 H   0  0  0  0  0  0  0  0  0  0  0  0
    0.1287    1.4082    2.4719 C   0  0  0  0  0  0  0  0  0  0  0  0
    0.1273    1.3929    0.9492 C   0  0  0  0  0  3  0  0  0  0  0  0
    0.2216    2.4250    2.8575 H   0  0  0  0  0  0  0  0  0  0  0  0
    0.9600    0.8256    2.8729 H   0  0  0  0  0  0  0  0  0  0  0  0
   -0.7944    0.9859    2.8729 H   0  0  0  0  0  0  0  0  0  0  0  0
    1.0504    1.8151    0.5483 H   0  0  0  0  0  0  0  0  0  0  0  0
   -0.7040    1.9755    0.5483 H   0  0  0  0  0  0  0  0  0  0  0  0
  1  2  3  0
  1  4  1  0
  2  3  1  0
  3  5  1  0
  3  6  1  0
  3  7  1  0
  8  9  1  0
  8 10  1  0
  8 11  1  0
  8 12  1  0
  9 13  1  0
  9 14  1  0
M  RAD  1   9   2
M  END
>  <reaction>  (9) 
rxn_1215

>  <mol_properties>  (9) 
{"1": {"label": "*0", "atom_type": "Ct"}, "2": {"label": "*1", "atom_type": "Cs"}, "4": {"label": "*2", "atom_type": "H0"}, "7": {"label": "*4", "atom_type": "Cs"}, "8": {"label": "*3", "atom_type": "Cs"}}

>  <type>  (9) 
unop_5

>  <geom_source>  (9) 
Heuristics

$$$$

     RDKit          3D

 14 12  0  0  0  0  0  0  0  0999 V2000
   -0.4136   -1.1210   -2.3472 C   0  0  0  0  0  0  0  0  0  0  0  0
   -0.4136   -1.1210   -1.1502 C   0  0  0  0  0  0  0  0  0  0  0  0
   -0.4136   -1.1210    0.3052 C   0  0  0  0  0  0  0  0  0  0  0  0
   -0.4136   -1.1210   -3.4105 H   0  0  0  0  0  0  0  0  0  0  0  0
   -0.3022    0.0985    0.7676 H   0  0  0  0  0  0  0  0  0  0  0  0
    0.4201   -1.7096    0.6906 H   0  0  0  0  0  0  0  0  0  0  0  0
   -1.3402   -1.5487    0.6906 H   0  0  0  0  0  0  0  0  0  0  0  0
    1.2696    1.7041    1.4254 C   0  0  0  0  0  0  0  0  0  0  0  0
   -0.1907    1.3187    1.2303 C   0  0  0  0  0  3  0  0  0  0  0  0
    1.4067    2.2866    2.3382 H   0  0  0  0  0  0  0  0  0  0  0  0
    1.6350    2.3059    0.5914 H   0  0  0  0  0  0  0  0  0  0  0  0
    1.9058    0.8204    1.4988 H   0  0  0  0  0  0  0  0  0  0  0  0
   -0.8269    2.2025    1.1570 H   0  0  0  0  0  0  0  0  0  0  0  0
   -0.5560    0.7169    2.0643 H   0  0  0  0  0  0  0  0  0  0  0  0
  1  2  3  0
  1  4  1  0
  2  3  1  0
  3  5  1  0
  3  6  1  0
  3  7  1  0
  8  9  1  0
  8 10  1  0
  8 11  1  0
  8 12  1  0
  9 13  1  0
  9 14  1  0
M  RAD  1   9   2
M  END
>  <reaction>  (10) 
rxn_1215

>  <mol_properties>  (10) 
{"1": {"label": "*0", "atom_type": "Ct"}, "2": {"label": "*1", "atom_type": "Cs"}, "4": {"label": "*2", "atom_type": "H0"}, "7": {"label": "*4", "atom_type": "Cs"}, "8": {"label": "*3", "atom_type": "Cs"}}

>  <type>  (10) 
unop_6

>  <geom_source>  (10) 
Heuristics

$$$$

     RDKit          3D

 14 12  0  0  0  0  0  0  0  0999 V2000
   -0.3626   -1.0711   -2.4911 C   0  0  0  0  0  0  0  0  0  0  0  0
   -0.3626   -1.0711   -1.2940 C   0  0  0  0  0  0  0  0  0  0  0  0
   -0.3626   -1.0711    0.1614 C   0  0  0  0  0  0  0  0  0  0  0  0
   -0.3626   -1.0711   -3.5544 H   0  0  0  0  0  0  0  0  0  0  0  0
   -0.2512    0.1485    0.6238 H   0  0  0  0  0  0  0  0  0  0  0  0
    0.4711   -1.6597    0.5468 H   0  0  0  0  0  0  0  0  0  0  0  0
   -1.2892   -1.4988    0.5468 H   0  0  0  0  0  0  0  0  0  0  0  0
    1.1084    1.5218    1.9454 C   0  0  0  0  0  0  0  0  0  0  0  0
   -0.1397    1.3687    1.0865 C   0  0  0  0  0  3  0  0  0  0  0  0
    0.9127    2.1434    2.8209 H   0  0  0  0  0  0  0  0  0  0  0  0
    1.9204    1.9877    1.3843 H   0  0  0  0  0  0  0  0  0  0  0  0
    1.4656    0.5536    2.3008 H   0  0  0  0  0  0  0  0  0  0  0  0
   -0.4968    2.3368    0.7310 H   0  0  0  0  0  0  0  0  0  0  0  0
   -0.9516    0.9027    1.6476 H   0  0  0  0  0  0  0  0  0  0  0  0
  1  2  3  0
  1  4  1  0
  2  3  1  0
  3  5  1  0
  3  6  1  0
  3  7  1  0
  8  9  1  0
  8 10  1  0
  8 11  1  0
  8 12  1  0
  9 13  1  0
  9 14  1  0
M  RAD  1   9   2
M  END
>  <reaction>  (11) 
rxn_1215

>  <mol_properties>  (11) 
{"1": {"label": "*0", "atom_type": "Ct"}, "2": {"label": "*1", "atom_type": "Cs"}, "4": {"label": "*2", "atom_type": "H0"}, "7": {"label": "*4", "atom_type": "Cs"}, "8": {"label": "*3", "atom_type": "Cs"}}

>  <type>  (11) 
unop_7

>  <geom_source>  (11) 
Heuristics

$$$$

     RDKit          3D

 14 12  0  0  0  0  0  0  0  0999 V2000
    0.2036   -1.1774   -2.3472 C   0  0  0  0  0  0  0  0  0  0  0  0
    0.2036   -1.1774   -1.1502 C   0  0  0  0  0  0  0  0  0  0  0  0
    0.2036   -1.1774    0.3052 C   0  0  0  0  0  0  0  0  0  0  0  0
    0.2036   -1.1774   -3.4105 H   0  0  0  0  0  0  0  0  0  0  0  0
    0.3150    0.0421    0.7676 H   0  0  0  0  0  0  0  0  0  0  0  0
    1.0373   -1.7660    0.6906 H   0  0  0  0  0  0  0  0  0  0  0  0
   -0.7230   -1.6051    0.6906 H   0  0  0  0  0  0  0  0  0  0  0  0
   -0.9396    1.9060    1.4254 C   0  0  0  0  0  0  0  0  0  0  0  0
    0.4265    1.2623    1.2303 C   0  0  0  0  0  3  0  0  0  0  0  0
   -0.9689    2.5037    2.3382 H   0  0  0  0  0  0  0  0  0  0  0  0
   -1.7255    1.1522    1.4988 H   0  0  0  0  0  0  0  0  0  0  0  0
   -1.1899    2.5641    0.5914 H   0  0  0  0  0  0  0  0  0  0  0  0
    0.6768    0.6042    2.0643 H   0  0  0  0  0  0  0  0  0  0  0  0
    1.2124    2.0161    1.1570 H   0  0  0  0  0  0  0  0  0  0  0  0
  1  2  3  0
  1  4  1  0
  2  3  1  0
  3  5  1  0
  3  6  1  0
  3  7  1  0
  8  9  1  0
  8 10  1  0
  8 11  1  0
  8 12  1  0
  9 13  1  0
  9 14  1  0
M  RAD  1   9   2
M  END
>  <reaction>  (12) 
rxn_1215

>  <mol_properties>  (12) 
{"1": {"label": "*0", "atom_type": "Ct"}, "2": {"label": "*1", "atom_type": "Cs"}, "4": {"label": "*2", "atom_type": "H0"}, "7": {"label": "*4", "atom_type": "Cs"}, "8": {"label": "*3", "atom_type": "Cs"}}

>  <type>  (12) 
unop_8

>  <geom_source>  (12) 
Heuristics

$$$$

     RDKit          3D

 14 12  0  0  0  0  0  0  0  0999 V2000
   -0.2719   -1.2337   -2.0912 C   0  0  0  0  0  0  0  0  0  0  0  0
   -0.2719   -1.2337   -0.8941 C   0  0  0  0  0  0  0  0  0  0  0  0
   -0.2719   -1.2337    0.5613 C   0  0  0  0  0  0  0  0  0  0  0  0
   -0.2719   -1.2337   -3.1544 H   0  0  0  0  0  0  0  0  0  0  0  0
   -0.1604   -0.0141    1.0237 H   0  0  0  0  0  0  0  0  0  0  0  0
    0.5618   -1.8223    0.9467 H   0  0  0  0  0  0  0  0  0  0  0  0
   -1.1985   -1.6614    0.9467 H   0  0  0  0  0  0  0  0  0  0  0  0
    0.7443    2.0883    0.5317 C   0  0  0  0  0  0  0  0  0  0  0  0
   -0.0489    1.2060    1.4864 C   0  0  0  0  0  3  0  0  0  0  0  0
    1.1094    2.9862    1.0335 H   0  0  0  0  0  0  0  0  0  0  0  0
    0.1317    2.4081   -0.3131 H   0  0  0  0  0  0  0  0  0  0  0  0
    1.6102    1.5589    0.1304 H   0  0  0  0  0  0  0  0  0  0  0  0
   -0.9148    1.7355    1.8878 H   0  0  0  0  0  0  0  0  0  0  0  0
    0.5637    0.8863    2.3313 H   0  0  0  0  0  0  0  0  0  0  0  0
  1  2  3  0
  1  4  1  0
  2  3  1  0
  3  5  1  0
  3  6  1  0
  3  7  1  0
  8  9  1  0
  8 10  1  0
  8 11  1  0
  8 12  1  0
  9 13  1  0
  9 14  1  0
M  RAD  1   9   2
M  END
>  <reaction>  (13) 
rxn_1215

>  <mol_properties>  (13) 
{"1": {"label": "*0", "atom_type": "Ct"}, "2": {"label": "*1", "atom_type": "Cs"}, "4": {"label": "*2", "atom_type": "H0"}, "7": {"label": "*4", "atom_type": "Cs"}, "8": {"label": "*3", "atom_type": "Cs"}}

>  <type>  (13) 
unop_9

>  <geom_source>  (13) 
Heuristics

$$$$

     RDKit          3D

 14 12  0  0  0  0  0  0  0  0999 V2000
    0.1606   -1.2303   -2.2004 C   0  0  0  0  0  0  0  0  0  0  0  0
    0.1606   -1.2303   -1.0033 C   0  0  0  0  0  0  0  0  0  0  0  0
    0.1606   -1.2303    0.4521 C   0  0  0  0  0  0  0  0  0  0  0  0
    0.1606   -1.2303   -3.2637 H   0  0  0  0  0  0  0  0  0  0  0  0
    0.2721   -0.0108    0.9145 H   0  0  0  0  0  0  0  0  0  0  0  0
    0.9943   -1.8189    0.8375 H   0  0  0  0  0  0  0  0  0  0  0  0
   -0.7660   -1.6580    0.8375 H   0  0  0  0  0  0  0  0  0  0  0  0
   -0.7705    2.0854    0.9085 C   0  0  0  0  0  0  0  0  0  0  0  0
    0.3836    1.2094    1.3772 C   0  0  0  0  0  3  0  0  0  0  0  0
   -1.0172    2.8459    1.6514 H   0  0  0  0  0  0  0  0  0  0  0  0
   -1.6699    1.4934    0.7305 H   0  0  0  0  0  0  0  0  0  0  0  0
   -0.5242    2.6001   -0.0220 H   0  0  0  0  0  0  0  0  0  0  0  0
    0.1373    0.6947    2.3076 H   0  0  0  0  0  0  0  0  0  0  0  0
    1.2830    1.8015    1.5552 H   0  0  0  0  0  0  0  0  0  0  0  0
  1  2  3  0
  1  4  1  0
  2  3  1  0
  3  5  1  0
  3  6  1  0
  3  7  1  0
  8  9  1  0
  8 10  1  0
  8 11  1  0
  8 12  1  0
  9 13  1  0
  9 14  1  0
M  RAD  1   9   2
M  END
>  <reaction>  (14) 
rxn_1215

>  <mol_properties>  (14) 
{"1": {"label": "*0", "atom_type": "Ct"}, "2": {"label": "*1", "atom_type": "Cs"}, "4": {"label": "*2", "atom_type": "H0"}, "7": {"label": "*4", "atom_type": "Cs"}, "8": {"label": "*3", "atom_type": "Cs"}}

>  <type>  (14) 
unop_10

>  <geom_source>  (14) 
Heuristics

$$$$

     RDKit          3D

 14 12  0  0  0  0  0  0  0  0999 V2000
   -0.2446   -1.0448   -2.5929 C   0  0  0  0  0  0  0  0  0  0  0  0
   -0.2446   -1.0448   -1.3959 C   0  0  0  0  0  0  0  0  0  0  0  0
   -0.2446   -1.0448    0.0595 C   0  0  0  0  0  0  0  0  0  0  0  0
   -0.2446   -1.0448   -3.6562 H   0  0  0  0  0  0  0  0  0  0  0  0
   -0.1331    0.1747    0.5220 H   0  0  0  0  0  0  0  0  0  0  0  0
    0.5891   -1.6334    0.4449 H   0  0  0  0  0  0  0  0  0  0  0  0
   -1.1712   -1.4725    0.4449 H   0  0  0  0  0  0  0  0  0  0  0  0
    0.6925    1.4125    2.3295 C   0  0  0  0  0  0  0  0  0  0  0  0
   -0.0216    1.3949    0.9846 C   0  0  0  0  0  3  0  0  0  0  0  0
    0.3654    2.2558    2.9404 H   0  0  0  0  0  0  0  0  0  0  0  0
    1.7733    1.4961    2.2027 H   0  0  0  0  0  0  0  0  0  0  0  0
    0.4957    0.4995    2.8942 H   0  0  0  0  0  0  0  0  0  0  0  0
    0.1752    2.3079    0.4199 H   0  0  0  0  0  0  0  0  0  0  0  0
   -1.1024    1.3114    1.1114 H   0  0  0  0  0  0  0  0  0  0  0  0
  1  2  3  0
  1  4  1  0
  2  3  1  0
  3  5  1  0
  3  6  1  0
  3  7  1  0
  8  9  1  0
  8 10  1  0
  8 11  1  0
  8 12  1  0
  9 13  1  0
  9 14  1  0
M  RAD  1   9   2
M  END
>  <reaction>  (15) 
rxn_1215

>  <mol_properties>  (15) 
{"1": {"label": "*0", "atom_type": "Ct"}, "2": {"label": "*1", "atom_type": "Cs"}, "4": {"label": "*2", "atom_type": "H0"}, "7": {"label": "*4", "atom_type": "Cs"}, "8": {"label": "*3", "atom_type": "Cs"}}

>  <type>  (15) 
unop_11

>  <geom_source>  (15) 
Heuristics

$$$$

     RDKit          3D

 14 12  0  0  0  0  0  0  0  0999 V2000
   -0.1155   -1.2640   -2.0508 C   0  0  0  0  0  0  0  0  0  0  0  0
   -0.1155   -1.2640   -0.8537 C   0  0  0  0  0  0  0  0  0  0  0  0
   -0.1155   -1.2640    0.6017 C   0  0  0  0  0  0  0  0  0  0  0  0
   -0.1155   -1.2640   -3.1141 H   0  0  0  0  0  0  0  0  0  0  0  0
   -0.0041   -0.0445    1.0641 H   0  0  0  0  0  0  0  0  0  0  0  0
    0.7182   -1.8526    0.9871 H   0  0  0  0  0  0  0  0  0  0  0  0
   -1.0421   -1.6917    0.9871 H   0  0  0  0  0  0  0  0  0  0  0  0
    0.2001    2.1895    0.3943 C   0  0  0  0  0  0  0  0  0  0  0  0
    0.1075    1.1757    1.5268 C   0  0  0  0  0  3  0  0  0  0  0  0
    0.2930    3.2063    0.7798 H   0  0  0  0  0  0  0  0  0  0  0  0
   -0.6874    2.1565   -0.2401 H   0  0  0  0  0  0  0  0  0  0  0  0
    1.0669    1.9962   -0.2401 H   0  0  0  0  0  0  0  0  0  0  0  0
   -0.7594    1.3690    2.1611 H   0  0  0  0  0  0  0  0  0  0  0  0
    0.9950    1.2087    2.1611 H   0  0  0  0  0  0  0  0  0  0  0  0
  1  2  3  0
  1  4  1  0
  2  3  1  0
  3  5  1  0
  3  6  1  0
  3  7  1  0
  8  9  1  0
  8 10  1  0
  8 11  1  0
  8 12  1  0
  9 13  1  0
  9 14  1  0
M  RAD  1   9   2
M  END
>  <reaction>  (16) 
rxn_1215

>  <mol_properties>  (16) 
{"1": {"label": "*0", "atom_type": "Ct"}, "2": {"label": "*1", "atom_type": "Cs"}, "4": {"label": "*2", "atom_type": "H0"}, "7": {"label": "*4", "atom_type": "Cs"}, "8": {"label": "*3", "atom_type": "Cs"}}

>  <type>  (16) 
unop_12

>  <geom_source>  (16) 
Heuristics

$$$$

     RDKit          3D

 14 12  0  0  0  0  0  0  0  0999 V2000
    1.0564   -0.2676   -0.5630 C   0  0  0  0  0  0  0  0  0  0  0  0
    1.8871    0.6182    0.3483 C   0  0  0  0  0  0  0  0  0  0  0  0
   -1.1999   -1.1062    0.4467 C   0  0  0  0  0  3  0  0  0  0  0  0
   -1.9250    0.0873    0.0101 C   0  0  0  0  0  0  0  0  0  0  0  0
   -2.5222    1.0706   -0.3496 C   0  0  0  0  0  0  0  0  0  0  0  0
    0.5718    0.3491   -1.3490 H   0  0  0  0  0  0  0  0  0  0  0  0
    1.7067   -1.0276   -1.0451 H   0  0  0  0  0  0  0  0  0  0  0  0
    0.1369   -0.8717    0.1345 H   0  0  0  0  0  0  0  0  0  0  0  0
    2.6726    1.1356   -0.2418 H   0  0  0  0  0  0  0  0  0  0  0  0
    2.3685   -0.0004    1.1344 H   0  0  0  0  0  0  0  0  0  0  0  0
    1.2342    1.3755    0.8307 H   0  0  0  0  0  0  0  0  0  0  0  0
   -1.4838   -1.9668   -0.1934 H   0  0  0  0  0  0  0  0  0  0  0  0
   -1.4569   -1.3300    1.5025 H   0  0  0  0  0  0  0  0  0  0  0  0
   -3.0465    1.9340   -0.6655 H   0  0  0  0  0  0  0  0  0  0  0  0
  1  2  1  0
  1  6  1  0
  1  7  1  0
  1  8  1  0
  2  9  1  0
  2 10  1  0
  2 11  1  0
  3  4  1  0
  3 12  1  0
  3 13  1  0
  4  5  3  0
  5 14  1  0
M  RAD  1   3   2
M  END
>  <reaction>  (17) 
rxn_1215

>  <mol_properties>  (17) 
{"1": {"label": "*0", "atom_type": "Ct"}, "2": {"label": "*1", "atom_type": "Cs"}, "4": {"label": "*2", "atom_type": "H0"}, "7": {"label": "*4", "atom_type": "Cs"}, "8": {"label": "*3", "atom_type": "Cs"}}

>  <type>  (17) 
unop_13

>  <geom_source>  (17) 
AutoTST

$$$$
