
     RDKit          3D

  9  8  0  0  0  0  0  0  0  0999 V2000
    1.1303   -0.2933   -0.7510 C   0  0  0  0  0  0  0  0  0  0  0  0
    0.2866    0.4560   -0.0588 C   0  0  0  0  0  0  0  0  0  0  0  0
   -0.9719   -0.0331    0.5823 C   0  0  0  0  0  0  0  0  0  0  0  0
    2.0274    0.1230   -1.1916 H   0  0  0  0  0  0  0  0  0  0  0  0
    0.9532   -1.3530   -0.9023 H   0  0  0  0  0  0  0  0  0  0  0  0
    0.5065    1.5132    0.0659 H   0  0  0  0  0  0  0  0  0  0  0  0
   -0.9526    0.1426    1.6610 H   0  0  0  0  0  0  0  0  0  0  0  0
   -1.1182   -1.1002    0.4106 H   0  0  0  0  0  0  0  0  0  0  0  0
   -1.8412    0.5010    0.1901 H   0  0  0  0  0  0  0  0  0  0  0  0
  1  2  2  3
  1  4  1  0
  1  5  1  0
  2  3  1  0
  2  6  1  0
  3  7  1  0
  3  8  1  0
  3  9  1  0
M  END
>  <reaction>  (1) 
rxn_1626

>  <mol_properties>  (1) 
{"1": {"label": "donator", "atom_type": "Cd"}, "5": {"label": "d_hydrogen", "atom_type": "H0"}}

>  <type>  (1) 
r1h

$$$$

     RDKit          3D

 11 10  0  0  0  0  0  0  0  0999 V2000
    1.0781   -1.0166   -0.1159 C   0  0  0  0  0  0  0  0  0  0  0  0
    0.2180    0.1942   -0.2297 C   0  0  0  0  0  3  0  0  0  0  0  0
    0.9343    1.7769   -0.3011 S   0  0  0  0  0  0  0  0  0  0  0  0
   -1.1949    0.1490    0.2439 C   0  0  0  0  0  0  0  0  0  0  0  0
    1.4718   -1.1461    0.9024 H   0  0  0  0  0  0  0  0  0  0  0  0
    1.9367   -0.9751   -0.7902 H   0  0  0  0  0  0  0  0  0  0  0  0
    0.5033   -1.9136   -0.3576 H   0  0  0  0  0  0  0  0  0  0  0  0
    2.1166    1.4195   -0.8209 H   0  0  0  0  0  0  0  0  0  0  0  0
   -1.2620    0.0939    1.3399 H   0  0  0  0  0  0  0  0  0  0  0  0
   -1.7600    1.0270   -0.0739 H   0  0  0  0  0  0  0  0  0  0  0  0
   -1.6972   -0.7380   -0.1506 H   0  0  0  0  0  0  0  0  0  0  0  0
  1  2  1  0
  1  5  1  0
  1  6  1  0
  1  7  1  0
  2  4  1  0
  2  3  1  0
  3  8  1  0
  4  9  1  0
  4 10  1  0
  4 11  1  0
M  RAD  1   2   2
M  END
>  <reaction>  (2) 
rxn_1626

>  <mol_properties>  (2) 
{"1": {"label": "acceptor", "atom_type": "Cs"}}

>  <type>  (2) 
r2

$$$$

     RDKit          3D

 12 11  0  0  0  0  0  0  0  0999 V2000
    1.2394   -0.3763   -0.3020 C   0  0  0  0  0  0  0  0  0  0  0  0
    0.1007    0.3024    0.4464 C   0  0  0  0  0  0  0  0  0  0  0  0
   -0.1187    2.0399   -0.0725 S   0  0  0  0  0  0  0  0  0  0  0  0
   -1.1974   -0.4877    0.3552 C   0  0  0  0  0  0  0  0  0  0  0  0
    2.1681    0.1850   -0.2048 H   0  0  0  0  0  0  0  0  0  0  0  0
    1.0030   -0.4604   -1.3656 H   0  0  0  0  0  0  0  0  0  0  0  0
    1.3993   -1.3856    0.0859 H   0  0  0  0  0  0  0  0  0  0  0  0
    0.3797    0.4050    1.4982 H   0  0  0  0  0  0  0  0  0  0  0  0
   -0.4500    1.7774   -1.3452 H   0  0  0  0  0  0  0  0  0  0  0  0
   -1.0545   -1.4977    0.7478 H   0  0  0  0  0  0  0  0  0  0  0  0
   -1.5206   -0.5758   -0.6849 H   0  0  0  0  0  0  0  0  0  0  0  0
   -1.9957   -0.0054    0.9183 H   0  0  0  0  0  0  0  0  0  0  0  0
  1  2  1  0
  1  5  1  0
  1  6  1  0
  1  7  1  0
  2  4  1  0
  2  3  1  0
  2  8  1  0
  3  9  1  0
  4 10  1  0
  4 11  1  0
  4 12  1  0
M  END
>  <reaction>  (3) 
rxn_1626

>  <mol_properties>  (3) 
{"1": {"label": "acceptor", "atom_type": "Cs"}, "11": {"label": "a_hydrogen", "atom_type": "H0"}}

>  <type>  (3) 
r2h

$$$$

     RDKit          3D

 20 18  0  0  0  0  0  0  0  0999 V2000
    1.4342   -1.4341   -0.3959 C   0  0  0  0  0  0  0  0  0  0  0  0
    0.3371   -0.7095    0.3463 C   0  0  0  0  0  0  0  0  0  0  0  0
   -1.2907   -1.4666    0.1702 S   0  0  0  0  0  0  0  0  0  0  0  0
    0.6903   -0.3127    1.7614 C   0  0  0  0  0  0  0  0  0  0  0  0
    1.1634   -1.5979   -1.4387 H   0  0  0  0  0  0  0  0  0  0  0  0
    1.6390   -2.4080    0.0620 H   0  0  0  0  0  0  0  0  0  0  0  0
    2.3598   -0.8534   -0.3647 H   0  0  0  0  0  0  0  0  0  0  0  0
   -0.9283   -2.7249    0.4697 H   0  0  0  0  0  0  0  0  0  0  0  0
    1.6138    0.2729    1.7725 H   0  0  0  0  0  0  0  0  0  0  0  0
   -0.1035    0.2803    2.2154 H   0  0  0  0  0  0  0  0  0  0  0  0
    0.8474   -1.1975    2.3867 H   0  0  0  0  0  0  0  0  0  0  0  0
   -0.7137    1.5503   -2.0398 C   0  0  0  0  0  0  0  0  0  0  0  0
    0.0893    1.6017   -1.0022 C   0  0  0  0  0  3  0  0  0  0  0  0
    0.9290    2.6872   -0.4470 C   0  0  0  0  0  0  0  0  0  0  0  0
   -1.2574    0.6462   -2.2926 H   0  0  0  0  0  0  0  0  0  0  0  0
   -0.8672    2.4155   -2.6836 H   0  0  0  0  0  0  0  0  0  0  0  0
    0.1799    0.3931   -0.2841 H   0  0  0  0  0  0  0  0  0  0  0  0
    0.6412    2.9148    0.5820 H   0  0  0  0  0  0  0  0  0  0  0  0
    0.8350    3.6020   -1.0407 H   0  0  0  0  0  0  0  0  0  0  0  0
    1.9822    2.3964   -0.4316 H   0  0  0  0  0  0  0  0  0  0  0  0
  1  2  1  0
  1  5  1  0
  1  6  1  0
  1  7  1  0
  2  4  1  0
  2  3  1  0
  2 17  1  0
  3  8  1  0
  4  9  1  0
  4 10  1  0
  4 11  1  0
 12 13  2  3
 12 15  1  0
 12 16  1  0
 13 14  1  0
 14 18  1  0
 14 19  1  0
 14 20  1  0
M  RAD  1  13   2
M  END
>  <reaction>  (4) 
rxn_1626

>  <mol_properties>  (4) 
{"1": {"label": "*1", "atom_type": "Cs"}, "2": {"label": "*0", "atom_type": "S2s"}, "11": {"label": "*4", "atom_type": "Cd"}, "12": {"label": "*3", "atom_type": "Cd"}, "16": {"label": "*2", "atom_type": "H0"}}

>  <type>  (4) 
ts

$$$$

     RDKit          3D

 20 18  0  0  0  0  0  0  0  0999 V2000
    1.3920   -0.6914    1.3019 C   0  0  0  0  0  0  0  0  0  0  0  0
    0.1447   -0.6059    0.4333 C   0  0  0  0  0  3  0  0  0  0  0  0
   -0.4251   -2.2545   -0.1088 S   0  0  0  0  0  0  0  0  0  0  0  0
   -0.9674    0.1897    1.1025 C   0  0  0  0  0  0  0  0  0  0  0  0
    2.1886   -1.2388    0.7994 H   0  0  0  0  0  0  0  0  0  0  0  0
    1.1701   -1.2015    2.2425 H   0  0  0  0  0  0  0  0  0  0  0  0
    1.7554    0.3109    1.5427 H   0  0  0  0  0  0  0  0  0  0  0  0
   -0.7053   -2.7278    1.1142 H   0  0  0  0  0  0  0  0  0  0  0  0
   -0.6205    1.1982    1.3419 H   0  0  0  0  0  0  0  0  0  0  0  0
   -1.8428    0.2666    0.4585 H   0  0  0  0  0  0  0  0  0  0  0  0
   -1.2732   -0.2891    2.0359 H   0  0  0  0  0  0  0  0  0  0  0  0
    0.1447    1.6867   -2.1504 C   0  0  0  0  0  0  0  0  0  0  0  0
    0.1447    1.6867   -0.8266 C   0  0  0  0  0  0  0  0  0  0  0  0
    0.1447    2.9089    0.0339 C   0  0  0  0  0  0  0  0  0  0  0  0
    0.1447    0.7640   -2.7169 H   0  0  0  0  0  0  0  0  0  0  0  0
    0.1447    2.6123   -2.7164 H   0  0  0  0  0  0  0  0  0  0  0  0
    0.1447    0.5435   -0.1984 H   0  0  0  0  0  0  0  0  0  0  0  0
   -0.7330    2.9260    0.6851 H   0  0  0  0  0  0  0  0  0  0  0  0
    0.1447    3.8193   -0.5667 H   0  0  0  0  0  0  0  0  0  0  0  0
    1.0224    2.9260    0.6851 H   0  0  0  0  0  0  0  0  0  0  0  0
  1  2  1  0
  1  5  1  0
  1  6  1  0
  1  7  1  0
  2  4  1  0
  2  3  1  0
  3  8  1  0
  4  9  1  0
  4 10  1  0
  4 11  1  0
 12 13  2  3
 12 15  1  0
 12 16  1  0
 13 14  1  0
 13 17  1  0
 14 18  1  0
 14 19  1  0
 14 20  1  0
M  RAD  1   2   2
M  END
>  <reaction>  (5) 
rxn_1626

>  <mol_properties>  (5) 
{"1": {"label": "*1", "atom_type": "Cs"}, "2": {"label": "*0", "atom_type": "S2s"}, "11": {"label": "*4", "atom_type": "Cd"}, "12": {"label": "*3", "atom_type": "Cd"}, "16": {"label": "*2", "atom_type": "H0"}}

>  <type>  (5) 
unop_1

>  <geom_source>  (5) 
Heuristics

$$$$

     RDKit          3D

 20 18  0  0  0  0  0  0  0  0999 V2000
    0.9557   -1.7599   -0.5694 C   0  0  0  0  0  0  0  0  0  0  0  0
    0.2356   -0.7269    0.2861 C   0  0  0  0  0  3  0  0  0  0  0  0
   -1.3787   -1.3389    0.8827 S   0  0  0  0  0  0  0  0  0  0  0  0
    1.1074   -0.2163    1.4248 C   0  0  0  0  0  0  0  0  0  0  0  0
    0.3307   -2.0954   -1.3963 H   0  0  0  0  0  0  0  0  0  0  0  0
    1.2247   -2.6335    0.0294 H   0  0  0  0  0  0  0  0  0  0  0  0
    1.8775   -1.3375   -0.9777 H   0  0  0  0  0  0  0  0  0  0  0  0
   -0.8945   -2.3453    1.6249 H   0  0  0  0  0  0  0  0  0  0  0  0
    2.0303    0.2169    1.0305 H   0  0  0  0  0  0  0  0  0  0  0  0
    0.5900    0.5422    2.0112 H   0  0  0  0  0  0  0  0  0  0  0  0
    1.3819   -1.0349    2.0946 H   0  0  0  0  0  0  0  0  0  0  0  0
    0.2356    1.5657   -2.2976 C   0  0  0  0  0  0  0  0  0  0  0  0
    0.2356    1.5657   -0.9738 C   0  0  0  0  0  0  0  0  0  0  0  0
    0.2356    2.7879   -0.1133 C   0  0  0  0  0  0  0  0  0  0  0  0
    0.2356    0.6430   -2.8640 H   0  0  0  0  0  0  0  0  0  0  0  0
    0.2356    2.4913   -2.8636 H   0  0  0  0  0  0  0  0  0  0  0  0
    0.2356    0.4226   -0.3456 H   0  0  0  0  0  0  0  0  0  0  0  0
   -0.6421    2.8050    0.5379 H   0  0  0  0  0  0  0  0  0  0  0  0
    0.2356    3.6984   -0.7139 H   0  0  0  0  0  0  0  0  0  0  0  0
    1.1133    2.8050    0.5379 H   0  0  0  0  0  0  0  0  0  0  0  0
  1  2  1  0
  1  5  1  0
  1  6  1  0
  1  7  1  0
  2  4  1  0
  2  3  1  0
  3  8  1  0
  4  9  1  0
  4 10  1  0
  4 11  1  0
 12 13  2  3
 12 15  1  0
 12 16  1  0
 13 14  1  0
 13 17  1  0
 14 18  1  0
 14 19  1  0
 14 20  1  0
M  RAD  1   2   2
M  END
>  <reaction>  (6) 
rxn_1626

>  <mol_properties>  (6) 
{"1": {"label": "*1", "atom_type": "Cs"}, "2": {"label": "*0", "atom_type": "S2s"}, "11": {"label": "*4", "atom_type": "Cd"}, "12": {"label": "*3", "atom_type": "Cd"}, "16": {"label": "*2", "atom_type": "H0"}}

>  <type>  (6) 
unop_2

>  <geom_source>  (6) 
Heuristics

$$$$

     RDKit          3D

 20 18  0  0  0  0  0  0  0  0999 V2000
    0.7152   -0.4056    1.8498 C   0  0  0  0  0  0  0  0  0  0  0  0
   -0.0049   -0.5740    0.5192 C   0  0  0  0  0  3  0  0  0  0  0  0
    0.4039   -2.1633   -0.2830 S   0  0  0  0  0  0  0  0  0  0  0  0
   -1.5080   -0.3721    0.6504 C   0  0  0  0  0  0  0  0  0  0  0  0
    1.7921   -0.5248    1.7359 H   0  0  0  0  0  0  0  0  0  0  0  0
    0.3657   -1.1478    2.5717 H   0  0  0  0  0  0  0  0  0  0  0  0
    0.5158    0.5853    2.2658 H   0  0  0  0  0  0  0  0  0  0  0  0
   -0.1203   -2.9517    0.6667 H   0  0  0  0  0  0  0  0  0  0  0  0
   -1.7230    0.6191    1.0580 H   0  0  0  0  0  0  0  0  0  0  0  0
   -2.0068   -0.4675   -0.3135 H   0  0  0  0  0  0  0  0  0  0  0  0
   -1.9367   -1.1131    1.3296 H   0  0  0  0  0  0  0  0  0  0  0  0
   -0.0049    1.7186   -2.0645 C   0  0  0  0  0  0  0  0  0  0  0  0
   -0.0049    1.7186   -0.7407 C   0  0  0  0  0  0  0  0  0  0  0  0
   -0.0049    2.9408    0.1198 C   0  0  0  0  0  0  0  0  0  0  0  0
   -0.0049    0.7959   -2.6310 H   0  0  0  0  0  0  0  0  0  0  0  0
   -0.0049    2.6442   -2.6305 H   0  0  0  0  0  0  0  0  0  0  0  0
   -0.0049    0.5755   -0.1125 H   0  0  0  0  0  0  0  0  0  0  0  0
   -0.8826    2.9579    0.7710 H   0  0  0  0  0  0  0  0  0  0  0  0
   -0.0049    3.8512   -0.4808 H   0  0  0  0  0  0  0  0  0  0  0  0
    0.8728    2.9579    0.7710 H   0  0  0  0  0  0  0  0  0  0  0  0
  1  2  1  0
  1  5  1  0
  1  6  1  0
  1  7  1  0
  2  4  1  0
  2  3  1  0
  3  8  1  0
  4  9  1  0
  4 10  1  0
  4 11  1  0
 12 13  2  3
 12 15  1  0
 12 16  1  0
 13 14  1  0
 13 17  1  0
 14 18  1  0
 14 19  1  0
 14 20  1  0
M  RAD  1   2   2
M  END
>  <reaction>  (7) 
rxn_1626

>  <mol_properties>  (7) 
{"1": {"label": "*1", "atom_type": "Cs"}, "2": {"label": "*0", "atom_type": "S2s"}, "11": {"label": "*4", "atom_type": "Cd"}, "12": {"label": "*3", "atom_type": "Cd"}, "16": {"label": "*2", "atom_type": "H0"}}

>  <type>  (7) 
unop_3

>  <geom_source>  (7) 
Heuristics

$$$$

     RDKit          3D

 20 18  0  0  0  0  0  0  0  0999 V2000
   -1.1316   -1.8732   -0.2653 C   0  0  0  0  0  0  0  0  0  0  0  0
    0.1156   -1.0941    0.1282 C   0  0  0  0  0  3  0  0  0  0  0  0
   -0.2362    0.1559    1.4128 S   0  0  0  0  0  0  0  0  0  0  0  0
    1.2639   -2.0114    0.5253 C   0  0  0  0  0  0  0  0  0  0  0  0
   -1.9354   -1.2057   -0.5738 H   0  0  0  0  0  0  0  0  0  0  0  0
   -1.4909   -2.4720    0.5752 H   0  0  0  0  0  0  0  0  0  0  0  0
   -0.9080   -2.5548   -1.0901 H   0  0  0  0  0  0  0  0  0  0  0  0
   -0.6019   -0.7090    2.3700 H   0  0  0  0  0  0  0  0  0  0  0  0
    1.5043   -2.6939   -0.2940 H   0  0  0  0  0  0  0  0  0  0  0  0
    2.1578   -1.4417    0.7770 H   0  0  0  0  0  0  0  0  0  0  0  0
    0.9899   -2.6151    1.3939 H   0  0  0  0  0  0  0  0  0  0  0  0
    0.1156    1.1985   -2.4554 C   0  0  0  0  0  0  0  0  0  0  0  0
    0.1156    1.1985   -1.1317 C   0  0  0  0  0  0  0  0  0  0  0  0
    0.1156    2.4207   -0.2712 C   0  0  0  0  0  0  0  0  0  0  0  0
    0.1156    0.2758   -3.0219 H   0  0  0  0  0  0  0  0  0  0  0  0
    0.1156    2.1241   -3.0214 H   0  0  0  0  0  0  0  0  0  0  0  0
    0.1156    0.0553   -0.5035 H   0  0  0  0  0  0  0  0  0  0  0  0
   -0.7621    2.4378    0.3800 H   0  0  0  0  0  0  0  0  0  0  0  0
    0.1156    3.3311   -0.8718 H   0  0  0  0  0  0  0  0  0  0  0  0
    0.9934    2.4378    0.3800 H   0  0  0  0  0  0  0  0  0  0  0  0
  1  2  1  0
  1  5  1  0
  1  6  1  0
  1  7  1  0
  2  4  1  0
  2  3  1  0
  3  8  1  0
  4  9  1  0
  4 10  1  0
  4 11  1  0
 12 13  2  3
 12 15  1  0
 12 16  1  0
 13 14  1  0
 13 17  1  0
 14 18  1  0
 14 19  1  0
 14 20  1  0
M  RAD  1   2   2
M  END
>  <reaction>  (8) 
rxn_1626

>  <mol_properties>  (8) 
{"1": {"label": "*1", "atom_type": "Cs"}, "2": {"label": "*0", "atom_type": "S2s"}, "11": {"label": "*4", "atom_type": "Cd"}, "12": {"label": "*3", "atom_type": "Cd"}, "16": {"label": "*2", "atom_type": "H0"}}

>  <type>  (8) 
unop_4

>  <geom_source>  (8) 
Heuristics

$$$$

     RDKit          3D

 20 18  0  0  0  0  0  0  0  0999 V2000
   -0.2759   -0.4208    2.0080 C   0  0  0  0  0  0  0  0  0  0  0  0
   -0.2759   -0.6821    0.5083 C   0  0  0  0  0  3  0  0  0  0  0  0
    1.2889   -1.4385   -0.0538 S   0  0  0  0  0  0  0  0  0  0  0  0
   -1.4893   -1.4880    0.0661 C   0  0  0  0  0  0  0  0  0  0  0  0
    0.5825    0.1804    2.3060 H   0  0  0  0  0  0  0  0  0  0  0  0
   -0.2398   -1.3623    2.5615 H   0  0  0  0  0  0  0  0  0  0  0  0
   -1.1885    0.1047    2.3011 H   0  0  0  0  0  0  0  0  0  0  0  0
    1.1678   -2.5755    0.6467 H   0  0  0  0  0  0  0  0  0  0  0  0
   -2.4104   -0.9700    0.3455 H   0  0  0  0  0  0  0  0  0  0  0  0
   -1.4910   -1.6431   -1.0122 H   0  0  0  0  0  0  0  0  0  0  0  0
   -1.4965   -2.4675    0.5504 H   0  0  0  0  0  0  0  0  0  0  0  0
   -0.2759    1.6106   -2.0754 C   0  0  0  0  0  0  0  0  0  0  0  0
   -0.2759    1.6106   -0.7516 C   0  0  0  0  0  0  0  0  0  0  0  0
   -0.2759    2.8327    0.1089 C   0  0  0  0  0  0  0  0  0  0  0  0
   -0.2759    0.6878   -2.6418 H   0  0  0  0  0  0  0  0  0  0  0  0
   -0.2759    2.5361   -2.6414 H   0  0  0  0  0  0  0  0  0  0  0  0
   -0.2759    0.4674   -0.1234 H   0  0  0  0  0  0  0  0  0  0  0  0
   -1.1536    2.8498    0.7601 H   0  0  0  0  0  0  0  0  0  0  0  0
   -0.2759    3.7432   -0.4917 H   0  0  0  0  0  0  0  0  0  0  0  0
    0.6018    2.8498    0.7601 H   0  0  0  0  0  0  0  0  0  0  0  0
  1  2  1  0
  1  5  1  0
  1  6  1  0
  1  7  1  0
  2  4  1  0
  2  3  1  0
  3  8  1  0
  4  9  1  0
  4 10  1  0
  4 11  1  0
 12 13  2  3
 12 15  1  0
 12 16  1  0
 13 14  1  0
 13 17  1  0
 14 18  1  0
 14 19  1  0
 14 20  1  0
M  RAD  1   2   2
M  END
>  <reaction>  (9) 
rxn_1626

>  <mol_properties>  (9) 
{"1": {"label": "*1", "atom_type": "Cs"}, "2": {"label": "*0", "atom_type": "S2s"}, "11": {"label": "*4", "atom_type": "Cd"}, "12": {"label": "*3", "atom_type": "Cd"}, "16": {"label": "*2", "atom_type": "H0"}}

>  <type>  (9) 
unop_5

>  <geom_source>  (9) 
Heuristics

$$$$

     RDKit          3D

 20 18  0  0  0  0  0  0  0  0999 V2000
   -1.5144   -1.5752    0.3737 C   0  0  0  0  0  0  0  0  0  0  0  0
   -0.0741   -1.1429    0.1361 C   0  0  0  0  0  3  0  0  0  0  0  0
    0.4180    0.2293    1.2367 S   0  0  0  0  0  0  0  0  0  0  0  0
    0.8968   -2.3128    0.2150 C   0  0  0  0  0  0  0  0  0  0  0  0
   -2.2007   -0.7336    0.2864 H   0  0  0  0  0  0  0  0  0  0  0  0
   -1.6266   -2.0030    1.3730 H   0  0  0  0  0  0  0  0  0  0  0  0
   -1.8051   -2.3393   -0.3518 H   0  0  0  0  0  0  0  0  0  0  0  0
    0.2874   -0.4454    2.3881 H   0  0  0  0  0  0  0  0  0  0  0  0
    0.6229   -3.0821   -0.5116 H   0  0  0  0  0  0  0  0  0  0  0  0
    1.9192   -1.9939    0.0153 H   0  0  0  0  0  0  0  0  0  0  0  0
    0.8704   -2.7668    1.2087 H   0  0  0  0  0  0  0  0  0  0  0  0
   -0.0741    1.1497   -2.4476 C   0  0  0  0  0  0  0  0  0  0  0  0
   -0.0741    1.1497   -1.1238 C   0  0  0  0  0  0  0  0  0  0  0  0
   -0.0741    2.3719   -0.2633 C   0  0  0  0  0  0  0  0  0  0  0  0
   -0.0741    0.2270   -3.0140 H   0  0  0  0  0  0  0  0  0  0  0  0
   -0.0741    2.0753   -3.0136 H   0  0  0  0  0  0  0  0  0  0  0  0
   -0.0741    0.0066   -0.4956 H   0  0  0  0  0  0  0  0  0  0  0  0
   -0.9519    2.3890    0.3879 H   0  0  0  0  0  0  0  0  0  0  0  0
   -0.0741    3.2824   -0.8639 H   0  0  0  0  0  0  0  0  0  0  0  0
    0.8036    2.3890    0.3879 H   0  0  0  0  0  0  0  0  0  0  0  0
  1  2  1  0
  1  5  1  0
  1  6  1  0
  1  7  1  0
  2  4  1  0
  2  3  1  0
  3  8  1  0
  4  9  1  0
  4 10  1  0
  4 11  1  0
 12 13  2  3
 12 15  1  0
 12 16  1  0
 13 14  1  0
 13 17  1  0
 14 18  1  0
 14 19  1  0
 14 20  1  0
M  RAD  1   2   2
M  END
>  <reaction>  (10) 
rxn_1626

>  <mol_properties>  (10) 
{"1": {"label": "*1", "atom_type": "Cs"}, "2": {"label": "*0", "atom_type": "S2s"}, "11": {"label": "*4", "atom_type": "Cd"}, "12": {"label": "*3", "atom_type": "Cd"}, "16": {"label": "*2", "atom_type": "H0"}}

>  <type>  (10) 
unop_6

>  <geom_source>  (10) 
Heuristics

$$$$

     RDKit          3D

 20 18  0  0  0  0  0  0  0  0999 V2000
   -1.5102   -1.1842    1.0837 C   0  0  0  0  0  0  0  0  0  0  0  0
   -0.2629   -1.0987    0.2150 C   0  0  0  0  0  3  0  0  0  0  0  0
    0.9774    0.0477    0.9108 S   0  0  0  0  0  0  0  0  0  0  0  0
    0.3293   -2.4707   -0.0757 C   0  0  0  0  0  0  0  0  0  0  0  0
   -1.9390   -0.1984    1.2601 H   0  0  0  0  0  0  0  0  0  0  0  0
   -1.2728   -1.6299    2.0528 H   0  0  0  0  0  0  0  0  0  0  0  0
   -2.2646   -1.8120    0.6026 H   0  0  0  0  0  0  0  0  0  0  0  0
    1.2057   -0.6418    2.0380 H   0  0  0  0  0  0  0  0  0  0  0  0
   -0.4123   -3.1075   -0.5649 H   0  0  0  0  0  0  0  0  0  0  0  0
    1.2040   -2.3966   -0.7208 H   0  0  0  0  0  0  0  0  0  0  0  0
    0.6320   -2.9622    0.8522 H   0  0  0  0  0  0  0  0  0  0  0  0
   -0.2629    1.1939   -2.3686 C   0  0  0  0  0  0  0  0  0  0  0  0
   -0.2629    1.1939   -1.0449 C   0  0  0  0  0  0  0  0  0  0  0  0
   -0.2629    2.4161   -0.1843 C   0  0  0  0  0  0  0  0  0  0  0  0
   -0.2629    0.2712   -2.9351 H   0  0  0  0  0  0  0  0  0  0  0  0
   -0.2629    2.1195   -2.9346 H   0  0  0  0  0  0  0  0  0  0  0  0
   -0.2629    0.0508   -0.4166 H   0  0  0  0  0  0  0  0  0  0  0  0
   -1.1406    2.4332    0.4669 H   0  0  0  0  0  0  0  0  0  0  0  0
   -0.2629    3.3266   -0.7849 H   0  0  0  0  0  0  0  0  0  0  0  0
    0.6148    2.4332    0.4669 H   0  0  0  0  0  0  0  0  0  0  0  0
  1  2  1  0
  1  5  1  0
  1  6  1  0
  1  7  1  0
  2  4  1  0
  2  3  1  0
  3  8  1  0
  4  9  1  0
  4 10  1  0
  4 11  1  0
 12 13  2  3
 12 15  1  0
 12 16  1  0
 13 14  1  0
 13 17  1  0
 14 18  1  0
 14 19  1  0
 14 20  1  0
M  RAD  1   2   2
M  END
>  <reaction>  (11) 
rxn_1626

>  <mol_properties>  (11) 
{"1": {"label": "*1", "atom_type": "Cs"}, "2": {"label": "*0", "atom_type": "S2s"}, "11": {"label": "*4", "atom_type": "Cd"}, "12": {"label": "*3", "atom_type": "Cd"}, "16": {"label": "*2", "atom_type": "H0"}}

>  <type>  (11) 
unop_7

>  <geom_source>  (11) 
Heuristics

$$$$

     RDKit          3D

 20 18  0  0  0  0  0  0  0  0999 V2000
    1.6265   -1.0813    0.5924 C   0  0  0  0  0  0  0  0  0  0  0  0
    0.1863   -0.6489    0.3548 C   0  0  0  0  0  3  0  0  0  0  0  0
   -0.9422   -2.0784    0.2147 S   0  0  0  0  0  0  0  0  0  0  0  0
   -0.2911    0.3539    1.3959 C   0  0  0  0  0  0  0  0  0  0  0  0
    1.9638   -1.7766   -0.1755 H   0  0  0  0  0  0  0  0  0  0  0  0
    1.7241   -1.5735    1.5631 H   0  0  0  0  0  0  0  0  0  0  0  0
    2.2884   -0.2114    0.5906 H   0  0  0  0  0  0  0  0  0  0  0  0
   -0.7623   -2.5365    1.4621 H   0  0  0  0  0  0  0  0  0  0  0  0
    0.3574    1.2338    1.3997 H   0  0  0  0  0  0  0  0  0  0  0  0
   -1.3129    0.6756    1.1975 H   0  0  0  0  0  0  0  0  0  0  0  0
   -0.2618   -0.0873    2.3952 H   0  0  0  0  0  0  0  0  0  0  0  0
    0.1863    1.6437   -2.2288 C   0  0  0  0  0  0  0  0  0  0  0  0
    0.1863    1.6437   -0.9051 C   0  0  0  0  0  0  0  0  0  0  0  0
    0.1863    2.8658   -0.0446 C   0  0  0  0  0  0  0  0  0  0  0  0
    0.1863    0.7209   -2.7953 H   0  0  0  0  0  0  0  0  0  0  0  0
    0.1863    2.5693   -2.7948 H   0  0  0  0  0  0  0  0  0  0  0  0
    0.1863    0.5005   -0.2768 H   0  0  0  0  0  0  0  0  0  0  0  0
   -0.6914    2.8830    0.6067 H   0  0  0  0  0  0  0  0  0  0  0  0
    0.1863    3.7763   -0.6452 H   0  0  0  0  0  0  0  0  0  0  0  0
    1.0640    2.8830    0.6067 H   0  0  0  0  0  0  0  0  0  0  0  0
  1  2  1  0
  1  5  1  0
  1  6  1  0
  1  7  1  0
  2  4  1  0
  2  3  1  0
  3  8  1  0
  4  9  1  0
  4 10  1  0
  4 11  1  0
 12 13  2  3
 12 15  1  0
 12 16  1  0
 13 14  1  0
 13 17  1  0
 14 18  1  0
 14 19  1  0
 14 20  1  0
M  RAD  1   2   2
M  END
>  <reaction>  (12) 
rxn_1626

>  <mol_properties>  (12) 
{"1": {"label": "*1", "atom_type": "Cs"}, "2": {"label": "*0", "atom_type": "S2s"}, "11": {"label": "*4", "atom_type": "Cd"}, "12": {"label": "*3", "atom_type": "Cd"}, "16": {"label": "*2", "atom_type": "H0"}}

>  <type>  (12) 
unop_8

>  <geom_source>  (12) 
Heuristics

$$$$

     RDKit          3D

 20 18  0  0  0  0  0  0  0  0999 V2000
   -0.4738   -2.0056   -0.6782 C   0  0  0  0  0  0  0  0  0  0  0  0
    0.2463   -0.9726    0.1773 C   0  0  0  0  0  3  0  0  0  0  0  0
   -0.8725   -0.1907    1.3912 S   0  0  0  0  0  0  0  0  0  0  0  0
    1.4939   -1.5430    0.8373 C   0  0  0  0  0  0  0  0  0  0  0  0
   -1.3481   -1.5764   -1.1665 H   0  0  0  0  0  0  0  0  0  0  0  0
   -0.8058   -2.8471   -0.0652 H   0  0  0  0  0  0  0  0  0  0  0  0
    0.1984   -2.3963   -1.4465 H   0  0  0  0  0  0  0  0  0  0  0  0
   -1.1453   -1.3050    2.0856 H   0  0  0  0  0  0  0  0  0  0  0  0
    2.1799   -1.9304    0.0795 H   0  0  0  0  0  0  0  0  0  0  0  0
    2.0142   -0.7860    1.4230 H   0  0  0  0  0  0  0  0  0  0  0  0
    1.2319   -2.3681    1.5042 H   0  0  0  0  0  0  0  0  0  0  0  0
    0.2463    1.3200   -2.4064 C   0  0  0  0  0  0  0  0  0  0  0  0
    0.2463    1.3200   -1.0826 C   0  0  0  0  0  0  0  0  0  0  0  0
    0.2463    2.5422   -0.2221 C   0  0  0  0  0  0  0  0  0  0  0  0
    0.2463    0.3973   -2.9729 H   0  0  0  0  0  0  0  0  0  0  0  0
    0.2463    2.2456   -2.9724 H   0  0  0  0  0  0  0  0  0  0  0  0
    0.2463    0.1768   -0.4544 H   0  0  0  0  0  0  0  0  0  0  0  0
   -0.6314    2.5593    0.4291 H   0  0  0  0  0  0  0  0  0  0  0  0
    0.2463    3.4526   -0.8227 H   0  0  0  0  0  0  0  0  0  0  0  0
    1.1240    2.5593    0.4291 H   0  0  0  0  0  0  0  0  0  0  0  0
  1  2  1  0
  1  5  1  0
  1  6  1  0
  1  7  1  0
  2  4  1  0
  2  3  1  0
  3  8  1  0
  4  9  1  0
  4 10  1  0
  4 11  1  0
 12 13  2  3
 12 15  1  0
 12 16  1  0
 13 14  1  0
 13 17  1  0
 14 18  1  0
 14 19  1  0
 14 20  1  0
M  RAD  1   2   2
M  END
>  <reaction>  (13) 
rxn_1626

>  <mol_properties>  (13) 
{"1": {"label": "*1", "atom_type": "Cs"}, "2": {"label": "*0", "atom_type": "S2s"}, "11": {"label": "*4", "atom_type": "Cd"}, "12": {"label": "*3", "atom_type": "Cd"}, "16": {"label": "*2", "atom_type": "H0"}}

>  <type>  (13) 
unop_9

>  <geom_source>  (13) 
Heuristics

$$$$

     RDKit          3D

 20 18  0  0  0  0  0  0  0  0999 V2000
    1.4477   -1.4597   -0.0822 C   0  0  0  0  0  0  0  0  0  0  0  0
    0.2004   -0.6806    0.3113 C   0  0  0  0  0  3  0  0  0  0  0  0
   -1.2405   -1.7759    0.5572 S   0  0  0  0  0  0  0  0  0  0  0  0
    0.4425    0.2210    1.5138 C   0  0  0  0  0  0  0  0  0  0  0  0
    1.2680   -2.0788   -0.9604 H   0  0  0  0  0  0  0  0  0  0  0  0
    1.7657   -2.1125    0.7344 H   0  0  0  0  0  0  0  0  0  0  0  0
    2.2697   -0.7734   -0.3012 H   0  0  0  0  0  0  0  0  0  0  0  0
   -0.7361   -2.4595    1.5948 H   0  0  0  0  0  0  0  0  0  0  0  0
    1.2575    0.9191    1.3060 H   0  0  0  0  0  0  0  0  0  0  0  0
   -0.4496    0.7931    1.7666 H   0  0  0  0  0  0  0  0  0  0  0  0
    0.7247   -0.3720    2.3872 H   0  0  0  0  0  0  0  0  0  0  0  0
    0.2004    1.6120   -2.2723 C   0  0  0  0  0  0  0  0  0  0  0  0
    0.2004    1.6120   -0.9486 C   0  0  0  0  0  0  0  0  0  0  0  0
    0.2004    2.8342   -0.0881 C   0  0  0  0  0  0  0  0  0  0  0  0
    0.2004    0.6893   -2.8388 H   0  0  0  0  0  0  0  0  0  0  0  0
    0.2004    2.5376   -2.8383 H   0  0  0  0  0  0  0  0  0  0  0  0
    0.2004    0.4688   -0.3203 H   0  0  0  0  0  0  0  0  0  0  0  0
   -0.6773    2.8513    0.5632 H   0  0  0  0  0  0  0  0  0  0  0  0
    0.2004    3.7446   -0.6887 H   0  0  0  0  0  0  0  0  0  0  0  0
    1.0781    2.8513    0.5632 H   0  0  0  0  0  0  0  0  0  0  0  0
  1  2  1  0
  1  5  1  0
  1  6  1  0
  1  7  1  0
  2  4  1  0
  2  3  1  0
  3  8  1  0
  4  9  1  0
  4 10  1  0
  4 11  1  0
 12 13  2  3
 12 15  1  0
 12 16  1  0
 13 14  1  0
 13 17  1  0
 14 18  1  0
 14 19  1  0
 14 20  1  0
M  RAD  1   2   2
M  END
>  <reaction>  (14) 
rxn_1626

>  <mol_properties>  (14) 
{"1": {"label": "*1", "atom_type": "Cs"}, "2": {"label": "*0", "atom_type": "S2s"}, "11": {"label": "*4", "atom_type": "Cd"}, "12": {"label": "*3", "atom_type": "Cd"}, "16": {"label": "*2", "atom_type": "H0"}}

>  <type>  (14) 
unop_10

>  <geom_source>  (14) 
Heuristics

$$$$

     RDKit          3D

 20 18  0  0  0  0  0  0  0  0999 V2000
   -1.0978   -0.7692    1.6888 C   0  0  0  0  0  0  0  0  0  0  0  0
   -0.3776   -0.9376    0.3582 C   0  0  0  0  0  3  0  0  0  0  0  0
    1.3832   -0.4648    0.4692 S   0  0  0  0  0  0  0  0  0  0  0  0
   -0.5571   -2.3349   -0.2188 C   0  0  0  0  0  0  0  0  0  0  0  0
   -0.9845    0.2429    2.0759 H   0  0  0  0  0  0  0  0  0  0  0  0
   -0.6982   -1.4638    2.4317 H   0  0  0  0  0  0  0  0  0  0  0  0
   -2.1637   -0.9809    1.5722 H   0  0  0  0  0  0  0  0  0  0  0  0
    1.7396   -1.4127    1.3482 H   0  0  0  0  0  0  0  0  0  0  0  0
   -1.6193   -2.5576   -0.3488 H   0  0  0  0  0  0  0  0  0  0  0  0
   -0.0606   -2.4324   -1.1836 H   0  0  0  0  0  0  0  0  0  0  0  0
   -0.1383   -3.0853    0.4563 H   0  0  0  0  0  0  0  0  0  0  0  0
   -0.3776    1.3551   -2.2255 C   0  0  0  0  0  0  0  0  0  0  0  0
   -0.3776    1.3551   -0.9017 C   0  0  0  0  0  0  0  0  0  0  0  0
   -0.3776    2.5772   -0.0412 C   0  0  0  0  0  0  0  0  0  0  0  0
   -0.3776    0.4323   -2.7920 H   0  0  0  0  0  0  0  0  0  0  0  0
   -0.3776    2.2807   -2.7915 H   0  0  0  0  0  0  0  0  0  0  0  0
   -0.3776    0.2119   -0.2735 H   0  0  0  0  0  0  0  0  0  0  0  0
   -1.2554    2.5944    0.6100 H   0  0  0  0  0  0  0  0  0  0  0  0
   -0.3776    3.4877   -0.6418 H   0  0  0  0  0  0  0  0  0  0  0  0
    0.5001    2.5944    0.6100 H   0  0  0  0  0  0  0  0  0  0  0  0
  1  2  1  0
  1  5  1  0
  1  6  1  0
  1  7  1  0
  2  4  1  0
  2  3  1  0
  3  8  1  0
  4  9  1  0
  4 10  1  0
  4 11  1  0
 12 13  2  3
 12 15  1  0
 12 16  1  0
 13 14  1  0
 13 17  1  0
 14 18  1  0
 14 19  1  0
 14 20  1  0
M  RAD  1   2   2
M  END
>  <reaction>  (15) 
rxn_1626

>  <mol_properties>  (15) 
{"1": {"label": "*1", "atom_type": "Cs"}, "2": {"label": "*0", "atom_type": "S2s"}, "11": {"label": "*4", "atom_type": "Cd"}, "12": {"label": "*3", "atom_type": "Cd"}, "16": {"label": "*2", "atom_type": "H0"}}

>  <type>  (15) 
unop_11

>  <geom_source>  (15) 
Heuristics

$$$$

     RDKit          3D

 20 18  0  0  0  0  0  0  0  0999 V2000
    0.2759   -1.9535   -0.7811 C   0  0  0  0  0  0  0  0  0  0  0  0
    0.2759   -0.8276    0.2435 C   0  0  0  0  0  3  0  0  0  0  0  0
   -1.2889   -0.7586    1.1834 S   0  0  0  0  0  0  0  0  0  0  0  0
    1.4893   -0.8863    1.1609 C   0  0  0  0  0  0  0  0  0  0  0  0
   -0.5825   -1.8827   -1.4482 H   0  0  0  0  0  0  0  0  0  0  0  0
    0.2398   -2.9255   -0.2829 H   0  0  0  0  0  0  0  0  0  0  0  0
    1.1885   -1.9192   -1.3817 H   0  0  0  0  0  0  0  0  0  0  0  0
   -1.1678   -1.9595    1.7677 H   0  0  0  0  0  0  0  0  0  0  0  0
    2.4104   -0.8445    0.5738 H   0  0  0  0  0  0  0  0  0  0  0  0
    1.4910   -0.0592    1.8700 H   0  0  0  0  0  0  0  0  0  0  0  0
    1.4965   -1.8203    1.7281 H   0  0  0  0  0  0  0  0  0  0  0  0
    0.2759    1.4650   -2.3402 C   0  0  0  0  0  0  0  0  0  0  0  0
    0.2759    1.4650   -1.0164 C   0  0  0  0  0  0  0  0  0  0  0  0
    0.2759    2.6872   -0.1559 C   0  0  0  0  0  0  0  0  0  0  0  0
    0.2759    0.5423   -2.9066 H   0  0  0  0  0  0  0  0  0  0  0  0
    0.2759    2.3906   -2.9062 H   0  0  0  0  0  0  0  0  0  0  0  0
    0.2759    0.3219   -0.3882 H   0  0  0  0  0  0  0  0  0  0  0  0
   -0.6018    2.7043    0.4953 H   0  0  0  0  0  0  0  0  0  0  0  0
    0.2759    3.5977   -0.7565 H   0  0  0  0  0  0  0  0  0  0  0  0
    1.1536    2.7043    0.4953 H   0  0  0  0  0  0  0  0  0  0  0  0
  1  2  1  0
  1  5  1  0
  1  6  1  0
  1  7  1  0
  2  4  1  0
  2  3  1  0
  3  8  1  0
  4  9  1  0
  4 10  1  0
  4 11  1  0
 12 13  2  3
 12 15  1  0
 12 16  1  0
 13 14  1  0
 13 17  1  0
 14 18  1  0
 14 19  1  0
 14 20  1  0
M  RAD  1   2   2
M  END
>  <reaction>  (16) 
rxn_1626

>  <mol_properties>  (16) 
{"1": {"label": "*1", "atom_type": "Cs"}, "2": {"label": "*0", "atom_type": "S2s"}, "11": {"label": "*4", "atom_type": "Cd"}, "12": {"label": "*3", "atom_type": "Cd"}, "16": {"label": "*2", "atom_type": "H0"}}

>  <type>  (16) 
unop_12

>  <geom_source>  (16) 
Heuristics

$$$$

     RDKit          3D

 20 18  0  0  0  0  0  0  0  0999 V2000
   -0.6216   -0.8514    1.9872 S   0  0  0  0  0  0  0  0  0  0  0  0
   -0.9500   -0.2417    0.2985 C   0  0  0  0  0  3  0  0  0  0  0  0
   -1.6204   -1.3307   -0.5370 C   0  0  0  0  0  0  0  0  0  0  0  0
   -1.8046    1.0235    0.3488 C   0  0  0  0  0  0  0  0  0  0  0  0
    2.4705   -0.5492   -0.8544 C   0  0  0  0  0  0  0  0  0  0  0  0
    1.8898    1.5688    0.2788 C   0  0  0  0  0  0  0  0  0  0  0  0
    1.5172    0.3626   -0.1506 C   0  0  0  0  0  0  0  0  0  0  0  0
    0.2950    0.0822   -0.3034 H   0  0  0  0  0  0  0  0  0  0  0  0
   -0.9732   -2.2323   -0.5667 H   0  0  0  0  0  0  0  0  0  0  0  0
   -2.6065   -1.6074   -0.1064 H   0  0  0  0  0  0  0  0  0  0  0  0
   -1.7676   -0.9731   -1.5780 H   0  0  0  0  0  0  0  0  0  0  0  0
   -1.9549    1.4204   -0.6774 H   0  0  0  0  0  0  0  0  0  0  0  0
   -2.7959    0.8121    0.8040 H   0  0  0  0  0  0  0  0  0  0  0  0
   -1.2888    1.8008    0.9508 H   0  0  0  0  0  0  0  0  0  0  0  0
    1.9467   -1.4908   -1.1181 H   0  0  0  0  0  0  0  0  0  0  0  0
    2.8404   -0.0681   -1.7844 H   0  0  0  0  0  0  0  0  0  0  0  0
    3.3294   -0.7863   -0.1915 H   0  0  0  0  0  0  0  0  0  0  0  0
    1.1713    2.2034    0.7856 H   0  0  0  0  0  0  0  0  0  0  0  0
    2.9040    1.9271    0.1290 H   0  0  0  0  0  0  0  0  0  0  0  0
   -1.9808   -1.0698    2.2852 H   0  0  0  0  0  0  0  0  0  0  0  0
  1  2  1  0
  1 20  1  0
  2  3  1  0
  2  4  1  0
  3  9  1  0
  3 10  1  0
  3 11  1  0
  4 12  1  0
  4 13  1  0
  4 14  1  0
  5  7  1  0
  5 15  1  0
  5 16  1  0
  5 17  1  0
  6  7  2  3
  6 18  1  0
  6 19  1  0
  7  8  1  0
M  RAD  1   2   2
M  END
>  <reaction>  (17) 
rxn_1626

>  <mol_properties>  (17) 
{"1": {"label": "*1", "atom_type": "Cs"}, "2": {"label": "*0", "atom_type": "S2s"}, "11": {"label": "*4", "atom_type": "Cd"}, "12": {"label": "*3", "atom_type": "Cd"}, "16": {"label": "*2", "atom_type": "H0"}}

>  <type>  (17) 
unop_13

>  <geom_source>  (17) 
AutoTST

$$$$
