
     RDKit          3D

 16 15  0  0  0  0  0  0  0  0999 V2000
    1.7961   -0.3807    1.6176 C   0  0  0  0  0  0  0  0  0  0  0  0
    0.8562   -0.8708    0.8256 C   0  0  0  0  0  0  0  0  0  0  0  0
    0.0895   -0.0826   -0.2048 C   0  0  0  0  0  0  0  0  0  0  0  0
   -1.4061   -0.1111    0.0982 C   0  0  0  0  0  0  0  0  0  0  0  0
    0.4476   -0.5902   -1.5797 C   0  0  0  0  0  0  0  0  0  0  0  0
   -0.3793   -1.1113   -2.4728 C   0  0  0  0  0  0  0  0  0  0  0  0
    2.3110   -1.0032    2.3386 H   0  0  0  0  0  0  0  0  0  0  0  0
    2.0846    0.6643    1.5737 H   0  0  0  0  0  0  0  0  0  0  0  0
    0.5921   -1.9241    0.8925 H   0  0  0  0  0  0  0  0  0  0  0  0
    0.4358    0.9557   -0.1462 H   0  0  0  0  0  0  0  0  0  0  0  0
   -1.5968    0.3080    1.0865 H   0  0  0  0  0  0  0  0  0  0  0  0
   -1.9674    0.4693   -0.6359 H   0  0  0  0  0  0  0  0  0  0  0  0
   -1.7902   -1.1338    0.0883 H   0  0  0  0  0  0  0  0  0  0  0  0
    1.5049   -0.5197   -1.8214 H   0  0  0  0  0  0  0  0  0  0  0  0
   -1.4421   -1.2131   -2.2889 H   0  0  0  0  0  0  0  0  0  0  0  0
   -0.0162   -1.4558   -3.4328 H   0  0  0  0  0  0  0  0  0  0  0  0
  1  2  2  3
  1  7  1  0
  1  8  1  0
  2  3  1  0
  2  9  1  0
  3  4  1  0
  3  5  1  0
  3 10  1  0
  4 11  1  0
  4 12  1  0
  4 13  1  0
  5  6  2  3
  5 14  1  0
  6 15  1  0
  6 16  1  0
M  END
>  <reaction>  (1) 
rxn_1190

>  <mol_properties>  (1) 
{"2": {"label": "donator", "atom_type": "Cs"}, "9": {"label": "d_hydrogen", "atom_type": "H0"}}

>  <type>  (1) 
r1h

$$$$

     RDKit          3D

  7  6  0  0  0  0  0  0  0  0999 V2000
    1.3002    0.7433    2.1279 C   0  0  0  0  0  0  0  0  0  0  0  0
    0.5758    0.3292    1.2319 C   0  0  0  0  0  0  0  0  0  0  0  0
   -0.2057   -0.1176    0.2652 C   0  0  0  0  0  3  0  0  0  0  0  0
   -0.9747   -0.5572   -0.6858 C   0  0  0  0  0  0  0  0  0  0  0  0
    1.9293    1.1030    2.9060 H   0  0  0  0  0  0  0  0  0  0  0  0
   -1.9977   -0.8727   -0.4932 H   0  0  0  0  0  0  0  0  0  0  0  0
   -0.6274   -0.6280   -1.7143 H   0  0  0  0  0  0  0  0  0  0  0  0
  1  2  3  0
  1  5  1  0
  2  3  1  0
  3  4  2  3
  4  6  1  0
  4  7  1  0
M  RAD  1   3   2
M  END
>  <reaction>  (2) 
rxn_1190

>  <mol_properties>  (2) 
{"2": {"label": "acceptor", "atom_type": "Cd"}}

>  <type>  (2) 
r2

$$$$

     RDKit          3D

  8  7  0  0  0  0  0  0  0  0999 V2000
    1.9029    0.9046   -0.2050 C   0  0  0  0  0  0  0  0  0  0  0  0
    0.8517    0.4283    0.1217 C   0  0  0  0  0  0  0  0  0  0  0  0
   -0.3908   -0.1311    0.5404 C   0  0  0  0  0  0  0  0  0  0  0  0
   -1.2847   -0.6576   -0.2899 C   0  0  0  0  0  0  0  0  0  0  0  0
    2.8335    1.3255   -0.5014 H   0  0  0  0  0  0  0  0  0  0  0  0
   -0.5867   -0.1096    1.6074 H   0  0  0  0  0  0  0  0  0  0  0  0
   -2.2126   -1.0686    0.0850 H   0  0  0  0  0  0  0  0  0  0  0  0
   -1.1134   -0.6914   -1.3582 H   0  0  0  0  0  0  0  0  0  0  0  0
  1  2  3  0
  1  5  1  0
  2  3  1  0
  3  4  2  3
  3  6  1  0
  4  7  1  0
  4  8  1  0
M  END
>  <reaction>  (3) 
rxn_1190

>  <mol_properties>  (3) 
{"2": {"label": "acceptor", "atom_type": "Cd"}, "7": {"label": "a_hydrogen", "atom_type": "H0"}}

>  <type>  (3) 
r2h

$$$$

     RDKit          3D

 23 21  0  0  0  0  0  0  0  0999 V2000
   -0.0910    3.4435    0.6282 C   0  0  0  0  0  0  0  0  0  0  0  0
   -0.1446    2.5598   -0.1933 C   0  0  0  0  0  0  0  0  0  0  0  0
   -0.2062    1.4530   -1.0145 C   0  0  0  0  0  3  0  0  0  0  0  0
   -0.2397    1.1884   -2.3022 C   0  0  0  0  0  0  0  0  0  0  0  0
   -0.0459    4.2391    1.3324 H   0  0  0  0  0  0  0  0  0  0  0  0
   -0.2230    1.9770   -3.0500 H   0  0  0  0  0  0  0  0  0  0  0  0
   -0.2839    0.1634   -2.6555 H   0  0  0  0  0  0  0  0  0  0  0  0
    0.1393   -2.7472   -1.3046 C   0  0  0  0  0  0  0  0  0  0  0  0
   -0.5931   -1.8956   -0.5947 C   0  0  0  0  0  0  0  0  0  0  0  0
   -0.0943   -0.8929    0.3805 C   0  0  0  0  0  0  0  0  0  0  0  0
    1.3859   -0.9302    0.6884 C   0  0  0  0  0  0  0  0  0  0  0  0
   -1.0056   -0.7248    1.5415 C   0  0  0  0  0  0  0  0  0  0  0  0
   -0.6505   -0.4979    2.8005 C   0  0  0  0  0  0  0  0  0  0  0  0
   -0.3269   -3.4304   -2.0028 H   0  0  0  0  0  0  0  0  0  0  0  0
    1.2165   -2.8052   -1.2094 H   0  0  0  0  0  0  0  0  0  0  0  0
   -1.6714   -1.9002   -0.7345 H   0  0  0  0  0  0  0  0  0  0  0  0
   -0.2310    0.1718   -0.2189 H   0  0  0  0  0  0  0  0  0  0  0  0
    1.9714   -0.9119   -0.2310 H   0  0  0  0  0  0  0  0  0  0  0  0
    1.6768   -0.0598    1.2769 H   0  0  0  0  0  0  0  0  0  0  0  0
    1.6504   -1.8303    1.2490 H   0  0  0  0  0  0  0  0  0  0  0  0
   -2.0650   -0.7751    1.3031 H   0  0  0  0  0  0  0  0  0  0  0  0
    0.3855   -0.4396    3.1098 H   0  0  0  0  0  0  0  0  0  0  0  0
   -1.3985   -0.3687    3.5719 H   0  0  0  0  0  0  0  0  0  0  0  0
  1  2  3  0
  1  5  1  0
  2  3  1  0
  3  4  2  3
  4  6  1  0
  4  7  1  0
  8  9  2  3
  8 14  1  0
  8 15  1  0
  9 10  1  0
  9 16  1  0
 10 11  1  0
 10 12  1  0
 10 17  1  0
 11 18  1  0
 11 19  1  0
 11 20  1  0
 12 13  2  3
 12 21  1  0
 13 22  1  0
 13 23  1  0
M  RAD  1   3   2
M  END
>  <reaction>  (4) 
rxn_1190

>  <mol_properties>  (4) 
{"1": {"label": "*4", "atom_type": "Ct"}, "2": {"label": "*3", "atom_type": "Cd"}, "8": {"label": "*0", "atom_type": "Cd"}, "9": {"label": "*1", "atom_type": "Cs"}, "16": {"label": "*2", "atom_type": "H0"}}

>  <type>  (4) 
ts

$$$$

     RDKit          3D

 23 21  0  0  0  0  0  0  0  0999 V2000
   -1.6880    2.8672   -0.8805 C   0  0  0  0  0  0  0  0  0  0  0  0
   -0.7481    2.1273   -0.9684 C   0  0  0  0  0  0  0  0  0  0  0  0
    0.3492    1.2231   -1.0711 C   0  0  0  0  0  0  0  0  0  0  0  0
    1.6169    1.6048   -1.1847 C   0  0  0  0  0  0  0  0  0  0  0  0
   -2.5214    3.5233   -0.8026 H   0  0  0  0  0  0  0  0  0  0  0  0
    1.8929    2.6513   -1.2060 H   0  0  0  0  0  0  0  0  0  0  0  0
    2.4101    0.8728   -1.2593 H   0  0  0  0  0  0  0  0  0  0  0  0
    0.2763   -2.0858   -1.6742 C   0  0  0  0  0  0  0  0  0  0  0  0
    0.2763   -2.0858   -0.3510 C   0  0  0  0  0  0  0  0  0  0  0  0
    0.2763   -0.8550    0.5185 C   0  0  0  0  0  3  0  0  0  0  0  0
    1.5147   -0.8252    1.4101 C   0  0  0  0  0  0  0  0  0  0  0  0
   -1.0272   -0.7864    1.2750 C   0  0  0  0  0  0  0  0  0  0  0  0
   -1.1818   -0.7862    2.5899 C   0  0  0  0  0  0  0  0  0  0  0  0
    0.2756   -3.0084   -2.2409 H   0  0  0  0  0  0  0  0  0  0  0  0
    0.2781   -1.1600   -2.2399 H   0  0  0  0  0  0  0  0  0  0  0  0
    0.2716   -3.0316    0.1867 H   0  0  0  0  0  0  0  0  0  0  0  0
    0.3129    0.1894   -0.2804 H   0  0  0  0  0  0  0  0  0  0  0  0
    2.4175   -0.8336    0.7988 H   0  0  0  0  0  0  0  0  0  0  0  0
    1.5294    0.0706    2.0332 H   0  0  0  0  0  0  0  0  0  0  0  0
    1.5473   -1.6970    2.0677 H   0  0  0  0  0  0  0  0  0  0  0  0
   -1.9104   -0.7507    0.6424 H   0  0  0  0  0  0  0  0  0  0  0  0
   -0.3415   -0.8255    3.2724 H   0  0  0  0  0  0  0  0  0  0  0  0
   -2.1682   -0.7431    3.0341 H   0  0  0  0  0  0  0  0  0  0  0  0
  1  2  3  0
  1  5  1  0
  2  3  1  0
  3  4  2  3
  3 17  1  0
  4  6  1  0
  4  7  1  0
  8  9  2  3
  8 14  1  0
  8 15  1  0
  9 10  1  0
  9 16  1  0
 10 11  1  0
 10 12  1  0
 11 18  1  0
 11 19  1  0
 11 20  1  0
 12 13  2  3
 12 21  1  0
 13 22  1  0
 13 23  1  0
M  RAD  1  10   2
M  END
>  <reaction>  (5) 
rxn_1190

>  <mol_properties>  (5) 
{"1": {"label": "*4", "atom_type": "Ct"}, "2": {"label": "*3", "atom_type": "Cd"}, "8": {"label": "*0", "atom_type": "Cd"}, "9": {"label": "*1", "atom_type": "Cs"}, "16": {"label": "*2", "atom_type": "H0"}}

>  <type>  (5) 
unop_1

>  <geom_source>  (5) 
Heuristics

$$$$

     RDKit          3D

 23 21  0  0  0  0  0  0  0  0999 V2000
   -0.8038    1.0952   -3.1104 C   0  0  0  0  0  0  0  0  0  0  0  0
   -0.2889    1.2625   -2.0401 C   0  0  0  0  0  0  0  0  0  0  0  0
    0.3244    1.4298   -0.7642 C   0  0  0  0  0  0  0  0  0  0  0  0
    0.6018    2.6116   -0.2236 C   0  0  0  0  0  0  0  0  0  0  0  0
   -1.2603    0.9469   -4.0594 H   0  0  0  0  0  0  0  0  0  0  0  0
    0.3710    3.5365   -0.7365 H   0  0  0  0  0  0  0  0  0  0  0  0
    1.0689    2.6782    0.7500 H   0  0  0  0  0  0  0  0  0  0  0  0
    0.2516   -1.8791   -1.3673 C   0  0  0  0  0  0  0  0  0  0  0  0
    0.2516   -1.8791   -0.0441 C   0  0  0  0  0  0  0  0  0  0  0  0
    0.2516   -0.6483    0.8253 C   0  0  0  0  0  3  0  0  0  0  0  0
    1.4900   -0.6185    1.7169 C   0  0  0  0  0  0  0  0  0  0  0  0
   -1.0519   -0.5797    1.5819 C   0  0  0  0  0  0  0  0  0  0  0  0
   -1.2065   -0.5795    2.8968 C   0  0  0  0  0  0  0  0  0  0  0  0
    0.2509   -2.8017   -1.9340 H   0  0  0  0  0  0  0  0  0  0  0  0
    0.2534   -0.9533   -1.9330 H   0  0  0  0  0  0  0  0  0  0  0  0
    0.2469   -2.8249    0.4936 H   0  0  0  0  0  0  0  0  0  0  0  0
    0.2882    0.3961    0.0265 H   0  0  0  0  0  0  0  0  0  0  0  0
    2.3927   -0.6269    1.1057 H   0  0  0  0  0  0  0  0  0  0  0  0
    1.5047    0.2773    2.3400 H   0  0  0  0  0  0  0  0  0  0  0  0
    1.5226   -1.4903    2.3746 H   0  0  0  0  0  0  0  0  0  0  0  0
   -1.9351   -0.5440    0.9493 H   0  0  0  0  0  0  0  0  0  0  0  0
   -0.3662   -0.6188    3.5793 H   0  0  0  0  0  0  0  0  0  0  0  0
   -2.1929   -0.5364    3.3410 H   0  0  0  0  0  0  0  0  0  0  0  0
  1  2  3  0
  1  5  1  0
  2  3  1  0
  3  4  2  3
  3 17  1  0
  4  6  1  0
  4  7  1  0
  8  9  2  3
  8 14  1  0
  8 15  1  0
  9 10  1  0
  9 16  1  0
 10 11  1  0
 10 12  1  0
 11 18  1  0
 11 19  1  0
 11 20  1  0
 12 13  2  3
 12 21  1  0
 13 22  1  0
 13 23  1  0
M  RAD  1  10   2
M  END
>  <reaction>  (6) 
rxn_1190

>  <mol_properties>  (6) 
{"1": {"label": "*4", "atom_type": "Ct"}, "2": {"label": "*3", "atom_type": "Cd"}, "8": {"label": "*0", "atom_type": "Cd"}, "9": {"label": "*1", "atom_type": "Cs"}, "16": {"label": "*2", "atom_type": "H0"}}

>  <type>  (6) 
unop_2

>  <geom_source>  (6) 
Heuristics

$$$$

     RDKit          3D

 23 21  0  0  0  0  0  0  0  0999 V2000
   -0.9391    3.3485   -0.1940 C   0  0  0  0  0  0  0  0  0  0  0  0
   -0.3891    2.3698   -0.6161 C   0  0  0  0  0  0  0  0  0  0  0  0
    0.2435    1.1885   -1.1024 C   0  0  0  0  0  0  0  0  0  0  0  0
    1.3108    1.1907   -1.8939 C   0  0  0  0  0  0  0  0  0  0  0  0
   -1.4268    4.2163    0.1803 H   0  0  0  0  0  0  0  0  0  0  0  0
    1.7704    2.1144   -2.2214 H   0  0  0  0  0  0  0  0  0  0  0  0
    1.7496    0.2616   -2.2328 H   0  0  0  0  0  0  0  0  0  0  0  0
    0.1707   -2.1204   -1.7054 C   0  0  0  0  0  0  0  0  0  0  0  0
    0.1707   -2.1204   -0.3822 C   0  0  0  0  0  0  0  0  0  0  0  0
    0.1707   -0.8896    0.4872 C   0  0  0  0  0  3  0  0  0  0  0  0
    1.4091   -0.8598    1.3788 C   0  0  0  0  0  0  0  0  0  0  0  0
   -1.1328   -0.8210    1.2437 C   0  0  0  0  0  0  0  0  0  0  0  0
   -1.2874   -0.8208    2.5586 C   0  0  0  0  0  0  0  0  0  0  0  0
    0.1700   -3.0430   -2.2722 H   0  0  0  0  0  0  0  0  0  0  0  0
    0.1725   -1.1946   -2.2712 H   0  0  0  0  0  0  0  0  0  0  0  0
    0.1660   -3.0662    0.1554 H   0  0  0  0  0  0  0  0  0  0  0  0
    0.2073    0.1547   -0.3116 H   0  0  0  0  0  0  0  0  0  0  0  0
    2.3118   -0.8682    0.7675 H   0  0  0  0  0  0  0  0  0  0  0  0
    1.4238    0.0359    2.0019 H   0  0  0  0  0  0  0  0  0  0  0  0
    1.4417   -1.7316    2.0364 H   0  0  0  0  0  0  0  0  0  0  0  0
   -2.0160   -0.7853    0.6112 H   0  0  0  0  0  0  0  0  0  0  0  0
   -0.4471   -0.8601    3.2412 H   0  0  0  0  0  0  0  0  0  0  0  0
   -2.2738   -0.7777    3.0029 H   0  0  0  0  0  0  0  0  0  0  0  0
  1  2  3  0
  1  5  1  0
  2  3  1  0
  3  4  2  3
  3 17  1  0
  4  6  1  0
  4  7  1  0
  8  9  2  3
  8 14  1  0
  8 15  1  0
  9 10  1  0
  9 16  1  0
 10 11  1  0
 10 12  1  0
 11 18  1  0
 11 19  1  0
 11 20  1  0
 12 13  2  3
 12 21  1  0
 13 22  1  0
 13 23  1  0
M  RAD  1  10   2
M  END
>  <reaction>  (7) 
rxn_1190

>  <mol_properties>  (7) 
{"1": {"label": "*4", "atom_type": "Ct"}, "2": {"label": "*3", "atom_type": "Cd"}, "8": {"label": "*0", "atom_type": "Cd"}, "9": {"label": "*1", "atom_type": "Cs"}, "16": {"label": "*2", "atom_type": "H0"}}

>  <type>  (7) 
unop_3

>  <geom_source>  (7) 
Heuristics

$$$$

     RDKit          3D

 23 21  0  0  0  0  0  0  0  0999 V2000
    2.0306    1.5094   -2.4615 C   0  0  0  0  0  0  0  0  0  0  0  0
    1.0772    1.4619   -1.7353 C   0  0  0  0  0  0  0  0  0  0  0  0
   -0.0548    1.3736   -0.8734 C   0  0  0  0  0  0  0  0  0  0  0  0
   -0.6904    2.4279   -0.3732 C   0  0  0  0  0  0  0  0  0  0  0  0
    2.8759    1.5516   -3.1054 H   0  0  0  0  0  0  0  0  0  0  0  0
   -0.3747    3.4384   -0.5989 H   0  0  0  0  0  0  0  0  0  0  0  0
   -1.5457    2.3005    0.2771 H   0  0  0  0  0  0  0  0  0  0  0  0
   -0.1277   -1.9353   -1.4765 C   0  0  0  0  0  0  0  0  0  0  0  0
   -0.1277   -1.9353   -0.1533 C   0  0  0  0  0  0  0  0  0  0  0  0
   -0.1277   -0.7045    0.7161 C   0  0  0  0  0  3  0  0  0  0  0  0
    1.1107   -0.6747    1.6077 C   0  0  0  0  0  0  0  0  0  0  0  0
   -1.4312   -0.6359    1.4726 C   0  0  0  0  0  0  0  0  0  0  0  0
   -1.5858   -0.6357    2.7876 C   0  0  0  0  0  0  0  0  0  0  0  0
   -0.1284   -2.8579   -2.0432 H   0  0  0  0  0  0  0  0  0  0  0  0
   -0.1259   -1.0095   -2.0422 H   0  0  0  0  0  0  0  0  0  0  0  0
   -0.1324   -2.8811    0.3844 H   0  0  0  0  0  0  0  0  0  0  0  0
   -0.0911    0.3398   -0.0827 H   0  0  0  0  0  0  0  0  0  0  0  0
    2.0135   -0.6831    0.9965 H   0  0  0  0  0  0  0  0  0  0  0  0
    1.1254    0.2210    2.2308 H   0  0  0  0  0  0  0  0  0  0  0  0
    1.1433   -1.5465    2.2653 H   0  0  0  0  0  0  0  0  0  0  0  0
   -2.3143   -0.6002    0.8401 H   0  0  0  0  0  0  0  0  0  0  0  0
   -0.7454   -0.6750    3.4701 H   0  0  0  0  0  0  0  0  0  0  0  0
   -2.5722   -0.5926    3.2318 H   0  0  0  0  0  0  0  0  0  0  0  0
  1  2  3  0
  1  5  1  0
  2  3  1  0
  3  4  2  3
  3 17  1  0
  4  6  1  0
  4  7  1  0
  8  9  2  3
  8 14  1  0
  8 15  1  0
  9 10  1  0
  9 16  1  0
 10 11  1  0
 10 12  1  0
 11 18  1  0
 11 19  1  0
 11 20  1  0
 12 13  2  3
 12 21  1  0
 13 22  1  0
 13 23  1  0
M  RAD  1  10   2
M  END
>  <reaction>  (8) 
rxn_1190

>  <mol_properties>  (8) 
{"1": {"label": "*4", "atom_type": "Ct"}, "2": {"label": "*3", "atom_type": "Cd"}, "8": {"label": "*0", "atom_type": "Cd"}, "9": {"label": "*1", "atom_type": "Cs"}, "16": {"label": "*2", "atom_type": "H0"}}

>  <type>  (8) 
unop_4

>  <geom_source>  (8) 
Heuristics

$$$$

     RDKit          3D

 23 21  0  0  0  0  0  0  0  0999 V2000
    0.1923    3.5169    0.1117 C   0  0  0  0  0  0  0  0  0  0  0  0
    0.1878    2.4565   -0.4487 C   0  0  0  0  0  0  0  0  0  0  0  0
    0.1816    1.1817   -1.0866 C   0  0  0  0  0  0  0  0  0  0  0  0
    0.2101    1.0112   -2.4041 C   0  0  0  0  0  0  0  0  0  0  0  0
    0.1963    4.4571    0.6087 H   0  0  0  0  0  0  0  0  0  0  0  0
    0.2404    1.8537   -3.0830 H   0  0  0  0  0  0  0  0  0  0  0  0
    0.2036    0.0180   -2.8332 H   0  0  0  0  0  0  0  0  0  0  0  0
    0.1088   -2.1272   -1.6896 C   0  0  0  0  0  0  0  0  0  0  0  0
    0.1088   -2.1272   -0.3664 C   0  0  0  0  0  0  0  0  0  0  0  0
    0.1088   -0.8964    0.5030 C   0  0  0  0  0  3  0  0  0  0  0  0
    1.3471   -0.8666    1.3946 C   0  0  0  0  0  0  0  0  0  0  0  0
   -1.1948   -0.8278    1.2595 C   0  0  0  0  0  0  0  0  0  0  0  0
   -1.3494   -0.8276    2.5744 C   0  0  0  0  0  0  0  0  0  0  0  0
    0.1080   -3.0498   -2.2564 H   0  0  0  0  0  0  0  0  0  0  0  0
    0.1105   -1.2014   -2.2553 H   0  0  0  0  0  0  0  0  0  0  0  0
    0.1040   -3.0730    0.1712 H   0  0  0  0  0  0  0  0  0  0  0  0
    0.1454    0.1479   -0.2958 H   0  0  0  0  0  0  0  0  0  0  0  0
    2.2499   -0.8750    0.7833 H   0  0  0  0  0  0  0  0  0  0  0  0
    1.3618    0.0291    2.0177 H   0  0  0  0  0  0  0  0  0  0  0  0
    1.3797   -1.7384    2.0522 H   0  0  0  0  0  0  0  0  0  0  0  0
   -2.0779   -0.7921    0.6270 H   0  0  0  0  0  0  0  0  0  0  0  0
   -0.5090   -0.8669    3.2570 H   0  0  0  0  0  0  0  0  0  0  0  0
   -2.3358   -0.7845    3.0187 H   0  0  0  0  0  0  0  0  0  0  0  0
  1  2  3  0
  1  5  1  0
  2  3  1  0
  3  4  2  3
  3 17  1  0
  4  6  1  0
  4  7  1  0
  8  9  2  3
  8 14  1  0
  8 15  1  0
  9 10  1  0
  9 16  1  0
 10 11  1  0
 10 12  1  0
 11 18  1  0
 11 19  1  0
 11 20  1  0
 12 13  2  3
 12 21  1  0
 13 22  1  0
 13 23  1  0
M  RAD  1  10   2
M  END
>  <reaction>  (9) 
rxn_1190

>  <mol_properties>  (9) 
{"1": {"label": "*4", "atom_type": "Ct"}, "2": {"label": "*3", "atom_type": "Cd"}, "8": {"label": "*0", "atom_type": "Cd"}, "9": {"label": "*1", "atom_type": "Cs"}, "16": {"label": "*2", "atom_type": "H0"}}

>  <type>  (9) 
unop_5

>  <geom_source>  (9) 
Heuristics

$$$$

     RDKit          3D

 23 21  0  0  0  0  0  0  0  0999 V2000
    2.3409    2.1449   -1.6357 C   0  0  0  0  0  0  0  0  0  0  0  0
    1.2405    1.7708   -1.3396 C   0  0  0  0  0  0  0  0  0  0  0  0
   -0.0576    1.2962   -0.9906 C   0  0  0  0  0  0  0  0  0  0  0  0
   -1.0857    2.0886   -0.7064 C   0  0  0  0  0  0  0  0  0  0  0  0
    3.3167    2.4766   -1.8983 H   0  0  0  0  0  0  0  0  0  0  0  0
   -0.9910    3.1668   -0.7250 H   0  0  0  0  0  0  0  0  0  0  0  0
   -2.0499    1.6718   -0.4475 H   0  0  0  0  0  0  0  0  0  0  0  0
   -0.1304   -2.0127   -1.5936 C   0  0  0  0  0  0  0  0  0  0  0  0
   -0.1304   -2.0127   -0.2704 C   0  0  0  0  0  0  0  0  0  0  0  0
   -0.1304   -0.7819    0.5990 C   0  0  0  0  0  3  0  0  0  0  0  0
    1.1080   -0.7522    1.4906 C   0  0  0  0  0  0  0  0  0  0  0  0
   -1.4339   -0.7134    1.3555 C   0  0  0  0  0  0  0  0  0  0  0  0
   -1.5885   -0.7131    2.6705 C   0  0  0  0  0  0  0  0  0  0  0  0
   -0.1311   -2.9353   -2.1603 H   0  0  0  0  0  0  0  0  0  0  0  0
   -0.1286   -1.0869   -2.1593 H   0  0  0  0  0  0  0  0  0  0  0  0
   -0.1351   -2.9585    0.2672 H   0  0  0  0  0  0  0  0  0  0  0  0
   -0.0938    0.2624   -0.1998 H   0  0  0  0  0  0  0  0  0  0  0  0
    2.0108   -0.7605    0.8794 H   0  0  0  0  0  0  0  0  0  0  0  0
    1.1227    0.1436    2.1137 H   0  0  0  0  0  0  0  0  0  0  0  0
    1.1406   -1.6239    2.1482 H   0  0  0  0  0  0  0  0  0  0  0  0
   -2.3171   -0.6776    0.7230 H   0  0  0  0  0  0  0  0  0  0  0  0
   -0.7482   -0.7525    3.3530 H   0  0  0  0  0  0  0  0  0  0  0  0
   -2.5749   -0.6700    3.1147 H   0  0  0  0  0  0  0  0  0  0  0  0
  1  2  3  0
  1  5  1  0
  2  3  1  0
  3  4  2  3
  3 17  1  0
  4  6  1  0
  4  7  1  0
  8  9  2  3
  8 14  1  0
  8 15  1  0
  9 10  1  0
  9 16  1  0
 10 11  1  0
 10 12  1  0
 11 18  1  0
 11 19  1  0
 11 20  1  0
 12 13  2  3
 12 21  1  0
 13 22  1  0
 13 23  1  0
M  RAD  1  10   2
M  END
>  <reaction>  (10) 
rxn_1190

>  <mol_properties>  (10) 
{"1": {"label": "*4", "atom_type": "Ct"}, "2": {"label": "*3", "atom_type": "Cd"}, "8": {"label": "*0", "atom_type": "Cd"}, "9": {"label": "*1", "atom_type": "Cs"}, "16": {"label": "*2", "atom_type": "H0"}}

>  <type>  (10) 
unop_6

>  <geom_source>  (10) 
Heuristics

$$$$

     RDKit          3D

 23 21  0  0  0  0  0  0  0  0999 V2000
    2.0949    2.8036   -0.7904 C   0  0  0  0  0  0  0  0  0  0  0  0
    1.1359    2.0956   -0.9235 C   0  0  0  0  0  0  0  0  0  0  0  0
    0.0150    1.2288   -1.0791 C   0  0  0  0  0  0  0  0  0  0  0  0
   -1.2324    1.6528   -1.2526 C   0  0  0  0  0  0  0  0  0  0  0  0
    2.9452    3.4313   -0.6724 H   0  0  0  0  0  0  0  0  0  0  0  0
   -1.4717    2.7079   -1.2862 H   0  0  0  0  0  0  0  0  0  0  0  0
   -2.0453    0.9478   -1.3654 H   0  0  0  0  0  0  0  0  0  0  0  0
   -0.0579   -2.0801   -1.6821 C   0  0  0  0  0  0  0  0  0  0  0  0
   -0.0579   -2.0801   -0.3589 C   0  0  0  0  0  0  0  0  0  0  0  0
   -0.0579   -0.8494    0.5105 C   0  0  0  0  0  3  0  0  0  0  0  0
    1.1805   -0.8196    1.4021 C   0  0  0  0  0  0  0  0  0  0  0  0
   -1.3614   -0.7808    1.2670 C   0  0  0  0  0  0  0  0  0  0  0  0
   -1.5160   -0.7805    2.5819 C   0  0  0  0  0  0  0  0  0  0  0  0
   -0.0586   -3.0028   -2.2488 H   0  0  0  0  0  0  0  0  0  0  0  0
   -0.0561   -1.1543   -2.2478 H   0  0  0  0  0  0  0  0  0  0  0  0
   -0.0626   -3.0260    0.1787 H   0  0  0  0  0  0  0  0  0  0  0  0
   -0.0213    0.1950   -0.2883 H   0  0  0  0  0  0  0  0  0  0  0  0
    2.0833   -0.8279    0.7908 H   0  0  0  0  0  0  0  0  0  0  0  0
    1.1952    0.0762    2.0252 H   0  0  0  0  0  0  0  0  0  0  0  0
    1.2131   -1.6913    2.0597 H   0  0  0  0  0  0  0  0  0  0  0  0
   -2.2445   -0.7450    0.6345 H   0  0  0  0  0  0  0  0  0  0  0  0
   -0.6756   -0.8199    3.2645 H   0  0  0  0  0  0  0  0  0  0  0  0
   -2.5024   -0.7374    3.0262 H   0  0  0  0  0  0  0  0  0  0  0  0
  1  2  3  0
  1  5  1  0
  2  3  1  0
  3  4  2  3
  3 17  1  0
  4  6  1  0
  4  7  1  0
  8  9  2  3
  8 14  1  0
  8 15  1  0
  9 10  1  0
  9 16  1  0
 10 11  1  0
 10 12  1  0
 11 18  1  0
 11 19  1  0
 11 20  1  0
 12 13  2  3
 12 21  1  0
 13 22  1  0
 13 23  1  0
M  RAD  1  10   2
M  END
>  <reaction>  (11) 
rxn_1190

>  <mol_properties>  (11) 
{"1": {"label": "*4", "atom_type": "Ct"}, "2": {"label": "*3", "atom_type": "Cd"}, "8": {"label": "*0", "atom_type": "Cd"}, "9": {"label": "*1", "atom_type": "Cs"}, "16": {"label": "*2", "atom_type": "H0"}}

>  <type>  (11) 
unop_7

>  <geom_source>  (11) 
Heuristics

$$$$

     RDKit          3D

 23 21  0  0  0  0  0  0  0  0999 V2000
   -1.9156    2.2165   -1.7371 C   0  0  0  0  0  0  0  0  0  0  0  0
   -0.8437    1.8059   -1.3893 C   0  0  0  0  0  0  0  0  0  0  0  0
    0.4196    1.2881   -0.9792 C   0  0  0  0  0  0  0  0  0  0  0  0
    1.4591    2.0458   -0.6458 C   0  0  0  0  0  0  0  0  0  0  0  0
   -2.8660    2.5806   -2.0455 H   0  0  0  0  0  0  0  0  0  0  0  0
    1.4017    3.1265   -0.6680 H   0  0  0  0  0  0  0  0  0  0  0  0
    2.3954    1.5970   -0.3416 H   0  0  0  0  0  0  0  0  0  0  0  0
    0.3468   -2.0208   -1.5823 C   0  0  0  0  0  0  0  0  0  0  0  0
    0.3468   -2.0208   -0.2590 C   0  0  0  0  0  0  0  0  0  0  0  0
    0.3468   -0.7900    0.6104 C   0  0  0  0  0  3  0  0  0  0  0  0
    1.5851   -0.7602    1.5020 C   0  0  0  0  0  0  0  0  0  0  0  0
   -0.9567   -0.7214    1.3669 C   0  0  0  0  0  0  0  0  0  0  0  0
   -1.1114   -0.7212    2.6818 C   0  0  0  0  0  0  0  0  0  0  0  0
    0.3460   -2.9434   -2.1490 H   0  0  0  0  0  0  0  0  0  0  0  0
    0.3485   -1.0950   -2.1480 H   0  0  0  0  0  0  0  0  0  0  0  0
    0.3420   -2.9666    0.2786 H   0  0  0  0  0  0  0  0  0  0  0  0
    0.3834    0.2544   -0.1884 H   0  0  0  0  0  0  0  0  0  0  0  0
    2.4879   -0.7686    0.8907 H   0  0  0  0  0  0  0  0  0  0  0  0
    1.5998    0.1356    2.1251 H   0  0  0  0  0  0  0  0  0  0  0  0
    1.6177   -1.6320    2.1596 H   0  0  0  0  0  0  0  0  0  0  0  0
   -1.8399   -0.6857    0.7344 H   0  0  0  0  0  0  0  0  0  0  0  0
   -0.2710   -0.7605    3.3644 H   0  0  0  0  0  0  0  0  0  0  0  0
   -2.0978   -0.6781    3.1261 H   0  0  0  0  0  0  0  0  0  0  0  0
  1  2  3  0
  1  5  1  0
  2  3  1  0
  3  4  2  3
  3 17  1  0
  4  6  1  0
  4  7  1  0
  8  9  2  3
  8 14  1  0
  8 15  1  0
  9 10  1  0
  9 16  1  0
 10 11  1  0
 10 12  1  0
 11 18  1  0
 11 19  1  0
 11 20  1  0
 12 13  2  3
 12 21  1  0
 13 22  1  0
 13 23  1  0
M  RAD  1  10   2
M  END
>  <reaction>  (12) 
rxn_1190

>  <mol_properties>  (12) 
{"1": {"label": "*4", "atom_type": "Ct"}, "2": {"label": "*3", "atom_type": "Cd"}, "8": {"label": "*0", "atom_type": "Cd"}, "9": {"label": "*1", "atom_type": "Cs"}, "16": {"label": "*2", "atom_type": "H0"}}

>  <type>  (12) 
unop_8

>  <geom_source>  (12) 
Heuristics

$$$$

     RDKit          3D

 23 21  0  0  0  0  0  0  0  0999 V2000
    1.2587    1.0605   -3.0613 C   0  0  0  0  0  0  0  0  0  0  0  0
    0.6994    1.2459   -2.0166 C   0  0  0  0  0  0  0  0  0  0  0  0
    0.0320    1.4348   -0.7712 C   0  0  0  0  0  0  0  0  0  0  0  0
   -0.2309    2.6256   -0.2435 C   0  0  0  0  0  0  0  0  0  0  0  0
    1.7546    0.8962   -3.9876 H   0  0  0  0  0  0  0  0  0  0  0  0
    0.0550    3.5418   -0.7440 H   0  0  0  0  0  0  0  0  0  0  0  0
   -0.7413    2.7086    0.7069 H   0  0  0  0  0  0  0  0  0  0  0  0
   -0.0408   -1.8741   -1.3743 C   0  0  0  0  0  0  0  0  0  0  0  0
   -0.0408   -1.8741   -0.0510 C   0  0  0  0  0  0  0  0  0  0  0  0
   -0.0408   -0.6434    0.8184 C   0  0  0  0  0  3  0  0  0  0  0  0
    1.1975   -0.6136    1.7100 C   0  0  0  0  0  0  0  0  0  0  0  0
   -1.3444   -0.5748    1.5749 C   0  0  0  0  0  0  0  0  0  0  0  0
   -1.4990   -0.5746    2.8898 C   0  0  0  0  0  0  0  0  0  0  0  0
   -0.0416   -2.7968   -1.9410 H   0  0  0  0  0  0  0  0  0  0  0  0
   -0.0391   -0.9484   -1.9400 H   0  0  0  0  0  0  0  0  0  0  0  0
   -0.0456   -2.8200    0.4866 H   0  0  0  0  0  0  0  0  0  0  0  0
   -0.0042    0.4010    0.0196 H   0  0  0  0  0  0  0  0  0  0  0  0
    2.1003   -0.6219    1.0987 H   0  0  0  0  0  0  0  0  0  0  0  0
    1.2122    0.2822    2.3331 H   0  0  0  0  0  0  0  0  0  0  0  0
    1.2301   -1.4853    2.3676 H   0  0  0  0  0  0  0  0  0  0  0  0
   -2.2275   -0.5391    0.9424 H   0  0  0  0  0  0  0  0  0  0  0  0
   -0.6586   -0.6139    3.5724 H   0  0  0  0  0  0  0  0  0  0  0  0
   -2.4854   -0.5314    3.3340 H   0  0  0  0  0  0  0  0  0  0  0  0
  1  2  3  0
  1  5  1  0
  2  3  1  0
  3  4  2  3
  3 17  1  0
  4  6  1  0
  4  7  1  0
  8  9  2  3
  8 14  1  0
  8 15  1  0
  9 10  1  0
  9 16  1  0
 10 11  1  0
 10 12  1  0
 11 18  1  0
 11 19  1  0
 11 20  1  0
 12 13  2  3
 12 21  1  0
 13 22  1  0
 13 23  1  0
M  RAD  1  10   2
M  END
>  <reaction>  (13) 
rxn_1190

>  <mol_properties>  (13) 
{"1": {"label": "*4", "atom_type": "Ct"}, "2": {"label": "*3", "atom_type": "Cd"}, "8": {"label": "*0", "atom_type": "Cd"}, "9": {"label": "*1", "atom_type": "Cs"}, "16": {"label": "*2", "atom_type": "H0"}}

>  <type>  (13) 
unop_9

>  <geom_source>  (13) 
Heuristics

$$$$

     RDKit          3D

 23 21  0  0  0  0  0  0  0  0999 V2000
   -1.5878    1.5703   -2.5477 C   0  0  0  0  0  0  0  0  0  0  0  0
   -0.6722    1.4913   -1.7770 C   0  0  0  0  0  0  0  0  0  0  0  0
    0.4139    1.3657   -0.8623 C   0  0  0  0  0  0  0  0  0  0  0  0
    1.0600    2.3985   -0.3315 C   0  0  0  0  0  0  0  0  0  0  0  0
   -2.3996    1.6403   -3.2311 H   0  0  0  0  0  0  0  0  0  0  0  0
    0.7896    3.4188   -0.5712 H   0  0  0  0  0  0  0  0  0  0  0  0
    1.8786    2.2429    0.3586 H   0  0  0  0  0  0  0  0  0  0  0  0
    0.3411   -1.9432   -1.4653 C   0  0  0  0  0  0  0  0  0  0  0  0
    0.3411   -1.9432   -0.1421 C   0  0  0  0  0  0  0  0  0  0  0  0
    0.3411   -0.7124    0.7273 C   0  0  0  0  0  3  0  0  0  0  0  0
    1.5795   -0.6826    1.6189 C   0  0  0  0  0  0  0  0  0  0  0  0
   -0.9624   -0.6438    1.4838 C   0  0  0  0  0  0  0  0  0  0  0  0
   -1.1170   -0.6436    2.7987 C   0  0  0  0  0  0  0  0  0  0  0  0
    0.3404   -2.8658   -2.0320 H   0  0  0  0  0  0  0  0  0  0  0  0
    0.3429   -1.0174   -2.0310 H   0  0  0  0  0  0  0  0  0  0  0  0
    0.3364   -2.8890    0.3955 H   0  0  0  0  0  0  0  0  0  0  0  0
    0.3777    0.3320   -0.0715 H   0  0  0  0  0  0  0  0  0  0  0  0
    2.4822   -0.6910    1.0077 H   0  0  0  0  0  0  0  0  0  0  0  0
    1.5942    0.2132    2.2420 H   0  0  0  0  0  0  0  0  0  0  0  0
    1.6121   -1.5544    2.2765 H   0  0  0  0  0  0  0  0  0  0  0  0
   -1.8456   -0.6081    0.8513 H   0  0  0  0  0  0  0  0  0  0  0  0
   -0.2767   -0.6829    3.4813 H   0  0  0  0  0  0  0  0  0  0  0  0
   -2.1034   -0.6005    3.2430 H   0  0  0  0  0  0  0  0  0  0  0  0
  1  2  3  0
  1  5  1  0
  2  3  1  0
  3  4  2  3
  3 17  1  0
  4  6  1  0
  4  7  1  0
  8  9  2  3
  8 14  1  0
  8 15  1  0
  9 10  1  0
  9 16  1  0
 10 11  1  0
 10 12  1  0
 11 18  1  0
 11 19  1  0
 11 20  1  0
 12 13  2  3
 12 21  1  0
 13 22  1  0
 13 23  1  0
M  RAD  1  10   2
M  END
>  <reaction>  (14) 
rxn_1190

>  <mol_properties>  (14) 
{"1": {"label": "*4", "atom_type": "Ct"}, "2": {"label": "*3", "atom_type": "Cd"}, "8": {"label": "*0", "atom_type": "Cd"}, "9": {"label": "*1", "atom_type": "Cs"}, "16": {"label": "*2", "atom_type": "H0"}}

>  <type>  (14) 
unop_10

>  <geom_source>  (14) 
Heuristics

$$$$

     RDKit          3D

 23 21  0  0  0  0  0  0  0  0999 V2000
    1.3307    3.3103   -0.1399 C   0  0  0  0  0  0  0  0  0  0  0  0
    0.7688    2.3503   -0.5885 C   0  0  0  0  0  0  0  0  0  0  0  0
    0.1207    1.1906   -1.1053 C   0  0  0  0  0  0  0  0  0  0  0  0
   -0.9070    1.2280   -1.9468 C   0  0  0  0  0  0  0  0  0  0  0  0
    1.8289    4.1615    0.2579 H   0  0  0  0  0  0  0  0  0  0  0  0
   -1.3192    2.1663   -2.2950 H   0  0  0  0  0  0  0  0  0  0  0  0
   -1.3601    0.3139   -2.3069 H   0  0  0  0  0  0  0  0  0  0  0  0
    0.0479   -2.1183   -1.7084 C   0  0  0  0  0  0  0  0  0  0  0  0
    0.0479   -2.1183   -0.3851 C   0  0  0  0  0  0  0  0  0  0  0  0
    0.0479   -0.8875    0.4843 C   0  0  0  0  0  3  0  0  0  0  0  0
    1.2863   -0.8577    1.3759 C   0  0  0  0  0  0  0  0  0  0  0  0
   -1.2556   -0.8190    1.2408 C   0  0  0  0  0  0  0  0  0  0  0  0
   -1.4102   -0.8187    2.5557 C   0  0  0  0  0  0  0  0  0  0  0  0
    0.0472   -3.0409   -2.2751 H   0  0  0  0  0  0  0  0  0  0  0  0
    0.0497   -1.1925   -2.2741 H   0  0  0  0  0  0  0  0  0  0  0  0
    0.0432   -3.0641    0.1525 H   0  0  0  0  0  0  0  0  0  0  0  0
    0.0845    0.1568   -0.3146 H   0  0  0  0  0  0  0  0  0  0  0  0
    2.1891   -0.8661    0.7646 H   0  0  0  0  0  0  0  0  0  0  0  0
    1.3010    0.0380    1.9990 H   0  0  0  0  0  0  0  0  0  0  0  0
    1.3189   -1.7295    2.0335 H   0  0  0  0  0  0  0  0  0  0  0  0
   -2.1388   -0.7832    0.6082 H   0  0  0  0  0  0  0  0  0  0  0  0
   -0.5699   -0.8580    3.2383 H   0  0  0  0  0  0  0  0  0  0  0  0
   -2.3966   -0.7756    2.9999 H   0  0  0  0  0  0  0  0  0  0  0  0
  1  2  3  0
  1  5  1  0
  2  3  1  0
  3  4  2  3
  3 17  1  0
  4  6  1  0
  4  7  1  0
  8  9  2  3
  8 14  1  0
  8 15  1  0
  9 10  1  0
  9 16  1  0
 10 11  1  0
 10 12  1  0
 11 18  1  0
 11 19  1  0
 11 20  1  0
 12 13  2  3
 12 21  1  0
 13 22  1  0
 13 23  1  0
M  RAD  1  10   2
M  END
>  <reaction>  (15) 
rxn_1190

>  <mol_properties>  (15) 
{"1": {"label": "*4", "atom_type": "Ct"}, "2": {"label": "*3", "atom_type": "Cd"}, "8": {"label": "*0", "atom_type": "Cd"}, "9": {"label": "*1", "atom_type": "Cs"}, "16": {"label": "*2", "atom_type": "H0"}}

>  <type>  (15) 
unop_11

>  <geom_source>  (15) 
Heuristics

$$$$

     RDKit          3D

 23 21  0  0  0  0  0  0  0  0999 V2000
    0.2296    0.9103   -3.2944 C   0  0  0  0  0  0  0  0  0  0  0  0
    0.2062    1.1740   -2.1246 C   0  0  0  0  0  0  0  0  0  0  0  0
    0.1777    1.4564   -0.7276 C   0  0  0  0  0  0  0  0  0  0  0  0
    0.1862    2.6838   -0.2185 C   0  0  0  0  0  0  0  0  0  0  0  0
    0.2504    0.6764   -4.3316 H   0  0  0  0  0  0  0  0  0  0  0  0
    0.2161    3.5596   -0.8539 H   0  0  0  0  0  0  0  0  0  0  0  0
    0.1633    2.8384    0.8521 H   0  0  0  0  0  0  0  0  0  0  0  0
    0.1048   -1.8525   -1.3306 C   0  0  0  0  0  0  0  0  0  0  0  0
    0.1048   -1.8525   -0.0074 C   0  0  0  0  0  0  0  0  0  0  0  0
    0.1048   -0.6217    0.8620 C   0  0  0  0  0  3  0  0  0  0  0  0
    1.3432   -0.5919    1.7536 C   0  0  0  0  0  0  0  0  0  0  0  0
   -1.1987   -0.5531    1.6185 C   0  0  0  0  0  0  0  0  0  0  0  0
   -1.3533   -0.5529    2.9334 C   0  0  0  0  0  0  0  0  0  0  0  0
    0.1041   -2.7751   -1.8974 H   0  0  0  0  0  0  0  0  0  0  0  0
    0.1066   -0.9267   -1.8964 H   0  0  0  0  0  0  0  0  0  0  0  0
    0.1001   -2.7983    0.5302 H   0  0  0  0  0  0  0  0  0  0  0  0
    0.1414    0.4227    0.0632 H   0  0  0  0  0  0  0  0  0  0  0  0
    2.2460   -0.6003    1.1423 H   0  0  0  0  0  0  0  0  0  0  0  0
    1.3579    0.3039    2.3767 H   0  0  0  0  0  0  0  0  0  0  0  0
    1.3758   -1.4637    2.4112 H   0  0  0  0  0  0  0  0  0  0  0  0
   -2.0818   -0.5174    0.9860 H   0  0  0  0  0  0  0  0  0  0  0  0
   -0.5129   -0.5922    3.6160 H   0  0  0  0  0  0  0  0  0  0  0  0
   -2.3397   -0.5098    3.3777 H   0  0  0  0  0  0  0  0  0  0  0  0
  1  2  3  0
  1  5  1  0
  2  3  1  0
  3  4  2  3
  3 17  1  0
  4  6  1  0
  4  7  1  0
  8  9  2  3
  8 14  1  0
  8 15  1  0
  9 10  1  0
  9 16  1  0
 10 11  1  0
 10 12  1  0
 11 18  1  0
 11 19  1  0
 11 20  1  0
 12 13  2  3
 12 21  1  0
 13 22  1  0
 13 23  1  0
M  RAD  1  10   2
M  END
>  <reaction>  (16) 
rxn_1190

>  <mol_properties>  (16) 
{"1": {"label": "*4", "atom_type": "Ct"}, "2": {"label": "*3", "atom_type": "Cd"}, "8": {"label": "*0", "atom_type": "Cd"}, "9": {"label": "*1", "atom_type": "Cs"}, "16": {"label": "*2", "atom_type": "H0"}}

>  <type>  (16) 
unop_12

>  <geom_source>  (16) 
Heuristics

$$$$

     RDKit          3D

 23 21  0  0  0  0  0  0  0  0999 V2000
   -1.9087    1.6770   -0.0758 C   0  0  0  0  0  0  0  0  0  0  0  0
   -0.8576    0.5749   -0.2016 C   0  0  0  0  0  3  0  0  0  0  0  0
   -0.5069   -0.0471    1.1249 C   0  0  0  0  0  0  0  0  0  0  0  0
   -1.2544   -0.4604   -1.2138 C   0  0  0  0  0  0  0  0  0  0  0  0
    1.6643    0.0487    0.0133 C   0  0  0  0  0  0  0  0  0  0  0  0
   -1.3964   -0.7170    1.8666 C   0  0  0  0  0  0  0  0  0  0  0  0
   -0.4666   -0.7248   -2.2564 C   0  0  0  0  0  0  0  0  0  0  0  0
    2.2815    1.2122   -0.1553 C   0  0  0  0  0  0  0  0  0  0  0  0
    2.3916   -1.1176    0.4361 C   0  0  0  0  0  0  0  0  0  0  0  0
    3.0003   -2.0960    0.7905 C   0  0  0  0  0  0  0  0  0  0  0  0
   -2.8833    1.2607    0.2576 H   0  0  0  0  0  0  0  0  0  0  0  0
   -2.0478    2.1748   -1.0587 H   0  0  0  0  0  0  0  0  0  0  0  0
   -1.5693    2.4401    0.6561 H   0  0  0  0  0  0  0  0  0  0  0  0
    0.5133    0.0485    1.4822 H   0  0  0  0  0  0  0  0  0  0  0  0
   -2.1845   -1.0082   -1.0913 H   0  0  0  0  0  0  0  0  0  0  0  0
    0.4315   -0.0389   -0.1978 H   0  0  0  0  0  0  0  0  0  0  0  0
    3.3458    1.3132    0.0208 H   0  0  0  0  0  0  0  0  0  0  0  0
    1.7177    2.0788   -0.4738 H   0  0  0  0  0  0  0  0  0  0  0  0
   -2.4231   -0.8402    1.5368 H   0  0  0  0  0  0  0  0  0  0  0  0
   -1.0945   -1.1512    2.8141 H   0  0  0  0  0  0  0  0  0  0  0  0
    0.4705   -0.1939   -2.3959 H   0  0  0  0  0  0  0  0  0  0  0  0
   -0.7582   -1.4790   -2.9801 H   0  0  0  0  0  0  0  0  0  0  0  0
    3.5348   -2.9548    1.1017 H   0  0  0  0  0  0  0  0  0  0  0  0
  1  2  1  0
  1 11  1  0
  1 12  1  0
  1 13  1  0
  2  3  1  0
  2  4  1  0
  3  6  2  3
  3 14  1  0
  4  7  2  3
  4 15  1  0
  5  8  2  3
  5  9  1  0
  5 16  1  0
  6 19  1  0
  6 20  1  0
  7 21  1  0
  7 22  1  0
  8 17  1  0
  8 18  1  0
  9 10  3  0
 10 23  1  0
M  RAD  1   2   2
M  END
>  <reaction>  (17) 
rxn_1190

>  <mol_properties>  (17) 
{"1": {"label": "*4", "atom_type": "Ct"}, "2": {"label": "*3", "atom_type": "Cd"}, "8": {"label": "*0", "atom_type": "Cd"}, "9": {"label": "*1", "atom_type": "Cs"}, "16": {"label": "*2", "atom_type": "H0"}}

>  <type>  (17) 
unop_13

>  <geom_source>  (17) 
AutoTST

$$$$
