
     RDKit          3D

  7  6  0  0  0  0  0  0  0  0999 V2000
    1.2985   -0.0065   -0.2721 C   0  0  0  0  0  0  0  0  0  0  0  0
    0.0000    0.0000   -0.2926 C   0  0  0  0  0  0  0  0  0  0  0  0
   -1.2985    0.0065   -0.3130 C   0  0  0  0  0  0  0  0  0  0  0  0
    1.8444   -0.7551    0.2895 H   0  0  0  0  0  0  0  0  0  0  0  0
    1.8693    0.7364   -0.8162 H   0  0  0  0  0  0  0  0  0  0  0  0
   -1.8658    0.5623    0.4239 H   0  0  0  0  0  0  0  0  0  0  0  0
   -1.8479   -0.5437   -1.0675 H   0  0  0  0  0  0  0  0  0  0  0  0
  1  2  2  0
  1  4  1  0
  1  5  1  0
  2  3  2  0
  3  6  1  0
  3  7  1  0
M  END
>  <reaction>  (1) 
rxn_1812

>  <mol_properties>  (1) 
{"0": {"label": "donator", "atom_type": "Cd"}, "3": {"label": "d_hydrogen", "atom_type": "H0"}}

>  <type>  (1) 
r1h

$$$$

     RDKit          3D

  6  5  0  0  0  0  0  0  0  0999 V2000
    1.7035    0.4954    0.0162 S   0  0  0  0  0  0  0  0  0  0  0  0
    0.1927   -0.1841   -0.3584 C   0  0  0  0  0  3  0  0  0  0  0  0
   -1.0558    0.0577   -0.0460 C   0  0  0  0  0  0  0  0  0  0  0  0
    2.3611   -0.6557    0.2254 H   0  0  0  0  0  0  0  0  0  0  0  0
   -1.8677   -0.4245   -0.5802 H   0  0  0  0  0  0  0  0  0  0  0  0
   -1.3294    0.7333    0.7635 H   0  0  0  0  0  0  0  0  0  0  0  0
  1  2  1  0
  1  4  1  0
  2  3  2  3
  3  5  1  0
  3  6  1  0
M  RAD  1   2   2
M  END
>  <reaction>  (2) 
rxn_1812

>  <mol_properties>  (2) 
{"1": {"label": "acceptor", "atom_type": "Cd"}}

>  <type>  (2) 
r2

$$$$

     RDKit          3D

  7  6  0  0  0  0  0  0  0  0999 V2000
    1.2020   -0.5069    1.0970 S   0  0  0  0  0  0  0  0  0  0  0  0
    0.2449    0.0208   -0.2711 C   0  0  0  0  0  0  0  0  0  0  0  0
    0.6491    0.2538   -1.5109 C   0  0  0  0  0  0  0  0  0  0  0  0
    2.3807   -0.5751    0.4630 H   0  0  0  0  0  0  0  0  0  0  0  0
   -0.7959    0.1526    0.0036 H   0  0  0  0  0  0  0  0  0  0  0  0
    1.6808    0.1320   -1.8181 H   0  0  0  0  0  0  0  0  0  0  0  0
   -0.0586    0.5786   -2.2618 H   0  0  0  0  0  0  0  0  0  0  0  0
  1  2  1  0
  1  4  1  0
  2  3  2  3
  2  5  1  0
  3  6  1  0
  3  7  1  0
M  END
>  <reaction>  (3) 
rxn_1812

>  <mol_properties>  (3) 
{"1": {"label": "acceptor", "atom_type": "Cd"}, "6": {"label": "a_hydrogen", "atom_type": "H0"}}

>  <type>  (3) 
r2h

$$$$

     RDKit          3D

 13 11  0  0  0  0  0  0  0  0999 V2000
   -1.2970   -1.1533    0.3973 S   0  0  0  0  0  0  0  0  0  0  0  0
    0.0564   -0.5653    1.2920 C   0  0  0  0  0  3  0  0  0  0  0  0
    0.3890   -0.7168    2.5564 C   0  0  0  0  0  0  0  0  0  0  0  0
   -1.3116   -0.1638   -0.5100 H   0  0  0  0  0  0  0  0  0  0  0  0
    1.3483   -0.3645    2.9172 H   0  0  0  0  0  0  0  0  0  0  0  0
   -0.2713   -1.1891    3.2777 H   0  0  0  0  0  0  0  0  0  0  0  0
    1.7088    0.7226   -0.3456 C   0  0  0  0  0  0  0  0  0  0  0  0
    1.2241    0.9087   -1.5128 C   0  0  0  0  0  0  0  0  0  0  0  0
    0.6447    1.0509   -2.6823 C   0  0  0  0  0  0  0  0  0  0  0  0
    0.9456    0.0979    0.4742 H   0  0  0  0  0  0  0  0  0  0  0  0
    2.6649    1.0093    0.0653 H   0  0  0  0  0  0  0  0  0  0  0  0
    0.0515    1.9287   -2.9075 H   0  0  0  0  0  0  0  0  0  0  0  0
    0.7703    0.3065   -3.4590 H   0  0  0  0  0  0  0  0  0  0  0  0
  1  2  1  0
  1  4  1  0
  2  3  2  3
  3  5  1  0
  3  6  1  0
  7  8  2  0
  7 10  1  0
  7 11  1  0
  8  9  2  0
  9 12  1  0
  9 13  1  0
M  RAD  1   2   2
M  END
>  <reaction>  (4) 
rxn_1812

>  <mol_properties>  (4) 
{"0": {"label": "*4", "atom_type": "S2s"}, "1": {"label": "*3", "atom_type": "Cd"}, "6": {"label": "*1", "atom_type": "Cd"}, "7": {"label": "*0", "atom_type": "Cdd"}, "9": {"label": "*2", "atom_type": "H0"}}

>  <type>  (4) 
ts

$$$$

     RDKit          3D

 13 11  0  0  0  0  0  0  0  0999 V2000
    0.3620   -1.4186    1.6986 S   0  0  0  0  0  0  0  0  0  0  0  0
   -0.6986   -0.4769    0.6717 C   0  0  0  0  0  3  0  0  0  0  0  0
   -1.9105   -0.0192    0.9484 C   0  0  0  0  0  0  0  0  0  0  0  0
   -0.4495   -1.4870    2.7629 H   0  0  0  0  0  0  0  0  0  0  0  0
   -2.4567    0.5544    0.2115 H   0  0  0  0  0  0  0  0  0  0  0  0
   -2.3946   -0.1957    1.9013 H   0  0  0  0  0  0  0  0  0  0  0  0
    0.6292    1.3138   -0.6692 C   0  0  0  0  0  0  0  0  0  0  0  0
    0.6292    1.3138   -1.9678 C   0  0  0  0  0  0  0  0  0  0  0  0
    0.6292    1.3138   -3.2665 C   0  0  0  0  0  0  0  0  0  0  0  0
   -0.0344    0.4189    0.0009 H   0  0  0  0  0  0  0  0  0  0  0  0
    1.1822    2.0596   -0.1107 H   0  0  0  0  0  0  0  0  0  0  0  0
   -0.1165    1.8668   -3.8249 H   0  0  0  0  0  0  0  0  0  0  0  0
    1.3750    0.7608   -3.8249 H   0  0  0  0  0  0  0  0  0  0  0  0
  1  2  1  0
  1  4  1  0
  2  3  2  3
  3  5  1  0
  3  6  1  0
  7  8  2  0
  7 10  1  0
  7 11  1  0
  8  9  2  0
  9 12  1  0
  9 13  1  0
M  RAD  1   2   2
M  END
>  <reaction>  (5) 
rxn_1812

>  <mol_properties>  (5) 
{"0": {"label": "*4", "atom_type": "S2s"}, "1": {"label": "*3", "atom_type": "Cd"}, "6": {"label": "*1", "atom_type": "Cd"}, "7": {"label": "*0", "atom_type": "Cdd"}, "9": {"label": "*2", "atom_type": "H0"}}

>  <type>  (5) 
unop_1

>  <geom_source>  (5) 
Heuristics

$$$$

     RDKit          3D

 13 11  0  0  0  0  0  0  0  0999 V2000
   -0.5718   -1.7517    0.2722 S   0  0  0  0  0  0  0  0  0  0  0  0
   -0.4686   -0.2430    1.1551 C   0  0  0  0  0  3  0  0  0  0  0  0
   -0.6648   -0.0374    2.4488 C   0  0  0  0  0  0  0  0  0  0  0  0
   -0.8936   -2.5344    1.3113 H   0  0  0  0  0  0  0  0  0  0  0  0
   -0.5666    0.9573    2.8626 H   0  0  0  0  0  0  0  0  0  0  0  0
   -0.9257   -0.8373    3.1312 H   0  0  0  0  0  0  0  0  0  0  0  0
    0.8593    1.5477   -0.1858 C   0  0  0  0  0  0  0  0  0  0  0  0
    0.8593    1.5477   -1.4844 C   0  0  0  0  0  0  0  0  0  0  0  0
    0.8593    1.5477   -2.7831 C   0  0  0  0  0  0  0  0  0  0  0  0
    0.1957    0.6527    0.4843 H   0  0  0  0  0  0  0  0  0  0  0  0
    1.4123    2.2934    0.3727 H   0  0  0  0  0  0  0  0  0  0  0  0
    0.1135    2.1007   -3.3415 H   0  0  0  0  0  0  0  0  0  0  0  0
    1.6050    0.9947   -3.3415 H   0  0  0  0  0  0  0  0  0  0  0  0
  1  2  1  0
  1  4  1  0
  2  3  2  3
  3  5  1  0
  3  6  1  0
  7  8  2  0
  7 10  1  0
  7 11  1  0
  8  9  2  0
  9 12  1  0
  9 13  1  0
M  RAD  1   2   2
M  END
>  <reaction>  (6) 
rxn_1812

>  <mol_properties>  (6) 
{"0": {"label": "*4", "atom_type": "S2s"}, "1": {"label": "*3", "atom_type": "Cd"}, "6": {"label": "*1", "atom_type": "Cd"}, "7": {"label": "*0", "atom_type": "Cdd"}, "9": {"label": "*2", "atom_type": "H0"}}

>  <type>  (6) 
unop_2

>  <geom_source>  (6) 
Heuristics

$$$$

     RDKit          3D

 13 11  0  0  0  0  0  0  0  0999 V2000
    0.1784   -0.9331    2.1320 S   0  0  0  0  0  0  0  0  0  0  0  0
   -0.5859   -0.5943    0.5933 C   0  0  0  0  0  3  0  0  0  0  0  0
   -1.8714   -0.6735    0.2836 C   0  0  0  0  0  0  0  0  0  0  0  0
   -0.9322   -1.2688    2.8026 H   0  0  0  0  0  0  0  0  0  0  0  0
   -2.2058   -0.4321   -0.7165 H   0  0  0  0  0  0  0  0  0  0  0  0
   -2.6243   -0.9760    1.0013 H   0  0  0  0  0  0  0  0  0  0  0  0
    0.7420    1.1964   -0.7475 C   0  0  0  0  0  0  0  0  0  0  0  0
    0.7420    1.1964   -2.0462 C   0  0  0  0  0  0  0  0  0  0  0  0
    0.7420    1.1964   -3.3448 C   0  0  0  0  0  0  0  0  0  0  0  0
    0.0783    0.3015   -0.0774 H   0  0  0  0  0  0  0  0  0  0  0  0
    1.2950    1.9422   -0.1891 H   0  0  0  0  0  0  0  0  0  0  0  0
   -0.0038    1.7494   -3.9033 H   0  0  0  0  0  0  0  0  0  0  0  0
    1.4877    0.6434   -3.9033 H   0  0  0  0  0  0  0  0  0  0  0  0
  1  2  1  0
  1  4  1  0
  2  3  2  3
  3  5  1  0
  3  6  1  0
  7  8  2  0
  7 10  1  0
  7 11  1  0
  8  9  2  0
  9 12  1  0
  9 13  1  0
M  RAD  1   2   2
M  END
>  <reaction>  (7) 
rxn_1812

>  <mol_properties>  (7) 
{"0": {"label": "*4", "atom_type": "S2s"}, "1": {"label": "*3", "atom_type": "Cd"}, "6": {"label": "*1", "atom_type": "Cd"}, "7": {"label": "*0", "atom_type": "Cdd"}, "9": {"label": "*2", "atom_type": "H0"}}

>  <type>  (7) 
unop_3

>  <geom_source>  (7) 
Heuristics

$$$$

     RDKit          3D

 13 11  0  0  0  0  0  0  0  0999 V2000
   -1.7583   -0.6239    0.6343 S   0  0  0  0  0  0  0  0  0  0  0  0
   -0.0483   -0.6899    1.0055 C   0  0  0  0  0  3  0  0  0  0  0  0
    0.5279   -1.0267    2.1497 C   0  0  0  0  0  0  0  0  0  0  0  0
   -2.2077   -1.0079    1.8371 H   0  0  0  0  0  0  0  0  0  0  0  0
    1.6061   -1.0232    2.2375 H   0  0  0  0  0  0  0  0  0  0  0  0
   -0.0424   -1.3132    3.0251 H   0  0  0  0  0  0  0  0  0  0  0  0
    1.2796    1.1008   -0.3353 C   0  0  0  0  0  0  0  0  0  0  0  0
    1.2796    1.1008   -1.6340 C   0  0  0  0  0  0  0  0  0  0  0  0
    1.2796    1.1008   -2.9327 C   0  0  0  0  0  0  0  0  0  0  0  0
    0.6159    0.2059    0.3348 H   0  0  0  0  0  0  0  0  0  0  0  0
    1.8326    1.8466    0.2231 H   0  0  0  0  0  0  0  0  0  0  0  0
    0.5338    1.6538   -3.4911 H   0  0  0  0  0  0  0  0  0  0  0  0
    2.0253    0.5478   -3.4911 H   0  0  0  0  0  0  0  0  0  0  0  0
  1  2  1  0
  1  4  1  0
  2  3  2  3
  3  5  1  0
  3  6  1  0
  7  8  2  0
  7 10  1  0
  7 11  1  0
  8  9  2  0
  9 12  1  0
  9 13  1  0
M  RAD  1   2   2
M  END
>  <reaction>  (8) 
rxn_1812

>  <mol_properties>  (8) 
{"0": {"label": "*4", "atom_type": "S2s"}, "1": {"label": "*3", "atom_type": "Cd"}, "6": {"label": "*1", "atom_type": "Cd"}, "7": {"label": "*0", "atom_type": "Cdd"}, "9": {"label": "*2", "atom_type": "H0"}}

>  <type>  (8) 
unop_4

>  <geom_source>  (8) 
Heuristics

$$$$

     RDKit          3D

 13 11  0  0  0  0  0  0  0  0999 V2000
   -0.3062   -0.4129    2.3078 S   0  0  0  0  0  0  0  0  0  0  0  0
   -0.4824   -0.6505    0.5819 C   0  0  0  0  0  3  0  0  0  0  0  0
   -1.1764   -1.5864   -0.0482 C   0  0  0  0  0  0  0  0  0  0  0  0
   -1.0696   -1.4424    2.6994 H   0  0  0  0  0  0  0  0  0  0  0  0
   -1.1964   -1.6134   -1.1295 H   0  0  0  0  0  0  0  0  0  0  0  0
   -1.7399   -2.3463    0.4797 H   0  0  0  0  0  0  0  0  0  0  0  0
    0.8455    1.1401   -0.7589 C   0  0  0  0  0  0  0  0  0  0  0  0
    0.8455    1.1401   -2.0576 C   0  0  0  0  0  0  0  0  0  0  0  0
    0.8455    1.1401   -3.3563 C   0  0  0  0  0  0  0  0  0  0  0  0
    0.1818    0.2452   -0.0888 H   0  0  0  0  0  0  0  0  0  0  0  0
    1.3985    1.8859   -0.2005 H   0  0  0  0  0  0  0  0  0  0  0  0
    0.0997    1.6932   -3.9147 H   0  0  0  0  0  0  0  0  0  0  0  0
    1.5912    0.5871   -3.9147 H   0  0  0  0  0  0  0  0  0  0  0  0
  1  2  1  0
  1  4  1  0
  2  3  2  3
  3  5  1  0
  3  6  1  0
  7  8  2  0
  7 10  1  0
  7 11  1  0
  8  9  2  0
  9 12  1  0
  9 13  1  0
M  RAD  1   2   2
M  END
>  <reaction>  (9) 
rxn_1812

>  <mol_properties>  (9) 
{"0": {"label": "*4", "atom_type": "S2s"}, "1": {"label": "*3", "atom_type": "Cd"}, "6": {"label": "*1", "atom_type": "Cd"}, "7": {"label": "*0", "atom_type": "Cdd"}, "9": {"label": "*2", "atom_type": "H0"}}

>  <type>  (9) 
unop_5

>  <geom_source>  (9) 
Heuristics

$$$$

     RDKit          3D

 13 11  0  0  0  0  0  0  0  0999 V2000
   -1.7486   -0.2616    1.1517 S   0  0  0  0  0  0  0  0  0  0  0  0
   -0.1134   -0.7955    0.8238 C   0  0  0  0  0  3  0  0  0  0  0  0
    0.7061   -1.4599    1.6248 C   0  0  0  0  0  0  0  0  0  0  0  0
   -1.8356   -0.7394    2.4008 H   0  0  0  0  0  0  0  0  0  0  0  0
    1.6986   -1.7270    1.2873 H   0  0  0  0  0  0  0  0  0  0  0  0
    0.4242   -1.7568    2.6278 H   0  0  0  0  0  0  0  0  0  0  0  0
    1.2144    0.9951   -0.5170 C   0  0  0  0  0  0  0  0  0  0  0  0
    1.2144    0.9951   -1.8157 C   0  0  0  0  0  0  0  0  0  0  0  0
    1.2144    0.9951   -3.1144 C   0  0  0  0  0  0  0  0  0  0  0  0
    0.5508    0.1002    0.1531 H   0  0  0  0  0  0  0  0  0  0  0  0
    1.7674    1.7409    0.0414 H   0  0  0  0  0  0  0  0  0  0  0  0
    0.4687    1.5481   -3.6728 H   0  0  0  0  0  0  0  0  0  0  0  0
    1.9602    0.4421   -3.6728 H   0  0  0  0  0  0  0  0  0  0  0  0
  1  2  1  0
  1  4  1  0
  2  3  2  3
  3  5  1  0
  3  6  1  0
  7  8  2  0
  7 10  1  0
  7 11  1  0
  8  9  2  0
  9 12  1  0
  9 13  1  0
M  RAD  1   2   2
M  END
>  <reaction>  (10) 
rxn_1812

>  <mol_properties>  (10) 
{"0": {"label": "*4", "atom_type": "S2s"}, "1": {"label": "*3", "atom_type": "Cd"}, "6": {"label": "*1", "atom_type": "Cd"}, "7": {"label": "*0", "atom_type": "Cdd"}, "9": {"label": "*2", "atom_type": "H0"}}

>  <type>  (10) 
unop_6

>  <geom_source>  (10) 
Heuristics

$$$$

     RDKit          3D

 13 11  0  0  0  0  0  0  0  0999 V2000
   -1.4626   -0.0656    1.6986 S   0  0  0  0  0  0  0  0  0  0  0  0
   -0.2534   -0.8070    0.6717 C   0  0  0  0  0  3  0  0  0  0  0  0
    0.5365   -1.8337    0.9484 C   0  0  0  0  0  0  0  0  0  0  0  0
   -1.2924   -0.8619    2.7629 H   0  0  0  0  0  0  0  0  0  0  0  0
    1.2440   -2.1898    0.2115 H   0  0  0  0  0  0  0  0  0  0  0  0
    0.5082   -2.3482    1.9013 H   0  0  0  0  0  0  0  0  0  0  0  0
    1.0745    0.9837   -0.6692 C   0  0  0  0  0  0  0  0  0  0  0  0
    1.0745    0.9837   -1.9678 C   0  0  0  0  0  0  0  0  0  0  0  0
    1.0745    0.9837   -3.2665 C   0  0  0  0  0  0  0  0  0  0  0  0
    0.4108    0.0888    0.0009 H   0  0  0  0  0  0  0  0  0  0  0  0
    1.6275    1.7294   -0.1107 H   0  0  0  0  0  0  0  0  0  0  0  0
    0.3287    1.5367   -3.8249 H   0  0  0  0  0  0  0  0  0  0  0  0
    1.8202    0.4307   -3.8249 H   0  0  0  0  0  0  0  0  0  0  0  0
  1  2  1  0
  1  4  1  0
  2  3  2  3
  3  5  1  0
  3  6  1  0
  7  8  2  0
  7 10  1  0
  7 11  1  0
  8  9  2  0
  9 12  1  0
  9 13  1  0
M  RAD  1   2   2
M  END
>  <reaction>  (11) 
rxn_1812

>  <mol_properties>  (11) 
{"0": {"label": "*4", "atom_type": "S2s"}, "1": {"label": "*3", "atom_type": "Cd"}, "6": {"label": "*1", "atom_type": "Cd"}, "7": {"label": "*0", "atom_type": "Cdd"}, "9": {"label": "*2", "atom_type": "H0"}}

>  <type>  (11) 
unop_7

>  <geom_source>  (11) 
Heuristics

$$$$

     RDKit          3D

 13 11  0  0  0  0  0  0  0  0999 V2000
    0.2575   -1.7492    1.1517 S   0  0  0  0  0  0  0  0  0  0  0  0
   -0.7283   -0.3396    0.8238 C   0  0  0  0  0  3  0  0  0  0  0  0
   -1.6020    0.2517    1.6248 C   0  0  0  0  0  0  0  0  0  0  0  0
   -0.1744   -1.9712    2.4008 H   0  0  0  0  0  0  0  0  0  0  0  0
   -2.1459    1.1239    1.2873 H   0  0  0  0  0  0  0  0  0  0  0  0
   -1.8043   -0.1043    2.6278 H   0  0  0  0  0  0  0  0  0  0  0  0
    0.5995    1.4511   -0.5170 C   0  0  0  0  0  0  0  0  0  0  0  0
    0.5995    1.4511   -1.8157 C   0  0  0  0  0  0  0  0  0  0  0  0
    0.5995    1.4511   -3.1144 C   0  0  0  0  0  0  0  0  0  0  0  0
   -0.0641    0.5562    0.1531 H   0  0  0  0  0  0  0  0  0  0  0  0
    1.1526    2.1969    0.0414 H   0  0  0  0  0  0  0  0  0  0  0  0
   -0.1462    2.0041   -3.6728 H   0  0  0  0  0  0  0  0  0  0  0  0
    1.3453    0.8981   -3.6728 H   0  0  0  0  0  0  0  0  0  0  0  0
  1  2  1  0
  1  4  1  0
  2  3  2  3
  3  5  1  0
  3  6  1  0
  7  8  2  0
  7 10  1  0
  7 11  1  0
  8  9  2  0
  9 12  1  0
  9 13  1  0
M  RAD  1   2   2
M  END
>  <reaction>  (12) 
rxn_1812

>  <mol_properties>  (12) 
{"0": {"label": "*4", "atom_type": "S2s"}, "1": {"label": "*3", "atom_type": "Cd"}, "6": {"label": "*1", "atom_type": "Cd"}, "7": {"label": "*0", "atom_type": "Cdd"}, "9": {"label": "*2", "atom_type": "H0"}}

>  <type>  (12) 
unop_8

>  <geom_source>  (12) 
Heuristics

$$$$

     RDKit          3D

 13 11  0  0  0  0  0  0  0  0999 V2000
   -1.5101   -1.0559    0.2722 S   0  0  0  0  0  0  0  0  0  0  0  0
   -0.0965   -0.5190    1.1551 C   0  0  0  0  0  3  0  0  0  0  0  0
    0.1573   -0.6470    2.4488 C   0  0  0  0  0  0  0  0  0  0  0  0
   -2.1657   -1.5912    1.3113 H   0  0  0  0  0  0  0  0  0  0  0  0
    1.0806   -0.2641    2.8626 H   0  0  0  0  0  0  0  0  0  0  0  0
   -0.5324   -1.1290    3.1312 H   0  0  0  0  0  0  0  0  0  0  0  0
    1.2314    1.2717   -0.1858 C   0  0  0  0  0  0  0  0  0  0  0  0
    1.2314    1.2717   -1.4844 C   0  0  0  0  0  0  0  0  0  0  0  0
    1.2314    1.2717   -2.7831 C   0  0  0  0  0  0  0  0  0  0  0  0
    0.5678    0.3768    0.4843 H   0  0  0  0  0  0  0  0  0  0  0  0
    1.7844    2.0175    0.3727 H   0  0  0  0  0  0  0  0  0  0  0  0
    0.4856    1.8247   -3.3415 H   0  0  0  0  0  0  0  0  0  0  0  0
    1.9772    0.7187   -3.3415 H   0  0  0  0  0  0  0  0  0  0  0  0
  1  2  1  0
  1  4  1  0
  2  3  2  3
  3  5  1  0
  3  6  1  0
  7  8  2  0
  7 10  1  0
  7 11  1  0
  8  9  2  0
  9 12  1  0
  9 13  1  0
M  RAD  1   2   2
M  END
>  <reaction>  (13) 
rxn_1812

>  <mol_properties>  (13) 
{"0": {"label": "*4", "atom_type": "S2s"}, "1": {"label": "*3", "atom_type": "Cd"}, "6": {"label": "*1", "atom_type": "Cd"}, "7": {"label": "*0", "atom_type": "Cdd"}, "9": {"label": "*2", "atom_type": "H0"}}

>  <type>  (13) 
unop_9

>  <geom_source>  (13) 
Heuristics

$$$$

     RDKit          3D

 13 11  0  0  0  0  0  0  0  0999 V2000
   -0.0863   -1.8637    0.6343 S   0  0  0  0  0  0  0  0  0  0  0  0
   -0.6461   -0.2466    1.0055 C   0  0  0  0  0  3  0  0  0  0  0  0
   -1.1358    0.2069    2.1497 C   0  0  0  0  0  0  0  0  0  0  0  0
   -0.3233   -2.4053    1.8371 H   0  0  0  0  0  0  0  0  0  0  0  0
   -1.4456    1.2397    2.2375 H   0  0  0  0  0  0  0  0  0  0  0  0
   -1.2443   -0.4219    3.0251 H   0  0  0  0  0  0  0  0  0  0  0  0
    0.6817    1.5441   -0.3353 C   0  0  0  0  0  0  0  0  0  0  0  0
    0.6817    1.5441   -1.6340 C   0  0  0  0  0  0  0  0  0  0  0  0
    0.6817    1.5441   -2.9327 C   0  0  0  0  0  0  0  0  0  0  0  0
    0.0181    0.6492    0.3348 H   0  0  0  0  0  0  0  0  0  0  0  0
    1.2348    2.2899    0.2231 H   0  0  0  0  0  0  0  0  0  0  0  0
   -0.0640    2.0971   -3.4911 H   0  0  0  0  0  0  0  0  0  0  0  0
    1.4275    0.9911   -3.4911 H   0  0  0  0  0  0  0  0  0  0  0  0
  1  2  1  0
  1  4  1  0
  2  3  2  3
  3  5  1  0
  3  6  1  0
  7  8  2  0
  7 10  1  0
  7 11  1  0
  8  9  2  0
  9 12  1  0
  9 13  1  0
M  RAD  1   2   2
M  END
>  <reaction>  (14) 
rxn_1812

>  <mol_properties>  (14) 
{"0": {"label": "*4", "atom_type": "S2s"}, "1": {"label": "*3", "atom_type": "Cd"}, "6": {"label": "*1", "atom_type": "Cd"}, "7": {"label": "*0", "atom_type": "Cdd"}, "9": {"label": "*2", "atom_type": "H0"}}

>  <type>  (14) 
unop_10

>  <geom_source>  (14) 
Heuristics

$$$$

     RDKit          3D

 13 11  0  0  0  0  0  0  0  0999 V2000
   -0.9447   -0.1003    2.1320 S   0  0  0  0  0  0  0  0  0  0  0  0
   -0.3985   -0.7332    0.5933 C   0  0  0  0  0  3  0  0  0  0  0  0
   -0.1010   -1.9863    0.2836 C   0  0  0  0  0  0  0  0  0  0  0  0
   -0.9434   -1.2605    2.8026 H   0  0  0  0  0  0  0  0  0  0  0  0
    0.2271   -2.2362   -0.7165 H   0  0  0  0  0  0  0  0  0  0  0  0
   -0.1718   -2.7946    1.0013 H   0  0  0  0  0  0  0  0  0  0  0  0
    0.9294    1.0574   -0.7475 C   0  0  0  0  0  0  0  0  0  0  0  0
    0.9294    1.0574   -2.0462 C   0  0  0  0  0  0  0  0  0  0  0  0
    0.9294    1.0574   -3.3448 C   0  0  0  0  0  0  0  0  0  0  0  0
    0.2657    0.1625   -0.0774 H   0  0  0  0  0  0  0  0  0  0  0  0
    1.4824    1.8032   -0.1891 H   0  0  0  0  0  0  0  0  0  0  0  0
    0.1836    1.6105   -3.9033 H   0  0  0  0  0  0  0  0  0  0  0  0
    1.6751    0.5044   -3.9033 H   0  0  0  0  0  0  0  0  0  0  0  0
  1  2  1  0
  1  4  1  0
  2  3  2  3
  3  5  1  0
  3  6  1  0
  7  8  2  0
  7 10  1  0
  7 11  1  0
  8  9  2  0
  9 12  1  0
  9 13  1  0
M  RAD  1   2   2
M  END
>  <reaction>  (15) 
rxn_1812

>  <mol_properties>  (15) 
{"0": {"label": "*4", "atom_type": "S2s"}, "1": {"label": "*3", "atom_type": "Cd"}, "6": {"label": "*1", "atom_type": "Cd"}, "7": {"label": "*0", "atom_type": "Cdd"}, "9": {"label": "*2", "atom_type": "H0"}}

>  <type>  (15) 
unop_11

>  <geom_source>  (15) 
Heuristics

$$$$

     RDKit          3D

 13 11  0  0  0  0  0  0  0  0999 V2000
   -1.0816   -1.4586    0.1435 S   0  0  0  0  0  0  0  0  0  0  0  0
   -0.2560   -0.3453    1.2137 C   0  0  0  0  0  3  0  0  0  0  0  0
   -0.2498   -0.3368    2.5383 C   0  0  0  0  0  0  0  0  0  0  0  0
   -1.6454   -2.2189    1.0922 H   0  0  0  0  0  0  0  0  0  0  0  0
    0.3098    0.4178    3.0748 H   0  0  0  0  0  0  0  0  0  0  0  0
   -0.7916   -1.0675    3.1265 H   0  0  0  0  0  0  0  0  0  0  0  0
    1.0718    1.4454   -0.1271 C   0  0  0  0  0  0  0  0  0  0  0  0
    1.0718    1.4454   -1.4258 C   0  0  0  0  0  0  0  0  0  0  0  0
    1.0718    1.4454   -2.7245 C   0  0  0  0  0  0  0  0  0  0  0  0
    0.4082    0.5505    0.5430 H   0  0  0  0  0  0  0  0  0  0  0  0
    1.6248    2.1912    0.4313 H   0  0  0  0  0  0  0  0  0  0  0  0
    0.3261    1.9984   -3.2829 H   0  0  0  0  0  0  0  0  0  0  0  0
    1.8176    0.8924   -3.2829 H   0  0  0  0  0  0  0  0  0  0  0  0
  1  2  1  0
  1  4  1  0
  2  3  2  3
  3  5  1  0
  3  6  1  0
  7  8  2  0
  7 10  1  0
  7 11  1  0
  8  9  2  0
  9 12  1  0
  9 13  1  0
M  RAD  1   2   2
M  END
>  <reaction>  (16) 
rxn_1812

>  <mol_properties>  (16) 
{"0": {"label": "*4", "atom_type": "S2s"}, "1": {"label": "*3", "atom_type": "Cd"}, "6": {"label": "*1", "atom_type": "Cd"}, "7": {"label": "*0", "atom_type": "Cdd"}, "9": {"label": "*2", "atom_type": "H0"}}

>  <type>  (16) 
unop_12

>  <geom_source>  (16) 
Heuristics

$$$$

     RDKit          3D

 13 11  0  0  0  0  0  0  0  0999 V2000
   -2.2969   -1.5688   -1.0665 S   0  0  0  0  0  0  0  0  0  0  0  0
   -1.5441   -0.1956   -0.1960 C   0  0  0  0  0  0  0  0  0  0  0  0
   -2.2861    0.8213    0.2385 C   0  0  0  0  0  0  0  0  0  0  0  0
    3.1518    0.4517    0.5359 C   0  0  0  0  0  3  0  0  0  0  0  0
    2.0560   -0.0291    0.0216 C   0  0  0  0  0  0  0  0  0  0  0  0
    0.9602   -0.5099   -0.4929 C   0  0  0  0  0  0  0  0  0  0  0  0
   -0.2650   -0.1954    0.0097 H   0  0  0  0  0  0  0  0  0  0  0  0
   -1.8177    1.6466    0.7637 H   0  0  0  0  0  0  0  0  0  0  0  0
   -3.3589    0.8363    0.0742 H   0  0  0  0  0  0  0  0  0  0  0  0
    3.7410    1.1682   -0.0200 H   0  0  0  0  0  0  0  0  0  0  0  0
    3.4725    0.1345    1.5188 H   0  0  0  0  0  0  0  0  0  0  0  0
   -2.5099   -2.2797    0.1294 H   0  0  0  0  0  0  0  0  0  0  0  0
    0.6972   -0.2801   -1.5164 H   0  0  0  0  0  0  0  0  0  0  0  0
  1  2  1  0
  1 12  1  0
  2  3  2  3
  2  7  1  0
  3  8  1  0
  3  9  1  0
  4  5  1  0
  4 10  1  0
  4 11  1  0
  5  6  3  0
  6 13  1  0
M  RAD  1   4   2
M  END
>  <reaction>  (17) 
rxn_1812

>  <mol_properties>  (17) 
{"0": {"label": "*4", "atom_type": "S2s"}, "1": {"label": "*3", "atom_type": "Cd"}, "6": {"label": "*1", "atom_type": "Cd"}, "7": {"label": "*0", "atom_type": "Cdd"}, "9": {"label": "*2", "atom_type": "H0"}}

>  <type>  (17) 
unop_13

>  <geom_source>  (17) 
AutoTST

$$$$
