
     RDKit          3D

  9  8  0  0  0  0  0  0  0  0999 V2000
   -2.1022   -0.6873    0.3932 C   0  0  0  0  0  0  0  0  0  0  0  0
   -1.2072   -0.1086   -0.1482 C   0  0  0  0  0  0  0  0  0  0  0  0
   -0.1242    0.6105   -0.8193 C   0  0  0  0  0  0  0  0  0  0  0  0
    1.2067    0.1106   -0.4741 C   0  0  0  0  0  0  0  0  0  0  0  0
    2.3005   -0.2875   -0.2012 C   0  0  0  0  0  0  0  0  0  0  0  0
   -2.8942   -1.2059    0.8778 H   0  0  0  0  0  0  0  0  0  0  0  0
   -0.1862    1.6723   -0.5649 H   0  0  0  0  0  0  0  0  0  0  0  0
   -0.2641    0.5418   -1.9017 H   0  0  0  0  0  0  0  0  0  0  0  0
    3.2709   -0.6459    0.0455 H   0  0  0  0  0  0  0  0  0  0  0  0
  1  2  3  0
  1  6  1  0
  2  3  1  0
  3  4  1  0
  3  7  1  0
  3  8  1  0
  4  5  3  0
  5  9  1  0
M  END
>  <reaction>  (1) 
rxn_1375

>  <mol_properties>  (1) 
{"2": {"label": "donator", "atom_type": "Cs"}, "6": {"label": "d_hydrogen", "atom_type": "H0"}}

>  <type>  (1) 
r1h

$$$$

     RDKit          3D

  9  8  0  0  0  0  0  0  0  0999 V2000
    2.3991   -0.1292   -0.2384 S   0  0  0  0  0  0  0  0  0  0  0  0
    0.7460    0.2807    0.0931 C   0  0  0  0  0  3  0  0  0  0  0  0
   -0.3131   -0.5719   -0.2043 C   0  0  0  0  0  0  0  0  0  0  0  0
   -0.2286   -1.8095   -0.7775 C   0  0  0  0  0  0  0  0  0  0  0  0
    2.9373    1.0009    0.2312 H   0  0  0  0  0  0  0  0  0  0  0  0
    0.5618    1.2421    0.5487 H   0  0  0  0  0  0  0  0  0  0  0  0
   -1.2978   -0.1954    0.0537 H   0  0  0  0  0  0  0  0  0  0  0  0
    0.7207   -2.2479   -1.0607 H   0  0  0  0  0  0  0  0  0  0  0  0
   -1.1177   -2.3938   -0.9670 H   0  0  0  0  0  0  0  0  0  0  0  0
  1  2  1  0
  1  5  1  0
  2  3  1  0
  2  6  1  0
  3  4  2  3
  3  7  1  0
  4  8  1  0
  4  9  1  0
M  RAD  1   2   2
M  END
>  <reaction>  (2) 
rxn_1375

>  <mol_properties>  (2) 
{"1": {"label": "acceptor", "atom_type": "Cs"}}

>  <type>  (2) 
r2

$$$$

     RDKit          3D

 10  9  0  0  0  0  0  0  0  0999 V2000
    2.2097   -0.5315    0.2575 S   0  0  0  0  0  0  0  0  0  0  0  0
    0.5401   -0.7188   -0.4494 C   0  0  0  0  0  0  0  0  0  0  0  0
   -0.5263   -0.1678    0.4365 C   0  0  0  0  0  0  0  0  0  0  0  0
   -1.3394    0.8185    0.0912 C   0  0  0  0  0  0  0  0  0  0  0  0
    2.1701    0.8016    0.3806 H   0  0  0  0  0  0  0  0  0  0  0  0
    0.4238   -1.7978   -0.5701 H   0  0  0  0  0  0  0  0  0  0  0  0
    0.5053   -0.2663   -1.4400 H   0  0  0  0  0  0  0  0  0  0  0  0
   -0.6005   -0.6141    1.4236 H   0  0  0  0  0  0  0  0  0  0  0  0
   -2.0960    1.1907    0.7700 H   0  0  0  0  0  0  0  0  0  0  0  0
   -1.2784    1.2877   -0.8850 H   0  0  0  0  0  0  0  0  0  0  0  0
  1  2  1  0
  1  5  1  0
  2  3  1  0
  2  6  1  0
  2  7  1  0
  3  4  2  3
  3  8  1  0
  4  9  1  0
  4 10  1  0
M  END
>  <reaction>  (3) 
rxn_1375

>  <mol_properties>  (3) 
{"0": {"label": "a_hydrogen", "atom_type": "H0"}, "2": {"label": "acceptor", "atom_type": "Cs"}}

>  <type>  (3) 
r2h

$$$$

     RDKit          3D

 18 16  0  0  0  0  0  0  0  0999 V2000
    0.5769   -3.0390   -0.6832 C   0  0  0  0  0  0  0  0  0  0  0  0
   -0.1945   -2.2390   -0.2283 C   0  0  0  0  0  0  0  0  0  0  0  0
   -1.0579   -1.2662    0.3615 C   0  0  0  0  0  3  0  0  0  0  0  0
   -1.7041   -0.3295   -0.5028 C   0  0  0  0  0  0  0  0  0  0  0  0
   -2.2063    0.5239   -1.1827 C   0  0  0  0  0  0  0  0  0  0  0  0
    1.2430   -3.7546   -1.1013 H   0  0  0  0  0  0  0  0  0  0  0  0
   -0.2362   -0.4612    1.0865 H   0  0  0  0  0  0  0  0  0  0  0  0
   -1.6964   -1.6514    1.1551 H   0  0  0  0  0  0  0  0  0  0  0  0
   -2.6714    1.2476   -1.8078 H   0  0  0  0  0  0  0  0  0  0  0  0
   -0.5793    1.4119    2.6778 S   0  0  0  0  0  0  0  0  0  0  0  0
    0.5426    0.4241    1.7248 C   0  0  0  0  0  0  0  0  0  0  0  0
    1.3199    1.0362    0.6530 C   0  0  0  0  0  0  0  0  0  0  0  0
    2.4685    0.5373    0.1963 C   0  0  0  0  0  0  0  0  0  0  0  0
   -1.2001    1.9822    1.6344 H   0  0  0  0  0  0  0  0  0  0  0  0
    1.1038   -0.2359    2.3838 H   0  0  0  0  0  0  0  0  0  0  0  0
    0.8842    1.9051    0.1698 H   0  0  0  0  0  0  0  0  0  0  0  0
    2.9239   -0.3379    0.6452 H   0  0  0  0  0  0  0  0  0  0  0  0
    2.9831    0.9902   -0.6404 H   0  0  0  0  0  0  0  0  0  0  0  0
  1  2  3  0
  1  6  1  0
  2  3  1  0
  3  4  1  0
  3  8  1  0
  4  5  3  0
  5  9  1  0
  7 11  1  0
 10 11  1  0
 10 14  1  0
 11 12  1  0
 11 15  1  0
 12 13  2  3
 12 16  1  0
 13 17  1  0
 13 18  1  0
M  RAD  1   3   2
M  END
>  <reaction>  (4) 
rxn_1375

>  <mol_properties>  (4) 
{"1": {"label": "*4", "atom_type": "Ct"}, "2": {"label": "*3", "atom_type": "Cs"}, "6": {"label": "*2", "atom_type": "H0"}, "9": {"label": "*0", "atom_type": "S2s"}, "10": {"label": "*1", "atom_type": "Cs"}}

>  <type>  (4) 
ts

$$$$

     RDKit          3D

 18 16  0  0  0  0  0  0  0  0999 V2000
   -0.7170   -1.3795   -3.0693 C   0  0  0  0  0  0  0  0  0  0  0  0
   -0.7170   -1.3795   -1.8738 C   0  0  0  0  0  0  0  0  0  0  0  0
   -0.7170   -1.3795   -0.4108 C   0  0  0  0  0  3  0  0  0  0  0  0
   -2.0310   -1.1039    0.1704 C   0  0  0  0  0  0  0  0  0  0  0  0
   -3.1047   -0.8787    0.6453 C   0  0  0  0  0  0  0  0  0  0  0  0
   -0.7170   -1.3795   -4.1328 H   0  0  0  0  0  0  0  0  0  0  0  0
    0.1412   -0.4851    0.0202 H   0  0  0  0  0  0  0  0  0  0  0  0
   -0.3616   -2.3493   -0.0516 H   0  0  0  0  0  0  0  0  0  0  0  0
   -4.0599   -0.6783    1.0677 H   0  0  0  0  0  0  0  0  0  0  0  0
   -0.0200    1.5593    1.4307 S   0  0  0  0  0  0  0  0  0  0  0  0
    0.9980    0.4079    0.4506 C   0  0  0  0  0  0  0  0  0  0  0  0
    2.2620    1.0303   -0.0400 C   0  0  0  0  0  0  0  0  0  0  0  0
    3.4723    0.5983    0.2788 C   0  0  0  0  0  0  0  0  0  0  0  0
    0.9090    1.8265    2.3578 H   0  0  0  0  0  0  0  0  0  0  0  0
    1.1987   -0.4928    1.0299 H   0  0  0  0  0  0  0  0  0  0  0  0
    2.1454    1.8988   -0.6811 H   0  0  0  0  0  0  0  0  0  0  0  0
    3.6152   -0.2607    0.9258 H   0  0  0  0  0  0  0  0  0  0  0  0
    4.3630    1.0856   -0.0966 H   0  0  0  0  0  0  0  0  0  0  0  0
  1  2  3  0
  1  6  1  0
  2  3  1  0
  3  4  1  0
  3  8  1  0
  4  5  3  0
  5  9  1  0
  7 11  1  0
 10 11  1  0
 10 14  1  0
 11 12  1  0
 11 15  1  0
 12 13  2  3
 12 16  1  0
 13 17  1  0
 13 18  1  0
M  RAD  1   3   2
M  END
>  <reaction>  (5) 
rxn_1375

>  <mol_properties>  (5) 
{"1": {"label": "*4", "atom_type": "Ct"}, "2": {"label": "*3", "atom_type": "Cs"}, "6": {"label": "*2", "atom_type": "H0"}, "9": {"label": "*0", "atom_type": "S2s"}, "10": {"label": "*1", "atom_type": "Cs"}}

>  <type>  (5) 
unop_1

>  <geom_source>  (5) 
Heuristics

$$$$

     RDKit          3D

 18 16  0  0  0  0  0  0  0  0999 V2000
   -0.8879   -1.2993   -2.8205 C   0  0  0  0  0  0  0  0  0  0  0  0
   -0.8879   -1.2993   -1.6250 C   0  0  0  0  0  0  0  0  0  0  0  0
   -0.8879   -1.2993   -0.1620 C   0  0  0  0  0  3  0  0  0  0  0  0
   -2.2019   -1.0237    0.4192 C   0  0  0  0  0  0  0  0  0  0  0  0
   -3.2757   -0.7985    0.8941 C   0  0  0  0  0  0  0  0  0  0  0  0
   -0.8879   -1.2993   -3.8840 H   0  0  0  0  0  0  0  0  0  0  0  0
   -0.0298   -0.4049    0.2690 H   0  0  0  0  0  0  0  0  0  0  0  0
   -0.5325   -2.2691    0.1972 H   0  0  0  0  0  0  0  0  0  0  0  0
   -4.2309   -0.5981    1.3165 H   0  0  0  0  0  0  0  0  0  0  0  0
    0.8256    1.7639   -0.6024 S   0  0  0  0  0  0  0  0  0  0  0  0
    0.8270    0.4881    0.6994 C   0  0  0  0  0  0  0  0  0  0  0  0
    2.1951    0.1933    1.2163 C   0  0  0  0  0  0  0  0  0  0  0  0
    2.5644    0.3682    2.4758 C   0  0  0  0  0  0  0  0  0  0  0  0
    1.4031    2.7247    0.1306 H   0  0  0  0  0  0  0  0  0  0  0  0
    0.1539    0.7809    1.5046 H   0  0  0  0  0  0  0  0  0  0  0  0
    2.9110   -0.1683    0.4844 H   0  0  0  0  0  0  0  0  0  0  0  0
    1.8709    0.7382    3.2234 H   0  0  0  0  0  0  0  0  0  0  0  0
    3.5713    0.1461    2.8051 H   0  0  0  0  0  0  0  0  0  0  0  0
  1  2  3  0
  1  6  1  0
  2  3  1  0
  3  4  1  0
  3  8  1  0
  4  5  3  0
  5  9  1  0
  7 11  1  0
 10 11  1  0
 10 14  1  0
 11 12  1  0
 11 15  1  0
 12 13  2  3
 12 16  1  0
 13 17  1  0
 13 18  1  0
M  RAD  1   3   2
M  END
>  <reaction>  (6) 
rxn_1375

>  <mol_properties>  (6) 
{"1": {"label": "*4", "atom_type": "Ct"}, "2": {"label": "*3", "atom_type": "Cs"}, "6": {"label": "*2", "atom_type": "H0"}, "9": {"label": "*0", "atom_type": "S2s"}, "10": {"label": "*1", "atom_type": "Cs"}}

>  <type>  (6) 
unop_2

>  <geom_source>  (6) 
Heuristics

$$$$

     RDKit          3D

 18 16  0  0  0  0  0  0  0  0999 V2000
   -0.6902   -1.3752   -3.0951 C   0  0  0  0  0  0  0  0  0  0  0  0
   -0.6902   -1.3752   -1.8996 C   0  0  0  0  0  0  0  0  0  0  0  0
   -0.6902   -1.3752   -0.4366 C   0  0  0  0  0  3  0  0  0  0  0  0
   -2.0042   -1.0996    0.1446 C   0  0  0  0  0  0  0  0  0  0  0  0
   -3.0780   -0.8744    0.6194 C   0  0  0  0  0  0  0  0  0  0  0  0
   -0.6902   -1.3752   -4.1586 H   0  0  0  0  0  0  0  0  0  0  0  0
    0.1680   -0.4808   -0.0056 H   0  0  0  0  0  0  0  0  0  0  0  0
   -0.3348   -2.3450   -0.0774 H   0  0  0  0  0  0  0  0  0  0  0  0
   -4.0332   -0.6740    1.0419 H   0  0  0  0  0  0  0  0  0  0  0  0
    0.3267    0.9620    2.0163 S   0  0  0  0  0  0  0  0  0  0  0  0
    1.0248    0.4122    0.4248 C   0  0  0  0  0  0  0  0  0  0  0  0
    1.7146    1.5106   -0.3124 C   0  0  0  0  0  0  0  0  0  0  0  0
    2.9990    1.4940   -0.6337 C   0  0  0  0  0  0  0  0  0  0  0  0
    1.4794    1.3970    2.5416 H   0  0  0  0  0  0  0  0  0  0  0  0
    1.6900   -0.4355    0.5861 H   0  0  0  0  0  0  0  0  0  0  0  0
    1.1002    2.3679   -0.5699 H   0  0  0  0  0  0  0  0  0  0  0  0
    3.6361    0.6539   -0.3785 H   0  0  0  0  0  0  0  0  0  0  0  0
    3.4590    2.3174   -1.1647 H   0  0  0  0  0  0  0  0  0  0  0  0
  1  2  3  0
  1  6  1  0
  2  3  1  0
  3  4  1  0
  3  8  1  0
  4  5  3  0
  5  9  1  0
  7 11  1  0
 10 11  1  0
 10 14  1  0
 11 12  1  0
 11 15  1  0
 12 13  2  3
 12 16  1  0
 13 17  1  0
 13 18  1  0
M  RAD  1   3   2
M  END
>  <reaction>  (7) 
rxn_1375

>  <mol_properties>  (7) 
{"1": {"label": "*4", "atom_type": "Ct"}, "2": {"label": "*3", "atom_type": "Cs"}, "6": {"label": "*2", "atom_type": "H0"}, "9": {"label": "*0", "atom_type": "S2s"}, "10": {"label": "*1", "atom_type": "Cs"}}

>  <type>  (7) 
unop_3

>  <geom_source>  (7) 
Heuristics

$$$$

     RDKit          3D

 18 16  0  0  0  0  0  0  0  0999 V2000
   -0.8854   -0.8482   -3.1137 C   0  0  0  0  0  0  0  0  0  0  0  0
   -0.8854   -0.8482   -1.9182 C   0  0  0  0  0  0  0  0  0  0  0  0
   -0.8854   -0.8482   -0.4552 C   0  0  0  0  0  3  0  0  0  0  0  0
   -2.1995   -0.5726    0.1260 C   0  0  0  0  0  0  0  0  0  0  0  0
   -3.2732   -0.3474    0.6009 C   0  0  0  0  0  0  0  0  0  0  0  0
   -0.8854   -0.8482   -4.1771 H   0  0  0  0  0  0  0  0  0  0  0  0
   -0.0273    0.0461   -0.0241 H   0  0  0  0  0  0  0  0  0  0  0  0
   -0.5301   -1.8181   -0.0960 H   0  0  0  0  0  0  0  0  0  0  0  0
   -4.2284   -0.1471    1.0234 H   0  0  0  0  0  0  0  0  0  0  0  0
    2.4242    0.3889   -0.2842 S   0  0  0  0  0  0  0  0  0  0  0  0
    0.8295    0.9392    0.4062 C   0  0  0  0  0  0  0  0  0  0  0  0
    0.5302    0.3205    1.7304 C   0  0  0  0  0  0  0  0  0  0  0  0
    0.3636    1.0094    2.8488 C   0  0  0  0  0  0  0  0  0  0  0  0
    3.1794    0.7945    0.7449 H   0  0  0  0  0  0  0  0  0  0  0  0
    0.8070    2.0270    0.4630 H   0  0  0  0  0  0  0  0  0  0  0  0
    0.4699   -0.7635    1.7447 H   0  0  0  0  0  0  0  0  0  0  0  0
    0.4293    2.0921    2.8626 H   0  0  0  0  0  0  0  0  0  0  0  0
    0.1534    0.5169    3.7895 H   0  0  0  0  0  0  0  0  0  0  0  0
  1  2  3  0
  1  6  1  0
  2  3  1  0
  3  4  1  0
  3  8  1  0
  4  5  3  0
  5  9  1  0
  7 11  1  0
 10 11  1  0
 10 14  1  0
 11 12  1  0
 11 15  1  0
 12 13  2  3
 12 16  1  0
 13 17  1  0
 13 18  1  0
M  RAD  1   3   2
M  END
>  <reaction>  (8) 
rxn_1375

>  <mol_properties>  (8) 
{"1": {"label": "*4", "atom_type": "Ct"}, "2": {"label": "*3", "atom_type": "Cs"}, "6": {"label": "*2", "atom_type": "H0"}, "9": {"label": "*0", "atom_type": "S2s"}, "10": {"label": "*1", "atom_type": "Cs"}}

>  <type>  (8) 
unop_4

>  <geom_source>  (8) 
Heuristics

$$$$

     RDKit          3D

 18 16  0  0  0  0  0  0  0  0999 V2000
   -0.5747   -1.3553   -3.1527 C   0  0  0  0  0  0  0  0  0  0  0  0
   -0.5747   -1.3553   -1.9572 C   0  0  0  0  0  0  0  0  0  0  0  0
   -0.5747   -1.3553   -0.4942 C   0  0  0  0  0  3  0  0  0  0  0  0
   -1.8887   -1.0797    0.0869 C   0  0  0  0  0  0  0  0  0  0  0  0
   -2.9625   -0.8545    0.5618 C   0  0  0  0  0  0  0  0  0  0  0  0
   -0.5747   -1.3553   -4.2162 H   0  0  0  0  0  0  0  0  0  0  0  0
    0.2834   -0.4609   -0.0632 H   0  0  0  0  0  0  0  0  0  0  0  0
   -0.2194   -2.3252   -0.1350 H   0  0  0  0  0  0  0  0  0  0  0  0
   -3.9177   -0.6542    0.9843 H   0  0  0  0  0  0  0  0  0  0  0  0
    1.0264    0.3135    2.1825 S   0  0  0  0  0  0  0  0  0  0  0  0
    1.1402    0.4321    0.3672 C   0  0  0  0  0  0  0  0  0  0  0  0
    0.7916    1.7893   -0.1449 C   0  0  0  0  0  0  0  0  0  0  0  0
    1.6265    2.5619   -0.8227 C   0  0  0  0  0  0  0  0  0  0  0  0
    1.9010    1.2918    2.4503 H   0  0  0  0  0  0  0  0  0  0  0  0
    2.1334    0.1276    0.0384 H   0  0  0  0  0  0  0  0  0  0  0  0
   -0.2096    2.1404    0.0853 H   0  0  0  0  0  0  0  0  0  0  0  0
    2.6352    2.2382   -1.0563 H   0  0  0  0  0  0  0  0  0  0  0  0
    1.3316    3.5437   -1.1701 H   0  0  0  0  0  0  0  0  0  0  0  0
  1  2  3  0
  1  6  1  0
  2  3  1  0
  3  4  1  0
  3  8  1  0
  4  5  3  0
  5  9  1  0
  7 11  1  0
 10 11  1  0
 10 14  1  0
 11 12  1  0
 11 15  1  0
 12 13  2  3
 12 16  1  0
 13 17  1  0
 13 18  1  0
M  RAD  1   3   2
M  END
>  <reaction>  (9) 
rxn_1375

>  <mol_properties>  (9) 
{"1": {"label": "*4", "atom_type": "Ct"}, "2": {"label": "*3", "atom_type": "Cs"}, "6": {"label": "*2", "atom_type": "H0"}, "9": {"label": "*0", "atom_type": "S2s"}, "10": {"label": "*1", "atom_type": "Cs"}}

>  <type>  (9) 
unop_5

>  <geom_source>  (9) 
Heuristics

$$$$

     RDKit          3D

 18 16  0  0  0  0  0  0  0  0999 V2000
   -0.7328   -0.8756   -3.2513 C   0  0  0  0  0  0  0  0  0  0  0  0
   -0.7328   -0.8756   -2.0558 C   0  0  0  0  0  0  0  0  0  0  0  0
   -0.7328   -0.8756   -0.5928 C   0  0  0  0  0  3  0  0  0  0  0  0
   -2.0468   -0.6000   -0.0116 C   0  0  0  0  0  0  0  0  0  0  0  0
   -3.1206   -0.3747    0.4633 C   0  0  0  0  0  0  0  0  0  0  0  0
   -0.7328   -0.8756   -4.3148 H   0  0  0  0  0  0  0  0  0  0  0  0
    0.1253    0.0188   -0.1617 H   0  0  0  0  0  0  0  0  0  0  0  0
   -0.3775   -1.8454   -0.2336 H   0  0  0  0  0  0  0  0  0  0  0  0
   -4.0758   -0.1744    0.8857 H   0  0  0  0  0  0  0  0  0  0  0  0
    2.5467   -0.0120    0.4135 S   0  0  0  0  0  0  0  0  0  0  0  0
    0.9821    0.9119    0.2686 C   0  0  0  0  0  0  0  0  0  0  0  0
    0.0878    0.7196    1.4471 C   0  0  0  0  0  0  0  0  0  0  0  0
   -0.3119    1.7010    2.2412 C   0  0  0  0  0  0  0  0  0  0  0  0
    2.9466    0.5521    1.5605 H   0  0  0  0  0  0  0  0  0  0  0  0
    1.1907    1.9675    0.0975 H   0  0  0  0  0  0  0  0  0  0  0  0
   -0.2206   -0.3020    1.6470 H   0  0  0  0  0  0  0  0  0  0  0  0
   -0.0092    2.7283    2.0688 H   0  0  0  0  0  0  0  0  0  0  0  0
   -0.9572    1.5136    3.0897 H   0  0  0  0  0  0  0  0  0  0  0  0
  1  2  3  0
  1  6  1  0
  2  3  1  0
  3  4  1  0
  3  8  1  0
  4  5  3  0
  5  9  1  0
  7 11  1  0
 10 11  1  0
 10 14  1  0
 11 12  1  0
 11 15  1  0
 12 13  2  3
 12 16  1  0
 13 17  1  0
 13 18  1  0
M  RAD  1   3   2
M  END
>  <reaction>  (10) 
rxn_1375

>  <mol_properties>  (10) 
{"1": {"label": "*4", "atom_type": "Ct"}, "2": {"label": "*3", "atom_type": "Cs"}, "6": {"label": "*2", "atom_type": "H0"}, "9": {"label": "*0", "atom_type": "S2s"}, "10": {"label": "*1", "atom_type": "Cs"}}

>  <type>  (10) 
unop_6

>  <geom_source>  (10) 
Heuristics

$$$$

     RDKit          3D

 18 16  0  0  0  0  0  0  0  0999 V2000
   -0.5787   -1.0047   -3.3114 C   0  0  0  0  0  0  0  0  0  0  0  0
   -0.5787   -1.0047   -2.1159 C   0  0  0  0  0  0  0  0  0  0  0  0
   -0.5787   -1.0047   -0.6529 C   0  0  0  0  0  3  0  0  0  0  0  0
   -1.8927   -0.7291   -0.0717 C   0  0  0  0  0  0  0  0  0  0  0  0
   -2.9665   -0.5039    0.4032 C   0  0  0  0  0  0  0  0  0  0  0  0
   -0.5787   -1.0047   -4.3749 H   0  0  0  0  0  0  0  0  0  0  0  0
    0.2794   -0.1103   -0.2218 H   0  0  0  0  0  0  0  0  0  0  0  0
   -0.2234   -1.9746   -0.2937 H   0  0  0  0  0  0  0  0  0  0  0  0
   -3.9217   -0.3036    0.8256 H   0  0  0  0  0  0  0  0  0  0  0  0
    2.3287   -0.1867    1.1886 S   0  0  0  0  0  0  0  0  0  0  0  0
    1.1362    0.7827    0.2085 C   0  0  0  0  0  0  0  0  0  0  0  0
   -0.0876    1.1431    0.9818 C   0  0  0  0  0  0  0  0  0  0  0  0
   -0.4677    2.3872    1.2290 C   0  0  0  0  0  0  0  0  0  0  0  0
    2.4877    0.7165    2.1647 H   0  0  0  0  0  0  0  0  0  0  0  0
    1.6243    1.6687   -0.1963 H   0  0  0  0  0  0  0  0  0  0  0  0
   -0.6689    0.3101    1.3653 H   0  0  0  0  0  0  0  0  0  0  0  0
    0.1014    3.2363    0.8658 H   0  0  0  0  0  0  0  0  0  0  0  0
   -1.3615    2.6017    1.8006 H   0  0  0  0  0  0  0  0  0  0  0  0
  1  2  3  0
  1  6  1  0
  2  3  1  0
  3  4  1  0
  3  8  1  0
  4  5  3  0
  5  9  1  0
  7 11  1  0
 10 11  1  0
 10 14  1  0
 11 12  1  0
 11 15  1  0
 12 13  2  3
 12 16  1  0
 13 17  1  0
 13 18  1  0
M  RAD  1   3   2
M  END
>  <reaction>  (11) 
rxn_1375

>  <mol_properties>  (11) 
{"1": {"label": "*4", "atom_type": "Ct"}, "2": {"label": "*3", "atom_type": "Cs"}, "6": {"label": "*2", "atom_type": "H0"}, "9": {"label": "*0", "atom_type": "S2s"}, "10": {"label": "*1", "atom_type": "Cs"}}

>  <type>  (11) 
unop_7

>  <geom_source>  (11) 
Heuristics

$$$$

     RDKit          3D

 18 16  0  0  0  0  0  0  0  0999 V2000
   -0.7279   -1.4018   -3.0024 C   0  0  0  0  0  0  0  0  0  0  0  0
   -0.7279   -1.4018   -1.8069 C   0  0  0  0  0  0  0  0  0  0  0  0
   -0.7279   -1.4018   -0.3439 C   0  0  0  0  0  3  0  0  0  0  0  0
   -2.0419   -1.1262    0.2372 C   0  0  0  0  0  0  0  0  0  0  0  0
   -3.1157   -0.9010    0.7121 C   0  0  0  0  0  0  0  0  0  0  0  0
   -0.7279   -1.4018   -4.0659 H   0  0  0  0  0  0  0  0  0  0  0  0
    0.1302   -0.5074    0.0871 H   0  0  0  0  0  0  0  0  0  0  0  0
   -0.3725   -2.3717    0.0153 H   0  0  0  0  0  0  0  0  0  0  0  0
   -4.0709   -0.7007    1.1346 H   0  0  0  0  0  0  0  0  0  0  0  0
   -0.0008    1.9106    0.6623 S   0  0  0  0  0  0  0  0  0  0  0  0
    0.9870    0.3856    0.5175 C   0  0  0  0  0  0  0  0  0  0  0  0
    2.4494    0.6551    0.3968 C   0  0  0  0  0  0  0  0  0  0  0  0
    3.3547    0.2300    1.2645 C   0  0  0  0  0  0  0  0  0  0  0  0
    0.6091    2.3789    1.7590 H   0  0  0  0  0  0  0  0  0  0  0  0
    0.7738   -0.2741    1.3580 H   0  0  0  0  0  0  0  0  0  0  0  0
    2.7525    1.2541   -0.4566 H   0  0  0  0  0  0  0  0  0  0  0  0
    3.0760   -0.3609    2.1305 H   0  0  0  0  0  0  0  0  0  0  0  0
    4.4061    0.4550    1.1396 H   0  0  0  0  0  0  0  0  0  0  0  0
  1  2  3  0
  1  6  1  0
  2  3  1  0
  3  4  1  0
  3  8  1  0
  4  5  3  0
  5  9  1  0
  7 11  1  0
 10 11  1  0
 10 14  1  0
 11 12  1  0
 11 15  1  0
 12 13  2  3
 12 16  1  0
 13 17  1  0
 13 18  1  0
M  RAD  1   3   2
M  END
>  <reaction>  (12) 
rxn_1375

>  <mol_properties>  (12) 
{"1": {"label": "*4", "atom_type": "Ct"}, "2": {"label": "*3", "atom_type": "Cs"}, "6": {"label": "*2", "atom_type": "H0"}, "9": {"label": "*0", "atom_type": "S2s"}, "10": {"label": "*1", "atom_type": "Cs"}}

>  <type>  (12) 
unop_8

>  <geom_source>  (12) 
Heuristics

$$$$

     RDKit          3D

 18 16  0  0  0  0  0  0  0  0999 V2000
   -0.9831   -0.9380   -2.9493 C   0  0  0  0  0  0  0  0  0  0  0  0
   -0.9831   -0.9380   -1.7538 C   0  0  0  0  0  0  0  0  0  0  0  0
   -0.9831   -0.9380   -0.2908 C   0  0  0  0  0  3  0  0  0  0  0  0
   -2.2972   -0.6624    0.2904 C   0  0  0  0  0  0  0  0  0  0  0  0
   -3.3709   -0.4372    0.7653 C   0  0  0  0  0  0  0  0  0  0  0  0
   -0.9831   -0.9380   -4.0127 H   0  0  0  0  0  0  0  0  0  0  0  0
   -0.1250   -0.0436    0.1403 H   0  0  0  0  0  0  0  0  0  0  0  0
   -0.6278   -1.9079    0.0684 H   0  0  0  0  0  0  0  0  0  0  0  0
   -4.3261   -0.2369    1.1878 H   0  0  0  0  0  0  0  0  0  0  0  0
    2.0066    0.9007   -0.7312 S   0  0  0  0  0  0  0  0  0  0  0  0
    0.7318    0.8494    0.5706 C   0  0  0  0  0  0  0  0  0  0  0  0
    1.1538    0.0534    1.7597 C   0  0  0  0  0  0  0  0  0  0  0  0
    1.2694    0.5515    2.9811 C   0  0  0  0  0  0  0  0  0  0  0  0
    2.9726    1.4341    0.0279 H   0  0  0  0  0  0  0  0  0  0  0  0
    0.4502    1.8635    0.8524 H   0  0  0  0  0  0  0  0  0  0  0  0
    1.3896   -0.9899    1.5729 H   0  0  0  0  0  0  0  0  0  0  0  0
    1.0498    1.5928    3.1915 H   0  0  0  0  0  0  0  0  0  0  0  0
    1.5852   -0.0632    3.8142 H   0  0  0  0  0  0  0  0  0  0  0  0
  1  2  3  0
  1  6  1  0
  2  3  1  0
  3  4  1  0
  3  8  1  0
  4  5  3  0
  5  9  1  0
  7 11  1  0
 10 11  1  0
 10 14  1  0
 11 12  1  0
 11 15  1  0
 12 13  2  3
 12 16  1  0
 13 17  1  0
 13 18  1  0
M  RAD  1   3   2
M  END
>  <reaction>  (13) 
rxn_1375

>  <mol_properties>  (13) 
{"1": {"label": "*4", "atom_type": "Ct"}, "2": {"label": "*3", "atom_type": "Cs"}, "6": {"label": "*2", "atom_type": "H0"}, "9": {"label": "*0", "atom_type": "S2s"}, "10": {"label": "*1", "atom_type": "Cs"}}

>  <type>  (13) 
unop_9

>  <geom_source>  (13) 
Heuristics

$$$$

     RDKit          3D

 18 16  0  0  0  0  0  0  0  0999 V2000
   -0.7833   -1.3918   -2.9011 C   0  0  0  0  0  0  0  0  0  0  0  0
   -0.7833   -1.3918   -1.7056 C   0  0  0  0  0  0  0  0  0  0  0  0
   -0.7833   -1.3918   -0.2426 C   0  0  0  0  0  3  0  0  0  0  0  0
   -2.0974   -1.1162    0.3386 C   0  0  0  0  0  0  0  0  0  0  0  0
   -3.1711   -0.8910    0.8135 C   0  0  0  0  0  0  0  0  0  0  0  0
   -0.7833   -1.3918   -3.9645 H   0  0  0  0  0  0  0  0  0  0  0  0
    0.0748   -0.4974    0.1885 H   0  0  0  0  0  0  0  0  0  0  0  0
   -0.4280   -2.3616    0.1166 H   0  0  0  0  0  0  0  0  0  0  0  0
   -4.1263   -0.6906    1.2360 H   0  0  0  0  0  0  0  0  0  0  0  0
    0.3158    1.9662   -0.0716 S   0  0  0  0  0  0  0  0  0  0  0  0
    0.9316    0.3956    0.6188 C   0  0  0  0  0  0  0  0  0  0  0  0
    2.4080    0.3995    0.8331 C   0  0  0  0  0  0  0  0  0  0  0  0
    2.9852    0.2428    2.0144 C   0  0  0  0  0  0  0  0  0  0  0  0
    0.7706    2.7502    0.9145 H   0  0  0  0  0  0  0  0  0  0  0  0
    0.3982    0.1624    1.5399 H   0  0  0  0  0  0  0  0  0  0  0  0
    3.0154    0.5606   -0.0524 H   0  0  0  0  0  0  0  0  0  0  0  0
    2.4002    0.0908    2.9152 H   0  0  0  0  0  0  0  0  0  0  0  0
    4.0620    0.2586    2.1234 H   0  0  0  0  0  0  0  0  0  0  0  0
  1  2  3  0
  1  6  1  0
  2  3  1  0
  3  4  1  0
  3  8  1  0
  4  5  3  0
  5  9  1  0
  7 11  1  0
 10 11  1  0
 10 14  1  0
 11 12  1  0
 11 15  1  0
 12 13  2  3
 12 16  1  0
 13 17  1  0
 13 18  1  0
M  RAD  1   3   2
M  END
>  <reaction>  (14) 
rxn_1375

>  <mol_properties>  (14) 
{"1": {"label": "*4", "atom_type": "Ct"}, "2": {"label": "*3", "atom_type": "Cs"}, "6": {"label": "*2", "atom_type": "H0"}, "9": {"label": "*0", "atom_type": "S2s"}, "10": {"label": "*1", "atom_type": "Cs"}}

>  <type>  (14) 
unop_10

>  <geom_source>  (14) 
Heuristics

$$$$

     RDKit          3D

 18 16  0  0  0  0  0  0  0  0999 V2000
   -0.4985   -1.1997   -3.2666 C   0  0  0  0  0  0  0  0  0  0  0  0
   -0.4985   -1.1997   -2.0711 C   0  0  0  0  0  0  0  0  0  0  0  0
   -0.4985   -1.1997   -0.6081 C   0  0  0  0  0  3  0  0  0  0  0  0
   -1.8125   -0.9241   -0.0269 C   0  0  0  0  0  0  0  0  0  0  0  0
   -2.8863   -0.6989    0.4480 C   0  0  0  0  0  0  0  0  0  0  0  0
   -0.4985   -1.1997   -4.3301 H   0  0  0  0  0  0  0  0  0  0  0  0
    0.3596   -0.3053   -0.1771 H   0  0  0  0  0  0  0  0  0  0  0  0
   -0.1432   -2.1695   -0.2489 H   0  0  0  0  0  0  0  0  0  0  0  0
   -3.8415   -0.4985    0.8704 H   0  0  0  0  0  0  0  0  0  0  0  0
    1.7946   -0.0870    1.8448 S   0  0  0  0  0  0  0  0  0  0  0  0
    1.2164    0.5877    0.2533 C   0  0  0  0  0  0  0  0  0  0  0  0
    0.0897    1.5527    0.4114 C   0  0  0  0  0  0  0  0  0  0  0  0
    0.1444    2.8223    0.0393 C   0  0  0  0  0  0  0  0  0  0  0  0
    2.0964    1.0917    2.4048 H   0  0  0  0  0  0  0  0  0  0  0  0
    2.0515    1.0380   -0.2825 H   0  0  0  0  0  0  0  0  0  0  0  0
   -0.8082    1.1610    0.8796 H   0  0  0  0  0  0  0  0  0  0  0  0
    1.0335    3.2401   -0.4209 H   0  0  0  0  0  0  0  0  0  0  0  0
   -0.6971    3.4885    0.1792 H   0  0  0  0  0  0  0  0  0  0  0  0
  1  2  3  0
  1  6  1  0
  2  3  1  0
  3  4  1  0
  3  8  1  0
  4  5  3  0
  5  9  1  0
  7 11  1  0
 10 11  1  0
 10 14  1  0
 11 12  1  0
 11 15  1  0
 12 13  2  3
 12 16  1  0
 13 17  1  0
 13 18  1  0
M  RAD  1   3   2
M  END
>  <reaction>  (15) 
rxn_1375

>  <mol_properties>  (15) 
{"1": {"label": "*4", "atom_type": "Ct"}, "2": {"label": "*3", "atom_type": "Cs"}, "6": {"label": "*2", "atom_type": "H0"}, "9": {"label": "*0", "atom_type": "S2s"}, "10": {"label": "*1", "atom_type": "Cs"}}

>  <type>  (15) 
unop_11

>  <geom_source>  (15) 
Heuristics

$$$$

     RDKit          3D

 18 16  0  0  0  0  0  0  0  0999 V2000
   -0.9815   -1.1202   -2.8309 C   0  0  0  0  0  0  0  0  0  0  0  0
   -0.9815   -1.1202   -1.6354 C   0  0  0  0  0  0  0  0  0  0  0  0
   -0.9815   -1.1202   -0.1724 C   0  0  0  0  0  3  0  0  0  0  0  0
   -2.2955   -0.8446    0.4088 C   0  0  0  0  0  0  0  0  0  0  0  0
   -3.3693   -0.6194    0.8837 C   0  0  0  0  0  0  0  0  0  0  0  0
   -0.9815   -1.1202   -3.8943 H   0  0  0  0  0  0  0  0  0  0  0  0
   -0.1234   -0.2258    0.2587 H   0  0  0  0  0  0  0  0  0  0  0  0
   -0.6261   -2.0900    0.1868 H   0  0  0  0  0  0  0  0  0  0  0  0
   -4.3245   -0.4190    1.3062 H   0  0  0  0  0  0  0  0  0  0  0  0
    1.4240    1.3870   -0.8366 S   0  0  0  0  0  0  0  0  0  0  0  0
    0.7334    0.6672    0.6890 C   0  0  0  0  0  0  0  0  0  0  0  0
    1.7736    0.0309    1.5485 C   0  0  0  0  0  0  0  0  0  0  0  0
    2.0503    0.4168    2.7846 C   0  0  0  0  0  0  0  0  0  0  0  0
    2.2844    2.2171   -0.2329 H   0  0  0  0  0  0  0  0  0  0  0  0
    0.1770    1.4269    1.2372 H   0  0  0  0  0  0  0  0  0  0  0  0
    2.3306   -0.7834    1.0951 H   0  0  0  0  0  0  0  0  0  0  0  0
    1.5154    1.2343    3.2561 H   0  0  0  0  0  0  0  0  0  0  0  0
    2.8189   -0.0713    3.3699 H   0  0  0  0  0  0  0  0  0  0  0  0
  1  2  3  0
  1  6  1  0
  2  3  1  0
  3  4  1  0
  3  8  1  0
  4  5  3  0
  5  9  1  0
  7 11  1  0
 10 11  1  0
 10 14  1  0
 11 12  1  0
 11 15  1  0
 12 13  2  3
 12 16  1  0
 13 17  1  0
 13 18  1  0
M  RAD  1   3   2
M  END
>  <reaction>  (16) 
rxn_1375

>  <mol_properties>  (16) 
{"1": {"label": "*4", "atom_type": "Ct"}, "2": {"label": "*3", "atom_type": "Cs"}, "6": {"label": "*2", "atom_type": "H0"}, "9": {"label": "*0", "atom_type": "S2s"}, "10": {"label": "*1", "atom_type": "Cs"}}

>  <type>  (16) 
unop_12

>  <geom_source>  (16) 
Heuristics

$$$$

     RDKit          3D

 18 16  0  0  0  0  0  0  0  0999 V2000
   -2.2584   -0.8092   -1.6325 S   0  0  0  0  0  0  0  0  0  0  0  0
   -1.0690   -0.6048   -0.2704 C   0  0  0  0  0  0  0  0  0  0  0  0
   -1.7215    0.0543    0.9082 C   0  0  0  0  0  0  0  0  0  0  0  0
   -2.6613   -0.5659    1.6272 C   0  0  0  0  0  0  0  0  0  0  0  0
    1.3209    0.3134   -0.8030 C   0  0  0  0  0  3  0  0  0  0  0  0
    1.6898    1.2669    0.2452 C   0  0  0  0  0  0  0  0  0  0  0  0
    2.4467   -0.5820   -1.0761 C   0  0  0  0  0  0  0  0  0  0  0  0
    1.9917    2.0527    1.1084 C   0  0  0  0  0  0  0  0  0  0  0  0
    3.3727   -1.3204   -1.3022 C   0  0  0  0  0  0  0  0  0  0  0  0
   -0.6667   -1.5975    0.0233 H   0  0  0  0  0  0  0  0  0  0  0  0
   -0.0482    0.1605   -0.6985 H   0  0  0  0  0  0  0  0  0  0  0  0
   -1.4003    1.0499    1.1977 H   0  0  0  0  0  0  0  0  0  0  0  0
   -3.1066   -0.0688    2.4829 H   0  0  0  0  0  0  0  0  0  0  0  0
   -2.9907   -1.5681    1.3697 H   0  0  0  0  0  0  0  0  0  0  0  0
    1.0536    0.8649   -1.7278 H   0  0  0  0  0  0  0  0  0  0  0  0
   -2.3949    0.5800   -1.8175 H   0  0  0  0  0  0  0  0  0  0  0  0
    2.2568    2.7425    1.8660 H   0  0  0  0  0  0  0  0  0  0  0  0
    4.1855   -1.9684   -1.5006 H   0  0  0  0  0  0  0  0  0  0  0  0
  1  2  1  0
  1 16  1  0
  2  3  1  0
  2 10  1  0
  2 11  1  0
  3  4  2  3
  3 12  1  0
  4 13  1  0
  4 14  1  0
  5  6  1  0
  5  7  1  0
  5 15  1  0
  6  8  3  0
  7  9  3  0
  8 17  1  0
  9 18  1  0
M  RAD  1   5   2
M  END
>  <reaction>  (17) 
rxn_1375

>  <mol_properties>  (17) 
{"1": {"label": "*4", "atom_type": "Ct"}, "2": {"label": "*3", "atom_type": "Cs"}, "6": {"label": "*2", "atom_type": "H0"}, "9": {"label": "*0", "atom_type": "S2s"}, "10": {"label": "*1", "atom_type": "Cs"}}

>  <type>  (17) 
unop_13

>  <geom_source>  (17) 
AutoTST

$$$$
