
     RDKit          3D

 19 20  0  0  0  0  0  0  0  0999 V2000
    1.1087   -0.4716   -0.9619 C   0  0  0  0  0  0  0  0  0  0  0  0
    0.9355    1.0407   -0.6470 C   0  0  0  0  0  0  0  0  0  0  0  0
   -0.0085    1.0377    0.5657 C   0  0  0  0  0  0  0  0  0  0  0  0
   -1.4093    0.6181    0.0927 C   0  0  0  0  0  0  0  0  0  0  0  0
   -1.2361   -0.8942   -0.2222 C   0  0  0  0  0  0  0  0  0  0  0  0
    0.2422   -1.1516    0.1099 C   0  0  0  0  0  0  0  0  0  0  0  0
    0.4537   -0.2211    1.3118 C   0  0  0  0  0  0  0  0  0  0  0  0
    2.1524   -0.7752   -0.8653 H   0  0  0  0  0  0  0  0  0  0  0  0
    0.7855   -0.7316   -1.9710 H   0  0  0  0  0  0  0  0  0  0  0  0
    1.8918    1.5001   -0.3916 H   0  0  0  0  0  0  0  0  0  0  0  0
    0.5184    1.6005   -1.4855 H   0  0  0  0  0  0  0  0  0  0  0  0
    0.0038    1.9661    1.1351 H   0  0  0  0  0  0  0  0  0  0  0  0
   -1.7351    1.1944   -0.7746 H   0  0  0  0  0  0  0  0  0  0  0  0
   -2.1465    0.7723    0.8824 H   0  0  0  0  0  0  0  0  0  0  0  0
   -1.4680   -1.1377   -1.2601 H   0  0  0  0  0  0  0  0  0  0  0  0
   -1.8859   -1.5030    0.4087 H   0  0  0  0  0  0  0  0  0  0  0  0
    0.4812   -2.2025    0.2673 H   0  0  0  0  0  0  0  0  0  0  0  0
    1.4942   -0.1701    1.6391 H   0  0  0  0  0  0  0  0  0  0  0  0
   -0.1779   -0.4714    2.1666 H   0  0  0  0  0  0  0  0  0  0  0  0
  1  2  1  0
  1  6  1  0
  1  8  1  0
  1  9  1  0
  2  3  1  0
  2 10  1  0
  2 11  1  0
  3  4  1  0
  3  7  1  0
  3 12  1  0
  4  5  1  0
  4 13  1  0
  4 14  1  0
  5  6  1  0
  5 15  1  0
  5 16  1  0
  6  7  1  0
  6 17  1  0
  7 18  1  0
  7 19  1  0
M  END
>  <reaction>  (1) 
rxn_491

>  <mol_properties>  (1) 
{"0": {"label": "donator", "atom_type": "Cs"}, "7": {"label": "d_hydrogen", "atom_type": "H0"}}

>  <type>  (1) 
r1h

$$$$

     RDKit          3D

  8  7  0  0  0  0  0  0  0  0999 V2000
   -1.2262   -0.1032    0.0429 C   0  0  0  0  0  0  0  0  0  0  0  0
    0.0344    0.4295    0.2005 C   0  0  0  0  0  0  0  0  0  0  0  0
    1.2024   -0.1933   -0.1813 C   0  0  0  0  0  3  0  0  0  0  0  0
   -2.1090    0.4329    0.3624 H   0  0  0  0  0  0  0  0  0  0  0  0
   -1.3659   -1.0784   -0.4078 H   0  0  0  0  0  0  0  0  0  0  0  0
    0.1132    1.4113    0.6589 H   0  0  0  0  0  0  0  0  0  0  0  0
    2.1658    0.2743   -0.0323 H   0  0  0  0  0  0  0  0  0  0  0  0
    1.1853   -1.1731   -0.6434 H   0  0  0  0  0  0  0  0  0  0  0  0
  1  2  2  3
  1  4  1  0
  1  5  1  0
  2  3  1  0
  2  6  1  0
  3  7  1  0
  3  8  1  0
M  RAD  1   3   2
M  END
>  <reaction>  (2) 
rxn_491

>  <mol_properties>  (2) 
{"2": {"label": "acceptor", "atom_type": "Cs"}}

>  <type>  (2) 
r2

$$$$

     RDKit          3D

  9  8  0  0  0  0  0  0  0  0999 V2000
    1.1303   -0.2933   -0.7510 C   0  0  0  0  0  0  0  0  0  0  0  0
    0.2866    0.4560   -0.0588 C   0  0  0  0  0  0  0  0  0  0  0  0
   -0.9719   -0.0331    0.5823 C   0  0  0  0  0  0  0  0  0  0  0  0
    2.0274    0.1230   -1.1916 H   0  0  0  0  0  0  0  0  0  0  0  0
    0.9532   -1.3530   -0.9023 H   0  0  0  0  0  0  0  0  0  0  0  0
    0.5065    1.5132    0.0659 H   0  0  0  0  0  0  0  0  0  0  0  0
   -0.9526    0.1426    1.6610 H   0  0  0  0  0  0  0  0  0  0  0  0
   -1.1182   -1.1002    0.4106 H   0  0  0  0  0  0  0  0  0  0  0  0
   -1.8412    0.5010    0.1901 H   0  0  0  0  0  0  0  0  0  0  0  0
  1  2  2  3
  1  4  1  0
  1  5  1  0
  2  3  1  0
  2  6  1  0
  3  7  1  0
  3  8  1  0
  3  9  1  0
M  END
>  <reaction>  (3) 
rxn_491

>  <mol_properties>  (3) 
{"2": {"label": "acceptor", "atom_type": "Cs"}, "8": {"label": "a_hydrogen", "atom_type": "H0"}}

>  <type>  (3) 
r2h

$$$$

     RDKit          3D

 27 27  0  0  0  0  0  0  0  0999 V2000
    2.4612   -3.0009   -0.1475 C   0  0  0  0  0  0  0  0  0  0  0  0
    2.3581   -1.7706    0.3630 C   0  0  0  0  0  0  0  0  0  0  0  0
    1.5442   -1.3998    1.5142 C   0  0  0  0  0  0  0  0  0  0  0  0
    3.0565   -3.1992   -1.0293 H   0  0  0  0  0  0  0  0  0  0  0  0
    1.9567   -3.8451    0.3096 H   0  0  0  0  0  0  0  0  0  0  0  0
    2.8868   -0.9617   -0.1355 H   0  0  0  0  0  0  0  0  0  0  0  0
    1.9245   -0.5651    2.0998 H   0  0  0  0  0  0  0  0  0  0  0  0
    1.2327   -2.2331    2.1416 H   0  0  0  0  0  0  0  0  0  0  0  0
   -0.7715   -0.3820    0.5795 C   0  0  0  0  0  3  0  0  0  0  0  0
   -0.6673   -0.4834   -0.9374 C   0  0  0  0  0  0  0  0  0  0  0  0
   -0.5613    0.9935   -1.3571 C   0  0  1  0  0  0  0  0  0  0  0  0
   -1.9260    1.6633   -1.1240 C   0  0  0  0  0  0  0  0  0  0  0  0
   -2.0258    1.7385    0.4248 C   0  0  0  0  0  0  0  0  0  0  0  0
   -0.6990    1.0992    0.8876 C   0  0  2  0  0  0  0  0  0  0  0  0
    0.2666    1.5803   -0.2056 C   0  0  0  0  0  0  0  0  0  0  0  0
    0.4131   -0.9273    1.0801 H   0  0  0  0  0  0  0  0  0  0  0  0
   -1.5411   -0.9627    1.0836 H   0  0  0  0  0  0  0  0  0  0  0  0
    0.2290   -1.0396   -1.2343 H   0  0  0  0  0  0  0  0  0  0  0  0
   -1.5233   -0.9882   -1.3905 H   0  0  0  0  0  0  0  0  0  0  0  0
   -0.1613    1.1402   -2.3592 H   0  0  0  0  0  0  0  0  0  0  0  0
   -2.7407    1.0914   -1.5705 H   0  0  0  0  0  0  0  0  0  0  0  0
   -1.9463    2.6606   -1.5660 H   0  0  0  0  0  0  0  0  0  0  0  0
   -2.8924    1.2066    0.8191 H   0  0  0  0  0  0  0  0  0  0  0  0
   -2.0915    2.7731    0.7678 H   0  0  0  0  0  0  0  0  0  0  0  0
   -0.4291    1.3356    1.9163 H   0  0  0  0  0  0  0  0  0  0  0  0
    1.2620    1.1404   -0.1225 H   0  0  0  0  0  0  0  0  0  0  0  0
    0.3567    2.6672   -0.2508 H   0  0  0  0  0  0  0  0  0  0  0  0
  1  2  2  3
  1  4  1  0
  1  5  1  0
  2  3  1  0
  2  6  1  0
  3  7  1  0
  3  8  1  0
  3 16  1  0
  9 10  1  0
  9 14  1  0
  9 17  1  0
 10 11  1  0
 10 18  1  0
 10 19  1  0
 11 12  1  0
 11 15  1  0
 11 20  1  6
 12 13  1  0
 12 21  1  0
 12 22  1  0
 13 14  1  0
 13 23  1  0
 13 24  1  0
 14 15  1  0
 14 25  1  1
 15 26  1  0
 15 27  1  0
M  RAD  1   9   2
M  END
>  <reaction>  (4) 
rxn_491

>  <mol_properties>  (4) 
{"1": {"label": "*0", "atom_type": "Cd"}, "2": {"label": "*1", "atom_type": "Cs"}, "8": {"label": "*3", "atom_type": "Cs"}, "9": {"label": "*4", "atom_type": "Cs"}, "15": {"label": "*2", "atom_type": "H0"}}

>  <type>  (4) 
ts

$$$$

     RDKit          3D

 27 27  0  0  0  0  0  0  0  0999 V2000
    3.4810   -1.1112    2.1515 C   0  0  0  0  0  0  0  0  0  0  0  0
    2.2020   -0.9650    1.8430 C   0  0  0  0  0  0  0  0  0  0  0  0
    1.4067   -1.9090    1.0001 C   0  0  0  0  0  3  0  0  0  0  0  0
    4.0010   -0.3893    2.7685 H   0  0  0  0  0  0  0  0  0  0  0  0
    4.0552   -1.9607    1.7970 H   0  0  0  0  0  0  0  0  0  0  0  0
    1.6680   -0.0972    2.2216 H   0  0  0  0  0  0  0  0  0  0  0  0
    0.5532   -2.3034    1.5574 H   0  0  0  0  0  0  0  0  0  0  0  0
    2.0139   -2.7495    0.6616 H   0  0  0  0  0  0  0  0  0  0  0  0
   -0.7400   -0.7364    0.0582 C   0  0  0  0  0  0  0  0  0  0  0  0
   -0.7400   -0.7364   -1.4962 C   0  0  0  0  0  0  0  0  0  0  0  0
   -0.7400    0.7606   -1.8441 C   0  0  0  0  0  0  0  0  0  0  0  0
   -2.1192    1.3424   -1.4962 C   0  0  0  0  0  0  0  0  0  0  0  0
   -2.1192    1.3424    0.0582 C   0  0  0  0  0  0  0  0  0  0  0  0
   -0.7400    0.7606    0.4061 C   0  0  0  0  0  0  0  0  0  0  0  0
    0.1296    1.3375   -0.7190 C   0  0  0  0  0  0  0  0  0  0  0  0
    0.3325   -1.3222    0.5288 H   0  0  0  0  0  0  0  0  0  0  0  0
   -1.6044   -1.2517    0.4795 H   0  0  0  0  0  0  0  0  0  0  0  0
    0.1538   -1.2246   -1.8883 H   0  0  0  0  0  0  0  0  0  0  0  0
   -1.6044   -1.2517   -1.9175 H   0  0  0  0  0  0  0  0  0  0  0  0
   -0.4155    0.9758   -2.8613 H   0  0  0  0  0  0  0  0  0  0  0  0
   -2.9300    0.7462   -1.9175 H   0  0  0  0  0  0  0  0  0  0  0  0
   -2.2216    2.3557   -1.8883 H   0  0  0  0  0  0  0  0  0  0  0  0
   -2.9300    0.7462    0.4795 H   0  0  0  0  0  0  0  0  0  0  0  0
   -2.2216    2.3557    0.4503 H   0  0  0  0  0  0  0  0  0  0  0  0
   -0.4155    0.9758    1.4233 H   0  0  0  0  0  0  0  0  0  0  0  0
    1.1491    0.9465   -0.7190 H   0  0  0  0  0  0  0  0  0  0  0  0
    0.1656    2.4289   -0.7190 H   0  0  0  0  0  0  0  0  0  0  0  0
  1  2  2  3
  1  4  1  0
  1  5  1  0
  2  3  1  0
  2  6  1  0
  3  7  1  0
  3  8  1  0
  9 10  1  0
  9 14  1  0
  9 16  1  0
  9 17  1  0
 10 11  1  0
 10 18  1  0
 10 19  1  0
 11 12  1  0
 11 15  1  0
 11 20  1  0
 12 13  1  0
 12 21  1  0
 12 22  1  0
 13 14  1  0
 13 23  1  0
 13 24  1  0
 14 15  1  0
 14 25  1  0
 15 26  1  0
 15 27  1  0
M  RAD  1   3   2
M  END
>  <reaction>  (5) 
rxn_491

>  <mol_properties>  (5) 
{"1": {"label": "*0", "atom_type": "Cd"}, "2": {"label": "*1", "atom_type": "Cs"}, "8": {"label": "*3", "atom_type": "Cs"}, "9": {"label": "*4", "atom_type": "Cs"}, "15": {"label": "*2", "atom_type": "H0"}}

>  <type>  (5) 
unop_1

>  <geom_source>  (5) 
Heuristics

$$$$

     RDKit          3D

 27 27  0  0  0  0  0  0  0  0999 V2000
    3.4037   -2.4531    0.1752 C   0  0  0  0  0  0  0  0  0  0  0  0
    2.5250   -1.5105    0.4781 C   0  0  0  0  0  0  0  0  0  0  0  0
    1.3731   -1.6772    1.4159 C   0  0  0  0  0  3  0  0  0  0  0  0
    4.2182   -2.2681   -0.5138 H   0  0  0  0  0  0  0  0  0  0  0  0
    3.3397   -3.4464    0.6070 H   0  0  0  0  0  0  0  0  0  0  0  0
    2.6301   -0.5303    0.0202 H   0  0  0  0  0  0  0  0  0  0  0  0
    1.4397   -0.9665    2.2437 H   0  0  0  0  0  0  0  0  0  0  0  0
    1.3393   -2.6854    1.8306 H   0  0  0  0  0  0  0  0  0  0  0  0
   -0.7735   -0.5045    0.4740 C   0  0  0  0  0  0  0  0  0  0  0  0
   -0.7735   -0.5045   -1.0803 C   0  0  0  0  0  0  0  0  0  0  0  0
   -0.7735    0.9925   -1.4283 C   0  0  0  0  0  0  0  0  0  0  0  0
   -2.1528    1.5743   -1.0803 C   0  0  0  0  0  0  0  0  0  0  0  0
   -2.1528    1.5743    0.4740 C   0  0  0  0  0  0  0  0  0  0  0  0
   -0.7735    0.9925    0.8220 C   0  0  0  0  0  0  0  0  0  0  0  0
    0.0960    1.5694   -0.3031 C   0  0  0  0  0  0  0  0  0  0  0  0
    0.2989   -1.0903    0.9446 H   0  0  0  0  0  0  0  0  0  0  0  0
   -1.6380   -1.0198    0.8954 H   0  0  0  0  0  0  0  0  0  0  0  0
    0.1202   -0.9927   -1.4725 H   0  0  0  0  0  0  0  0  0  0  0  0
   -1.6380   -1.0198   -1.5017 H   0  0  0  0  0  0  0  0  0  0  0  0
   -0.4491    1.2077   -2.4455 H   0  0  0  0  0  0  0  0  0  0  0  0
   -2.9636    0.9781   -1.5017 H   0  0  0  0  0  0  0  0  0  0  0  0
   -2.2552    2.5875   -1.4725 H   0  0  0  0  0  0  0  0  0  0  0  0
   -2.9636    0.9781    0.8954 H   0  0  0  0  0  0  0  0  0  0  0  0
   -2.2552    2.5875    0.8662 H   0  0  0  0  0  0  0  0  0  0  0  0
   -0.4491    1.2077    1.8392 H   0  0  0  0  0  0  0  0  0  0  0  0
    1.1155    1.1783   -0.3031 H   0  0  0  0  0  0  0  0  0  0  0  0
    0.1320    2.6608   -0.3031 H   0  0  0  0  0  0  0  0  0  0  0  0
  1  2  2  3
  1  4  1  0
  1  5  1  0
  2  3  1  0
  2  6  1  0
  3  7  1  0
  3  8  1  0
  9 10  1  0
  9 14  1  0
  9 16  1  0
  9 17  1  0
 10 11  1  0
 10 18  1  0
 10 19  1  0
 11 12  1  0
 11 15  1  0
 11 20  1  0
 12 13  1  0
 12 21  1  0
 12 22  1  0
 13 14  1  0
 13 23  1  0
 13 24  1  0
 14 15  1  0
 14 25  1  0
 15 26  1  0
 15 27  1  0
M  RAD  1   3   2
M  END
>  <reaction>  (6) 
rxn_491

>  <mol_properties>  (6) 
{"1": {"label": "*0", "atom_type": "Cd"}, "2": {"label": "*1", "atom_type": "Cs"}, "8": {"label": "*3", "atom_type": "Cs"}, "9": {"label": "*4", "atom_type": "Cs"}, "15": {"label": "*2", "atom_type": "H0"}}

>  <type>  (6) 
unop_2

>  <geom_source>  (6) 
Heuristics

$$$$

     RDKit          3D

 27 27  0  0  0  0  0  0  0  0999 V2000
    3.1172   -1.1913    2.6731 C   0  0  0  0  0  0  0  0  0  0  0  0
    1.8790   -1.2764    2.2126 C   0  0  0  0  0  0  0  0  0  0  0  0
    1.4901   -1.8598    0.8925 C   0  0  0  0  0  3  0  0  0  0  0  0
    3.3330   -0.7561    3.6408 H   0  0  0  0  0  0  0  0  0  0  0  0
    3.9616   -1.5548    2.0971 H   0  0  0  0  0  0  0  0  0  0  0  0
    1.0652   -0.8984    2.8260 H   0  0  0  0  0  0  0  0  0  0  0  0
    0.8020   -2.6986    1.0256 H   0  0  0  0  0  0  0  0  0  0  0  0
    2.3618   -2.2146    0.3411 H   0  0  0  0  0  0  0  0  0  0  0  0
   -0.6566   -0.6871   -0.0494 C   0  0  0  0  0  0  0  0  0  0  0  0
   -0.6566   -0.6871   -1.6037 C   0  0  0  0  0  0  0  0  0  0  0  0
   -0.6566    0.8098   -1.9517 C   0  0  0  0  0  0  0  0  0  0  0  0
   -2.0358    1.3917   -1.6037 C   0  0  0  0  0  0  0  0  0  0  0  0
   -2.0358    1.3917   -0.0494 C   0  0  0  0  0  0  0  0  0  0  0  0
   -0.6566    0.8098    0.2986 C   0  0  0  0  0  0  0  0  0  0  0  0
    0.2130    1.3868   -0.8265 C   0  0  0  0  0  0  0  0  0  0  0  0
    0.4159   -1.2730    0.4212 H   0  0  0  0  0  0  0  0  0  0  0  0
   -1.5210   -1.2024    0.3720 H   0  0  0  0  0  0  0  0  0  0  0  0
    0.2372   -1.1753   -1.9959 H   0  0  0  0  0  0  0  0  0  0  0  0
   -1.5210   -1.2024   -2.0251 H   0  0  0  0  0  0  0  0  0  0  0  0
   -0.3321    1.0251   -2.9689 H   0  0  0  0  0  0  0  0  0  0  0  0
   -2.8466    0.7955   -2.0251 H   0  0  0  0  0  0  0  0  0  0  0  0
   -2.1382    2.4049   -1.9959 H   0  0  0  0  0  0  0  0  0  0  0  0
   -2.8466    0.7955    0.3720 H   0  0  0  0  0  0  0  0  0  0  0  0
   -2.1382    2.4049    0.3428 H   0  0  0  0  0  0  0  0  0  0  0  0
   -0.3321    1.0251    1.3158 H   0  0  0  0  0  0  0  0  0  0  0  0
    1.2325    0.9957   -0.8265 H   0  0  0  0  0  0  0  0  0  0  0  0
    0.2489    2.4781   -0.8265 H   0  0  0  0  0  0  0  0  0  0  0  0
  1  2  2  3
  1  4  1  0
  1  5  1  0
  2  3  1  0
  2  6  1  0
  3  7  1  0
  3  8  1  0
  9 10  1  0
  9 14  1  0
  9 16  1  0
  9 17  1  0
 10 11  1  0
 10 18  1  0
 10 19  1  0
 11 12  1  0
 11 15  1  0
 11 20  1  0
 12 13  1  0
 12 21  1  0
 12 22  1  0
 13 14  1  0
 13 23  1  0
 13 24  1  0
 14 15  1  0
 14 25  1  0
 15 26  1  0
 15 27  1  0
M  RAD  1   3   2
M  END
>  <reaction>  (7) 
rxn_491

>  <mol_properties>  (7) 
{"1": {"label": "*0", "atom_type": "Cd"}, "2": {"label": "*1", "atom_type": "Cs"}, "8": {"label": "*3", "atom_type": "Cs"}, "9": {"label": "*4", "atom_type": "Cs"}, "15": {"label": "*2", "atom_type": "H0"}}

>  <type>  (7) 
unop_3

>  <geom_source>  (7) 
Heuristics

$$$$

     RDKit          3D

 27 27  0  0  0  0  0  0  0  0999 V2000
    1.2768   -3.8072    1.3957 C   0  0  0  0  0  0  0  0  0  0  0  0
    1.8077   -2.7718    0.7644 C   0  0  0  0  0  0  0  0  0  0  0  0
    1.7319   -1.3519    1.2251 C   0  0  0  0  0  3  0  0  0  0  0  0
    1.3675   -4.8141    1.0082 H   0  0  0  0  0  0  0  0  0  0  0  0
    0.7310   -3.6843    2.3252 H   0  0  0  0  0  0  0  0  0  0  0  0
    2.3458   -2.9445   -0.1641 H   0  0  0  0  0  0  0  0  0  0  0  0
    2.7322   -0.9388    1.3784 H   0  0  0  0  0  0  0  0  0  0  0  0
    1.1774   -1.2652    2.1604 H   0  0  0  0  0  0  0  0  0  0  0  0
   -0.4148   -0.1792    0.2833 C   0  0  0  0  0  0  0  0  0  0  0  0
   -0.4148   -0.1792   -1.2711 C   0  0  0  0  0  0  0  0  0  0  0  0
   -0.4148    1.3178   -1.6191 C   0  0  0  0  0  0  0  0  0  0  0  0
   -1.7940    1.8996   -1.2711 C   0  0  0  0  0  0  0  0  0  0  0  0
   -1.7940    1.8996    0.2833 C   0  0  0  0  0  0  0  0  0  0  0  0
   -0.4148    1.3178    0.6312 C   0  0  0  0  0  0  0  0  0  0  0  0
    0.4548    1.8947   -0.4939 C   0  0  0  0  0  0  0  0  0  0  0  0
    0.6577   -0.7650    0.7538 H   0  0  0  0  0  0  0  0  0  0  0  0
   -1.2793   -0.6945    0.7046 H   0  0  0  0  0  0  0  0  0  0  0  0
    0.4789   -0.6674   -1.6632 H   0  0  0  0  0  0  0  0  0  0  0  0
   -1.2793   -0.6945   -1.6924 H   0  0  0  0  0  0  0  0  0  0  0  0
   -0.0904    1.5330   -2.6363 H   0  0  0  0  0  0  0  0  0  0  0  0
   -2.6048    1.3034   -1.6924 H   0  0  0  0  0  0  0  0  0  0  0  0
   -1.8965    2.9128   -1.6632 H   0  0  0  0  0  0  0  0  0  0  0  0
   -2.6048    1.3034    0.7046 H   0  0  0  0  0  0  0  0  0  0  0  0
   -1.8965    2.9128    0.6754 H   0  0  0  0  0  0  0  0  0  0  0  0
   -0.0904    1.5330    1.6484 H   0  0  0  0  0  0  0  0  0  0  0  0
    1.4743    1.5036   -0.4939 H   0  0  0  0  0  0  0  0  0  0  0  0
    0.4907    2.9861   -0.4939 H   0  0  0  0  0  0  0  0  0  0  0  0
  1  2  2  3
  1  4  1  0
  1  5  1  0
  2  3  1  0
  2  6  1  0
  3  7  1  0
  3  8  1  0
  9 10  1  0
  9 14  1  0
  9 16  1  0
  9 17  1  0
 10 11  1  0
 10 18  1  0
 10 19  1  0
 11 12  1  0
 11 15  1  0
 11 20  1  0
 12 13  1  0
 12 21  1  0
 12 22  1  0
 13 14  1  0
 13 23  1  0
 13 24  1  0
 14 15  1  0
 14 25  1  0
 15 26  1  0
 15 27  1  0
M  RAD  1   3   2
M  END
>  <reaction>  (8) 
rxn_491

>  <mol_properties>  (8) 
{"1": {"label": "*0", "atom_type": "Cd"}, "2": {"label": "*1", "atom_type": "Cs"}, "8": {"label": "*3", "atom_type": "Cs"}, "9": {"label": "*4", "atom_type": "Cs"}, "15": {"label": "*2", "atom_type": "H0"}}

>  <type>  (8) 
unop_4

>  <geom_source>  (8) 
Heuristics

$$$$

     RDKit          3D

 27 27  0  0  0  0  0  0  0  0999 V2000
    2.5207   -1.2399    3.0878 C   0  0  0  0  0  0  0  0  0  0  0  0
    1.5914   -1.7919    2.3236 C   0  0  0  0  0  0  0  0  0  0  0  0
    1.5964   -1.7947    0.8289 C   0  0  0  0  0  3  0  0  0  0  0  0
    2.4586   -1.2725    4.1682 H   0  0  0  0  0  0  0  0  0  0  0  0
    3.3793   -0.7341    2.6587 H   0  0  0  0  0  0  0  0  0  0  0  0
    0.7492   -2.2879    2.7992 H   0  0  0  0  0  0  0  0  0  0  0  0
    1.5943   -2.8169    0.4418 H   0  0  0  0  0  0  0  0  0  0  0  0
    2.4717   -1.2789    0.4322 H   0  0  0  0  0  0  0  0  0  0  0  0
   -0.5503   -0.6220   -0.1130 C   0  0  0  0  0  0  0  0  0  0  0  0
   -0.5503   -0.6220   -1.6674 C   0  0  0  0  0  0  0  0  0  0  0  0
   -0.5503    0.8750   -2.0153 C   0  0  0  0  0  0  0  0  0  0  0  0
   -1.9295    1.4568   -1.6674 C   0  0  0  0  0  0  0  0  0  0  0  0
   -1.9295    1.4568   -0.1130 C   0  0  0  0  0  0  0  0  0  0  0  0
   -0.5503    0.8750    0.2349 C   0  0  0  0  0  0  0  0  0  0  0  0
    0.3193    1.4519   -0.8902 C   0  0  0  0  0  0  0  0  0  0  0  0
    0.5222   -1.2078    0.3575 H   0  0  0  0  0  0  0  0  0  0  0  0
   -1.4148   -1.1373    0.3083 H   0  0  0  0  0  0  0  0  0  0  0  0
    0.3434   -1.1102   -2.0595 H   0  0  0  0  0  0  0  0  0  0  0  0
   -1.4148   -1.1373   -2.0887 H   0  0  0  0  0  0  0  0  0  0  0  0
   -0.2259    1.0902   -3.0325 H   0  0  0  0  0  0  0  0  0  0  0  0
   -2.7404    0.8606   -2.0887 H   0  0  0  0  0  0  0  0  0  0  0  0
   -2.0320    2.4700   -2.0595 H   0  0  0  0  0  0  0  0  0  0  0  0
   -2.7404    0.8606    0.3083 H   0  0  0  0  0  0  0  0  0  0  0  0
   -2.0320    2.4700    0.2791 H   0  0  0  0  0  0  0  0  0  0  0  0
   -0.2259    1.0902    1.2521 H   0  0  0  0  0  0  0  0  0  0  0  0
    1.3388    1.0608   -0.8902 H   0  0  0  0  0  0  0  0  0  0  0  0
    0.3552    2.5433   -0.8902 H   0  0  0  0  0  0  0  0  0  0  0  0
  1  2  2  3
  1  4  1  0
  1  5  1  0
  2  3  1  0
  2  6  1  0
  3  7  1  0
  3  8  1  0
  9 10  1  0
  9 14  1  0
  9 16  1  0
  9 17  1  0
 10 11  1  0
 10 18  1  0
 10 19  1  0
 11 12  1  0
 11 15  1  0
 11 20  1  0
 12 13  1  0
 12 21  1  0
 12 22  1  0
 13 14  1  0
 13 23  1  0
 13 24  1  0
 14 15  1  0
 14 25  1  0
 15 26  1  0
 15 27  1  0
M  RAD  1   3   2
M  END
>  <reaction>  (9) 
rxn_491

>  <mol_properties>  (9) 
{"1": {"label": "*0", "atom_type": "Cd"}, "2": {"label": "*1", "atom_type": "Cs"}, "8": {"label": "*3", "atom_type": "Cs"}, "9": {"label": "*4", "atom_type": "Cs"}, "15": {"label": "*2", "atom_type": "H0"}}

>  <type>  (9) 
unop_5

>  <geom_source>  (9) 
Heuristics

$$$$

     RDKit          3D

 27 27  0  0  0  0  0  0  0  0999 V2000
    0.9609   -3.4040    2.2879 C   0  0  0  0  0  0  0  0  0  0  0  0
    1.5666   -2.8589    1.2447 C   0  0  0  0  0  0  0  0  0  0  0  0
    1.8007   -1.3951    1.0536 C   0  0  0  0  0  3  0  0  0  0  0  0
    0.8222   -4.4749    2.3666 H   0  0  0  0  0  0  0  0  0  0  0  0
    0.5811   -2.7968    3.1029 H   0  0  0  0  0  0  0  0  0  0  0  0
    1.9304   -3.5081    0.4524 H   0  0  0  0  0  0  0  0  0  0  0  0
    2.8684   -1.1811    0.9589 H   0  0  0  0  0  0  0  0  0  0  0  0
    1.4071   -0.8159    1.8897 H   0  0  0  0  0  0  0  0  0  0  0  0
   -0.3460   -0.2224    0.1117 C   0  0  0  0  0  0  0  0  0  0  0  0
   -0.3460   -0.2224   -1.4427 C   0  0  0  0  0  0  0  0  0  0  0  0
   -0.3460    1.2746   -1.7906 C   0  0  0  0  0  0  0  0  0  0  0  0
   -1.7252    1.8564   -1.4427 C   0  0  0  0  0  0  0  0  0  0  0  0
   -1.7252    1.8564    0.1117 C   0  0  0  0  0  0  0  0  0  0  0  0
   -0.3460    1.2746    0.4596 C   0  0  0  0  0  0  0  0  0  0  0  0
    0.5236    1.8515   -0.6655 C   0  0  0  0  0  0  0  0  0  0  0  0
    0.7265   -0.8082    0.5822 H   0  0  0  0  0  0  0  0  0  0  0  0
   -1.2105   -0.7377    0.5330 H   0  0  0  0  0  0  0  0  0  0  0  0
    0.5477   -0.7106   -1.8348 H   0  0  0  0  0  0  0  0  0  0  0  0
   -1.2105   -0.7377   -1.8640 H   0  0  0  0  0  0  0  0  0  0  0  0
   -0.0216    1.4898   -2.8078 H   0  0  0  0  0  0  0  0  0  0  0  0
   -2.5361    1.2602   -1.8640 H   0  0  0  0  0  0  0  0  0  0  0  0
   -1.8277    2.8696   -1.8348 H   0  0  0  0  0  0  0  0  0  0  0  0
   -2.5360    1.2602    0.5330 H   0  0  0  0  0  0  0  0  0  0  0  0
   -1.8277    2.8696    0.5038 H   0  0  0  0  0  0  0  0  0  0  0  0
   -0.0216    1.4898    1.4768 H   0  0  0  0  0  0  0  0  0  0  0  0
    1.5431    1.4604   -0.6655 H   0  0  0  0  0  0  0  0  0  0  0  0
    0.5595    2.9429   -0.6655 H   0  0  0  0  0  0  0  0  0  0  0  0
  1  2  2  3
  1  4  1  0
  1  5  1  0
  2  3  1  0
  2  6  1  0
  3  7  1  0
  3  8  1  0
  9 10  1  0
  9 14  1  0
  9 16  1  0
  9 17  1  0
 10 11  1  0
 10 18  1  0
 10 19  1  0
 11 12  1  0
 11 15  1  0
 11 20  1  0
 12 13  1  0
 12 21  1  0
 12 22  1  0
 13 14  1  0
 13 23  1  0
 13 24  1  0
 14 15  1  0
 14 25  1  0
 15 26  1  0
 15 27  1  0
M  RAD  1   3   2
M  END
>  <reaction>  (10) 
rxn_491

>  <mol_properties>  (10) 
{"1": {"label": "*0", "atom_type": "Cd"}, "2": {"label": "*1", "atom_type": "Cs"}, "8": {"label": "*3", "atom_type": "Cs"}, "9": {"label": "*4", "atom_type": "Cs"}, "15": {"label": "*2", "atom_type": "H0"}}

>  <type>  (10) 
unop_6

>  <geom_source>  (10) 
Heuristics

$$$$

     RDKit          3D

 27 27  0  0  0  0  0  0  0  0999 V2000
    1.0556   -2.6366    3.0117 C   0  0  0  0  0  0  0  0  0  0  0  0
    1.4378   -2.6938    1.7456 C   0  0  0  0  0  0  0  0  0  0  0  0
    1.8025   -1.5145    0.9027 C   0  0  0  0  0  3  0  0  0  0  0  0
    0.8043   -3.5305    3.5685 H   0  0  0  0  0  0  0  0  0  0  0  0
    0.9803   -1.6909    3.5380 H   0  0  0  0  0  0  0  0  0  0  0  0
    1.4983   -3.6646    1.2604 H   0  0  0  0  0  0  0  0  0  0  0  0
    2.8283   -1.6013    0.5354 H   0  0  0  0  0  0  0  0  0  0  0  0
    1.7157   -0.5823    1.4624 H   0  0  0  0  0  0  0  0  0  0  0  0
   -0.3442   -0.3418   -0.0392 C   0  0  0  0  0  0  0  0  0  0  0  0
   -0.3442   -0.3418   -1.5935 C   0  0  0  0  0  0  0  0  0  0  0  0
   -0.3442    1.1551   -1.9415 C   0  0  0  0  0  0  0  0  0  0  0  0
   -1.7235    1.7370   -1.5935 C   0  0  0  0  0  0  0  0  0  0  0  0
   -1.7235    1.7370   -0.0392 C   0  0  0  0  0  0  0  0  0  0  0  0
   -0.3442    1.1551    0.3088 C   0  0  0  0  0  0  0  0  0  0  0  0
    0.5253    1.7321   -0.8163 C   0  0  0  0  0  0  0  0  0  0  0  0
    0.7282   -0.9277    0.4314 H   0  0  0  0  0  0  0  0  0  0  0  0
   -1.2087   -0.8571    0.3822 H   0  0  0  0  0  0  0  0  0  0  0  0
    0.5495   -0.8300   -1.9857 H   0  0  0  0  0  0  0  0  0  0  0  0
   -1.2087   -0.8571   -2.0149 H   0  0  0  0  0  0  0  0  0  0  0  0
   -0.0198    1.3704   -2.9587 H   0  0  0  0  0  0  0  0  0  0  0  0
   -2.5343    1.1408   -2.0149 H   0  0  0  0  0  0  0  0  0  0  0  0
   -1.8259    2.7502   -1.9857 H   0  0  0  0  0  0  0  0  0  0  0  0
   -2.5343    1.1408    0.3822 H   0  0  0  0  0  0  0  0  0  0  0  0
   -1.8259    2.7502    0.3530 H   0  0  0  0  0  0  0  0  0  0  0  0
   -0.0198    1.3704    1.3260 H   0  0  0  0  0  0  0  0  0  0  0  0
    1.5448    1.3410   -0.8163 H   0  0  0  0  0  0  0  0  0  0  0  0
    0.5613    2.8234   -0.8163 H   0  0  0  0  0  0  0  0  0  0  0  0
  1  2  2  3
  1  4  1  0
  1  5  1  0
  2  3  1  0
  2  6  1  0
  3  7  1  0
  3  8  1  0
  9 10  1  0
  9 14  1  0
  9 16  1  0
  9 17  1  0
 10 11  1  0
 10 18  1  0
 10 19  1  0
 11 12  1  0
 11 15  1  0
 11 20  1  0
 12 13  1  0
 12 21  1  0
 12 22  1  0
 13 14  1  0
 13 23  1  0
 13 24  1  0
 14 15  1  0
 14 25  1  0
 15 26  1  0
 15 27  1  0
M  RAD  1   3   2
M  END
>  <reaction>  (11) 
rxn_491

>  <mol_properties>  (11) 
{"1": {"label": "*0", "atom_type": "Cd"}, "2": {"label": "*1", "atom_type": "Cs"}, "8": {"label": "*3", "atom_type": "Cs"}, "9": {"label": "*4", "atom_type": "Cs"}, "15": {"label": "*2", "atom_type": "H0"}}

>  <type>  (11) 
unop_7

>  <geom_source>  (11) 
Heuristics

$$$$

     RDKit          3D

 27 27  0  0  0  0  0  0  0  0999 V2000
    3.7344   -1.2188    1.4344 C   0  0  0  0  0  0  0  0  0  0  0  0
    2.4491   -0.9160    1.3413 C   0  0  0  0  0  0  0  0  0  0  0  0
    1.3439   -1.9040    1.1502 C   0  0  0  0  0  3  0  0  0  0  0  0
    4.4881   -0.4539    1.5728 H   0  0  0  0  0  0  0  0  0  0  0  0
    4.0797   -2.2457    1.3753 H   0  0  0  0  0  0  0  0  0  0  0  0
    2.1511    0.1273    1.4062 H   0  0  0  0  0  0  0  0  0  0  0  0
    0.6265   -1.8490    1.9730 H   0  0  0  0  0  0  0  0  0  0  0  0
    1.7261   -2.9240    1.0951 H   0  0  0  0  0  0  0  0  0  0  0  0
   -0.8028   -0.7313    0.2083 C   0  0  0  0  0  0  0  0  0  0  0  0
   -0.8028   -0.7313   -1.3461 C   0  0  0  0  0  0  0  0  0  0  0  0
   -0.8028    0.7657   -1.6940 C   0  0  0  0  0  0  0  0  0  0  0  0
   -2.1820    1.3475   -1.3461 C   0  0  0  0  0  0  0  0  0  0  0  0
   -2.1820    1.3475    0.2083 C   0  0  0  0  0  0  0  0  0  0  0  0
   -0.8028    0.7657    0.5562 C   0  0  0  0  0  0  0  0  0  0  0  0
    0.0668    1.3426   -0.5689 C   0  0  0  0  0  0  0  0  0  0  0  0
    0.2697   -1.3172    0.6788 H   0  0  0  0  0  0  0  0  0  0  0  0
   -1.6673   -1.2466    0.6296 H   0  0  0  0  0  0  0  0  0  0  0  0
    0.0909   -1.2195   -1.7382 H   0  0  0  0  0  0  0  0  0  0  0  0
   -1.6673   -1.2466   -1.7674 H   0  0  0  0  0  0  0  0  0  0  0  0
   -0.4784    0.9809   -2.7112 H   0  0  0  0  0  0  0  0  0  0  0  0
   -2.9929    0.7513   -1.7674 H   0  0  0  0  0  0  0  0  0  0  0  0
   -2.2845    2.3607   -1.7382 H   0  0  0  0  0  0  0  0  0  0  0  0
   -2.9929    0.7513    0.6296 H   0  0  0  0  0  0  0  0  0  0  0  0
   -2.2845    2.3607    0.6004 H   0  0  0  0  0  0  0  0  0  0  0  0
   -0.4784    0.9809    1.5734 H   0  0  0  0  0  0  0  0  0  0  0  0
    1.0863    0.9515   -0.5689 H   0  0  0  0  0  0  0  0  0  0  0  0
    0.1027    2.4339   -0.5689 H   0  0  0  0  0  0  0  0  0  0  0  0
  1  2  2  3
  1  4  1  0
  1  5  1  0
  2  3  1  0
  2  6  1  0
  3  7  1  0
  3  8  1  0
  9 10  1  0
  9 14  1  0
  9 16  1  0
  9 17  1  0
 10 11  1  0
 10 18  1  0
 10 19  1  0
 11 12  1  0
 11 15  1  0
 11 20  1  0
 12 13  1  0
 12 21  1  0
 12 22  1  0
 13 14  1  0
 13 23  1  0
 13 24  1  0
 14 15  1  0
 14 25  1  0
 15 26  1  0
 15 27  1  0
M  RAD  1   3   2
M  END
>  <reaction>  (12) 
rxn_491

>  <mol_properties>  (12) 
{"1": {"label": "*0", "atom_type": "Cd"}, "2": {"label": "*1", "atom_type": "Cs"}, "8": {"label": "*3", "atom_type": "Cs"}, "9": {"label": "*4", "atom_type": "Cs"}, "15": {"label": "*2", "atom_type": "H0"}}

>  <type>  (12) 
unop_8

>  <geom_source>  (12) 
Heuristics

$$$$

     RDKit          3D

 27 27  0  0  0  0  0  0  0  0999 V2000
    1.9175   -3.7561    0.5937 C   0  0  0  0  0  0  0  0  0  0  0  0
    2.0969   -2.4547    0.4307 C   0  0  0  0  0  0  0  0  0  0  0  0
    1.6147   -1.3954    1.3686 C   0  0  0  0  0  3  0  0  0  0  0  0
    2.2928   -4.4740   -0.1246 H   0  0  0  0  0  0  0  0  0  0  0  0
    1.3872   -4.1509    1.4540 H   0  0  0  0  0  0  0  0  0  0  0  0
    2.6346   -2.1063   -0.4474 H   0  0  0  0  0  0  0  0  0  0  0  0
    2.4504   -0.8009    1.7465 H   0  0  0  0  0  0  0  0  0  0  0  0
    1.0872   -1.8269    2.2201 H   0  0  0  0  0  0  0  0  0  0  0  0
   -0.5320   -0.2227    0.4267 C   0  0  0  0  0  0  0  0  0  0  0  0
   -0.5320   -0.2227   -1.1277 C   0  0  0  0  0  0  0  0  0  0  0  0
   -0.5320    1.2742   -1.4756 C   0  0  0  0  0  0  0  0  0  0  0  0
   -1.9112    1.8561   -1.1277 C   0  0  0  0  0  0  0  0  0  0  0  0
   -1.9112    1.8561    0.4267 C   0  0  0  0  0  0  0  0  0  0  0  0
   -0.5320    1.2742    0.7746 C   0  0  0  0  0  0  0  0  0  0  0  0
    0.3376    1.8512   -0.3505 C   0  0  0  0  0  0  0  0  0  0  0  0
    0.5405   -0.8086    0.8972 H   0  0  0  0  0  0  0  0  0  0  0  0
   -1.3965   -0.7380    0.8480 H   0  0  0  0  0  0  0  0  0  0  0  0
    0.3618   -0.7110   -1.5198 H   0  0  0  0  0  0  0  0  0  0  0  0
   -1.3965   -0.7380   -1.5490 H   0  0  0  0  0  0  0  0  0  0  0  0
   -0.2075    1.4895   -2.4928 H   0  0  0  0  0  0  0  0  0  0  0  0
   -2.7220    1.2599   -1.5490 H   0  0  0  0  0  0  0  0  0  0  0  0
   -2.0137    2.8693   -1.5198 H   0  0  0  0  0  0  0  0  0  0  0  0
   -2.7220    1.2599    0.8480 H   0  0  0  0  0  0  0  0  0  0  0  0
   -2.0137    2.8693    0.8188 H   0  0  0  0  0  0  0  0  0  0  0  0
   -0.2075    1.4895    1.7918 H   0  0  0  0  0  0  0  0  0  0  0  0
    1.3571    1.4601   -0.3505 H   0  0  0  0  0  0  0  0  0  0  0  0
    0.3735    2.9425   -0.3505 H   0  0  0  0  0  0  0  0  0  0  0  0
  1  2  2  3
  1  4  1  0
  1  5  1  0
  2  3  1  0
  2  6  1  0
  3  7  1  0
  3  8  1  0
  9 10  1  0
  9 14  1  0
  9 16  1  0
  9 17  1  0
 10 11  1  0
 10 18  1  0
 10 19  1  0
 11 12  1  0
 11 15  1  0
 11 20  1  0
 12 13  1  0
 12 21  1  0
 12 22  1  0
 13 14  1  0
 13 23  1  0
 13 24  1  0
 14 15  1  0
 14 25  1  0
 15 26  1  0
 15 27  1  0
M  RAD  1   3   2
M  END
>  <reaction>  (13) 
rxn_491

>  <mol_properties>  (13) 
{"1": {"label": "*0", "atom_type": "Cd"}, "2": {"label": "*1", "atom_type": "Cs"}, "8": {"label": "*3", "atom_type": "Cs"}, "9": {"label": "*4", "atom_type": "Cs"}, "15": {"label": "*2", "atom_type": "H0"}}

>  <type>  (13) 
unop_9

>  <geom_source>  (13) 
Heuristics

$$$$

     RDKit          3D

 27 27  0  0  0  0  0  0  0  0999 V2000
    3.7480   -1.6857    0.6867 C   0  0  0  0  0  0  0  0  0  0  0  0
    2.5623   -1.1186    0.8447 C   0  0  0  0  0  0  0  0  0  0  0  0
    1.3266   -1.8220    1.3054 C   0  0  0  0  0  3  0  0  0  0  0  0
    4.6065   -1.1189    0.3488 H   0  0  0  0  0  0  0  0  0  0  0  0
    3.9028   -2.7400    0.8902 H   0  0  0  0  0  0  0  0  0  0  0  0
    2.4559   -0.0587    0.6281 H   0  0  0  0  0  0  0  0  0  0  0  0
    0.9388   -1.3677    2.2208 H   0  0  0  0  0  0  0  0  0  0  0  0
    1.5181   -2.8779    1.5004 H   0  0  0  0  0  0  0  0  0  0  0  0
   -0.8201   -0.6493    0.3635 C   0  0  0  0  0  0  0  0  0  0  0  0
   -0.8201   -0.6493   -1.1909 C   0  0  0  0  0  0  0  0  0  0  0  0
   -0.8201    0.8476   -1.5388 C   0  0  0  0  0  0  0  0  0  0  0  0
   -2.1994    1.4294   -1.1909 C   0  0  0  0  0  0  0  0  0  0  0  0
   -2.1994    1.4294    0.3635 C   0  0  0  0  0  0  0  0  0  0  0  0
   -0.8201    0.8476    0.7115 C   0  0  0  0  0  0  0  0  0  0  0  0
    0.0494    1.4245   -0.4137 C   0  0  0  0  0  0  0  0  0  0  0  0
    0.2523   -1.2352    0.8341 H   0  0  0  0  0  0  0  0  0  0  0  0
   -1.6846   -1.1647    0.7849 H   0  0  0  0  0  0  0  0  0  0  0  0
    0.0736   -1.1376   -1.5830 H   0  0  0  0  0  0  0  0  0  0  0  0
   -1.6846   -1.1647   -1.6122 H   0  0  0  0  0  0  0  0  0  0  0  0
   -0.4957    1.0629   -2.5560 H   0  0  0  0  0  0  0  0  0  0  0  0
   -3.0102    0.8332   -1.6122 H   0  0  0  0  0  0  0  0  0  0  0  0
   -2.3018    2.4427   -1.5830 H   0  0  0  0  0  0  0  0  0  0  0  0
   -3.0102    0.8332    0.7849 H   0  0  0  0  0  0  0  0  0  0  0  0
   -2.3018    2.4427    0.7556 H   0  0  0  0  0  0  0  0  0  0  0  0
   -0.4957    1.0629    1.7287 H   0  0  0  0  0  0  0  0  0  0  0  0
    1.0689    1.0335   -0.4137 H   0  0  0  0  0  0  0  0  0  0  0  0
    0.0854    2.5159   -0.4137 H   0  0  0  0  0  0  0  0  0  0  0  0
  1  2  2  3
  1  4  1  0
  1  5  1  0
  2  3  1  0
  2  6  1  0
  3  7  1  0
  3  8  1  0
  9 10  1  0
  9 14  1  0
  9 16  1  0
  9 17  1  0
 10 11  1  0
 10 18  1  0
 10 19  1  0
 11 12  1  0
 11 15  1  0
 11 20  1  0
 12 13  1  0
 12 21  1  0
 12 22  1  0
 13 14  1  0
 13 23  1  0
 13 24  1  0
 14 15  1  0
 14 25  1  0
 15 26  1  0
 15 27  1  0
M  RAD  1   3   2
M  END
>  <reaction>  (14) 
rxn_491

>  <mol_properties>  (14) 
{"1": {"label": "*0", "atom_type": "Cd"}, "2": {"label": "*1", "atom_type": "Cs"}, "8": {"label": "*3", "atom_type": "Cs"}, "9": {"label": "*4", "atom_type": "Cs"}, "15": {"label": "*2", "atom_type": "H0"}}

>  <type>  (14) 
unop_10

>  <geom_source>  (14) 
Heuristics

$$$$

     RDKit          3D

 27 27  0  0  0  0  0  0  0  0999 V2000
    1.6212   -1.7410    3.3192 C   0  0  0  0  0  0  0  0  0  0  0  0
    1.4466   -2.3156    2.1395 C   0  0  0  0  0  0  0  0  0  0  0  0
    1.7274   -1.6731    0.8194 C   0  0  0  0  0  3  0  0  0  0  0  0
    1.3982   -2.2622    4.2417 H   0  0  0  0  0  0  0  0  0  0  0  0
    1.9943   -0.7259    3.4046 H   0  0  0  0  0  0  0  0  0  0  0  0
    1.0703   -3.3348    2.1041 H   0  0  0  0  0  0  0  0  0  0  0  0
    2.4698   -2.2462    0.2580 H   0  0  0  0  0  0  0  0  0  0  0  0
    2.1003   -0.6555    0.9426 H   0  0  0  0  0  0  0  0  0  0  0  0
   -0.4193   -0.5004   -0.1225 C   0  0  0  0  0  0  0  0  0  0  0  0
   -0.4193   -0.5004   -1.6769 C   0  0  0  0  0  0  0  0  0  0  0  0
   -0.4193    0.9965   -2.0248 C   0  0  0  0  0  0  0  0  0  0  0  0
   -1.7985    1.5784   -1.6769 C   0  0  0  0  0  0  0  0  0  0  0  0
   -1.7985    1.5784   -0.1225 C   0  0  0  0  0  0  0  0  0  0  0  0
   -0.4193    0.9965    0.2255 C   0  0  0  0  0  0  0  0  0  0  0  0
    0.4503    1.5735   -0.8997 C   0  0  0  0  0  0  0  0  0  0  0  0
    0.6532   -1.0863    0.3481 H   0  0  0  0  0  0  0  0  0  0  0  0
   -1.2837   -1.0157    0.2989 H   0  0  0  0  0  0  0  0  0  0  0  0
    0.4745   -0.9886   -2.0690 H   0  0  0  0  0  0  0  0  0  0  0  0
   -1.2837   -1.0157   -2.0982 H   0  0  0  0  0  0  0  0  0  0  0  0
   -0.0948    1.2118   -3.0420 H   0  0  0  0  0  0  0  0  0  0  0  0
   -2.6093    0.9822   -2.0982 H   0  0  0  0  0  0  0  0  0  0  0  0
   -1.9009    2.5916   -2.0690 H   0  0  0  0  0  0  0  0  0  0  0  0
   -2.6093    0.9822    0.2989 H   0  0  0  0  0  0  0  0  0  0  0  0
   -1.9009    2.5916    0.2697 H   0  0  0  0  0  0  0  0  0  0  0  0
   -0.0948    1.2118    1.2427 H   0  0  0  0  0  0  0  0  0  0  0  0
    1.4698    1.1824   -0.8997 H   0  0  0  0  0  0  0  0  0  0  0  0
    0.4862    2.6648   -0.8997 H   0  0  0  0  0  0  0  0  0  0  0  0
  1  2  2  3
  1  4  1  0
  1  5  1  0
  2  3  1  0
  2  6  1  0
  3  7  1  0
  3  8  1  0
  9 10  1  0
  9 14  1  0
  9 16  1  0
  9 17  1  0
 10 11  1  0
 10 18  1  0
 10 19  1  0
 11 12  1  0
 11 15  1  0
 11 20  1  0
 12 13  1  0
 12 21  1  0
 12 22  1  0
 13 14  1  0
 13 23  1  0
 13 24  1  0
 14 15  1  0
 14 25  1  0
 15 26  1  0
 15 27  1  0
M  RAD  1   3   2
M  END
>  <reaction>  (15) 
rxn_491

>  <mol_properties>  (15) 
{"1": {"label": "*0", "atom_type": "Cd"}, "2": {"label": "*1", "atom_type": "Cs"}, "8": {"label": "*3", "atom_type": "Cs"}, "9": {"label": "*4", "atom_type": "Cs"}, "15": {"label": "*2", "atom_type": "H0"}}

>  <type>  (15) 
unop_11

>  <geom_source>  (15) 
Heuristics

$$$$

     RDKit          3D

 27 27  0  0  0  0  0  0  0  0999 V2000
    2.7190   -3.2521    0.1306 C   0  0  0  0  0  0  0  0  0  0  0  0
    2.3564   -1.9944    0.3280 C   0  0  0  0  0  0  0  0  0  0  0  0
    1.4804   -1.5158    1.4405 C   0  0  0  0  0  3  0  0  0  0  0  0
    3.3576   -3.5344   -0.6970 H   0  0  0  0  0  0  0  0  0  0  0  0
    2.3890   -4.0467    0.7915 H   0  0  0  0  0  0  0  0  0  0  0  0
    2.7122   -1.2327   -0.3611 H   0  0  0  0  0  0  0  0  0  0  0  0
    2.0009   -0.7768    2.0550 H   0  0  0  0  0  0  0  0  0  0  0  0
    1.1678   -2.3390    2.0841 H   0  0  0  0  0  0  0  0  0  0  0  0
   -0.6663   -0.3431    0.4986 C   0  0  0  0  0  0  0  0  0  0  0  0
   -0.6663   -0.3431   -1.0558 C   0  0  0  0  0  0  0  0  0  0  0  0
   -0.6663    1.1538   -1.4037 C   0  0  0  0  0  0  0  0  0  0  0  0
   -2.0456    1.7357   -1.0558 C   0  0  0  0  0  0  0  0  0  0  0  0
   -2.0456    1.7357    0.4986 C   0  0  0  0  0  0  0  0  0  0  0  0
   -0.6663    1.1538    0.8465 C   0  0  0  0  0  0  0  0  0  0  0  0
    0.2033    1.7308   -0.2786 C   0  0  0  0  0  0  0  0  0  0  0  0
    0.4062   -0.9290    0.9692 H   0  0  0  0  0  0  0  0  0  0  0  0
   -1.5308   -0.8584    0.9199 H   0  0  0  0  0  0  0  0  0  0  0  0
    0.2274   -0.8313   -1.4479 H   0  0  0  0  0  0  0  0  0  0  0  0
   -1.5308   -0.8584   -1.4771 H   0  0  0  0  0  0  0  0  0  0  0  0
   -0.3419    1.3691   -2.4209 H   0  0  0  0  0  0  0  0  0  0  0  0
   -2.8564    1.1395   -1.4771 H   0  0  0  0  0  0  0  0  0  0  0  0
   -2.1480    2.7489   -1.4479 H   0  0  0  0  0  0  0  0  0  0  0  0
   -2.8564    1.1395    0.9199 H   0  0  0  0  0  0  0  0  0  0  0  0
   -2.1480    2.7489    0.8907 H   0  0  0  0  0  0  0  0  0  0  0  0
   -0.3419    1.3691    1.8638 H   0  0  0  0  0  0  0  0  0  0  0  0
    1.2227    1.3397   -0.2786 H   0  0  0  0  0  0  0  0  0  0  0  0
    0.2392    2.8221   -0.2786 H   0  0  0  0  0  0  0  0  0  0  0  0
  1  2  2  3
  1  4  1  0
  1  5  1  0
  2  3  1  0
  2  6  1  0
  3  7  1  0
  3  8  1  0
  9 10  1  0
  9 14  1  0
  9 16  1  0
  9 17  1  0
 10 11  1  0
 10 18  1  0
 10 19  1  0
 11 12  1  0
 11 15  1  0
 11 20  1  0
 12 13  1  0
 12 21  1  0
 12 22  1  0
 13 14  1  0
 13 23  1  0
 13 24  1  0
 14 15  1  0
 14 25  1  0
 15 26  1  0
 15 27  1  0
M  RAD  1   3   2
M  END
>  <reaction>  (16) 
rxn_491

>  <mol_properties>  (16) 
{"1": {"label": "*0", "atom_type": "Cd"}, "2": {"label": "*1", "atom_type": "Cs"}, "8": {"label": "*3", "atom_type": "Cs"}, "9": {"label": "*4", "atom_type": "Cs"}, "15": {"label": "*2", "atom_type": "H0"}}

>  <type>  (16) 
unop_12

>  <geom_source>  (16) 
Heuristics

$$$$

     RDKit          3D

 27 27  0  0  0  0  0  0  0  0999 V2000
   -2.2533   -0.1667    0.8705 C   0  0  0  0  0  0  0  0  0  0  0  0
   -0.9333   -0.6829   -0.8327 C   0  0  0  0  0  0  0  0  0  0  0  0
   -2.2328   -1.1821   -0.2465 C   0  0  0  0  0  0  0  0  0  0  0  0
   -2.1652    1.1595    0.0933 C   0  0  0  0  0  0  0  0  0  0  0  0
   -1.2406    0.8017   -1.0832 C   0  0  0  0  0  0  0  0  0  0  0  0
   -0.8992   -0.4273    1.5527 C   0  0  0  0  0  0  0  0  0  0  0  0
    2.5326   -0.1961    0.6854 C   0  0  0  0  0  0  0  0  0  0  0  0
    0.0202   -0.7633    0.3685 C   0  0  0  0  0  0  0  0  0  0  0  0
    3.4897    0.1113   -0.4226 C   0  0  0  0  0  0  0  0  0  0  0  0
    3.3038    1.1665   -1.2179 C   0  0  0  0  0  3  0  0  0  0  0  0
   -3.1286   -0.2399    1.5508 H   0  0  0  0  0  0  0  0  0  0  0  0
   -0.5827   -1.2340   -1.7312 H   0  0  0  0  0  0  0  0  0  0  0  0
   -3.0943   -1.0783   -0.9463 H   0  0  0  0  0  0  0  0  0  0  0  0
   -2.1692   -2.2331    0.1200 H   0  0  0  0  0  0  0  0  0  0  0  0
   -1.7458    1.9815    0.7137 H   0  0  0  0  0  0  0  0  0  0  0  0
   -3.1712    1.4564   -0.2771 H   0  0  0  0  0  0  0  0  0  0  0  0
   -1.7724    0.9287   -2.0518 H   0  0  0  0  0  0  0  0  0  0  0  0
   -0.3159    1.4203   -1.0840 H   0  0  0  0  0  0  0  0  0  0  0  0
   -0.5287    0.4623    2.1057 H   0  0  0  0  0  0  0  0  0  0  0  0
   -0.9757   -1.2913    2.2493 H   0  0  0  0  0  0  0  0  0  0  0  0
    2.8502   -1.1214    1.2100 H   0  0  0  0  0  0  0  0  0  0  0  0
    2.5135    0.6423    1.4134 H   0  0  0  0  0  0  0  0  0  0  0  0
    1.2694   -0.3839    0.1695 H   0  0  0  0  0  0  0  0  0  0  0  0
    0.4236   -1.7947    0.4716 H   0  0  0  0  0  0  0  0  0  0  0  0
    4.3454   -0.5374   -0.5848 H   0  0  0  0  0  0  0  0  0  0  0  0
    4.0063    1.3735   -2.0187 H   0  0  0  0  0  0  0  0  0  0  0  0
    2.4543    1.8284   -1.0775 H   0  0  0  0  0  0  0  0  0  0  0  0
  1  4  1  0
  1  6  1  0
  1  3  1  0
  1 11  1  0
  2  5  1  0
  2  8  1  0
  2  3  1  0
  2 12  1  0
  3 13  1  0
  3 14  1  0
  4  5  1  0
  4 15  1  0
  4 16  1  0
  5 17  1  0
  5 18  1  0
  6  8  1  0
  6 19  1  0
  6 20  1  0
  7  9  2  3
  7 21  1  0
  7 22  1  0
  8 23  1  0
  8 24  1  0
  9 10  1  0
  9 25  1  0
 10 26  1  0
 10 27  1  0
M  RAD  1  10   2
M  END
>  <reaction>  (17) 
rxn_491

>  <mol_properties>  (17) 
{"1": {"label": "*0", "atom_type": "Cd"}, "2": {"label": "*1", "atom_type": "Cs"}, "8": {"label": "*3", "atom_type": "Cs"}, "9": {"label": "*4", "atom_type": "Cs"}, "15": {"label": "*2", "atom_type": "H0"}}

>  <type>  (17) 
unop_13

>  <geom_source>  (17) 
AutoTST

$$$$
