
     RDKit          3D

 12 11  0  0  0  0  0  0  0  0999 V2000
    2.1696    0.6854    1.1310 C   0  0  0  0  0  0  0  0  0  0  0  0
    1.2518    0.4145    0.4134 C   0  0  0  0  0  0  0  0  0  0  0  0
    0.1391    0.0443   -0.4683 C   0  0  0  0  0  0  0  0  0  0  0  0
   -0.2054   -1.4492   -0.3339 C   0  0  0  0  0  0  0  0  0  0  0  0
   -1.0375    0.8853   -0.2222 C   0  0  0  0  0  0  0  0  0  0  0  0
   -2.0160    1.5463   -0.0311 C   0  0  0  0  0  0  0  0  0  0  0  0
    2.9819    0.9356    1.7702 H   0  0  0  0  0  0  0  0  0  0  0  0
    0.4629    0.2285   -1.4981 H   0  0  0  0  0  0  0  0  0  0  0  0
   -0.5327   -1.6703    0.6812 H   0  0  0  0  0  0  0  0  0  0  0  0
    0.6727   -2.0535   -0.5593 H   0  0  0  0  0  0  0  0  0  0  0  0
   -1.0064   -1.7081   -1.0256 H   0  0  0  0  0  0  0  0  0  0  0  0
   -2.8802    2.1413    0.1426 H   0  0  0  0  0  0  0  0  0  0  0  0
  1  2  3  0
  1  7  1  0
  2  3  1  0
  3  4  1  0
  3  5  1  0
  3  8  1  0
  4  9  1  0
  4 10  1  0
  4 11  1  0
  5  6  3  0
  6 12  1  0
M  END
>  <reaction>  (1) 
rxn_1411

>  <mol_properties>  (1) 
{"2": {"label": "donator", "atom_type": "Cs"}, "7": {"label": "d_hydrogen", "atom_type": "H0"}}

>  <type>  (1) 
r1h

$$$$

     RDKit          3D

  5  4  0  0  0  0  0  0  0  0999 V2000
   -0.5642    0.0794    0.0348 C   0  0  0  0  0  3  0  0  0  0  0  0
    1.0624    0.5420    0.2853 S   0  0  0  0  0  0  0  0  0  0  0  0
   -1.3257    0.7631    0.3741 H   0  0  0  0  0  0  0  0  0  0  0  0
   -0.8236   -0.8519   -0.4401 H   0  0  0  0  0  0  0  0  0  0  0  0
    1.6511   -0.5325   -0.2540 H   0  0  0  0  0  0  0  0  0  0  0  0
  1  2  1  0
  1  3  1  0
  1  4  1  0
  2  5  1  0
M  RAD  1   1   2
M  END
>  <reaction>  (2) 
rxn_1411

>  <mol_properties>  (2) 
{"0": {"label": "acceptor", "atom_type": "Cs"}}

>  <type>  (2) 
r2

$$$$

     RDKit          3D

  6  5  0  0  0  0  0  0  0  0999 V2000
   -0.5072   -0.0291   -0.0097 C   0  0  0  0  0  0  0  0  0  0  0  0
    1.1321   -0.1527   -0.7687 S   0  0  0  0  0  0  0  0  0  0  0  0
   -0.6174   -0.7330    0.8127 H   0  0  0  0  0  0  0  0  0  0  0  0
   -0.5863    0.9827    0.3845 H   0  0  0  0  0  0  0  0  0  0  0  0
   -1.2962   -0.1800   -0.7434 H   0  0  0  0  0  0  0  0  0  0  0  0
    1.0312   -1.4237   -1.1764 H   0  0  0  0  0  0  0  0  0  0  0  0
  1  2  1  0
  1  3  1  0
  1  4  1  0
  1  5  1  0
  2  6  1  0
M  END
>  <reaction>  (3) 
rxn_1411

>  <mol_properties>  (3) 
{"0": {"label": "a_hydrogen", "atom_type": "H0"}, "1": {"label": "acceptor", "atom_type": "Cs"}}

>  <type>  (3) 
r2h

$$$$

     RDKit          3D

 17 15  0  0  0  0  0  0  0  0999 V2000
   -0.8048   -0.2252   -2.3426 C   0  0  0  0  0  0  0  0  0  0  0  0
   -0.9686   -0.0740   -1.1634 C   0  0  0  0  0  0  0  0  0  0  0  0
   -1.0841    0.1348    0.2589 C   0  0  0  0  0  0  0  0  0  0  0  0
   -1.4286    1.5644    0.6619 C   0  0  0  0  0  0  0  0  0  0  0  0
   -1.8216   -0.8894    0.9568 C   0  0  0  0  0  0  0  0  0  0  0  0
   -2.3962   -1.7351    1.5840 C   0  0  0  0  0  0  0  0  0  0  0  0
   -0.6930   -0.3643   -3.3909 H   0  0  0  0  0  0  0  0  0  0  0  0
    0.1257    0.0015    0.6640 H   0  0  0  0  0  0  0  0  0  0  0  0
   -2.4288    1.8344    0.3197 H   0  0  0  0  0  0  0  0  0  0  0  0
   -0.7091    2.2540    0.2197 H   0  0  0  0  0  0  0  0  0  0  0  0
   -1.3945    1.6618    1.7469 H   0  0  0  0  0  0  0  0  0  0  0  0
   -2.9192   -2.4859    2.1256 H   0  0  0  0  0  0  0  0  0  0  0  0
    1.5140   -0.0815    1.0034 C   0  0  0  0  0  3  0  0  0  0  0  0
    2.3819    1.0846    0.0301 S   0  0  0  0  0  0  0  0  0  0  0  0
    1.5476    0.1740    2.0579 H   0  0  0  0  0  0  0  0  0  0  0  0
    1.7115   -1.1280    0.7923 H   0  0  0  0  0  0  0  0  0  0  0  0
    2.2018    0.4811   -1.1527 H   0  0  0  0  0  0  0  0  0  0  0  0
  1  2  3  0
  1  7  1  0
  2  3  1  0
  3  4  1  0
  3  5  1  0
  3  8  1  0
  4  9  1  0
  4 10  1  0
  4 11  1  0
  5  6  3  0
  6 12  1  0
 13 14  1  0
 13 15  1  0
 13 16  1  0
 14 17  1  0
M  RAD  1  13   2
M  END
>  <reaction>  (4) 
rxn_1411

>  <mol_properties>  (4) 
{"1": {"label": "*0", "atom_type": "Ct"}, "2": {"label": "*1", "atom_type": "Cs"}, "7": {"label": "*2", "atom_type": "H0"}, "12": {"label": "*3", "atom_type": "Cs"}, "13": {"label": "*4", "atom_type": "S2s"}}

>  <type>  (4) 
ts

$$$$

     RDKit          3D

 17 15  0  0  0  0  0  0  0  0999 V2000
   -0.7950   -0.2186   -3.0154 C   0  0  0  0  0  0  0  0  0  0  0  0
   -0.7950   -0.2186   -1.8192 C   0  0  0  0  0  0  0  0  0  0  0  0
   -0.7950   -0.1785   -0.3527 C   0  0  0  0  0  3  0  0  0  0  0  0
   -1.4330    1.1207    0.1693 C   0  0  0  0  0  0  0  0  0  0  0  0
   -1.4568   -1.3597    0.2121 C   0  0  0  0  0  0  0  0  0  0  0  0
   -2.0050   -2.3050    0.6986 C   0  0  0  0  0  0  0  0  0  0  0  0
   -0.7950   -0.2186   -4.0789 H   0  0  0  0  0  0  0  0  0  0  0  0
    0.4586   -0.2057    0.0404 H   0  0  0  0  0  0  0  0  0  0  0  0
   -2.4762    1.1780   -0.1385 H   0  0  0  0  0  0  0  0  0  0  0  0
   -0.9004    1.9821   -0.2324 H   0  0  0  0  0  0  0  0  0  0  0  0
   -1.3858    1.1451    1.2575 H   0  0  0  0  0  0  0  0  0  0  0  0
   -2.4925   -3.1454    1.1311 H   0  0  0  0  0  0  0  0  0  0  0  0
    1.7042   -0.2328    0.4310 C   0  0  0  0  0  0  0  0  0  0  0  0
    2.1263    1.2421    1.3927 S   0  0  0  0  0  0  0  0  0  0  0  0
    1.1547   -0.8896    1.1035 H   0  0  0  0  0  0  0  0  0  0  0  0
    2.5970   -0.7522    0.0892 H   0  0  0  0  0  0  0  0  0  0  0  0
    2.7729    1.8957    0.4198 H   0  0  0  0  0  0  0  0  0  0  0  0
  1  2  3  0
  1  7  1  0
  2  3  1  0
  3  4  1  0
  3  5  1  0
  4  9  1  0
  4 10  1  0
  4 11  1  0
  5  6  3  0
  6 12  1  0
  8 13  1  0
 13 14  1  0
 13 15  1  0
 13 16  1  0
 14 17  1  0
M  RAD  1   3   2
M  END
>  <reaction>  (5) 
rxn_1411

>  <mol_properties>  (5) 
{"1": {"label": "*0", "atom_type": "Ct"}, "2": {"label": "*1", "atom_type": "Cs"}, "7": {"label": "*2", "atom_type": "H0"}, "12": {"label": "*3", "atom_type": "Cs"}, "13": {"label": "*4", "atom_type": "S2s"}}

>  <type>  (5) 
unop_1

>  <geom_source>  (5) 
Heuristics

$$$$

     RDKit          3D

 17 15  0  0  0  0  0  0  0  0999 V2000
   -0.9663   -0.0294   -2.4487 C   0  0  0  0  0  0  0  0  0  0  0  0
   -0.9663   -0.0294   -1.2525 C   0  0  0  0  0  0  0  0  0  0  0  0
   -0.9663    0.0107    0.2140 C   0  0  0  0  0  3  0  0  0  0  0  0
   -1.6044    1.3099    0.7360 C   0  0  0  0  0  0  0  0  0  0  0  0
   -1.6282   -1.1705    0.7788 C   0  0  0  0  0  0  0  0  0  0  0  0
   -2.1764   -2.1158    1.2653 C   0  0  0  0  0  0  0  0  0  0  0  0
   -0.9663   -0.0294   -3.5121 H   0  0  0  0  0  0  0  0  0  0  0  0
    0.2873   -0.0165    0.6072 H   0  0  0  0  0  0  0  0  0  0  0  0
   -2.6476    1.3672    0.4283 H   0  0  0  0  0  0  0  0  0  0  0  0
   -1.0717    2.1714    0.3344 H   0  0  0  0  0  0  0  0  0  0  0  0
   -1.5572    1.3344    1.8242 H   0  0  0  0  0  0  0  0  0  0  0  0
   -2.6638   -2.9562    1.6978 H   0  0  0  0  0  0  0  0  0  0  0  0
    1.5328   -0.0436    0.9978 C   0  0  0  0  0  0  0  0  0  0  0  0
    2.6234    0.7338   -0.2206 S   0  0  0  0  0  0  0  0  0  0  0  0
    1.3671    0.6981    1.7774 H   0  0  0  0  0  0  0  0  0  0  0  0
    1.9978   -0.9202    1.4439 H   0  0  0  0  0  0  0  0  0  0  0  0
    2.7000   -0.3045   -1.0620 H   0  0  0  0  0  0  0  0  0  0  0  0
  1  2  3  0
  1  7  1  0
  2  3  1  0
  3  4  1  0
  3  5  1  0
  4  9  1  0
  4 10  1  0
  4 11  1  0
  5  6  3  0
  6 12  1  0
  8 13  1  0
 13 14  1  0
 13 15  1  0
 13 16  1  0
 14 17  1  0
M  RAD  1   3   2
M  END
>  <reaction>  (6) 
rxn_1411

>  <mol_properties>  (6) 
{"1": {"label": "*0", "atom_type": "Ct"}, "2": {"label": "*1", "atom_type": "Cs"}, "7": {"label": "*2", "atom_type": "H0"}, "12": {"label": "*3", "atom_type": "Cs"}, "13": {"label": "*4", "atom_type": "S2s"}}

>  <type>  (6) 
unop_2

>  <geom_source>  (6) 
Heuristics

$$$$

     RDKit          3D

 17 15  0  0  0  0  0  0  0  0999 V2000
   -0.7411   -0.0673   -3.1734 C   0  0  0  0  0  0  0  0  0  0  0  0
   -0.7411   -0.0673   -1.9772 C   0  0  0  0  0  0  0  0  0  0  0  0
   -0.7411   -0.0273   -0.5107 C   0  0  0  0  0  3  0  0  0  0  0  0
   -1.3792    1.2720    0.0113 C   0  0  0  0  0  0  0  0  0  0  0  0
   -1.4030   -1.2085    0.0541 C   0  0  0  0  0  0  0  0  0  0  0  0
   -1.9512   -2.1538    0.5406 C   0  0  0  0  0  0  0  0  0  0  0  0
   -0.7411   -0.0673   -4.2369 H   0  0  0  0  0  0  0  0  0  0  0  0
    0.5125   -0.0545   -0.1176 H   0  0  0  0  0  0  0  0  0  0  0  0
   -2.4224    1.3292   -0.2964 H   0  0  0  0  0  0  0  0  0  0  0  0
   -0.8465    2.1334   -0.3903 H   0  0  0  0  0  0  0  0  0  0  0  0
   -1.3320    1.2964    1.0995 H   0  0  0  0  0  0  0  0  0  0  0  0
   -2.4386   -2.9942    0.9731 H   0  0  0  0  0  0  0  0  0  0  0  0
    1.7580   -0.0816    0.2731 C   0  0  0  0  0  0  0  0  0  0  0  0
    1.9773    0.7984    1.8402 S   0  0  0  0  0  0  0  0  0  0  0  0
    1.5230   -1.1128    0.5315 H   0  0  0  0  0  0  0  0  0  0  0  0
    2.6706   -0.0701   -0.3192 H   0  0  0  0  0  0  0  0  0  0  0  0
    2.2491    2.0011    1.3191 H   0  0  0  0  0  0  0  0  0  0  0  0
  1  2  3  0
  1  7  1  0
  2  3  1  0
  3  4  1  0
  3  5  1  0
  4  9  1  0
  4 10  1  0
  4 11  1  0
  5  6  3  0
  6 12  1  0
  8 13  1  0
 13 14  1  0
 13 15  1  0
 13 16  1  0
 14 17  1  0
M  RAD  1   3   2
M  END
>  <reaction>  (7) 
rxn_1411

>  <mol_properties>  (7) 
{"1": {"label": "*0", "atom_type": "Ct"}, "2": {"label": "*1", "atom_type": "Cs"}, "7": {"label": "*2", "atom_type": "H0"}, "12": {"label": "*3", "atom_type": "Cs"}, "13": {"label": "*4", "atom_type": "S2s"}}

>  <type>  (7) 
unop_3

>  <geom_source>  (7) 
Heuristics

$$$$

     RDKit          3D

 17 15  0  0  0  0  0  0  0  0999 V2000
   -0.8903    0.5638   -2.6258 C   0  0  0  0  0  0  0  0  0  0  0  0
   -0.8903    0.5638   -1.4297 C   0  0  0  0  0  0  0  0  0  0  0  0
   -0.8903    0.6038    0.0369 C   0  0  0  0  0  3  0  0  0  0  0  0
   -1.5284    1.9031    0.5589 C   0  0  0  0  0  0  0  0  0  0  0  0
   -1.5522   -0.5774    0.6017 C   0  0  0  0  0  0  0  0  0  0  0  0
   -2.1004   -1.5227    1.0881 C   0  0  0  0  0  0  0  0  0  0  0  0
   -0.8903    0.5638   -3.6893 H   0  0  0  0  0  0  0  0  0  0  0  0
    0.3633    0.5766    0.4300 H   0  0  0  0  0  0  0  0  0  0  0  0
   -2.5716    1.9603    0.2511 H   0  0  0  0  0  0  0  0  0  0  0  0
   -0.9958    2.7645    0.1572 H   0  0  0  0  0  0  0  0  0  0  0  0
   -1.4812    1.9275    1.6471 H   0  0  0  0  0  0  0  0  0  0  0  0
   -2.5878   -2.3631    1.5207 H   0  0  0  0  0  0  0  0  0  0  0  0
    1.6088    0.5495    0.8206 C   0  0  0  0  0  0  0  0  0  0  0  0
    2.4455   -0.9528    0.2538 S   0  0  0  0  0  0  0  0  0  0  0  0
    2.3736    1.3222    0.8793 H   0  0  0  0  0  0  0  0  0  0  0  0
    1.1750    0.4128    1.8090 H   0  0  0  0  0  0  0  0  0  0  0  0
    1.3705   -1.7503    0.2488 H   0  0  0  0  0  0  0  0  0  0  0  0
  1  2  3  0
  1  7  1  0
  2  3  1  0
  3  4  1  0
  3  5  1  0
  4  9  1  0
  4 10  1  0
  4 11  1  0
  5  6  3  0
  6 12  1  0
  8 13  1  0
 13 14  1  0
 13 15  1  0
 13 16  1  0
 14 17  1  0
M  RAD  1   3   2
M  END
>  <reaction>  (8) 
rxn_1411

>  <mol_properties>  (8) 
{"1": {"label": "*0", "atom_type": "Ct"}, "2": {"label": "*1", "atom_type": "Cs"}, "7": {"label": "*2", "atom_type": "H0"}, "12": {"label": "*3", "atom_type": "Cs"}, "13": {"label": "*4", "atom_type": "S2s"}}

>  <type>  (8) 
unop_4

>  <geom_source>  (8) 
Heuristics

$$$$

     RDKit          3D

 17 15  0  0  0  0  0  0  0  0999 V2000
   -0.7124    0.1456   -3.2384 C   0  0  0  0  0  0  0  0  0  0  0  0
   -0.7124    0.1456   -2.0422 C   0  0  0  0  0  0  0  0  0  0  0  0
   -0.7124    0.1857   -0.5757 C   0  0  0  0  0  3  0  0  0  0  0  0
   -1.3504    1.4849   -0.0537 C   0  0  0  0  0  0  0  0  0  0  0  0
   -1.3742   -0.9955   -0.0109 C   0  0  0  0  0  0  0  0  0  0  0  0
   -1.9224   -1.9408    0.4756 C   0  0  0  0  0  0  0  0  0  0  0  0
   -0.7124    0.1456   -4.3019 H   0  0  0  0  0  0  0  0  0  0  0  0
    0.5412    0.1585   -0.1826 H   0  0  0  0  0  0  0  0  0  0  0  0
   -2.3937    1.5422   -0.3615 H   0  0  0  0  0  0  0  0  0  0  0  0
   -0.8178    2.3463   -0.4553 H   0  0  0  0  0  0  0  0  0  0  0  0
   -1.3032    1.5094    1.0345 H   0  0  0  0  0  0  0  0  0  0  0  0
   -2.4099   -2.7812    0.9081 H   0  0  0  0  0  0  0  0  0  0  0  0
    1.7867    0.1314    0.2081 C   0  0  0  0  0  0  0  0  0  0  0  0
    1.9131    0.1769    2.0137 S   0  0  0  0  0  0  0  0  0  0  0  0
    2.2302   -0.8121   -0.1060 H   0  0  0  0  0  0  0  0  0  0  0  0
    2.3430    0.9471   -0.2490 H   0  0  0  0  0  0  0  0  0  0  0  0
    1.3339    1.3706    2.1910 H   0  0  0  0  0  0  0  0  0  0  0  0
  1  2  3  0
  1  7  1  0
  2  3  1  0
  3  4  1  0
  3  5  1  0
  4  9  1  0
  4 10  1  0
  4 11  1  0
  5  6  3  0
  6 12  1  0
  8 13  1  0
 13 14  1  0
 13 15  1  0
 13 16  1  0
 14 17  1  0
M  RAD  1   3   2
M  END
>  <reaction>  (9) 
rxn_1411

>  <mol_properties>  (9) 
{"1": {"label": "*0", "atom_type": "Ct"}, "2": {"label": "*1", "atom_type": "Cs"}, "7": {"label": "*2", "atom_type": "H0"}, "12": {"label": "*3", "atom_type": "Cs"}, "13": {"label": "*4", "atom_type": "S2s"}}

>  <type>  (9) 
unop_5

>  <geom_source>  (9) 
Heuristics

$$$$

     RDKit          3D

 17 15  0  0  0  0  0  0  0  0999 V2000
   -0.8215    0.6108   -2.8384 C   0  0  0  0  0  0  0  0  0  0  0  0
   -0.8215    0.6108   -1.6422 C   0  0  0  0  0  0  0  0  0  0  0  0
   -0.8215    0.6509   -0.1756 C   0  0  0  0  0  3  0  0  0  0  0  0
   -1.4595    1.9501    0.3464 C   0  0  0  0  0  0  0  0  0  0  0  0
   -1.4833   -0.5303    0.3891 C   0  0  0  0  0  0  0  0  0  0  0  0
   -2.0316   -1.4756    0.8756 C   0  0  0  0  0  0  0  0  0  0  0  0
   -0.8215    0.6108   -3.9018 H   0  0  0  0  0  0  0  0  0  0  0  0
    0.4321    0.6237    0.2175 H   0  0  0  0  0  0  0  0  0  0  0  0
   -2.5028    2.0074    0.0386 H   0  0  0  0  0  0  0  0  0  0  0  0
   -0.9269    2.8115   -0.0553 H   0  0  0  0  0  0  0  0  0  0  0  0
   -1.4123    1.9746    1.4346 H   0  0  0  0  0  0  0  0  0  0  0  0
   -2.5190   -2.3160    1.3081 H   0  0  0  0  0  0  0  0  0  0  0  0
    1.6776    0.5966    0.6081 C   0  0  0  0  0  0  0  0  0  0  0  0
    2.2560   -1.1018    0.8515 S   0  0  0  0  0  0  0  0  0  0  0  0
    2.5677    1.2029    0.4478 H   0  0  0  0  0  0  0  0  0  0  0  0
    1.1569    0.9681    1.4882 H   0  0  0  0  0  0  0  0  0  0  0  0
    1.0536   -1.6638    1.0254 H   0  0  0  0  0  0  0  0  0  0  0  0
  1  2  3  0
  1  7  1  0
  2  3  1  0
  3  4  1  0
  3  5  1  0
  4  9  1  0
  4 10  1  0
  4 11  1  0
  5  6  3  0
  6 12  1  0
  8 13  1  0
 13 14  1  0
 13 15  1  0
 13 16  1  0
 14 17  1  0
M  RAD  1   3   2
M  END
>  <reaction>  (10) 
rxn_1411

>  <mol_properties>  (10) 
{"1": {"label": "*0", "atom_type": "Ct"}, "2": {"label": "*1", "atom_type": "Cs"}, "7": {"label": "*2", "atom_type": "H0"}, "12": {"label": "*3", "atom_type": "Cs"}, "13": {"label": "*4", "atom_type": "S2s"}}

>  <type>  (10) 
unop_6

>  <geom_source>  (10) 
Heuristics

$$$$

     RDKit          3D

 17 15  0  0  0  0  0  0  0  0999 V2000
   -0.7578    0.5395   -3.0461 C   0  0  0  0  0  0  0  0  0  0  0  0
   -0.7578    0.5395   -1.8500 C   0  0  0  0  0  0  0  0  0  0  0  0
   -0.7578    0.5796   -0.3834 C   0  0  0  0  0  3  0  0  0  0  0  0
   -1.3958    1.8788    0.1386 C   0  0  0  0  0  0  0  0  0  0  0  0
   -1.4196   -0.6016    0.1814 C   0  0  0  0  0  0  0  0  0  0  0  0
   -1.9679   -1.5469    0.6679 C   0  0  0  0  0  0  0  0  0  0  0  0
   -0.7578    0.5395   -4.1096 H   0  0  0  0  0  0  0  0  0  0  0  0
    0.4958    0.5524    0.0097 H   0  0  0  0  0  0  0  0  0  0  0  0
   -2.4391    1.9361   -0.1692 H   0  0  0  0  0  0  0  0  0  0  0  0
   -0.8632    2.7402   -0.2631 H   0  0  0  0  0  0  0  0  0  0  0  0
   -1.3486    1.9033    1.2268 H   0  0  0  0  0  0  0  0  0  0  0  0
   -2.4553   -2.3873    1.1004 H   0  0  0  0  0  0  0  0  0  0  0  0
    1.7413    0.5253    0.4003 C   0  0  0  0  0  0  0  0  0  0  0  0
    2.0750   -0.9178    1.4417 S   0  0  0  0  0  0  0  0  0  0  0  0
    2.7032    0.8443    0.0022 H   0  0  0  0  0  0  0  0  0  0  0  0
    1.3157    1.3422    0.9794 H   0  0  0  0  0  0  0  0  0  0  0  0
    0.8114   -1.1459    1.8198 H   0  0  0  0  0  0  0  0  0  0  0  0
  1  2  3  0
  1  7  1  0
  2  3  1  0
  3  4  1  0
  3  5  1  0
  4  9  1  0
  4 10  1  0
  4 11  1  0
  5  6  3  0
  6 12  1  0
  8 13  1  0
 13 14  1  0
 13 15  1  0
 13 16  1  0
 14 17  1  0
M  RAD  1   3   2
M  END
>  <reaction>  (11) 
rxn_1411

>  <mol_properties>  (11) 
{"1": {"label": "*0", "atom_type": "Ct"}, "2": {"label": "*1", "atom_type": "Cs"}, "7": {"label": "*2", "atom_type": "H0"}, "12": {"label": "*3", "atom_type": "Cs"}, "13": {"label": "*4", "atom_type": "S2s"}}

>  <type>  (11) 
unop_7

>  <geom_source>  (11) 
Heuristics

$$$$

     RDKit          3D

 17 15  0  0  0  0  0  0  0  0999 V2000
   -0.8621   -0.2672   -2.8045 C   0  0  0  0  0  0  0  0  0  0  0  0
   -0.8621   -0.2672   -1.6083 C   0  0  0  0  0  0  0  0  0  0  0  0
   -0.8621   -0.2271   -0.1418 C   0  0  0  0  0  3  0  0  0  0  0  0
   -1.5002    1.0721    0.3802 C   0  0  0  0  0  0  0  0  0  0  0  0
   -1.5240   -1.4084    0.4230 C   0  0  0  0  0  0  0  0  0  0  0  0
   -2.0722   -2.3537    0.9095 C   0  0  0  0  0  0  0  0  0  0  0  0
   -0.8621   -0.2672   -3.8679 H   0  0  0  0  0  0  0  0  0  0  0  0
    0.3915   -0.2544    0.2514 H   0  0  0  0  0  0  0  0  0  0  0  0
   -2.5434    1.1293    0.0725 H   0  0  0  0  0  0  0  0  0  0  0  0
   -0.9675    1.9335   -0.0214 H   0  0  0  0  0  0  0  0  0  0  0  0
   -1.4530    1.0965    1.4685 H   0  0  0  0  0  0  0  0  0  0  0  0
   -2.5596   -3.1941    1.3420 H   0  0  0  0  0  0  0  0  0  0  0  0
    1.6370   -0.2814    0.6420 C   0  0  0  0  0  0  0  0  0  0  0  0
    2.3175    1.3896    0.7933 S   0  0  0  0  0  0  0  0  0  0  0  0
    1.0379   -0.4499    1.5354 H   0  0  0  0  0  0  0  0  0  0  0  0
    2.4264   -1.0292    0.6057 H   0  0  0  0  0  0  0  0  0  0  0  0
    2.9954    1.3984   -0.3609 H   0  0  0  0  0  0  0  0  0  0  0  0
  1  2  3  0
  1  7  1  0
  2  3  1  0
  3  4  1  0
  3  5  1  0
  4  9  1  0
  4 10  1  0
  4 11  1  0
  5  6  3  0
  6 12  1  0
  8 13  1  0
 13 14  1  0
 13 15  1  0
 13 16  1  0
 14 17  1  0
M  RAD  1   3   2
M  END
>  <reaction>  (12) 
rxn_1411

>  <mol_properties>  (12) 
{"1": {"label": "*0", "atom_type": "Ct"}, "2": {"label": "*1", "atom_type": "Cs"}, "7": {"label": "*2", "atom_type": "H0"}, "12": {"label": "*3", "atom_type": "Cs"}, "13": {"label": "*4", "atom_type": "S2s"}}

>  <type>  (12) 
unop_8

>  <geom_source>  (12) 
Heuristics

$$$$

     RDKit          3D

 17 15  0  0  0  0  0  0  0  0999 V2000
   -0.9461    0.4113   -2.4656 C   0  0  0  0  0  0  0  0  0  0  0  0
   -0.9461    0.4113   -1.2694 C   0  0  0  0  0  0  0  0  0  0  0  0
   -0.9461    0.4514    0.1971 C   0  0  0  0  0  3  0  0  0  0  0  0
   -1.5842    1.7506    0.7191 C   0  0  0  0  0  0  0  0  0  0  0  0
   -1.6080   -0.7299    0.7619 C   0  0  0  0  0  0  0  0  0  0  0  0
   -2.1562   -1.6752    1.2484 C   0  0  0  0  0  0  0  0  0  0  0  0
   -0.9461    0.4113   -3.5290 H   0  0  0  0  0  0  0  0  0  0  0  0
    0.3075    0.4241    0.5903 H   0  0  0  0  0  0  0  0  0  0  0  0
   -2.6274    1.8078    0.4114 H   0  0  0  0  0  0  0  0  0  0  0  0
   -1.0515    2.6120    0.3175 H   0  0  0  0  0  0  0  0  0  0  0  0
   -1.5370    1.7750    1.8074 H   0  0  0  0  0  0  0  0  0  0  0  0
   -2.6436   -2.5156    1.6809 H   0  0  0  0  0  0  0  0  0  0  0  0
    1.5530    0.3970    0.9809 C   0  0  0  0  0  0  0  0  0  0  0  0
    2.5926   -0.5103   -0.1915 S   0  0  0  0  0  0  0  0  0  0  0  0
    2.1081    1.2936    1.2518 H   0  0  0  0  0  0  0  0  0  0  0  0
    1.3702   -0.1851    1.8817 H   0  0  0  0  0  0  0  0  0  0  0  0
    1.7592   -1.5384   -0.3918 H   0  0  0  0  0  0  0  0  0  0  0  0
  1  2  3  0
  1  7  1  0
  2  3  1  0
  3  4  1  0
  3  5  1  0
  4  9  1  0
  4 10  1  0
  4 11  1  0
  5  6  3  0
  6 12  1  0
  8 13  1  0
 13 14  1  0
 13 15  1  0
 13 16  1  0
 14 17  1  0
M  RAD  1   3   2
M  END
>  <reaction>  (13) 
rxn_1411

>  <mol_properties>  (13) 
{"1": {"label": "*0", "atom_type": "Ct"}, "2": {"label": "*1", "atom_type": "Cs"}, "7": {"label": "*2", "atom_type": "H0"}, "12": {"label": "*3", "atom_type": "Cs"}, "13": {"label": "*4", "atom_type": "S2s"}}

>  <type>  (13) 
unop_9

>  <geom_source>  (13) 
Heuristics

$$$$

     RDKit          3D

 17 15  0  0  0  0  0  0  0  0999 V2000
   -0.9251   -0.1983   -2.5968 C   0  0  0  0  0  0  0  0  0  0  0  0
   -0.9251   -0.1983   -1.4007 C   0  0  0  0  0  0  0  0  0  0  0  0
   -0.9251   -0.1582    0.0659 C   0  0  0  0  0  3  0  0  0  0  0  0
   -1.5631    1.1410    0.5879 C   0  0  0  0  0  0  0  0  0  0  0  0
   -1.5869   -1.3395    0.6307 C   0  0  0  0  0  0  0  0  0  0  0  0
   -2.1352   -2.2848    1.1172 C   0  0  0  0  0  0  0  0  0  0  0  0
   -0.9251   -0.1983   -3.6603 H   0  0  0  0  0  0  0  0  0  0  0  0
    0.3285   -0.1855    0.4590 H   0  0  0  0  0  0  0  0  0  0  0  0
   -2.6064    1.1982    0.2801 H   0  0  0  0  0  0  0  0  0  0  0  0
   -1.0305    2.0024    0.1862 H   0  0  0  0  0  0  0  0  0  0  0  0
   -1.5159    1.1654    1.6761 H   0  0  0  0  0  0  0  0  0  0  0  0
   -2.6226   -3.1252    1.5497 H   0  0  0  0  0  0  0  0  0  0  0  0
    1.5740   -0.2125    0.8496 C   0  0  0  0  0  0  0  0  0  0  0  0
    2.4992    1.2032    0.2030 S   0  0  0  0  0  0  0  0  0  0  0  0
    1.1106    0.1222    1.7763 H   0  0  0  0  0  0  0  0  0  0  0  0
    2.2334   -1.0489    1.0721 H   0  0  0  0  0  0  0  0  0  0  0  0
    2.9746    0.6037   -0.8954 H   0  0  0  0  0  0  0  0  0  0  0  0
  1  2  3  0
  1  7  1  0
  2  3  1  0
  3  4  1  0
  3  5  1  0
  4  9  1  0
  4 10  1  0
  4 11  1  0
  5  6  3  0
  6 12  1  0
  8 13  1  0
 13 14  1  0
 13 15  1  0
 13 16  1  0
 14 17  1  0
M  RAD  1   3   2
M  END
>  <reaction>  (14) 
rxn_1411

>  <mol_properties>  (14) 
{"1": {"label": "*0", "atom_type": "Ct"}, "2": {"label": "*1", "atom_type": "Cs"}, "7": {"label": "*2", "atom_type": "H0"}, "12": {"label": "*3", "atom_type": "Cs"}, "13": {"label": "*4", "atom_type": "S2s"}}

>  <type>  (14) 
unop_10

>  <geom_source>  (14) 
Heuristics

$$$$

     RDKit          3D

 17 15  0  0  0  0  0  0  0  0999 V2000
   -0.7172    0.3685   -3.1929 C   0  0  0  0  0  0  0  0  0  0  0  0
   -0.7172    0.3685   -1.9967 C   0  0  0  0  0  0  0  0  0  0  0  0
   -0.7172    0.4086   -0.5302 C   0  0  0  0  0  3  0  0  0  0  0  0
   -1.3552    1.7078   -0.0082 C   0  0  0  0  0  0  0  0  0  0  0  0
   -1.3790   -0.7727    0.0346 C   0  0  0  0  0  0  0  0  0  0  0  0
   -1.9273   -1.7180    0.5211 C   0  0  0  0  0  0  0  0  0  0  0  0
   -0.7172    0.3685   -4.2563 H   0  0  0  0  0  0  0  0  0  0  0  0
    0.5364    0.3813   -0.1370 H   0  0  0  0  0  0  0  0  0  0  0  0
   -2.3985    1.7650   -0.3159 H   0  0  0  0  0  0  0  0  0  0  0  0
   -0.8226    2.5692   -0.4098 H   0  0  0  0  0  0  0  0  0  0  0  0
   -1.3080    1.7322    1.0801 H   0  0  0  0  0  0  0  0  0  0  0  0
   -2.4147   -2.5584    0.9536 H   0  0  0  0  0  0  0  0  0  0  0  0
    1.7819    0.3542    0.2536 C   0  0  0  0  0  0  0  0  0  0  0  0
    1.9502   -0.4505    1.8668 S   0  0  0  0  0  0  0  0  0  0  0  0
    2.6915    0.1248   -0.2991 H   0  0  0  0  0  0  0  0  0  0  0  0
    1.6995    1.4343    0.3560 H   0  0  0  0  0  0  0  0  0  0  0  0
    0.7733   -0.0600    2.3711 H   0  0  0  0  0  0  0  0  0  0  0  0
  1  2  3  0
  1  7  1  0
  2  3  1  0
  3  4  1  0
  3  5  1  0
  4  9  1  0
  4 10  1  0
  4 11  1  0
  5  6  3  0
  6 12  1  0
  8 13  1  0
 13 14  1  0
 13 15  1  0
 13 16  1  0
 14 17  1  0
M  RAD  1   3   2
M  END
>  <reaction>  (15) 
rxn_1411

>  <mol_properties>  (15) 
{"1": {"label": "*0", "atom_type": "Ct"}, "2": {"label": "*1", "atom_type": "Cs"}, "7": {"label": "*2", "atom_type": "H0"}, "12": {"label": "*3", "atom_type": "Cs"}, "13": {"label": "*4", "atom_type": "S2s"}}

>  <type>  (15) 
unop_11

>  <geom_source>  (15) 
Heuristics

$$$$

     RDKit          3D

 17 15  0  0  0  0  0  0  0  0999 V2000
   -0.9741    0.1941   -2.4006 C   0  0  0  0  0  0  0  0  0  0  0  0
   -0.9741    0.1941   -1.2044 C   0  0  0  0  0  0  0  0  0  0  0  0
   -0.9741    0.2342    0.2621 C   0  0  0  0  0  3  0  0  0  0  0  0
   -1.6121    1.5334    0.7841 C   0  0  0  0  0  0  0  0  0  0  0  0
   -1.6359   -0.9471    0.8269 C   0  0  0  0  0  0  0  0  0  0  0  0
   -2.1841   -1.8924    1.3134 C   0  0  0  0  0  0  0  0  0  0  0  0
   -0.9741    0.1941   -3.4641 H   0  0  0  0  0  0  0  0  0  0  0  0
    0.2795    0.2069    0.6553 H   0  0  0  0  0  0  0  0  0  0  0  0
   -2.6553    1.5906    0.4764 H   0  0  0  0  0  0  0  0  0  0  0  0
   -1.0795    2.3948    0.3825 H   0  0  0  0  0  0  0  0  0  0  0  0
   -1.5649    1.5578    1.8723 H   0  0  0  0  0  0  0  0  0  0  0  0
   -2.6716   -2.7328    1.7459 H   0  0  0  0  0  0  0  0  0  0  0  0
    1.5251    0.1799    1.0459 C   0  0  0  0  0  0  0  0  0  0  0  0
    2.6576    0.1070   -0.3650 S   0  0  0  0  0  0  0  0  0  0  0  0
    1.7468    1.1089    1.5685 H   0  0  0  0  0  0  0  0  0  0  0  0
    1.6881   -0.6515    1.7285 H   0  0  0  0  0  0  0  0  0  0  0  0
    2.2365   -1.0649   -0.8560 H   0  0  0  0  0  0  0  0  0  0  0  0
  1  2  3  0
  1  7  1  0
  2  3  1  0
  3  4  1  0
  3  5  1  0
  4  9  1  0
  4 10  1  0
  4 11  1  0
  5  6  3  0
  6 12  1  0
  8 13  1  0
 13 14  1  0
 13 15  1  0
 13 16  1  0
 14 17  1  0
M  RAD  1   3   2
M  END
>  <reaction>  (16) 
rxn_1411

>  <mol_properties>  (16) 
{"1": {"label": "*0", "atom_type": "Ct"}, "2": {"label": "*1", "atom_type": "Cs"}, "7": {"label": "*2", "atom_type": "H0"}, "12": {"label": "*3", "atom_type": "Cs"}, "13": {"label": "*4", "atom_type": "S2s"}}

>  <type>  (16) 
unop_12

>  <geom_source>  (16) 
Heuristics

$$$$

     RDKit          3D

 17 15  0  0  0  0  0  0  0  0999 V2000
   -3.0025    0.4547   -0.7206 S   0  0  0  0  0  0  0  0  0  0  0  0
    0.5400   -0.0547    1.5932 C   0  0  0  0  0  0  0  0  0  0  0  0
   -1.8420   -0.9283   -0.5381 C   0  0  0  0  0  0  0  0  0  0  0  0
    0.5022   -0.0139    0.0683 C   0  0  0  0  0  3  0  0  0  0  0  0
    1.6144   -0.7854   -0.4997 C   0  0  0  0  0  0  0  0  0  0  0  0
    0.5628    1.3705   -0.4159 C   0  0  0  0  0  0  0  0  0  0  0  0
    2.5272   -1.4205   -0.9662 C   0  0  0  0  0  0  0  0  0  0  0  0
    0.6109    2.5080   -0.8135 C   0  0  0  0  0  0  0  0  0  0  0  0
   -0.3225    0.5095    2.0077 H   0  0  0  0  0  0  0  0  0  0  0  0
    0.4654   -1.1058    1.9449 H   0  0  0  0  0  0  0  0  0  0  0  0
    1.4834    0.3904    1.9790 H   0  0  0  0  0  0  0  0  0  0  0  0
   -2.0061   -1.6576   -1.3577 H   0  0  0  0  0  0  0  0  0  0  0  0
   -2.0092   -1.4282    0.4383 H   0  0  0  0  0  0  0  0  0  0  0  0
   -0.6156   -0.4806   -0.5949 H   0  0  0  0  0  0  0  0  0  0  0  0
   -2.4903    1.1136    0.4130 H   0  0  0  0  0  0  0  0  0  0  0  0
    3.3283   -1.9778   -1.3755 H   0  0  0  0  0  0  0  0  0  0  0  0
    0.6533    3.5062   -1.1624 H   0  0  0  0  0  0  0  0  0  0  0  0
  1  3  1  0
  1 15  1  0
  2  4  1  0
  2  9  1  0
  2 10  1  0
  2 11  1  0
  3 12  1  0
  3 13  1  0
  3 14  1  0
  4  5  1  0
  4  6  1  0
  5  7  3  0
  6  8  3  0
  7 16  1  0
  8 17  1  0
M  RAD  1   4   2
M  END
>  <reaction>  (17) 
rxn_1411

>  <mol_properties>  (17) 
{"1": {"label": "*0", "atom_type": "Ct"}, "2": {"label": "*1", "atom_type": "Cs"}, "7": {"label": "*2", "atom_type": "H0"}, "12": {"label": "*3", "atom_type": "Cs"}, "13": {"label": "*4", "atom_type": "S2s"}}

>  <type>  (17) 
unop_13

>  <geom_source>  (17) 
AutoTST

$$$$
