
     RDKit          3D

  8  7  0  0  0  0  0  0  0  0999 V2000
    0.7610    0.0250    0.0051 C   0  0  0  0  0  0  0  0  0  0  0  0
   -0.7610   -0.0250   -0.0051 C   0  0  0  0  0  0  0  0  0  0  0  0
    1.1904   -0.9237   -0.3217 H   0  0  0  0  0  0  0  0  0  0  0  0
    1.1359    0.8041   -0.6609 H   0  0  0  0  0  0  0  0  0  0  0  0
    1.1435    0.2336    1.0058 H   0  0  0  0  0  0  0  0  0  0  0  0
   -1.1435   -0.2336   -1.0058 H   0  0  0  0  0  0  0  0  0  0  0  0
   -1.1904    0.9237    0.3216 H   0  0  0  0  0  0  0  0  0  0  0  0
   -1.1359   -0.8041    0.6609 H   0  0  0  0  0  0  0  0  0  0  0  0
  1  2  1  0
  1  3  1  0
  1  4  1  0
  1  5  1  0
  2  6  1  0
  2  7  1  0
  2  8  1  0
M  END
>  <reaction>  (1) 
rxn_892

>  <mol_properties>  (1) 
{"1": {"label": "donator", "atom_type": "Cs"}, "5": {"label": "d_hydrogen", "atom_type": "H0"}}

>  <type>  (1) 
r1h

$$$$

     RDKit          3D

  9  8  0  0  0  0  0  0  0  0999 V2000
   -1.2704   -0.1236    0.1096 C   0  0  0  0  0  0  0  0  0  0  0  0
    0.0713   -0.5323    0.5887 C   0  0  0  0  0  0  0  0  0  0  0  0
    0.9521   -1.3639   -0.0464 C   0  0  0  0  0  0  0  0  0  0  0  0
    0.6900   -2.1109   -1.5335 S   0  0  0  0  0  1  0  0  0  0  0  0
   -1.3201    0.9657    0.0241 H   0  0  0  0  0  0  0  0  0  0  0  0
   -1.5103   -0.5706   -0.8526 H   0  0  0  0  0  0  0  0  0  0  0  0
   -2.0312   -0.4112    0.8411 H   0  0  0  0  0  0  0  0  0  0  0  0
    0.3863   -0.1265    1.5468 H   0  0  0  0  0  0  0  0  0  0  0  0
    1.8971   -1.5543    0.4552 H   0  0  0  0  0  0  0  0  0  0  0  0
  1  2  1  0
  1  5  1  0
  1  6  1  0
  1  7  1  0
  2  3  2  3
  2  8  1  0
  3  4  1  0
  3  9  1  0
M  RAD  1   4   2
M  END
>  <reaction>  (2) 
rxn_892

>  <mol_properties>  (2) 
{"1": {"label": "acceptor", "atom_type": "Cs"}}

>  <type>  (2) 
r2

$$$$

     RDKit          3D

 10  9  0  0  0  0  0  0  0  0999 V2000
   -1.1508    0.0666    0.2839 C   0  0  0  0  0  0  0  0  0  0  0  0
    0.1022   -0.3749   -0.4771 C   0  0  0  0  0  0  0  0  0  0  0  0
    1.3428    0.1620    0.1542 C   0  0  0  0  0  0  0  0  0  0  0  0
    2.5613   -0.6971    0.7526 S   0  0  0  0  0  0  0  0  0  0  0  0
   -1.2137    1.1546    0.3481 H   0  0  0  0  0  0  0  0  0  0  0  0
   -2.0472   -0.2935   -0.2212 H   0  0  0  0  0  0  0  0  0  0  0  0
   -1.1467   -0.3334    1.2987 H   0  0  0  0  0  0  0  0  0  0  0  0
    0.1602   -1.4616   -0.5369 H   0  0  0  0  0  0  0  0  0  0  0  0
    0.0536    0.0174   -1.4997 H   0  0  0  0  0  0  0  0  0  0  0  0
    1.3824    1.2528    0.2110 H   0  0  0  0  0  0  0  0  0  0  0  0
  1  2  1  0
  1  5  1  0
  1  6  1  0
  1  7  1  0
  2  3  1  0
  2  8  1  0
  2  9  1  0
  3  4  2  0
  3 10  1  0
M  END
>  <reaction>  (3) 
rxn_892

>  <mol_properties>  (3) 
{"1": {"label": "acceptor", "atom_type": "Cs"}, "9": {"label": "a_hydrogen", "atom_type": "H0"}}

>  <type>  (3) 
r2h

$$$$

     RDKit          3D

 17 15  0  0  0  0  0  0  0  0999 V2000
    1.9721    1.3411   -0.3638 C   0  0  0  0  0  0  0  0  0  0  0  0
    0.9879    0.5395    0.4542 C   0  0  0  0  0  0  0  0  0  0  0  0
   -0.4329    0.8221    0.3298 C   0  0  0  0  0  0  0  0  0  0  0  0
   -1.1638    1.6718   -0.8479 S   0  0  0  0  0  0  0  0  0  0  0  0
    1.7259    1.2952   -1.4247 H   0  0  0  0  0  0  0  0  0  0  0  0
    1.9549    2.3931   -0.0724 H   0  0  0  0  0  0  0  0  0  0  0  0
    2.9839    0.9597   -0.2209 H   0  0  0  0  0  0  0  0  0  0  0  0
    1.2816    0.4142    1.4983 H   0  0  0  0  0  0  0  0  0  0  0  0
   -1.0522    0.3659    1.1036 H   0  0  0  0  0  0  0  0  0  0  0  0
    0.1754   -2.0059   -1.5948 C   0  0  0  0  0  0  0  0  0  0  0  0
    1.3292   -1.9402   -0.6491 C   0  0  0  0  0  3  0  0  0  0  0  0
   -0.7786   -1.9706   -1.0653 H   0  0  0  0  0  0  0  0  0  0  0  0
    0.1944   -1.1784   -2.3054 H   0  0  0  0  0  0  0  0  0  0  0  0
    0.1933   -2.9379   -2.1713 H   0  0  0  0  0  0  0  0  0  0  0  0
    1.0970   -0.6253    0.0457 H   0  0  0  0  0  0  0  0  0  0  0  0
    2.3140   -1.7692   -1.0732 H   0  0  0  0  0  0  0  0  0  0  0  0
    1.3234   -2.6222    0.1962 H   0  0  0  0  0  0  0  0  0  0  0  0
  1  2  1  0
  1  5  1  0
  1  6  1  0
  1  7  1  0
  2  3  1  0
  2  8  1  0
  2 15  1  0
  3  4  2  0
  3  9  1  0
 10 11  1  0
 10 12  1  0
 10 13  1  0
 10 14  1  0
 11 16  1  0
 11 17  1  0
M  RAD  1  11   2
M  END
>  <reaction>  (4) 
rxn_892

>  <mol_properties>  (4) 
{"1": {"label": "*1", "atom_type": "Cs"}, "2": {"label": "*0", "atom_type": "CS"}, "9": {"label": "*4", "atom_type": "Cs"}, "10": {"label": "*3", "atom_type": "Cs"}, "14": {"label": "*2", "atom_type": "H0"}}

>  <type>  (4) 
ts

$$$$

     RDKit          3D

 17 15  0  0  0  0  0  0  0  0999 V2000
   -1.7285    1.6496    0.9886 C   0  0  0  0  0  0  0  0  0  0  0  0
   -0.4906    1.3975    0.1236 C   0  0  0  0  0  0  0  0  0  0  0  0
    0.5874    0.7154    0.8974 C   0  0  0  0  0  0  0  0  0  0  0  0
    1.2404   -0.7159    0.5718 S   0  0  0  0  0  0  0  0  0  0  0  0
   -2.1644    0.7070    1.3221 H   0  0  0  0  0  0  0  0  0  0  0  0
   -1.4816    2.2409    1.8724 H   0  0  0  0  0  0  0  0  0  0  0  0
   -2.4836    2.1925    0.4201 H   0  0  0  0  0  0  0  0  0  0  0  0
   -0.0945    2.3605   -0.2193 H   0  0  0  0  0  0  0  0  0  0  0  0
    0.9297    1.2692    1.7752 H   0  0  0  0  0  0  0  0  0  0  0  0
   -0.4906   -1.0419   -2.3485 C   0  0  0  0  0  0  0  0  0  0  0  0
   -0.4906   -1.0419   -0.8257 C   0  0  0  0  0  3  0  0  0  0  0  0
   -1.3714   -0.5333   -2.7444 H   0  0  0  0  0  0  0  0  0  0  0  0
    0.3903   -0.5333   -2.7444 H   0  0  0  0  0  0  0  0  0  0  0  0
   -0.4906   -2.0590   -2.7444 H   0  0  0  0  0  0  0  0  0  0  0  0
   -0.4906    0.1787   -0.3507 H   0  0  0  0  0  0  0  0  0  0  0  0
    0.3903   -1.5504   -0.4299 H   0  0  0  0  0  0  0  0  0  0  0  0
   -1.3714   -1.5504   -0.4299 H   0  0  0  0  0  0  0  0  0  0  0  0
  1  2  1  0
  1  5  1  0
  1  6  1  0
  1  7  1  0
  2  3  1  0
  2  8  1  0
  2 15  1  0
  3  4  2  0
  3  9  1  0
 10 11  1  0
 10 12  1  0
 10 13  1  0
 10 14  1  0
 11 16  1  0
 11 17  1  0
M  RAD  1  11   2
M  END
>  <reaction>  (5) 
rxn_892

>  <mol_properties>  (5) 
{"1": {"label": "*1", "atom_type": "Cs"}, "2": {"label": "*0", "atom_type": "CS"}, "9": {"label": "*4", "atom_type": "Cs"}, "10": {"label": "*3", "atom_type": "Cs"}, "14": {"label": "*2", "atom_type": "H0"}}

>  <type>  (5) 
unop_1

>  <geom_source>  (5) 
Heuristics

$$$$

     RDKit          3D

 17 15  0  0  0  0  0  0  0  0999 V2000
   -0.0823    2.1011   -0.9745 C   0  0  0  0  0  0  0  0  0  0  0  0
    0.6324    1.1409   -0.0199 C   0  0  0  0  0  0  0  0  0  0  0  0
   -0.2130    0.8195    1.1666 C   0  0  0  0  0  0  0  0  0  0  0  0
   -0.7292   -0.6364    1.6082 S   0  0  0  0  0  0  0  0  0  0  0  0
   -0.9852    1.6419   -1.3790 H   0  0  0  0  0  0  0  0  0  0  0  0
   -0.3689    3.0247   -0.4679 H   0  0  0  0  0  0  0  0  0  0  0  0
    0.5704    2.3624   -1.8076 H   0  0  0  0  0  0  0  0  0  0  0  0
    1.5488    1.6192    0.3452 H   0  0  0  0  0  0  0  0  0  0  0  0
   -0.5027    1.6897    1.7610 H   0  0  0  0  0  0  0  0  0  0  0  0
    0.6324   -1.2984   -2.4921 C   0  0  0  0  0  0  0  0  0  0  0  0
    0.6324   -1.2984   -0.9693 C   0  0  0  0  0  3  0  0  0  0  0  0
   -0.2484   -0.7899   -2.8879 H   0  0  0  0  0  0  0  0  0  0  0  0
    1.5133   -0.7899   -2.8879 H   0  0  0  0  0  0  0  0  0  0  0  0
    0.6324   -2.3156   -2.8879 H   0  0  0  0  0  0  0  0  0  0  0  0
    0.6324   -0.0779   -0.4943 H   0  0  0  0  0  0  0  0  0  0  0  0
    1.5133   -1.8070   -0.5734 H   0  0  0  0  0  0  0  0  0  0  0  0
   -0.2484   -1.8070   -0.5734 H   0  0  0  0  0  0  0  0  0  0  0  0
  1  2  1  0
  1  5  1  0
  1  6  1  0
  1  7  1  0
  2  3  1  0
  2  8  1  0
  2 15  1  0
  3  4  2  0
  3  9  1  0
 10 11  1  0
 10 12  1  0
 10 13  1  0
 10 14  1  0
 11 16  1  0
 11 17  1  0
M  RAD  1  11   2
M  END
>  <reaction>  (6) 
rxn_892

>  <mol_properties>  (6) 
{"1": {"label": "*1", "atom_type": "Cs"}, "2": {"label": "*0", "atom_type": "CS"}, "9": {"label": "*4", "atom_type": "Cs"}, "10": {"label": "*3", "atom_type": "Cs"}, "14": {"label": "*2", "atom_type": "H0"}}

>  <type>  (6) 
unop_2

>  <geom_source>  (6) 
Heuristics

$$$$

     RDKit          3D

 17 15  0  0  0  0  0  0  0  0999 V2000
   -1.5245    1.2036    1.7406 C   0  0  0  0  0  0  0  0  0  0  0  0
   -0.8098    1.1412    0.3880 C   0  0  0  0  0  0  0  0  0  0  0  0
    0.6617    0.9610    0.5551 C   0  0  0  0  0  0  0  0  0  0  0  0
    1.5447   -0.2635    0.0055 S   0  0  0  0  0  0  0  0  0  0  0  0
   -1.4082    0.2638    2.2819 H   0  0  0  0  0  0  0  0  0  0  0  0
   -1.1255    2.0060    2.3640 H   0  0  0  0  0  0  0  0  0  0  0  0
   -2.5898    1.3856    1.5980 H   0  0  0  0  0  0  0  0  0  0  0  0
   -0.9703    2.0870   -0.1427 H   0  0  0  0  0  0  0  0  0  0  0  0
    1.1496    1.7539    1.1276 H   0  0  0  0  0  0  0  0  0  0  0  0
   -0.8098   -1.2981   -2.0841 C   0  0  0  0  0  0  0  0  0  0  0  0
   -0.8098   -1.2981   -0.5613 C   0  0  0  0  0  3  0  0  0  0  0  0
   -1.6907   -0.7895   -2.4800 H   0  0  0  0  0  0  0  0  0  0  0  0
    0.0710   -0.7895   -2.4800 H   0  0  0  0  0  0  0  0  0  0  0  0
   -0.8098   -2.3152   -2.4800 H   0  0  0  0  0  0  0  0  0  0  0  0
   -0.8098   -0.0776   -0.0863 H   0  0  0  0  0  0  0  0  0  0  0  0
    0.0710   -1.8067   -0.1655 H   0  0  0  0  0  0  0  0  0  0  0  0
   -1.6907   -1.8067   -0.1655 H   0  0  0  0  0  0  0  0  0  0  0  0
  1  2  1  0
  1  5  1  0
  1  6  1  0
  1  7  1  0
  2  3  1  0
  2  8  1  0
  2 15  1  0
  3  4  2  0
  3  9  1  0
 10 11  1  0
 10 12  1  0
 10 13  1  0
 10 14  1  0
 11 16  1  0
 11 17  1  0
M  RAD  1  11   2
M  END
>  <reaction>  (7) 
rxn_892

>  <mol_properties>  (7) 
{"1": {"label": "*1", "atom_type": "Cs"}, "2": {"label": "*0", "atom_type": "CS"}, "9": {"label": "*4", "atom_type": "Cs"}, "10": {"label": "*3", "atom_type": "Cs"}, "14": {"label": "*2", "atom_type": "H0"}}

>  <type>  (7) 
unop_3

>  <geom_source>  (7) 
Heuristics

$$$$

     RDKit          3D

 17 15  0  0  0  0  0  0  0  0999 V2000
    1.9856    0.9529    0.1651 C   0  0  0  0  0  0  0  0  0  0  0  0
    0.7477    0.1824    0.6321 C   0  0  0  0  0  0  0  0  0  0  0  0
   -0.3826    1.1035    0.9482 C   0  0  0  0  0  0  0  0  0  0  0  0
   -1.8287    1.1198    0.2485 S   0  0  0  0  0  0  0  0  0  0  0  0
    1.7798    1.4869   -0.7634 H   0  0  0  0  0  0  0  0  0  0  0  0
    2.3050    1.6817    0.9124 H   0  0  0  0  0  0  0  0  0  0  0  0
    2.8140    0.2669   -0.0122 H   0  0  0  0  0  0  0  0  0  0  0  0
    0.9952   -0.3661    1.5485 H   0  0  0  0  0  0  0  0  0  0  0  0
   -0.1606    1.8362    1.7282 H   0  0  0  0  0  0  0  0  0  0  0  0
    0.7477   -2.2570   -1.8400 C   0  0  0  0  0  0  0  0  0  0  0  0
    0.7477   -2.2570   -0.3172 C   0  0  0  0  0  3  0  0  0  0  0  0
   -0.1332   -1.7484   -2.2359 H   0  0  0  0  0  0  0  0  0  0  0  0
    1.6285   -1.7484   -2.2359 H   0  0  0  0  0  0  0  0  0  0  0  0
    0.7477   -3.2741   -2.2359 H   0  0  0  0  0  0  0  0  0  0  0  0
    0.7477   -1.0365    0.1578 H   0  0  0  0  0  0  0  0  0  0  0  0
    1.6285   -2.7655    0.0786 H   0  0  0  0  0  0  0  0  0  0  0  0
   -0.1332   -2.7655    0.0786 H   0  0  0  0  0  0  0  0  0  0  0  0
  1  2  1  0
  1  5  1  0
  1  6  1  0
  1  7  1  0
  2  3  1  0
  2  8  1  0
  2 15  1  0
  3  4  2  0
  3  9  1  0
 10 11  1  0
 10 12  1  0
 10 13  1  0
 10 14  1  0
 11 16  1  0
 11 17  1  0
M  RAD  1  11   2
M  END
>  <reaction>  (8) 
rxn_892

>  <mol_properties>  (8) 
{"1": {"label": "*1", "atom_type": "Cs"}, "2": {"label": "*0", "atom_type": "CS"}, "9": {"label": "*4", "atom_type": "Cs"}, "10": {"label": "*3", "atom_type": "Cs"}, "14": {"label": "*2", "atom_type": "H0"}}

>  <type>  (8) 
unop_4

>  <geom_source>  (8) 
Heuristics

$$$$

     RDKit          3D

 17 15  0  0  0  0  0  0  0  0999 V2000
   -0.8602    0.5409    2.3268 C   0  0  0  0  0  0  0  0  0  0  0  0
   -0.8602    0.5481    0.7957 C   0  0  0  0  0  0  0  0  0  0  0  0
    0.3081    1.3003    0.2525 C   0  0  0  0  0  0  0  0  0  0  0  0
    1.4646    0.7165   -0.6977 S   0  0  0  0  0  0  0  0  0  0  0  0
    0.0201    0.0234    2.7100 H   0  0  0  0  0  0  0  0  0  0  0  0
   -0.8590    1.5560    2.7286 H   0  0  0  0  0  0  0  0  0  0  0  0
   -1.7469    0.0306    2.7030 H   0  0  0  0  0  0  0  0  0  0  0  0
   -1.7699    1.0477    0.4426 H   0  0  0  0  0  0  0  0  0  0  0  0
    0.3556    2.3456    0.5677 H   0  0  0  0  0  0  0  0  0  0  0  0
   -0.8602   -1.8913   -1.6764 C   0  0  0  0  0  0  0  0  0  0  0  0
   -0.8602   -1.8913   -0.1537 C   0  0  0  0  0  3  0  0  0  0  0  0
   -1.7411   -1.3827   -2.0723 H   0  0  0  0  0  0  0  0  0  0  0  0
    0.0206   -1.3827   -2.0723 H   0  0  0  0  0  0  0  0  0  0  0  0
   -0.8602   -2.9084   -2.0723 H   0  0  0  0  0  0  0  0  0  0  0  0
   -0.8602   -0.6707    0.3214 H   0  0  0  0  0  0  0  0  0  0  0  0
    0.0206   -2.3998    0.2422 H   0  0  0  0  0  0  0  0  0  0  0  0
   -1.7411   -2.3998    0.2422 H   0  0  0  0  0  0  0  0  0  0  0  0
  1  2  1  0
  1  5  1  0
  1  6  1  0
  1  7  1  0
  2  3  1  0
  2  8  1  0
  2 15  1  0
  3  4  2  0
  3  9  1  0
 10 11  1  0
 10 12  1  0
 10 13  1  0
 10 14  1  0
 11 16  1  0
 11 17  1  0
M  RAD  1  11   2
M  END
>  <reaction>  (9) 
rxn_892

>  <mol_properties>  (9) 
{"1": {"label": "*1", "atom_type": "Cs"}, "2": {"label": "*0", "atom_type": "CS"}, "9": {"label": "*4", "atom_type": "Cs"}, "10": {"label": "*3", "atom_type": "Cs"}, "14": {"label": "*2", "atom_type": "H0"}}

>  <type>  (9) 
unop_5

>  <geom_source>  (9) 
Heuristics

$$$$

     RDKit          3D

 17 15  0  0  0  0  0  0  0  0999 V2000
    1.9476    0.5338    1.0352 C   0  0  0  0  0  0  0  0  0  0  0  0
    0.5182    0.0225    0.8363 C   0  0  0  0  0  0  0  0  0  0  0  0
   -0.4653    1.1441    0.8125 C   0  0  0  0  0  0  0  0  0  0  0  0
   -1.4494    1.5290   -0.3976 S   0  0  0  0  0  0  0  0  0  0  0  0
    2.2508    1.1662    0.1999 H   0  0  0  0  0  0  0  0  0  0  0  0
    2.0362    1.1182    1.9531 H   0  0  0  0  0  0  0  0  0  0  0  0
    2.6434   -0.3028    1.1000 H   0  0  0  0  0  0  0  0  0  0  0  0
    0.2549   -0.6322    1.6752 H   0  0  0  0  0  0  0  0  0  0  0  0
   -0.4765    1.7513    1.7212 H   0  0  0  0  0  0  0  0  0  0  0  0
    0.5182   -2.4169   -1.6359 C   0  0  0  0  0  0  0  0  0  0  0  0
    0.5182   -2.4169   -0.1131 C   0  0  0  0  0  3  0  0  0  0  0  0
   -0.3626   -1.9083   -2.0317 H   0  0  0  0  0  0  0  0  0  0  0  0
    1.3991   -1.9083   -2.0317 H   0  0  0  0  0  0  0  0  0  0  0  0
    0.5182   -3.4340   -2.0317 H   0  0  0  0  0  0  0  0  0  0  0  0
    0.5182   -1.1963    0.3619 H   0  0  0  0  0  0  0  0  0  0  0  0
    1.3991   -2.9254    0.2827 H   0  0  0  0  0  0  0  0  0  0  0  0
   -0.3626   -2.9254    0.2827 H   0  0  0  0  0  0  0  0  0  0  0  0
  1  2  1  0
  1  5  1  0
  1  6  1  0
  1  7  1  0
  2  3  1  0
  2  8  1  0
  2 15  1  0
  3  4  2  0
  3  9  1  0
 10 11  1  0
 10 12  1  0
 10 13  1  0
 10 14  1  0
 11 16  1  0
 11 17  1  0
M  RAD  1  11   2
M  END
>  <reaction>  (10) 
rxn_892

>  <mol_properties>  (10) 
{"1": {"label": "*1", "atom_type": "Cs"}, "2": {"label": "*0", "atom_type": "CS"}, "9": {"label": "*4", "atom_type": "Cs"}, "10": {"label": "*3", "atom_type": "Cs"}, "14": {"label": "*2", "atom_type": "H0"}}

>  <type>  (10) 
unop_6

>  <geom_source>  (10) 
Heuristics

$$$$

     RDKit          3D

 17 15  0  0  0  0  0  0  0  0999 V2000
    1.4083    0.2057    1.8676 C   0  0  0  0  0  0  0  0  0  0  0  0
    0.1704   -0.0464    1.0026 C   0  0  0  0  0  0  0  0  0  0  0  0
   -0.4727    1.2327    0.5825 C   0  0  0  0  0  0  0  0  0  0  0  0
   -0.6952    1.7424   -0.9248 S   0  0  0  0  0  0  0  0  0  0  0  0
    2.1719    0.7407    1.3016 H   0  0  0  0  0  0  0  0  0  0  0  0
    1.1619    0.7991    2.7502 H   0  0  0  0  0  0  0  0  0  0  0  0
    1.8333   -0.7397    2.2051 H   0  0  0  0  0  0  0  0  0  0  0  0
   -0.5643   -0.6102    1.5892 H   0  0  0  0  0  0  0  0  0  0  0  0
   -0.7973    1.8661    1.4118 H   0  0  0  0  0  0  0  0  0  0  0  0
    0.1704   -2.4857   -1.4695 C   0  0  0  0  0  0  0  0  0  0  0  0
    0.1704   -2.4857    0.0533 C   0  0  0  0  0  3  0  0  0  0  0  0
   -0.7105   -1.9772   -1.8654 H   0  0  0  0  0  0  0  0  0  0  0  0
    1.0512   -1.9772   -1.8654 H   0  0  0  0  0  0  0  0  0  0  0  0
    0.1704   -3.5028   -1.8654 H   0  0  0  0  0  0  0  0  0  0  0  0
    0.1704   -1.2652    0.5283 H   0  0  0  0  0  0  0  0  0  0  0  0
    1.0512   -2.9943    0.4491 H   0  0  0  0  0  0  0  0  0  0  0  0
   -0.7105   -2.9943    0.4491 H   0  0  0  0  0  0  0  0  0  0  0  0
  1  2  1  0
  1  5  1  0
  1  6  1  0
  1  7  1  0
  2  3  1  0
  2  8  1  0
  2 15  1  0
  3  4  2  0
  3  9  1  0
 10 11  1  0
 10 12  1  0
 10 13  1  0
 10 14  1  0
 11 16  1  0
 11 17  1  0
M  RAD  1  11   2
M  END
>  <reaction>  (11) 
rxn_892

>  <mol_properties>  (11) 
{"1": {"label": "*1", "atom_type": "Cs"}, "2": {"label": "*0", "atom_type": "CS"}, "9": {"label": "*4", "atom_type": "Cs"}, "10": {"label": "*3", "atom_type": "Cs"}, "14": {"label": "*2", "atom_type": "H0"}}

>  <type>  (11) 
unop_7

>  <geom_source>  (11) 
Heuristics

$$$$

     RDKit          3D

 17 15  0  0  0  0  0  0  0  0999 V2000
   -1.5570    1.9649    0.1640 C   0  0  0  0  0  0  0  0  0  0  0  0
   -0.1276    1.4536   -0.0350 C   0  0  0  0  0  0  0  0  0  0  0  0
    0.3253    0.6315    1.1246 C   0  0  0  0  0  0  0  0  0  0  0  0
    0.7843   -0.9077    1.0858 S   0  0  0  0  0  0  0  0  0  0  0  0
   -2.2599    1.1328    0.2202 H   0  0  0  0  0  0  0  0  0  0  0  0
   -1.6461    2.5473    1.0830 H   0  0  0  0  0  0  0  0  0  0  0  0
   -1.8502    2.6036   -0.6694 H   0  0  0  0  0  0  0  0  0  0  0  0
    0.5488    2.3124   -0.1174 H   0  0  0  0  0  0  0  0  0  0  0  0
    0.3150    1.1597    2.0814 H   0  0  0  0  0  0  0  0  0  0  0  0
   -0.1276   -0.9857   -2.5072 C   0  0  0  0  0  0  0  0  0  0  0  0
   -0.1276   -0.9857   -0.9844 C   0  0  0  0  0  3  0  0  0  0  0  0
   -1.0084   -0.4771   -2.9030 H   0  0  0  0  0  0  0  0  0  0  0  0
    0.7532   -0.4772   -2.9030 H   0  0  0  0  0  0  0  0  0  0  0  0
   -0.1276   -2.0028   -2.9030 H   0  0  0  0  0  0  0  0  0  0  0  0
   -0.1276    0.2348   -0.5094 H   0  0  0  0  0  0  0  0  0  0  0  0
    0.7532   -1.4943   -0.5885 H   0  0  0  0  0  0  0  0  0  0  0  0
   -1.0084   -1.4943   -0.5885 H   0  0  0  0  0  0  0  0  0  0  0  0
  1  2  1  0
  1  5  1  0
  1  6  1  0
  1  7  1  0
  2  3  1  0
  2  8  1  0
  2 15  1  0
  3  4  2  0
  3  9  1  0
 10 11  1  0
 10 12  1  0
 10 13  1  0
 10 14  1  0
 11 16  1  0
 11 17  1  0
M  RAD  1  11   2
M  END
>  <reaction>  (12) 
rxn_892

>  <mol_properties>  (12) 
{"1": {"label": "*1", "atom_type": "Cs"}, "2": {"label": "*0", "atom_type": "CS"}, "9": {"label": "*4", "atom_type": "Cs"}, "10": {"label": "*3", "atom_type": "Cs"}, "14": {"label": "*2", "atom_type": "H0"}}

>  <type>  (12) 
unop_8

>  <geom_source>  (12) 
Heuristics

$$$$

     RDKit          3D

 17 15  0  0  0  0  0  0  0  0999 V2000
    1.5943    1.4001   -0.5477 C   0  0  0  0  0  0  0  0  0  0  0  0
    0.8796    0.4398    0.4069 C   0  0  0  0  0  0  0  0  0  0  0  0
   -0.3286    1.0706    1.0137 C   0  0  0  0  0  0  0  0  0  0  0  0
   -1.8452    0.5572    0.8815 S   0  0  0  0  0  0  0  0  0  0  0  0
    0.9498    1.6583   -1.3890 H   0  0  0  0  0  0  0  0  0  0  0  0
    1.8787    2.3246   -0.0417 H   0  0  0  0  0  0  0  0  0  0  0  0
    2.5003    0.9387   -0.9409 H   0  0  0  0  0  0  0  0  0  0  0  0
    1.5622    0.1768    1.2234 H   0  0  0  0  0  0  0  0  0  0  0  0
   -0.1224    1.9795    1.5846 H   0  0  0  0  0  0  0  0  0  0  0  0
    0.8796   -1.9995   -2.0653 C   0  0  0  0  0  0  0  0  0  0  0  0
    0.8796   -1.9995   -0.5425 C   0  0  0  0  0  3  0  0  0  0  0  0
   -0.0012   -1.4910   -2.4611 H   0  0  0  0  0  0  0  0  0  0  0  0
    1.7604   -1.4910   -2.4611 H   0  0  0  0  0  0  0  0  0  0  0  0
    0.8796   -3.0166   -2.4611 H   0  0  0  0  0  0  0  0  0  0  0  0
    0.8796   -0.7790   -0.0675 H   0  0  0  0  0  0  0  0  0  0  0  0
    1.7604   -2.5081   -0.1466 H   0  0  0  0  0  0  0  0  0  0  0  0
   -0.0012   -2.5081   -0.1466 H   0  0  0  0  0  0  0  0  0  0  0  0
  1  2  1  0
  1  5  1  0
  1  6  1  0
  1  7  1  0
  2  3  1  0
  2  8  1  0
  2 15  1  0
  3  4  2  0
  3  9  1  0
 10 11  1  0
 10 12  1  0
 10 13  1  0
 10 14  1  0
 11 16  1  0
 11 17  1  0
M  RAD  1  11   2
M  END
>  <reaction>  (13) 
rxn_892

>  <mol_properties>  (13) 
{"1": {"label": "*1", "atom_type": "Cs"}, "2": {"label": "*0", "atom_type": "CS"}, "9": {"label": "*4", "atom_type": "Cs"}, "10": {"label": "*3", "atom_type": "Cs"}, "14": {"label": "*2", "atom_type": "H0"}}

>  <type>  (13) 
unop_9

>  <geom_source>  (13) 
Heuristics

$$$$

     RDKit          3D

 17 15  0  0  0  0  0  0  0  0999 V2000
   -0.9731    2.1410   -0.5583 C   0  0  0  0  0  0  0  0  0  0  0  0
    0.2648    1.3705   -0.0912 C   0  0  0  0  0  0  0  0  0  0  0  0
    0.0199    0.6779    1.2074 C   0  0  0  0  0  0  0  0  0  0  0  0
    0.1049   -0.9031    1.4800 S   0  0  0  0  0  0  0  0  0  0  0  0
   -1.8034    1.4592   -0.7465 H   0  0  0  0  0  0  0  0  0  0  0  0
   -1.2940    2.8682    0.1901 H   0  0  0  0  0  0  0  0  0  0  0  0
   -0.7579    2.6798   -1.4811 H   0  0  0  0  0  0  0  0  0  0  0  0
    1.0879    2.0785    0.0603 H   0  0  0  0  0  0  0  0  0  0  0  0
   -0.2580    1.3451    2.0272 H   0  0  0  0  0  0  0  0  0  0  0  0
    0.2648   -1.0688   -2.5634 C   0  0  0  0  0  0  0  0  0  0  0  0
    0.2648   -1.0688   -1.0406 C   0  0  0  0  0  3  0  0  0  0  0  0
   -0.6161   -0.5603   -2.9592 H   0  0  0  0  0  0  0  0  0  0  0  0
    1.1456   -0.5603   -2.9592 H   0  0  0  0  0  0  0  0  0  0  0  0
    0.2648   -2.0860   -2.9592 H   0  0  0  0  0  0  0  0  0  0  0  0
    0.2648    0.1517   -0.5655 H   0  0  0  0  0  0  0  0  0  0  0  0
    1.1456   -1.5774   -0.6447 H   0  0  0  0  0  0  0  0  0  0  0  0
   -0.6161   -1.5774   -0.6447 H   0  0  0  0  0  0  0  0  0  0  0  0
  1  2  1  0
  1  5  1  0
  1  6  1  0
  1  7  1  0
  2  3  1  0
  2  8  1  0
  2 15  1  0
  3  4  2  0
  3  9  1  0
 10 11  1  0
 10 12  1  0
 10 13  1  0
 10 14  1  0
 11 16  1  0
 11 17  1  0
M  RAD  1  11   2
M  END
>  <reaction>  (14) 
rxn_892

>  <mol_properties>  (14) 
{"1": {"label": "*1", "atom_type": "Cs"}, "2": {"label": "*0", "atom_type": "CS"}, "9": {"label": "*4", "atom_type": "Cs"}, "10": {"label": "*3", "atom_type": "Cs"}, "14": {"label": "*2", "atom_type": "H0"}}

>  <type>  (14) 
unop_10

>  <geom_source>  (14) 
Heuristics

$$$$

     RDKit          3D

 17 15  0  0  0  0  0  0  0  0999 V2000
    0.3668    0.1165    2.4024 C   0  0  0  0  0  0  0  0  0  0  0  0
   -0.3479    0.0542    1.0498 C   0  0  0  0  0  0  0  0  0  0  0  0
   -0.2470    1.3504    0.3180 C   0  0  0  0  0  0  0  0  0  0  0  0
    0.4264    1.5873   -1.1213 S   0  0  0  0  0  0  0  0  0  0  0  0
    1.4352    0.2892    2.2665 H   0  0  0  0  0  0  0  0  0  0  0  0
   -0.0305    0.9205    3.0248 H   0  0  0  0  0  0  0  0  0  0  0  0
    0.2388   -0.8220    2.9419 H   0  0  0  0  0  0  0  0  0  0  0  0
   -1.4116   -0.1496    1.2190 H   0  0  0  0  0  0  0  0  0  0  0  0
   -0.6710    2.2033    0.8540 H   0  0  0  0  0  0  0  0  0  0  0  0
   -0.3479   -2.3852   -1.4223 C   0  0  0  0  0  0  0  0  0  0  0  0
   -0.3479   -2.3852    0.1005 C   0  0  0  0  0  3  0  0  0  0  0  0
   -1.2287   -1.8766   -1.8182 H   0  0  0  0  0  0  0  0  0  0  0  0
    0.5330   -1.8766   -1.8182 H   0  0  0  0  0  0  0  0  0  0  0  0
   -0.3479   -3.4023   -1.8182 H   0  0  0  0  0  0  0  0  0  0  0  0
   -0.3479   -1.1646    0.5755 H   0  0  0  0  0  0  0  0  0  0  0  0
    0.5330   -2.8937    0.4963 H   0  0  0  0  0  0  0  0  0  0  0  0
   -1.2287   -2.8937    0.4963 H   0  0  0  0  0  0  0  0  0  0  0  0
  1  2  1  0
  1  5  1  0
  1  6  1  0
  1  7  1  0
  2  3  1  0
  2  8  1  0
  2 15  1  0
  3  4  2  0
  3  9  1  0
 10 11  1  0
 10 12  1  0
 10 13  1  0
 10 14  1  0
 11 16  1  0
 11 17  1  0
M  RAD  1  11   2
M  END
>  <reaction>  (15) 
rxn_892

>  <mol_properties>  (15) 
{"1": {"label": "*1", "atom_type": "Cs"}, "2": {"label": "*0", "atom_type": "CS"}, "9": {"label": "*4", "atom_type": "Cs"}, "10": {"label": "*3", "atom_type": "Cs"}, "14": {"label": "*2", "atom_type": "H0"}}

>  <type>  (15) 
unop_11

>  <geom_source>  (15) 
Heuristics

$$$$

     RDKit          3D

 17 15  0  0  0  0  0  0  0  0999 V2000
    0.8602    1.8214   -0.9634 C   0  0  0  0  0  0  0  0  0  0  0  0
    0.8602    0.7917    0.1697 C   0  0  0  0  0  0  0  0  0  0  0  0
   -0.3081    0.9788    1.0784 C   0  0  0  0  0  0  0  0  0  0  0  0
   -1.4646   -0.0937    1.3841 S   0  0  0  0  0  0  0  0  0  0  0  0
   -0.0201    1.6991   -1.5957 H   0  0  0  0  0  0  0  0  0  0  0  0
    0.8590    2.8410   -0.5734 H   0  0  0  0  0  0  0  0  0  0  0  0
    1.7469    1.6997   -1.5856 H   0  0  0  0  0  0  0  0  0  0  0  0
    1.7699    0.9212    0.7676 H   0  0  0  0  0  0  0  0  0  0  0  0
   -0.3556    1.9623    1.5528 H   0  0  0  0  0  0  0  0  0  0  0  0
    0.8602   -1.6476   -2.3025 C   0  0  0  0  0  0  0  0  0  0  0  0
    0.8602   -1.6476   -0.7797 C   0  0  0  0  0  3  0  0  0  0  0  0
   -0.0206   -1.1391   -2.6983 H   0  0  0  0  0  0  0  0  0  0  0  0
    1.7411   -1.1391   -2.6983 H   0  0  0  0  0  0  0  0  0  0  0  0
    0.8602   -2.6647   -2.6983 H   0  0  0  0  0  0  0  0  0  0  0  0
    0.8602   -0.4271   -0.3046 H   0  0  0  0  0  0  0  0  0  0  0  0
    1.7411   -2.1562   -0.3838 H   0  0  0  0  0  0  0  0  0  0  0  0
   -0.0206   -2.1562   -0.3838 H   0  0  0  0  0  0  0  0  0  0  0  0
  1  2  1  0
  1  5  1  0
  1  6  1  0
  1  7  1  0
  2  3  1  0
  2  8  1  0
  2 15  1  0
  3  4  2  0
  3  9  1  0
 10 11  1  0
 10 12  1  0
 10 13  1  0
 10 14  1  0
 11 16  1  0
 11 17  1  0
M  RAD  1  11   2
M  END
>  <reaction>  (16) 
rxn_892

>  <mol_properties>  (16) 
{"1": {"label": "*1", "atom_type": "Cs"}, "2": {"label": "*0", "atom_type": "CS"}, "9": {"label": "*4", "atom_type": "Cs"}, "10": {"label": "*3", "atom_type": "Cs"}, "14": {"label": "*2", "atom_type": "H0"}}

>  <type>  (16) 
unop_12

>  <geom_source>  (16) 
Heuristics

$$$$

     RDKit          3D

 17 15  0  0  0  0  0  0  0  0999 V2000
   -2.9207    1.7562    0.4612 S   0  0  0  0  0  1  0  0  0  0  0  0
   -1.1626    0.0425   -0.2796 C   0  0  0  0  0  0  0  0  0  0  0  0
   -1.6844   -1.2392    0.3631 C   0  0  0  0  0  0  0  0  0  0  0  0
    2.4221    0.0312    0.2465 C   0  0  0  0  0  0  0  0  0  0  0  0
   -1.5715    1.2610    0.5004 C   0  0  0  0  0  0  0  0  0  0  0  0
    1.3872    0.2670   -0.8379 C   0  0  0  0  0  0  0  0  0  0  0  0
   -1.5218    0.1139   -1.3300 H   0  0  0  0  0  0  0  0  0  0  0  0
    0.2539   -0.0195   -0.3074 H   0  0  0  0  0  0  0  0  0  0  0  0
   -2.7951   -1.2549    0.3564 H   0  0  0  0  0  0  0  0  0  0  0  0
   -1.3135   -2.1147   -0.2096 H   0  0  0  0  0  0  0  0  0  0  0  0
   -1.3198   -1.3185    1.4092 H   0  0  0  0  0  0  0  0  0  0  0  0
    2.3513    0.8343    1.0093 H   0  0  0  0  0  0  0  0  0  0  0  0
    3.4407    0.0333   -0.1956 H   0  0  0  0  0  0  0  0  0  0  0  0
    2.2349   -0.9488    0.7327 H   0  0  0  0  0  0  0  0  0  0  0  0
   -0.8091    1.8440    1.0057 H   0  0  0  0  0  0  0  0  0  0  0  0
    1.5625    1.2500   -1.3235 H   0  0  0  0  0  0  0  0  0  0  0  0
    1.4458   -0.5376   -1.6008 H   0  0  0  0  0  0  0  0  0  0  0  0
  1  5  1  0
  2  3  1  0
  2  5  2  3
  2  7  1  0
  3  9  1  0
  3 10  1  0
  3 11  1  0
  4  6  1  0
  4 12  1  0
  4 13  1  0
  4 14  1  0
  5 15  1  0
  6  8  1  0
  6 16  1  0
  6 17  1  0
M  RAD  1   1   2
M  END
>  <reaction>  (17) 
rxn_892

>  <mol_properties>  (17) 
{"1": {"label": "*1", "atom_type": "Cs"}, "2": {"label": "*0", "atom_type": "CS"}, "9": {"label": "*4", "atom_type": "Cs"}, "10": {"label": "*3", "atom_type": "Cs"}, "14": {"label": "*2", "atom_type": "H0"}}

>  <type>  (17) 
unop_13

>  <geom_source>  (17) 
AutoTST

$$$$

     RDKit          3D

 17 15  0  0  0  0  0  0  0  0999 V2000
   -0.0823    2.1012   -0.9745 C   0  0  0  0  0  0  0  0  0  0  0  0
    0.6324    1.1409   -0.0199 C   0  0  0  0  0  0  0  0  0  0  0  0
   -0.2130    0.8195    1.1666 C   0  0  0  0  0  0  0  0  0  0  0  0
   -0.7292   -0.6364    1.6082 S   0  0  0  0  0  0  0  0  0  0  0  0
   -0.9852    1.6419   -1.3790 H   0  0  0  0  0  0  0  0  0  0  0  0
   -0.3689    3.0247   -0.4679 H   0  0  0  0  0  0  0  0  0  0  0  0
    0.5704    2.3624   -1.8076 H   0  0  0  0  0  0  0  0  0  0  0  0
    1.5488    1.6192    0.3452 H   0  0  0  0  0  0  0  0  0  0  0  0
   -0.5027    1.6897    1.7610 H   0  0  0  0  0  0  0  0  0  0  0  0
    0.6324   -1.2985   -2.4921 C   0  0  0  0  0  0  0  0  0  0  0  0
    0.6324   -1.2985   -0.9693 C   0  0  0  0  0  3  0  0  0  0  0  0
   -0.2484   -0.7899   -2.8879 H   0  0  0  0  0  0  0  0  0  0  0  0
    1.5133   -0.7899   -2.8879 H   0  0  0  0  0  0  0  0  0  0  0  0
    0.6324   -2.3156   -2.8879 H   0  0  0  0  0  0  0  0  0  0  0  0
    0.6324   -0.0779   -0.4943 H   0  0  0  0  0  0  0  0  0  0  0  0
    1.5133   -1.8070   -0.5734 H   0  0  0  0  0  0  0  0  0  0  0  0
   -0.2484   -1.8070   -0.5734 H   0  0  0  0  0  0  0  0  0  0  0  0
  1  2  1  0
  1  5  1  0
  1  6  1  0
  1  7  1  0
  2  3  1  0
  2  8  1  0
  2 15  1  0
  3  4  2  0
  3  9  1  0
 10 11  1  0
 10 12  1  0
 10 13  1  0
 10 14  1  0
 11 16  1  0
 11 17  1  0
M  RAD  1  11   2
M  END
>  <reaction>  (18) 
rxn_892

>  <mol_properties>  (18) 
{"1": {"label": "*1", "atom_type": "Cs"}, "2": {"label": "*0", "atom_type": "CS"}, "9": {"label": "*4", "atom_type": "Cs"}, "10": {"label": "*3", "atom_type": "Cs"}, "14": {"label": "*2", "atom_type": "H0"}}

>  <type>  (18) 
unop_14

>  <geom_source>  (18) 
gaussian_log

$$$$
