
     RDKit          3D

 11 10  0  0  0  0  0  0  0  0999 V2000
   -1.2710    0.1907   -0.2084 C   0  0  0  0  0  0  0  0  0  0  0  0
    0.0202   -0.6130   -0.2928 C   0  0  0  0  0  0  0  0  0  0  0  0
    0.1086   -1.6953    0.7756 C   0  0  0  0  0  0  0  0  0  0  0  0
   -1.3607    0.6851    0.7620 H   0  0  0  0  0  0  0  0  0  0  0  0
   -2.1429   -0.4567   -0.3299 H   0  0  0  0  0  0  0  0  0  0  0  0
   -1.3158    0.9602   -0.9809 H   0  0  0  0  0  0  0  0  0  0  0  0
    0.8757    0.0616   -0.1992 H   0  0  0  0  0  0  0  0  0  0  0  0
    0.0997   -1.0712   -1.2825 H   0  0  0  0  0  0  0  0  0  0  0  0
   -0.7198   -2.4022    0.6850 H   0  0  0  0  0  0  0  0  0  0  0  0
    1.0395   -2.2596    0.6989 H   0  0  0  0  0  0  0  0  0  0  0  0
    0.0624   -1.2603    1.7770 H   0  0  0  0  0  0  0  0  0  0  0  0
  1  2  1  0
  1  4  1  0
  1  5  1  0
  1  6  1  0
  2  3  1  0
  2  7  1  0
  2  8  1  0
  3  9  1  0
  3 10  1  0
  3 11  1  0
M  END
>  <reaction>  (1) 
rxn_926

>  <mol_properties>  (1) 
{"1": {"label": "donator", "atom_type": "Cs"}, "6": {"label": "d_hydrogen", "atom_type": "H0"}}

>  <type>  (1) 
r1h

$$$$

     RDKit          3D

  8  7  0  0  0  0  0  0  0  0999 V2000
    1.4038   -0.4003    0.0140 C   0  0  0  0  0  0  0  0  0  0  0  0
    0.2804    0.0563    0.4920 C   0  0  0  0  0  3  0  0  0  0  0  0
   -1.0935    0.3323    0.0625 C   0  0  0  0  0  0  0  0  0  0  0  0
    1.4898   -0.7154   -1.0285 H   0  0  0  0  0  0  0  0  0  0  0  0
    2.2990   -0.4891    0.6210 H   0  0  0  0  0  0  0  0  0  0  0  0
   -1.3399    1.3883    0.1900 H   0  0  0  0  0  0  0  0  0  0  0  0
   -1.2285    0.0762   -0.9967 H   0  0  0  0  0  0  0  0  0  0  0  0
   -1.8111   -0.2482    0.6457 H   0  0  0  0  0  0  0  0  0  0  0  0
  1  2  2  3
  1  4  1  0
  1  5  1  0
  2  3  1  0
  3  6  1  0
  3  7  1  0
  3  8  1  0
M  RAD  1   2   2
M  END
>  <reaction>  (2) 
rxn_926

>  <mol_properties>  (2) 
{"1": {"label": "acceptor", "atom_type": "Cd"}}

>  <type>  (2) 
r2

$$$$

     RDKit          3D

  9  8  0  0  0  0  0  0  0  0999 V2000
    1.1303   -0.2933   -0.7510 C   0  0  0  0  0  0  0  0  0  0  0  0
    0.2866    0.4560   -0.0588 C   0  0  0  0  0  0  0  0  0  0  0  0
   -0.9719   -0.0331    0.5823 C   0  0  0  0  0  0  0  0  0  0  0  0
    2.0274    0.1230   -1.1916 H   0  0  0  0  0  0  0  0  0  0  0  0
    0.9532   -1.3530   -0.9023 H   0  0  0  0  0  0  0  0  0  0  0  0
    0.5065    1.5132    0.0659 H   0  0  0  0  0  0  0  0  0  0  0  0
   -0.9526    0.1426    1.6610 H   0  0  0  0  0  0  0  0  0  0  0  0
   -1.1182   -1.1002    0.4106 H   0  0  0  0  0  0  0  0  0  0  0  0
   -1.8412    0.5010    0.1901 H   0  0  0  0  0  0  0  0  0  0  0  0
  1  2  2  3
  1  4  1  0
  1  5  1  0
  2  3  1  0
  2  6  1  0
  3  7  1  0
  3  8  1  0
  3  9  1  0
M  END
>  <reaction>  (3) 
rxn_926

>  <mol_properties>  (3) 
{"1": {"label": "acceptor", "atom_type": "Cd"}, "8": {"label": "a_hydrogen", "atom_type": "H0"}}

>  <type>  (3) 
r2h

$$$$

     RDKit          3D

 19 17  0  0  0  0  0  0  0  0999 V2000
    1.6590   -1.3575   -0.4384 C   0  0  0  0  0  0  0  0  0  0  0  0
    0.8987   -0.8399    0.5010 C   0  0  0  0  0  3  0  0  0  0  0  0
    1.0674   -0.8001    1.9726 C   0  0  0  0  0  0  0  0  0  0  0  0
    2.5910   -1.8699   -0.2017 H   0  0  0  0  0  0  0  0  0  0  0  0
    1.3900   -1.2966   -1.4874 H   0  0  0  0  0  0  0  0  0  0  0  0
    0.2227   -1.2785    2.4741 H   0  0  0  0  0  0  0  0  0  0  0  0
    1.9852   -1.3091    2.2838 H   0  0  0  0  0  0  0  0  0  0  0  0
    1.1097    0.2320    2.3295 H   0  0  0  0  0  0  0  0  0  0  0  0
   -1.1028    0.4899   -1.9021 C   0  0  0  0  0  0  0  0  0  0  0  0
   -1.2612    0.4723   -0.4020 C   0  0  0  0  0  0  0  0  0  0  0  0
   -1.1845    1.8196    0.2733 C   0  0  0  0  0  0  0  0  0  0  0  0
   -0.1580    0.9599   -2.1871 H   0  0  0  0  0  0  0  0  0  0  0  0
   -1.9084    1.0582   -2.3797 H   0  0  0  0  0  0  0  0  0  0  0  0
   -1.1183   -0.5191   -2.3178 H   0  0  0  0  0  0  0  0  0  0  0  0
   -0.2615   -0.1985    0.0499 H   0  0  0  0  0  0  0  0  0  0  0  0
   -2.1230   -0.1133   -0.0773 H   0  0  0  0  0  0  0  0  0  0  0  0
   -1.9925    2.4789   -0.0610 H   0  0  0  0  0  0  0  0  0  0  0  0
   -1.2593    1.7293    1.3585 H   0  0  0  0  0  0  0  0  0  0  0  0
   -0.2391    2.3164    0.0401 H   0  0  0  0  0  0  0  0  0  0  0  0
  1  2  2  3
  1  4  1  0
  1  5  1  0
  2  3  1  0
  3  6  1  0
  3  7  1  0
  3  8  1  0
  9 10  1  0
  9 12  1  0
  9 13  1  0
  9 14  1  0
 10 11  1  0
 10 15  1  0
 10 16  1  0
 11 17  1  0
 11 18  1  0
 11 19  1  0
M  RAD  1   2   2
M  END
>  <reaction>  (4) 
rxn_926

>  <mol_properties>  (4) 
{"0": {"label": "*4", "atom_type": "Cd"}, "1": {"label": "*3", "atom_type": "Cd"}, "8": {"label": "*0", "atom_type": "Cs"}, "9": {"label": "*1", "atom_type": "Cs"}, "14": {"label": "*2", "atom_type": "H0"}}

>  <type>  (4) 
ts

$$$$

     RDKit          3D

 19 17  0  0  0  0  0  0  0  0999 V2000
    1.9029   -0.1431    1.1950 C   0  0  0  0  0  0  0  0  0  0  0  0
    1.0245   -0.7789    0.4358 C   0  0  0  0  0  0  0  0  0  0  0  0
    0.5055   -2.1573    0.6904 C   0  0  0  0  0  0  0  0  0  0  0  0
    2.3179   -0.6021    2.0862 H   0  0  0  0  0  0  0  0  0  0  0  0
    2.2396    0.8576    0.9551 H   0  0  0  0  0  0  0  0  0  0  0  0
    0.7296   -2.8188   -0.1504 H   0  0  0  0  0  0  0  0  0  0  0  0
    0.9428   -2.5878    1.5922 H   0  0  0  0  0  0  0  0  0  0  0  0
   -0.5815   -2.1486    0.8053 H   0  0  0  0  0  0  0  0  0  0  0  0
   -1.0681    0.5284   -1.9585 C   0  0  0  0  0  0  0  0  0  0  0  0
   -1.0681    0.5284   -0.4352 C   0  0  0  0  0  3  0  0  0  0  0  0
   -1.0681    1.9342    0.1515 C   0  0  0  0  0  0  0  0  0  0  0  0
   -0.1867    1.0426   -2.3491 H   0  0  0  0  0  0  0  0  0  0  0  0
   -1.9496    1.0426   -2.3491 H   0  0  0  0  0  0  0  0  0  0  0  0
   -1.0681   -0.4865   -2.3597 H   0  0  0  0  0  0  0  0  0  0  0  0
   -0.0187   -0.1272    0.0016 H   0  0  0  0  0  0  0  0  0  0  0  0
   -1.9426   -0.0180   -0.0712 H   0  0  0  0  0  0  0  0  0  0  0  0
   -1.9496    2.4928   -0.1726 H   0  0  0  0  0  0  0  0  0  0  0  0
   -1.0681    1.9135    1.2426 H   0  0  0  0  0  0  0  0  0  0  0  0
   -0.1867    2.4928   -0.1726 H   0  0  0  0  0  0  0  0  0  0  0  0
  1  2  2  3
  1  4  1  0
  1  5  1  0
  2  3  1  0
  2 15  1  0
  3  6  1  0
  3  7  1  0
  3  8  1  0
  9 10  1  0
  9 12  1  0
  9 13  1  0
  9 14  1  0
 10 11  1  0
 10 16  1  0
 11 17  1  0
 11 18  1  0
 11 19  1  0
M  RAD  1  10   2
M  END
>  <reaction>  (5) 
rxn_926

>  <mol_properties>  (5) 
{"0": {"label": "*4", "atom_type": "Cd"}, "1": {"label": "*3", "atom_type": "Cd"}, "8": {"label": "*0", "atom_type": "Cs"}, "9": {"label": "*1", "atom_type": "Cs"}, "14": {"label": "*2", "atom_type": "H0"}}

>  <type>  (5) 
unop_1

>  <geom_source>  (5) 
Heuristics

$$$$

     RDKit          3D

 19 17  0  0  0  0  0  0  0  0999 V2000
    2.0026   -0.8616   -0.2608 C   0  0  0  0  0  0  0  0  0  0  0  0
    0.9017   -0.8579    0.4744 C   0  0  0  0  0  0  0  0  0  0  0  0
    0.8348   -1.2103    1.9255 C   0  0  0  0  0  0  0  0  0  0  0  0
    2.9645   -1.1320    0.1619 H   0  0  0  0  0  0  0  0  0  0  0  0
    1.9839   -0.5953   -1.3101 H   0  0  0  0  0  0  0  0  0  0  0  0
    0.1588   -2.0533    2.0902 H   0  0  0  0  0  0  0  0  0  0  0  0
    1.8175   -1.4763    2.3168 H   0  0  0  0  0  0  0  0  0  0  0  0
    0.4459   -0.3735    2.5113 H   0  0  0  0  0  0  0  0  0  0  0  0
   -1.1909    0.4495   -1.9199 C   0  0  0  0  0  0  0  0  0  0  0  0
   -1.1909    0.4495   -0.3966 C   0  0  0  0  0  3  0  0  0  0  0  0
   -1.1909    1.8553    0.1901 C   0  0  0  0  0  0  0  0  0  0  0  0
   -0.3094    0.9637   -2.3106 H   0  0  0  0  0  0  0  0  0  0  0  0
   -2.0723    0.9637   -2.3106 H   0  0  0  0  0  0  0  0  0  0  0  0
   -1.1909   -0.5654   -2.3211 H   0  0  0  0  0  0  0  0  0  0  0  0
   -0.1414   -0.2062    0.0402 H   0  0  0  0  0  0  0  0  0  0  0  0
   -2.0654   -0.0969   -0.0326 H   0  0  0  0  0  0  0  0  0  0  0  0
   -2.0723    2.4138   -0.1340 H   0  0  0  0  0  0  0  0  0  0  0  0
   -1.1909    1.8346    1.2812 H   0  0  0  0  0  0  0  0  0  0  0  0
   -0.3094    2.4138   -0.1340 H   0  0  0  0  0  0  0  0  0  0  0  0
  1  2  2  3
  1  4  1  0
  1  5  1  0
  2  3  1  0
  2 15  1  0
  3  6  1  0
  3  7  1  0
  3  8  1  0
  9 10  1  0
  9 12  1  0
  9 13  1  0
  9 14  1  0
 10 11  1  0
 10 16  1  0
 11 17  1  0
 11 18  1  0
 11 19  1  0
M  RAD  1  10   2
M  END
>  <reaction>  (6) 
rxn_926

>  <mol_properties>  (6) 
{"0": {"label": "*4", "atom_type": "Cd"}, "1": {"label": "*3", "atom_type": "Cd"}, "8": {"label": "*0", "atom_type": "Cs"}, "9": {"label": "*1", "atom_type": "Cs"}, "14": {"label": "*2", "atom_type": "H0"}}

>  <type>  (6) 
unop_2

>  <geom_source>  (6) 
Heuristics

$$$$

     RDKit          3D

 19 17  0  0  0  0  0  0  0  0999 V2000
    1.5343   -0.3752    1.6711 C   0  0  0  0  0  0  0  0  0  0  0  0
    1.0008   -0.7258    0.5115 C   0  0  0  0  0  0  0  0  0  0  0  0
    0.9336   -2.1221   -0.0177 C   0  0  0  0  0  0  0  0  0  0  0  0
    1.9743   -1.1102    2.3370 H   0  0  0  0  0  0  0  0  0  0  0  0
    1.5515    0.6569    1.9978 H   0  0  0  0  0  0  0  0  0  0  0  0
    1.4528   -2.2000   -0.9764 H   0  0  0  0  0  0  0  0  0  0  0  0
    1.3840   -2.8334    0.6757 H   0  0  0  0  0  0  0  0  0  0  0  0
   -0.1027   -2.4219   -0.1936 H   0  0  0  0  0  0  0  0  0  0  0  0
   -1.0918    0.5815   -1.8828 C   0  0  0  0  0  0  0  0  0  0  0  0
   -1.0918    0.5815   -0.3595 C   0  0  0  0  0  3  0  0  0  0  0  0
   -1.0918    1.9873    0.2272 C   0  0  0  0  0  0  0  0  0  0  0  0
   -0.2104    1.0957   -2.2735 H   0  0  0  0  0  0  0  0  0  0  0  0
   -1.9733    1.0957   -2.2735 H   0  0  0  0  0  0  0  0  0  0  0  0
   -1.0918   -0.4334   -2.2840 H   0  0  0  0  0  0  0  0  0  0  0  0
   -0.0424   -0.0741    0.0773 H   0  0  0  0  0  0  0  0  0  0  0  0
   -1.9664    0.0351    0.0045 H   0  0  0  0  0  0  0  0  0  0  0  0
   -1.9733    2.5459   -0.0969 H   0  0  0  0  0  0  0  0  0  0  0  0
   -1.0919    1.9666    1.3183 H   0  0  0  0  0  0  0  0  0  0  0  0
   -0.2104    2.5459   -0.0969 H   0  0  0  0  0  0  0  0  0  0  0  0
  1  2  2  3
  1  4  1  0
  1  5  1  0
  2  3  1  0
  2 15  1  0
  3  6  1  0
  3  7  1  0
  3  8  1  0
  9 10  1  0
  9 12  1  0
  9 13  1  0
  9 14  1  0
 10 11  1  0
 10 16  1  0
 11 17  1  0
 11 18  1  0
 11 19  1  0
M  RAD  1  10   2
M  END
>  <reaction>  (7) 
rxn_926

>  <mol_properties>  (7) 
{"0": {"label": "*4", "atom_type": "Cd"}, "1": {"label": "*3", "atom_type": "Cd"}, "8": {"label": "*0", "atom_type": "Cs"}, "9": {"label": "*1", "atom_type": "Cs"}, "14": {"label": "*2", "atom_type": "H0"}}

>  <type>  (7) 
unop_3

>  <geom_source>  (7) 
Heuristics

$$$$

     RDKit          3D

 19 17  0  0  0  0  0  0  0  0999 V2000
    1.1121   -2.0877    0.1007 C   0  0  0  0  0  0  0  0  0  0  0  0
    0.9708   -0.8148    0.4355 C   0  0  0  0  0  0  0  0  0  0  0  0
    1.4334   -0.2064    1.7200 C   0  0  0  0  0  0  0  0  0  0  0  0
    1.5924   -2.7979    0.7656 H   0  0  0  0  0  0  0  0  0  0  0  0
    0.7540   -2.4671   -0.8481 H   0  0  0  0  0  0  0  0  0  0  0  0
    0.5951    0.2342    2.2657 H   0  0  0  0  0  0  0  0  0  0  0  0
    1.9105   -0.9471    2.3629 H   0  0  0  0  0  0  0  0  0  0  0  0
    2.1482    0.5992    1.5336 H   0  0  0  0  0  0  0  0  0  0  0  0
   -1.1218    0.4925   -1.9589 C   0  0  0  0  0  0  0  0  0  0  0  0
   -1.1218    0.4925   -0.4356 C   0  0  0  0  0  3  0  0  0  0  0  0
   -1.1218    1.8983    0.1512 C   0  0  0  0  0  0  0  0  0  0  0  0
   -0.2403    1.0068   -2.3495 H   0  0  0  0  0  0  0  0  0  0  0  0
   -2.0032    1.0068   -2.3495 H   0  0  0  0  0  0  0  0  0  0  0  0
   -1.1218   -0.5224   -2.3600 H   0  0  0  0  0  0  0  0  0  0  0  0
   -0.0723   -0.1631    0.0013 H   0  0  0  0  0  0  0  0  0  0  0  0
   -1.9963   -0.0538   -0.0715 H   0  0  0  0  0  0  0  0  0  0  0  0
   -2.0032    2.4569   -0.1730 H   0  0  0  0  0  0  0  0  0  0  0  0
   -1.1218    1.8776    1.2423 H   0  0  0  0  0  0  0  0  0  0  0  0
   -0.2403    2.4569   -0.1730 H   0  0  0  0  0  0  0  0  0  0  0  0
  1  2  2  3
  1  4  1  0
  1  5  1  0
  2  3  1  0
  2 15  1  0
  3  6  1  0
  3  7  1  0
  3  8  1  0
  9 10  1  0
  9 12  1  0
  9 13  1  0
  9 14  1  0
 10 11  1  0
 10 16  1  0
 11 17  1  0
 11 18  1  0
 11 19  1  0
M  RAD  1  10   2
M  END
>  <reaction>  (8) 
rxn_926

>  <mol_properties>  (8) 
{"0": {"label": "*4", "atom_type": "Cd"}, "1": {"label": "*3", "atom_type": "Cd"}, "8": {"label": "*0", "atom_type": "Cs"}, "9": {"label": "*1", "atom_type": "Cs"}, "14": {"label": "*2", "atom_type": "H0"}}

>  <type>  (8) 
unop_4

>  <geom_source>  (8) 
Heuristics

$$$$

     RDKit          3D

 19 17  0  0  0  0  0  0  0  0999 V2000
    1.0640   -0.9131    1.8884 C   0  0  0  0  0  0  0  0  0  0  0  0
    0.8817   -0.7992    0.5822 C   0  0  0  0  0  0  0  0  0  0  0  0
    1.7859   -1.3641   -0.4654 C   0  0  0  0  0  0  0  0  0  0  0  0
    1.9166   -1.4457    2.2965 H   0  0  0  0  0  0  0  0  0  0  0  0
    0.3699   -0.4795    2.5972 H   0  0  0  0  0  0  0  0  0  0  0  0
    2.1755   -0.5726   -1.1107 H   0  0  0  0  0  0  0  0  0  0  0  0
    2.6305   -1.8917   -0.0207 H   0  0  0  0  0  0  0  0  0  0  0  0
    1.2455   -2.0614   -1.1107 H   0  0  0  0  0  0  0  0  0  0  0  0
   -1.2110    0.5081   -1.8121 C   0  0  0  0  0  0  0  0  0  0  0  0
   -1.2110    0.5081   -0.2888 C   0  0  0  0  0  3  0  0  0  0  0  0
   -1.2110    1.9140    0.2979 C   0  0  0  0  0  0  0  0  0  0  0  0
   -0.3295    1.0224   -2.2028 H   0  0  0  0  0  0  0  0  0  0  0  0
   -2.0924    1.0224   -2.2028 H   0  0  0  0  0  0  0  0  0  0  0  0
   -1.2110   -0.5068   -2.2133 H   0  0  0  0  0  0  0  0  0  0  0  0
   -0.1615   -0.1475    0.1480 H   0  0  0  0  0  0  0  0  0  0  0  0
   -2.0855   -0.0382    0.0752 H   0  0  0  0  0  0  0  0  0  0  0  0
   -2.0924    2.4725   -0.0262 H   0  0  0  0  0  0  0  0  0  0  0  0
   -1.2110    1.8933    1.3890 H   0  0  0  0  0  0  0  0  0  0  0  0
   -0.3295    2.4725   -0.0262 H   0  0  0  0  0  0  0  0  0  0  0  0
  1  2  2  3
  1  4  1  0
  1  5  1  0
  2  3  1  0
  2 15  1  0
  3  6  1  0
  3  7  1  0
  3  8  1  0
  9 10  1  0
  9 12  1  0
  9 13  1  0
  9 14  1  0
 10 11  1  0
 10 16  1  0
 11 17  1  0
 11 18  1  0
 11 19  1  0
M  RAD  1  10   2
M  END
>  <reaction>  (9) 
rxn_926

>  <mol_properties>  (9) 
{"0": {"label": "*4", "atom_type": "Cd"}, "1": {"label": "*3", "atom_type": "Cd"}, "8": {"label": "*0", "atom_type": "Cs"}, "9": {"label": "*1", "atom_type": "Cs"}, "14": {"label": "*2", "atom_type": "H0"}}

>  <type>  (9) 
unop_5

>  <geom_source>  (9) 
Heuristics

$$$$

     RDKit          3D

 19 17  0  0  0  0  0  0  0  0999 V2000
    0.8611   -2.1777    0.6256 C   0  0  0  0  0  0  0  0  0  0  0  0
    0.9659   -0.8753    0.4134 C   0  0  0  0  0  0  0  0  0  0  0  0
    1.6863    0.0863    1.3026 C   0  0  0  0  0  0  0  0  0  0  0  0
    1.3103   -2.6476    1.4943 H   0  0  0  0  0  0  0  0  0  0  0  0
    0.3238   -2.8218   -0.0590 H   0  0  0  0  0  0  0  0  0  0  0  0
    1.0080    0.8621    1.6670 H   0  0  0  0  0  0  0  0  0  0  0  0
    2.1247   -0.4191    2.1641 H   0  0  0  0  0  0  0  0  0  0  0  0
    2.4860    0.5951    0.7582 H   0  0  0  0  0  0  0  0  0  0  0  0
   -1.1267    0.4321   -1.9809 C   0  0  0  0  0  0  0  0  0  0  0  0
   -1.1267    0.4321   -0.4576 C   0  0  0  0  0  3  0  0  0  0  0  0
   -1.1267    1.8379    0.1291 C   0  0  0  0  0  0  0  0  0  0  0  0
   -0.2453    0.9463   -2.3716 H   0  0  0  0  0  0  0  0  0  0  0  0
   -2.0082    0.9463   -2.3716 H   0  0  0  0  0  0  0  0  0  0  0  0
   -1.1267   -0.5828   -2.3821 H   0  0  0  0  0  0  0  0  0  0  0  0
   -0.0773   -0.2235   -0.0208 H   0  0  0  0  0  0  0  0  0  0  0  0
   -2.0012   -0.1143   -0.0936 H   0  0  0  0  0  0  0  0  0  0  0  0
   -2.0082    2.3965   -0.1950 H   0  0  0  0  0  0  0  0  0  0  0  0
   -1.1267    1.8172    1.2202 H   0  0  0  0  0  0  0  0  0  0  0  0
   -0.2453    2.3965   -0.1950 H   0  0  0  0  0  0  0  0  0  0  0  0
  1  2  2  3
  1  4  1  0
  1  5  1  0
  2  3  1  0
  2 15  1  0
  3  6  1  0
  3  7  1  0
  3  8  1  0
  9 10  1  0
  9 12  1  0
  9 13  1  0
  9 14  1  0
 10 11  1  0
 10 16  1  0
 11 17  1  0
 11 18  1  0
 11 19  1  0
M  RAD  1  10   2
M  END
>  <reaction>  (10) 
rxn_926

>  <mol_properties>  (10) 
{"0": {"label": "*4", "atom_type": "Cd"}, "1": {"label": "*3", "atom_type": "Cd"}, "8": {"label": "*0", "atom_type": "Cs"}, "9": {"label": "*1", "atom_type": "Cs"}, "14": {"label": "*2", "atom_type": "H0"}}

>  <type>  (10) 
unop_6

>  <geom_source>  (10) 
Heuristics

$$$$

     RDKit          3D

 19 17  0  0  0  0  0  0  0  0999 V2000
    0.7399   -2.0047    1.1950 C   0  0  0  0  0  0  0  0  0  0  0  0
    0.9261   -0.9364    0.4358 C   0  0  0  0  0  0  0  0  0  0  0  0
    1.9373    0.1345    0.6904 C   0  0  0  0  0  0  0  0  0  0  0  0
    1.3344   -2.1764    2.0862 H   0  0  0  0  0  0  0  0  0  0  0  0
   -0.0118   -2.7462    0.9551 H   0  0  0  0  0  0  0  0  0  0  0  0
    1.4527    1.1075    0.8053 H   0  0  0  0  0  0  0  0  0  0  0  0
    2.5159   -0.0697    1.5922 H   0  0  0  0  0  0  0  0  0  0  0  0
    2.6300    0.2232   -0.1504 H   0  0  0  0  0  0  0  0  0  0  0  0
   -1.1665    0.3709   -1.9585 C   0  0  0  0  0  0  0  0  0  0  0  0
   -1.1665    0.3709   -0.4352 C   0  0  0  0  0  3  0  0  0  0  0  0
   -1.1665    1.7767    0.1515 C   0  0  0  0  0  0  0  0  0  0  0  0
   -0.2850    0.8852   -2.3491 H   0  0  0  0  0  0  0  0  0  0  0  0
   -2.0480    0.8852   -2.3491 H   0  0  0  0  0  0  0  0  0  0  0  0
   -1.1665   -0.6440   -2.3597 H   0  0  0  0  0  0  0  0  0  0  0  0
   -0.1171   -0.2847    0.0016 H   0  0  0  0  0  0  0  0  0  0  0  0
   -2.0410   -0.1755   -0.0712 H   0  0  0  0  0  0  0  0  0  0  0  0
   -2.0480    2.3353   -0.1726 H   0  0  0  0  0  0  0  0  0  0  0  0
   -1.1665    1.7560    1.2426 H   0  0  0  0  0  0  0  0  0  0  0  0
   -0.2850    2.3353   -0.1726 H   0  0  0  0  0  0  0  0  0  0  0  0
  1  2  2  3
  1  4  1  0
  1  5  1  0
  2  3  1  0
  2 15  1  0
  3  6  1  0
  3  7  1  0
  3  8  1  0
  9 10  1  0
  9 12  1  0
  9 13  1  0
  9 14  1  0
 10 11  1  0
 10 16  1  0
 11 17  1  0
 11 18  1  0
 11 19  1  0
M  RAD  1  10   2
M  END
>  <reaction>  (11) 
rxn_926

>  <mol_properties>  (11) 
{"0": {"label": "*4", "atom_type": "Cd"}, "1": {"label": "*3", "atom_type": "Cd"}, "8": {"label": "*0", "atom_type": "Cs"}, "9": {"label": "*1", "atom_type": "Cs"}, "14": {"label": "*2", "atom_type": "H0"}}

>  <type>  (11) 
unop_7

>  <geom_source>  (11) 
Heuristics

$$$$

     RDKit          3D

 19 17  0  0  0  0  0  0  0  0999 V2000
    2.1115   -0.1762    0.6256 C   0  0  0  0  0  0  0  0  0  0  0  0
    0.9870   -0.8415    0.4134 C   0  0  0  0  0  0  0  0  0  0  0  0
    0.4388   -1.9107    1.3026 C   0  0  0  0  0  0  0  0  0  0  0  0
    2.7308   -0.3738    1.4943 H   0  0  0  0  0  0  0  0  0  0  0  0
    2.4547    0.5892   -0.0590 H   0  0  0  0  0  0  0  0  0  0  0  0
    0.3322   -2.8525    0.7582 H   0  0  0  0  0  0  0  0  0  0  0  0
    1.0852   -2.0830    2.1641 H   0  0  0  0  0  0  0  0  0  0  0  0
   -0.5559   -1.6413    1.6670 H   0  0  0  0  0  0  0  0  0  0  0  0
   -1.1056    0.4658   -1.9809 C   0  0  0  0  0  0  0  0  0  0  0  0
   -1.1056    0.4658   -0.4576 C   0  0  0  0  0  3  0  0  0  0  0  0
   -1.1056    1.8716    0.1291 C   0  0  0  0  0  0  0  0  0  0  0  0
   -0.2242    0.9801   -2.3715 H   0  0  0  0  0  0  0  0  0  0  0  0
   -1.9871    0.9801   -2.3716 H   0  0  0  0  0  0  0  0  0  0  0  0
   -1.1056   -0.5491   -2.3821 H   0  0  0  0  0  0  0  0  0  0  0  0
   -0.0562   -0.1898   -0.0208 H   0  0  0  0  0  0  0  0  0  0  0  0
   -1.9802   -0.0806   -0.0936 H   0  0  0  0  0  0  0  0  0  0  0  0
   -1.9871    2.4302   -0.1950 H   0  0  0  0  0  0  0  0  0  0  0  0
   -1.1056    1.8509    1.2202 H   0  0  0  0  0  0  0  0  0  0  0  0
   -0.2242    2.4302   -0.1950 H   0  0  0  0  0  0  0  0  0  0  0  0
  1  2  2  3
  1  4  1  0
  1  5  1  0
  2  3  1  0
  2 15  1  0
  3  6  1  0
  3  7  1  0
  3  8  1  0
  9 10  1  0
  9 12  1  0
  9 13  1  0
  9 14  1  0
 10 11  1  0
 10 16  1  0
 11 17  1  0
 11 18  1  0
 11 19  1  0
M  RAD  1  10   2
M  END
>  <reaction>  (12) 
rxn_926

>  <mol_properties>  (12) 
{"0": {"label": "*4", "atom_type": "Cd"}, "1": {"label": "*3", "atom_type": "Cd"}, "8": {"label": "*0", "atom_type": "Cs"}, "9": {"label": "*1", "atom_type": "Cs"}, "14": {"label": "*2", "atom_type": "H0"}}

>  <type>  (12) 
unop_8

>  <geom_source>  (12) 
Heuristics

$$$$

     RDKit          3D

 19 17  0  0  0  0  0  0  0  0999 V2000
    1.4294   -1.7792   -0.2608 C   0  0  0  0  0  0  0  0  0  0  0  0
    0.9432   -0.7915    0.4744 C   0  0  0  0  0  0  0  0  0  0  0  0
    1.2306   -0.5768    1.9255 C   0  0  0  0  0  0  0  0  0  0  0  0
    2.0942   -2.5251    0.1619 H   0  0  0  0  0  0  0  0  0  0  0  0
    1.1819   -1.8792   -1.3101 H   0  0  0  0  0  0  0  0  0  0  0  0
    0.3080   -0.5942    2.5113 H   0  0  0  0  0  0  0  0  0  0  0  0
    1.9006   -1.3433    2.3168 H   0  0  0  0  0  0  0  0  0  0  0  0
    1.6917    0.4004    2.0902 H   0  0  0  0  0  0  0  0  0  0  0  0
   -1.1494    0.5158   -1.9199 C   0  0  0  0  0  0  0  0  0  0  0  0
   -1.1494    0.5158   -0.3966 C   0  0  0  0  0  3  0  0  0  0  0  0
   -1.1494    1.9217    0.1901 C   0  0  0  0  0  0  0  0  0  0  0  0
   -0.2680    1.0301   -2.3106 H   0  0  0  0  0  0  0  0  0  0  0  0
   -2.0309    1.0301   -2.3106 H   0  0  0  0  0  0  0  0  0  0  0  0
   -1.1494   -0.4991   -2.3211 H   0  0  0  0  0  0  0  0  0  0  0  0
   -0.1000   -0.1398    0.0402 H   0  0  0  0  0  0  0  0  0  0  0  0
   -2.0240   -0.0305   -0.0326 H   0  0  0  0  0  0  0  0  0  0  0  0
   -2.0309    2.4802   -0.1340 H   0  0  0  0  0  0  0  0  0  0  0  0
   -1.1494    1.9010    1.2812 H   0  0  0  0  0  0  0  0  0  0  0  0
   -0.2680    2.4802   -0.1340 H   0  0  0  0  0  0  0  0  0  0  0  0
  1  2  2  3
  1  4  1  0
  1  5  1  0
  2  3  1  0
  2 15  1  0
  3  6  1  0
  3  7  1  0
  3  8  1  0
  9 10  1  0
  9 12  1  0
  9 13  1  0
  9 14  1  0
 10 11  1  0
 10 16  1  0
 11 17  1  0
 11 18  1  0
 11 19  1  0
M  RAD  1  10   2
M  END
>  <reaction>  (13) 
rxn_926

>  <mol_properties>  (13) 
{"0": {"label": "*4", "atom_type": "Cd"}, "1": {"label": "*3", "atom_type": "Cd"}, "8": {"label": "*0", "atom_type": "Cs"}, "9": {"label": "*1", "atom_type": "Cs"}, "14": {"label": "*2", "atom_type": "H0"}}

>  <type>  (13) 
unop_9

>  <geom_source>  (13) 
Heuristics

$$$$

     RDKit          3D

 19 17  0  0  0  0  0  0  0  0999 V2000
    2.1408   -0.4412    0.1007 C   0  0  0  0  0  0  0  0  0  0  0  0
    0.9348   -0.8725    0.4355 C   0  0  0  0  0  0  0  0  0  0  0  0
    0.5909   -1.5550    1.7200 C   0  0  0  0  0  0  0  0  0  0  0  0
    2.9896   -0.5614    0.7656 H   0  0  0  0  0  0  0  0  0  0  0  0
    2.3246    0.0470   -0.8481 H   0  0  0  0  0  0  0  0  0  0  0  0
    0.1804   -2.5507    1.5336 H   0  0  0  0  0  0  0  0  0  0  0  0
    1.4658   -1.6590    2.3629 H   0  0  0  0  0  0  0  0  0  0  0  0
   -0.1728   -0.9948    2.2657 H   0  0  0  0  0  0  0  0  0  0  0  0
   -1.1578    0.4349   -1.9589 C   0  0  0  0  0  0  0  0  0  0  0  0
   -1.1578    0.4349   -0.4356 C   0  0  0  0  0  3  0  0  0  0  0  0
   -1.1578    1.8407    0.1512 C   0  0  0  0  0  0  0  0  0  0  0  0
   -0.2763    0.9491   -2.3495 H   0  0  0  0  0  0  0  0  0  0  0  0
   -2.0392    0.9491   -2.3495 H   0  0  0  0  0  0  0  0  0  0  0  0
   -1.1578   -0.5800   -2.3600 H   0  0  0  0  0  0  0  0  0  0  0  0
   -0.1083   -0.2208    0.0013 H   0  0  0  0  0  0  0  0  0  0  0  0
   -2.0323   -0.1115   -0.0715 H   0  0  0  0  0  0  0  0  0  0  0  0
   -2.0392    2.3992   -0.1730 H   0  0  0  0  0  0  0  0  0  0  0  0
   -1.1578    1.8200    1.2423 H   0  0  0  0  0  0  0  0  0  0  0  0
   -0.2763    2.3992   -0.1730 H   0  0  0  0  0  0  0  0  0  0  0  0
  1  2  2  3
  1  4  1  0
  1  5  1  0
  2  3  1  0
  2 15  1  0
  3  6  1  0
  3  7  1  0
  3  8  1  0
  9 10  1  0
  9 12  1  0
  9 13  1  0
  9 14  1  0
 10 11  1  0
 10 16  1  0
 11 17  1  0
 11 18  1  0
 11 19  1  0
M  RAD  1  10   2
M  END
>  <reaction>  (14) 
rxn_926

>  <mol_properties>  (14) 
{"0": {"label": "*4", "atom_type": "Cd"}, "1": {"label": "*3", "atom_type": "Cd"}, "8": {"label": "*0", "atom_type": "Cs"}, "9": {"label": "*1", "atom_type": "Cs"}, "14": {"label": "*2", "atom_type": "H0"}}

>  <type>  (14) 
unop_10

>  <geom_source>  (14) 
Heuristics

$$$$

     RDKit          3D

 19 17  0  0  0  0  0  0  0  0999 V2000
    0.7869   -1.5717    1.6711 C   0  0  0  0  0  0  0  0  0  0  0  0
    0.8680   -0.9384    0.5115 C   0  0  0  0  0  0  0  0  0  0  0  0
    2.0934   -0.2657   -0.0177 C   0  0  0  0  0  0  0  0  0  0  0  0
    1.6403   -1.6448    2.3370 H   0  0  0  0  0  0  0  0  0  0  0  0
   -0.1332   -2.0398    1.9978 H   0  0  0  0  0  0  0  0  0  0  0  0
    1.9083    0.7971   -0.1936 H   0  0  0  0  0  0  0  0  0  0  0  0
    2.9301   -0.3585    0.6757 H   0  0  0  0  0  0  0  0  0  0  0  0
    2.3911   -0.6981   -0.9764 H   0  0  0  0  0  0  0  0  0  0  0  0
   -1.2246    0.3689   -1.8828 C   0  0  0  0  0  0  0  0  0  0  0  0
   -1.2246    0.3689   -0.3595 C   0  0  0  0  0  3  0  0  0  0  0  0
   -1.2246    1.7747    0.2272 C   0  0  0  0  0  0  0  0  0  0  0  0
   -0.3432    0.8832   -2.2735 H   0  0  0  0  0  0  0  0  0  0  0  0
   -2.1061    0.8832   -2.2735 H   0  0  0  0  0  0  0  0  0  0  0  0
   -1.2246   -0.6460   -2.2840 H   0  0  0  0  0  0  0  0  0  0  0  0
   -0.1752   -0.2867    0.0773 H   0  0  0  0  0  0  0  0  0  0  0  0
   -2.0992   -0.1774    0.0045 H   0  0  0  0  0  0  0  0  0  0  0  0
   -2.1061    2.3333   -0.0969 H   0  0  0  0  0  0  0  0  0  0  0  0
   -1.2246    1.7541    1.3183 H   0  0  0  0  0  0  0  0  0  0  0  0
   -0.3432    2.3333   -0.0969 H   0  0  0  0  0  0  0  0  0  0  0  0
  1  2  2  3
  1  4  1  0
  1  5  1  0
  2  3  1  0
  2 15  1  0
  3  6  1  0
  3  7  1  0
  3  8  1  0
  9 10  1  0
  9 12  1  0
  9 13  1  0
  9 14  1  0
 10 11  1  0
 10 16  1  0
 11 17  1  0
 11 18  1  0
 11 19  1  0
M  RAD  1  10   2
M  END
>  <reaction>  (15) 
rxn_926

>  <mol_properties>  (15) 
{"0": {"label": "*4", "atom_type": "Cd"}, "1": {"label": "*3", "atom_type": "Cd"}, "8": {"label": "*0", "atom_type": "Cs"}, "9": {"label": "*1", "atom_type": "Cs"}, "14": {"label": "*2", "atom_type": "H0"}}

>  <type>  (15) 
unop_11

>  <geom_source>  (15) 
Heuristics

$$$$

     RDKit          3D

 19 17  0  0  0  0  0  0  0  0999 V2000
    1.7455   -1.3389   -0.3880 C   0  0  0  0  0  0  0  0  0  0  0  0
    0.9081   -0.8157    0.4937 C   0  0  0  0  0  0  0  0  0  0  0  0
    1.0542   -0.9070    1.9785 C   0  0  0  0  0  0  0  0  0  0  0  0
    2.6264   -1.8892   -0.0746 H   0  0  0  0  0  0  0  0  0  0  0  0
    1.5826   -1.2371   -1.4536 H   0  0  0  0  0  0  0  0  0  0  0  0
    0.1869   -1.4001    2.4250 H   0  0  0  0  0  0  0  0  0  0  0  0
    1.9485   -1.4657    2.2575 H   0  0  0  0  0  0  0  0  0  0  0  0
    1.1170    0.0887    2.4250 H   0  0  0  0  0  0  0  0  0  0  0  0
   -1.1845    0.4916   -1.9006 C   0  0  0  0  0  0  0  0  0  0  0  0
   -1.1845    0.4916   -0.3773 C   0  0  0  0  0  3  0  0  0  0  0  0
   -1.1845    1.8974    0.2094 C   0  0  0  0  0  0  0  0  0  0  0  0
   -0.3030    1.0059   -2.2912 H   0  0  0  0  0  0  0  0  0  0  0  0
   -2.0659    1.0059   -2.2912 H   0  0  0  0  0  0  0  0  0  0  0  0
   -1.1845   -0.5233   -2.3018 H   0  0  0  0  0  0  0  0  0  0  0  0
   -0.1350   -0.1640    0.0595 H   0  0  0  0  0  0  0  0  0  0  0  0
   -2.0590   -0.0548   -0.0133 H   0  0  0  0  0  0  0  0  0  0  0  0
   -2.0659    2.4560   -0.1147 H   0  0  0  0  0  0  0  0  0  0  0  0
   -1.1845    1.8767    1.3005 H   0  0  0  0  0  0  0  0  0  0  0  0
   -0.3030    2.4560   -0.1147 H   0  0  0  0  0  0  0  0  0  0  0  0
  1  2  2  3
  1  4  1  0
  1  5  1  0
  2  3  1  0
  2 15  1  0
  3  6  1  0
  3  7  1  0
  3  8  1  0
  9 10  1  0
  9 12  1  0
  9 13  1  0
  9 14  1  0
 10 11  1  0
 10 16  1  0
 11 17  1  0
 11 18  1  0
 11 19  1  0
M  RAD  1  10   2
M  END
>  <reaction>  (16) 
rxn_926

>  <mol_properties>  (16) 
{"0": {"label": "*4", "atom_type": "Cd"}, "1": {"label": "*3", "atom_type": "Cd"}, "8": {"label": "*0", "atom_type": "Cs"}, "9": {"label": "*1", "atom_type": "Cs"}, "14": {"label": "*2", "atom_type": "H0"}}

>  <type>  (16) 
unop_12

>  <geom_source>  (16) 
Heuristics

$$$$

     RDKit          3D

 19 17  0  0  0  0  0  0  0  0999 V2000
   -1.4684    1.3325    0.0504 C   0  0  0  0  0  0  0  0  0  0  0  0
   -1.8442   -1.0211   -0.7719 C   0  0  0  0  0  0  0  0  0  0  0  0
    1.9547    0.3174   -0.7846 C   0  0  0  0  0  0  0  0  0  0  0  0
   -1.2111   -0.1477    0.3043 C   0  0  0  0  0  3  0  0  0  0  0  0
    1.3631   -0.3005    0.4431 C   0  0  0  0  0  0  0  0  0  0  0  0
    2.1166   -0.5812    1.5079 C   0  0  0  0  0  0  0  0  0  0  0  0
    2.4030    1.3024   -0.5356 H   0  0  0  0  0  0  0  0  0  0  0  0
    2.7360   -0.3495   -1.2066 H   0  0  0  0  0  0  0  0  0  0  0  0
    1.1595    0.4657   -1.5443 H   0  0  0  0  0  0  0  0  0  0  0  0
   -2.5590    1.5432    0.0629 H   0  0  0  0  0  0  0  0  0  0  0  0
   -1.0444    1.6314   -0.9314 H   0  0  0  0  0  0  0  0  0  0  0  0
   -0.9778    1.9315    0.8455 H   0  0  0  0  0  0  0  0  0  0  0  0
   -1.4267   -0.7633   -1.7681 H   0  0  0  0  0  0  0  0  0  0  0  0
   -1.6194   -2.0868   -0.5585 H   0  0  0  0  0  0  0  0  0  0  0  0
   -2.9462   -0.8817   -0.7844 H   0  0  0  0  0  0  0  0  0  0  0  0
   -1.6056   -0.4337    1.3031 H   0  0  0  0  0  0  0  0  0  0  0  0
    0.1238   -0.5617    0.4711 H   0  0  0  0  0  0  0  0  0  0  0  0
    1.6647   -1.0291    2.3864 H   0  0  0  0  0  0  0  0  0  0  0  0
    3.1814   -0.3677    1.5109 H   0  0  0  0  0  0  0  0  0  0  0  0
  1  4  1  0
  1 10  1  0
  1 11  1  0
  1 12  1  0
  2  4  1  0
  2 13  1  0
  2 14  1  0
  2 15  1  0
  3  5  1  0
  3  7  1  0
  3  8  1  0
  3  9  1  0
  4 16  1  0
  5  6  2  3
  5 17  1  0
  6 18  1  0
  6 19  1  0
M  RAD  1   4   2
M  END
>  <reaction>  (17) 
rxn_926

>  <mol_properties>  (17) 
{"0": {"label": "*4", "atom_type": "Cd"}, "1": {"label": "*3", "atom_type": "Cd"}, "8": {"label": "*0", "atom_type": "Cs"}, "9": {"label": "*1", "atom_type": "Cs"}, "14": {"label": "*2", "atom_type": "H0"}}

>  <type>  (17) 
unop_13

>  <geom_source>  (17) 
AutoTST

$$$$
