
     RDKit          3D

 11 10  0  0  0  0  0  0  0  0999 V2000
   -1.2710    0.1907   -0.2084 C   0  0  0  0  0  0  0  0  0  0  0  0
    0.0202   -0.6130   -0.2928 C   0  0  0  0  0  0  0  0  0  0  0  0
    0.1086   -1.6953    0.7756 C   0  0  0  0  0  0  0  0  0  0  0  0
   -1.3607    0.6851    0.7620 H   0  0  0  0  0  0  0  0  0  0  0  0
   -2.1429   -0.4567   -0.3299 H   0  0  0  0  0  0  0  0  0  0  0  0
   -1.3158    0.9602   -0.9809 H   0  0  0  0  0  0  0  0  0  0  0  0
    0.8757    0.0616   -0.1992 H   0  0  0  0  0  0  0  0  0  0  0  0
    0.0997   -1.0712   -1.2825 H   0  0  0  0  0  0  0  0  0  0  0  0
   -0.7198   -2.4022    0.6850 H   0  0  0  0  0  0  0  0  0  0  0  0
    1.0395   -2.2596    0.6989 H   0  0  0  0  0  0  0  0  0  0  0  0
    0.0624   -1.2603    1.7770 H   0  0  0  0  0  0  0  0  0  0  0  0
  1  2  1  0
  1  4  1  0
  1  5  1  0
  1  6  1  0
  2  3  1  0
  2  7  1  0
  2  8  1  0
  3  9  1  0
  3 10  1  0
  3 11  1  0
M  END
>  <reaction>  (1) 
rxn_334

>  <mol_properties>  (1) 
{"1": {"label": "donator", "atom_type": "Cs"}, "6": {"label": "d_hydrogen", "atom_type": "H0"}}

>  <type>  (1) 
r1h

$$$$

     RDKit          3D

  3  2  0  0  0  0  0  0  0  0999 V2000
   -0.0494   -0.2484    0.2507 C   0  0  0  0  0  3  0  0  0  0  0  0
    1.0305   -0.0025   -0.1225 O   0  0  0  0  0  0  0  0  0  0  0  0
   -0.9811    0.2509   -0.1282 H   0  0  0  0  0  0  0  0  0  0  0  0
  1  2  2  0
  1  3  1  0
M  RAD  1   1   2
M  END
>  <reaction>  (2) 
rxn_334

>  <mol_properties>  (2) 
{"0": {"label": "acceptor", "atom_type": "CO"}}

>  <type>  (2) 
r2

$$$$

     RDKit          3D

  4  3  0  0  0  0  0  0  0  0999 V2000
   -0.0057    0.0001   -0.0008 C   0  0  0  0  0  0  0  0  0  0  0  0
    1.1789   -0.0174    0.1563 O   0  0  0  0  0  0  0  0  0  0  0  0
   -0.5891    0.9399    0.0445 H   0  0  0  0  0  0  0  0  0  0  0  0
   -0.5841   -0.9226   -0.2001 H   0  0  0  0  0  0  0  0  0  0  0  0
  1  2  2  0
  1  3  1  0
  1  4  1  0
M  END
>  <reaction>  (3) 
rxn_334

>  <mol_properties>  (3) 
{"0": {"label": "acceptor", "atom_type": "CO"}, "3": {"label": "a_hydrogen", "atom_type": "H0"}}

>  <type>  (3) 
r2h

$$$$

     RDKit          3D

 14 12  0  0  0  0  0  0  0  0999 V2000
    1.2189   -0.6865    0.7482 C   0  0  0  0  0  0  0  0  0  0  0  0
    2.2256   -0.2924    0.2607 O   0  0  0  0  0  0  0  0  0  0  0  0
    1.2002   -1.5040    1.5099 H   0  0  0  0  0  0  0  0  0  0  0  0
   -0.9676    0.2498   -1.6087 C   0  0  0  0  0  0  0  0  0  0  0  0
   -1.0282    0.5599   -0.1387 C   0  0  0  0  0  3  0  0  0  0  0  0
   -0.7427    1.9823    0.2563 C   0  0  0  0  0  0  0  0  0  0  0  0
    0.0030    0.5314   -2.0254 H   0  0  0  0  0  0  0  0  0  0  0  0
   -1.7332    0.8052   -2.1628 H   0  0  0  0  0  0  0  0  0  0  0  0
   -1.1254   -0.8121   -1.8054 H   0  0  0  0  0  0  0  0  0  0  0  0
    0.0565   -0.1582    0.3976 H   0  0  0  0  0  0  0  0  0  0  0  0
   -1.8832    0.1187    0.3742 H   0  0  0  0  0  0  0  0  0  0  0  0
   -1.4916    2.6668   -0.1588 H   0  0  0  0  0  0  0  0  0  0  0  0
   -0.7461    2.1101    1.3402 H   0  0  0  0  0  0  0  0  0  0  0  0
    0.2328    2.3016   -0.1199 H   0  0  0  0  0  0  0  0  0  0  0  0
  1  2  2  0
  1  3  1  0
  1 10  1  0
  4  5  1  0
  4  7  1  0
  4  8  1  0
  4  9  1  0
  5  6  1  0
  5 11  1  0
  6 12  1  0
  6 13  1  0
  6 14  1  0
M  RAD  1   5   2
M  END
>  <reaction>  (4) 
rxn_334

>  <mol_properties>  (4) 
{"0": {"label": "*1", "atom_type": "CO"}, "1": {"label": "*0", "atom_type": "O2d"}, "3": {"label": "*4", "atom_type": "Cs"}, "4": {"label": "*3", "atom_type": "Cs"}, "9": {"label": "*2", "atom_type": "H0"}}

>  <type>  (4) 
ts

$$$$

     RDKit          3D

 14 12  0  0  0  0  0  0  0  0999 V2000
    1.0955   -1.1830    0.5680 C   0  0  0  0  0  3  0  0  0  0  0  0
    1.9236   -0.6650    1.2566 O   0  0  0  0  0  0  0  0  0  0  0  0
    0.6886   -2.1871    0.7955 H   0  0  0  0  0  0  0  0  0  0  0  0
   -1.0164    0.1364   -1.8344 C   0  0  0  0  0  0  0  0  0  0  0  0
   -1.0164    0.1364   -0.3111 C   0  0  0  0  0  0  0  0  0  0  0  0
   -1.0164    1.5422    0.2756 C   0  0  0  0  0  0  0  0  0  0  0  0
   -0.1349    0.6506   -2.2250 H   0  0  0  0  0  0  0  0  0  0  0  0
   -1.8978    0.6506   -2.2250 H   0  0  0  0  0  0  0  0  0  0  0  0
   -1.0164   -0.8785   -2.2356 H   0  0  0  0  0  0  0  0  0  0  0  0
    0.0331   -0.5192    0.1257 H   0  0  0  0  0  0  0  0  0  0  0  0
   -1.8909   -0.4100    0.0529 H   0  0  0  0  0  0  0  0  0  0  0  0
   -1.8978    2.1008   -0.0485 H   0  0  0  0  0  0  0  0  0  0  0  0
   -1.0164    1.5215    1.3668 H   0  0  0  0  0  0  0  0  0  0  0  0
   -0.1349    2.1008   -0.0485 H   0  0  0  0  0  0  0  0  0  0  0  0
  1  2  2  0
  1  3  1  0
  4  5  1  0
  4  7  1  0
  4  8  1  0
  4  9  1  0
  5  6  1  0
  5 10  1  0
  5 11  1  0
  6 12  1  0
  6 13  1  0
  6 14  1  0
M  RAD  1   1   2
M  END
>  <reaction>  (5) 
rxn_334

>  <mol_properties>  (5) 
{"0": {"label": "*1", "atom_type": "CO"}, "1": {"label": "*0", "atom_type": "O2d"}, "3": {"label": "*4", "atom_type": "Cs"}, "4": {"label": "*3", "atom_type": "Cs"}, "9": {"label": "*2", "atom_type": "H0"}}

>  <type>  (5) 
unop_1

>  <geom_source>  (5) 
Heuristics

$$$$

     RDKit          3D

 14 12  0  0  0  0  0  0  0  0999 V2000
    1.0480   -1.0709    0.8421 C   0  0  0  0  0  3  0  0  0  0  0  0
    2.0704   -1.1120    0.2248 O   0  0  0  0  0  0  0  0  0  0  0  0
    1.0025   -1.3268    1.9183 H   0  0  0  0  0  0  0  0  0  0  0  0
   -1.0639    0.2484   -1.5602 C   0  0  0  0  0  0  0  0  0  0  0  0
   -1.0639    0.2484   -0.0369 C   0  0  0  0  0  0  0  0  0  0  0  0
   -1.0639    1.6542    0.5498 C   0  0  0  0  0  0  0  0  0  0  0  0
   -0.1824    0.7627   -1.9508 H   0  0  0  0  0  0  0  0  0  0  0  0
   -1.9454    0.7627   -1.9508 H   0  0  0  0  0  0  0  0  0  0  0  0
   -1.0639   -0.7665   -1.9614 H   0  0  0  0  0  0  0  0  0  0  0  0
   -0.0145   -0.4072    0.3999 H   0  0  0  0  0  0  0  0  0  0  0  0
   -1.9384   -0.2979    0.3271 H   0  0  0  0  0  0  0  0  0  0  0  0
   -1.9454    2.2128    0.2257 H   0  0  0  0  0  0  0  0  0  0  0  0
   -1.0639    1.6336    1.6409 H   0  0  0  0  0  0  0  0  0  0  0  0
   -0.1824    2.2128    0.2257 H   0  0  0  0  0  0  0  0  0  0  0  0
  1  2  2  0
  1  3  1  0
  4  5  1  0
  4  7  1  0
  4  8  1  0
  4  9  1  0
  5  6  1  0
  5 10  1  0
  5 11  1  0
  6 12  1  0
  6 13  1  0
  6 14  1  0
M  RAD  1   1   2
M  END
>  <reaction>  (6) 
rxn_334

>  <mol_properties>  (6) 
{"0": {"label": "*1", "atom_type": "CO"}, "1": {"label": "*0", "atom_type": "O2d"}, "3": {"label": "*4", "atom_type": "Cs"}, "4": {"label": "*3", "atom_type": "Cs"}, "9": {"label": "*2", "atom_type": "H0"}}

>  <type>  (6) 
unop_2

>  <geom_source>  (6) 
Heuristics

$$$$

     RDKit          3D

 14 12  0  0  0  0  0  0  0  0999 V2000
    1.1572   -1.1279    0.4994 C   0  0  0  0  0  3  0  0  0  0  0  0
    1.6838   -0.8592    1.5380 O   0  0  0  0  0  0  0  0  0  0  0  0
    1.0636   -2.1717    0.1425 H   0  0  0  0  0  0  0  0  0  0  0  0
   -0.9547    0.1915   -1.9029 C   0  0  0  0  0  0  0  0  0  0  0  0
   -0.9547    0.1915   -0.3796 C   0  0  0  0  0  0  0  0  0  0  0  0
   -0.9547    1.5973    0.2071 C   0  0  0  0  0  0  0  0  0  0  0  0
   -0.0733    0.7058   -2.2936 H   0  0  0  0  0  0  0  0  0  0  0  0
   -1.8362    0.7058   -2.2936 H   0  0  0  0  0  0  0  0  0  0  0  0
   -0.9547   -0.8234   -2.3041 H   0  0  0  0  0  0  0  0  0  0  0  0
    0.0947   -0.4641    0.0572 H   0  0  0  0  0  0  0  0  0  0  0  0
   -1.8292   -0.3549   -0.0156 H   0  0  0  0  0  0  0  0  0  0  0  0
   -1.8362    2.1559   -0.1170 H   0  0  0  0  0  0  0  0  0  0  0  0
   -0.9547    1.5766    1.2982 H   0  0  0  0  0  0  0  0  0  0  0  0
   -0.0733    2.1559   -0.1170 H   0  0  0  0  0  0  0  0  0  0  0  0
  1  2  2  0
  1  3  1  0
  4  5  1  0
  4  7  1  0
  4  8  1  0
  4  9  1  0
  5  6  1  0
  5 10  1  0
  5 11  1  0
  6 12  1  0
  6 13  1  0
  6 14  1  0
M  RAD  1   1   2
M  END
>  <reaction>  (7) 
rxn_334

>  <mol_properties>  (7) 
{"0": {"label": "*1", "atom_type": "CO"}, "1": {"label": "*0", "atom_type": "O2d"}, "3": {"label": "*4", "atom_type": "Cs"}, "4": {"label": "*3", "atom_type": "Cs"}, "9": {"label": "*2", "atom_type": "H0"}}

>  <type>  (7) 
unop_3

>  <geom_source>  (7) 
Heuristics

$$$$

     RDKit          3D

 14 12  0  0  0  0  0  0  0  0999 V2000
    1.2263   -0.8377    0.7671 C   0  0  0  0  0  3  0  0  0  0  0  0
    1.4102   -1.9879    0.4997 O   0  0  0  0  0  0  0  0  0  0  0  0
    1.5586   -0.3990    1.7277 H   0  0  0  0  0  0  0  0  0  0  0  0
   -0.8855    0.4817   -1.6352 C   0  0  0  0  0  0  0  0  0  0  0  0
   -0.8855    0.4817   -0.1119 C   0  0  0  0  0  0  0  0  0  0  0  0
   -0.8855    1.8875    0.4748 C   0  0  0  0  0  0  0  0  0  0  0  0
   -0.0041    0.9959   -2.0259 H   0  0  0  0  0  0  0  0  0  0  0  0
   -1.7670    0.9959   -2.0259 H   0  0  0  0  0  0  0  0  0  0  0  0
   -0.8855   -0.5332   -2.0364 H   0  0  0  0  0  0  0  0  0  0  0  0
    0.1639   -0.1740    0.3249 H   0  0  0  0  0  0  0  0  0  0  0  0
   -1.7601   -0.0647    0.2521 H   0  0  0  0  0  0  0  0  0  0  0  0
   -1.7670    2.4460    0.1507 H   0  0  0  0  0  0  0  0  0  0  0  0
   -0.8855    1.8668    1.5659 H   0  0  0  0  0  0  0  0  0  0  0  0
   -0.0041    2.4460    0.1507 H   0  0  0  0  0  0  0  0  0  0  0  0
  1  2  2  0
  1  3  1  0
  4  5  1  0
  4  7  1  0
  4  8  1  0
  4  9  1  0
  5  6  1  0
  5 10  1  0
  5 11  1  0
  6 12  1  0
  6 13  1  0
  6 14  1  0
M  RAD  1   1   2
M  END
>  <reaction>  (8) 
rxn_334

>  <mol_properties>  (8) 
{"0": {"label": "*1", "atom_type": "CO"}, "1": {"label": "*0", "atom_type": "O2d"}, "3": {"label": "*4", "atom_type": "Cs"}, "4": {"label": "*3", "atom_type": "Cs"}, "9": {"label": "*2", "atom_type": "H0"}}

>  <type>  (8) 
unop_4

>  <geom_source>  (8) 
Heuristics

$$$$

     RDKit          3D

 14 12  0  0  0  0  0  0  0  0999 V2000
    1.2138   -1.0476    0.4771 C   0  0  0  0  0  3  0  0  0  0  0  0
    1.4336   -1.1849    1.6438 O   0  0  0  0  0  0  0  0  0  0  0  0
    1.8837   -1.4661   -0.2986 H   0  0  0  0  0  0  0  0  0  0  0  0
   -0.8981    0.2717   -1.9252 C   0  0  0  0  0  0  0  0  0  0  0  0
   -0.8981    0.2717   -0.4019 C   0  0  0  0  0  0  0  0  0  0  0  0
   -0.8981    1.6776    0.1848 C   0  0  0  0  0  0  0  0  0  0  0  0
   -0.0166    0.7860   -2.3158 H   0  0  0  0  0  0  0  0  0  0  0  0
   -1.7795    0.7860   -2.3158 H   0  0  0  0  0  0  0  0  0  0  0  0
   -0.8980   -0.7432   -2.3264 H   0  0  0  0  0  0  0  0  0  0  0  0
    0.1514   -0.3839    0.0349 H   0  0  0  0  0  0  0  0  0  0  0  0
   -1.7726   -0.2746   -0.0379 H   0  0  0  0  0  0  0  0  0  0  0  0
   -1.7795    2.2361   -0.1393 H   0  0  0  0  0  0  0  0  0  0  0  0
   -0.8981    1.6569    1.2760 H   0  0  0  0  0  0  0  0  0  0  0  0
   -0.0166    2.2361   -0.1393 H   0  0  0  0  0  0  0  0  0  0  0  0
  1  2  2  0
  1  3  1  0
  4  5  1  0
  4  7  1  0
  4  8  1  0
  4  9  1  0
  5  6  1  0
  5 10  1  0
  5 11  1  0
  6 12  1  0
  6 13  1  0
  6 14  1  0
M  RAD  1   1   2
M  END
>  <reaction>  (9) 
rxn_334

>  <mol_properties>  (9) 
{"0": {"label": "*1", "atom_type": "CO"}, "1": {"label": "*0", "atom_type": "O2d"}, "3": {"label": "*4", "atom_type": "Cs"}, "4": {"label": "*3", "atom_type": "Cs"}, "9": {"label": "*2", "atom_type": "H0"}}

>  <type>  (9) 
unop_5

>  <geom_source>  (9) 
Heuristics

$$$$

     RDKit          3D

 14 12  0  0  0  0  0  0  0  0999 V2000
    1.2709   -0.8357    0.6663 C   0  0  0  0  0  3  0  0  0  0  0  0
    1.2397   -2.0117    0.8769 O   0  0  0  0  0  0  0  0  0  0  0  0
    1.7840   -0.1314    1.3492 H   0  0  0  0  0  0  0  0  0  0  0  0
   -0.8410    0.4836   -1.7360 C   0  0  0  0  0  0  0  0  0  0  0  0
   -0.8410    0.4836   -0.2127 C   0  0  0  0  0  0  0  0  0  0  0  0
   -0.8410    1.8894    0.3740 C   0  0  0  0  0  0  0  0  0  0  0  0
    0.0405    0.9979   -2.1267 H   0  0  0  0  0  0  0  0  0  0  0  0
   -1.7224    0.9979   -2.1267 H   0  0  0  0  0  0  0  0  0  0  0  0
   -0.8409   -0.5313   -2.1372 H   0  0  0  0  0  0  0  0  0  0  0  0
    0.2085   -0.1720    0.2241 H   0  0  0  0  0  0  0  0  0  0  0  0
   -1.7155   -0.0627    0.1513 H   0  0  0  0  0  0  0  0  0  0  0  0
   -1.7224    2.4480    0.0499 H   0  0  0  0  0  0  0  0  0  0  0  0
   -0.8410    1.8688    1.4651 H   0  0  0  0  0  0  0  0  0  0  0  0
    0.0405    2.4480    0.0499 H   0  0  0  0  0  0  0  0  0  0  0  0
  1  2  2  0
  1  3  1  0
  4  5  1  0
  4  7  1  0
  4  8  1  0
  4  9  1  0
  5  6  1  0
  5 10  1  0
  5 11  1  0
  6 12  1  0
  6 13  1  0
  6 14  1  0
M  RAD  1   1   2
M  END
>  <reaction>  (10) 
rxn_334

>  <mol_properties>  (10) 
{"0": {"label": "*1", "atom_type": "CO"}, "1": {"label": "*0", "atom_type": "O2d"}, "3": {"label": "*4", "atom_type": "Cs"}, "4": {"label": "*3", "atom_type": "Cs"}, "9": {"label": "*2", "atom_type": "H0"}}

>  <type>  (10) 
unop_6

>  <geom_source>  (10) 
Heuristics

$$$$

     RDKit          3D

 14 12  0  0  0  0  0  0  0  0999 V2000
    1.2836   -0.8819    0.5680 C   0  0  0  0  0  3  0  0  0  0  0  0
    1.1812   -1.8533    1.2566 O   0  0  0  0  0  0  0  0  0  0  0  0
    2.0075   -0.0758    0.7955 H   0  0  0  0  0  0  0  0  0  0  0  0
   -0.8283    0.4374   -1.8344 C   0  0  0  0  0  0  0  0  0  0  0  0
   -0.8283    0.4374   -0.3111 C   0  0  0  0  0  0  0  0  0  0  0  0
   -0.8283    1.8433    0.2756 C   0  0  0  0  0  0  0  0  0  0  0  0
    0.0532    0.9517   -2.2250 H   0  0  0  0  0  0  0  0  0  0  0  0
   -1.7097    0.9517   -2.2250 H   0  0  0  0  0  0  0  0  0  0  0  0
   -0.8283   -0.5775   -2.2356 H   0  0  0  0  0  0  0  0  0  0  0  0
    0.2212   -0.2182    0.1257 H   0  0  0  0  0  0  0  0  0  0  0  0
   -1.7028   -0.1089    0.0529 H   0  0  0  0  0  0  0  0  0  0  0  0
   -1.7097    2.4018   -0.0485 H   0  0  0  0  0  0  0  0  0  0  0  0
   -0.8283    1.8226    1.3668 H   0  0  0  0  0  0  0  0  0  0  0  0
    0.0532    2.4018   -0.0485 H   0  0  0  0  0  0  0  0  0  0  0  0
  1  2  2  0
  1  3  1  0
  4  5  1  0
  4  7  1  0
  4  8  1  0
  4  9  1  0
  5  6  1  0
  5 10  1  0
  5 11  1  0
  6 12  1  0
  6 13  1  0
  6 14  1  0
M  RAD  1   1   2
M  END
>  <reaction>  (11) 
rxn_334

>  <mol_properties>  (11) 
{"0": {"label": "*1", "atom_type": "CO"}, "1": {"label": "*0", "atom_type": "O2d"}, "3": {"label": "*4", "atom_type": "Cs"}, "4": {"label": "*3", "atom_type": "Cs"}, "9": {"label": "*2", "atom_type": "H0"}}

>  <type>  (11) 
unop_7

>  <geom_source>  (11) 
Heuristics

$$$$

     RDKit          3D

 14 12  0  0  0  0  0  0  0  0999 V2000
    1.0484   -1.1919    0.6663 C   0  0  0  0  0  3  0  0  0  0  0  0
    2.0916   -0.6481    0.8769 O   0  0  0  0  0  0  0  0  0  0  0  0
    0.6405   -1.9618    1.3492 H   0  0  0  0  0  0  0  0  0  0  0  0
   -1.0634    0.1275   -1.7360 C   0  0  0  0  0  0  0  0  0  0  0  0
   -1.0634    0.1275   -0.2127 C   0  0  0  0  0  0  0  0  0  0  0  0
   -1.0634    1.5333    0.3740 C   0  0  0  0  0  0  0  0  0  0  0  0
   -0.1820    0.6418   -2.1267 H   0  0  0  0  0  0  0  0  0  0  0  0
   -1.9449    0.6418   -2.1267 H   0  0  0  0  0  0  0  0  0  0  0  0
   -1.0634   -0.8874   -2.1372 H   0  0  0  0  0  0  0  0  0  0  0  0
   -0.0140   -0.5281    0.2241 H   0  0  0  0  0  0  0  0  0  0  0  0
   -1.9380   -0.4188    0.1513 H   0  0  0  0  0  0  0  0  0  0  0  0
   -1.9449    2.0919    0.0499 H   0  0  0  0  0  0  0  0  0  0  0  0
   -1.0634    1.5126    1.4651 H   0  0  0  0  0  0  0  0  0  0  0  0
   -0.1820    2.0919    0.0499 H   0  0  0  0  0  0  0  0  0  0  0  0
  1  2  2  0
  1  3  1  0
  4  5  1  0
  4  7  1  0
  4  8  1  0
  4  9  1  0
  5  6  1  0
  5 10  1  0
  5 11  1  0
  6 12  1  0
  6 13  1  0
  6 14  1  0
M  RAD  1   1   2
M  END
>  <reaction>  (12) 
rxn_334

>  <mol_properties>  (12) 
{"0": {"label": "*1", "atom_type": "CO"}, "1": {"label": "*0", "atom_type": "O2d"}, "3": {"label": "*4", "atom_type": "Cs"}, "4": {"label": "*3", "atom_type": "Cs"}, "9": {"label": "*2", "atom_type": "H0"}}

>  <type>  (12) 
unop_8

>  <geom_source>  (12) 
Heuristics

$$$$

     RDKit          3D

 14 12  0  0  0  0  0  0  0  0999 V2000
    1.1621   -0.8883    0.8421 C   0  0  0  0  0  3  0  0  0  0  0  0
    1.6473   -1.7892    0.2248 O   0  0  0  0  0  0  0  0  0  0  0  0
    1.3720   -0.7353    1.9183 H   0  0  0  0  0  0  0  0  0  0  0  0
   -0.9498    0.4310   -1.5602 C   0  0  0  0  0  0  0  0  0  0  0  0
   -0.9498    0.4310   -0.0369 C   0  0  0  0  0  0  0  0  0  0  0  0
   -0.9498    1.8368    0.5498 C   0  0  0  0  0  0  0  0  0  0  0  0
   -0.0684    0.9453   -1.9508 H   0  0  0  0  0  0  0  0  0  0  0  0
   -1.8313    0.9453   -1.9508 H   0  0  0  0  0  0  0  0  0  0  0  0
   -0.9498   -0.5839   -1.9614 H   0  0  0  0  0  0  0  0  0  0  0  0
    0.0996   -0.2246    0.3999 H   0  0  0  0  0  0  0  0  0  0  0  0
   -1.8244   -0.1153    0.3271 H   0  0  0  0  0  0  0  0  0  0  0  0
   -1.8313    2.3954    0.2257 H   0  0  0  0  0  0  0  0  0  0  0  0
   -0.9498    1.8162    1.6409 H   0  0  0  0  0  0  0  0  0  0  0  0
   -0.0684    2.3954    0.2257 H   0  0  0  0  0  0  0  0  0  0  0  0
  1  2  2  0
  1  3  1  0
  4  5  1  0
  4  7  1  0
  4  8  1  0
  4  9  1  0
  5  6  1  0
  5 10  1  0
  5 11  1  0
  6 12  1  0
  6 13  1  0
  6 14  1  0
M  RAD  1   1   2
M  END
>  <reaction>  (13) 
rxn_334

>  <mol_properties>  (13) 
{"0": {"label": "*1", "atom_type": "CO"}, "1": {"label": "*0", "atom_type": "O2d"}, "3": {"label": "*4", "atom_type": "Cs"}, "4": {"label": "*3", "atom_type": "Cs"}, "9": {"label": "*2", "atom_type": "H0"}}

>  <type>  (13) 
unop_9

>  <geom_source>  (13) 
Heuristics

$$$$

     RDKit          3D

 14 12  0  0  0  0  0  0  0  0999 V2000
    1.0307   -1.1509    0.7671 C   0  0  0  0  0  3  0  0  0  0  0  0
    2.1450   -0.8118    0.4997 O   0  0  0  0  0  0  0  0  0  0  0  0
    0.7821   -1.6419    1.7277 H   0  0  0  0  0  0  0  0  0  0  0  0
   -1.0812    0.1684   -1.6352 C   0  0  0  0  0  0  0  0  0  0  0  0
   -1.0812    0.1684   -0.1119 C   0  0  0  0  0  0  0  0  0  0  0  0
   -1.0812    1.5743    0.4748 C   0  0  0  0  0  0  0  0  0  0  0  0
   -0.1998    0.6827   -2.0259 H   0  0  0  0  0  0  0  0  0  0  0  0
   -1.9627    0.6827   -2.0259 H   0  0  0  0  0  0  0  0  0  0  0  0
   -1.0812   -0.8465   -2.0364 H   0  0  0  0  0  0  0  0  0  0  0  0
   -0.0318   -0.4872    0.3249 H   0  0  0  0  0  0  0  0  0  0  0  0
   -1.9557   -0.3779    0.2521 H   0  0  0  0  0  0  0  0  0  0  0  0
   -1.9627    2.1328    0.1507 H   0  0  0  0  0  0  0  0  0  0  0  0
   -1.0812    1.5536    1.5659 H   0  0  0  0  0  0  0  0  0  0  0  0
   -0.1998    2.1328    0.1507 H   0  0  0  0  0  0  0  0  0  0  0  0
  1  2  2  0
  1  3  1  0
  4  5  1  0
  4  7  1  0
  4  8  1  0
  4  9  1  0
  5  6  1  0
  5 10  1  0
  5 11  1  0
  6 12  1  0
  6 13  1  0
  6 14  1  0
M  RAD  1   1   2
M  END
>  <reaction>  (14) 
rxn_334

>  <mol_properties>  (14) 
{"0": {"label": "*1", "atom_type": "CO"}, "1": {"label": "*0", "atom_type": "O2d"}, "3": {"label": "*4", "atom_type": "Cs"}, "4": {"label": "*3", "atom_type": "Cs"}, "9": {"label": "*2", "atom_type": "H0"}}

>  <type>  (14) 
unop_10

>  <geom_source>  (14) 
Heuristics

$$$$

     RDKit          3D

 14 12  0  0  0  0  0  0  0  0999 V2000
    1.2611   -0.9615    0.4994 C   0  0  0  0  0  3  0  0  0  0  0  0
    1.2506   -1.5527    1.5380 O   0  0  0  0  0  0  0  0  0  0  0  0
    2.1581   -0.4196    0.1425 H   0  0  0  0  0  0  0  0  0  0  0  0
   -0.8508    0.3579   -1.9029 C   0  0  0  0  0  0  0  0  0  0  0  0
   -0.8508    0.3579   -0.3796 C   0  0  0  0  0  0  0  0  0  0  0  0
   -0.8508    1.7637    0.2071 C   0  0  0  0  0  0  0  0  0  0  0  0
    0.0307    0.8721   -2.2936 H   0  0  0  0  0  0  0  0  0  0  0  0
   -1.7322    0.8721   -2.2936 H   0  0  0  0  0  0  0  0  0  0  0  0
   -0.8508   -0.6570   -2.3041 H   0  0  0  0  0  0  0  0  0  0  0  0
    0.1987   -0.2978    0.0572 H   0  0  0  0  0  0  0  0  0  0  0  0
   -1.7253   -0.1885   -0.0156 H   0  0  0  0  0  0  0  0  0  0  0  0
   -1.7322    2.3222   -0.1170 H   0  0  0  0  0  0  0  0  0  0  0  0
   -0.8508    1.7430    1.2982 H   0  0  0  0  0  0  0  0  0  0  0  0
    0.0307    2.3222   -0.1170 H   0  0  0  0  0  0  0  0  0  0  0  0
  1  2  2  0
  1  3  1  0
  4  5  1  0
  4  7  1  0
  4  8  1  0
  4  9  1  0
  5  6  1  0
  5 10  1  0
  5 11  1  0
  6 12  1  0
  6 13  1  0
  6 14  1  0
M  RAD  1   1   2
M  END
>  <reaction>  (15) 
rxn_334

>  <mol_properties>  (15) 
{"0": {"label": "*1", "atom_type": "CO"}, "1": {"label": "*0", "atom_type": "O2d"}, "3": {"label": "*4", "atom_type": "Cs"}, "4": {"label": "*3", "atom_type": "Cs"}, "9": {"label": "*2", "atom_type": "H0"}}

>  <type>  (15) 
unop_11

>  <geom_source>  (15) 
Heuristics

$$$$

     RDKit          3D

 14 12  0  0  0  0  0  0  0  0999 V2000
    1.0963   -0.9742    0.8699 C   0  0  0  0  0  3  0  0  0  0  0  0
    1.8884   -1.4691    0.1244 O   0  0  0  0  0  0  0  0  0  0  0  0
    1.2046   -1.0419    1.9695 H   0  0  0  0  0  0  0  0  0  0  0  0
   -1.0156    0.3452   -1.5325 C   0  0  0  0  0  0  0  0  0  0  0  0
   -1.0156    0.3452   -0.0092 C   0  0  0  0  0  0  0  0  0  0  0  0
   -1.0156    1.7510    0.5776 C   0  0  0  0  0  0  0  0  0  0  0  0
   -0.1342    0.8595   -1.9231 H   0  0  0  0  0  0  0  0  0  0  0  0
   -1.8971    0.8595   -1.9231 H   0  0  0  0  0  0  0  0  0  0  0  0
   -1.0156   -0.6697   -1.9337 H   0  0  0  0  0  0  0  0  0  0  0  0
    0.0338   -0.3104    0.4276 H   0  0  0  0  0  0  0  0  0  0  0  0
   -1.8902   -0.2012    0.3548 H   0  0  0  0  0  0  0  0  0  0  0  0
   -1.8971    2.3096    0.2534 H   0  0  0  0  0  0  0  0  0  0  0  0
   -1.0156    1.7303    1.6687 H   0  0  0  0  0  0  0  0  0  0  0  0
   -0.1342    2.3096    0.2534 H   0  0  0  0  0  0  0  0  0  0  0  0
  1  2  2  0
  1  3  1  0
  4  5  1  0
  4  7  1  0
  4  8  1  0
  4  9  1  0
  5  6  1  0
  5 10  1  0
  5 11  1  0
  6 12  1  0
  6 13  1  0
  6 14  1  0
M  RAD  1   1   2
M  END
>  <reaction>  (16) 
rxn_334

>  <mol_properties>  (16) 
{"0": {"label": "*1", "atom_type": "CO"}, "1": {"label": "*0", "atom_type": "O2d"}, "3": {"label": "*4", "atom_type": "Cs"}, "4": {"label": "*3", "atom_type": "Cs"}, "9": {"label": "*2", "atom_type": "H0"}}

>  <type>  (16) 
unop_12

>  <geom_source>  (16) 
Heuristics

$$$$

     RDKit          3D

 14 12  0  0  0  0  0  0  0  0999 V2000
    2.7163   -1.1570    0.7413 O   0  0  0  0  0  0  0  0  0  0  0  0
   -1.2980   -1.0238    0.2175 C   0  0  0  0  0  0  0  0  0  0  0  0
   -0.4260    1.3356    0.0447 C   0  0  0  0  0  0  0  0  0  0  0  0
   -0.3404   -0.0834   -0.5039 C   0  0  0  0  0  3  0  0  0  0  0  0
    2.1788   -0.3246    0.0304 C   0  0  0  0  0  0  0  0  0  0  0  0
   -1.1918   -2.0465   -0.2003 H   0  0  0  0  0  0  0  0  0  0  0  0
   -2.3476   -0.6867    0.0805 H   0  0  0  0  0  0  0  0  0  0  0  0
   -1.0578   -1.0567    1.3011 H   0  0  0  0  0  0  0  0  0  0  0  0
   -1.4492    1.7441   -0.0976 H   0  0  0  0  0  0  0  0  0  0  0  0
    0.2969    1.9817   -0.4953 H   0  0  0  0  0  0  0  0  0  0  0  0
   -0.1706    1.3439    1.1253 H   0  0  0  0  0  0  0  0  0  0  0  0
   -0.5619   -0.0813   -1.5929 H   0  0  0  0  0  0  0  0  0  0  0  0
    2.7137    0.5764   -0.2491 H   0  0  0  0  0  0  0  0  0  0  0  0
    0.9375   -0.5217   -0.4017 H   0  0  0  0  0  0  0  0  0  0  0  0
  1  5  2  0
  2  4  1  0
  2  6  1  0
  2  7  1  0
  2  8  1  0
  3  4  1  0
  3  9  1  0
  3 10  1  0
  3 11  1  0
  4 12  1  0
  5 13  1  0
  5 14  1  0
M  RAD  1   4   2
M  END
>  <reaction>  (17) 
rxn_334

>  <mol_properties>  (17) 
{"0": {"label": "*1", "atom_type": "CO"}, "1": {"label": "*0", "atom_type": "O2d"}, "3": {"label": "*4", "atom_type": "Cs"}, "4": {"label": "*3", "atom_type": "Cs"}, "9": {"label": "*2", "atom_type": "H0"}}

>  <type>  (17) 
unop_13

>  <geom_source>  (17) 
AutoTST

$$$$

     RDKit          3D

 14 12  0  0  0  0  0  0  0  0999 V2000
    1.0480   -1.0709    0.8421 C   0  0  0  0  0  3  0  0  0  0  0  0
    2.0704   -1.1119    0.2248 O   0  0  0  0  0  0  0  0  0  0  0  0
    1.0025   -1.3268    1.9183 H   0  0  0  0  0  0  0  0  0  0  0  0
   -1.0639    0.2484   -1.5602 C   0  0  0  0  0  0  0  0  0  0  0  0
   -1.0639    0.2484   -0.0369 C   0  0  0  0  0  0  0  0  0  0  0  0
   -1.0639    1.6542    0.5498 C   0  0  0  0  0  0  0  0  0  0  0  0
   -0.1825    0.7627   -1.9508 H   0  0  0  0  0  0  0  0  0  0  0  0
   -1.9454    0.7627   -1.9508 H   0  0  0  0  0  0  0  0  0  0  0  0
   -1.0639   -0.7665   -1.9614 H   0  0  0  0  0  0  0  0  0  0  0  0
   -0.0145   -0.4072    0.3999 H   0  0  0  0  0  0  0  0  0  0  0  0
   -1.9384   -0.2979    0.3271 H   0  0  0  0  0  0  0  0  0  0  0  0
   -1.9454    2.2128    0.2257 H   0  0  0  0  0  0  0  0  0  0  0  0
   -1.0639    1.6336    1.6409 H   0  0  0  0  0  0  0  0  0  0  0  0
   -0.1825    2.2128    0.2257 H   0  0  0  0  0  0  0  0  0  0  0  0
  1  2  2  0
  1  3  1  0
  4  5  1  0
  4  7  1  0
  4  8  1  0
  4  9  1  0
  5  6  1  0
  5 10  1  0
  5 11  1  0
  6 12  1  0
  6 13  1  0
  6 14  1  0
M  RAD  1   1   2
M  END
>  <reaction>  (18) 
rxn_334

>  <mol_properties>  (18) 
{"0": {"label": "*1", "atom_type": "CO"}, "1": {"label": "*0", "atom_type": "O2d"}, "3": {"label": "*4", "atom_type": "Cs"}, "4": {"label": "*3", "atom_type": "Cs"}, "9": {"label": "*2", "atom_type": "H0"}}

>  <type>  (18) 
unop_14

>  <geom_source>  (18) 
gaussian_log

$$$$
