
     RDKit          3D

 16 15  0  0  0  0  0  0  0  0999 V2000
    1.7961   -0.3807    1.6176 C   0  0  0  0  0  0  0  0  0  0  0  0
    0.8562   -0.8708    0.8256 C   0  0  0  0  0  0  0  0  0  0  0  0
    0.0895   -0.0826   -0.2048 C   0  0  0  0  0  0  0  0  0  0  0  0
   -1.4061   -0.1111    0.0982 C   0  0  0  0  0  0  0  0  0  0  0  0
    0.4476   -0.5902   -1.5797 C   0  0  0  0  0  0  0  0  0  0  0  0
   -0.3793   -1.1113   -2.4728 C   0  0  0  0  0  0  0  0  0  0  0  0
    2.3110   -1.0032    2.3386 H   0  0  0  0  0  0  0  0  0  0  0  0
    2.0846    0.6643    1.5737 H   0  0  0  0  0  0  0  0  0  0  0  0
    0.5921   -1.9241    0.8925 H   0  0  0  0  0  0  0  0  0  0  0  0
    0.4358    0.9557   -0.1462 H   0  0  0  0  0  0  0  0  0  0  0  0
   -1.5968    0.3080    1.0865 H   0  0  0  0  0  0  0  0  0  0  0  0
   -1.9674    0.4693   -0.6359 H   0  0  0  0  0  0  0  0  0  0  0  0
   -1.7902   -1.1338    0.0883 H   0  0  0  0  0  0  0  0  0  0  0  0
    1.5049   -0.5197   -1.8214 H   0  0  0  0  0  0  0  0  0  0  0  0
   -1.4421   -1.2131   -2.2889 H   0  0  0  0  0  0  0  0  0  0  0  0
   -0.0162   -1.4558   -3.4328 H   0  0  0  0  0  0  0  0  0  0  0  0
  1  2  2  3
  1  7  1  0
  1  8  1  0
  2  3  1  0
  2  9  1  0
  3  4  1  0
  3  5  1  0
  3 10  1  0
  4 11  1  0
  4 12  1  0
  4 13  1  0
  5  6  2  3
  5 14  1  0
  6 15  1  0
  6 16  1  0
M  END
>  <reaction>  (1) 
rxn_1187

>  <mol_properties>  (1) 
{"2": {"label": "donator", "atom_type": "Cs"}, "9": {"label": "d_hydrogen", "atom_type": "H0"}}

>  <type>  (1) 
r1h

$$$$

     RDKit          3D

  8  7  0  0  0  0  0  0  0  0999 V2000
    1.4038   -0.4003    0.0140 C   0  0  0  0  0  0  0  0  0  0  0  0
    0.2804    0.0563    0.4920 C   0  0  0  0  0  3  0  0  0  0  0  0
   -1.0935    0.3323    0.0625 C   0  0  0  0  0  0  0  0  0  0  0  0
    1.4898   -0.7154   -1.0285 H   0  0  0  0  0  0  0  0  0  0  0  0
    2.2990   -0.4891    0.6210 H   0  0  0  0  0  0  0  0  0  0  0  0
   -1.3399    1.3883    0.1900 H   0  0  0  0  0  0  0  0  0  0  0  0
   -1.2285    0.0762   -0.9967 H   0  0  0  0  0  0  0  0  0  0  0  0
   -1.8111   -0.2482    0.6457 H   0  0  0  0  0  0  0  0  0  0  0  0
  1  2  2  3
  1  4  1  0
  1  5  1  0
  2  3  1  0
  3  6  1  0
  3  7  1  0
  3  8  1  0
M  RAD  1   2   2
M  END
>  <reaction>  (2) 
rxn_1187

>  <mol_properties>  (2) 
{"1": {"label": "acceptor", "atom_type": "Cd"}}

>  <type>  (2) 
r2

$$$$

     RDKit          3D

  9  8  0  0  0  0  0  0  0  0999 V2000
    1.1303   -0.2933   -0.7510 C   0  0  0  0  0  0  0  0  0  0  0  0
    0.2866    0.4560   -0.0588 C   0  0  0  0  0  0  0  0  0  0  0  0
   -0.9719   -0.0331    0.5823 C   0  0  0  0  0  0  0  0  0  0  0  0
    2.0274    0.1230   -1.1916 H   0  0  0  0  0  0  0  0  0  0  0  0
    0.9532   -1.3530   -0.9023 H   0  0  0  0  0  0  0  0  0  0  0  0
    0.5065    1.5132    0.0659 H   0  0  0  0  0  0  0  0  0  0  0  0
   -0.9526    0.1426    1.6610 H   0  0  0  0  0  0  0  0  0  0  0  0
   -1.1182   -1.1002    0.4106 H   0  0  0  0  0  0  0  0  0  0  0  0
   -1.8412    0.5010    0.1901 H   0  0  0  0  0  0  0  0  0  0  0  0
  1  2  2  3
  1  4  1  0
  1  5  1  0
  2  3  1  0
  2  6  1  0
  3  7  1  0
  3  8  1  0
  3  9  1  0
M  END
>  <reaction>  (3) 
rxn_1187

>  <mol_properties>  (3) 
{"1": {"label": "acceptor", "atom_type": "Cd"}, "8": {"label": "a_hydrogen", "atom_type": "H0"}}

>  <type>  (3) 
r2h

$$$$

     RDKit          3D

 24 22  0  0  0  0  0  0  0  0999 V2000
   -0.9171    2.3582   -0.6791 C   0  0  0  0  0  0  0  0  0  0  0  0
    0.2105    1.6986   -0.7828 C   0  0  0  0  0  3  0  0  0  0  0  0
    1.5026    1.9526   -1.4483 C   0  0  0  0  0  0  0  0  0  0  0  0
   -1.0554    3.3326   -1.1475 H   0  0  0  0  0  0  0  0  0  0  0  0
   -1.7554    1.9592   -0.1165 H   0  0  0  0  0  0  0  0  0  0  0  0
    1.7388    1.1507   -2.1512 H   0  0  0  0  0  0  0  0  0  0  0  0
    1.4866    2.9023   -1.9941 H   0  0  0  0  0  0  0  0  0  0  0  0
    2.3135    1.9906   -0.7174 H   0  0  0  0  0  0  0  0  0  0  0  0
    0.2634   -1.6712   -1.7306 C   0  0  0  0  0  0  0  0  0  0  0  0
    0.5626   -1.7049   -0.4400 C   0  0  0  0  0  0  0  0  0  0  0  0
    0.1431   -0.6763    0.5648 C   0  0  0  0  0  0  0  0  0  0  0  0
    1.1540   -0.4834    1.6784 C   0  0  0  0  0  0  0  0  0  0  0  0
   -1.2722   -0.8278    0.9913 C   0  0  0  0  0  0  0  0  0  0  0  0
   -1.7512   -0.6610    2.2199 C   0  0  0  0  0  0  0  0  0  0  0  0
    0.5791   -2.4569   -2.4049 H   0  0  0  0  0  0  0  0  0  0  0  0
   -0.3128   -0.8548   -2.1541 H   0  0  0  0  0  0  0  0  0  0  0  0
    1.1527   -2.5338   -0.0532 H   0  0  0  0  0  0  0  0  0  0  0  0
    0.1554    0.3786   -0.0551 H   0  0  0  0  0  0  0  0  0  0  0  0
    2.1521   -0.3361    1.2629 H   0  0  0  0  0  0  0  0  0  0  0  0
    0.9113    0.3909    2.2838 H   0  0  0  0  0  0  0  0  0  0  0  0
    1.1871   -1.3552    2.3382 H   0  0  0  0  0  0  0  0  0  0  0  0
   -1.9606   -1.0815    0.1899 H   0  0  0  0  0  0  0  0  0  0  0  0
   -1.1148   -0.4178    3.0619 H   0  0  0  0  0  0  0  0  0  0  0  0
   -2.8086   -0.7718    2.4229 H   0  0  0  0  0  0  0  0  0  0  0  0
  1  2  2  3
  1  4  1  0
  1  5  1  0
  2  3  1  0
  3  6  1  0
  3  7  1  0
  3  8  1  0
  9 10  2  3
  9 15  1  0
  9 16  1  0
 10 11  1  0
 10 17  1  0
 11 12  1  0
 11 13  1  0
 11 18  1  0
 12 19  1  0
 12 20  1  0
 12 21  1  0
 13 14  2  3
 13 22  1  0
 14 23  1  0
 14 24  1  0
M  RAD  1   2   2
M  END
>  <reaction>  (4) 
rxn_1187

>  <mol_properties>  (4) 
{"0": {"label": "*4", "atom_type": "Cd"}, "1": {"label": "*3", "atom_type": "Cd"}, "9": {"label": "*0", "atom_type": "Cd"}, "10": {"label": "*1", "atom_type": "Cs"}, "17": {"label": "*2", "atom_type": "H0"}}

>  <type>  (4) 
ts

$$$$

     RDKit          3D

 24 22  0  0  0  0  0  0  0  0999 V2000
   -0.8568    2.3622   -1.0894 C   0  0  0  0  0  0  0  0  0  0  0  0
    0.1348    1.4866   -1.1389 C   0  0  0  0  0  0  0  0  0  0  0  0
    1.5869    1.8340   -1.2082 C   0  0  0  0  0  0  0  0  0  0  0  0
   -0.6692    3.4308   -1.0964 H   0  0  0  0  0  0  0  0  0  0  0  0
   -1.8908    2.0449   -1.0402 H   0  0  0  0  0  0  0  0  0  0  0  0
    2.0438    1.4178   -2.1098 H   0  0  0  0  0  0  0  0  0  0  0  0
    1.7386    2.9141   -1.2134 H   0  0  0  0  0  0  0  0  0  0  0  0
    2.1283    1.4144   -0.3564 H   0  0  0  0  0  0  0  0  0  0  0  0
    0.0619   -1.8242   -1.7406 C   0  0  0  0  0  0  0  0  0  0  0  0
    0.0619   -1.8242   -0.4173 C   0  0  0  0  0  0  0  0  0  0  0  0
    0.0619   -0.5934    0.4521 C   0  0  0  0  0  3  0  0  0  0  0  0
    1.3003   -0.5636    1.3437 C   0  0  0  0  0  0  0  0  0  0  0  0
   -1.2416   -0.5248    1.2086 C   0  0  0  0  0  0  0  0  0  0  0  0
   -1.3963   -0.5246    2.5235 C   0  0  0  0  0  0  0  0  0  0  0  0
    0.0611   -2.7468   -2.3073 H   0  0  0  0  0  0  0  0  0  0  0  0
    0.0636   -0.8984   -2.3063 H   0  0  0  0  0  0  0  0  0  0  0  0
    0.0571   -2.7700    0.1203 H   0  0  0  0  0  0  0  0  0  0  0  0
    0.0985    0.4509   -0.3468 H   0  0  0  0  0  0  0  0  0  0  0  0
    2.2030   -0.5720    0.7324 H   0  0  0  0  0  0  0  0  0  0  0  0
    1.3149    0.3321    1.9668 H   0  0  0  0  0  0  0  0  0  0  0  0
    1.3328   -1.4354    2.0013 H   0  0  0  0  0  0  0  0  0  0  0  0
   -2.1248   -0.4891    0.5760 H   0  0  0  0  0  0  0  0  0  0  0  0
   -0.5559   -0.5639    3.2061 H   0  0  0  0  0  0  0  0  0  0  0  0
   -2.3827   -0.4815    2.9677 H   0  0  0  0  0  0  0  0  0  0  0  0
  1  2  2  3
  1  4  1  0
  1  5  1  0
  2  3  1  0
  2 18  1  0
  3  6  1  0
  3  7  1  0
  3  8  1  0
  9 10  2  3
  9 15  1  0
  9 16  1  0
 10 11  1  0
 10 17  1  0
 11 12  1  0
 11 13  1  0
 12 19  1  0
 12 20  1  0
 12 21  1  0
 13 14  2  3
 13 22  1  0
 14 23  1  0
 14 24  1  0
M  RAD  1  11   2
M  END
>  <reaction>  (5) 
rxn_1187

>  <mol_properties>  (5) 
{"0": {"label": "*4", "atom_type": "Cd"}, "1": {"label": "*3", "atom_type": "Cd"}, "9": {"label": "*0", "atom_type": "Cd"}, "10": {"label": "*1", "atom_type": "Cs"}, "17": {"label": "*2", "atom_type": "H0"}}

>  <type>  (5) 
unop_1

>  <geom_source>  (5) 
Heuristics

$$$$

     RDKit          3D

 24 22  0  0  0  0  0  0  0  0999 V2000
   -0.3286    1.3892   -2.2850 C   0  0  0  0  0  0  0  0  0  0  0  0
    0.2247    1.4839   -1.0861 C   0  0  0  0  0  0  0  0  0  0  0  0
    0.5643    2.7643   -0.3937 C   0  0  0  0  0  0  0  0  0  0  0  0
   -0.5805    2.2719   -2.8634 H   0  0  0  0  0  0  0  0  0  0  0  0
   -0.5502    0.4285   -2.7324 H   0  0  0  0  0  0  0  0  0  0  0  0
    1.6334    2.8149   -0.1721 H   0  0  0  0  0  0  0  0  0  0  0  0
    0.2982    3.6294   -1.0024 H   0  0  0  0  0  0  0  0  0  0  0  0
    0.0390    2.8409    0.5618 H   0  0  0  0  0  0  0  0  0  0  0  0
    0.1518   -1.8269   -1.6878 C   0  0  0  0  0  0  0  0  0  0  0  0
    0.1518   -1.8269   -0.3645 C   0  0  0  0  0  0  0  0  0  0  0  0
    0.1518   -0.5961    0.5049 C   0  0  0  0  0  3  0  0  0  0  0  0
    1.3902   -0.5664    1.3965 C   0  0  0  0  0  0  0  0  0  0  0  0
   -1.1517   -0.5276    1.2614 C   0  0  0  0  0  0  0  0  0  0  0  0
   -1.3063   -0.5273    2.5763 C   0  0  0  0  0  0  0  0  0  0  0  0
    0.1511   -2.7495   -2.2545 H   0  0  0  0  0  0  0  0  0  0  0  0
    0.1536   -0.9011   -2.2535 H   0  0  0  0  0  0  0  0  0  0  0  0
    0.1471   -2.7727    0.1731 H   0  0  0  0  0  0  0  0  0  0  0  0
    0.1884    0.4482   -0.2939 H   0  0  0  0  0  0  0  0  0  0  0  0
    2.2930   -0.5747    0.7852 H   0  0  0  0  0  0  0  0  0  0  0  0
    1.4049    0.3294    2.0196 H   0  0  0  0  0  0  0  0  0  0  0  0
    1.4228   -1.4381    2.0541 H   0  0  0  0  0  0  0  0  0  0  0  0
   -2.0348   -0.4918    0.6288 H   0  0  0  0  0  0  0  0  0  0  0  0
   -0.4659   -0.5667    3.2589 H   0  0  0  0  0  0  0  0  0  0  0  0
   -2.2927   -0.4842    3.0205 H   0  0  0  0  0  0  0  0  0  0  0  0
  1  2  2  3
  1  4  1  0
  1  5  1  0
  2  3  1  0
  2 18  1  0
  3  6  1  0
  3  7  1  0
  3  8  1  0
  9 10  2  3
  9 15  1  0
  9 16  1  0
 10 11  1  0
 10 17  1  0
 11 12  1  0
 11 13  1  0
 12 19  1  0
 12 20  1  0
 12 21  1  0
 13 14  2  3
 13 22  1  0
 14 23  1  0
 14 24  1  0
M  RAD  1  11   2
M  END
>  <reaction>  (6) 
rxn_1187

>  <mol_properties>  (6) 
{"0": {"label": "*4", "atom_type": "Cd"}, "1": {"label": "*3", "atom_type": "Cd"}, "9": {"label": "*0", "atom_type": "Cd"}, "10": {"label": "*1", "atom_type": "Cs"}, "17": {"label": "*2", "atom_type": "H0"}}

>  <type>  (6) 
unop_2

>  <geom_source>  (6) 
Heuristics

$$$$

     RDKit          3D

 24 22  0  0  0  0  0  0  0  0999 V2000
   -0.4594    2.6391   -0.6861 C   0  0  0  0  0  0  0  0  0  0  0  0
    0.1114    1.5126   -1.0829 C   0  0  0  0  0  0  0  0  0  0  0  0
    1.3500    1.4220   -1.9148 C   0  0  0  0  0  0  0  0  0  0  0  0
   -0.0464    3.6067   -0.9510 H   0  0  0  0  0  0  0  0  0  0  0  0
   -1.3586    2.6367   -0.0831 H   0  0  0  0  0  0  0  0  0  0  0  0
    1.1541    0.8858   -2.8469 H   0  0  0  0  0  0  0  0  0  0  0  0
    1.7373    2.4111   -2.1622 H   0  0  0  0  0  0  0  0  0  0  0  0
    2.1318    0.8677   -1.3891 H   0  0  0  0  0  0  0  0  0  0  0  0
    0.0385   -1.7982   -1.6846 C   0  0  0  0  0  0  0  0  0  0  0  0
    0.0385   -1.7982   -0.3614 C   0  0  0  0  0  0  0  0  0  0  0  0
    0.0385   -0.5674    0.5081 C   0  0  0  0  0  3  0  0  0  0  0  0
    1.2769   -0.5377    1.3997 C   0  0  0  0  0  0  0  0  0  0  0  0
   -1.2650   -0.4989    1.2646 C   0  0  0  0  0  0  0  0  0  0  0  0
   -1.4196   -0.4986    2.5795 C   0  0  0  0  0  0  0  0  0  0  0  0
    0.0378   -2.7208   -2.2513 H   0  0  0  0  0  0  0  0  0  0  0  0
    0.0403   -0.8724   -2.2503 H   0  0  0  0  0  0  0  0  0  0  0  0
    0.0338   -2.7440    0.1763 H   0  0  0  0  0  0  0  0  0  0  0  0
    0.0751    0.4769   -0.2908 H   0  0  0  0  0  0  0  0  0  0  0  0
    2.1797   -0.5460    0.7884 H   0  0  0  0  0  0  0  0  0  0  0  0
    1.2916    0.3581    2.0228 H   0  0  0  0  0  0  0  0  0  0  0  0
    1.3095   -1.4094    2.0573 H   0  0  0  0  0  0  0  0  0  0  0  0
   -2.1481   -0.4631    0.6320 H   0  0  0  0  0  0  0  0  0  0  0  0
   -0.5792   -0.5380    3.2620 H   0  0  0  0  0  0  0  0  0  0  0  0
   -2.4060   -0.4555    3.0237 H   0  0  0  0  0  0  0  0  0  0  0  0
  1  2  2  3
  1  4  1  0
  1  5  1  0
  2  3  1  0
  2 18  1  0
  3  6  1  0
  3  7  1  0
  3  8  1  0
  9 10  2  3
  9 15  1  0
  9 16  1  0
 10 11  1  0
 10 17  1  0
 11 12  1  0
 11 13  1  0
 12 19  1  0
 12 20  1  0
 12 21  1  0
 13 14  2  3
 13 22  1  0
 14 23  1  0
 14 24  1  0
M  RAD  1  11   2
M  END
>  <reaction>  (7) 
rxn_1187

>  <mol_properties>  (7) 
{"0": {"label": "*4", "atom_type": "Cd"}, "1": {"label": "*3", "atom_type": "Cd"}, "9": {"label": "*0", "atom_type": "Cd"}, "10": {"label": "*1", "atom_type": "Cs"}, "17": {"label": "*2", "atom_type": "H0"}}

>  <type>  (7) 
unop_3

>  <geom_source>  (7) 
Heuristics

$$$$

     RDKit          3D

 24 22  0  0  0  0  0  0  0  0999 V2000
    1.2019    1.6125   -1.9467 C   0  0  0  0  0  0  0  0  0  0  0  0
    0.1749    1.4757   -1.1228 C   0  0  0  0  0  0  0  0  0  0  0  0
   -0.5824    2.6023   -0.4972 C   0  0  0  0  0  0  0  0  0  0  0  0
    1.5731    2.5915   -2.2308 H   0  0  0  0  0  0  0  0  0  0  0  0
    1.7092    0.7533   -2.3672 H   0  0  0  0  0  0  0  0  0  0  0  0
   -0.5389    2.5420    0.5933 H   0  0  0  0  0  0  0  0  0  0  0  0
   -0.1833    3.5699   -0.8040 H   0  0  0  0  0  0  0  0  0  0  0  0
   -1.6389    2.5621   -0.7746 H   0  0  0  0  0  0  0  0  0  0  0  0
    0.1020   -1.8351   -1.7244 C   0  0  0  0  0  0  0  0  0  0  0  0
    0.1020   -1.8351   -0.4012 C   0  0  0  0  0  0  0  0  0  0  0  0
    0.1020   -0.6043    0.4682 C   0  0  0  0  0  3  0  0  0  0  0  0
    1.3404   -0.5745    1.3598 C   0  0  0  0  0  0  0  0  0  0  0  0
   -1.2015   -0.5357    1.2247 C   0  0  0  0  0  0  0  0  0  0  0  0
   -1.3561   -0.5355    2.5397 C   0  0  0  0  0  0  0  0  0  0  0  0
    0.1013   -2.7577   -2.2911 H   0  0  0  0  0  0  0  0  0  0  0  0
    0.1038   -0.9093   -2.2901 H   0  0  0  0  0  0  0  0  0  0  0  0
    0.0973   -2.7809    0.1364 H   0  0  0  0  0  0  0  0  0  0  0  0
    0.1386    0.4400   -0.3306 H   0  0  0  0  0  0  0  0  0  0  0  0
    2.2432   -0.5829    0.7486 H   0  0  0  0  0  0  0  0  0  0  0  0
    1.3551    0.3212    1.9829 H   0  0  0  0  0  0  0  0  0  0  0  0
    1.3730   -1.4463    2.0174 H   0  0  0  0  0  0  0  0  0  0  0  0
   -2.0847   -0.5000    0.5922 H   0  0  0  0  0  0  0  0  0  0  0  0
   -0.5158   -0.5748    3.2222 H   0  0  0  0  0  0  0  0  0  0  0  0
   -2.3425   -0.4924    2.9839 H   0  0  0  0  0  0  0  0  0  0  0  0
  1  2  2  3
  1  4  1  0
  1  5  1  0
  2  3  1  0
  2 18  1  0
  3  6  1  0
  3  7  1  0
  3  8  1  0
  9 10  2  3
  9 15  1  0
  9 16  1  0
 10 11  1  0
 10 17  1  0
 11 12  1  0
 11 13  1  0
 12 19  1  0
 12 20  1  0
 12 21  1  0
 13 14  2  3
 13 22  1  0
 14 23  1  0
 14 24  1  0
M  RAD  1  11   2
M  END
>  <reaction>  (8) 
rxn_1187

>  <mol_properties>  (8) 
{"0": {"label": "*4", "atom_type": "Cd"}, "1": {"label": "*3", "atom_type": "Cd"}, "9": {"label": "*0", "atom_type": "Cd"}, "10": {"label": "*1", "atom_type": "Cs"}, "17": {"label": "*2", "atom_type": "H0"}}

>  <type>  (8) 
unop_4

>  <geom_source>  (8) 
Heuristics

$$$$

     RDKit          3D

 24 22  0  0  0  0  0  0  0  0999 V2000
    0.2045    2.7398   -0.4841 C   0  0  0  0  0  0  0  0  0  0  0  0
    0.1968    1.5285   -1.0182 C   0  0  0  0  0  0  0  0  0  0  0  0
    0.2267    1.2339   -2.4833 C   0  0  0  0  0  0  0  0  0  0  0  0
    0.2342    3.6308   -1.1024 H   0  0  0  0  0  0  0  0  0  0  0  0
    0.1814    2.8861    0.5884 H   0  0  0  0  0  0  0  0  0  0  0  0
   -0.6539    0.6597   -2.7826 H   0  0  0  0  0  0  0  0  0  0  0  0
    0.2562    2.1505   -3.0738 H   0  0  0  0  0  0  0  0  0  0  0  0
    1.1008    0.6302   -2.7408 H   0  0  0  0  0  0  0  0  0  0  0  0
    0.1239   -1.7822   -1.6198 C   0  0  0  0  0  0  0  0  0  0  0  0
    0.1239   -1.7822   -0.2966 C   0  0  0  0  0  0  0  0  0  0  0  0
    0.1239   -0.5515    0.5728 C   0  0  0  0  0  3  0  0  0  0  0  0
    1.3623   -0.5217    1.4644 C   0  0  0  0  0  0  0  0  0  0  0  0
   -1.1796   -0.4829    1.3293 C   0  0  0  0  0  0  0  0  0  0  0  0
   -1.3342   -0.4827    2.6442 C   0  0  0  0  0  0  0  0  0  0  0  0
    0.1232   -2.7049   -2.1865 H   0  0  0  0  0  0  0  0  0  0  0  0
    0.1257   -0.8565   -2.1855 H   0  0  0  0  0  0  0  0  0  0  0  0
    0.1192   -2.7281    0.2410 H   0  0  0  0  0  0  0  0  0  0  0  0
    0.1605    0.4929   -0.2260 H   0  0  0  0  0  0  0  0  0  0  0  0
    2.2651   -0.5301    0.8531 H   0  0  0  0  0  0  0  0  0  0  0  0
    1.3770    0.3741    2.0875 H   0  0  0  0  0  0  0  0  0  0  0  0
    1.3949   -1.3934    2.1220 H   0  0  0  0  0  0  0  0  0  0  0  0
   -2.0628   -0.4472    0.6968 H   0  0  0  0  0  0  0  0  0  0  0  0
   -0.4939   -0.5220    3.3268 H   0  0  0  0  0  0  0  0  0  0  0  0
   -2.3206   -0.4395    3.0885 H   0  0  0  0  0  0  0  0  0  0  0  0
  1  2  2  3
  1  4  1  0
  1  5  1  0
  2  3  1  0
  2 18  1  0
  3  6  1  0
  3  7  1  0
  3  8  1  0
  9 10  2  3
  9 15  1  0
  9 16  1  0
 10 11  1  0
 10 17  1  0
 11 12  1  0
 11 13  1  0
 12 19  1  0
 12 20  1  0
 12 21  1  0
 13 14  2  3
 13 22  1  0
 14 23  1  0
 14 24  1  0
M  RAD  1  11   2
M  END
>  <reaction>  (9) 
rxn_1187

>  <mol_properties>  (9) 
{"0": {"label": "*4", "atom_type": "Cd"}, "1": {"label": "*3", "atom_type": "Cd"}, "9": {"label": "*0", "atom_type": "Cd"}, "10": {"label": "*1", "atom_type": "Cs"}, "17": {"label": "*2", "atom_type": "H0"}}

>  <type>  (9) 
unop_5

>  <geom_source>  (9) 
Heuristics

$$$$

     RDKit          3D

 24 22  0  0  0  0  0  0  0  0999 V2000
    1.3900    1.9595   -1.5059 C   0  0  0  0  0  0  0  0  0  0  0  0
    0.2127    1.4728   -1.1463 C   0  0  0  0  0  0  0  0  0  0  0  0
   -0.9801    2.2930   -0.7737 C   0  0  0  0  0  0  0  0  0  0  0  0
    1.5698    3.0283   -1.5545 H   0  0  0  0  0  0  0  0  0  0  0  0
    2.2165    1.3097   -1.7646 H   0  0  0  0  0  0  0  0  0  0  0  0
   -1.3069    2.0642    0.2439 H   0  0  0  0  0  0  0  0  0  0  0  0
   -0.7643    3.3605   -0.8334 H   0  0  0  0  0  0  0  0  0  0  0  0
   -1.8236    2.0748   -1.4337 H   0  0  0  0  0  0  0  0  0  0  0  0
    0.1398   -1.8380   -1.7479 C   0  0  0  0  0  0  0  0  0  0  0  0
    0.1398   -1.8380   -0.4247 C   0  0  0  0  0  0  0  0  0  0  0  0
    0.1398   -0.6072    0.4447 C   0  0  0  0  0  3  0  0  0  0  0  0
    1.3781   -0.5774    1.3363 C   0  0  0  0  0  0  0  0  0  0  0  0
   -1.1637   -0.5386    1.2012 C   0  0  0  0  0  0  0  0  0  0  0  0
   -1.3184   -0.5384    2.5161 C   0  0  0  0  0  0  0  0  0  0  0  0
    0.1390   -2.7606   -2.3147 H   0  0  0  0  0  0  0  0  0  0  0  0
    0.1415   -0.9122   -2.3137 H   0  0  0  0  0  0  0  0  0  0  0  0
    0.1350   -2.7838    0.1129 H   0  0  0  0  0  0  0  0  0  0  0  0
    0.1764    0.4372   -0.3541 H   0  0  0  0  0  0  0  0  0  0  0  0
    2.2809   -0.5858    0.7250 H   0  0  0  0  0  0  0  0  0  0  0  0
    1.3928    0.3184    1.9594 H   0  0  0  0  0  0  0  0  0  0  0  0
    1.4107   -1.4492    1.9939 H   0  0  0  0  0  0  0  0  0  0  0  0
   -2.0469   -0.5029    0.5687 H   0  0  0  0  0  0  0  0  0  0  0  0
   -0.4780   -0.5777    3.1987 H   0  0  0  0  0  0  0  0  0  0  0  0
   -2.3048   -0.4953    2.9604 H   0  0  0  0  0  0  0  0  0  0  0  0
  1  2  2  3
  1  4  1  0
  1  5  1  0
  2  3  1  0
  2 18  1  0
  3  6  1  0
  3  7  1  0
  3  8  1  0
  9 10  2  3
  9 15  1  0
  9 16  1  0
 10 11  1  0
 10 17  1  0
 11 12  1  0
 11 13  1  0
 12 19  1  0
 12 20  1  0
 12 21  1  0
 13 14  2  3
 13 22  1  0
 14 23  1  0
 14 24  1  0
M  RAD  1  11   2
M  END
>  <reaction>  (10) 
rxn_1187

>  <mol_properties>  (10) 
{"0": {"label": "*4", "atom_type": "Cd"}, "1": {"label": "*3", "atom_type": "Cd"}, "9": {"label": "*0", "atom_type": "Cd"}, "10": {"label": "*1", "atom_type": "Cs"}, "17": {"label": "*2", "atom_type": "H0"}}

>  <type>  (10) 
unop_6

>  <geom_source>  (10) 
Heuristics

$$$$

     RDKit          3D

 24 22  0  0  0  0  0  0  0  0999 V2000
    1.2800    2.3262   -1.0385 C   0  0  0  0  0  0  0  0  0  0  0  0
    0.2631    1.4844   -1.1359 C   0  0  0  0  0  0  0  0  0  0  0  0
   -1.1716    1.8804   -1.2739 C   0  0  0  0  0  0  0  0  0  0  0  0
    1.1290    3.4005   -1.0535 H   0  0  0  0  0  0  0  0  0  0  0  0
    2.2993    1.9744   -0.9404 H   0  0  0  0  0  0  0  0  0  0  0  0
   -1.7667    1.4799   -0.4492 H   0  0  0  0  0  0  0  0  0  0  0  0
   -1.2865    2.9650   -1.2855 H   0  0  0  0  0  0  0  0  0  0  0  0
   -1.5988    1.4791   -2.1966 H   0  0  0  0  0  0  0  0  0  0  0  0
    0.1902   -1.8263   -1.7375 C   0  0  0  0  0  0  0  0  0  0  0  0
    0.1902   -1.8263   -0.4143 C   0  0  0  0  0  0  0  0  0  0  0  0
    0.1902   -0.5956    0.4551 C   0  0  0  0  0  3  0  0  0  0  0  0
    1.4286   -0.5658    1.3467 C   0  0  0  0  0  0  0  0  0  0  0  0
   -1.1133   -0.5270    1.2116 C   0  0  0  0  0  0  0  0  0  0  0  0
   -1.2680   -0.5268    2.5266 C   0  0  0  0  0  0  0  0  0  0  0  0
    0.1894   -2.7490   -2.3042 H   0  0  0  0  0  0  0  0  0  0  0  0
    0.1920   -0.9006   -2.3032 H   0  0  0  0  0  0  0  0  0  0  0  0
    0.1854   -2.7722    0.1233 H   0  0  0  0  0  0  0  0  0  0  0  0
    0.2268    0.4488   -0.3437 H   0  0  0  0  0  0  0  0  0  0  0  0
    2.3313   -0.5741    0.7355 H   0  0  0  0  0  0  0  0  0  0  0  0
    1.4432    0.3300    1.9698 H   0  0  0  0  0  0  0  0  0  0  0  0
    1.4611   -1.4375    2.0043 H   0  0  0  0  0  0  0  0  0  0  0  0
   -1.9965   -0.4913    0.5791 H   0  0  0  0  0  0  0  0  0  0  0  0
   -0.4276   -0.5661    3.2091 H   0  0  0  0  0  0  0  0  0  0  0  0
   -2.2544   -0.4836    2.9708 H   0  0  0  0  0  0  0  0  0  0  0  0
  1  2  2  3
  1  4  1  0
  1  5  1  0
  2  3  1  0
  2 18  1  0
  3  6  1  0
  3  7  1  0
  3  8  1  0
  9 10  2  3
  9 15  1  0
  9 16  1  0
 10 11  1  0
 10 17  1  0
 11 12  1  0
 11 13  1  0
 12 19  1  0
 12 20  1  0
 12 21  1  0
 13 14  2  3
 13 22  1  0
 14 23  1  0
 14 24  1  0
M  RAD  1  11   2
M  END
>  <reaction>  (11) 
rxn_1187

>  <mol_properties>  (11) 
{"0": {"label": "*4", "atom_type": "Cd"}, "1": {"label": "*3", "atom_type": "Cd"}, "9": {"label": "*0", "atom_type": "Cd"}, "10": {"label": "*1", "atom_type": "Cs"}, "17": {"label": "*2", "atom_type": "H0"}}

>  <type>  (11) 
unop_7

>  <geom_source>  (11) 
Heuristics

$$$$

     RDKit          3D

 24 22  0  0  0  0  0  0  0  0999 V2000
   -0.9567    1.9990   -1.5618 C   0  0  0  0  0  0  0  0  0  0  0  0
    0.1852    1.4733   -1.1470 C   0  0  0  0  0  0  0  0  0  0  0  0
    1.3858    2.2532   -0.7174 C   0  0  0  0  0  0  0  0  0  0  0  0
   -1.0978    3.0732   -1.6180 H   0  0  0  0  0  0  0  0  0  0  0  0
   -1.7913    1.3771   -1.8601 H   0  0  0  0  0  0  0  0  0  0  0  0
    2.2520    2.0063   -1.3366 H   0  0  0  0  0  0  0  0  0  0  0  0
    1.2091    3.3273   -0.7864 H   0  0  0  0  0  0  0  0  0  0  0  0
    1.6559    2.0143    0.3145 H   0  0  0  0  0  0  0  0  0  0  0  0
    0.1123   -1.8375   -1.7486 C   0  0  0  0  0  0  0  0  0  0  0  0
    0.1123   -1.8375   -0.4254 C   0  0  0  0  0  0  0  0  0  0  0  0
    0.1123   -0.6067    0.4440 C   0  0  0  0  0  3  0  0  0  0  0  0
    1.3507   -0.5769    1.3356 C   0  0  0  0  0  0  0  0  0  0  0  0
   -1.1912   -0.5381    1.2005 C   0  0  0  0  0  0  0  0  0  0  0  0
   -1.3458   -0.5379    2.5155 C   0  0  0  0  0  0  0  0  0  0  0  0
    0.1116   -2.7601   -2.3153 H   0  0  0  0  0  0  0  0  0  0  0  0
    0.1141   -0.9117   -2.3143 H   0  0  0  0  0  0  0  0  0  0  0  0
    0.1076   -2.7833    0.1123 H   0  0  0  0  0  0  0  0  0  0  0  0
    0.1489    0.4376   -0.3548 H   0  0  0  0  0  0  0  0  0  0  0  0
    2.2534   -0.5853    0.7244 H   0  0  0  0  0  0  0  0  0  0  0  0
    1.3654    0.3188    1.9587 H   0  0  0  0  0  0  0  0  0  0  0  0
    1.3833   -1.4487    1.9932 H   0  0  0  0  0  0  0  0  0  0  0  0
   -2.0744   -0.5024    0.5680 H   0  0  0  0  0  0  0  0  0  0  0  0
   -0.5055   -0.5772    3.1980 H   0  0  0  0  0  0  0  0  0  0  0  0
   -2.3322   -0.4948    2.9597 H   0  0  0  0  0  0  0  0  0  0  0  0
  1  2  2  3
  1  4  1  0
  1  5  1  0
  2  3  1  0
  2 18  1  0
  3  6  1  0
  3  7  1  0
  3  8  1  0
  9 10  2  3
  9 15  1  0
  9 16  1  0
 10 11  1  0
 10 17  1  0
 11 12  1  0
 11 13  1  0
 12 19  1  0
 12 20  1  0
 12 21  1  0
 13 14  2  3
 13 22  1  0
 14 23  1  0
 14 24  1  0
M  RAD  1  11   2
M  END
>  <reaction>  (12) 
rxn_1187

>  <mol_properties>  (12) 
{"0": {"label": "*4", "atom_type": "Cd"}, "1": {"label": "*3", "atom_type": "Cd"}, "9": {"label": "*0", "atom_type": "Cd"}, "10": {"label": "*1", "atom_type": "Cs"}, "17": {"label": "*2", "atom_type": "H0"}}

>  <type>  (12) 
unop_8

>  <geom_source>  (12) 
Heuristics

$$$$

     RDKit          3D

 24 22  0  0  0  0  0  0  0  0999 V2000
    0.7769    1.3706   -2.2586 C   0  0  0  0  0  0  0  0  0  0  0  0
    0.1707    1.4848   -1.0874 C   0  0  0  0  0  0  0  0  0  0  0  0
   -0.1582    2.7764   -0.4109 C   0  0  0  0  0  0  0  0  0  0  0  0
    1.0856    2.2439   -2.8237 H   0  0  0  0  0  0  0  0  0  0  0  0
    0.9871    0.4026   -2.6958 H   0  0  0  0  0  0  0  0  0  0  0  0
    0.3233    2.8361    0.5685 H   0  0  0  0  0  0  0  0  0  0  0  0
    0.1655    3.6316   -1.0055 H   0  0  0  0  0  0  0  0  0  0  0  0
   -1.2344    2.8632   -0.2404 H   0  0  0  0  0  0  0  0  0  0  0  0
    0.0978   -1.8260   -1.6891 C   0  0  0  0  0  0  0  0  0  0  0  0
    0.0978   -1.8260   -0.3658 C   0  0  0  0  0  0  0  0  0  0  0  0
    0.0978   -0.5952    0.5036 C   0  0  0  0  0  3  0  0  0  0  0  0
    1.3361   -0.5654    1.3952 C   0  0  0  0  0  0  0  0  0  0  0  0
   -1.2058   -0.5267    1.2601 C   0  0  0  0  0  0  0  0  0  0  0  0
   -1.3604   -0.5264    2.5750 C   0  0  0  0  0  0  0  0  0  0  0  0
    0.0970   -2.7486   -2.2558 H   0  0  0  0  0  0  0  0  0  0  0  0
    0.0995   -0.9002   -2.2548 H   0  0  0  0  0  0  0  0  0  0  0  0
    0.0930   -2.7718    0.1718 H   0  0  0  0  0  0  0  0  0  0  0  0
    0.1344    0.4491   -0.2952 H   0  0  0  0  0  0  0  0  0  0  0  0
    2.2389   -0.5738    0.7839 H   0  0  0  0  0  0  0  0  0  0  0  0
    1.3508    0.3303    2.0183 H   0  0  0  0  0  0  0  0  0  0  0  0
    1.3687   -1.4372    2.0528 H   0  0  0  0  0  0  0  0  0  0  0  0
   -2.0889   -0.4909    0.6276 H   0  0  0  0  0  0  0  0  0  0  0  0
   -0.5200   -0.5657    3.2576 H   0  0  0  0  0  0  0  0  0  0  0  0
   -2.3468   -0.4833    3.0193 H   0  0  0  0  0  0  0  0  0  0  0  0
  1  2  2  3
  1  4  1  0
  1  5  1  0
  2  3  1  0
  2 18  1  0
  3  6  1  0
  3  7  1  0
  3  8  1  0
  9 10  2  3
  9 15  1  0
  9 16  1  0
 10 11  1  0
 10 17  1  0
 11 12  1  0
 11 13  1  0
 12 19  1  0
 12 20  1  0
 12 21  1  0
 13 14  2  3
 13 22  1  0
 14 23  1  0
 14 24  1  0
M  RAD  1  11   2
M  END
>  <reaction>  (13) 
rxn_1187

>  <mol_properties>  (13) 
{"0": {"label": "*4", "atom_type": "Cd"}, "1": {"label": "*3", "atom_type": "Cd"}, "9": {"label": "*0", "atom_type": "Cd"}, "10": {"label": "*1", "atom_type": "Cs"}, "17": {"label": "*2", "atom_type": "H0"}}

>  <type>  (13) 
unop_9

>  <geom_source>  (13) 
Heuristics

$$$$

     RDKit          3D

 24 22  0  0  0  0  0  0  0  0999 V2000
   -0.7596    1.6455   -1.9934 C   0  0  0  0  0  0  0  0  0  0  0  0
    0.2219    1.4749   -1.1217 C   0  0  0  0  0  0  0  0  0  0  0  0
    0.9860    2.5759   -0.4599 C   0  0  0  0  0  0  0  0  0  0  0  0
   -1.0837    2.6362   -2.2941 H   0  0  0  0  0  0  0  0  0  0  0  0
   -1.2749    0.8035   -2.4383 H   0  0  0  0  0  0  0  0  0  0  0  0
    2.0526    2.5000   -0.6867 H   0  0  0  0  0  0  0  0  0  0  0  0
    0.6347    3.5561   -0.7845 H   0  0  0  0  0  0  0  0  0  0  0  0
    0.8887    2.5180    0.6273 H   0  0  0  0  0  0  0  0  0  0  0  0
    0.1490   -1.8359   -1.7233 C   0  0  0  0  0  0  0  0  0  0  0  0
    0.1490   -1.8359   -0.4001 C   0  0  0  0  0  0  0  0  0  0  0  0
    0.1490   -0.6051    0.4693 C   0  0  0  0  0  3  0  0  0  0  0  0
    1.3874   -0.5753    1.3609 C   0  0  0  0  0  0  0  0  0  0  0  0
   -1.1545   -0.5365    1.2259 C   0  0  0  0  0  0  0  0  0  0  0  0
   -1.3092   -0.5363    2.5408 C   0  0  0  0  0  0  0  0  0  0  0  0
    0.1482   -2.7585   -2.2900 H   0  0  0  0  0  0  0  0  0  0  0  0
    0.1507   -0.9101   -2.2890 H   0  0  0  0  0  0  0  0  0  0  0  0
    0.1442   -2.7817    0.1376 H   0  0  0  0  0  0  0  0  0  0  0  0
    0.1856    0.4392   -0.3295 H   0  0  0  0  0  0  0  0  0  0  0  0
    2.2901   -0.5837    0.7497 H   0  0  0  0  0  0  0  0  0  0  0  0
    1.4020    0.3204    1.9840 H   0  0  0  0  0  0  0  0  0  0  0  0
    1.4199   -1.4471    2.0186 H   0  0  0  0  0  0  0  0  0  0  0  0
   -2.0377   -0.5008    0.5933 H   0  0  0  0  0  0  0  0  0  0  0  0
   -0.4688   -0.5756    3.2233 H   0  0  0  0  0  0  0  0  0  0  0  0
   -2.2956   -0.4932    2.9850 H   0  0  0  0  0  0  0  0  0  0  0  0
  1  2  2  3
  1  4  1  0
  1  5  1  0
  2  3  1  0
  2 18  1  0
  3  6  1  0
  3  7  1  0
  3  8  1  0
  9 10  2  3
  9 15  1  0
  9 16  1  0
 10 11  1  0
 10 17  1  0
 11 12  1  0
 11 13  1  0
 12 19  1  0
 12 20  1  0
 12 21  1  0
 13 14  2  3
 13 22  1  0
 14 23  1  0
 14 24  1  0
M  RAD  1  11   2
M  END
>  <reaction>  (14) 
rxn_1187

>  <mol_properties>  (14) 
{"0": {"label": "*4", "atom_type": "Cd"}, "1": {"label": "*3", "atom_type": "Cd"}, "9": {"label": "*0", "atom_type": "Cd"}, "10": {"label": "*1", "atom_type": "Cs"}, "17": {"label": "*2", "atom_type": "H0"}}

>  <type>  (14) 
unop_10

>  <geom_source>  (14) 
Heuristics

$$$$

     RDKit          3D

 24 22  0  0  0  0  0  0  0  0999 V2000
    0.8734    2.6166   -0.6544 C   0  0  0  0  0  0  0  0  0  0  0  0
    0.2846    1.5096   -1.0788 C   0  0  0  0  0  0  0  0  0  0  0  0
   -0.9153    1.4601   -1.9687 C   0  0  0  0  0  0  0  0  0  0  0  0
    0.5063    3.5974   -0.9379 H   0  0  0  0  0  0  0  0  0  0  0  0
    1.7423    2.5845   -0.0092 H   0  0  0  0  0  0  0  0  0  0  0  0
   -1.7395    0.9329   -1.4813 H   0  0  0  0  0  0  0  0  0  0  0  0
   -1.2569    2.4615   -2.2335 H   0  0  0  0  0  0  0  0  0  0  0  0
   -0.6934    0.9169   -2.8909 H   0  0  0  0  0  0  0  0  0  0  0  0
    0.2117   -1.8011   -1.6805 C   0  0  0  0  0  0  0  0  0  0  0  0
    0.2117   -1.8011   -0.3572 C   0  0  0  0  0  0  0  0  0  0  0  0
    0.2117   -0.5704    0.5122 C   0  0  0  0  0  3  0  0  0  0  0  0
    1.4501   -0.5406    1.4038 C   0  0  0  0  0  0  0  0  0  0  0  0
   -1.0918   -0.5018    1.2687 C   0  0  0  0  0  0  0  0  0  0  0  0
   -1.2464   -0.5015    2.5836 C   0  0  0  0  0  0  0  0  0  0  0  0
    0.2110   -2.7238   -2.2472 H   0  0  0  0  0  0  0  0  0  0  0  0
    0.2135   -0.8754   -2.2462 H   0  0  0  0  0  0  0  0  0  0  0  0
    0.2070   -2.7470    0.1804 H   0  0  0  0  0  0  0  0  0  0  0  0
    0.2483    0.4740   -0.2866 H   0  0  0  0  0  0  0  0  0  0  0  0
    2.3528   -0.5489    0.7925 H   0  0  0  0  0  0  0  0  0  0  0  0
    1.4647    0.3552    2.0269 H   0  0  0  0  0  0  0  0  0  0  0  0
    1.4827   -1.4123    2.0614 H   0  0  0  0  0  0  0  0  0  0  0  0
   -1.9750   -0.4661    0.6362 H   0  0  0  0  0  0  0  0  0  0  0  0
   -0.4061   -0.5409    3.2662 H   0  0  0  0  0  0  0  0  0  0  0  0
   -2.2328   -0.4584    3.0279 H   0  0  0  0  0  0  0  0  0  0  0  0
  1  2  2  3
  1  4  1  0
  1  5  1  0
  2  3  1  0
  2 18  1  0
  3  6  1  0
  3  7  1  0
  3  8  1  0
  9 10  2  3
  9 15  1  0
  9 16  1  0
 10 11  1  0
 10 17  1  0
 11 12  1  0
 11 13  1  0
 12 19  1  0
 12 20  1  0
 12 21  1  0
 13 14  2  3
 13 22  1  0
 14 23  1  0
 14 24  1  0
M  RAD  1  11   2
M  END
>  <reaction>  (15) 
rxn_1187

>  <mol_properties>  (15) 
{"0": {"label": "*4", "atom_type": "Cd"}, "1": {"label": "*3", "atom_type": "Cd"}, "9": {"label": "*0", "atom_type": "Cd"}, "10": {"label": "*1", "atom_type": "Cs"}, "17": {"label": "*2", "atom_type": "H0"}}

>  <type>  (15) 
unop_11

>  <geom_source>  (15) 
Heuristics

$$$$

     RDKit          3D

 24 22  0  0  0  0  0  0  0  0999 V2000
    0.2252    1.2903   -2.3782 C   0  0  0  0  0  0  0  0  0  0  0  0
    0.1974    1.4891   -1.0697 C   0  0  0  0  0  0  0  0  0  0  0  0
    0.2040    2.8265   -0.4022 C   0  0  0  0  0  0  0  0  0  0  0  0
    0.2558    2.1202   -3.0763 H   0  0  0  0  0  0  0  0  0  0  0  0
    0.2185    0.2931   -2.7999 H   0  0  0  0  0  0  0  0  0  0  0  0
    1.0680    2.9265    0.2598 H   0  0  0  0  0  0  0  0  0  0  0  0
    0.2350    3.6363   -1.1322 H   0  0  0  0  0  0  0  0  0  0  0  0
   -0.6867    2.9560    0.2180 H   0  0  0  0  0  0  0  0  0  0  0  0
    0.1245   -1.8217   -1.6713 C   0  0  0  0  0  0  0  0  0  0  0  0
    0.1245   -1.8217   -0.3481 C   0  0  0  0  0  0  0  0  0  0  0  0
    0.1245   -0.5909    0.5213 C   0  0  0  0  0  3  0  0  0  0  0  0
    1.3629   -0.5611    1.4129 C   0  0  0  0  0  0  0  0  0  0  0  0
   -1.1790   -0.5223    1.2778 C   0  0  0  0  0  0  0  0  0  0  0  0
   -1.3337   -0.5221    2.5927 C   0  0  0  0  0  0  0  0  0  0  0  0
    0.1237   -2.7443   -2.2381 H   0  0  0  0  0  0  0  0  0  0  0  0
    0.1262   -0.8959   -2.2371 H   0  0  0  0  0  0  0  0  0  0  0  0
    0.1197   -2.7675    0.1895 H   0  0  0  0  0  0  0  0  0  0  0  0
    0.1611    0.4535   -0.2775 H   0  0  0  0  0  0  0  0  0  0  0  0
    2.2656   -0.5695    0.8016 H   0  0  0  0  0  0  0  0  0  0  0  0
    1.3775    0.3347    2.0360 H   0  0  0  0  0  0  0  0  0  0  0  0
    1.3954   -1.4329    2.0705 H   0  0  0  0  0  0  0  0  0  0  0  0
   -2.0622   -0.4866    0.6453 H   0  0  0  0  0  0  0  0  0  0  0  0
   -0.4933   -0.5614    3.2753 H   0  0  0  0  0  0  0  0  0  0  0  0
   -2.3201   -0.4790    3.0370 H   0  0  0  0  0  0  0  0  0  0  0  0
  1  2  2  3
  1  4  1  0
  1  5  1  0
  2  3  1  0
  2 18  1  0
  3  6  1  0
  3  7  1  0
  3  8  1  0
  9 10  2  3
  9 15  1  0
  9 16  1  0
 10 11  1  0
 10 17  1  0
 11 12  1  0
 11 13  1  0
 12 19  1  0
 12 20  1  0
 12 21  1  0
 13 14  2  3
 13 22  1  0
 14 23  1  0
 14 24  1  0
M  RAD  1  11   2
M  END
>  <reaction>  (16) 
rxn_1187

>  <mol_properties>  (16) 
{"0": {"label": "*4", "atom_type": "Cd"}, "1": {"label": "*3", "atom_type": "Cd"}, "9": {"label": "*0", "atom_type": "Cd"}, "10": {"label": "*1", "atom_type": "Cs"}, "17": {"label": "*2", "atom_type": "H0"}}

>  <type>  (16) 
unop_12

>  <geom_source>  (16) 
Heuristics

$$$$

     RDKit          3D

 24 22  0  0  0  0  0  0  0  0999 V2000
   -1.0319   -0.9323    1.2562 C   0  0  0  0  0  0  0  0  0  0  0  0
    2.6183    0.5758   -0.8287 C   0  0  0  0  0  0  0  0  0  0  0  0
   -0.5855   -0.1278    0.0333 C   0  0  0  0  0  3  0  0  0  0  0  0
    1.9743   -0.2473    0.2423 C   0  0  0  0  0  0  0  0  0  0  0  0
   -1.0031   -0.7220   -1.2871 C   0  0  0  0  0  0  0  0  0  0  0  0
   -0.8534    1.3519    0.1320 C   0  0  0  0  0  0  0  0  0  0  0  0
    2.6585   -0.6392    1.3187 C   0  0  0  0  0  0  0  0  0  0  0  0
   -2.2788   -0.9693   -1.6032 C   0  0  0  0  0  0  0  0  0  0  0  0
   -2.0746    1.8589    0.3320 C   0  0  0  0  0  0  0  0  0  0  0  0
    1.8778    0.7903   -1.6270 H   0  0  0  0  0  0  0  0  0  0  0  0
    2.9784    1.5367   -0.4041 H   0  0  0  0  0  0  0  0  0  0  0  0
    3.4736    0.0221   -1.2704 H   0  0  0  0  0  0  0  0  0  0  0  0
   -0.5801   -0.5001    2.1737 H   0  0  0  0  0  0  0  0  0  0  0  0
   -2.1369   -0.9236    1.3601 H   0  0  0  0  0  0  0  0  0  0  0  0
   -0.6872   -1.9832    1.1589 H   0  0  0  0  0  0  0  0  0  0  0  0
    0.7807   -0.5712    0.1263 H   0  0  0  0  0  0  0  0  0  0  0  0
   -0.2288   -0.9424   -2.0147 H   0  0  0  0  0  0  0  0  0  0  0  0
   -0.0142    2.0306    0.0195 H   0  0  0  0  0  0  0  0  0  0  0  0
    3.7030   -0.3701    1.4453 H   0  0  0  0  0  0  0  0  0  0  0  0
    2.1701   -1.2355    2.0820 H   0  0  0  0  0  0  0  0  0  0  0  0
   -3.0843   -0.7636   -0.9071 H   0  0  0  0  0  0  0  0  0  0  0  0
   -2.5235   -1.3904   -2.5728 H   0  0  0  0  0  0  0  0  0  0  0  0
   -2.9413    1.2178    0.4487 H   0  0  0  0  0  0  0  0  0  0  0  0
   -2.2113    2.9339    0.3861 H   0  0  0  0  0  0  0  0  0  0  0  0
  1  3  1  0
  1 13  1  0
  1 14  1  0
  1 15  1  0
  2  4  1  0
  2 10  1  0
  2 11  1  0
  2 12  1  0
  3  5  1  0
  3  6  1  0
  4  7  2  3
  4 16  1  0
  5  8  2  3
  5 17  1  0
  6  9  2  3
  6 18  1  0
  7 19  1  0
  7 20  1  0
  8 21  1  0
  8 22  1  0
  9 23  1  0
  9 24  1  0
M  RAD  1   3   2
M  END
>  <reaction>  (17) 
rxn_1187

>  <mol_properties>  (17) 
{"0": {"label": "*4", "atom_type": "Cd"}, "1": {"label": "*3", "atom_type": "Cd"}, "9": {"label": "*0", "atom_type": "Cd"}, "10": {"label": "*1", "atom_type": "Cs"}, "17": {"label": "*2", "atom_type": "H0"}}

>  <type>  (17) 
unop_13

>  <geom_source>  (17) 
AutoTST

$$$$
