
     RDKit          3D

 10  9  0  0  0  0  0  0  0  0999 V2000
    2.2738    0.0217   -0.0992 C   0  0  0  0  0  0  0  0  0  0  0  0
    1.1083    0.2960   -0.0695 C   0  0  0  0  0  0  0  0  0  0  0  0
   -0.3173    0.6046   -0.0227 C   0  0  0  0  0  0  0  0  0  0  0  0
   -1.1561   -0.5495    0.5292 C   0  0  0  0  0  0  0  0  0  0  0  0
    3.3097   -0.2166   -0.1277 H   0  0  0  0  0  0  0  0  0  0  0  0
   -0.6542    0.8617   -1.0302 H   0  0  0  0  0  0  0  0  0  0  0  0
   -0.4633    1.4978    0.5900 H   0  0  0  0  0  0  0  0  0  0  0  0
   -0.8485   -0.7997    1.5447 H   0  0  0  0  0  0  0  0  0  0  0  0
   -2.2115   -0.2752    0.5459 H   0  0  0  0  0  0  0  0  0  0  0  0
   -1.0409   -1.4407   -0.0879 H   0  0  0  0  0  0  0  0  0  0  0  0
  1  2  3  0
  1  5  1  0
  2  3  1  0
  3  4  1  0
  3  6  1  0
  3  7  1  0
  4  8  1  0
  4  9  1  0
  4 10  1  0
M  END
>  <reaction>  (1) 
rxn_108

>  <mol_properties>  (1) 
{"2": {"label": "donator", "atom_type": "Cs"}, "5": {"label": "d_hydrogen", "atom_type": "H0"}}

>  <type>  (1) 
r1h

$$$$

     RDKit          3D

  3  2  0  0  0  0  0  0  0  0999 V2000
    0.0002    0.4233    0.0000 N   0  0  0  0  0  2  0  0  0  0  0  0
   -0.8051   -0.2112    0.0000 H   0  0  0  0  0  0  0  0  0  0  0  0
    0.8049   -0.2121    0.0000 H   0  0  0  0  0  0  0  0  0  0  0  0
  1  2  1  0
  1  3  1  0
M  RAD  1   1   2
M  END
>  <reaction>  (2) 
rxn_108

>  <mol_properties>  (2) 
{"0": {"label": "acceptor", "atom_type": "N3s"}}

>  <type>  (2) 
r2

$$$$

     RDKit          3D

  4  3  0  0  0  0  0  0  0  0999 V2000
    0.0006   -0.0009    0.2762 N   0  0  0  0  0  0  0  0  0  0  0  0
   -0.4188    0.8439   -0.0883 H   0  0  0  0  0  0  0  0  0  0  0  0
   -0.5215   -0.7840   -0.0936 H   0  0  0  0  0  0  0  0  0  0  0  0
    0.9397   -0.0590   -0.0943 H   0  0  0  0  0  0  0  0  0  0  0  0
  1  2  1  0
  1  3  1  0
  1  4  1  0
M  END
>  <reaction>  (3) 
rxn_108

>  <mol_properties>  (3) 
{"0": {"label": "acceptor", "atom_type": "N3s"}, "3": {"label": "a_hydrogen", "atom_type": "H0"}}

>  <type>  (3) 
r2h

$$$$

     RDKit          3D

 13 11  0  0  0  0  0  0  0  0999 V2000
    1.6955   -1.0184    1.3323 N   0  0  0  0  0  2  0  0  0  0  0  0
    1.5146   -1.9839    1.0468 H   0  0  0  0  0  0  0  0  0  0  0  0
    2.2877   -0.6520    0.5828 H   0  0  0  0  0  0  0  0  0  0  0  0
   -0.2723    0.0122   -2.1887 C   0  0  0  0  0  0  0  0  0  0  0  0
   -0.4016    0.0222   -0.9951 C   0  0  0  0  0  0  0  0  0  0  0  0
   -0.5166    0.0429    0.4376 C   0  0  0  0  0  0  0  0  0  0  0  0
   -0.6074    1.4188    1.0722 C   0  0  0  0  0  0  0  0  0  0  0  0
   -0.1714    0.0031   -3.2472 H   0  0  0  0  0  0  0  0  0  0  0  0
    0.5120   -0.4591    0.9182 H   0  0  0  0  0  0  0  0  0  0  0  0
   -1.2949   -0.6371    0.7873 H   0  0  0  0  0  0  0  0  0  0  0  0
   -1.5297    1.9228    0.7753 H   0  0  0  0  0  0  0  0  0  0  0  0
   -0.5930    1.3321    2.1585 H   0  0  0  0  0  0  0  0  0  0  0  0
    0.2321    2.0422    0.7643 H   0  0  0  0  0  0  0  0  0  0  0  0
  1  2  1  0
  1  3  1  0
  4  5  3  0
  4  8  1  0
  5  6  1  0
  6  7  1  0
  6  9  1  0
  6 10  1  0
  7 11  1  0
  7 12  1  0
  7 13  1  0
M  RAD  1   1   2
M  END
>  <reaction>  (4) 
rxn_108

>  <mol_properties>  (4) 
{"0": {"label": "*3", "atom_type": "N3s"}, "1": {"label": "*4", "atom_type": "H0"}, "4": {"label": "*0", "atom_type": "Ct"}, "5": {"label": "*1", "atom_type": "Cs"}, "8": {"label": "*2", "atom_type": "H0"}}

>  <type>  (4) 
ts

$$$$

     RDKit          3D

 13 11  0  0  0  0  0  0  0  0999 V2000
    1.5602   -1.2703    1.2468 N   0  0  0  0  0  0  0  0  0  0  0  0
    2.1184   -0.6244    1.7888 H   0  0  0  0  0  0  0  0  0  0  0  0
    0.8325   -1.4938    1.9125 H   0  0  0  0  0  0  0  0  0  0  0  0
   -0.4625   -0.0392   -2.2457 C   0  0  0  0  0  0  0  0  0  0  0  0
   -0.4625   -0.0392   -1.0480 C   0  0  0  0  0  0  0  0  0  0  0  0
   -0.4625   -0.0110    0.4112 C   0  0  0  0  0  3  0  0  0  0  0  0
   -0.4625    1.4104    0.9768 C   0  0  0  0  0  0  0  0  0  0  0  0
   -0.4625   -0.0392   -3.3090 H   0  0  0  0  0  0  0  0  0  0  0  0
    0.5881   -0.6651    0.8452 H   0  0  0  0  0  0  0  0  0  0  0  0
   -1.3380   -0.5560    0.7729 H   0  0  0  0  0  0  0  0  0  0  0  0
   -1.3447    1.9583    0.6453 H   0  0  0  0  0  0  0  0  0  0  0  0
   -0.4625    1.3831    2.0670 H   0  0  0  0  0  0  0  0  0  0  0  0
    0.4197    1.9582    0.6453 H   0  0  0  0  0  0  0  0  0  0  0  0
  1  2  1  0
  1  3  1  0
  1  9  1  0
  4  5  3  0
  4  8  1  0
  5  6  1  0
  6  7  1  0
  6 10  1  0
  7 11  1  0
  7 12  1  0
  7 13  1  0
M  RAD  1   6   2
M  END
>  <reaction>  (5) 
rxn_108

>  <mol_properties>  (5) 
{"0": {"label": "*3", "atom_type": "N3s"}, "1": {"label": "*4", "atom_type": "H0"}, "4": {"label": "*0", "atom_type": "Ct"}, "5": {"label": "*1", "atom_type": "Cs"}, "8": {"label": "*2", "atom_type": "H0"}}

>  <type>  (5) 
unop_1

>  <geom_source>  (5) 
Heuristics

$$$$

     RDKit          3D

 13 11  0  0  0  0  0  0  0  0999 V2000
    1.5493   -1.2764    1.2647 N   0  0  0  0  0  0  0  0  0  0  0  0
    2.2773   -1.1788    0.5696 H   0  0  0  0  0  0  0  0  0  0  0  0
    1.4057   -0.5260    1.9271 H   0  0  0  0  0  0  0  0  0  0  0  0
   -0.4734   -0.0453   -2.2279 C   0  0  0  0  0  0  0  0  0  0  0  0
   -0.4734   -0.0453   -1.0302 C   0  0  0  0  0  0  0  0  0  0  0  0
   -0.4734   -0.0171    0.4290 C   0  0  0  0  0  3  0  0  0  0  0  0
   -0.4733    1.4043    0.9946 C   0  0  0  0  0  0  0  0  0  0  0  0
   -0.4734   -0.0453   -3.2912 H   0  0  0  0  0  0  0  0  0  0  0  0
    0.5772   -0.6712    0.8631 H   0  0  0  0  0  0  0  0  0  0  0  0
   -1.3489   -0.5622    0.7907 H   0  0  0  0  0  0  0  0  0  0  0  0
   -1.3556    1.9521    0.6631 H   0  0  0  0  0  0  0  0  0  0  0  0
   -0.4733    1.3770    2.0849 H   0  0  0  0  0  0  0  0  0  0  0  0
    0.4089    1.9521    0.6631 H   0  0  0  0  0  0  0  0  0  0  0  0
  1  2  1  0
  1  3  1  0
  1  9  1  0
  4  5  3  0
  4  8  1  0
  5  6  1  0
  6  7  1  0
  6 10  1  0
  7 11  1  0
  7 12  1  0
  7 13  1  0
M  RAD  1   6   2
M  END
>  <reaction>  (6) 
rxn_108

>  <mol_properties>  (6) 
{"0": {"label": "*3", "atom_type": "N3s"}, "1": {"label": "*4", "atom_type": "H0"}, "4": {"label": "*0", "atom_type": "Ct"}, "5": {"label": "*1", "atom_type": "Cs"}, "8": {"label": "*2", "atom_type": "H0"}}

>  <type>  (6) 
unop_2

>  <geom_source>  (6) 
Heuristics

$$$$

     RDKit          3D

 13 11  0  0  0  0  0  0  0  0999 V2000
    1.5623   -1.2605    1.2449 N   0  0  0  0  0  0  0  0  0  0  0  0
    1.8364   -0.8461    2.1257 H   0  0  0  0  0  0  0  0  0  0  0  0
    0.9660   -1.9370    1.7022 H   0  0  0  0  0  0  0  0  0  0  0  0
   -0.4603   -0.0294   -2.2476 C   0  0  0  0  0  0  0  0  0  0  0  0
   -0.4603   -0.0294   -1.0499 C   0  0  0  0  0  0  0  0  0  0  0  0
   -0.4603   -0.0011    0.4093 C   0  0  0  0  0  3  0  0  0  0  0  0
   -0.4603    1.4202    0.9749 C   0  0  0  0  0  0  0  0  0  0  0  0
   -0.4603   -0.0294   -3.3109 H   0  0  0  0  0  0  0  0  0  0  0  0
    0.5903   -0.6552    0.8433 H   0  0  0  0  0  0  0  0  0  0  0  0
   -1.3358   -0.5462    0.7710 H   0  0  0  0  0  0  0  0  0  0  0  0
   -1.3425    1.9681    0.6434 H   0  0  0  0  0  0  0  0  0  0  0  0
   -0.4603    1.3930    2.0652 H   0  0  0  0  0  0  0  0  0  0  0  0
    0.4219    1.9681    0.6434 H   0  0  0  0  0  0  0  0  0  0  0  0
  1  2  1  0
  1  3  1  0
  1  9  1  0
  4  5  3  0
  4  8  1  0
  5  6  1  0
  6  7  1  0
  6 10  1  0
  7 11  1  0
  7 12  1  0
  7 13  1  0
M  RAD  1   6   2
M  END
>  <reaction>  (7) 
rxn_108

>  <mol_properties>  (7) 
{"0": {"label": "*3", "atom_type": "N3s"}, "1": {"label": "*4", "atom_type": "H0"}, "4": {"label": "*0", "atom_type": "Ct"}, "5": {"label": "*1", "atom_type": "Cs"}, "8": {"label": "*2", "atom_type": "H0"}}

>  <type>  (7) 
unop_3

>  <geom_source>  (7) 
Heuristics

$$$$

     RDKit          3D

 13 11  0  0  0  0  0  0  0  0999 V2000
    1.5454   -1.2563    1.2692 N   0  0  0  0  0  0  0  0  0  0  0  0
    1.4748   -2.2058    0.9287 H   0  0  0  0  0  0  0  0  0  0  0  0
    2.4753   -0.8592    1.2635 H   0  0  0  0  0  0  0  0  0  0  0  0
   -0.4773   -0.0252   -2.2234 C   0  0  0  0  0  0  0  0  0  0  0  0
   -0.4773   -0.0252   -1.0256 C   0  0  0  0  0  0  0  0  0  0  0  0
   -0.4773    0.0030    0.4335 C   0  0  0  0  0  3  0  0  0  0  0  0
   -0.4773    1.4244    0.9991 C   0  0  0  0  0  0  0  0  0  0  0  0
   -0.4773   -0.0252   -3.2867 H   0  0  0  0  0  0  0  0  0  0  0  0
    0.5733   -0.6511    0.8676 H   0  0  0  0  0  0  0  0  0  0  0  0
   -1.3528   -0.5420    0.7952 H   0  0  0  0  0  0  0  0  0  0  0  0
   -1.3595    1.9723    0.6676 H   0  0  0  0  0  0  0  0  0  0  0  0
   -0.4773    1.3971    2.0894 H   0  0  0  0  0  0  0  0  0  0  0  0
    0.4049    1.9723    0.6676 H   0  0  0  0  0  0  0  0  0  0  0  0
  1  2  1  0
  1  3  1  0
  1  9  1  0
  4  5  3  0
  4  8  1  0
  5  6  1  0
  6  7  1  0
  6 10  1  0
  7 11  1  0
  7 12  1  0
  7 13  1  0
M  RAD  1   6   2
M  END
>  <reaction>  (8) 
rxn_108

>  <mol_properties>  (8) 
{"0": {"label": "*3", "atom_type": "N3s"}, "1": {"label": "*4", "atom_type": "H0"}, "4": {"label": "*0", "atom_type": "Ct"}, "5": {"label": "*1", "atom_type": "Cs"}, "8": {"label": "*2", "atom_type": "H0"}}

>  <type>  (8) 
unop_4

>  <geom_source>  (8) 
Heuristics

$$$$

     RDKit          3D

 13 11  0  0  0  0  0  0  0  0999 V2000
    1.5584   -1.2502    1.2488 N   0  0  0  0  0  0  0  0  0  0  0  0
    1.5402   -1.2191    2.2594 H   0  0  0  0  0  0  0  0  0  0  0  0
    1.5285   -2.2592    1.3085 H   0  0  0  0  0  0  0  0  0  0  0  0
   -0.4643   -0.0191   -2.2437 C   0  0  0  0  0  0  0  0  0  0  0  0
   -0.4643   -0.0191   -1.0460 C   0  0  0  0  0  0  0  0  0  0  0  0
   -0.4643    0.0092    0.4131 C   0  0  0  0  0  3  0  0  0  0  0  0
   -0.4642    1.4305    0.9787 C   0  0  0  0  0  0  0  0  0  0  0  0
   -0.4643   -0.0191   -3.3070 H   0  0  0  0  0  0  0  0  0  0  0  0
    0.5863   -0.6449    0.8472 H   0  0  0  0  0  0  0  0  0  0  0  0
   -1.3398   -0.5359    0.7748 H   0  0  0  0  0  0  0  0  0  0  0  0
   -1.3465    1.9784    0.6473 H   0  0  0  0  0  0  0  0  0  0  0  0
   -0.4642    1.4033    2.0690 H   0  0  0  0  0  0  0  0  0  0  0  0
    0.4180    1.9784    0.6473 H   0  0  0  0  0  0  0  0  0  0  0  0
  1  2  1  0
  1  3  1  0
  1  9  1  0
  4  5  3  0
  4  8  1  0
  5  6  1  0
  6  7  1  0
  6 10  1  0
  7 11  1  0
  7 12  1  0
  7 13  1  0
M  RAD  1   6   2
M  END
>  <reaction>  (9) 
rxn_108

>  <mol_properties>  (9) 
{"0": {"label": "*3", "atom_type": "N3s"}, "1": {"label": "*4", "atom_type": "H0"}, "4": {"label": "*0", "atom_type": "Ct"}, "5": {"label": "*1", "atom_type": "Cs"}, "8": {"label": "*2", "atom_type": "H0"}}

>  <type>  (9) 
unop_5

>  <geom_source>  (9) 
Heuristics

$$$$

     RDKit          3D

 13 11  0  0  0  0  0  0  0  0999 V2000
    1.5472   -1.2511    1.2647 N   0  0  0  0  0  0  0  0  0  0  0  0
    1.2768   -2.2184    1.3812 H   0  0  0  0  0  0  0  0  0  0  0  0
    2.5462   -1.1999    1.1162 H   0  0  0  0  0  0  0  0  0  0  0  0
   -0.4754   -0.0199   -2.2279 C   0  0  0  0  0  0  0  0  0  0  0  0
   -0.4754   -0.0199   -1.0302 C   0  0  0  0  0  0  0  0  0  0  0  0
   -0.4754    0.0083    0.4290 C   0  0  0  0  0  3  0  0  0  0  0  0
   -0.4754    1.4297    0.9946 C   0  0  0  0  0  0  0  0  0  0  0  0
   -0.4754   -0.0199   -3.2912 H   0  0  0  0  0  0  0  0  0  0  0  0
    0.5752   -0.6458    0.8630 H   0  0  0  0  0  0  0  0  0  0  0  0
   -1.3509   -0.5368    0.7907 H   0  0  0  0  0  0  0  0  0  0  0  0
   -1.3576    1.9775    0.6631 H   0  0  0  0  0  0  0  0  0  0  0  0
   -0.4754    1.4024    2.0849 H   0  0  0  0  0  0  0  0  0  0  0  0
    0.4068    1.9775    0.6631 H   0  0  0  0  0  0  0  0  0  0  0  0
  1  2  1  0
  1  3  1  0
  1  9  1  0
  4  5  3  0
  4  8  1  0
  5  6  1  0
  6  7  1  0
  6 10  1  0
  7 11  1  0
  7 12  1  0
  7 13  1  0
M  RAD  1   6   2
M  END
>  <reaction>  (10) 
rxn_108

>  <mol_properties>  (10) 
{"0": {"label": "*3", "atom_type": "N3s"}, "1": {"label": "*4", "atom_type": "H0"}, "4": {"label": "*0", "atom_type": "Ct"}, "5": {"label": "*1", "atom_type": "Cs"}, "8": {"label": "*2", "atom_type": "H0"}}

>  <type>  (10) 
unop_6

>  <geom_source>  (10) 
Heuristics

$$$$

     RDKit          3D

 13 11  0  0  0  0  0  0  0  0999 V2000
    1.5491   -1.2485    1.2593 N   0  0  0  0  0  0  0  0  0  0  0  0
    1.2166   -2.0152    1.8286 H   0  0  0  0  0  0  0  0  0  0  0  0
    2.4788   -1.5741    1.0305 H   0  0  0  0  0  0  0  0  0  0  0  0
   -0.4735   -0.0174   -2.2332 C   0  0  0  0  0  0  0  0  0  0  0  0
   -0.4735   -0.0174   -1.0355 C   0  0  0  0  0  0  0  0  0  0  0  0
   -0.4735    0.0108    0.4236 C   0  0  0  0  0  3  0  0  0  0  0  0
   -0.4735    1.4322    0.9892 C   0  0  0  0  0  0  0  0  0  0  0  0
   -0.4735   -0.0174   -3.2965 H   0  0  0  0  0  0  0  0  0  0  0  0
    0.5771   -0.6433    0.8577 H   0  0  0  0  0  0  0  0  0  0  0  0
   -1.3491   -0.5343    0.7853 H   0  0  0  0  0  0  0  0  0  0  0  0
   -1.3558    1.9801    0.6578 H   0  0  0  0  0  0  0  0  0  0  0  0
   -0.4735    1.4049    2.0795 H   0  0  0  0  0  0  0  0  0  0  0  0
    0.4087    1.9800    0.6578 H   0  0  0  0  0  0  0  0  0  0  0  0
  1  2  1  0
  1  3  1  0
  1  9  1  0
  4  5  3  0
  4  8  1  0
  5  6  1  0
  6  7  1  0
  6 10  1  0
  7 11  1  0
  7 12  1  0
  7 13  1  0
M  RAD  1   6   2
M  END
>  <reaction>  (11) 
rxn_108

>  <mol_properties>  (11) 
{"0": {"label": "*3", "atom_type": "N3s"}, "1": {"label": "*4", "atom_type": "H0"}, "4": {"label": "*0", "atom_type": "Ct"}, "5": {"label": "*1", "atom_type": "Cs"}, "8": {"label": "*2", "atom_type": "H0"}}

>  <type>  (11) 
unop_7

>  <geom_source>  (11) 
Heuristics

$$$$

     RDKit          3D

 13 11  0  0  0  0  0  0  0  0999 V2000
    1.5563   -1.2760    1.2522 N   0  0  0  0  0  0  0  0  0  0  0  0
    2.3145   -0.6122    1.3372 H   0  0  0  0  0  0  0  0  0  0  0  0
    0.8937   -1.1225    2.0005 H   0  0  0  0  0  0  0  0  0  0  0  0
   -0.4663   -0.0449   -2.2403 C   0  0  0  0  0  0  0  0  0  0  0  0
   -0.4663   -0.0449   -1.0426 C   0  0  0  0  0  0  0  0  0  0  0  0
   -0.4663   -0.0167    0.4165 C   0  0  0  0  0  3  0  0  0  0  0  0
   -0.4663    1.4047    0.9821 C   0  0  0  0  0  0  0  0  0  0  0  0
   -0.4663   -0.0449   -3.3036 H   0  0  0  0  0  0  0  0  0  0  0  0
    0.5843   -0.6708    0.8506 H   0  0  0  0  0  0  0  0  0  0  0  0
   -1.3418   -0.5617    0.7783 H   0  0  0  0  0  0  0  0  0  0  0  0
   -1.3485    1.9526    0.6507 H   0  0  0  0  0  0  0  0  0  0  0  0
   -0.4663    1.3774    2.0724 H   0  0  0  0  0  0  0  0  0  0  0  0
    0.4159    1.9526    0.6507 H   0  0  0  0  0  0  0  0  0  0  0  0
  1  2  1  0
  1  3  1  0
  1  9  1  0
  4  5  3  0
  4  8  1  0
  5  6  1  0
  6  7  1  0
  6 10  1  0
  7 11  1  0
  7 12  1  0
  7 13  1  0
M  RAD  1   6   2
M  END
>  <reaction>  (12) 
rxn_108

>  <mol_properties>  (12) 
{"0": {"label": "*3", "atom_type": "N3s"}, "1": {"label": "*4", "atom_type": "H0"}, "4": {"label": "*0", "atom_type": "Ct"}, "5": {"label": "*1", "atom_type": "Cs"}, "8": {"label": "*2", "atom_type": "H0"}}

>  <type>  (12) 
unop_8

>  <geom_source>  (12) 
Heuristics

$$$$

     RDKit          3D

 13 11  0  0  0  0  0  0  0  0999 V2000
    1.5445   -1.2639    1.2710 N   0  0  0  0  0  0  0  0  0  0  0  0
    1.7582   -1.9819    0.5917 H   0  0  0  0  0  0  0  0  0  0  0  0
    2.2461   -0.5656    1.4774 H   0  0  0  0  0  0  0  0  0  0  0  0
   -0.4781   -0.0328   -2.2215 C   0  0  0  0  0  0  0  0  0  0  0  0
   -0.4781   -0.0328   -1.0238 C   0  0  0  0  0  0  0  0  0  0  0  0
   -0.4781   -0.0046    0.4353 C   0  0  0  0  0  3  0  0  0  0  0  0
   -0.4781    1.4168    1.0009 C   0  0  0  0  0  0  0  0  0  0  0  0
   -0.4781   -0.0328   -3.2848 H   0  0  0  0  0  0  0  0  0  0  0  0
    0.5725   -0.6587    0.8694 H   0  0  0  0  0  0  0  0  0  0  0  0
   -1.3536   -0.5497    0.7970 H   0  0  0  0  0  0  0  0  0  0  0  0
   -1.3603    1.9646    0.6695 H   0  0  0  0  0  0  0  0  0  0  0  0
   -0.4781    1.3895    2.0912 H   0  0  0  0  0  0  0  0  0  0  0  0
    0.4041    1.9646    0.6695 H   0  0  0  0  0  0  0  0  0  0  0  0
  1  2  1  0
  1  3  1  0
  1  9  1  0
  4  5  3  0
  4  8  1  0
  5  6  1  0
  6  7  1  0
  6 10  1  0
  7 11  1  0
  7 12  1  0
  7 13  1  0
M  RAD  1   6   2
M  END
>  <reaction>  (13) 
rxn_108

>  <mol_properties>  (13) 
{"0": {"label": "*3", "atom_type": "N3s"}, "1": {"label": "*4", "atom_type": "H0"}, "4": {"label": "*0", "atom_type": "Ct"}, "5": {"label": "*1", "atom_type": "Cs"}, "8": {"label": "*2", "atom_type": "H0"}}

>  <type>  (13) 
unop_9

>  <geom_source>  (13) 
Heuristics

$$$$

     RDKit          3D

 13 11  0  0  0  0  0  0  0  0999 V2000
    1.5527   -1.2778    1.2587 N   0  0  0  0  0  0  0  0  0  0  0  0
    2.3730   -0.8148    0.8908 H   0  0  0  0  0  0  0  0  0  0  0  0
    1.0795   -0.7944    2.0103 H   0  0  0  0  0  0  0  0  0  0  0  0
   -0.4699   -0.0467   -2.2339 C   0  0  0  0  0  0  0  0  0  0  0  0
   -0.4699   -0.0467   -1.0361 C   0  0  0  0  0  0  0  0  0  0  0  0
   -0.4699   -0.0185    0.4230 C   0  0  0  0  0  3  0  0  0  0  0  0
   -0.4699    1.4029    0.9886 C   0  0  0  0  0  0  0  0  0  0  0  0
   -0.4699   -0.0467   -3.2972 H   0  0  0  0  0  0  0  0  0  0  0  0
    0.5807   -0.6726    0.8571 H   0  0  0  0  0  0  0  0  0  0  0  0
   -1.3455   -0.5636    0.7847 H   0  0  0  0  0  0  0  0  0  0  0  0
   -1.3522    1.9507    0.6571 H   0  0  0  0  0  0  0  0  0  0  0  0
   -0.4699    1.3756    2.0789 H   0  0  0  0  0  0  0  0  0  0  0  0
    0.4123    1.9507    0.6571 H   0  0  0  0  0  0  0  0  0  0  0  0
  1  2  1  0
  1  3  1  0
  1  9  1  0
  4  5  3  0
  4  8  1  0
  5  6  1  0
  6  7  1  0
  6 10  1  0
  7 11  1  0
  7 12  1  0
  7 13  1  0
M  RAD  1   6   2
M  END
>  <reaction>  (14) 
rxn_108

>  <mol_properties>  (14) 
{"0": {"label": "*3", "atom_type": "N3s"}, "1": {"label": "*4", "atom_type": "H0"}, "4": {"label": "*0", "atom_type": "Ct"}, "5": {"label": "*1", "atom_type": "Cs"}, "8": {"label": "*2", "atom_type": "H0"}}

>  <type>  (14) 
unop_10

>  <geom_source>  (14) 
Heuristics

$$$$

     RDKit          3D

 13 11  0  0  0  0  0  0  0  0999 V2000
    1.5519   -1.2476    1.2543 N   0  0  0  0  0  0  0  0  0  0  0  0
    1.3117   -1.6489    2.1509 H   0  0  0  0  0  0  0  0  0  0  0  0
    2.1934   -2.0004    1.0436 H   0  0  0  0  0  0  0  0  0  0  0  0
   -0.4707   -0.0165   -2.2382 C   0  0  0  0  0  0  0  0  0  0  0  0
   -0.4707   -0.0165   -1.0405 C   0  0  0  0  0  0  0  0  0  0  0  0
   -0.4707    0.0117    0.4187 C   0  0  0  0  0  3  0  0  0  0  0  0
   -0.4707    1.4331    0.9843 C   0  0  0  0  0  0  0  0  0  0  0  0
   -0.4707   -0.0165   -3.3015 H   0  0  0  0  0  0  0  0  0  0  0  0
    0.5799   -0.6424    0.8527 H   0  0  0  0  0  0  0  0  0  0  0  0
   -1.3462   -0.5334    0.7804 H   0  0  0  0  0  0  0  0  0  0  0  0
   -1.3529    1.9809    0.6528 H   0  0  0  0  0  0  0  0  0  0  0  0
   -0.4707    1.4058    2.0745 H   0  0  0  0  0  0  0  0  0  0  0  0
    0.4115    1.9809    0.6528 H   0  0  0  0  0  0  0  0  0  0  0  0
  1  2  1  0
  1  3  1  0
  1  9  1  0
  4  5  3  0
  4  8  1  0
  5  6  1  0
  6  7  1  0
  6 10  1  0
  7 11  1  0
  7 12  1  0
  7 13  1  0
M  RAD  1   6   2
M  END
>  <reaction>  (15) 
rxn_108

>  <mol_properties>  (15) 
{"0": {"label": "*3", "atom_type": "N3s"}, "1": {"label": "*4", "atom_type": "H0"}, "4": {"label": "*0", "atom_type": "Ct"}, "5": {"label": "*1", "atom_type": "Cs"}, "8": {"label": "*2", "atom_type": "H0"}}

>  <type>  (15) 
unop_11

>  <geom_source>  (15) 
Heuristics

$$$$

     RDKit          3D

 13 11  0  0  0  0  0  0  0  0999 V2000
    1.5461   -1.2716    1.2692 N   0  0  0  0  0  0  0  0  0  0  0  0
    2.0520   -1.6063    0.4601 H   0  0  0  0  0  0  0  0  0  0  0  0
    1.8472   -0.4235    1.7303 H   0  0  0  0  0  0  0  0  0  0  0  0
   -0.4766   -0.0405   -2.2233 C   0  0  0  0  0  0  0  0  0  0  0  0
   -0.4766   -0.0405   -1.0256 C   0  0  0  0  0  0  0  0  0  0  0  0
   -0.4766   -0.0123    0.4335 C   0  0  0  0  0  3  0  0  0  0  0  0
   -0.4765    1.4091    0.9991 C   0  0  0  0  0  0  0  0  0  0  0  0
   -0.4766   -0.0405   -3.2866 H   0  0  0  0  0  0  0  0  0  0  0  0
    0.5740   -0.6664    0.8676 H   0  0  0  0  0  0  0  0  0  0  0  0
   -1.3521   -0.5574    0.7952 H   0  0  0  0  0  0  0  0  0  0  0  0
   -1.3588    1.9570    0.6677 H   0  0  0  0  0  0  0  0  0  0  0  0
   -0.4765    1.3818    2.0894 H   0  0  0  0  0  0  0  0  0  0  0  0
    0.4057    1.9569    0.6677 H   0  0  0  0  0  0  0  0  0  0  0  0
  1  2  1  0
  1  3  1  0
  1  9  1  0
  4  5  3  0
  4  8  1  0
  5  6  1  0
  6  7  1  0
  6 10  1  0
  7 11  1  0
  7 12  1  0
  7 13  1  0
M  RAD  1   6   2
M  END
>  <reaction>  (16) 
rxn_108

>  <mol_properties>  (16) 
{"0": {"label": "*3", "atom_type": "N3s"}, "1": {"label": "*4", "atom_type": "H0"}, "4": {"label": "*0", "atom_type": "Ct"}, "5": {"label": "*1", "atom_type": "Cs"}, "8": {"label": "*2", "atom_type": "H0"}}

>  <type>  (16) 
unop_12

>  <geom_source>  (16) 
Heuristics

$$$$
