
     RDKit          3D

 11 10  0  0  0  0  0  0  0  0999 V2000
   -1.2710    0.1907   -0.2084 C   0  0  0  0  0  0  0  0  0  0  0  0
    0.0202   -0.6130   -0.2928 C   0  0  0  0  0  0  0  0  0  0  0  0
    0.1086   -1.6953    0.7756 C   0  0  0  0  0  0  0  0  0  0  0  0
   -1.3607    0.6851    0.7620 H   0  0  0  0  0  0  0  0  0  0  0  0
   -2.1429   -0.4567   -0.3299 H   0  0  0  0  0  0  0  0  0  0  0  0
   -1.3158    0.9602   -0.9809 H   0  0  0  0  0  0  0  0  0  0  0  0
    0.8757    0.0616   -0.1992 H   0  0  0  0  0  0  0  0  0  0  0  0
    0.0997   -1.0712   -1.2825 H   0  0  0  0  0  0  0  0  0  0  0  0
   -0.7198   -2.4022    0.6850 H   0  0  0  0  0  0  0  0  0  0  0  0
    1.0395   -2.2596    0.6989 H   0  0  0  0  0  0  0  0  0  0  0  0
    0.0624   -1.2603    1.7770 H   0  0  0  0  0  0  0  0  0  0  0  0
  1  2  1  0
  1  4  1  0
  1  5  1  0
  1  6  1  0
  2  3  1  0
  2  7  1  0
  2  8  1  0
  3  9  1  0
  3 10  1  0
  3 11  1  0
M  END
>  <reaction>  (1) 
rxn_933

>  <mol_properties>  (1) 
{"1": {"label": "donator", "atom_type": "Cs"}, "6": {"label": "d_hydrogen", "atom_type": "H0"}}

>  <type>  (1) 
r1h

$$$$

     RDKit          3D

 11 10  0  0  0  0  0  0  0  0999 V2000
    1.0781   -1.0166   -0.1159 C   0  0  0  0  0  0  0  0  0  0  0  0
    0.2180    0.1942   -0.2297 C   0  0  0  0  0  3  0  0  0  0  0  0
    0.9343    1.7769   -0.3011 S   0  0  0  0  0  0  0  0  0  0  0  0
   -1.1949    0.1490    0.2439 C   0  0  0  0  0  0  0  0  0  0  0  0
    1.4718   -1.1461    0.9024 H   0  0  0  0  0  0  0  0  0  0  0  0
    1.9367   -0.9751   -0.7902 H   0  0  0  0  0  0  0  0  0  0  0  0
    0.5033   -1.9136   -0.3576 H   0  0  0  0  0  0  0  0  0  0  0  0
    2.1166    1.4195   -0.8209 H   0  0  0  0  0  0  0  0  0  0  0  0
   -1.2620    0.0939    1.3399 H   0  0  0  0  0  0  0  0  0  0  0  0
   -1.7600    1.0270   -0.0739 H   0  0  0  0  0  0  0  0  0  0  0  0
   -1.6972   -0.7380   -0.1506 H   0  0  0  0  0  0  0  0  0  0  0  0
  1  2  1  0
  1  5  1  0
  1  6  1  0
  1  7  1  0
  2  4  1  0
  2  3  1  0
  3  8  1  0
  4  9  1  0
  4 10  1  0
  4 11  1  0
M  RAD  1   2   2
M  END
>  <reaction>  (2) 
rxn_933

>  <mol_properties>  (2) 
{"1": {"label": "acceptor", "atom_type": "Cs"}}

>  <type>  (2) 
r2

$$$$

     RDKit          3D

 12 11  0  0  0  0  0  0  0  0999 V2000
    1.2394   -0.3763   -0.3020 C   0  0  0  0  0  0  0  0  0  0  0  0
    0.1007    0.3024    0.4464 C   0  0  0  0  0  0  0  0  0  0  0  0
   -0.1187    2.0399   -0.0725 S   0  0  0  0  0  0  0  0  0  0  0  0
   -1.1974   -0.4877    0.3552 C   0  0  0  0  0  0  0  0  0  0  0  0
    2.1681    0.1850   -0.2048 H   0  0  0  0  0  0  0  0  0  0  0  0
    1.0030   -0.4604   -1.3656 H   0  0  0  0  0  0  0  0  0  0  0  0
    1.3993   -1.3856    0.0859 H   0  0  0  0  0  0  0  0  0  0  0  0
    0.3797    0.4050    1.4982 H   0  0  0  0  0  0  0  0  0  0  0  0
   -0.4500    1.7774   -1.3452 H   0  0  0  0  0  0  0  0  0  0  0  0
   -1.0545   -1.4977    0.7478 H   0  0  0  0  0  0  0  0  0  0  0  0
   -1.5206   -0.5758   -0.6849 H   0  0  0  0  0  0  0  0  0  0  0  0
   -1.9957   -0.0054    0.9183 H   0  0  0  0  0  0  0  0  0  0  0  0
  1  2  1  0
  1  5  1  0
  1  6  1  0
  1  7  1  0
  2  4  1  0
  2  3  1  0
  2  8  1  0
  3  9  1  0
  4 10  1  0
  4 11  1  0
  4 12  1  0
M  END
>  <reaction>  (3) 
rxn_933

>  <mol_properties>  (3) 
{"1": {"label": "acceptor", "atom_type": "Cs"}, "11": {"label": "a_hydrogen", "atom_type": "H0"}}

>  <type>  (3) 
r2h

$$$$

     RDKit          3D

 22 20  0  0  0  0  0  0  0  0999 V2000
    1.5423    0.6672    0.6497 C   0  0  0  0  0  0  0  0  0  0  0  0
    0.3451   -0.2436    0.7746 C   0  0  0  0  0  0  0  0  0  0  0  0
    0.5685   -1.8828    0.0748 S   0  0  0  0  0  0  0  0  0  0  0  0
   -0.2202   -0.3482    2.1719 C   0  0  0  0  0  0  0  0  0  0  0  0
    1.8460    0.7872   -0.3921 H   0  0  0  0  0  0  0  0  0  0  0  0
    2.3992    0.2768    1.2073 H   0  0  0  0  0  0  0  0  0  0  0  0
    1.3002    1.6567    1.0459 H   0  0  0  0  0  0  0  0  0  0  0  0
    1.0686   -1.4909   -1.1048 H   0  0  0  0  0  0  0  0  0  0  0  0
   -0.4713    0.6484    2.5413 H   0  0  0  0  0  0  0  0  0  0  0  0
   -1.1266   -0.9556    2.1914 H   0  0  0  0  0  0  0  0  0  0  0  0
    0.5015   -0.7902    2.8665 H   0  0  0  0  0  0  0  0  0  0  0  0
   -1.1479    0.8069   -2.0857 C   0  0  0  0  0  0  0  0  0  0  0  0
   -1.5604    1.0061   -0.6528 C   0  0  0  0  0  3  0  0  0  0  0  0
   -1.5444    2.4232   -0.1464 C   0  0  0  0  0  0  0  0  0  0  0  0
   -0.1569    1.2321   -2.2704 H   0  0  0  0  0  0  0  0  0  0  0  0
   -1.8423    1.2995   -2.7766 H   0  0  0  0  0  0  0  0  0  0  0  0
   -1.1181   -0.2522   -2.3470 H   0  0  0  0  0  0  0  0  0  0  0  0
   -0.6079    0.3327    0.0742 H   0  0  0  0  0  0  0  0  0  0  0  0
   -2.4623    0.4567   -0.3817 H   0  0  0  0  0  0  0  0  0  0  0  0
   -2.2868    3.0422   -0.6638 H   0  0  0  0  0  0  0  0  0  0  0  0
   -1.7657    2.4722    0.9216 H   0  0  0  0  0  0  0  0  0  0  0  0
   -0.5682    2.8874   -0.3113 H   0  0  0  0  0  0  0  0  0  0  0  0
  1  2  1  0
  1  5  1  0
  1  6  1  0
  1  7  1  0
  2  4  1  0
  2  3  1  0
  2 18  1  0
  3  8  1  0
  4  9  1  0
  4 10  1  0
  4 11  1  0
 12 13  1  0
 12 15  1  0
 12 16  1  0
 12 17  1  0
 13 14  1  0
 13 19  1  0
 14 20  1  0
 14 21  1  0
 14 22  1  0
M  RAD  1  13   2
M  END
>  <reaction>  (4) 
rxn_933

>  <mol_properties>  (4) 
{"1": {"label": "*1", "atom_type": "Cs"}, "2": {"label": "*0", "atom_type": "S2s"}, "11": {"label": "*4", "atom_type": "Cs"}, "12": {"label": "*3", "atom_type": "Cs"}, "17": {"label": "*2", "atom_type": "H0"}}

>  <type>  (4) 
ts

$$$$

     RDKit          3D

 22 20  0  0  0  0  0  0  0  0999 V2000
    1.3869    0.5944    1.2799 C   0  0  0  0  0  0  0  0  0  0  0  0
    0.5348   -0.3439    0.4367 C   0  0  0  0  0  0  0  0  0  0  0  0
    1.5379   -1.6424   -0.3659 S   0  0  0  0  0  0  0  0  0  0  0  0
   -0.6280   -0.9288    1.2262 C   0  0  0  0  0  0  0  0  0  0  0  0
    2.1979    1.0271    0.6951 H   0  0  0  0  0  0  0  0  0  0  0  0
    1.8258    0.0586    2.1252 H   0  0  0  0  0  0  0  0  0  0  0  0
    0.7738    1.4060    1.6803 H   0  0  0  0  0  0  0  0  0  0  0  0
    1.9540   -2.2327    0.7639 H   0  0  0  0  0  0  0  0  0  0  0  0
   -1.2552   -0.1279    1.6262 H   0  0  0  0  0  0  0  0  0  0  0  0
   -1.2449   -1.5755    0.6034 H   0  0  0  0  0  0  0  0  0  0  0  0
   -0.2608   -1.5188    2.0695 H   0  0  0  0  0  0  0  0  0  0  0  0
   -1.5635    0.9670   -1.9600 C   0  0  0  0  0  0  0  0  0  0  0  0
   -1.5635    0.9670   -0.4367 C   0  0  0  0  0  3  0  0  0  0  0  0
   -1.5635    2.3728    0.1500 C   0  0  0  0  0  0  0  0  0  0  0  0
   -0.6821    1.4813   -2.3507 H   0  0  0  0  0  0  0  0  0  0  0  0
   -2.4450    1.4813   -2.3507 H   0  0  0  0  0  0  0  0  0  0  0  0
   -1.5635   -0.0479   -2.3612 H   0  0  0  0  0  0  0  0  0  0  0  0
   -0.5141    0.3114    0.0001 H   0  0  0  0  0  0  0  0  0  0  0  0
   -2.4381    0.4207   -0.0727 H   0  0  0  0  0  0  0  0  0  0  0  0
   -2.4450    2.9314   -0.1741 H   0  0  0  0  0  0  0  0  0  0  0  0
   -1.5635    2.3521    1.2411 H   0  0  0  0  0  0  0  0  0  0  0  0
   -0.6821    2.9314   -0.1741 H   0  0  0  0  0  0  0  0  0  0  0  0
  1  2  1  0
  1  5  1  0
  1  6  1  0
  1  7  1  0
  2  4  1  0
  2  3  1  0
  2 18  1  0
  3  8  1  0
  4  9  1  0
  4 10  1  0
  4 11  1  0
 12 13  1  0
 12 15  1  0
 12 16  1  0
 12 17  1  0
 13 14  1  0
 13 19  1  0
 14 20  1  0
 14 21  1  0
 14 22  1  0
M  RAD  1  13   2
M  END
>  <reaction>  (5) 
rxn_933

>  <mol_properties>  (5) 
{"1": {"label": "*1", "atom_type": "Cs"}, "2": {"label": "*0", "atom_type": "S2s"}, "11": {"label": "*4", "atom_type": "Cs"}, "12": {"label": "*3", "atom_type": "Cs"}, "17": {"label": "*2", "atom_type": "H0"}}

>  <type>  (5) 
unop_1

>  <geom_source>  (5) 
Heuristics

$$$$

     RDKit          3D

 22 20  0  0  0  0  0  0  0  0999 V2000
    1.7899   -0.1736   -0.7373 C   0  0  0  0  0  0  0  0  0  0  0  0
    0.6618   -0.3179    0.2746 C   0  0  0  0  0  0  0  0  0  0  0  0
    0.4008   -2.0583    0.7639 S   0  0  0  0  0  0  0  0  0  0  0  0
    0.8533    0.5905    1.4811 C   0  0  0  0  0  0  0  0  0  0  0  0
    1.6256   -0.8079   -1.6077 H   0  0  0  0  0  0  0  0  0  0  0  0
    2.7460   -0.4536   -0.2884 H   0  0  0  0  0  0  0  0  0  0  0  0
    1.8686    0.8642   -1.0716 H   0  0  0  0  0  0  0  0  0  0  0  0
    1.6018   -2.2376    1.3327 H   0  0  0  0  0  0  0  0  0  0  0  0
    0.9254    1.6336    1.1624 H   0  0  0  0  0  0  0  0  0  0  0  0
    0.0252    0.4977    2.1829 H   0  0  0  0  0  0  0  0  0  0  0  0
    1.7760    0.3377    2.0090 H   0  0  0  0  0  0  0  0  0  0  0  0
   -1.4366    0.9931   -2.1221 C   0  0  0  0  0  0  0  0  0  0  0  0
   -1.4366    0.9931   -0.5988 C   0  0  0  0  0  3  0  0  0  0  0  0
   -1.4366    2.3989   -0.0121 C   0  0  0  0  0  0  0  0  0  0  0  0
   -0.5552    1.5073   -2.5127 H   0  0  0  0  0  0  0  0  0  0  0  0
   -2.3181    1.5073   -2.5127 H   0  0  0  0  0  0  0  0  0  0  0  0
   -1.4366   -0.0218   -2.5233 H   0  0  0  0  0  0  0  0  0  0  0  0
   -0.3872    0.3374   -0.1620 H   0  0  0  0  0  0  0  0  0  0  0  0
   -2.3112    0.4467   -0.2348 H   0  0  0  0  0  0  0  0  0  0  0  0
   -2.3181    2.9574   -0.3362 H   0  0  0  0  0  0  0  0  0  0  0  0
   -1.4366    2.3782    1.0790 H   0  0  0  0  0  0  0  0  0  0  0  0
   -0.5552    2.9574   -0.3362 H   0  0  0  0  0  0  0  0  0  0  0  0
  1  2  1  0
  1  5  1  0
  1  6  1  0
  1  7  1  0
  2  4  1  0
  2  3  1  0
  2 18  1  0
  3  8  1  0
  4  9  1  0
  4 10  1  0
  4 11  1  0
 12 13  1  0
 12 15  1  0
 12 16  1  0
 12 17  1  0
 13 14  1  0
 13 19  1  0
 14 20  1  0
 14 21  1  0
 14 22  1  0
M  RAD  1  13   2
M  END
>  <reaction>  (6) 
rxn_933

>  <mol_properties>  (6) 
{"1": {"label": "*1", "atom_type": "Cs"}, "2": {"label": "*0", "atom_type": "S2s"}, "11": {"label": "*4", "atom_type": "Cs"}, "12": {"label": "*3", "atom_type": "Cs"}, "17": {"label": "*2", "atom_type": "H0"}}

>  <type>  (6) 
unop_2

>  <geom_source>  (6) 
Heuristics

$$$$

     RDKit          3D

 22 20  0  0  0  0  0  0  0  0999 V2000
    0.8663    0.1248    1.8654 C   0  0  0  0  0  0  0  0  0  0  0  0
    0.4423   -0.4595    0.5251 C   0  0  0  0  0  0  0  0  0  0  0  0
    1.8784   -0.8746   -0.5245 S   0  0  0  0  0  0  0  0  0  0  0  0
   -0.5050   -1.6401    0.6874 C   0  0  0  0  0  0  0  0  0  0  0  0
    1.5209    0.9856    1.7337 H   0  0  0  0  0  0  0  0  0  0  0  0
    1.4016   -0.6218    2.4572 H   0  0  0  0  0  0  0  0  0  0  0  0
   -0.0114    0.4379    2.4368 H   0  0  0  0  0  0  0  0  0  0  0  0
    2.3913   -1.8131    0.2844 H   0  0  0  0  0  0  0  0  0  0  0  0
   -1.3922   -1.3393    1.2505 H   0  0  0  0  0  0  0  0  0  0  0  0
   -0.8221   -2.0300   -0.2792 H   0  0  0  0  0  0  0  0  0  0  0  0
   -0.0185   -2.4494    1.2373 H   0  0  0  0  0  0  0  0  0  0  0  0
   -1.6560    0.8515   -1.8716 C   0  0  0  0  0  0  0  0  0  0  0  0
   -1.6560    0.8515   -0.3483 C   0  0  0  0  0  3  0  0  0  0  0  0
   -1.6560    2.2573    0.2384 C   0  0  0  0  0  0  0  0  0  0  0  0
   -0.7746    1.3657   -2.2623 H   0  0  0  0  0  0  0  0  0  0  0  0
   -2.5375    1.3657   -2.2623 H   0  0  0  0  0  0  0  0  0  0  0  0
   -1.6560   -0.1634   -2.2728 H   0  0  0  0  0  0  0  0  0  0  0  0
   -0.6066    0.1958    0.0885 H   0  0  0  0  0  0  0  0  0  0  0  0
   -2.5306    0.3051    0.0157 H   0  0  0  0  0  0  0  0  0  0  0  0
   -2.5375    2.8158   -0.0857 H   0  0  0  0  0  0  0  0  0  0  0  0
   -1.6561    2.2366    1.3295 H   0  0  0  0  0  0  0  0  0  0  0  0
   -0.7746    2.8158   -0.0857 H   0  0  0  0  0  0  0  0  0  0  0  0
  1  2  1  0
  1  5  1  0
  1  6  1  0
  1  7  1  0
  2  4  1  0
  2  3  1  0
  2 18  1  0
  3  8  1  0
  4  9  1  0
  4 10  1  0
  4 11  1  0
 12 13  1  0
 12 15  1  0
 12 16  1  0
 12 17  1  0
 13 14  1  0
 13 19  1  0
 14 20  1  0
 14 21  1  0
 14 22  1  0
M  RAD  1  13   2
M  END
>  <reaction>  (7) 
rxn_933

>  <mol_properties>  (7) 
{"1": {"label": "*1", "atom_type": "Cs"}, "2": {"label": "*0", "atom_type": "S2s"}, "11": {"label": "*4", "atom_type": "Cs"}, "12": {"label": "*3", "atom_type": "Cs"}, "17": {"label": "*2", "atom_type": "H0"}}

>  <type>  (7) 
unop_3

>  <geom_source>  (7) 
Heuristics

$$$$

     RDKit          3D

 22 20  0  0  0  0  0  0  0  0999 V2000
    0.8170   -2.0245   -0.4520 C   0  0  0  0  0  0  0  0  0  0  0  0
    0.8800   -0.5932    0.0628 C   0  0  0  0  0  0  0  0  0  0  0  0
   -0.1755   -0.3486    1.5334 S   0  0  0  0  0  0  0  0  0  0  0  0
    2.3107   -0.1331    0.3056 C   0  0  0  0  0  0  0  0  0  0  0  0
   -0.2100   -2.3307   -0.6480 H   0  0  0  0  0  0  0  0  0  0  0  0
    1.2435   -2.7146    0.2801 H   0  0  0  0  0  0  0  0  0  0  0  0
    1.3922   -2.1202   -1.3765 H   0  0  0  0  0  0  0  0  0  0  0  0
    0.4864   -1.1934    2.3374 H   0  0  0  0  0  0  0  0  0  0  0  0
    2.8964   -0.2156   -0.6136 H   0  0  0  0  0  0  0  0  0  0  0  0
    2.3423    0.9012    0.6465 H   0  0  0  0  0  0  0  0  0  0  0  0
    2.7904   -0.7559    1.0647 H   0  0  0  0  0  0  0  0  0  0  0  0
   -1.2183    0.7177   -2.3339 C   0  0  0  0  0  0  0  0  0  0  0  0
   -1.2183    0.7177   -0.8106 C   0  0  0  0  0  3  0  0  0  0  0  0
   -1.2183    2.1235   -0.2239 C   0  0  0  0  0  0  0  0  0  0  0  0
   -0.3369    1.2320   -2.7245 H   0  0  0  0  0  0  0  0  0  0  0  0
   -2.0998    1.2320   -2.7245 H   0  0  0  0  0  0  0  0  0  0  0  0
   -1.2183   -0.2972   -2.7351 H   0  0  0  0  0  0  0  0  0  0  0  0
   -0.1689    0.0621   -0.3738 H   0  0  0  0  0  0  0  0  0  0  0  0
   -2.0929    0.1713   -0.4466 H   0  0  0  0  0  0  0  0  0  0  0  0
   -2.0998    2.6821   -0.5480 H   0  0  0  0  0  0  0  0  0  0  0  0
   -1.2183    2.1028    0.8673 H   0  0  0  0  0  0  0  0  0  0  0  0
   -0.3369    2.6821   -0.5480 H   0  0  0  0  0  0  0  0  0  0  0  0
  1  2  1  0
  1  5  1  0
  1  6  1  0
  1  7  1  0
  2  4  1  0
  2  3  1  0
  2 18  1  0
  3  8  1  0
  4  9  1  0
  4 10  1  0
  4 11  1  0
 12 13  1  0
 12 15  1  0
 12 16  1  0
 12 17  1  0
 13 14  1  0
 13 19  1  0
 14 20  1  0
 14 21  1  0
 14 22  1  0
M  RAD  1  13   2
M  END
>  <reaction>  (8) 
rxn_933

>  <mol_properties>  (8) 
{"1": {"label": "*1", "atom_type": "Cs"}, "2": {"label": "*0", "atom_type": "S2s"}, "11": {"label": "*4", "atom_type": "Cs"}, "12": {"label": "*3", "atom_type": "Cs"}, "17": {"label": "*2", "atom_type": "H0"}}

>  <type>  (8) 
unop_4

>  <geom_source>  (8) 
Heuristics

$$$$

     RDKit          3D

 22 20  0  0  0  0  0  0  0  0999 V2000
    0.3765   -0.7325    2.0196 C   0  0  0  0  0  0  0  0  0  0  0  0
    0.3886   -0.7400    0.4973 C   0  0  0  0  0  0  0  0  0  0  0  0
    1.7732    0.2399   -0.1802 S   0  0  0  0  0  0  0  0  0  0  0  0
    0.3591   -2.1524   -0.0699 C   0  0  0  0  0  0  0  0  0  0  0  0
    0.3693    0.2841    2.4112 H   0  0  0  0  0  0  0  0  0  0  0  0
    1.2598   -1.2418    2.4127 H   0  0  0  0  0  0  0  0  0  0  0  0
   -0.5064   -1.2570    2.3940 H   0  0  0  0  0  0  0  0  0  0  0  0
    2.7571   -0.5174    0.3263 H   0  0  0  0  0  0  0  0  0  0  0  0
   -0.5239   -2.6869    0.2899 H   0  0  0  0  0  0  0  0  0  0  0  0
    0.3396   -2.1421   -1.1592 H   0  0  0  0  0  0  0  0  0  0  0  0
    1.2418   -2.7123    0.2488 H   0  0  0  0  0  0  0  0  0  0  0  0
   -1.7098    0.5709   -1.8994 C   0  0  0  0  0  0  0  0  0  0  0  0
   -1.7098    0.5709   -0.3761 C   0  0  0  0  0  3  0  0  0  0  0  0
   -1.7098    1.9767    0.2106 C   0  0  0  0  0  0  0  0  0  0  0  0
   -0.8283    1.0852   -2.2901 H   0  0  0  0  0  0  0  0  0  0  0  0
   -2.5912    1.0852   -2.2901 H   0  0  0  0  0  0  0  0  0  0  0  0
   -1.7098   -0.4440   -2.3006 H   0  0  0  0  0  0  0  0  0  0  0  0
   -0.6603   -0.0847    0.0607 H   0  0  0  0  0  0  0  0  0  0  0  0
   -2.5843    0.0245   -0.0121 H   0  0  0  0  0  0  0  0  0  0  0  0
   -2.5912    2.5353   -0.1135 H   0  0  0  0  0  0  0  0  0  0  0  0
   -1.7098    1.9560    1.3017 H   0  0  0  0  0  0  0  0  0  0  0  0
   -0.8283    2.5353   -0.1135 H   0  0  0  0  0  0  0  0  0  0  0  0
  1  2  1  0
  1  5  1  0
  1  6  1  0
  1  7  1  0
  2  4  1  0
  2  3  1  0
  2 18  1  0
  3  8  1  0
  4  9  1  0
  4 10  1  0
  4 11  1  0
 12 13  1  0
 12 15  1  0
 12 16  1  0
 12 17  1  0
 13 14  1  0
 13 19  1  0
 14 20  1  0
 14 21  1  0
 14 22  1  0
M  RAD  1  13   2
M  END
>  <reaction>  (9) 
rxn_933

>  <mol_properties>  (9) 
{"1": {"label": "*1", "atom_type": "Cs"}, "2": {"label": "*0", "atom_type": "S2s"}, "11": {"label": "*4", "atom_type": "Cs"}, "12": {"label": "*3", "atom_type": "Cs"}, "17": {"label": "*2", "atom_type": "H0"}}

>  <type>  (9) 
unop_5

>  <geom_source>  (9) 
Heuristics

$$$$

     RDKit          3D

 22 20  0  0  0  0  0  0  0  0999 V2000
    0.4538   -2.2451    0.2269 C   0  0  0  0  0  0  0  0  0  0  0  0
    0.8224   -0.7772    0.0627 C   0  0  0  0  0  0  0  0  0  0  0  0
    0.0864    0.2629    1.3715 S   0  0  0  0  0  0  0  0  0  0  0  0
    2.3267   -0.5722   -0.0495 C   0  0  0  0  0  0  0  0  0  0  0  0
   -0.6261   -2.3797    0.2775 H   0  0  0  0  0  0  0  0  0  0  0  0
    0.8900   -2.6499    1.1434 H   0  0  0  0  0  0  0  0  0  0  0  0
    0.8393   -2.8287   -0.6131 H   0  0  0  0  0  0  0  0  0  0  0  0
    0.7405   -0.2998    2.3981 H   0  0  0  0  0  0  0  0  0  0  0  0
    2.7252   -1.1441   -0.8914 H   0  0  0  0  0  0  0  0  0  0  0  0
    2.5740    0.4788   -0.1948 H   0  0  0  0  0  0  0  0  0  0  0  0
    2.8295   -0.9174    0.8572 H   0  0  0  0  0  0  0  0  0  0  0  0
   -1.2760    0.5337   -2.3340 C   0  0  0  0  0  0  0  0  0  0  0  0
   -1.2760    0.5337   -0.8107 C   0  0  0  0  0  3  0  0  0  0  0  0
   -1.2760    1.9395   -0.2240 C   0  0  0  0  0  0  0  0  0  0  0  0
   -0.3946    1.0480   -2.7247 H   0  0  0  0  0  0  0  0  0  0  0  0
   -2.1575    1.0480   -2.7247 H   0  0  0  0  0  0  0  0  0  0  0  0
   -1.2760   -0.4812   -2.7352 H   0  0  0  0  0  0  0  0  0  0  0  0
   -0.2266   -0.1219   -0.3739 H   0  0  0  0  0  0  0  0  0  0  0  0
   -2.1505   -0.0126   -0.4467 H   0  0  0  0  0  0  0  0  0  0  0  0
   -2.1575    2.4981   -0.5481 H   0  0  0  0  0  0  0  0  0  0  0  0
   -1.2760    1.9189    0.8671 H   0  0  0  0  0  0  0  0  0  0  0  0
   -0.3946    2.4981   -0.5481 H   0  0  0  0  0  0  0  0  0  0  0  0
  1  2  1  0
  1  5  1  0
  1  6  1  0
  1  7  1  0
  2  4  1  0
  2  3  1  0
  2 18  1  0
  3  8  1  0
  4  9  1  0
  4 10  1  0
  4 11  1  0
 12 13  1  0
 12 15  1  0
 12 16  1  0
 12 17  1  0
 13 14  1  0
 13 19  1  0
 14 20  1  0
 14 21  1  0
 14 22  1  0
M  RAD  1  13   2
M  END
>  <reaction>  (10) 
rxn_933

>  <mol_properties>  (10) 
{"1": {"label": "*1", "atom_type": "Cs"}, "2": {"label": "*0", "atom_type": "S2s"}, "11": {"label": "*4", "atom_type": "Cs"}, "12": {"label": "*3", "atom_type": "Cs"}, "17": {"label": "*2", "atom_type": "H0"}}

>  <type>  (10) 
unop_6

>  <geom_source>  (10) 
Heuristics

$$$$

     RDKit          3D

 22 20  0  0  0  0  0  0  0  0999 V2000
    0.2287   -2.0958    0.9896 C   0  0  0  0  0  0  0  0  0  0  0  0
    0.6984   -0.9185    0.1463 C   0  0  0  0  0  0  0  0  0  0  0  0
    0.4920    0.6728    1.0190 S   0  0  0  0  0  0  0  0  0  0  0  0
    2.1202   -1.1086   -0.3634 C   0  0  0  0  0  0  0  0  0  0  0  0
   -0.7991   -1.9593    1.3238 H   0  0  0  0  0  0  0  0  0  0  0  0
    0.8610   -2.2109    1.8734 H   0  0  0  0  0  0  0  0  0  0  0  0
    0.2881   -3.0224    0.4129 H   0  0  0  0  0  0  0  0  0  0  0  0
    1.3452    0.4089    2.0193 H   0  0  0  0  0  0  0  0  0  0  0  0
    2.1928   -2.0283   -0.9495 H   0  0  0  0  0  0  0  0  0  0  0  0
    2.4328   -0.2725   -0.9880 H   0  0  0  0  0  0  0  0  0  0  0  0
    2.8198   -1.1886    0.4723 H   0  0  0  0  0  0  0  0  0  0  0  0
   -1.4000    0.3924   -2.2504 C   0  0  0  0  0  0  0  0  0  0  0  0
   -1.4000    0.3924   -0.7271 C   0  0  0  0  0  3  0  0  0  0  0  0
   -1.4000    1.7982   -0.1404 C   0  0  0  0  0  0  0  0  0  0  0  0
   -0.5185    0.9067   -2.6410 H   0  0  0  0  0  0  0  0  0  0  0  0
   -2.2815    0.9067   -2.6410 H   0  0  0  0  0  0  0  0  0  0  0  0
   -1.4000   -0.6225   -2.6516 H   0  0  0  0  0  0  0  0  0  0  0  0
   -0.3506   -0.2632   -0.2903 H   0  0  0  0  0  0  0  0  0  0  0  0
   -2.2745   -0.1540   -0.3631 H   0  0  0  0  0  0  0  0  0  0  0  0
   -2.2815    2.3568   -0.4645 H   0  0  0  0  0  0  0  0  0  0  0  0
   -1.4000    1.7775    0.9507 H   0  0  0  0  0  0  0  0  0  0  0  0
   -0.5185    2.3568   -0.4645 H   0  0  0  0  0  0  0  0  0  0  0  0
  1  2  1  0
  1  5  1  0
  1  6  1  0
  1  7  1  0
  2  4  1  0
  2  3  1  0
  2 18  1  0
  3  8  1  0
  4  9  1  0
  4 10  1  0
  4 11  1  0
 12 13  1  0
 12 15  1  0
 12 16  1  0
 12 17  1  0
 13 14  1  0
 13 19  1  0
 14 20  1  0
 14 21  1  0
 14 22  1  0
M  RAD  1  13   2
M  END
>  <reaction>  (11) 
rxn_933

>  <mol_properties>  (11) 
{"1": {"label": "*1", "atom_type": "Cs"}, "2": {"label": "*0", "atom_type": "S2s"}, "11": {"label": "*4", "atom_type": "Cs"}, "12": {"label": "*3", "atom_type": "Cs"}, "17": {"label": "*2", "atom_type": "H0"}}

>  <type>  (11) 
unop_7

>  <geom_source>  (11) 
Heuristics

$$$$

     RDKit          3D

 22 20  0  0  0  0  0  0  0  0999 V2000
    1.7389    0.6503    0.5179 C   0  0  0  0  0  0  0  0  0  0  0  0
    0.5813   -0.3247    0.3537 C   0  0  0  0  0  0  0  0  0  0  0  0
    1.1603   -2.0170   -0.0167 S   0  0  0  0  0  0  0  0  0  0  0  0
   -0.3675   -0.2949    1.5439 C   0  0  0  0  0  0  0  0  0  0  0  0
    2.3937    0.6389   -0.3527 H   0  0  0  0  0  0  0  0  0  0  0  0
    2.3362    0.3921    1.3958 H   0  0  0  0  0  0  0  0  0  0  0  0
    1.3614    1.6666    0.6574 H   0  0  0  0  0  0  0  0  0  0  0  0
    1.8108   -2.2113    1.1397 H   0  0  0  0  0  0  0  0  0  0  0  0
   -0.7597    0.7148    1.6905 H   0  0  0  0  0  0  0  0  0  0  0  0
   -1.2054   -0.9762    1.4004 H   0  0  0  0  0  0  0  0  0  0  0  0
    0.1550   -0.5867    2.4583 H   0  0  0  0  0  0  0  0  0  0  0  0
   -1.5171    0.9862   -2.0430 C   0  0  0  0  0  0  0  0  0  0  0  0
   -1.5171    0.9862   -0.5197 C   0  0  0  0  0  3  0  0  0  0  0  0
   -1.5171    2.3921    0.0671 C   0  0  0  0  0  0  0  0  0  0  0  0
   -0.6356    1.5005   -2.4336 H   0  0  0  0  0  0  0  0  0  0  0  0
   -2.3985    1.5005   -2.4336 H   0  0  0  0  0  0  0  0  0  0  0  0
   -1.5171   -0.0287   -2.4442 H   0  0  0  0  0  0  0  0  0  0  0  0
   -0.4676    0.3306   -0.0829 H   0  0  0  0  0  0  0  0  0  0  0  0
   -2.3916    0.4399   -0.1557 H   0  0  0  0  0  0  0  0  0  0  0  0
   -2.3985    2.9506   -0.2571 H   0  0  0  0  0  0  0  0  0  0  0  0
   -1.5171    2.3714    1.1582 H   0  0  0  0  0  0  0  0  0  0  0  0
   -0.6356    2.9506   -0.2571 H   0  0  0  0  0  0  0  0  0  0  0  0
  1  2  1  0
  1  5  1  0
  1  6  1  0
  1  7  1  0
  2  4  1  0
  2  3  1  0
  2 18  1  0
  3  8  1  0
  4  9  1  0
  4 10  1  0
  4 11  1  0
 12 13  1  0
 12 15  1  0
 12 16  1  0
 12 17  1  0
 13 14  1  0
 13 19  1  0
 14 20  1  0
 14 21  1  0
 14 22  1  0
M  RAD  1  13   2
M  END
>  <reaction>  (12) 
rxn_933

>  <mol_properties>  (12) 
{"1": {"label": "*1", "atom_type": "Cs"}, "2": {"label": "*0", "atom_type": "S2s"}, "11": {"label": "*4", "atom_type": "Cs"}, "12": {"label": "*3", "atom_type": "Cs"}, "17": {"label": "*2", "atom_type": "H0"}}

>  <type>  (12) 
unop_8

>  <geom_source>  (12) 
Heuristics

$$$$

     RDKit          3D

 22 20  0  0  0  0  0  0  0  0999 V2000
    1.2198   -1.5032   -0.8821 C   0  0  0  0  0  0  0  0  0  0  0  0
    0.8548   -0.4260    0.1298 C   0  0  0  0  0  0  0  0  0  0  0  0
   -0.2251   -1.0705    1.4546 S   0  0  0  0  0  0  0  0  0  0  0  0
    2.0841    0.2771    0.6884 C   0  0  0  0  0  0  0  0  0  0  0  0
    0.3302   -1.9782   -1.2942 H   0  0  0  0  0  0  0  0  0  0  0  0
    1.8326   -2.2774   -0.4139 H   0  0  0  0  0  0  0  0  0  0  0  0
    1.7971   -1.0712   -1.7037 H   0  0  0  0  0  0  0  0  0  0  0  0
    0.6584   -1.9442    1.9588 H   0  0  0  0  0  0  0  0  0  0  0  0
    2.6673    0.7215   -0.1222 H   0  0  0  0  0  0  0  0  0  0  0  0
    1.8069    1.0637    1.3893 H   0  0  0  0  0  0  0  0  0  0  0  0
    2.7276   -0.4338    1.2124 H   0  0  0  0  0  0  0  0  0  0  0  0
   -1.2436    0.8849   -2.2669 C   0  0  0  0  0  0  0  0  0  0  0  0
   -1.2436    0.8849   -0.7436 C   0  0  0  0  0  3  0  0  0  0  0  0
   -1.2436    2.2907   -0.1569 C   0  0  0  0  0  0  0  0  0  0  0  0
   -0.3622    1.3992   -2.6576 H   0  0  0  0  0  0  0  0  0  0  0  0
   -2.1251    1.3992   -2.6576 H   0  0  0  0  0  0  0  0  0  0  0  0
   -1.2436   -0.1300   -2.6681 H   0  0  0  0  0  0  0  0  0  0  0  0
   -0.1942    0.2293   -0.3068 H   0  0  0  0  0  0  0  0  0  0  0  0
   -2.1181    0.3385   -0.3796 H   0  0  0  0  0  0  0  0  0  0  0  0
   -2.1251    2.8493   -0.4810 H   0  0  0  0  0  0  0  0  0  0  0  0
   -1.2436    2.2700    0.9342 H   0  0  0  0  0  0  0  0  0  0  0  0
   -0.3622    2.8493   -0.4810 H   0  0  0  0  0  0  0  0  0  0  0  0
  1  2  1  0
  1  5  1  0
  1  6  1  0
  1  7  1  0
  2  4  1  0
  2  3  1  0
  2 18  1  0
  3  8  1  0
  4  9  1  0
  4 10  1  0
  4 11  1  0
 12 13  1  0
 12 15  1  0
 12 16  1  0
 12 17  1  0
 13 14  1  0
 13 19  1  0
 14 20  1  0
 14 21  1  0
 14 22  1  0
M  RAD  1  13   2
M  END
>  <reaction>  (13) 
rxn_933

>  <mol_properties>  (13) 
{"1": {"label": "*1", "atom_type": "Cs"}, "2": {"label": "*0", "atom_type": "S2s"}, "11": {"label": "*4", "atom_type": "Cs"}, "12": {"label": "*3", "atom_type": "Cs"}, "17": {"label": "*2", "atom_type": "H0"}}

>  <type>  (13) 
unop_9

>  <geom_source>  (13) 
Heuristics

$$$$

     RDKit          3D

 22 20  0  0  0  0  0  0  0  0999 V2000
    1.8675    0.3588   -0.2084 C   0  0  0  0  0  0  0  0  0  0  0  0
    0.6088   -0.3255    0.3065 C   0  0  0  0  0  0  0  0  0  0  0  0
    0.7958   -2.1414    0.3712 S   0  0  0  0  0  0  0  0  0  0  0  0
    0.1482    0.2476    1.6395 C   0  0  0  0  0  0  0  0  0  0  0  0
    2.1693   -0.0416   -1.1755 H   0  0  0  0  0  0  0  0  0  0  0  0
    2.6947    0.2170    0.4914 H   0  0  0  0  0  0  0  0  0  0  0  0
    1.6985    1.4337   -0.3130 H   0  0  0  0  0  0  0  0  0  0  0  0
    1.7780   -2.1602    1.2840 H   0  0  0  0  0  0  0  0  0  0  0  0
   -0.0328    1.3217    1.5478 H   0  0  0  0  0  0  0  0  0  0  0  0
   -0.7683   -0.2316    1.9818 H   0  0  0  0  0  0  0  0  0  0  0  0
    0.9143    0.1018    2.4049 H   0  0  0  0  0  0  0  0  0  0  0  0
   -1.4896    0.9854   -2.0902 C   0  0  0  0  0  0  0  0  0  0  0  0
   -1.4896    0.9854   -0.5669 C   0  0  0  0  0  3  0  0  0  0  0  0
   -1.4896    2.3912    0.0198 C   0  0  0  0  0  0  0  0  0  0  0  0
   -0.6081    1.4997   -2.4809 H   0  0  0  0  0  0  0  0  0  0  0  0
   -2.3710    1.4997   -2.4809 H   0  0  0  0  0  0  0  0  0  0  0  0
   -1.4896   -0.0295   -2.4914 H   0  0  0  0  0  0  0  0  0  0  0  0
   -0.4401    0.3298   -0.1301 H   0  0  0  0  0  0  0  0  0  0  0  0
   -2.3641    0.4391   -0.2029 H   0  0  0  0  0  0  0  0  0  0  0  0
   -2.3710    2.9498   -0.3043 H   0  0  0  0  0  0  0  0  0  0  0  0
   -1.4896    2.3705    1.1109 H   0  0  0  0  0  0  0  0  0  0  0  0
   -0.6081    2.9498   -0.3043 H   0  0  0  0  0  0  0  0  0  0  0  0
  1  2  1  0
  1  5  1  0
  1  6  1  0
  1  7  1  0
  2  4  1  0
  2  3  1  0
  2 18  1  0
  3  8  1  0
  4  9  1  0
  4 10  1  0
  4 11  1  0
 12 13  1  0
 12 15  1  0
 12 16  1  0
 12 17  1  0
 13 14  1  0
 13 19  1  0
 14 20  1  0
 14 21  1  0
 14 22  1  0
M  RAD  1  13   2
M  END
>  <reaction>  (14) 
rxn_933

>  <mol_properties>  (14) 
{"1": {"label": "*1", "atom_type": "Cs"}, "2": {"label": "*0", "atom_type": "S2s"}, "11": {"label": "*4", "atom_type": "Cs"}, "12": {"label": "*3", "atom_type": "Cs"}, "17": {"label": "*2", "atom_type": "H0"}}

>  <type>  (14) 
unop_10

>  <geom_source>  (14) 
Heuristics

$$$$

     RDKit          3D

 22 20  0  0  0  0  0  0  0  0999 V2000
    0.1863   -1.5807    1.6512 C   0  0  0  0  0  0  0  0  0  0  0  0
    0.5254   -0.9435    0.3109 C   0  0  0  0  0  0  0  0  0  0  0  0
    1.0781    0.7875    0.4973 S   0  0  0  0  0  0  0  0  0  0  0  0
    1.5202   -1.7765   -0.4854 C   0  0  0  0  0  0  0  0  0  0  0  0
   -0.5473   -0.9888    2.1975 H   0  0  0  0  0  0  0  0  0  0  0  0
    1.0816   -1.6690    2.2714 H   0  0  0  0  0  0  0  0  0  0  0  0
   -0.2174   -2.5854    1.5017 H   0  0  0  0  0  0  0  0  0  0  0  0
    2.1812    0.5185    1.2106 H   0  0  0  0  0  0  0  0  0  0  0  0
    1.1259   -2.7826   -0.6498 H   0  0  0  0  0  0  0  0  0  0  0  0
    1.7320   -1.3234   -1.4532 H   0  0  0  0  0  0  0  0  0  0  0  0
    2.4630   -1.8718    0.0588 H   0  0  0  0  0  0  0  0  0  0  0  0
   -1.5729    0.3674   -2.0859 C   0  0  0  0  0  0  0  0  0  0  0  0
   -1.5729    0.3674   -0.5625 C   0  0  0  0  0  3  0  0  0  0  0  0
   -1.5729    1.7732    0.0242 C   0  0  0  0  0  0  0  0  0  0  0  0
   -0.6915    0.8817   -2.4765 H   0  0  0  0  0  0  0  0  0  0  0  0
   -2.4544    0.8817   -2.4765 H   0  0  0  0  0  0  0  0  0  0  0  0
   -1.5729   -0.6475   -2.4870 H   0  0  0  0  0  0  0  0  0  0  0  0
   -0.5235   -0.2882   -0.1257 H   0  0  0  0  0  0  0  0  0  0  0  0
   -2.4475   -0.1789   -0.1985 H   0  0  0  0  0  0  0  0  0  0  0  0
   -2.4544    2.3318   -0.2999 H   0  0  0  0  0  0  0  0  0  0  0  0
   -1.5729    1.7526    1.1153 H   0  0  0  0  0  0  0  0  0  0  0  0
   -0.6915    2.3318   -0.2999 H   0  0  0  0  0  0  0  0  0  0  0  0
  1  2  1  0
  1  5  1  0
  1  6  1  0
  1  7  1  0
  2  4  1  0
  2  3  1  0
  2 18  1  0
  3  8  1  0
  4  9  1  0
  4 10  1  0
  4 11  1  0
 12 13  1  0
 12 15  1  0
 12 16  1  0
 12 17  1  0
 13 14  1  0
 13 19  1  0
 14 20  1  0
 14 21  1  0
 14 22  1  0
M  RAD  1  13   2
M  END
>  <reaction>  (15) 
rxn_933

>  <mol_properties>  (15) 
{"1": {"label": "*1", "atom_type": "Cs"}, "2": {"label": "*0", "atom_type": "S2s"}, "11": {"label": "*4", "atom_type": "Cs"}, "12": {"label": "*3", "atom_type": "Cs"}, "17": {"label": "*2", "atom_type": "H0"}}

>  <type>  (15) 
unop_11

>  <geom_source>  (15) 
Heuristics

$$$$

     RDKit          3D

 22 20  0  0  0  0  0  0  0  0999 V2000
    1.5609   -0.8329   -0.9767 C   0  0  0  0  0  0  0  0  0  0  0  0
    0.7598   -0.3324    0.2172 C   0  0  0  0  0  0  0  0  0  0  0  0
    0.0025   -1.7043    1.1558 S   0  0  0  0  0  0  0  0  0  0  0  0
    1.5783    0.5871    1.1129 C   0  0  0  0  0  0  0  0  0  0  0  0
    0.9550   -1.4664   -1.6235 H   0  0  0  0  0  0  0  0  0  0  0  0
    2.4238   -1.4144   -0.6430 H   0  0  0  0  0  0  0  0  0  0  0  0
    1.9330    0.0107   -1.5637 H   0  0  0  0  0  0  0  0  0  0  0  0
    1.1521   -2.2798    1.5373 H   0  0  0  0  0  0  0  0  0  0  0  0
    1.9505    1.4406    0.5404 H   0  0  0  0  0  0  0  0  0  0  0  0
    0.9847    0.9598    1.9469 H   0  0  0  0  0  0  0  0  0  0  0  0
    2.4418    0.0560    1.5209 H   0  0  0  0  0  0  0  0  0  0  0  0
   -1.3385    0.9785   -2.1795 C   0  0  0  0  0  0  0  0  0  0  0  0
   -1.3385    0.9785   -0.6562 C   0  0  0  0  0  3  0  0  0  0  0  0
   -1.3385    2.3843   -0.0695 C   0  0  0  0  0  0  0  0  0  0  0  0
   -0.4571    1.4928   -2.5702 H   0  0  0  0  0  0  0  0  0  0  0  0
   -2.2200    1.4928   -2.5702 H   0  0  0  0  0  0  0  0  0  0  0  0
   -1.3385   -0.0364   -2.5807 H   0  0  0  0  0  0  0  0  0  0  0  0
   -0.2891    0.3229   -0.2194 H   0  0  0  0  0  0  0  0  0  0  0  0
   -2.2131    0.4322   -0.2922 H   0  0  0  0  0  0  0  0  0  0  0  0
   -2.2200    2.9429   -0.3936 H   0  0  0  0  0  0  0  0  0  0  0  0
   -1.3385    2.3636    1.0216 H   0  0  0  0  0  0  0  0  0  0  0  0
   -0.4571    2.9429   -0.3936 H   0  0  0  0  0  0  0  0  0  0  0  0
  1  2  1  0
  1  5  1  0
  1  6  1  0
  1  7  1  0
  2  4  1  0
  2  3  1  0
  2 18  1  0
  3  8  1  0
  4  9  1  0
  4 10  1  0
  4 11  1  0
 12 13  1  0
 12 15  1  0
 12 16  1  0
 12 17  1  0
 13 14  1  0
 13 19  1  0
 14 20  1  0
 14 21  1  0
 14 22  1  0
M  RAD  1  13   2
M  END
>  <reaction>  (16) 
rxn_933

>  <mol_properties>  (16) 
{"1": {"label": "*1", "atom_type": "Cs"}, "2": {"label": "*0", "atom_type": "S2s"}, "11": {"label": "*4", "atom_type": "Cs"}, "12": {"label": "*3", "atom_type": "Cs"}, "17": {"label": "*2", "atom_type": "H0"}}

>  <type>  (16) 
unop_12

>  <geom_source>  (16) 
Heuristics

$$$$

     RDKit          3D

 22 20  0  0  0  0  0  0  0  0999 V2000
   -1.3454    0.6192    2.0380 S   0  0  0  0  0  0  0  0  0  0  0  0
   -1.2573    0.0092    0.3224 C   0  0  0  0  0  3  0  0  0  0  0  0
   -1.6758   -1.4585    0.2765 C   0  0  0  0  0  0  0  0  0  0  0  0
   -2.1459    0.8604   -0.5833 C   0  0  0  0  0  0  0  0  0  0  0  0
    2.0844   -1.0944    0.3689 C   0  0  0  0  0  0  0  0  0  0  0  0
    1.8811    1.0057   -1.0112 C   0  0  0  0  0  0  0  0  0  0  0  0
    1.3193    0.2062    0.1579 C   0  0  0  0  0  0  0  0  0  0  0  0
    0.0241    0.1065   -0.1060 H   0  0  0  0  0  0  0  0  0  0  0  0
   -2.7228   -1.5787    0.6287 H   0  0  0  0  0  0  0  0  0  0  0  0
   -1.5948   -1.8455   -0.7613 H   0  0  0  0  0  0  0  0  0  0  0  0
   -1.0054   -2.0605    0.9255 H   0  0  0  0  0  0  0  0  0  0  0  0
   -3.2045    0.8136   -0.2489 H   0  0  0  0  0  0  0  0  0  0  0  0
   -1.8066    1.9173   -0.5600 H   0  0  0  0  0  0  0  0  0  0  0  0
   -2.0797    0.4981   -1.6311 H   0  0  0  0  0  0  0  0  0  0  0  0
    1.6338   -1.6516    1.2163 H   0  0  0  0  0  0  0  0  0  0  0  0
    3.1494   -0.8830    0.6036 H   0  0  0  0  0  0  0  0  0  0  0  0
    2.0241   -1.7258   -0.5426 H   0  0  0  0  0  0  0  0  0  0  0  0
    1.8172    0.4111   -1.9469 H   0  0  0  0  0  0  0  0  0  0  0  0
    2.9400    1.2808   -0.8184 H   0  0  0  0  0  0  0  0  0  0  0  0
    1.2866    1.9340   -1.1400 H   0  0  0  0  0  0  0  0  0  0  0  0
    1.3526    0.8185    1.0847 H   0  0  0  0  0  0  0  0  0  0  0  0
   -0.6744    1.8173    1.7273 H   0  0  0  0  0  0  0  0  0  0  0  0
  1  2  1  0
  1 22  1  0
  2  3  1  0
  2  4  1  0
  3  9  1  0
  3 10  1  0
  3 11  1  0
  4 12  1  0
  4 13  1  0
  4 14  1  0
  5  7  1  0
  5 15  1  0
  5 16  1  0
  5 17  1  0
  6  7  1  0
  6 18  1  0
  6 19  1  0
  6 20  1  0
  7  8  1  0
  7 21  1  0
M  RAD  1   2   2
M  END
>  <reaction>  (17) 
rxn_933

>  <mol_properties>  (17) 
{"1": {"label": "*1", "atom_type": "Cs"}, "2": {"label": "*0", "atom_type": "S2s"}, "11": {"label": "*4", "atom_type": "Cs"}, "12": {"label": "*3", "atom_type": "Cs"}, "17": {"label": "*2", "atom_type": "H0"}}

>  <type>  (17) 
unop_13

>  <geom_source>  (17) 
AutoTST

$$$$
