
     RDKit          3D

  9  8  0  0  0  0  0  0  0  0999 V2000
   -2.1022   -0.6873    0.3932 C   0  0  0  0  0  0  0  0  0  0  0  0
   -1.2072   -0.1086   -0.1482 C   0  0  0  0  0  0  0  0  0  0  0  0
   -0.1242    0.6105   -0.8193 C   0  0  0  0  0  0  0  0  0  0  0  0
    1.2067    0.1106   -0.4741 C   0  0  0  0  0  0  0  0  0  0  0  0
    2.3005   -0.2875   -0.2012 C   0  0  0  0  0  0  0  0  0  0  0  0
   -2.8942   -1.2059    0.8778 H   0  0  0  0  0  0  0  0  0  0  0  0
   -0.1862    1.6723   -0.5649 H   0  0  0  0  0  0  0  0  0  0  0  0
   -0.2641    0.5418   -1.9017 H   0  0  0  0  0  0  0  0  0  0  0  0
    3.2709   -0.6459    0.0455 H   0  0  0  0  0  0  0  0  0  0  0  0
  1  2  3  0
  1  6  1  0
  2  3  1  0
  3  4  1  0
  3  7  1  0
  3  8  1  0
  4  5  3  0
  5  9  1  0
M  END
>  <reaction>  (1) 
rxn_1354

>  <mol_properties>  (1) 
{"2": {"label": "donator", "atom_type": "Cs"}, "6": {"label": "d_hydrogen", "atom_type": "H0"}}

>  <type>  (1) 
r1h

$$$$

     RDKit          3D

 15 14  0  0  0  0  0  0  0  0999 V2000
    2.4381    0.5770   -0.2356 C   0  0  0  0  0  0  0  0  0  0  0  0
    1.4430   -0.3367   -0.1409 C   0  0  0  0  0  0  0  0  0  0  0  0
    0.0521   -0.0957   -0.0045 C   0  0  0  0  0  3  0  0  0  0  0  0
   -0.5167    1.2867    0.0548 C   0  0  0  0  0  0  0  0  0  0  0  0
   -0.8226   -1.2147    0.0778 C   0  0  0  0  0  0  0  0  0  0  0  0
   -2.1666   -1.1669    0.2092 C   0  0  0  0  0  0  0  0  0  0  0  0
    3.4666    0.2585   -0.3369 H   0  0  0  0  0  0  0  0  0  0  0  0
    2.2594    1.6438   -0.2152 H   0  0  0  0  0  0  0  0  0  0  0  0
    1.7306   -1.3845   -0.1719 H   0  0  0  0  0  0  0  0  0  0  0  0
   -1.2300    1.4469   -0.7583 H   0  0  0  0  0  0  0  0  0  0  0  0
    0.2481    2.0557   -0.0178 H   0  0  0  0  0  0  0  0  0  0  0  0
   -1.0592    1.4421    0.9914 H   0  0  0  0  0  0  0  0  0  0  0  0
   -0.3519   -2.1929    0.0292 H   0  0  0  0  0  0  0  0  0  0  0  0
   -2.7080   -0.2310    0.2646 H   0  0  0  0  0  0  0  0  0  0  0  0
   -2.7513   -2.0751    0.2638 H   0  0  0  0  0  0  0  0  0  0  0  0
  1  2  2  3
  1  7  1  0
  1  8  1  0
  2  3  1  0
  2  9  1  0
  3  4  1  0
  3  5  1  0
  4 10  1  0
  4 11  1  0
  4 12  1  0
  5  6  2  3
  5 13  1  0
  6 14  1  0
  6 15  1  0
M  RAD  1   3   2
M  END
>  <reaction>  (2) 
rxn_1354

>  <mol_properties>  (2) 
{"2": {"label": "acceptor", "atom_type": "Cs"}}

>  <type>  (2) 
r2

$$$$

     RDKit          3D

 16 15  0  0  0  0  0  0  0  0999 V2000
    1.7961   -0.3807    1.6176 C   0  0  0  0  0  0  0  0  0  0  0  0
    0.8562   -0.8708    0.8256 C   0  0  0  0  0  0  0  0  0  0  0  0
    0.0895   -0.0826   -0.2048 C   0  0  0  0  0  0  0  0  0  0  0  0
   -1.4061   -0.1111    0.0982 C   0  0  0  0  0  0  0  0  0  0  0  0
    0.4476   -0.5902   -1.5797 C   0  0  0  0  0  0  0  0  0  0  0  0
   -0.3793   -1.1113   -2.4728 C   0  0  0  0  0  0  0  0  0  0  0  0
    2.3110   -1.0032    2.3386 H   0  0  0  0  0  0  0  0  0  0  0  0
    2.0846    0.6643    1.5737 H   0  0  0  0  0  0  0  0  0  0  0  0
    0.5921   -1.9241    0.8925 H   0  0  0  0  0  0  0  0  0  0  0  0
    0.4358    0.9557   -0.1462 H   0  0  0  0  0  0  0  0  0  0  0  0
   -1.5968    0.3080    1.0865 H   0  0  0  0  0  0  0  0  0  0  0  0
   -1.9674    0.4693   -0.6359 H   0  0  0  0  0  0  0  0  0  0  0  0
   -1.7902   -1.1338    0.0883 H   0  0  0  0  0  0  0  0  0  0  0  0
    1.5049   -0.5197   -1.8214 H   0  0  0  0  0  0  0  0  0  0  0  0
   -1.4421   -1.2131   -2.2889 H   0  0  0  0  0  0  0  0  0  0  0  0
   -0.0162   -1.4558   -3.4328 H   0  0  0  0  0  0  0  0  0  0  0  0
  1  2  2  3
  1  7  1  0
  1  8  1  0
  2  3  1  0
  2  9  1  0
  3  4  1  0
  3  5  1  0
  3 10  1  0
  4 11  1  0
  4 12  1  0
  4 13  1  0
  5  6  2  3
  5 14  1  0
  6 15  1  0
  6 16  1  0
M  END
>  <reaction>  (3) 
rxn_1354

>  <mol_properties>  (3) 
{"0": {"label": "a_hydrogen", "atom_type": "H0"}, "3": {"label": "acceptor", "atom_type": "Cs"}}

>  <type>  (3) 
r2h

$$$$

     RDKit          3D

 24 22  0  0  0  0  0  0  0  0999 V2000
   -3.0758    0.4582   -0.2068 C   0  0  0  0  0  0  0  0  0  0  0  0
   -2.0809    0.0275   -0.7251 C   0  0  0  0  0  0  0  0  0  0  0  0
   -0.8627   -0.4360   -1.2976 C   0  0  0  0  0  3  0  0  0  0  0  0
   -0.5694   -1.8280   -1.2450 C   0  0  0  0  0  0  0  0  0  0  0  0
   -0.2678   -2.9890   -1.1725 C   0  0  0  0  0  0  0  0  0  0  0  0
   -3.9679    0.8298    0.2365 H   0  0  0  0  0  0  0  0  0  0  0  0
    0.1360    0.1460   -0.4713 H   0  0  0  0  0  0  0  0  0  0  0  0
   -0.5844    0.0519   -2.2299 H   0  0  0  0  0  0  0  0  0  0  0  0
   -0.0166   -4.0209   -1.1225 H   0  0  0  0  0  0  0  0  0  0  0  0
   -0.0466    2.7322    1.2008 C   0  0  0  0  0  0  0  0  0  0  0  0
    0.7372    2.0286    0.3868 C   0  0  0  0  0  0  0  0  0  0  0  0
    0.9751    0.5758    0.4343 C   0  0  0  0  0  0  0  0  0  0  0  0
    0.4702   -0.1741    1.6430 C   0  0  0  0  0  0  0  0  0  0  0  0
    2.2647    0.1534   -0.1385 C   0  0  0  0  0  0  0  0  0  0  0  0
    2.9491   -0.9457    0.1706 C   0  0  0  0  0  0  0  0  0  0  0  0
   -0.1733    3.7977    1.0616 H   0  0  0  0  0  0  0  0  0  0  0  0
   -0.5781    2.2802    2.0284 H   0  0  0  0  0  0  0  0  0  0  0  0
    1.2413    2.5529   -0.4213 H   0  0  0  0  0  0  0  0  0  0  0  0
    0.5130   -1.2503    1.4761 H   0  0  0  0  0  0  0  0  0  0  0  0
   -0.5698    0.0791    1.8485 H   0  0  0  0  0  0  0  0  0  0  0  0
    1.0676    0.0651    2.5263 H   0  0  0  0  0  0  0  0  0  0  0  0
    2.6634    0.8071   -0.9104 H   0  0  0  0  0  0  0  0  0  0  0  0
    2.6166   -1.6419    0.9297 H   0  0  0  0  0  0  0  0  0  0  0  0
    3.8790   -1.1772   -0.3320 H   0  0  0  0  0  0  0  0  0  0  0  0
  1  2  3  0
  1  6  1  0
  2  3  1  0
  3  4  1  0
  3  8  1  0
  4  5  3  0
  5  9  1  0
  7 12  1  0
 10 11  2  3
 10 16  1  0
 10 17  1  0
 11 12  1  0
 11 18  1  0
 12 13  1  0
 12 14  1  0
 13 19  1  0
 13 20  1  0
 13 21  1  0
 14 15  2  3
 14 22  1  0
 15 23  1  0
 15 24  1  0
M  RAD  1   3   2
M  END
>  <reaction>  (4) 
rxn_1354

>  <mol_properties>  (4) 
{"1": {"label": "*4", "atom_type": "Ct"}, "2": {"label": "*3", "atom_type": "Cs"}, "6": {"label": "*2", "atom_type": "H0"}, "10": {"label": "*0", "atom_type": "Cd"}, "11": {"label": "*1", "atom_type": "Cs"}}

>  <type>  (4) 
ts

$$$$

     RDKit          3D

 24 22  0  0  0  0  0  0  0  0999 V2000
   -0.7647   -1.2638   -3.0554 C   0  0  0  0  0  0  0  0  0  0  0  0
   -0.7647   -1.2638   -1.8599 C   0  0  0  0  0  0  0  0  0  0  0  0
   -0.7647   -1.2638   -0.3969 C   0  0  0  0  0  0  0  0  0  0  0  0
   -2.0787   -0.9882    0.1843 C   0  0  0  0  0  0  0  0  0  0  0  0
   -3.1525   -0.7630    0.6592 C   0  0  0  0  0  0  0  0  0  0  0  0
   -0.7647   -1.2638   -4.1189 H   0  0  0  0  0  0  0  0  0  0  0  0
    0.0934   -0.3694    0.0341 H   0  0  0  0  0  0  0  0  0  0  0  0
   -0.4093   -2.2337   -0.0377 H   0  0  0  0  0  0  0  0  0  0  0  0
   -4.1077   -0.5627    1.0816 H   0  0  0  0  0  0  0  0  0  0  0  0
   -1.0196    1.9901    1.0034 C   0  0  0  0  0  0  0  0  0  0  0  0
    0.1849    1.5251    1.2930 C   0  0  0  0  0  0  0  0  0  0  0  0
    0.9536    0.5270    0.4662 C   0  0  0  0  0  3  0  0  0  0  0  0
    1.2525   -0.7296    1.2792 C   0  0  0  0  0  0  0  0  0  0  0  0
    2.1800    1.1980   -0.1011 C   0  0  0  0  0  0  0  0  0  0  0  0
    3.4409    0.8515    0.1063 C   0  0  0  0  0  0  0  0  0  0  0  0
   -1.5181    2.7089    1.6414 H   0  0  0  0  0  0  0  0  0  0  0  0
   -1.5524    1.6665    0.1154 H   0  0  0  0  0  0  0  0  0  0  0  0
    0.6938    1.8721    2.1899 H   0  0  0  0  0  0  0  0  0  0  0  0
    1.7971   -1.4636    0.6829 H   0  0  0  0  0  0  0  0  0  0  0  0
    0.3229   -1.1856    1.6206 H   0  0  0  0  0  0  0  0  0  0  0  0
    1.8538   -0.4944    2.1605 H   0  0  0  0  0  0  0  0  0  0  0  0
    1.9688    2.0609   -0.7273 H   0  0  0  0  0  0  0  0  0  0  0  0
    3.7154    0.0051    0.7241 H   0  0  0  0  0  0  0  0  0  0  0  0
    4.2524    1.4092   -0.3438 H   0  0  0  0  0  0  0  0  0  0  0  0
  1  2  3  0
  1  6  1  0
  2  3  1  0
  3  4  1  0
  3  7  1  0
  3  8  1  0
  4  5  3  0
  5  9  1  0
 10 11  2  3
 10 16  1  0
 10 17  1  0
 11 12  1  0
 11 18  1  0
 12 13  1  0
 12 14  1  0
 13 19  1  0
 13 20  1  0
 13 21  1  0
 14 15  2  3
 14 22  1  0
 15 23  1  0
 15 24  1  0
M  RAD  1  12   2
M  END
>  <reaction>  (5) 
rxn_1354

>  <mol_properties>  (5) 
{"1": {"label": "*4", "atom_type": "Ct"}, "2": {"label": "*3", "atom_type": "Cs"}, "6": {"label": "*2", "atom_type": "H0"}, "10": {"label": "*0", "atom_type": "Cd"}, "11": {"label": "*1", "atom_type": "Cs"}}

>  <type>  (5) 
unop_1

>  <geom_source>  (5) 
Heuristics

$$$$

     RDKit          3D

 24 22  0  0  0  0  0  0  0  0999 V2000
   -0.8358   -1.2478   -2.9275 C   0  0  0  0  0  0  0  0  0  0  0  0
   -0.8358   -1.2478   -1.7320 C   0  0  0  0  0  0  0  0  0  0  0  0
   -0.8358   -1.2478   -0.2690 C   0  0  0  0  0  0  0  0  0  0  0  0
   -2.1499   -0.9722    0.3122 C   0  0  0  0  0  0  0  0  0  0  0  0
   -3.2236   -0.7470    0.7871 C   0  0  0  0  0  0  0  0  0  0  0  0
   -0.8358   -1.2478   -3.9909 H   0  0  0  0  0  0  0  0  0  0  0  0
    0.0223   -0.3534    0.1621 H   0  0  0  0  0  0  0  0  0  0  0  0
   -0.4805   -2.2176    0.0902 H   0  0  0  0  0  0  0  0  0  0  0  0
   -4.1788   -0.5466    1.2096 H   0  0  0  0  0  0  0  0  0  0  0  0
    0.5585    1.5280   -1.6966 C   0  0  0  0  0  0  0  0  0  0  0  0
    0.9405    1.6424   -0.4349 C   0  0  0  0  0  0  0  0  0  0  0  0
    0.8824    0.5431    0.5941 C   0  0  0  0  0  3  0  0  0  0  0  0
   -0.0119    0.9463    1.7633 C   0  0  0  0  0  0  0  0  0  0  0  0
    2.2879    0.1698    0.9958 C   0  0  0  0  0  0  0  0  0  0  0  0
    2.8103    0.2390    2.2104 C   0  0  0  0  0  0  0  0  0  0  0  0
    0.6272    2.3592   -2.3871 H   0  0  0  0  0  0  0  0  0  0  0  0
    0.1611    0.5962   -2.0852 H   0  0  0  0  0  0  0  0  0  0  0  0
    1.3375    2.5900   -0.0772 H   0  0  0  0  0  0  0  0  0  0  0  0
   -0.0705    0.1496    2.5068 H   0  0  0  0  0  0  0  0  0  0  0  0
   -1.0203    1.1599    1.4082 H   0  0  0  0  0  0  0  0  0  0  0  0
    0.3667    1.8443    2.2570 H   0  0  0  0  0  0  0  0  0  0  0  0
    2.9123   -0.1718    0.1744 H   0  0  0  0  0  0  0  0  0  0  0  0
    2.2408    0.5761    3.0681 H   0  0  0  0  0  0  0  0  0  0  0  0
    3.8391   -0.0462    2.3907 H   0  0  0  0  0  0  0  0  0  0  0  0
  1  2  3  0
  1  6  1  0
  2  3  1  0
  3  4  1  0
  3  7  1  0
  3  8  1  0
  4  5  3  0
  5  9  1  0
 10 11  2  3
 10 16  1  0
 10 17  1  0
 11 12  1  0
 11 18  1  0
 12 13  1  0
 12 14  1  0
 13 19  1  0
 13 20  1  0
 13 21  1  0
 14 15  2  3
 14 22  1  0
 15 23  1  0
 15 24  1  0
M  RAD  1  12   2
M  END
>  <reaction>  (6) 
rxn_1354

>  <mol_properties>  (6) 
{"1": {"label": "*4", "atom_type": "Ct"}, "2": {"label": "*3", "atom_type": "Cs"}, "6": {"label": "*2", "atom_type": "H0"}, "10": {"label": "*0", "atom_type": "Cd"}, "11": {"label": "*1", "atom_type": "Cs"}}

>  <type>  (6) 
unop_2

>  <geom_source>  (6) 
Heuristics

$$$$

     RDKit          3D

 24 22  0  0  0  0  0  0  0  0999 V2000
   -0.7591   -1.2716   -3.0486 C   0  0  0  0  0  0  0  0  0  0  0  0
   -0.7591   -1.2716   -1.8531 C   0  0  0  0  0  0  0  0  0  0  0  0
   -0.7591   -1.2716   -0.3901 C   0  0  0  0  0  0  0  0  0  0  0  0
   -2.0732   -0.9960    0.1910 C   0  0  0  0  0  0  0  0  0  0  0  0
   -3.1469   -0.7707    0.6659 C   0  0  0  0  0  0  0  0  0  0  0  0
   -0.7591   -1.2716   -4.1121 H   0  0  0  0  0  0  0  0  0  0  0  0
    0.0990   -0.3772    0.0409 H   0  0  0  0  0  0  0  0  0  0  0  0
   -0.4038   -2.2414   -0.0309 H   0  0  0  0  0  0  0  0  0  0  0  0
   -4.1021   -0.5704    1.0884 H   0  0  0  0  0  0  0  0  0  0  0  0
   -0.8211    1.0747    2.1596 C   0  0  0  0  0  0  0  0  0  0  0  0
    0.4506    1.0281    1.7970 C   0  0  0  0  0  0  0  0  0  0  0  0
    0.9591    0.5193    0.4729 C   0  0  0  0  0  3  0  0  0  0  0  0
    1.9015   -0.6639    0.6764 C   0  0  0  0  0  0  0  0  0  0  0  0
    1.5696    1.6663   -0.2939 C   0  0  0  0  0  0  0  0  0  0  0  0
    2.8216    1.7623   -0.7136 C   0  0  0  0  0  0  0  0  0  0  0  0
   -1.1206    1.4538    3.1286 H   0  0  0  0  0  0  0  0  0  0  0  0
   -1.6107    0.7332    1.4985 H   0  0  0  0  0  0  0  0  0  0  0  0
    1.2183    1.3811    2.4823 H   0  0  0  0  0  0  0  0  0  0  0  0
    2.2634   -1.0474   -0.2790 H   0  0  0  0  0  0  0  0  0  0  0  0
    1.3844   -1.4703    1.1968 H   0  0  0  0  0  0  0  0  0  0  0  0
    2.7677   -0.3783    1.2778 H   0  0  0  0  0  0  0  0  0  0  0  0
    0.8856    2.4878   -0.4901 H   0  0  0  0  0  0  0  0  0  0  0  0
    3.5515    0.9798   -0.5442 H   0  0  0  0  0  0  0  0  0  0  0  0
    3.1627    2.6381   -1.2509 H   0  0  0  0  0  0  0  0  0  0  0  0
  1  2  3  0
  1  6  1  0
  2  3  1  0
  3  4  1  0
  3  7  1  0
  3  8  1  0
  4  5  3  0
  5  9  1  0
 10 11  2  3
 10 16  1  0
 10 17  1  0
 11 12  1  0
 11 18  1  0
 12 13  1  0
 12 14  1  0
 13 19  1  0
 13 20  1  0
 13 21  1  0
 14 15  2  3
 14 22  1  0
 15 23  1  0
 15 24  1  0
M  RAD  1  12   2
M  END
>  <reaction>  (7) 
rxn_1354

>  <mol_properties>  (7) 
{"1": {"label": "*4", "atom_type": "Ct"}, "2": {"label": "*3", "atom_type": "Cs"}, "6": {"label": "*2", "atom_type": "H0"}, "10": {"label": "*0", "atom_type": "Cd"}, "11": {"label": "*1", "atom_type": "Cs"}}

>  <type>  (7) 
unop_3

>  <geom_source>  (7) 
Heuristics

$$$$

     RDKit          3D

 24 22  0  0  0  0  0  0  0  0999 V2000
   -0.8349   -0.9977   -3.0900 C   0  0  0  0  0  0  0  0  0  0  0  0
   -0.8349   -0.9977   -1.8945 C   0  0  0  0  0  0  0  0  0  0  0  0
   -0.8349   -0.9977   -0.4316 C   0  0  0  0  0  0  0  0  0  0  0  0
   -2.1489   -0.7221    0.1496 C   0  0  0  0  0  0  0  0  0  0  0  0
   -3.2227   -0.4969    0.6245 C   0  0  0  0  0  0  0  0  0  0  0  0
   -0.8349   -0.9977   -4.1535 H   0  0  0  0  0  0  0  0  0  0  0  0
    0.0232   -0.1034   -0.0005 H   0  0  0  0  0  0  0  0  0  0  0  0
   -0.4796   -1.9676   -0.0724 H   0  0  0  0  0  0  0  0  0  0  0  0
   -4.1779   -0.2966    1.0470 H   0  0  0  0  0  0  0  0  0  0  0  0
    2.4598   -0.2335   -1.2368 C   0  0  0  0  0  0  0  0  0  0  0  0
    2.2395    0.4073   -0.1002 C   0  0  0  0  0  0  0  0  0  0  0  0
    0.8833    0.7931    0.4315 C   0  0  0  0  0  3  0  0  0  0  0  0
    0.7798    2.3069    0.5959 C   0  0  0  0  0  0  0  0  0  0  0  0
    0.6116    0.0177    1.6968 C   0  0  0  0  0  0  0  0  0  0  0  0
    0.3831    0.5193    2.9006 C   0  0  0  0  0  0  0  0  0  0  0  0
    3.4622   -0.4822   -1.5620 H   0  0  0  0  0  0  0  0  0  0  0  0
    1.6430   -0.5325   -1.8852 H   0  0  0  0  0  0  0  0  0  0  0  0
    3.0805    0.6906    0.5290 H   0  0  0  0  0  0  0  0  0  0  0  0
   -0.2047    2.5959    0.9676 H   0  0  0  0  0  0  0  0  0  0  0  0
    0.9440    2.8006   -0.3622 H   0  0  0  0  0  0  0  0  0  0  0  0
    1.5303    2.6789    1.2973 H   0  0  0  0  0  0  0  0  0  0  0  0
    0.6288   -1.0619    1.5725 H   0  0  0  0  0  0  0  0  0  0  0  0
    0.3586    1.5858    3.0892 H   0  0  0  0  0  0  0  0  0  0  0  0
    0.2076   -0.1293    3.7495 H   0  0  0  0  0  0  0  0  0  0  0  0
  1  2  3  0
  1  6  1  0
  2  3  1  0
  3  4  1  0
  3  7  1  0
  3  8  1  0
  4  5  3  0
  5  9  1  0
 10 11  2  3
 10 16  1  0
 10 17  1  0
 11 12  1  0
 11 18  1  0
 12 13  1  0
 12 14  1  0
 13 19  1  0
 13 20  1  0
 13 21  1  0
 14 15  2  3
 14 22  1  0
 15 23  1  0
 15 24  1  0
M  RAD  1  12   2
M  END
>  <reaction>  (8) 
rxn_1354

>  <mol_properties>  (8) 
{"1": {"label": "*4", "atom_type": "Ct"}, "2": {"label": "*3", "atom_type": "Cs"}, "6": {"label": "*2", "atom_type": "H0"}, "10": {"label": "*0", "atom_type": "Cd"}, "11": {"label": "*1", "atom_type": "Cs"}}

>  <type>  (8) 
unop_4

>  <geom_source>  (8) 
Heuristics

$$$$

     RDKit          3D

 24 22  0  0  0  0  0  0  0  0999 V2000
   -0.6785   -1.2901   -3.0675 C   0  0  0  0  0  0  0  0  0  0  0  0
   -0.6785   -1.2901   -1.8720 C   0  0  0  0  0  0  0  0  0  0  0  0
   -0.6785   -1.2901   -0.4090 C   0  0  0  0  0  0  0  0  0  0  0  0
   -1.9925   -1.0145    0.1721 C   0  0  0  0  0  0  0  0  0  0  0  0
   -3.0662   -0.7893    0.6470 C   0  0  0  0  0  0  0  0  0  0  0  0
   -0.6785   -1.2901   -4.1310 H   0  0  0  0  0  0  0  0  0  0  0  0
    0.1797   -0.3957    0.0220 H   0  0  0  0  0  0  0  0  0  0  0  0
   -0.3231   -2.2599   -0.0498 H   0  0  0  0  0  0  0  0  0  0  0  0
   -4.0214   -0.5889    1.0695 H   0  0  0  0  0  0  0  0  0  0  0  0
    0.2193   -0.3089    2.6887 C   0  0  0  0  0  0  0  0  0  0  0  0
    1.0064    0.4660    1.9601 C   0  0  0  0  0  0  0  0  0  0  0  0
    1.0398    0.5008    0.4540 C   0  0  0  0  0  3  0  0  0  0  0  0
    2.4267    0.1284   -0.0629 C   0  0  0  0  0  0  0  0  0  0  0  0
    0.5489    1.8469   -0.0185 C   0  0  0  0  0  0  0  0  0  0  0  0
    1.2227    2.7271   -0.7425 C   0  0  0  0  0  0  0  0  0  0  0  0
    0.2443   -0.2846    3.7709 H   0  0  0  0  0  0  0  0  0  0  0  0
   -0.4800   -0.9983    2.2273 H   0  0  0  0  0  0  0  0  0  0  0  0
    1.6948    1.1488    2.4537 H   0  0  0  0  0  0  0  0  0  0  0  0
    2.4555    0.1376   -1.1537 H   0  0  0  0  0  0  0  0  0  0  0  0
    2.6993   -0.8700    0.2798 H   0  0  0  0  0  0  0  0  0  0  0  0
    3.1835    0.8264    0.3028 H   0  0  0  0  0  0  0  0  0  0  0  0
   -0.4606    2.0924    0.3007 H   0  0  0  0  0  0  0  0  0  0  0  0
    2.2334    2.5428   -1.0863 H   0  0  0  0  0  0  0  0  0  0  0  0
    0.7784    3.6740   -1.0222 H   0  0  0  0  0  0  0  0  0  0  0  0
  1  2  3  0
  1  6  1  0
  2  3  1  0
  3  4  1  0
  3  7  1  0
  3  8  1  0
  4  5  3  0
  5  9  1  0
 10 11  2  3
 10 16  1  0
 10 17  1  0
 11 12  1  0
 11 18  1  0
 12 13  1  0
 12 14  1  0
 13 19  1  0
 13 20  1  0
 13 21  1  0
 14 15  2  3
 14 22  1  0
 15 23  1  0
 15 24  1  0
M  RAD  1  12   2
M  END
>  <reaction>  (9) 
rxn_1354

>  <mol_properties>  (9) 
{"1": {"label": "*4", "atom_type": "Ct"}, "2": {"label": "*3", "atom_type": "Cs"}, "6": {"label": "*2", "atom_type": "H0"}, "10": {"label": "*0", "atom_type": "Cd"}, "11": {"label": "*1", "atom_type": "Cs"}}

>  <type>  (9) 
unop_5

>  <geom_source>  (9) 
Heuristics

$$$$

     RDKit          3D

 24 22  0  0  0  0  0  0  0  0999 V2000
   -0.7397   -1.0171   -3.1656 C   0  0  0  0  0  0  0  0  0  0  0  0
   -0.7397   -1.0171   -1.9701 C   0  0  0  0  0  0  0  0  0  0  0  0
   -0.7397   -1.0171   -0.5071 C   0  0  0  0  0  0  0  0  0  0  0  0
   -2.0538   -0.7415    0.0741 C   0  0  0  0  0  0  0  0  0  0  0  0
   -3.1275   -0.5162    0.5490 C   0  0  0  0  0  0  0  0  0  0  0  0
   -0.7397   -1.0171   -4.2290 H   0  0  0  0  0  0  0  0  0  0  0  0
    0.1184   -0.1227   -0.0760 H   0  0  0  0  0  0  0  0  0  0  0  0
   -0.3844   -1.9869   -0.1479 H   0  0  0  0  0  0  0  0  0  0  0  0
   -4.0827   -0.3159    0.9715 H   0  0  0  0  0  0  0  0  0  0  0  0
    2.7785   -0.8526   -0.3052 C   0  0  0  0  0  0  0  0  0  0  0  0
    2.3101    0.0841    0.5035 C   0  0  0  0  0  0  0  0  0  0  0  0
    0.9785    0.7738    0.3560 C   0  0  0  0  0  3  0  0  0  0  0  0
    1.1673    2.2782    0.1817 C   0  0  0  0  0  0  0  0  0  0  0  0
    0.0966    0.3961    1.5204 C   0  0  0  0  0  0  0  0  0  0  0  0
   -0.4352    1.2181    2.4117 C   0  0  0  0  0  0  0  0  0  0  0  0
    3.7464   -1.3099   -0.1422 H   0  0  0  0  0  0  0  0  0  0  0  0
    2.2094   -1.1960   -1.1627 H   0  0  0  0  0  0  0  0  0  0  0  0
    2.9046    0.4043    1.3566 H   0  0  0  0  0  0  0  0  0  0  0  0
    0.2078    2.7837    0.0601 H   0  0  0  0  0  0  0  0  0  0  0  0
    1.7765    2.4804   -0.6997 H   0  0  0  0  0  0  0  0  0  0  0  0
    1.6737    2.7141    1.0460 H   0  0  0  0  0  0  0  0  0  0  0  0
   -0.0867   -0.6710    1.6153 H   0  0  0  0  0  0  0  0  0  0  0  0
   -0.2849    2.2903    2.3736 H   0  0  0  0  0  0  0  0  0  0  0  0
   -1.0498    0.8410    3.2193 H   0  0  0  0  0  0  0  0  0  0  0  0
  1  2  3  0
  1  6  1  0
  2  3  1  0
  3  4  1  0
  3  7  1  0
  3  8  1  0
  4  5  3  0
  5  9  1  0
 10 11  2  3
 10 16  1  0
 10 17  1  0
 11 12  1  0
 11 18  1  0
 12 13  1  0
 12 14  1  0
 13 19  1  0
 13 20  1  0
 13 21  1  0
 14 15  2  3
 14 22  1  0
 15 23  1  0
 15 24  1  0
M  RAD  1  12   2
M  END
>  <reaction>  (10) 
rxn_1354

>  <mol_properties>  (10) 
{"1": {"label": "*4", "atom_type": "Ct"}, "2": {"label": "*3", "atom_type": "Cs"}, "6": {"label": "*2", "atom_type": "H0"}, "10": {"label": "*0", "atom_type": "Cd"}, "11": {"label": "*1", "atom_type": "Cs"}}

>  <type>  (10) 
unop_6

>  <geom_source>  (10) 
Heuristics

$$$$

     RDKit          3D

 24 22  0  0  0  0  0  0  0  0999 V2000
   -0.6466   -1.0976   -3.1893 C   0  0  0  0  0  0  0  0  0  0  0  0
   -0.6466   -1.0976   -1.9938 C   0  0  0  0  0  0  0  0  0  0  0  0
   -0.6466   -1.0976   -0.5308 C   0  0  0  0  0  0  0  0  0  0  0  0
   -1.9606   -0.8220    0.0504 C   0  0  0  0  0  0  0  0  0  0  0  0
   -3.0344   -0.5968    0.5253 C   0  0  0  0  0  0  0  0  0  0  0  0
   -0.6466   -1.0976   -4.2528 H   0  0  0  0  0  0  0  0  0  0  0  0
    0.2116   -0.2032   -0.0998 H   0  0  0  0  0  0  0  0  0  0  0  0
   -0.2912   -2.0674   -0.1716 H   0  0  0  0  0  0  0  0  0  0  0  0
   -3.9896   -0.3964    0.9477 H   0  0  0  0  0  0  0  0  0  0  0  0
    2.5691   -1.2443    0.9033 C   0  0  0  0  0  0  0  0  0  0  0  0
    2.1007   -0.0334    1.1591 C   0  0  0  0  0  0  0  0  0  0  0  0
    1.0717    0.6933    0.3323 C   0  0  0  0  0  3  0  0  0  0  0  0
    1.6412    2.0021   -0.2081 C   0  0  0  0  0  0  0  0  0  0  0  0
   -0.1864    0.8611    1.1479 C   0  0  0  0  0  0  0  0  0  0  0  0
   -0.7646    2.0026    1.4879 C   0  0  0  0  0  0  0  0  0  0  0  0
    3.3098   -1.7115    1.5400 H   0  0  0  0  0  0  0  0  0  0  0  0
    2.2280   -1.8130    0.0447 H   0  0  0  0  0  0  0  0  0  0  0  0
    2.4613    0.5096    2.0302 H   0  0  0  0  0  0  0  0  0  0  0  0
    0.9064    2.5280   -0.8199 H   0  0  0  0  0  0  0  0  0  0  0  0
    2.5205    1.8038   -0.8216 H   0  0  0  0  0  0  0  0  0  0  0  0
    1.9431    2.6656    0.6055 H   0  0  0  0  0  0  0  0  0  0  0  0
   -0.6271   -0.0725    1.4879 H   0  0  0  0  0  0  0  0  0  0  0  0
   -0.3707    2.9650    1.1843 H   0  0  0  0  0  0  0  0  0  0  0  0
   -1.6661    2.0127    2.0874 H   0  0  0  0  0  0  0  0  0  0  0  0
  1  2  3  0
  1  6  1  0
  2  3  1  0
  3  4  1  0
  3  7  1  0
  3  8  1  0
  4  5  3  0
  5  9  1  0
 10 11  2  3
 10 16  1  0
 10 17  1  0
 11 12  1  0
 11 18  1  0
 12 13  1  0
 12 14  1  0
 13 19  1  0
 13 20  1  0
 13 21  1  0
 14 15  2  3
 14 22  1  0
 15 23  1  0
 15 24  1  0
M  RAD  1  12   2
M  END
>  <reaction>  (11) 
rxn_1354

>  <mol_properties>  (11) 
{"1": {"label": "*4", "atom_type": "Ct"}, "2": {"label": "*3", "atom_type": "Cs"}, "6": {"label": "*2", "atom_type": "H0"}, "10": {"label": "*0", "atom_type": "Cd"}, "11": {"label": "*1", "atom_type": "Cs"}}

>  <type>  (11) 
unop_7

>  <geom_source>  (11) 
Heuristics

$$$$

     RDKit          3D

 24 22  0  0  0  0  0  0  0  0999 V2000
   -0.7574   -1.2827   -3.0302 C   0  0  0  0  0  0  0  0  0  0  0  0
   -0.7574   -1.2827   -1.8347 C   0  0  0  0  0  0  0  0  0  0  0  0
   -0.7574   -1.2827   -0.3717 C   0  0  0  0  0  0  0  0  0  0  0  0
   -2.0714   -1.0071    0.2095 C   0  0  0  0  0  0  0  0  0  0  0  0
   -3.1452   -0.7819    0.6844 C   0  0  0  0  0  0  0  0  0  0  0  0
   -0.7574   -1.2827   -4.0937 H   0  0  0  0  0  0  0  0  0  0  0  0
    0.1007   -0.3883    0.0593 H   0  0  0  0  0  0  0  0  0  0  0  0
   -0.4021   -2.2525   -0.0125 H   0  0  0  0  0  0  0  0  0  0  0  0
   -4.1004   -0.5815    1.1068 H   0  0  0  0  0  0  0  0  0  0  0  0
   -0.6945    2.2685   -0.2041 C   0  0  0  0  0  0  0  0  0  0  0  0
    0.2166    1.8102    0.6389 C   0  0  0  0  0  0  0  0  0  0  0  0
    0.9608    0.5082    0.4914 C   0  0  0  0  0  3  0  0  0  0  0  0
    0.6922   -0.4041    1.6851 C   0  0  0  0  0  0  0  0  0  0  0  0
    2.4225    0.8001    0.2578 C   0  0  0  0  0  0  0  0  0  0  0  0
    3.4385    0.4167    1.0152 C   0  0  0  0  0  0  0  0  0  0  0  0
   -1.1933    3.2154   -0.0397 H   0  0  0  0  0  0  0  0  0  0  0  0
   -0.9758    1.7108   -1.0912 H   0  0  0  0  0  0  0  0  0  0  0  0
    0.4784    2.3952    1.5180 H   0  0  0  0  0  0  0  0  0  0  0  0
    1.2167   -1.3552    1.5792 H   0  0  0  0  0  0  0  0  0  0  0  0
   -0.3755   -0.6079    1.7689 H   0  0  0  0  0  0  0  0  0  0  0  0
    1.0187    0.0617    2.6178 H   0  0  0  0  0  0  0  0  0  0  0  0
    2.6230    1.4032   -0.6239 H   0  0  0  0  0  0  0  0  0  0  0  0
    3.3026   -0.1808    1.9085 H   0  0  0  0  0  0  0  0  0  0  0  0
    4.4552    0.6892    0.7617 H   0  0  0  0  0  0  0  0  0  0  0  0
  1  2  3  0
  1  6  1  0
  2  3  1  0
  3  4  1  0
  3  7  1  0
  3  8  1  0
  4  5  3  0
  5  9  1  0
 10 11  2  3
 10 16  1  0
 10 17  1  0
 11 12  1  0
 11 18  1  0
 12 13  1  0
 12 14  1  0
 13 19  1  0
 13 20  1  0
 13 21  1  0
 14 15  2  3
 14 22  1  0
 15 23  1  0
 15 24  1  0
M  RAD  1  12   2
M  END
>  <reaction>  (12) 
rxn_1354

>  <mol_properties>  (12) 
{"1": {"label": "*4", "atom_type": "Ct"}, "2": {"label": "*3", "atom_type": "Cs"}, "6": {"label": "*2", "atom_type": "H0"}, "10": {"label": "*0", "atom_type": "Cd"}, "11": {"label": "*1", "atom_type": "Cs"}}

>  <type>  (12) 
unop_8

>  <geom_source>  (12) 
Heuristics

$$$$

     RDKit          3D

 24 22  0  0  0  0  0  0  0  0999 V2000
   -0.8946   -1.0492   -2.9956 C   0  0  0  0  0  0  0  0  0  0  0  0
   -0.8946   -1.0492   -1.8001 C   0  0  0  0  0  0  0  0  0  0  0  0
   -0.8946   -1.0492   -0.3371 C   0  0  0  0  0  0  0  0  0  0  0  0
   -2.2086   -0.7736    0.2440 C   0  0  0  0  0  0  0  0  0  0  0  0
   -3.2823   -0.5484    0.7189 C   0  0  0  0  0  0  0  0  0  0  0  0
   -0.8946   -1.0492   -4.0591 H   0  0  0  0  0  0  0  0  0  0  0  0
   -0.0364   -0.1548    0.0939 H   0  0  0  0  0  0  0  0  0  0  0  0
   -0.5392   -2.0190    0.0221 H   0  0  0  0  0  0  0  0  0  0  0  0
   -4.2375   -0.3480    1.1414 H   0  0  0  0  0  0  0  0  0  0  0  0
    1.8427    0.4021   -1.7476 C   0  0  0  0  0  0  0  0  0  0  0  0
    1.9196    0.8452   -0.5031 C   0  0  0  0  0  0  0  0  0  0  0  0
    0.8237    0.7417    0.5259 C   0  0  0  0  0  3  0  0  0  0  0  0
    0.4032    2.1279    1.0065 C   0  0  0  0  0  0  0  0  0  0  0  0
    1.2717   -0.1821    1.6315 C   0  0  0  0  0  0  0  0  0  0  0  0
    1.4035    0.1211    2.9135 C   0  0  0  0  0  0  0  0  0  0  0  0
    2.6695    0.5075   -2.4387 H   0  0  0  0  0  0  0  0  0  0  0  0
    0.9468   -0.0825   -2.1211 H   0  0  0  0  0  0  0  0  0  0  0  0
    2.8336    1.3242   -0.1584 H   0  0  0  0  0  0  0  0  0  0  0  0
   -0.4003    2.0624    1.7420 H   0  0  0  0  0  0  0  0  0  0  0  0
    0.0514    2.7259    0.1654 H   0  0  0  0  0  0  0  0  0  0  0  0
    1.2418    2.6564    1.4657 H   0  0  0  0  0  0  0  0  0  0  0  0
    1.5187   -1.1878    1.3017 H   0  0  0  0  0  0  0  0  0  0  0  0
    1.1781    1.1069    3.3023 H   0  0  0  0  0  0  0  0  0  0  0  0
    1.7433   -0.6180    3.6280 H   0  0  0  0  0  0  0  0  0  0  0  0
  1  2  3  0
  1  6  1  0
  2  3  1  0
  3  4  1  0
  3  7  1  0
  3  8  1  0
  4  5  3  0
  5  9  1  0
 10 11  2  3
 10 16  1  0
 10 17  1  0
 11 12  1  0
 11 18  1  0
 12 13  1  0
 12 14  1  0
 13 19  1  0
 13 20  1  0
 13 21  1  0
 14 15  2  3
 14 22  1  0
 15 23  1  0
 15 24  1  0
M  RAD  1  12   2
M  END
>  <reaction>  (13) 
rxn_1354

>  <mol_properties>  (13) 
{"1": {"label": "*4", "atom_type": "Ct"}, "2": {"label": "*3", "atom_type": "Cs"}, "6": {"label": "*2", "atom_type": "H0"}, "10": {"label": "*0", "atom_type": "Cd"}, "11": {"label": "*1", "atom_type": "Cs"}}

>  <type>  (13) 
unop_9

>  <geom_source>  (13) 
Heuristics

$$$$

     RDKit          3D

 24 22  0  0  0  0  0  0  0  0999 V2000
   -0.7794   -1.2890   -2.9760 C   0  0  0  0  0  0  0  0  0  0  0  0
   -0.7794   -1.2890   -1.7805 C   0  0  0  0  0  0  0  0  0  0  0  0
   -0.7794   -1.2890   -0.3175 C   0  0  0  0  0  0  0  0  0  0  0  0
   -2.0934   -1.0134    0.2636 C   0  0  0  0  0  0  0  0  0  0  0  0
   -3.1672   -0.7882    0.7385 C   0  0  0  0  0  0  0  0  0  0  0  0
   -0.7794   -1.2890   -4.0395 H   0  0  0  0  0  0  0  0  0  0  0  0
    0.0787   -0.3946    0.1135 H   0  0  0  0  0  0  0  0  0  0  0  0
   -0.4240   -2.2589    0.0417 H   0  0  0  0  0  0  0  0  0  0  0  0
   -4.1224   -0.5879    1.1610 H   0  0  0  0  0  0  0  0  0  0  0  0
   -0.0966    2.0414   -1.1516 C   0  0  0  0  0  0  0  0  0  0  0  0
    0.4973    1.8408    0.0138 C   0  0  0  0  0  0  0  0  0  0  0  0
    0.9388    0.5018    0.5455 C   0  0  0  0  0  3  0  0  0  0  0  0
    0.2347    0.1863    1.8624 C   0  0  0  0  0  0  0  0  0  0  0  0
    2.4448    0.4791    0.6332 C   0  0  0  0  0  0  0  0  0  0  0  0
    3.1729    0.2984    1.7242 C   0  0  0  0  0  0  0  0  0  0  0  0
   -0.3888    3.0323   -1.4756 H   0  0  0  0  0  0  0  0  0  0  0  0
   -0.3133    1.2188   -1.8250 H   0  0  0  0  0  0  0  0  0  0  0  0
    0.7033    2.6877    0.6650 H   0  0  0  0  0  0  0  0  0  0  0  0
    0.5387   -0.7886    2.2473 H   0  0  0  0  0  0  0  0  0  0  0  0
   -0.8458    0.1769    1.7173 H   0  0  0  0  0  0  0  0  0  0  0  0
    0.4643    0.9377    2.6214 H   0  0  0  0  0  0  0  0  0  0  0  0
    2.9508    0.6477   -0.3138 H   0  0  0  0  0  0  0  0  0  0  0  0
    2.7274    0.1309    2.6974 H   0  0  0  0  0  0  0  0  0  0  0  0
    4.2546    0.3092    1.6793 H   0  0  0  0  0  0  0  0  0  0  0  0
  1  2  3  0
  1  6  1  0
  2  3  1  0
  3  4  1  0
  3  7  1  0
  3  8  1  0
  4  5  3  0
  5  9  1  0
 10 11  2  3
 10 16  1  0
 10 17  1  0
 11 12  1  0
 11 18  1  0
 12 13  1  0
 12 14  1  0
 13 19  1  0
 13 20  1  0
 13 21  1  0
 14 15  2  3
 14 22  1  0
 15 23  1  0
 15 24  1  0
M  RAD  1  12   2
M  END
>  <reaction>  (14) 
rxn_1354

>  <mol_properties>  (14) 
{"1": {"label": "*4", "atom_type": "Ct"}, "2": {"label": "*3", "atom_type": "Cs"}, "6": {"label": "*2", "atom_type": "H0"}, "10": {"label": "*0", "atom_type": "Cd"}, "11": {"label": "*1", "atom_type": "Cs"}}

>  <type>  (14) 
unop_10

>  <geom_source>  (14) 
Heuristics

$$$$

     RDKit          3D

 24 22  0  0  0  0  0  0  0  0999 V2000
   -0.6077   -1.2136   -3.1460 C   0  0  0  0  0  0  0  0  0  0  0  0
   -0.6077   -1.2136   -1.9505 C   0  0  0  0  0  0  0  0  0  0  0  0
   -0.6077   -1.2136   -0.4875 C   0  0  0  0  0  0  0  0  0  0  0  0
   -1.9217   -0.9380    0.0936 C   0  0  0  0  0  0  0  0  0  0  0  0
   -2.9955   -0.7128    0.5685 C   0  0  0  0  0  0  0  0  0  0  0  0
   -0.6077   -1.2136   -4.2095 H   0  0  0  0  0  0  0  0  0  0  0  0
    0.2505   -0.3192   -0.0565 H   0  0  0  0  0  0  0  0  0  0  0  0
   -0.2523   -2.1835   -0.1283 H   0  0  0  0  0  0  0  0  0  0  0  0
   -3.9507   -0.5125    0.9910 H   0  0  0  0  0  0  0  0  0  0  0  0
    1.6813   -1.1744    2.0869 C   0  0  0  0  0  0  0  0  0  0  0  0
    1.6400    0.0902    1.6996 C   0  0  0  0  0  0  0  0  0  0  0  0
    1.1106    0.5772    0.3755 C   0  0  0  0  0  3  0  0  0  0  0  0
    2.2005    1.3067   -0.4051 C   0  0  0  0  0  0  0  0  0  0  0  0
   -0.1303    1.4014    0.6144 C   0  0  0  0  0  0  0  0  0  0  0  0
   -0.3125    2.6723    0.2910 C   0  0  0  0  0  0  0  0  0  0  0  0
    2.0748   -1.4581    3.0548 H   0  0  0  0  0  0  0  0  0  0  0  0
    1.3227   -1.9739    1.4471 H   0  0  0  0  0  0  0  0  0  0  0  0
    2.0049    0.8688    2.3662 H   0  0  0  0  0  0  0  0  0  0  0  0
    1.8289    1.6506   -1.3718 H   0  0  0  0  0  0  0  0  0  0  0  0
    3.0466    0.6415   -0.5789 H   0  0  0  0  0  0  0  0  0  0  0  0
    2.5655    2.1758    0.1472 H   0  0  0  0  0  0  0  0  0  0  0  0
   -0.9310    0.8685    1.1206 H   0  0  0  0  0  0  0  0  0  0  0  0
    0.4490    3.2581   -0.2096 H   0  0  0  0  0  0  0  0  0  0  0  0
   -1.2440    3.1759    0.5169 H   0  0  0  0  0  0  0  0  0  0  0  0
  1  2  3  0
  1  6  1  0
  2  3  1  0
  3  4  1  0
  3  7  1  0
  3  8  1  0
  4  5  3  0
  5  9  1  0
 10 11  2  3
 10 16  1  0
 10 17  1  0
 11 12  1  0
 11 18  1  0
 12 13  1  0
 12 14  1  0
 13 19  1  0
 13 20  1  0
 13 21  1  0
 14 15  2  3
 14 22  1  0
 15 23  1  0
 15 24  1  0
M  RAD  1  12   2
M  END
>  <reaction>  (15) 
rxn_1354

>  <mol_properties>  (15) 
{"1": {"label": "*4", "atom_type": "Ct"}, "2": {"label": "*3", "atom_type": "Cs"}, "6": {"label": "*2", "atom_type": "H0"}, "10": {"label": "*0", "atom_type": "Cd"}, "11": {"label": "*1", "atom_type": "Cs"}}

>  <type>  (15) 
unop_11

>  <geom_source>  (15) 
Heuristics

$$$$

     RDKit          3D

 24 22  0  0  0  0  0  0  0  0999 V2000
   -0.8915   -1.1523   -2.9293 C   0  0  0  0  0  0  0  0  0  0  0  0
   -0.8915   -1.1523   -1.7338 C   0  0  0  0  0  0  0  0  0  0  0  0
   -0.8915   -1.1523   -0.2708 C   0  0  0  0  0  0  0  0  0  0  0  0
   -2.2055   -0.8767    0.3103 C   0  0  0  0  0  0  0  0  0  0  0  0
   -3.2793   -0.6515    0.7852 C   0  0  0  0  0  0  0  0  0  0  0  0
   -0.8915   -1.1523   -3.9928 H   0  0  0  0  0  0  0  0  0  0  0  0
   -0.0333   -0.2579    0.1602 H   0  0  0  0  0  0  0  0  0  0  0  0
   -0.5361   -2.1222    0.0883 H   0  0  0  0  0  0  0  0  0  0  0  0
   -4.2344   -0.4511    1.2077 H   0  0  0  0  0  0  0  0  0  0  0  0
    1.1838    0.9651   -1.8752 C   0  0  0  0  0  0  0  0  0  0  0  0
    1.4476    1.2856   -0.6188 C   0  0  0  0  0  0  0  0  0  0  0  0
    0.8268    0.6385    0.5922 C   0  0  0  0  0  3  0  0  0  0  0  0
    0.0720    1.6698    1.4267 C   0  0  0  0  0  0  0  0  0  0  0  0
    1.8947   -0.1061    1.3546 C   0  0  0  0  0  0  0  0  0  0  0  0
    2.2707    0.1079    2.6059 C   0  0  0  0  0  0  0  0  0  0  0  0
    1.6667    1.4703   -2.7023 H   0  0  0  0  0  0  0  0  0  0  0  0
    0.4723    0.1842   -2.1225 H   0  0  0  0  0  0  0  0  0  0  0  0
    2.1686    2.0717   -0.4045 H   0  0  0  0  0  0  0  0  0  0  0  0
   -0.3926    1.2064    2.2986 H   0  0  0  0  0  0  0  0  0  0  0  0
   -0.7102    2.1371    0.8280 H   0  0  0  0  0  0  0  0  0  0  0  0
    0.7416    2.4585    1.7775 H   0  0  0  0  0  0  0  0  0  0  0  0
    2.3969   -0.8804    0.7805 H   0  0  0  0  0  0  0  0  0  0  0  0
    1.8124    0.8679    3.2271 H   0  0  0  0  0  0  0  0  0  0  0  0
    3.0590   -0.4805    3.0584 H   0  0  0  0  0  0  0  0  0  0  0  0
  1  2  3  0
  1  6  1  0
  2  3  1  0
  3  4  1  0
  3  7  1  0
  3  8  1  0
  4  5  3  0
  5  9  1  0
 10 11  2  3
 10 16  1  0
 10 17  1  0
 11 12  1  0
 11 18  1  0
 12 13  1  0
 12 14  1  0
 13 19  1  0
 13 20  1  0
 13 21  1  0
 14 15  2  3
 14 22  1  0
 15 23  1  0
 15 24  1  0
M  RAD  1  12   2
M  END
>  <reaction>  (16) 
rxn_1354

>  <mol_properties>  (16) 
{"1": {"label": "*4", "atom_type": "Ct"}, "2": {"label": "*3", "atom_type": "Cs"}, "6": {"label": "*2", "atom_type": "H0"}, "10": {"label": "*0", "atom_type": "Cd"}, "11": {"label": "*1", "atom_type": "Cs"}}

>  <type>  (16) 
unop_12

>  <geom_source>  (16) 
Heuristics

$$$$

     RDKit          3D

 24 22  0  0  0  0  0  0  0  0999 V2000
   -0.9083   -0.0028   -0.1981 C   0  0  0  0  0  0  0  0  0  0  0  0
   -1.8395    0.4478    0.9305 C   0  0  0  0  0  0  0  0  0  0  0  0
   -1.1814   -1.4431   -0.5558 C   0  0  0  0  0  0  0  0  0  0  0  0
   -1.0787    0.8799   -1.4100 C   0  0  0  0  0  0  0  0  0  0  0  0
   -0.7146   -2.4450    0.1942 C   0  0  0  0  0  0  0  0  0  0  0  0
   -0.1917    0.8633   -2.4090 C   0  0  0  0  0  0  0  0  0  0  0  0
    1.3465   -0.2815    1.0837 C   0  0  0  0  0  3  0  0  0  0  0  0
    1.5756    0.8635    1.9671 C   0  0  0  0  0  0  0  0  0  0  0  0
    2.0611   -0.0833   -0.1788 C   0  0  0  0  0  0  0  0  0  0  0  0
    1.7628    1.8056    2.6959 C   0  0  0  0  0  0  0  0  0  0  0  0
    2.6487    0.0783   -1.2192 C   0  0  0  0  0  0  0  0  0  0  0  0
    0.3320    0.1150    0.2243 H   0  0  0  0  0  0  0  0  0  0  0  0
   -2.9040    0.3524    0.6244 H   0  0  0  0  0  0  0  0  0  0  0  0
   -1.6324    1.5072    1.1929 H   0  0  0  0  0  0  0  0  0  0  0  0
   -1.6688   -0.1708    1.8371 H   0  0  0  0  0  0  0  0  0  0  0  0
   -1.7763   -1.6796   -1.4344 H   0  0  0  0  0  0  0  0  0  0  0  0
   -1.9303    1.5519   -1.4787 H   0  0  0  0  0  0  0  0  0  0  0  0
   -0.1205   -2.2492    1.0818 H   0  0  0  0  0  0  0  0  0  0  0  0
   -0.9274   -3.4732   -0.0797 H   0  0  0  0  0  0  0  0  0  0  0  0
    0.6741    0.2087   -2.3759 H   0  0  0  0  0  0  0  0  0  0  0  0
   -0.3308    1.5090   -3.2700 H   0  0  0  0  0  0  0  0  0  0  0  0
    1.7121   -1.2069    1.5747 H   0  0  0  0  0  0  0  0  0  0  0  0
    1.9273    2.6326    3.3354 H   0  0  0  0  0  0  0  0  0  0  0  0
    3.1645    0.2202   -2.1323 H   0  0  0  0  0  0  0  0  0  0  0  0
  1  2  1  0
  1  3  1  0
  1  4  1  0
  1 12  1  0
  2 13  1  0
  2 14  1  0
  2 15  1  0
  3  5  2  3
  3 16  1  0
  4  6  2  3
  4 17  1  0
  5 18  1  0
  5 19  1  0
  6 20  1  0
  6 21  1  0
  7  8  1  0
  7  9  1  0
  7 22  1  0
  8 10  3  0
  9 11  3  0
 10 23  1  0
 11 24  1  0
M  RAD  1   7   2
M  END
>  <reaction>  (17) 
rxn_1354

>  <mol_properties>  (17) 
{"1": {"label": "*4", "atom_type": "Ct"}, "2": {"label": "*3", "atom_type": "Cs"}, "6": {"label": "*2", "atom_type": "H0"}, "10": {"label": "*0", "atom_type": "Cd"}, "11": {"label": "*1", "atom_type": "Cs"}}

>  <type>  (17) 
unop_13

>  <geom_source>  (17) 
AutoTST

$$$$
