
     RDKit          3D

  5  4  0  0  0  0  0  0  0  0999 V2000
    0.0000    0.0000    0.0000 C   0  0  0  0  0  0  0  0  0  0  0  0
   -0.6486   -0.7720   -0.4113 H   0  0  0  0  0  0  0  0  0  0  0  0
   -0.3482    0.9787   -0.3267 H   0  0  0  0  0  0  0  0  0  0  0  0
   -0.0223   -0.0487    1.0876 H   0  0  0  0  0  0  0  0  0  0  0  0
    1.0191   -0.1580   -0.3496 H   0  0  0  0  0  0  0  0  0  0  0  0
  1  2  1  0
  1  3  1  0
  1  4  1  0
  1  5  1  0
M  END
>  <reaction>  (1) 
rxn_849

>  <mol_properties>  (1) 
{"0": {"label": "donator", "atom_type": "Cs"}, "1": {"label": "d_hydrogen", "atom_type": "H0"}}

>  <type>  (1) 
r1h

$$$$

     RDKit          3D

 11 10  0  0  0  0  0  0  0  0999 V2000
    1.0781   -1.0166   -0.1159 C   0  0  0  0  0  0  0  0  0  0  0  0
    0.2180    0.1942   -0.2297 C   0  0  0  0  0  3  0  0  0  0  0  0
    0.9343    1.7769   -0.3011 S   0  0  0  0  0  0  0  0  0  0  0  0
   -1.1949    0.1490    0.2439 C   0  0  0  0  0  0  0  0  0  0  0  0
    1.4718   -1.1461    0.9024 H   0  0  0  0  0  0  0  0  0  0  0  0
    1.9367   -0.9751   -0.7902 H   0  0  0  0  0  0  0  0  0  0  0  0
    0.5033   -1.9136   -0.3576 H   0  0  0  0  0  0  0  0  0  0  0  0
    2.1166    1.4195   -0.8209 H   0  0  0  0  0  0  0  0  0  0  0  0
   -1.2620    0.0939    1.3399 H   0  0  0  0  0  0  0  0  0  0  0  0
   -1.7600    1.0270   -0.0739 H   0  0  0  0  0  0  0  0  0  0  0  0
   -1.6972   -0.7380   -0.1506 H   0  0  0  0  0  0  0  0  0  0  0  0
  1  2  1  0
  1  5  1  0
  1  6  1  0
  1  7  1  0
  2  4  1  0
  2  3  1  0
  3  8  1  0
  4  9  1  0
  4 10  1  0
  4 11  1  0
M  RAD  1   2   2
M  END
>  <reaction>  (2) 
rxn_849

>  <mol_properties>  (2) 
{"1": {"label": "acceptor", "atom_type": "Cs"}}

>  <type>  (2) 
r2

$$$$

     RDKit          3D

 12 11  0  0  0  0  0  0  0  0999 V2000
    1.2394   -0.3763   -0.3020 C   0  0  0  0  0  0  0  0  0  0  0  0
    0.1007    0.3023    0.4464 C   0  0  0  0  0  0  0  0  0  0  0  0
   -0.1187    2.0399   -0.0725 S   0  0  0  0  0  0  0  0  0  0  0  0
   -1.1974   -0.4877    0.3552 C   0  0  0  0  0  0  0  0  0  0  0  0
    2.1681    0.1849   -0.2048 H   0  0  0  0  0  0  0  0  0  0  0  0
    1.0031   -0.4606   -1.3656 H   0  0  0  0  0  0  0  0  0  0  0  0
    1.3994   -1.3856    0.0860 H   0  0  0  0  0  0  0  0  0  0  0  0
    0.3796    0.4050    1.4981 H   0  0  0  0  0  0  0  0  0  0  0  0
   -0.4500    1.7779   -1.3452 H   0  0  0  0  0  0  0  0  0  0  0  0
   -1.0545   -1.4978    0.7479 H   0  0  0  0  0  0  0  0  0  0  0  0
   -1.5206   -0.5759   -0.6849 H   0  0  0  0  0  0  0  0  0  0  0  0
   -1.9957   -0.0054    0.9183 H   0  0  0  0  0  0  0  0  0  0  0  0
  1  2  1  0
  1  5  1  0
  1  6  1  0
  1  7  1  0
  2  4  1  0
  2  3  1  0
  2  8  1  0
  3  9  1  0
  4 10  1  0
  4 11  1  0
  4 12  1  0
M  END
>  <reaction>  (3) 
rxn_849

>  <mol_properties>  (3) 
{"1": {"label": "acceptor", "atom_type": "Cs"}, "11": {"label": "a_hydrogen", "atom_type": "H0"}}

>  <type>  (3) 
r2h

$$$$

     RDKit          3D

 16 14  0  0  0  0  0  0  0  0999 V2000
   -1.2608   -0.0119    1.2454 C   0  0  0  0  0  0  0  0  0  0  0  0
    0.0468   -0.2005    0.5116 C   0  0  0  0  0  0  0  0  0  0  0  0
    0.5553    1.2054   -0.4887 S   0  0  0  0  0  0  0  0  0  0  0  0
    1.1942   -0.6436    1.3925 C   0  0  0  0  0  0  0  0  0  0  0  0
   -2.0725    0.2323    0.5579 H   0  0  0  0  0  0  0  0  0  0  0  0
   -1.1858    0.7933    1.9813 H   0  0  0  0  0  0  0  0  0  0  0  0
   -1.5288   -0.9327    1.7697 H   0  0  0  0  0  0  0  0  0  0  0  0
   -0.6071    1.3773   -1.1325 H   0  0  0  0  0  0  0  0  0  0  0  0
    0.9255   -1.5685    1.9068 H   0  0  0  0  0  0  0  0  0  0  0  0
    2.0971   -0.8290    0.8088 H   0  0  0  0  0  0  0  0  0  0  0  0
    1.4255    0.1092    2.1519 H   0  0  0  0  0  0  0  0  0  0  0  0
   -0.3809   -2.2952   -1.1352 C   0  0  0  0  0  3  0  0  0  0  0  0
   -0.1476   -1.1608   -0.2875 H   0  0  0  0  0  0  0  0  0  0  0  0
   -0.4197   -3.1463   -0.4626 H   0  0  0  0  0  0  0  0  0  0  0  0
   -1.3231   -2.0660   -1.6229 H   0  0  0  0  0  0  0  0  0  0  0  0
    0.4812   -2.2776   -1.7938 H   0  0  0  0  0  0  0  0  0  0  0  0
  1  2  1  0
  1  5  1  0
  1  6  1  0
  1  7  1  0
  2  4  1  0
  2  3  1  0
  2 13  1  0
  3  8  1  0
  4  9  1  0
  4 10  1  0
  4 11  1  0
 12 14  1  0
 12 15  1  0
 12 16  1  0
M  RAD  1  12   2
M  END
>  <reaction>  (4) 
rxn_849

>  <mol_properties>  (4) 
{"1": {"label": "*1", "atom_type": "Cs"}, "2": {"label": "*0", "atom_type": "S2s"}, "11": {"label": "*3", "atom_type": "Cs"}, "12": {"label": "*2", "atom_type": "H0"}, "13": {"label": "*4", "atom_type": "H0"}}

>  <type>  (4) 
ts

$$$$

     RDKit          3D

 16 14  0  0  0  0  0  0  0  0999 V2000
   -1.4333    0.1710    0.9907 C   0  0  0  0  0  0  0  0  0  0  0  0
   -0.1860   -0.0541    0.1473 C   0  0  0  0  0  3  0  0  0  0  0  0
    0.3837    1.4850   -0.6547 S   0  0  0  0  0  0  0  0  0  0  0  0
    0.9261   -0.7308    0.9365 C   0  0  0  0  0  0  0  0  0  0  0  0
   -2.2299    0.6297    0.4061 H   0  0  0  0  0  0  0  0  0  0  0  0
   -1.2114    0.8267    1.8362 H   0  0  0  0  0  0  0  0  0  0  0  0
   -1.7967   -0.7792    1.3905 H   0  0  0  0  0  0  0  0  0  0  0  0
    0.6640    2.1505    0.4752 H   0  0  0  0  0  0  0  0  0  0  0  0
    0.5792   -1.6872    1.3360 H   0  0  0  0  0  0  0  0  0  0  0  0
    1.8015   -0.9110    0.3134 H   0  0  0  0  0  0  0  0  0  0  0  0
    1.2320   -0.1072    1.7801 H   0  0  0  0  0  0  0  0  0  0  0  0
   -0.1860   -2.5226   -0.7255 C   0  0  0  0  0  0  0  0  0  0  0  0
   -0.1860   -1.2907   -0.2899 H   0  0  0  0  0  0  0  0  0  0  0  0
    0.7031   -3.0360   -0.3625 H   0  0  0  0  0  0  0  0  0  0  0  0
   -1.0751   -3.0360   -0.3625 H   0  0  0  0  0  0  0  0  0  0  0  0
   -0.1860   -2.5226   -1.8144 H   0  0  0  0  0  0  0  0  0  0  0  0
  1  2  1  0
  1  5  1  0
  1  6  1  0
  1  7  1  0
  2  4  1  0
  2  3  1  0
  3  8  1  0
  4  9  1  0
  4 10  1  0
  4 11  1  0
 12 13  1  0
 12 14  1  0
 12 15  1  0
 12 16  1  0
M  RAD  1   2   2
M  END
>  <reaction>  (5) 
rxn_849

>  <mol_properties>  (5) 
{"1": {"label": "*1", "atom_type": "Cs"}, "2": {"label": "*0", "atom_type": "S2s"}, "11": {"label": "*3", "atom_type": "Cs"}, "12": {"label": "*2", "atom_type": "H0"}, "13": {"label": "*4", "atom_type": "H0"}}

>  <type>  (5) 
unop_1

>  <geom_source>  (5) 
Heuristics

$$$$

     RDKit          3D

 16 14  0  0  0  0  0  0  0  0999 V2000
   -1.0230    0.9496   -1.0761 C   0  0  0  0  0  0  0  0  0  0  0  0
   -0.3029    0.0688   -0.0646 C   0  0  0  0  0  3  0  0  0  0  0  0
    1.3115    0.7692    0.4249 S   0  0  0  0  0  0  0  0  0  0  0  0
   -1.1747   -0.2507    1.1418 C   0  0  0  0  0  0  0  0  0  0  0  0
   -0.3980    1.1467   -1.9464 H   0  0  0  0  0  0  0  0  0  0  0  0
   -1.2921    1.9087   -0.6268 H   0  0  0  0  0  0  0  0  0  0  0  0
   -1.9448    0.4666   -1.4106 H   0  0  0  0  0  0  0  0  0  0  0  0
    0.8277    1.8827    0.9944 H   0  0  0  0  0  0  0  0  0  0  0  0
   -2.0975   -0.7421    0.8228 H   0  0  0  0  0  0  0  0  0  0  0  0
   -0.6573   -0.9042    1.8432 H   0  0  0  0  0  0  0  0  0  0  0  0
   -1.4492    0.6656    1.6702 H   0  0  0  0  0  0  0  0  0  0  0  0
   -0.3029   -2.3998   -0.9374 C   0  0  0  0  0  0  0  0  0  0  0  0
   -0.3029   -1.1678   -0.5018 H   0  0  0  0  0  0  0  0  0  0  0  0
    0.5862   -2.9131   -0.5744 H   0  0  0  0  0  0  0  0  0  0  0  0
   -1.1920   -2.9131   -0.5744 H   0  0  0  0  0  0  0  0  0  0  0  0
   -0.3029   -2.3998   -2.0263 H   0  0  0  0  0  0  0  0  0  0  0  0
  1  2  1  0
  1  5  1  0
  1  6  1  0
  1  7  1  0
  2  4  1  0
  2  3  1  0
  3  8  1  0
  4  9  1  0
  4 10  1  0
  4 11  1  0
 12 13  1  0
 12 14  1  0
 12 15  1  0
 12 16  1  0
M  RAD  1   2   2
M  END
>  <reaction>  (6) 
rxn_849

>  <mol_properties>  (6) 
{"1": {"label": "*1", "atom_type": "Cs"}, "2": {"label": "*0", "atom_type": "S2s"}, "11": {"label": "*3", "atom_type": "Cs"}, "12": {"label": "*2", "atom_type": "H0"}, "13": {"label": "*4", "atom_type": "H0"}}

>  <type>  (6) 
unop_2

>  <geom_source>  (6) 
Heuristics

$$$$

     RDKit          3D

 16 14  0  0  0  0  0  0  0  0999 V2000
   -0.7138   -0.0273    1.6033 C   0  0  0  0  0  0  0  0  0  0  0  0
    0.0063   -0.0767    0.2629 C   0  0  0  0  0  3  0  0  0  0  0  0
   -0.4026    1.3617   -0.7861 S   0  0  0  0  0  0  0  0  0  0  0  0
    1.5095   -0.2546    0.4251 C   0  0  0  0  0  0  0  0  0  0  0  0
   -1.7907    0.0717    1.4716 H   0  0  0  0  0  0  0  0  0  0  0  0
   -0.3643    0.8219    2.1955 H   0  0  0  0  0  0  0  0  0  0  0  0
   -0.5144   -0.9379    2.1741 H   0  0  0  0  0  0  0  0  0  0  0  0
    0.1214    2.2939    0.0230 H   0  0  0  0  0  0  0  0  0  0  0  0
    1.7244   -1.1667    0.9877 H   0  0  0  0  0  0  0  0  0  0  0  0
    2.0081   -0.3166   -0.5416 H   0  0  0  0  0  0  0  0  0  0  0  0
    1.9382    0.5866    0.9753 H   0  0  0  0  0  0  0  0  0  0  0  0
    0.0063   -2.5452   -0.6098 C   0  0  0  0  0  0  0  0  0  0  0  0
    0.0063   -1.3132   -0.1743 H   0  0  0  0  0  0  0  0  0  0  0  0
    0.8954   -3.0586   -0.2469 H   0  0  0  0  0  0  0  0  0  0  0  0
   -0.8828   -3.0586   -0.2469 H   0  0  0  0  0  0  0  0  0  0  0  0
    0.0063   -2.5452   -1.6988 H   0  0  0  0  0  0  0  0  0  0  0  0
  1  2  1  0
  1  5  1  0
  1  6  1  0
  1  7  1  0
  2  4  1  0
  2  3  1  0
  3  8  1  0
  4  9  1  0
  4 10  1  0
  4 11  1  0
 12 13  1  0
 12 14  1  0
 12 15  1  0
 12 16  1  0
M  RAD  1   2   2
M  END
>  <reaction>  (7) 
rxn_849

>  <mol_properties>  (7) 
{"1": {"label": "*1", "atom_type": "Cs"}, "2": {"label": "*0", "atom_type": "S2s"}, "11": {"label": "*3", "atom_type": "Cs"}, "12": {"label": "*2", "atom_type": "H0"}, "13": {"label": "*4", "atom_type": "H0"}}

>  <type>  (7) 
unop_3

>  <geom_source>  (7) 
Heuristics

$$$$

     RDKit          3D

 16 14  0  0  0  0  0  0  0  0999 V2000
    1.0986    1.2070   -0.8559 C   0  0  0  0  0  0  0  0  0  0  0  0
   -0.1487    0.5019   -0.3414 C   0  0  0  0  0  3  0  0  0  0  0  0
    0.2031   -0.5238    1.1285 S   0  0  0  0  0  0  0  0  0  0  0  0
   -1.2970    1.4713   -0.0981 C   0  0  0  0  0  0  0  0  0  0  0  0
    1.9024    0.4983   -1.0523 H   0  0  0  0  0  0  0  0  0  0  0  0
    1.4579    1.9340   -0.1235 H   0  0  0  0  0  0  0  0  0  0  0  0
    0.8750    1.7459   -1.7802 H   0  0  0  0  0  0  0  0  0  0  0  0
    0.5690    0.4844    1.9335 H   0  0  0  0  0  0  0  0  0  0  0  0
   -1.5373    2.0121   -1.0171 H   0  0  0  0  0  0  0  0  0  0  0  0
   -2.1908    0.9498    0.2425 H   0  0  0  0  0  0  0  0  0  0  0  0
   -1.0230    2.2077    0.6613 H   0  0  0  0  0  0  0  0  0  0  0  0
   -0.1487   -1.9667   -1.2142 C   0  0  0  0  0  0  0  0  0  0  0  0
   -0.1487   -0.7347   -0.7786 H   0  0  0  0  0  0  0  0  0  0  0  0
    0.7404   -2.4800   -0.8512 H   0  0  0  0  0  0  0  0  0  0  0  0
   -1.0378   -2.4800   -0.8512 H   0  0  0  0  0  0  0  0  0  0  0  0
   -0.1487   -1.9667   -2.3031 H   0  0  0  0  0  0  0  0  0  0  0  0
  1  2  1  0
  1  5  1  0
  1  6  1  0
  1  7  1  0
  2  4  1  0
  2  3  1  0
  3  8  1  0
  4  9  1  0
  4 10  1  0
  4 11  1  0
 12 13  1  0
 12 14  1  0
 12 15  1  0
 12 16  1  0
M  RAD  1   2   2
M  END
>  <reaction>  (8) 
rxn_849

>  <mol_properties>  (8) 
{"1": {"label": "*1", "atom_type": "Cs"}, "2": {"label": "*0", "atom_type": "S2s"}, "11": {"label": "*3", "atom_type": "Cs"}, "12": {"label": "*2", "atom_type": "H0"}, "13": {"label": "*4", "atom_type": "H0"}}

>  <type>  (8) 
unop_4

>  <geom_source>  (8) 
Heuristics

$$$$

     RDKit          3D

 16 14  0  0  0  0  0  0  0  0999 V2000
    0.3547    0.0432    1.7489 C   0  0  0  0  0  0  0  0  0  0  0  0
    0.3547    0.0582    0.2266 C   0  0  0  0  0  3  0  0  0  0  0  0
   -1.2101    0.7135   -0.4506 S   0  0  0  0  0  0  0  0  0  0  0  0
    1.5682    0.7818   -0.3403 C   0  0  0  0  0  0  0  0  0  0  0  0
   -0.5036   -0.5018    2.1402 H   0  0  0  0  0  0  0  0  0  0  0  0
    0.3187    1.0620    2.1425 H   0  0  0  0  0  0  0  0  0  0  0  0
    1.2673   -0.4279    2.1230 H   0  0  0  0  0  0  0  0  0  0  0  0
   -1.0895    1.9491    0.0563 H   0  0  0  0  0  0  0  0  0  0  0  0
    2.4892    0.3159    0.0193 H   0  0  0  0  0  0  0  0  0  0  0  0
    1.5697    0.7603   -1.4295 H   0  0  0  0  0  0  0  0  0  0  0  0
    1.5753    1.8269   -0.0211 H   0  0  0  0  0  0  0  0  0  0  0  0
    0.3547   -2.4104   -0.6462 C   0  0  0  0  0  0  0  0  0  0  0  0
    0.3547   -1.1784   -0.2106 H   0  0  0  0  0  0  0  0  0  0  0  0
    1.2438   -2.9237   -0.2832 H   0  0  0  0  0  0  0  0  0  0  0  0
   -0.5344   -2.9237   -0.2832 H   0  0  0  0  0  0  0  0  0  0  0  0
    0.3547   -2.4104   -1.7351 H   0  0  0  0  0  0  0  0  0  0  0  0
  1  2  1  0
  1  5  1  0
  1  6  1  0
  1  7  1  0
  2  4  1  0
  2  3  1  0
  3  8  1  0
  4  9  1  0
  4 10  1  0
  4 11  1  0
 12 13  1  0
 12 14  1  0
 12 15  1  0
 12 16  1  0
M  RAD  1   2   2
M  END
>  <reaction>  (9) 
rxn_849

>  <mol_properties>  (9) 
{"1": {"label": "*1", "atom_type": "Cs"}, "2": {"label": "*0", "atom_type": "S2s"}, "11": {"label": "*3", "atom_type": "Cs"}, "12": {"label": "*2", "atom_type": "H0"}, "13": {"label": "*4", "atom_type": "H0"}}

>  <type>  (9) 
unop_5

>  <geom_source>  (9) 
Heuristics

$$$$

     RDKit          3D

 16 14  0  0  0  0  0  0  0  0999 V2000
    1.5355    1.0304   -0.1771 C   0  0  0  0  0  0  0  0  0  0  0  0
    0.0953    0.5654   -0.3416 C   0  0  0  0  0  3  0  0  0  0  0  0
   -0.3969   -0.6106    0.9666 S   0  0  0  0  0  0  0  0  0  0  0  0
   -0.8756    1.7326   -0.4531 C   0  0  0  0  0  0  0  0  0  0  0  0
    2.2218    0.1858   -0.1270 H   0  0  0  0  0  0  0  0  0  0  0  0
    1.6478    1.6144    0.7397 H   0  0  0  0  0  0  0  0  0  0  0  0
    1.8263    1.6670   -1.0168 H   0  0  0  0  0  0  0  0  0  0  0  0
   -0.2664    0.2413    1.9939 H   0  0  0  0  0  0  0  0  0  0  0  0
   -0.6017    2.3740   -1.2948 H   0  0  0  0  0  0  0  0  0  0  0  0
   -1.8980    1.3855   -0.5986 H   0  0  0  0  0  0  0  0  0  0  0  0
   -0.8493    2.3415    0.4538 H   0  0  0  0  0  0  0  0  0  0  0  0
    0.0953   -1.9032   -1.2143 C   0  0  0  0  0  0  0  0  0  0  0  0
    0.0953   -0.6712   -0.7787 H   0  0  0  0  0  0  0  0  0  0  0  0
    0.9844   -2.4165   -0.8513 H   0  0  0  0  0  0  0  0  0  0  0  0
   -0.7938   -2.4165   -0.8513 H   0  0  0  0  0  0  0  0  0  0  0  0
    0.0953   -1.9032   -2.3033 H   0  0  0  0  0  0  0  0  0  0  0  0
  1  2  1  0
  1  5  1  0
  1  6  1  0
  1  7  1  0
  2  4  1  0
  2  3  1  0
  3  8  1  0
  4  9  1  0
  4 10  1  0
  4 11  1  0
 12 13  1  0
 12 14  1  0
 12 15  1  0
 12 16  1  0
M  RAD  1   2   2
M  END
>  <reaction>  (10) 
rxn_849

>  <mol_properties>  (10) 
{"1": {"label": "*1", "atom_type": "Cs"}, "2": {"label": "*0", "atom_type": "S2s"}, "11": {"label": "*3", "atom_type": "Cs"}, "12": {"label": "*2", "atom_type": "H0"}, "13": {"label": "*4", "atom_type": "H0"}}

>  <type>  (10) 
unop_6

>  <geom_source>  (10) 
Heuristics

$$$$

     RDKit          3D

 16 14  0  0  0  0  0  0  0  0999 V2000
    1.5853    0.7508    0.6112 C   0  0  0  0  0  0  0  0  0  0  0  0
    0.3380    0.5257   -0.2322 C   0  0  0  0  0  3  0  0  0  0  0  0
   -0.9023   -0.4930    0.6399 S   0  0  0  0  0  0  0  0  0  0  0  0
   -0.2542    1.8325   -0.7413 C   0  0  0  0  0  0  0  0  0  0  0  0
    2.0141   -0.1935    0.9449 H   0  0  0  0  0  0  0  0  0  0  0  0
    1.3480    1.3475    1.4953 H   0  0  0  0  0  0  0  0  0  0  0  0
    2.3397    1.2923    0.0347 H   0  0  0  0  0  0  0  0  0  0  0  0
   -1.1309    0.3696    1.6408 H   0  0  0  0  0  0  0  0  0  0  0  0
    0.4874    2.3816   -1.3272 H   0  0  0  0  0  0  0  0  0  0  0  0
   -1.1289    1.6548   -1.3660 H   0  0  0  0  0  0  0  0  0  0  0  0
   -0.5570    2.4678    0.0947 H   0  0  0  0  0  0  0  0  0  0  0  0
    0.3380   -1.9428   -1.1049 C   0  0  0  0  0  0  0  0  0  0  0  0
    0.3380   -0.7109   -0.6694 H   0  0  0  0  0  0  0  0  0  0  0  0
    1.2271   -2.4562   -0.7420 H   0  0  0  0  0  0  0  0  0  0  0  0
   -0.5511   -2.4562   -0.7420 H   0  0  0  0  0  0  0  0  0  0  0  0
    0.3380   -1.9428   -2.1939 H   0  0  0  0  0  0  0  0  0  0  0  0
  1  2  1  0
  1  5  1  0
  1  6  1  0
  1  7  1  0
  2  4  1  0
  2  3  1  0
  3  8  1  0
  4  9  1  0
  4 10  1  0
  4 11  1  0
 12 13  1  0
 12 14  1  0
 12 15  1  0
 12 16  1  0
M  RAD  1   2   2
M  END
>  <reaction>  (11) 
rxn_849

>  <mol_properties>  (11) 
{"1": {"label": "*1", "atom_type": "Cs"}, "2": {"label": "*0", "atom_type": "S2s"}, "11": {"label": "*3", "atom_type": "Cs"}, "12": {"label": "*2", "atom_type": "H0"}, "13": {"label": "*4", "atom_type": "H0"}}

>  <type>  (11) 
unop_7

>  <geom_source>  (11) 
Heuristics

$$$$

     RDKit          3D

 16 14  0  0  0  0  0  0  0  0999 V2000
   -1.6798    0.4493    0.2033 C   0  0  0  0  0  0  0  0  0  0  0  0
   -0.2396   -0.0158    0.0389 C   0  0  0  0  0  3  0  0  0  0  0  0
    0.8889    1.3720   -0.3311 S   0  0  0  0  0  0  0  0  0  0  0  0
    0.2379   -0.8368    1.2286 C   0  0  0  0  0  0  0  0  0  0  0  0
   -2.0170    1.0110   -0.6671 H   0  0  0  0  0  0  0  0  0  0  0  0
   -1.7774    1.0922    1.0814 H   0  0  0  0  0  0  0  0  0  0  0  0
   -2.3416   -0.4095    0.3423 H   0  0  0  0  0  0  0  0  0  0  0  0
    0.7094    2.0265    0.8255 H   0  0  0  0  0  0  0  0  0  0  0  0
   -0.4105   -1.7045    1.3748 H   0  0  0  0  0  0  0  0  0  0  0  0
    1.2597   -1.1864    1.0848 H   0  0  0  0  0  0  0  0  0  0  0  0
    0.2086   -0.2396    2.1433 H   0  0  0  0  0  0  0  0  0  0  0  0
   -0.2396   -2.4844   -0.8339 C   0  0  0  0  0  0  0  0  0  0  0  0
   -0.2396   -1.2524   -0.3983 H   0  0  0  0  0  0  0  0  0  0  0  0
    0.6495   -2.9977   -0.4709 H   0  0  0  0  0  0  0  0  0  0  0  0
   -1.1287   -2.9977   -0.4709 H   0  0  0  0  0  0  0  0  0  0  0  0
   -0.2396   -2.4844   -1.9228 H   0  0  0  0  0  0  0  0  0  0  0  0
  1  2  1  0
  1  5  1  0
  1  6  1  0
  1  7  1  0
  2  4  1  0
  2  3  1  0
  3  8  1  0
  4  9  1  0
  4 10  1  0
  4 11  1  0
 12 13  1  0
 12 14  1  0
 12 15  1  0
 12 16  1  0
M  RAD  1   2   2
M  END
>  <reaction>  (12) 
rxn_849

>  <mol_properties>  (12) 
{"1": {"label": "*1", "atom_type": "Cs"}, "2": {"label": "*0", "atom_type": "S2s"}, "11": {"label": "*3", "atom_type": "Cs"}, "12": {"label": "*2", "atom_type": "H0"}, "13": {"label": "*4", "atom_type": "H0"}}

>  <type>  (12) 
unop_8

>  <geom_source>  (12) 
Heuristics

$$$$

     RDKit          3D

 16 14  0  0  0  0  0  0  0  0999 V2000
    0.4035    1.2388   -1.2654 C   0  0  0  0  0  0  0  0  0  0  0  0
   -0.3166    0.3580   -0.2539 C   0  0  0  0  0  3  0  0  0  0  0  0
    0.8021   -0.2172    1.0706 S   0  0  0  0  0  0  0  0  0  0  0  0
   -1.5643    1.0277    0.3050 C   0  0  0  0  0  0  0  0  0  0  0  0
    1.2777    0.7361   -1.6777 H   0  0  0  0  0  0  0  0  0  0  0  0
    0.7355    2.1684   -0.7968 H   0  0  0  0  0  0  0  0  0  0  0  0
   -0.2688    1.4997   -2.0868 H   0  0  0  0  0  0  0  0  0  0  0  0
    1.0753    0.9945    1.5758 H   0  0  0  0  0  0  0  0  0  0  0  0
   -2.2503    1.2872   -0.5054 H   0  0  0  0  0  0  0  0  0  0  0  0
   -2.0845    0.3754    1.0056 H   0  0  0  0  0  0  0  0  0  0  0  0
   -1.3023    1.9498    0.8296 H   0  0  0  0  0  0  0  0  0  0  0  0
   -0.3166   -2.1106   -1.1267 C   0  0  0  0  0  0  0  0  0  0  0  0
   -0.3166   -0.8786   -0.6911 H   0  0  0  0  0  0  0  0  0  0  0  0
    0.5725   -2.6239   -0.7637 H   0  0  0  0  0  0  0  0  0  0  0  0
   -1.2057   -2.6239   -0.7637 H   0  0  0  0  0  0  0  0  0  0  0  0
   -0.3166   -2.1106   -2.2156 H   0  0  0  0  0  0  0  0  0  0  0  0
  1  2  1  0
  1  5  1  0
  1  6  1  0
  1  7  1  0
  2  4  1  0
  2  3  1  0
  3  8  1  0
  4  9  1  0
  4 10  1  0
  4 11  1  0
 12 13  1  0
 12 14  1  0
 12 15  1  0
 12 16  1  0
M  RAD  1   2   2
M  END
>  <reaction>  (13) 
rxn_849

>  <mol_properties>  (13) 
{"1": {"label": "*1", "atom_type": "Cs"}, "2": {"label": "*0", "atom_type": "S2s"}, "11": {"label": "*3", "atom_type": "Cs"}, "12": {"label": "*2", "atom_type": "H0"}, "13": {"label": "*4", "atom_type": "H0"}}

>  <type>  (13) 
unop_9

>  <geom_source>  (13) 
Heuristics

$$$$

     RDKit          3D

 16 14  0  0  0  0  0  0  0  0999 V2000
   -1.5050    0.7204   -0.5374 C   0  0  0  0  0  0  0  0  0  0  0  0
   -0.2577    0.0153   -0.0230 C   0  0  0  0  0  3  0  0  0  0  0  0
    1.1833    1.1359    0.0422 S   0  0  0  0  0  0  0  0  0  0  0  0
   -0.4997   -0.6797    1.3097 C   0  0  0  0  0  0  0  0  0  0  0  0
   -1.3253    1.1890   -1.5044 H   0  0  0  0  0  0  0  0  0  0  0  0
   -1.8230    1.4969    0.1626 H   0  0  0  0  0  0  0  0  0  0  0  0
   -2.3270    0.0076   -0.6424 H   0  0  0  0  0  0  0  0  0  0  0  0
    0.6793    1.9788    0.9553 H   0  0  0  0  0  0  0  0  0  0  0  0
   -1.3147   -1.4022    1.2176 H   0  0  0  0  0  0  0  0  0  0  0  0
    0.3923   -1.2032    1.6517 H   0  0  0  0  0  0  0  0  0  0  0  0
   -0.7819    0.0469    2.0756 H   0  0  0  0  0  0  0  0  0  0  0  0
   -0.2577   -2.4532   -0.8957 C   0  0  0  0  0  0  0  0  0  0  0  0
   -0.2577   -1.2213   -0.4602 H   0  0  0  0  0  0  0  0  0  0  0  0
    0.6314   -2.9666   -0.5327 H   0  0  0  0  0  0  0  0  0  0  0  0
   -1.1468   -2.9666   -0.5327 H   0  0  0  0  0  0  0  0  0  0  0  0
   -0.2577   -2.4532   -1.9847 H   0  0  0  0  0  0  0  0  0  0  0  0
  1  2  1  0
  1  5  1  0
  1  6  1  0
  1  7  1  0
  2  4  1  0
  2  3  1  0
  3  8  1  0
  4  9  1  0
  4 10  1  0
  4 11  1  0
 12 13  1  0
 12 14  1  0
 12 15  1  0
 12 16  1  0
M  RAD  1   2   2
M  END
>  <reaction>  (14) 
rxn_849

>  <mol_properties>  (14) 
{"1": {"label": "*1", "atom_type": "Cs"}, "2": {"label": "*0", "atom_type": "S2s"}, "11": {"label": "*3", "atom_type": "Cs"}, "12": {"label": "*2", "atom_type": "H0"}, "13": {"label": "*4", "atom_type": "H0"}}

>  <type>  (14) 
unop_10

>  <geom_source>  (14) 
Heuristics

$$$$

     RDKit          3D

 16 14  0  0  0  0  0  0  0  0999 V2000
    1.2057    0.4004    1.3233 C   0  0  0  0  0  0  0  0  0  0  0  0
    0.4855    0.3511   -0.0171 C   0  0  0  0  0  3  0  0  0  0  0  0
   -1.2753   -0.0976    0.1690 S   0  0  0  0  0  0  0  0  0  0  0  0
    0.6649    1.6365   -0.8127 C   0  0  0  0  0  0  0  0  0  0  0  0
    1.0924   -0.5356    1.8691 H   0  0  0  0  0  0  0  0  0  0  0  0
    0.8062    1.2062    1.9440 H   0  0  0  0  0  0  0  0  0  0  0  0
    2.2716    0.5904    1.1738 H   0  0  0  0  0  0  0  0  0  0  0  0
   -1.6322    0.9800    0.8829 H   0  0  0  0  0  0  0  0  0  0  0  0
    1.7272    1.8352   -0.9771 H   0  0  0  0  0  0  0  0  0  0  0  0
    0.1685    1.5765   -1.7806 H   0  0  0  0  0  0  0  0  0  0  0  0
    0.2462    2.4863   -0.2681 H   0  0  0  0  0  0  0  0  0  0  0  0
    0.4855   -2.1175   -0.8898 C   0  0  0  0  0  0  0  0  0  0  0  0
    0.4855   -0.8855   -0.4543 H   0  0  0  0  0  0  0  0  0  0  0  0
    1.3747   -2.6308   -0.5269 H   0  0  0  0  0  0  0  0  0  0  0  0
   -0.4036   -2.6308   -0.5269 H   0  0  0  0  0  0  0  0  0  0  0  0
    0.4855   -2.1175   -1.9788 H   0  0  0  0  0  0  0  0  0  0  0  0
  1  2  1  0
  1  5  1  0
  1  6  1  0
  1  7  1  0
  2  4  1  0
  2  3  1  0
  3  8  1  0
  4  9  1  0
  4 10  1  0
  4 11  1  0
 12 13  1  0
 12 14  1  0
 12 15  1  0
 12 16  1  0
M  RAD  1   2   2
M  END
>  <reaction>  (15) 
rxn_849

>  <mol_properties>  (15) 
{"1": {"label": "*1", "atom_type": "Cs"}, "2": {"label": "*0", "atom_type": "S2s"}, "11": {"label": "*3", "atom_type": "Cs"}, "12": {"label": "*2", "atom_type": "H0"}, "13": {"label": "*4", "atom_type": "H0"}}

>  <type>  (15) 
unop_11

>  <geom_source>  (15) 
Heuristics

$$$$

     RDKit          3D

 16 14  0  0  0  0  0  0  0  0999 V2000
   -0.3547    1.1328   -1.3331 C   0  0  0  0  0  0  0  0  0  0  0  0
   -0.3547    0.1877   -0.1397 C   0  0  0  0  0  3  0  0  0  0  0  0
    1.2101    0.2717    0.7989 S   0  0  0  0  0  0  0  0  0  0  0  0
   -1.5682    0.3942    0.7561 C   0  0  0  0  0  0  0  0  0  0  0  0
    0.5036    0.9549   -1.9800 H   0  0  0  0  0  0  0  0  0  0  0  0
   -0.3187    2.1726   -0.9989 H   0  0  0  0  0  0  0  0  0  0  0  0
   -1.2673    1.0016   -1.9202 H   0  0  0  0  0  0  0  0  0  0  0  0
    1.0895    1.5513    1.1813 H   0  0  0  0  0  0  0  0  0  0  0  0
   -2.4892    0.2578    0.1836 H   0  0  0  0  0  0  0  0  0  0  0  0
   -1.5697   -0.3072    1.5897 H   0  0  0  0  0  0  0  0  0  0  0  0
   -1.5753    1.4077    1.1647 H   0  0  0  0  0  0  0  0  0  0  0  0
   -0.3547   -2.2809   -1.0124 C   0  0  0  0  0  0  0  0  0  0  0  0
   -0.3547   -1.0489   -0.5769 H   0  0  0  0  0  0  0  0  0  0  0  0
    0.5344   -2.7942   -0.6495 H   0  0  0  0  0  0  0  0  0  0  0  0
   -1.2438   -2.7942   -0.6495 H   0  0  0  0  0  0  0  0  0  0  0  0
   -0.3547   -2.2809   -2.1014 H   0  0  0  0  0  0  0  0  0  0  0  0
  1  2  1  0
  1  5  1  0
  1  6  1  0
  1  7  1  0
  2  4  1  0
  2  3  1  0
  3  8  1  0
  4  9  1  0
  4 10  1  0
  4 11  1  0
 12 13  1  0
 12 14  1  0
 12 15  1  0
 12 16  1  0
M  RAD  1   2   2
M  END
>  <reaction>  (16) 
rxn_849

>  <mol_properties>  (16) 
{"1": {"label": "*1", "atom_type": "Cs"}, "2": {"label": "*0", "atom_type": "S2s"}, "11": {"label": "*3", "atom_type": "Cs"}, "12": {"label": "*2", "atom_type": "H0"}, "13": {"label": "*4", "atom_type": "H0"}}

>  <type>  (16) 
unop_12

>  <geom_source>  (16) 
Heuristics

$$$$

     RDKit          3D

 16 14  0  0  0  0  0  0  0  0999 V2000
   -0.9069    0.7746   -1.6957 S   0  0  0  0  0  0  0  0  0  0  0  0
   -0.4646   -0.0570   -0.1349 C   0  0  0  0  0  3  0  0  0  0  0  0
   -0.7701   -1.5489   -0.2426 C   0  0  0  0  0  0  0  0  0  0  0  0
   -1.2243    0.5751    1.0301 C   0  0  0  0  0  0  0  0  0  0  0  0
    2.0911    0.4329   -0.2763 C   0  0  0  0  0  0  0  0  0  0  0  0
    0.9268    0.1044    0.0858 H   0  0  0  0  0  0  0  0  0  0  0  0
   -0.1924   -1.9904   -1.0818 H   0  0  0  0  0  0  0  0  0  0  0  0
   -0.4734   -2.0666    0.6941 H   0  0  0  0  0  0  0  0  0  0  0  0
   -1.8539   -1.7154   -0.4228 H   0  0  0  0  0  0  0  0  0  0  0  0
   -2.3211    0.4782    0.8809 H   0  0  0  0  0  0  0  0  0  0  0  0
   -0.9417    0.0787    1.9825 H   0  0  0  0  0  0  0  0  0  0  0  0
   -0.9645    1.6515    1.1101 H   0  0  0  0  0  0  0  0  0  0  0  0
    2.4964    1.4486   -0.4629 H   0  0  0  0  0  0  0  0  0  0  0  0
    2.6128   -0.2987   -0.9269 H   0  0  0  0  0  0  0  0  0  0  0  0
    2.2501    0.1610    0.7875 H   0  0  0  0  0  0  0  0  0  0  0  0
   -0.2644    1.9720   -1.3271 H   0  0  0  0  0  0  0  0  0  0  0  0
  1  2  1  0
  1 16  1  0
  2  3  1  0
  2  4  1  0
  3  7  1  0
  3  8  1  0
  3  9  1  0
  4 10  1  0
  4 11  1  0
  4 12  1  0
  5  6  1  0
  5 13  1  0
  5 14  1  0
  5 15  1  0
M  RAD  1   2   2
M  END
>  <reaction>  (17) 
rxn_849

>  <mol_properties>  (17) 
{"1": {"label": "*1", "atom_type": "Cs"}, "2": {"label": "*0", "atom_type": "S2s"}, "11": {"label": "*3", "atom_type": "Cs"}, "12": {"label": "*2", "atom_type": "H0"}, "13": {"label": "*4", "atom_type": "H0"}}

>  <type>  (17) 
unop_13

>  <geom_source>  (17) 
AutoTST

$$$$
