
     RDKit          3D

  9  8  0  0  0  0  0  0  0  0999 V2000
    1.1303   -0.2933   -0.7510 C   0  0  0  0  0  0  0  0  0  0  0  0
    0.2866    0.4560   -0.0588 C   0  0  0  0  0  0  0  0  0  0  0  0
   -0.9719   -0.0331    0.5823 C   0  0  0  0  0  0  0  0  0  0  0  0
    2.0274    0.1230   -1.1916 H   0  0  0  0  0  0  0  0  0  0  0  0
    0.9532   -1.3530   -0.9023 H   0  0  0  0  0  0  0  0  0  0  0  0
    0.5065    1.5132    0.0659 H   0  0  0  0  0  0  0  0  0  0  0  0
   -0.9526    0.1426    1.6610 H   0  0  0  0  0  0  0  0  0  0  0  0
   -1.1182   -1.1002    0.4106 H   0  0  0  0  0  0  0  0  0  0  0  0
   -1.8412    0.5010    0.1901 H   0  0  0  0  0  0  0  0  0  0  0  0
  1  2  2  3
  1  4  1  0
  1  5  1  0
  2  3  1  0
  2  6  1  0
  3  7  1  0
  3  8  1  0
  3  9  1  0
M  END
>  <reaction>  (1) 
rxn_1007

>  <mol_properties>  (1) 
{"2": {"label": "donator", "atom_type": "Cs"}, "6": {"label": "d_hydrogen", "atom_type": "H0"}}

>  <type>  (1) 
r1h

$$$$

     RDKit          3D

  8  7  0  0  0  0  0  0  0  0999 V2000
   -2.2129    0.4855    0.7390 C   0  0  0  0  0  0  0  0  0  0  0  0
   -1.2226    0.0526    0.1974 C   0  0  0  0  0  0  0  0  0  0  0  0
   -0.1006   -0.4575   -0.4419 C   0  0  0  0  0  3  0  0  0  0  0  0
    1.1960   -0.1737   -0.0342 C   0  0  0  0  0  0  0  0  0  0  0  0
    2.3329    0.0603    0.3036 C   0  0  0  0  0  0  0  0  0  0  0  0
   -3.0803    0.8696    1.2198 H   0  0  0  0  0  0  0  0  0  0  0  0
   -0.2433   -1.1067   -1.2980 H   0  0  0  0  0  0  0  0  0  0  0  0
    3.3308    0.2700    0.6058 H   0  0  0  0  0  0  0  0  0  0  0  0
  1  2  3  0
  1  6  1  0
  2  3  1  0
  3  4  1  0
  3  7  1  0
  4  5  3  0
  5  8  1  0
M  RAD  1   3   2
M  END
>  <reaction>  (2) 
rxn_1007

>  <mol_properties>  (2) 
{"2": {"label": "acceptor", "atom_type": "Cs"}}

>  <type>  (2) 
r2

$$$$

     RDKit          3D

  9  8  0  0  0  0  0  0  0  0999 V2000
   -2.1022   -0.6873    0.3932 C   0  0  0  0  0  0  0  0  0  0  0  0
   -1.2072   -0.1086   -0.1482 C   0  0  0  0  0  0  0  0  0  0  0  0
   -0.1242    0.6105   -0.8193 C   0  0  0  0  0  0  0  0  0  0  0  0
    1.2067    0.1106   -0.4741 C   0  0  0  0  0  0  0  0  0  0  0  0
    2.3005   -0.2875   -0.2012 C   0  0  0  0  0  0  0  0  0  0  0  0
   -2.8942   -1.2059    0.8778 H   0  0  0  0  0  0  0  0  0  0  0  0
   -0.1862    1.6723   -0.5649 H   0  0  0  0  0  0  0  0  0  0  0  0
   -0.2641    0.5418   -1.9017 H   0  0  0  0  0  0  0  0  0  0  0  0
    3.2709   -0.6459    0.0455 H   0  0  0  0  0  0  0  0  0  0  0  0
  1  2  3  0
  1  6  1  0
  2  3  1  0
  3  4  1  0
  3  7  1  0
  3  8  1  0
  4  5  3  0
  5  9  1  0
M  END
>  <reaction>  (3) 
rxn_1007

>  <mol_properties>  (3) 
{"2": {"label": "acceptor", "atom_type": "Cs"}, "8": {"label": "a_hydrogen", "atom_type": "H0"}}

>  <type>  (3) 
r2h

$$$$

     RDKit          3D

 17 15  0  0  0  0  0  0  0  0999 V2000
   -1.9776   -1.7281    0.3464 C   0  0  0  0  0  0  0  0  0  0  0  0
   -1.2974   -0.8277    0.7553 C   0  0  0  0  0  0  0  0  0  0  0  0
   -0.4095    0.1996    1.2052 C   0  0  0  0  0  0  0  0  0  0  0  0
   -0.6268    1.5237    0.7061 C   0  0  0  0  0  0  0  0  0  0  0  0
   -0.7434    2.6336    0.2644 C   0  0  0  0  0  0  0  0  0  0  0  0
   -2.6045   -2.5110   -0.0066 H   0  0  0  0  0  0  0  0  0  0  0  0
   -0.1951    0.1618    2.2722 H   0  0  0  0  0  0  0  0  0  0  0  0
   -0.8727    3.6174   -0.1179 H   0  0  0  0  0  0  0  0  0  0  0  0
    1.2631   -0.2985   -2.3303 C   0  0  0  0  0  0  0  0  0  0  0  0
    1.5115   -1.0225   -1.2299 C   0  0  0  0  0  0  0  0  0  0  0  0
    1.9327   -0.4598    0.0303 C   0  0  0  0  0  3  0  0  0  0  0  0
    0.9034   -0.7597   -3.2404 H   0  0  0  0  0  0  0  0  0  0  0  0
    1.4149    0.7749   -2.3420 H   0  0  0  0  0  0  0  0  0  0  0  0
    1.3281   -2.0920   -1.2557 H   0  0  0  0  0  0  0  0  0  0  0  0
    0.7736   -0.1620    0.6797 H   0  0  0  0  0  0  0  0  0  0  0  0
    2.3674    0.5366   -0.0037 H   0  0  0  0  0  0  0  0  0  0  0  0
    2.4120   -1.1301    0.7379 H   0  0  0  0  0  0  0  0  0  0  0  0
  1  2  3  0
  1  6  1  0
  2  3  1  0
  3  4  1  0
  3  7  1  0
  3 15  1  0
  4  5  3  0
  5  8  1  0
  9 10  2  3
  9 12  1  0
  9 13  1  0
 10 11  1  0
 10 14  1  0
 11 16  1  0
 11 17  1  0
M  RAD  1  11   2
M  END
>  <reaction>  (4) 
rxn_1007

>  <mol_properties>  (4) 
{"1": {"label": "*0", "atom_type": "Ct"}, "2": {"label": "*1", "atom_type": "Cs"}, "9": {"label": "*4", "atom_type": "Cd"}, "10": {"label": "*3", "atom_type": "Cs"}, "14": {"label": "*2", "atom_type": "H0"}}

>  <type>  (4) 
ts

$$$$

     RDKit          3D

 17 15  0  0  0  0  0  0  0  0999 V2000
    0.2814    0.4939    3.1374 C   0  0  0  0  0  0  0  0  0  0  0  0
   -0.0762    0.4809    1.9967 C   0  0  0  0  0  0  0  0  0  0  0  0
   -0.5138    0.4649    0.6008 C   0  0  0  0  0  3  0  0  0  0  0  0
   -1.9015    0.0337    0.4317 C   0  0  0  0  0  0  0  0  0  0  0  0
   -3.0355   -0.3186    0.2934 C   0  0  0  0  0  0  0  0  0  0  0  0
    0.5995    0.5055    4.1521 H   0  0  0  0  0  0  0  0  0  0  0  0
   -0.3941    1.4653    0.1754 H   0  0  0  0  0  0  0  0  0  0  0  0
   -4.0443   -0.6321    0.1705 H   0  0  0  0  0  0  0  0  0  0  0  0
    1.5933   -0.7983   -3.1468 C   0  0  0  0  0  0  0  0  0  0  0  0
    1.5933   -0.7983   -1.8230 C   0  0  0  0  0  0  0  0  0  0  0  0
    1.5933    0.4239   -0.9625 C   0  0  0  0  0  0  0  0  0  0  0  0
    1.5933   -1.7211   -3.7133 H   0  0  0  0  0  0  0  0  0  0  0  0
    1.5933    0.1273   -3.7128 H   0  0  0  0  0  0  0  0  0  0  0  0
    1.5933   -1.7510   -1.2995 H   0  0  0  0  0  0  0  0  0  0  0  0
    0.5400    0.4444   -0.1811 H   0  0  0  0  0  0  0  0  0  0  0  0
    1.5933    1.3343   -1.5631 H   0  0  0  0  0  0  0  0  0  0  0  0
    2.4710    0.4410   -0.3113 H   0  0  0  0  0  0  0  0  0  0  0  0
  1  2  3  0
  1  6  1  0
  2  3  1  0
  3  4  1  0
  3  7  1  0
  4  5  3  0
  5  8  1  0
  9 10  2  3
  9 12  1  0
  9 13  1  0
 10 11  1  0
 10 14  1  0
 11 15  1  0
 11 16  1  0
 11 17  1  0
M  RAD  1   3   2
M  END
>  <reaction>  (5) 
rxn_1007

>  <mol_properties>  (5) 
{"1": {"label": "*0", "atom_type": "Ct"}, "2": {"label": "*1", "atom_type": "Cs"}, "9": {"label": "*4", "atom_type": "Cd"}, "10": {"label": "*3", "atom_type": "Cs"}, "14": {"label": "*2", "atom_type": "H0"}}

>  <type>  (5) 
unop_1

>  <geom_source>  (5) 
Heuristics

$$$$

     RDKit          3D

 17 15  0  0  0  0  0  0  0  0999 V2000
   -1.0408   -2.0038    1.5457 C   0  0  0  0  0  0  0  0  0  0  0  0
   -0.7154   -0.8810    1.2957 C   0  0  0  0  0  0  0  0  0  0  0  0
   -0.3171    0.4931    0.9898 C   0  0  0  0  0  3  0  0  0  0  0  0
   -1.4504    1.3874    0.7522 C   0  0  0  0  0  0  0  0  0  0  0  0
   -2.3764    2.1182    0.5581 C   0  0  0  0  0  0  0  0  0  0  0  0
   -1.3303   -3.0027    1.7681 H   0  0  0  0  0  0  0  0  0  0  0  0
    0.2831    0.8854    1.8154 H   0  0  0  0  0  0  0  0  0  0  0  0
   -3.2002    2.7682    0.3854 H   0  0  0  0  0  0  0  0  0  0  0  0
    1.7899   -0.7701   -2.7578 C   0  0  0  0  0  0  0  0  0  0  0  0
    1.7899   -0.7701   -1.4340 C   0  0  0  0  0  0  0  0  0  0  0  0
    1.7899    0.4520   -0.5735 C   0  0  0  0  0  0  0  0  0  0  0  0
    1.7899   -1.6929   -3.3243 H   0  0  0  0  0  0  0  0  0  0  0  0
    1.7899    0.1555   -3.3238 H   0  0  0  0  0  0  0  0  0  0  0  0
    1.7899   -1.7228   -0.9105 H   0  0  0  0  0  0  0  0  0  0  0  0
    0.7366    0.4726    0.2079 H   0  0  0  0  0  0  0  0  0  0  0  0
    1.7899    1.3625   -1.1741 H   0  0  0  0  0  0  0  0  0  0  0  0
    2.6676    0.4692    0.0777 H   0  0  0  0  0  0  0  0  0  0  0  0
  1  2  3  0
  1  6  1  0
  2  3  1  0
  3  4  1  0
  3  7  1  0
  4  5  3  0
  5  8  1  0
  9 10  2  3
  9 12  1  0
  9 13  1  0
 10 11  1  0
 10 14  1  0
 11 15  1  0
 11 16  1  0
 11 17  1  0
M  RAD  1   3   2
M  END
>  <reaction>  (6) 
rxn_1007

>  <mol_properties>  (6) 
{"1": {"label": "*0", "atom_type": "Ct"}, "2": {"label": "*1", "atom_type": "Cs"}, "9": {"label": "*4", "atom_type": "Cd"}, "10": {"label": "*3", "atom_type": "Cs"}, "14": {"label": "*2", "atom_type": "H0"}}

>  <type>  (6) 
unop_2

>  <geom_source>  (6) 
Heuristics

$$$$

     RDKit          3D

 17 15  0  0  0  0  0  0  0  0999 V2000
    0.0026    1.7224    2.7866 C   0  0  0  0  0  0  0  0  0  0  0  0
   -0.2699    1.1458    1.7755 C   0  0  0  0  0  0  0  0  0  0  0  0
   -0.6033    0.4401    0.5380 C   0  0  0  0  0  3  0  0  0  0  0  0
   -1.6150   -0.6014    0.7174 C   0  0  0  0  0  0  0  0  0  0  0  0
   -2.4416   -1.4525    0.8641 C   0  0  0  0  0  0  0  0  0  0  0  0
    0.2450    2.2353    3.6862 H   0  0  0  0  0  0  0  0  0  0  0  0
   -0.9585    1.1621   -0.2026 H   0  0  0  0  0  0  0  0  0  0  0  0
   -3.1770   -2.2096    0.9945 H   0  0  0  0  0  0  0  0  0  0  0  0
    1.5037   -0.8231   -3.2095 C   0  0  0  0  0  0  0  0  0  0  0  0
    1.5037   -0.8231   -1.8858 C   0  0  0  0  0  0  0  0  0  0  0  0
    1.5037    0.3991   -1.0253 C   0  0  0  0  0  0  0  0  0  0  0  0
    1.5037   -1.7459   -3.7760 H   0  0  0  0  0  0  0  0  0  0  0  0
    1.5037    0.1025   -3.7756 H   0  0  0  0  0  0  0  0  0  0  0  0
    1.5037   -1.7758   -1.3623 H   0  0  0  0  0  0  0  0  0  0  0  0
    0.4504    0.4196   -0.2438 H   0  0  0  0  0  0  0  0  0  0  0  0
    1.5037    1.3095   -1.6259 H   0  0  0  0  0  0  0  0  0  0  0  0
    2.3814    0.4162   -0.3741 H   0  0  0  0  0  0  0  0  0  0  0  0
  1  2  3  0
  1  6  1  0
  2  3  1  0
  3  4  1  0
  3  7  1  0
  4  5  3  0
  5  8  1  0
  9 10  2  3
  9 12  1  0
  9 13  1  0
 10 11  1  0
 10 14  1  0
 11 15  1  0
 11 16  1  0
 11 17  1  0
M  RAD  1   3   2
M  END
>  <reaction>  (7) 
rxn_1007

>  <mol_properties>  (7) 
{"1": {"label": "*0", "atom_type": "Ct"}, "2": {"label": "*1", "atom_type": "Cs"}, "9": {"label": "*4", "atom_type": "Cd"}, "10": {"label": "*3", "atom_type": "Cs"}, "14": {"label": "*2", "atom_type": "H0"}}

>  <type>  (7) 
unop_3

>  <geom_source>  (7) 
Heuristics

$$$$

     RDKit          3D

 17 15  0  0  0  0  0  0  0  0999 V2000
   -2.7876   -0.1302   -0.3073 C   0  0  0  0  0  0  0  0  0  0  0  0
   -1.7994   -0.1295    0.3655 C   0  0  0  0  0  0  0  0  0  0  0  0
   -0.5901   -0.1286    1.1888 C   0  0  0  0  0  3  0  0  0  0  0  0
   -0.1016    1.2143    1.5025 C   0  0  0  0  0  0  0  0  0  0  0  0
    0.2976    2.3116    1.7589 C   0  0  0  0  0  0  0  0  0  0  0  0
   -3.6667   -0.1309   -0.9058 H   0  0  0  0  0  0  0  0  0  0  0  0
   -0.7896   -0.6650    2.1207 H   0  0  0  0  0  0  0  0  0  0  0  0
    0.6527    3.2878    1.9869 H   0  0  0  0  0  0  0  0  0  0  0  0
    1.5169   -1.3919   -2.5587 C   0  0  0  0  0  0  0  0  0  0  0  0
    1.5169   -1.3919   -1.2350 C   0  0  0  0  0  0  0  0  0  0  0  0
    1.5169   -0.1697   -0.3745 C   0  0  0  0  0  0  0  0  0  0  0  0
    1.5169   -2.3146   -3.1252 H   0  0  0  0  0  0  0  0  0  0  0  0
    1.5169   -0.4663   -3.1247 H   0  0  0  0  0  0  0  0  0  0  0  0
    1.5169   -2.3445   -0.7115 H   0  0  0  0  0  0  0  0  0  0  0  0
    0.4637   -0.1491    0.4070 H   0  0  0  0  0  0  0  0  0  0  0  0
    1.5169    0.7408   -0.9751 H   0  0  0  0  0  0  0  0  0  0  0  0
    2.3947   -0.1526    0.2767 H   0  0  0  0  0  0  0  0  0  0  0  0
  1  2  3  0
  1  6  1  0
  2  3  1  0
  3  4  1  0
  3  7  1  0
  4  5  3  0
  5  8  1  0
  9 10  2  3
  9 12  1  0
  9 13  1  0
 10 11  1  0
 10 14  1  0
 11 15  1  0
 11 16  1  0
 11 17  1  0
M  RAD  1   3   2
M  END
>  <reaction>  (8) 
rxn_1007

>  <mol_properties>  (8) 
{"1": {"label": "*0", "atom_type": "Ct"}, "2": {"label": "*1", "atom_type": "Cs"}, "9": {"label": "*4", "atom_type": "Cd"}, "10": {"label": "*3", "atom_type": "Cs"}, "14": {"label": "*2", "atom_type": "H0"}}

>  <type>  (8) 
unop_4

>  <geom_source>  (8) 
Heuristics

$$$$

     RDKit          3D

 17 15  0  0  0  0  0  0  0  0999 V2000
   -0.7647    2.5355    1.9692 C   0  0  0  0  0  0  0  0  0  0  0  0
   -0.7946    1.5482    1.2958 C   0  0  0  0  0  0  0  0  0  0  0  0
   -0.8311    0.3399    0.4717 C   0  0  0  0  0  3  0  0  0  0  0  0
   -0.8735   -0.8958    1.2537 C   0  0  0  0  0  0  0  0  0  0  0  0
   -0.9081   -1.9056    1.8927 C   0  0  0  0  0  0  0  0  0  0  0  0
   -0.7381    3.4139    2.5683 H   0  0  0  0  0  0  0  0  0  0  0  0
   -1.7046    0.3794   -0.1851 H   0  0  0  0  0  0  0  0  0  0  0  0
   -0.9388   -2.8039    2.4611 H   0  0  0  0  0  0  0  0  0  0  0  0
    1.2759   -0.9233   -3.2758 C   0  0  0  0  0  0  0  0  0  0  0  0
    1.2759   -0.9233   -1.9521 C   0  0  0  0  0  0  0  0  0  0  0  0
    1.2759    0.2988   -1.0916 C   0  0  0  0  0  0  0  0  0  0  0  0
    1.2759   -1.8461   -3.8423 H   0  0  0  0  0  0  0  0  0  0  0  0
    1.2759    0.0023   -3.8418 H   0  0  0  0  0  0  0  0  0  0  0  0
    1.2759   -1.8760   -1.4286 H   0  0  0  0  0  0  0  0  0  0  0  0
    0.2226    0.3194   -0.3101 H   0  0  0  0  0  0  0  0  0  0  0  0
    1.2759    1.2093   -1.6922 H   0  0  0  0  0  0  0  0  0  0  0  0
    2.1536    0.3160   -0.4404 H   0  0  0  0  0  0  0  0  0  0  0  0
  1  2  3  0
  1  6  1  0
  2  3  1  0
  3  4  1  0
  3  7  1  0
  4  5  3  0
  5  8  1  0
  9 10  2  3
  9 12  1  0
  9 13  1  0
 10 11  1  0
 10 14  1  0
 11 15  1  0
 11 16  1  0
 11 17  1  0
M  RAD  1   3   2
M  END
>  <reaction>  (9) 
rxn_1007

>  <mol_properties>  (9) 
{"1": {"label": "*0", "atom_type": "Ct"}, "2": {"label": "*1", "atom_type": "Cs"}, "9": {"label": "*4", "atom_type": "Cd"}, "10": {"label": "*3", "atom_type": "Cs"}, "14": {"label": "*2", "atom_type": "H0"}}

>  <type>  (9) 
unop_5

>  <geom_source>  (9) 
Heuristics

$$$$

     RDKit          3D

 17 15  0  0  0  0  0  0  0  0999 V2000
   -2.7694    1.0398   -0.2219 C   0  0  0  0  0  0  0  0  0  0  0  0
   -1.8764    0.4751    0.3375 C   0  0  0  0  0  0  0  0  0  0  0  0
   -0.7836   -0.2160    1.0220 C   0  0  0  0  0  3  0  0  0  0  0  0
    0.1536    0.6916    1.6841 C   0  0  0  0  0  0  0  0  0  0  0  0
    0.9194    1.4332    2.2252 C   0  0  0  0  0  0  0  0  0  0  0  0
   -3.5638    1.5421   -0.7195 H   0  0  0  0  0  0  0  0  0  0  0  0
   -1.2015   -0.9037    1.7625 H   0  0  0  0  0  0  0  0  0  0  0  0
    1.6006    2.0929    2.7065 H   0  0  0  0  0  0  0  0  0  0  0  0
    1.3234   -1.4792   -2.7256 C   0  0  0  0  0  0  0  0  0  0  0  0
    1.3234   -1.4792   -1.4018 C   0  0  0  0  0  0  0  0  0  0  0  0
    1.3234   -0.2570   -0.5413 C   0  0  0  0  0  0  0  0  0  0  0  0
    1.3234   -2.4020   -3.2920 H   0  0  0  0  0  0  0  0  0  0  0  0
    1.3234   -0.5536   -3.2916 H   0  0  0  0  0  0  0  0  0  0  0  0
    1.3234   -2.4319   -0.8783 H   0  0  0  0  0  0  0  0  0  0  0  0
    0.2702   -0.2365    0.2402 H   0  0  0  0  0  0  0  0  0  0  0  0
    1.3234    0.6534   -1.1419 H   0  0  0  0  0  0  0  0  0  0  0  0
    2.2011   -0.2399    0.1099 H   0  0  0  0  0  0  0  0  0  0  0  0
  1  2  3  0
  1  6  1  0
  2  3  1  0
  3  4  1  0
  3  7  1  0
  4  5  3  0
  5  8  1  0
  9 10  2  3
  9 12  1  0
  9 13  1  0
 10 11  1  0
 10 14  1  0
 11 15  1  0
 11 16  1  0
 11 17  1  0
M  RAD  1   3   2
M  END
>  <reaction>  (10) 
rxn_1007

>  <mol_properties>  (10) 
{"1": {"label": "*0", "atom_type": "Ct"}, "2": {"label": "*1", "atom_type": "Cs"}, "9": {"label": "*4", "atom_type": "Cd"}, "10": {"label": "*3", "atom_type": "Cs"}, "14": {"label": "*2", "atom_type": "H0"}}

>  <type>  (10) 
unop_6

>  <geom_source>  (10) 
Heuristics

$$$$

     RDKit          3D

 17 15  0  0  0  0  0  0  0  0999 V2000
   -2.3780    2.0201    0.2793 C   0  0  0  0  0  0  0  0  0  0  0  0
   -1.7350    1.0396    0.5126 C   0  0  0  0  0  0  0  0  0  0  0  0
   -0.9481   -0.1602    0.7982 C   0  0  0  0  0  3  0  0  0  0  0  0
    0.1650    0.0797    1.7168 C   0  0  0  0  0  0  0  0  0  0  0  0
    1.0745    0.2759    2.4674 C   0  0  0  0  0  0  0  0  0  0  0  0
   -2.9500    2.8923    0.0717 H   0  0  0  0  0  0  0  0  0  0  0  0
   -1.6032   -0.9274    1.2204 H   0  0  0  0  0  0  0  0  0  0  0  0
    1.8837    0.4503    3.1351 H   0  0  0  0  0  0  0  0  0  0  0  0
    1.1589   -1.4235   -2.9494 C   0  0  0  0  0  0  0  0  0  0  0  0
    1.1589   -1.4235   -1.6256 C   0  0  0  0  0  0  0  0  0  0  0  0
    1.1589   -0.2013   -0.7651 C   0  0  0  0  0  0  0  0  0  0  0  0
    1.1589   -2.3462   -3.5159 H   0  0  0  0  0  0  0  0  0  0  0  0
    1.1589   -0.4979   -3.5154 H   0  0  0  0  0  0  0  0  0  0  0  0
    1.1589   -2.3761   -1.1021 H   0  0  0  0  0  0  0  0  0  0  0  0
    0.1056   -0.1808    0.0163 H   0  0  0  0  0  0  0  0  0  0  0  0
    1.1589    0.7091   -1.3657 H   0  0  0  0  0  0  0  0  0  0  0  0
    2.0366   -0.1842   -0.1139 H   0  0  0  0  0  0  0  0  0  0  0  0
  1  2  3  0
  1  6  1  0
  2  3  1  0
  3  4  1  0
  3  7  1  0
  4  5  3  0
  5  8  1  0
  9 10  2  3
  9 12  1  0
  9 13  1  0
 10 11  1  0
 10 14  1  0
 11 15  1  0
 11 16  1  0
 11 17  1  0
M  RAD  1   3   2
M  END
>  <reaction>  (11) 
rxn_1007

>  <mol_properties>  (11) 
{"1": {"label": "*0", "atom_type": "Ct"}, "2": {"label": "*1", "atom_type": "Cs"}, "9": {"label": "*4", "atom_type": "Cd"}, "10": {"label": "*3", "atom_type": "Cs"}, "14": {"label": "*2", "atom_type": "H0"}}

>  <type>  (11) 
unop_7

>  <geom_source>  (11) 
Heuristics

$$$$

     RDKit          3D

 17 15  0  0  0  0  0  0  0  0999 V2000
    0.1241   -0.7116    2.9569 C   0  0  0  0  0  0  0  0  0  0  0  0
   -0.1383   -0.1592    1.9296 C   0  0  0  0  0  0  0  0  0  0  0  0
   -0.4594    0.5168    0.6725 C   0  0  0  0  0  3  0  0  0  0  0  0
   -1.8966    0.6277    0.4230 C   0  0  0  0  0  0  0  0  0  0  0  0
   -3.0711    0.7184    0.2190 C   0  0  0  0  0  0  0  0  0  0  0  0
    0.3575   -1.2030    3.8707 H   0  0  0  0  0  0  0  0  0  0  0  0
   -0.0178    1.5172    0.6797 H   0  0  0  0  0  0  0  0  0  0  0  0
   -4.1159    0.7991    0.0376 H   0  0  0  0  0  0  0  0  0  0  0  0
    1.6476   -0.7465   -3.0750 C   0  0  0  0  0  0  0  0  0  0  0  0
    1.6476   -0.7465   -1.7513 C   0  0  0  0  0  0  0  0  0  0  0  0
    1.6476    0.4757   -0.8908 C   0  0  0  0  0  0  0  0  0  0  0  0
    1.6476   -1.6692   -3.6415 H   0  0  0  0  0  0  0  0  0  0  0  0
    1.6476    0.1791   -3.6410 H   0  0  0  0  0  0  0  0  0  0  0  0
    1.6476   -1.6991   -1.2278 H   0  0  0  0  0  0  0  0  0  0  0  0
    0.5944    0.4962   -0.1093 H   0  0  0  0  0  0  0  0  0  0  0  0
    1.6476    1.3861   -1.4914 H   0  0  0  0  0  0  0  0  0  0  0  0
    2.5254    0.4928   -0.2395 H   0  0  0  0  0  0  0  0  0  0  0  0
  1  2  3  0
  1  6  1  0
  2  3  1  0
  3  4  1  0
  3  7  1  0
  4  5  3  0
  5  8  1  0
  9 10  2  3
  9 12  1  0
  9 13  1  0
 10 11  1  0
 10 14  1  0
 11 15  1  0
 11 16  1  0
 11 17  1  0
M  RAD  1   3   2
M  END
>  <reaction>  (12) 
rxn_1007

>  <mol_properties>  (12) 
{"1": {"label": "*0", "atom_type": "Ct"}, "2": {"label": "*1", "atom_type": "Cs"}, "9": {"label": "*4", "atom_type": "Cd"}, "10": {"label": "*3", "atom_type": "Cs"}, "14": {"label": "*2", "atom_type": "H0"}}

>  <type>  (12) 
unop_8

>  <geom_source>  (12) 
Heuristics

$$$$

     RDKit          3D

 17 15  0  0  0  0  0  0  0  0999 V2000
   -2.4237   -1.1862    0.0413 C   0  0  0  0  0  0  0  0  0  0  0  0
   -1.5206   -0.6219    0.5846 C   0  0  0  0  0  0  0  0  0  0  0  0
   -0.4154    0.0687    1.2494 C   0  0  0  0  0  3  0  0  0  0  0  0
   -0.5430    1.5259    1.2267 C   0  0  0  0  0  0  0  0  0  0  0  0
   -0.6472    2.7167    1.2081 C   0  0  0  0  0  0  0  0  0  0  0  0
   -3.2271   -1.6882   -0.4420 H   0  0  0  0  0  0  0  0  0  0  0  0
   -0.3525   -0.2702    2.2873 H   0  0  0  0  0  0  0  0  0  0  0  0
   -0.7399    3.7760    1.1915 H   0  0  0  0  0  0  0  0  0  0  0  0
    1.6916   -1.1946   -2.4981 C   0  0  0  0  0  0  0  0  0  0  0  0
    1.6916   -1.1946   -1.1744 C   0  0  0  0  0  0  0  0  0  0  0  0
    1.6916    0.0276   -0.3139 C   0  0  0  0  0  0  0  0  0  0  0  0
    1.6916   -2.1173   -3.0646 H   0  0  0  0  0  0  0  0  0  0  0  0
    1.6916   -0.2690   -3.0642 H   0  0  0  0  0  0  0  0  0  0  0  0
    1.6916   -2.1472   -0.6509 H   0  0  0  0  0  0  0  0  0  0  0  0
    0.6384    0.0481    0.4676 H   0  0  0  0  0  0  0  0  0  0  0  0
    1.6916    0.9380   -0.9145 H   0  0  0  0  0  0  0  0  0  0  0  0
    2.5693    0.0447    0.3373 H   0  0  0  0  0  0  0  0  0  0  0  0
  1  2  3  0
  1  6  1  0
  2  3  1  0
  3  4  1  0
  3  7  1  0
  4  5  3  0
  5  8  1  0
  9 10  2  3
  9 12  1  0
  9 13  1  0
 10 11  1  0
 10 14  1  0
 11 15  1  0
 11 16  1  0
 11 17  1  0
M  RAD  1   3   2
M  END
>  <reaction>  (13) 
rxn_1007

>  <mol_properties>  (13) 
{"1": {"label": "*0", "atom_type": "Ct"}, "2": {"label": "*1", "atom_type": "Cs"}, "9": {"label": "*4", "atom_type": "Cd"}, "10": {"label": "*3", "atom_type": "Cs"}, "14": {"label": "*2", "atom_type": "H0"}}

>  <type>  (13) 
unop_9

>  <geom_source>  (13) 
Heuristics

$$$$

     RDKit          3D

 17 15  0  0  0  0  0  0  0  0999 V2000
   -0.3601   -1.6024    2.3616 C   0  0  0  0  0  0  0  0  0  0  0  0
   -0.3725   -0.6342    1.6604 C   0  0  0  0  0  0  0  0  0  0  0  0
   -0.3876    0.5506    0.8023 C   0  0  0  0  0  3  0  0  0  0  0  0
   -1.7311    1.0788    0.5645 C   0  0  0  0  0  0  0  0  0  0  0  0
   -2.8289    1.5105    0.3702 C   0  0  0  0  0  0  0  0  0  0  0  0
   -0.3491   -2.4636    2.9854 H   0  0  0  0  0  0  0  0  0  0  0  0
    0.2299    1.3307    1.2560 H   0  0  0  0  0  0  0  0  0  0  0  0
   -3.8054    1.8945    0.1974 H   0  0  0  0  0  0  0  0  0  0  0  0
    1.7194   -0.7127   -2.9453 C   0  0  0  0  0  0  0  0  0  0  0  0
    1.7194   -0.7127   -1.6216 C   0  0  0  0  0  0  0  0  0  0  0  0
    1.7194    0.5095   -0.7610 C   0  0  0  0  0  0  0  0  0  0  0  0
    1.7194   -1.6354   -3.5118 H   0  0  0  0  0  0  0  0  0  0  0  0
    1.7194    0.2129   -3.5113 H   0  0  0  0  0  0  0  0  0  0  0  0
    1.7194   -1.6653   -1.0980 H   0  0  0  0  0  0  0  0  0  0  0  0
    0.6661    0.5300    0.0204 H   0  0  0  0  0  0  0  0  0  0  0  0
    1.7194    1.4199   -1.3616 H   0  0  0  0  0  0  0  0  0  0  0  0
    2.5971    0.5266   -0.1098 H   0  0  0  0  0  0  0  0  0  0  0  0
  1  2  3  0
  1  6  1  0
  2  3  1  0
  3  4  1  0
  3  7  1  0
  4  5  3  0
  5  8  1  0
  9 10  2  3
  9 12  1  0
  9 13  1  0
 10 11  1  0
 10 14  1  0
 11 15  1  0
 11 16  1  0
 11 17  1  0
M  RAD  1   3   2
M  END
>  <reaction>  (14) 
rxn_1007

>  <mol_properties>  (14) 
{"1": {"label": "*0", "atom_type": "Ct"}, "2": {"label": "*1", "atom_type": "Cs"}, "9": {"label": "*4", "atom_type": "Cd"}, "10": {"label": "*3", "atom_type": "Cs"}, "14": {"label": "*2", "atom_type": "H0"}}

>  <type>  (14) 
unop_10

>  <geom_source>  (14) 
Heuristics

$$$$

     RDKit          3D

 17 15  0  0  0  0  0  0  0  0999 V2000
   -1.6830    2.5793    1.0590 C   0  0  0  0  0  0  0  0  0  0  0  0
   -1.3778    1.4441    0.8411 C   0  0  0  0  0  0  0  0  0  0  0  0
   -1.0043    0.0550    0.5745 C   0  0  0  0  0  3  0  0  0  0  0  0
   -0.1354   -0.5205    1.6012 C   0  0  0  0  0  0  0  0  0  0  0  0
    0.5747   -0.9908    2.4402 C   0  0  0  0  0  0  0  0  0  0  0  0
   -1.9545    3.5891    1.2528 H   0  0  0  0  0  0  0  0  0  0  0  0
   -1.9108   -0.5509    0.4902 H   0  0  0  0  0  0  0  0  0  0  0  0
    1.2063   -1.4092    3.1865 H   0  0  0  0  0  0  0  0  0  0  0  0
    1.1027   -1.2083   -3.1731 C   0  0  0  0  0  0  0  0  0  0  0  0
    1.1027   -1.2083   -1.8493 C   0  0  0  0  0  0  0  0  0  0  0  0
    1.1027    0.0139   -0.9888 C   0  0  0  0  0  0  0  0  0  0  0  0
    1.1027   -2.1310   -3.7396 H   0  0  0  0  0  0  0  0  0  0  0  0
    1.1027   -0.2827   -3.7391 H   0  0  0  0  0  0  0  0  0  0  0  0
    1.1027   -2.1609   -1.3258 H   0  0  0  0  0  0  0  0  0  0  0  0
    0.0495    0.0344   -0.2074 H   0  0  0  0  0  0  0  0  0  0  0  0
    1.1027    0.9243   -1.5894 H   0  0  0  0  0  0  0  0  0  0  0  0
    1.9804    0.0310   -0.3376 H   0  0  0  0  0  0  0  0  0  0  0  0
  1  2  3  0
  1  6  1  0
  2  3  1  0
  3  4  1  0
  3  7  1  0
  4  5  3  0
  5  8  1  0
  9 10  2  3
  9 12  1  0
  9 13  1  0
 10 11  1  0
 10 14  1  0
 11 15  1  0
 11 16  1  0
 11 17  1  0
M  RAD  1   3   2
M  END
>  <reaction>  (15) 
rxn_1007

>  <mol_properties>  (15) 
{"1": {"label": "*0", "atom_type": "Ct"}, "2": {"label": "*1", "atom_type": "Cs"}, "9": {"label": "*4", "atom_type": "Cd"}, "10": {"label": "*3", "atom_type": "Cs"}, "14": {"label": "*2", "atom_type": "H0"}}

>  <type>  (15) 
unop_11

>  <geom_source>  (15) 
Heuristics

$$$$

     RDKit          3D

 17 15  0  0  0  0  0  0  0  0999 V2000
   -1.7816   -1.8571    0.7140 C   0  0  0  0  0  0  0  0  0  0  0  0
   -1.1211   -0.8821    0.9195 C   0  0  0  0  0  0  0  0  0  0  0  0
   -0.3128    0.3111    1.1710 C   0  0  0  0  0  3  0  0  0  0  0  0
   -1.0422    1.5619    0.9616 C   0  0  0  0  0  0  0  0  0  0  0  0
   -1.6382    2.5840    0.7905 C   0  0  0  0  0  0  0  0  0  0  0  0
   -2.3692   -2.7245    0.5312 H   0  0  0  0  0  0  0  0  0  0  0  0
    0.0617    0.2814    2.1981 H   0  0  0  0  0  0  0  0  0  0  0  0
   -2.1685    3.4933    0.6383 H   0  0  0  0  0  0  0  0  0  0  0  0
    1.7942   -0.9521   -2.5765 C   0  0  0  0  0  0  0  0  0  0  0  0
    1.7942   -0.9521   -1.2528 C   0  0  0  0  0  0  0  0  0  0  0  0
    1.7942    0.2701   -0.3922 C   0  0  0  0  0  0  0  0  0  0  0  0
    1.7942   -1.8748   -3.1430 H   0  0  0  0  0  0  0  0  0  0  0  0
    1.7942   -0.0265   -3.1425 H   0  0  0  0  0  0  0  0  0  0  0  0
    1.7942   -1.9047   -0.7292 H   0  0  0  0  0  0  0  0  0  0  0  0
    0.7409    0.2906    0.3892 H   0  0  0  0  0  0  0  0  0  0  0  0
    1.7942    1.1805   -0.9928 H   0  0  0  0  0  0  0  0  0  0  0  0
    2.6719    0.2872    0.2590 H   0  0  0  0  0  0  0  0  0  0  0  0
  1  2  3  0
  1  6  1  0
  2  3  1  0
  3  4  1  0
  3  7  1  0
  4  5  3  0
  5  8  1  0
  9 10  2  3
  9 12  1  0
  9 13  1  0
 10 11  1  0
 10 14  1  0
 11 15  1  0
 11 16  1  0
 11 17  1  0
M  RAD  1   3   2
M  END
>  <reaction>  (16) 
rxn_1007

>  <mol_properties>  (16) 
{"1": {"label": "*0", "atom_type": "Ct"}, "2": {"label": "*1", "atom_type": "Cs"}, "9": {"label": "*4", "atom_type": "Cd"}, "10": {"label": "*3", "atom_type": "Cs"}, "14": {"label": "*2", "atom_type": "H0"}}

>  <type>  (16) 
unop_12

>  <geom_source>  (16) 
Heuristics

$$$$

     RDKit          3D

 17 15  0  0  0  0  0  0  0  0999 V2000
   -0.9549    0.3812    0.0390 C   0  0  0  0  0  3  0  0  0  0  0  0
    2.0718   -0.5253    0.5308 C   0  0  0  0  0  0  0  0  0  0  0  0
    1.0892   -1.2017   -0.3704 C   0  0  0  0  0  0  0  0  0  0  0  0
    2.6388    0.6297    0.1791 C   0  0  0  0  0  0  0  0  0  0  0  0
   -1.9394   -0.1522    0.9825 C   0  0  0  0  0  0  0  0  0  0  0  0
   -1.6416    0.9616   -1.1165 C   0  0  0  0  0  0  0  0  0  0  0  0
   -2.7486   -0.5923    1.7605 C   0  0  0  0  0  0  0  0  0  0  0  0
   -2.2052    1.4399   -2.0691 C   0  0  0  0  0  0  0  0  0  0  0  0
   -0.3492    1.1640    0.5404 H   0  0  0  0  0  0  0  0  0  0  0  0
   -0.1381   -0.6235   -0.3782 H   0  0  0  0  0  0  0  0  0  0  0  0
    2.3170   -0.9738    1.4889 H   0  0  0  0  0  0  0  0  0  0  0  0
    3.3458    1.1128    0.8457 H   0  0  0  0  0  0  0  0  0  0  0  0
    2.4040    1.1003   -0.7711 H   0  0  0  0  0  0  0  0  0  0  0  0
    0.6865   -2.1112    0.1224 H   0  0  0  0  0  0  0  0  0  0  0  0
    1.5829   -1.4907   -1.3222 H   0  0  0  0  0  0  0  0  0  0  0  0
   -3.4589   -0.9785    2.4433 H   0  0  0  0  0  0  0  0  0  0  0  0
   -2.7001    1.8596   -2.9051 H   0  0  0  0  0  0  0  0  0  0  0  0
  1  5  1  0
  1  6  1  0
  1  9  1  0
  2  4  2  3
  2  3  1  0
  2 11  1  0
  3 10  1  0
  3 14  1  0
  3 15  1  0
  4 12  1  0
  4 13  1  0
  5  7  3  0
  6  8  3  0
  7 16  1  0
  8 17  1  0
M  RAD  1   1   2
M  END
>  <reaction>  (17) 
rxn_1007

>  <mol_properties>  (17) 
{"1": {"label": "*0", "atom_type": "Ct"}, "2": {"label": "*1", "atom_type": "Cs"}, "9": {"label": "*4", "atom_type": "Cd"}, "10": {"label": "*3", "atom_type": "Cs"}, "14": {"label": "*2", "atom_type": "H0"}}

>  <type>  (17) 
unop_13

>  <geom_source>  (17) 
AutoTST

$$$$

     RDKit          3D

 17 15  0  0  0  0  0  0  0  0999 V2000
   -1.0408   -2.0038    1.5457 C   0  0  0  0  0  0  0  0  0  0  0  0
   -0.7154   -0.8810    1.2957 C   0  0  0  0  0  0  0  0  0  0  0  0
   -0.3171    0.4931    0.9898 C   0  0  0  0  0  3  0  0  0  0  0  0
   -1.4504    1.3874    0.7522 C   0  0  0  0  0  0  0  0  0  0  0  0
   -2.3764    2.1182    0.5581 C   0  0  0  0  0  0  0  0  0  0  0  0
   -1.3303   -3.0027    1.7681 H   0  0  0  0  0  0  0  0  0  0  0  0
    0.2831    0.8854    1.8154 H   0  0  0  0  0  0  0  0  0  0  0  0
   -3.2002    2.7682    0.3854 H   0  0  0  0  0  0  0  0  0  0  0  0
    1.7899   -0.7701   -2.7578 C   0  0  0  0  0  0  0  0  0  0  0  0
    1.7899   -0.7701   -1.4341 C   0  0  0  0  0  0  0  0  0  0  0  0
    1.7899    0.4520   -0.5735 C   0  0  0  0  0  0  0  0  0  0  0  0
    1.7899   -1.6929   -3.3243 H   0  0  0  0  0  0  0  0  0  0  0  0
    1.7899    0.1555   -3.3238 H   0  0  0  0  0  0  0  0  0  0  0  0
    1.7899   -1.7228   -0.9105 H   0  0  0  0  0  0  0  0  0  0  0  0
    0.7366    0.4726    0.2079 H   0  0  0  0  0  0  0  0  0  0  0  0
    1.7899    1.3625   -1.1741 H   0  0  0  0  0  0  0  0  0  0  0  0
    2.6676    0.4692    0.0777 H   0  0  0  0  0  0  0  0  0  0  0  0
  1  2  3  0
  1  6  1  0
  2  3  1  0
  3  4  1  0
  3  7  1  0
  4  5  3  0
  5  8  1  0
  9 10  2  3
  9 12  1  0
  9 13  1  0
 10 11  1  0
 10 14  1  0
 11 15  1  0
 11 16  1  0
 11 17  1  0
M  RAD  1   3   2
M  END
>  <reaction>  (18) 
rxn_1007

>  <mol_properties>  (18) 
{"1": {"label": "*0", "atom_type": "Ct"}, "2": {"label": "*1", "atom_type": "Cs"}, "9": {"label": "*4", "atom_type": "Cd"}, "10": {"label": "*3", "atom_type": "Cs"}, "14": {"label": "*2", "atom_type": "H0"}}

>  <type>  (18) 
unop_14

>  <geom_source>  (18) 
gaussian_log

$$$$
