
     RDKit          3D

 15 15  0  0  0  0  0  0  0  0999 V2000
    2.2031   -0.2111   -0.1693 C   0  0  0  0  0  0  0  0  0  0  0  0
    0.7140   -0.0314   -0.0623 C   0  0  0  0  0  0  0  0  0  0  0  0
   -0.0114    0.5491   -1.0982 C   0  0  0  0  0  0  0  0  0  0  0  0
   -1.3882    0.6886   -1.0150 C   0  0  0  0  0  0  0  0  0  0  0  0
   -2.0661    0.2493    0.1118 C   0  0  0  0  0  0  0  0  0  0  0  0
   -1.3551   -0.3278    1.1528 C   0  0  0  0  0  0  0  0  0  0  0  0
    0.0216   -0.4648    1.0642 C   0  0  0  0  0  0  0  0  0  0  0  0
    2.6776   -0.1836    0.8122 H   0  0  0  0  0  0  0  0  0  0  0  0
    2.4446   -1.1749   -0.6249 H   0  0  0  0  0  0  0  0  0  0  0  0
    2.6532    0.5664   -0.7875 H   0  0  0  0  0  0  0  0  0  0  0  0
    0.5104    0.8989   -1.9819 H   0  0  0  0  0  0  0  0  0  0  0  0
   -1.9328    1.1452   -1.8322 H   0  0  0  0  0  0  0  0  0  0  0  0
   -3.1409    0.3597    0.1800 H   0  0  0  0  0  0  0  0  0  0  0  0
   -1.8736   -0.6702    2.0398 H   0  0  0  0  0  0  0  0  0  0  0  0
    0.5695   -0.9141    1.8849 H   0  0  0  0  0  0  0  0  0  0  0  0
  1  2  1  0
  1  8  1  0
  1  9  1  0
  1 10  1  0
  2  3  2  0
  2  7  1  0
  3  4  1  0
  3 11  1  0
  4  5  2  0
  4 12  1  0
  5  6  1  0
  5 13  1  0
  6  7  2  0
  6 14  1  0
  7 15  1  0
M  END
>  <reaction>  (1) 
rxn_1439

>  <mol_properties>  (1) 
{"0": {"label": "donator", "atom_type": "Cs"}, "7": {"label": "d_hydrogen", "atom_type": "H0"}}

>  <type>  (1) 
r1h

$$$$

     RDKit          3D

 11 10  0  0  0  0  0  0  0  0999 V2000
    2.0591    0.2533   -0.1061 C   0  0  0  0  0  0  0  0  0  0  0  0
    0.8045   -0.3111   -0.1535 C   0  0  0  0  0  0  0  0  0  0  0  0
   -0.3816    0.3942   -0.1885 C   0  0  0  0  0  3  0  0  0  0  0  0
   -1.7316   -0.2294   -0.2396 C   0  0  0  0  0  0  0  0  0  0  0  0
    2.9505   -0.3576   -0.0805 H   0  0  0  0  0  0  0  0  0  0  0  0
    2.1872    1.3290   -0.0933 H   0  0  0  0  0  0  0  0  0  0  0  0
    0.7385   -1.3970   -0.1643 H   0  0  0  0  0  0  0  0  0  0  0  0
   -0.3340    1.4795   -0.1783 H   0  0  0  0  0  0  0  0  0  0  0  0
   -1.6704   -1.3186   -0.2461 H   0  0  0  0  0  0  0  0  0  0  0  0
   -2.3404    0.0713    0.6191 H   0  0  0  0  0  0  0  0  0  0  0  0
   -2.2805    0.0851   -1.1331 H   0  0  0  0  0  0  0  0  0  0  0  0
  1  2  2  3
  1  5  1  0
  1  6  1  0
  2  3  1  0
  2  7  1  0
  3  4  1  0
  3  8  1  0
  4  9  1  0
  4 10  1  0
  4 11  1  0
M  RAD  1   3   2
M  END
>  <reaction>  (2) 
rxn_1439

>  <mol_properties>  (2) 
{"2": {"label": "acceptor", "atom_type": "Cs"}}

>  <type>  (2) 
r2

$$$$

     RDKit          3D

 12 11  0  0  0  0  0  0  0  0999 V2000
    1.9877    0.1011    0.4814 C   0  0  0  0  0  0  0  0  0  0  0  0
    0.8179    0.5502    0.0525 C   0  0  0  0  0  0  0  0  0  0  0  0
   -0.2939   -0.2692   -0.5320 C   0  0  0  0  0  0  0  0  0  0  0  0
   -0.0292   -1.7631   -0.6328 C   0  0  0  0  0  0  0  0  0  0  0  0
    2.2522   -0.9490    0.4436 H   0  0  0  0  0  0  0  0  0  0  0  0
    2.7295    0.7757    0.8896 H   0  0  0  0  0  0  0  0  0  0  0  0
    0.6162    1.6164    0.1190 H   0  0  0  0  0  0  0  0  0  0  0  0
   -0.5268    0.1319   -1.5245 H   0  0  0  0  0  0  0  0  0  0  0  0
   -1.1959   -0.0938    0.0644 H   0  0  0  0  0  0  0  0  0  0  0  0
    0.1590   -2.1992    0.3502 H   0  0  0  0  0  0  0  0  0  0  0  0
    0.8382   -1.9701   -1.2626 H   0  0  0  0  0  0  0  0  0  0  0  0
   -0.8879   -2.2759   -1.0672 H   0  0  0  0  0  0  0  0  0  0  0  0
  1  2  2  3
  1  5  1  0
  1  6  1  0
  2  3  1  0
  2  7  1  0
  3  4  1  0
  3  8  1  0
  3  9  1  0
  4 10  1  0
  4 11  1  0
  4 12  1  0
M  END
>  <reaction>  (3) 
rxn_1439

>  <mol_properties>  (3) 
{"2": {"label": "acceptor", "atom_type": "Cs"}, "11": {"label": "a_hydrogen", "atom_type": "H0"}}

>  <type>  (3) 
r2h

$$$$

     RDKit          3D

 26 25  0  0  0  0  0  0  0  0999 V2000
   -0.4442   -3.0329    0.7996 C   0  0  0  0  0  0  0  0  0  0  0  0
   -0.1307   -2.3782    1.9202 C   0  0  0  0  0  0  0  0  0  0  0  0
   -0.6320   -1.0652    2.3184 C   0  0  0  0  0  0  0  0  0  0  0  0
   -1.8456   -0.5057    1.6219 C   0  0  0  0  0  0  0  0  0  0  0  0
    0.0048   -3.9901    0.5687 H   0  0  0  0  0  0  0  0  0  0  0  0
   -1.1588   -2.6412    0.0859 H   0  0  0  0  0  0  0  0  0  0  0  0
    0.5975   -2.8273    2.5904 H   0  0  0  0  0  0  0  0  0  0  0  0
   -0.6362   -0.9193    3.3982 H   0  0  0  0  0  0  0  0  0  0  0  0
   -2.7221   -1.1387    1.7881 H   0  0  0  0  0  0  0  0  0  0  0  0
   -2.0748    0.4953    1.9889 H   0  0  0  0  0  0  0  0  0  0  0  0
   -1.6874   -0.4301    0.5442 H   0  0  0  0  0  0  0  0  0  0  0  0
    1.2627    0.6277    1.4080 C   0  0  0  0  0  0  0  0  0  0  0  0
    0.7864    0.8867    0.0572 C   0  0  0  0  0  0  0  0  0  0  0  0
    0.0166    2.0189   -0.2354 C   0  0  0  0  0  3  0  0  0  0  0  0
   -0.5058    2.2182   -1.5003 C   0  0  0  0  0  0  0  0  0  0  0  0
   -0.2770    1.2891   -2.5067 C   0  0  0  0  0  0  0  0  0  0  0  0
    0.4859    0.1614   -2.2344 C   0  0  0  0  0  0  0  0  0  0  0  0
    1.0112   -0.0380   -0.9703 C   0  0  0  0  0  0  0  0  0  0  0  0
    0.3308   -0.2287    1.9623 H   0  0  0  0  0  0  0  0  0  0  0  0
    2.1446   -0.0014    1.4946 H   0  0  0  0  0  0  0  0  0  0  0  0
    1.2627    1.4729    2.0907 H   0  0  0  0  0  0  0  0  0  0  0  0
   -0.1718    2.7458    0.5465 H   0  0  0  0  0  0  0  0  0  0  0  0
   -1.0960    3.1030   -1.7046 H   0  0  0  0  0  0  0  0  0  0  0  0
   -0.6869    1.4448   -3.4963 H   0  0  0  0  0  0  0  0  0  0  0  0
    0.6718   -0.5673   -3.0137 H   0  0  0  0  0  0  0  0  0  0  0  0
    1.5955   -0.9261   -0.7609 H   0  0  0  0  0  0  0  0  0  0  0  0
  1  2  2  3
  1  5  1  0
  1  6  1  0
  2  3  1  0
  2  7  1  0
  3  4  1  0
  3  8  1  0
  3 19  1  0
  4  9  1  0
  4 10  1  0
  4 11  1  0
 12 13  2  3
 12 20  1  0
 12 21  1  0
 13 14  1  0
 13 18  1  0
 14 15  1  0
 14 22  1  0
 15 16  2  0
 15 23  1  0
 16 17  1  0
 16 24  1  0
 17 18  2  0
 17 25  1  0
 18 26  1  0
M  RAD  1  14   2
M  END
>  <reaction>  (4) 
rxn_1439

>  <mol_properties>  (4) 
{"1": {"label": "*0", "atom_type": "Cd"}, "2": {"label": "*1", "atom_type": "Cs"}, "11": {"label": "*3", "atom_type": "Cd"}, "12": {"label": "*4", "atom_type": "Cd"}, "18": {"label": "*2", "atom_type": "H0"}}

>  <type>  (4) 
ts

$$$$

     RDKit          3D

 26 25  0  0  0  0  0  0  0  0999 V2000
    0.1132   -3.0142    3.1864 C   0  0  0  0  0  0  0  0  0  0  0  0
    0.1928   -1.7460    2.8135 C   0  0  0  0  0  0  0  0  0  0  0  0
   -0.8029   -0.9956    1.9801 C   0  0  0  0  0  3  0  0  0  0  0  0
   -2.0178   -1.7909    1.5293 C   0  0  0  0  0  0  0  0  0  0  0  0
    0.8875   -3.4683    3.7917 H   0  0  0  0  0  0  0  0  0  0  0  0
   -0.7203   -3.6473    2.9061 H   0  0  0  0  0  0  0  0  0  0  0  0
    1.0566   -1.1663    3.1293 H   0  0  0  0  0  0  0  0  0  0  0  0
   -1.1274   -0.1161    2.5470 H   0  0  0  0  0  0  0  0  0  0  0  0
   -2.5860   -2.1645    2.3834 H   0  0  0  0  0  0  0  0  0  0  0  0
   -2.6837   -1.1674    0.9316 H   0  0  0  0  0  0  0  0  0  0  0  0
   -1.7261   -2.6487    0.9202 H   0  0  0  0  0  0  0  0  0  0  0  0
    0.3796    1.1428    1.0257 C   0  0  0  0  0  0  0  0  0  0  0  0
    0.3796    1.1428   -0.4780 C   0  0  0  0  0  0  0  0  0  0  0  0
    0.3796    2.3371   -1.1920 C   0  0  0  0  0  0  0  0  0  0  0  0
    0.4100    2.3404   -2.5780 C   0  0  0  0  0  0  0  0  0  0  0  0
    0.4396    1.1434   -3.2771 C   0  0  0  0  0  0  0  0  0  0  0  0
    0.4365   -0.0539   -2.5780 C   0  0  0  0  0  0  0  0  0  0  0  0
    0.4059   -0.0513   -1.1920 C   0  0  0  0  0  0  0  0  0  0  0  0
   -0.2103    0.0760    1.5018 H   0  0  0  0  0  0  0  0  0  0  0  0
    1.4018    1.1540    1.4125 H   0  0  0  0  0  0  0  0  0  0  0  0
   -0.1314    2.0207    1.4225 H   0  0  0  0  0  0  0  0  0  0  0  0
    0.3530    3.2782   -0.6542 H   0  0  0  0  0  0  0  0  0  0  0  0
    0.4074    3.2816   -3.1137 H   0  0  0  0  0  0  0  0  0  0  0  0
    0.4607    1.1437   -4.3594 H   0  0  0  0  0  0  0  0  0  0  0  0
    0.4546   -0.9950   -3.1137 H   0  0  0  0  0  0  0  0  0  0  0  0
    0.4001   -0.9927   -0.6542 H   0  0  0  0  0  0  0  0  0  0  0  0
  1  2  2  3
  1  5  1  0
  1  6  1  0
  2  3  1  0
  2  7  1  0
  3  4  1  0
  3  8  1  0
  4  9  1  0
  4 10  1  0
  4 11  1  0
 12 13  1  0
 12 19  1  0
 12 20  1  0
 12 21  1  0
 13 14  2  0
 13 18  1  0
 14 15  1  0
 14 22  1  0
 15 16  2  0
 15 23  1  0
 16 17  1  0
 16 24  1  0
 17 18  2  0
 17 25  1  0
 18 26  1  0
M  RAD  1   3   2
M  END
>  <reaction>  (5) 
rxn_1439

>  <mol_properties>  (5) 
{"1": {"label": "*0", "atom_type": "Cd"}, "2": {"label": "*1", "atom_type": "Cs"}, "11": {"label": "*3", "atom_type": "Cd"}, "12": {"label": "*4", "atom_type": "Cd"}, "18": {"label": "*2", "atom_type": "H0"}}

>  <type>  (5) 
unop_1

>  <geom_source>  (5) 
Heuristics

$$$$

     RDKit          3D

 26 25  0  0  0  0  0  0  0  0999 V2000
   -1.2573   -3.0890    0.9608 C   0  0  0  0  0  0  0  0  0  0  0  0
   -0.3708   -2.1607    1.2868 C   0  0  0  0  0  0  0  0  0  0  0  0
   -0.5671   -1.0429    2.2671 C   0  0  0  0  0  3  0  0  0  0  0  0
   -1.9284   -0.9898    2.9424 C   0  0  0  0  0  0  0  0  0  0  0  0
   -1.0197   -3.8591    0.2378 H   0  0  0  0  0  0  0  0  0  0  0  0
   -2.2486   -3.1196    1.3974 H   0  0  0  0  0  0  0  0  0  0  0  0
    0.6063   -2.1876    0.8110 H   0  0  0  0  0  0  0  0  0  0  0  0
    0.2190   -1.1144    3.0268 H   0  0  0  0  0  0  0  0  0  0  0  0
   -2.1258   -1.9023    3.5083 H   0  0  0  0  0  0  0  0  0  0  0  0
   -1.9799   -0.1490    3.6351 H   0  0  0  0  0  0  0  0  0  0  0  0
   -2.7294   -0.8699    2.2103 H   0  0  0  0  0  0  0  0  0  0  0  0
    0.6154    1.0954    1.3128 C   0  0  0  0  0  0  0  0  0  0  0  0
    0.6154    1.0954   -0.1910 C   0  0  0  0  0  0  0  0  0  0  0  0
    0.6154    2.2898   -0.9050 C   0  0  0  0  0  0  0  0  0  0  0  0
    0.6458    2.2931   -2.2910 C   0  0  0  0  0  0  0  0  0  0  0  0
    0.6753    1.0961   -2.9900 C   0  0  0  0  0  0  0  0  0  0  0  0
    0.6722   -0.1013   -2.2910 C   0  0  0  0  0  0  0  0  0  0  0  0
    0.6417   -0.0986   -0.9050 C   0  0  0  0  0  0  0  0  0  0  0  0
    0.0255    0.0287    1.7888 H   0  0  0  0  0  0  0  0  0  0  0  0
    1.6376    1.1067    1.6995 H   0  0  0  0  0  0  0  0  0  0  0  0
    0.1043    1.9733    1.7095 H   0  0  0  0  0  0  0  0  0  0  0  0
    0.5887    3.2309   -0.3672 H   0  0  0  0  0  0  0  0  0  0  0  0
    0.6432    3.2343   -2.8267 H   0  0  0  0  0  0  0  0  0  0  0  0
    0.6965    1.0963   -4.0724 H   0  0  0  0  0  0  0  0  0  0  0  0
    0.6903   -1.0423   -2.8267 H   0  0  0  0  0  0  0  0  0  0  0  0
    0.6358   -1.0401   -0.3672 H   0  0  0  0  0  0  0  0  0  0  0  0
  1  2  2  3
  1  5  1  0
  1  6  1  0
  2  3  1  0
  2  7  1  0
  3  4  1  0
  3  8  1  0
  4  9  1  0
  4 10  1  0
  4 11  1  0
 12 13  1  0
 12 19  1  0
 12 20  1  0
 12 21  1  0
 13 14  2  0
 13 18  1  0
 14 15  1  0
 14 22  1  0
 15 16  2  0
 15 23  1  0
 16 17  1  0
 16 24  1  0
 17 18  2  0
 17 25  1  0
 18 26  1  0
M  RAD  1   3   2
M  END
>  <reaction>  (6) 
rxn_1439

>  <mol_properties>  (6) 
{"1": {"label": "*0", "atom_type": "Cd"}, "2": {"label": "*1", "atom_type": "Cs"}, "11": {"label": "*3", "atom_type": "Cd"}, "12": {"label": "*4", "atom_type": "Cd"}, "18": {"label": "*2", "atom_type": "H0"}}

>  <type>  (6) 
unop_2

>  <geom_source>  (6) 
Heuristics

$$$$

     RDKit          3D

 26 25  0  0  0  0  0  0  0  0999 V2000
   -0.0717   -2.5748    3.7677 C   0  0  0  0  0  0  0  0  0  0  0  0
   -0.1895   -1.3702    3.2302 C   0  0  0  0  0  0  0  0  0  0  0  0
   -0.8204   -1.0383    1.9108 C   0  0  0  0  0  3  0  0  0  0  0  0
   -1.3736   -2.2193    1.1290 C   0  0  0  0  0  0  0  0  0  0  0  0
    0.4026   -2.7127    4.7311 H   0  0  0  0  0  0  0  0  0  0  0  0
   -0.4401   -3.4661    3.2737 H   0  0  0  0  0  0  0  0  0  0  0  0
    0.2020   -0.5173    3.7791 H   0  0  0  0  0  0  0  0  0  0  0  0
   -1.6173   -0.3079    2.0886 H   0  0  0  0  0  0  0  0  0  0  0  0
   -2.1506   -2.7389    1.6931 H   0  0  0  0  0  0  0  0  0  0  0  0
   -1.8110   -1.8847    0.1877 H   0  0  0  0  0  0  0  0  0  0  0  0
   -0.5894   -2.9421    0.8955 H   0  0  0  0  0  0  0  0  0  0  0  0
    0.3620    1.1000    0.9564 C   0  0  0  0  0  0  0  0  0  0  0  0
    0.3620    1.1000   -0.5473 C   0  0  0  0  0  0  0  0  0  0  0  0
    0.3620    2.2943   -1.2613 C   0  0  0  0  0  0  0  0  0  0  0  0
    0.3925    2.2977   -2.6473 C   0  0  0  0  0  0  0  0  0  0  0  0
    0.4220    1.1007   -3.3464 C   0  0  0  0  0  0  0  0  0  0  0  0
    0.4189   -0.0967   -2.6473 C   0  0  0  0  0  0  0  0  0  0  0  0
    0.3884   -0.0940   -1.2613 C   0  0  0  0  0  0  0  0  0  0  0  0
   -0.2278    0.0333    1.4325 H   0  0  0  0  0  0  0  0  0  0  0  0
    1.3843    1.1113    1.3432 H   0  0  0  0  0  0  0  0  0  0  0  0
   -0.1490    1.9779    1.3532 H   0  0  0  0  0  0  0  0  0  0  0  0
    0.3354    3.2354   -0.7235 H   0  0  0  0  0  0  0  0  0  0  0  0
    0.3898    3.2389   -3.1831 H   0  0  0  0  0  0  0  0  0  0  0  0
    0.4432    1.1009   -4.4287 H   0  0  0  0  0  0  0  0  0  0  0  0
    0.4370   -1.0377   -3.1831 H   0  0  0  0  0  0  0  0  0  0  0  0
    0.3825   -1.0355   -0.7235 H   0  0  0  0  0  0  0  0  0  0  0  0
  1  2  2  3
  1  5  1  0
  1  6  1  0
  2  3  1  0
  2  7  1  0
  3  4  1  0
  3  8  1  0
  4  9  1  0
  4 10  1  0
  4 11  1  0
 12 13  1  0
 12 19  1  0
 12 20  1  0
 12 21  1  0
 13 14  2  0
 13 18  1  0
 14 15  1  0
 14 22  1  0
 15 16  2  0
 15 23  1  0
 16 17  1  0
 16 24  1  0
 17 18  2  0
 17 25  1  0
 18 26  1  0
M  RAD  1   3   2
M  END
>  <reaction>  (7) 
rxn_1439

>  <mol_properties>  (7) 
{"1": {"label": "*0", "atom_type": "Cd"}, "2": {"label": "*1", "atom_type": "Cs"}, "11": {"label": "*3", "atom_type": "Cd"}, "12": {"label": "*4", "atom_type": "Cd"}, "18": {"label": "*2", "atom_type": "H0"}}

>  <type>  (7) 
unop_3

>  <geom_source>  (7) 
Heuristics

$$$$

     RDKit          3D

 26 25  0  0  0  0  0  0  0  0999 V2000
   -2.8830   -0.9417    2.1385 C   0  0  0  0  0  0  0  0  0  0  0  0
   -1.8296   -1.4595    1.5251 C   0  0  0  0  0  0  0  0  0  0  0  0
   -0.4138   -1.4500    2.0194 C   0  0  0  0  0  3  0  0  0  0  0  0
   -0.1887   -0.7725    3.3619 C   0  0  0  0  0  0  0  0  0  0  0  0
   -3.8703   -0.9995    1.6981 H   0  0  0  0  0  0  0  0  0  0  0  0
   -2.8054   -0.4429    3.0973 H   0  0  0  0  0  0  0  0  0  0  0  0
   -1.9771   -1.9467    0.5644 H   0  0  0  0  0  0  0  0  0  0  0  0
   -0.0625   -2.4867    2.0659 H   0  0  0  0  0  0  0  0  0  0  0  0
   -0.7628   -1.2596    4.1526 H   0  0  0  0  0  0  0  0  0  0  0  0
    0.8650   -0.8136    3.6399 H   0  0  0  0  0  0  0  0  0  0  0  0
   -0.4860    0.2775    3.3305 H   0  0  0  0  0  0  0  0  0  0  0  0
    0.7687    0.6883    1.0651 C   0  0  0  0  0  0  0  0  0  0  0  0
    0.7687    0.6883   -0.4387 C   0  0  0  0  0  0  0  0  0  0  0  0
    0.7687    1.8827   -1.1527 C   0  0  0  0  0  0  0  0  0  0  0  0
    0.7991    1.8860   -2.5387 C   0  0  0  0  0  0  0  0  0  0  0  0
    0.8287    0.6890   -3.2377 C   0  0  0  0  0  0  0  0  0  0  0  0
    0.8256   -0.5084   -2.5387 C   0  0  0  0  0  0  0  0  0  0  0  0
    0.7950   -0.5057   -1.1527 C   0  0  0  0  0  0  0  0  0  0  0  0
    0.1788   -0.3784    1.5411 H   0  0  0  0  0  0  0  0  0  0  0  0
    1.7909    0.6996    1.4518 H   0  0  0  0  0  0  0  0  0  0  0  0
    0.2577    1.5662    1.4618 H   0  0  0  0  0  0  0  0  0  0  0  0
    0.7421    2.8238   -0.6149 H   0  0  0  0  0  0  0  0  0  0  0  0
    0.7965    2.8272   -3.0744 H   0  0  0  0  0  0  0  0  0  0  0  0
    0.8498    0.6892   -4.3201 H   0  0  0  0  0  0  0  0  0  0  0  0
    0.8437   -1.4494   -3.0744 H   0  0  0  0  0  0  0  0  0  0  0  0
    0.7892   -1.4471   -0.6149 H   0  0  0  0  0  0  0  0  0  0  0  0
  1  2  2  3
  1  5  1  0
  1  6  1  0
  2  3  1  0
  2  7  1  0
  3  4  1  0
  3  8  1  0
  4  9  1  0
  4 10  1  0
  4 11  1  0
 12 13  1  0
 12 19  1  0
 12 20  1  0
 12 21  1  0
 13 14  2  0
 13 18  1  0
 14 15  1  0
 14 22  1  0
 15 16  2  0
 15 23  1  0
 16 17  1  0
 16 24  1  0
 17 18  2  0
 17 25  1  0
 18 26  1  0
M  RAD  1   3   2
M  END
>  <reaction>  (8) 
rxn_1439

>  <mol_properties>  (8) 
{"1": {"label": "*0", "atom_type": "Cd"}, "2": {"label": "*1", "atom_type": "Cs"}, "11": {"label": "*3", "atom_type": "Cd"}, "12": {"label": "*4", "atom_type": "Cd"}, "18": {"label": "*2", "atom_type": "H0"}}

>  <type>  (8) 
unop_4

>  <geom_source>  (8) 
Heuristics

$$$$

     RDKit          3D

 26 25  0  0  0  0  0  0  0  0999 V2000
   -0.3140   -1.9609    4.1539 C   0  0  0  0  0  0  0  0  0  0  0  0
   -0.8298   -1.0586    3.3332 C   0  0  0  0  0  0  0  0  0  0  0  0
   -0.8707   -1.1325    1.8359 C   0  0  0  0  0  3  0  0  0  0  0  0
   -0.2519   -2.3774    1.2201 C   0  0  0  0  0  0  0  0  0  0  0  0
   -0.3329   -1.8160    5.2266 H   0  0  0  0  0  0  0  0  0  0  0  0
    0.1447   -2.8741    3.7934 H   0  0  0  0  0  0  0  0  0  0  0  0
   -1.2754   -0.1638    3.7608 H   0  0  0  0  0  0  0  0  0  0  0  0
   -1.9158   -1.0447    1.5190 H   0  0  0  0  0  0  0  0  0  0  0  0
   -0.7573   -3.2822    1.5634 H   0  0  0  0  0  0  0  0  0  0  0  0
   -0.3268   -2.3447    0.1326 H   0  0  0  0  0  0  0  0  0  0  0  0
    0.8047   -2.4648    1.4804 H   0  0  0  0  0  0  0  0  0  0  0  0
    0.3118    1.0059    0.8815 C   0  0  0  0  0  0  0  0  0  0  0  0
    0.3118    1.0059   -0.6222 C   0  0  0  0  0  0  0  0  0  0  0  0
    0.3118    2.2002   -1.3363 C   0  0  0  0  0  0  0  0  0  0  0  0
    0.3422    2.2036   -2.7223 C   0  0  0  0  0  0  0  0  0  0  0  0
    0.3718    1.0066   -3.4213 C   0  0  0  0  0  0  0  0  0  0  0  0
    0.3686   -0.1908   -2.7223 C   0  0  0  0  0  0  0  0  0  0  0  0
    0.3381   -0.1881   -1.3363 C   0  0  0  0  0  0  0  0  0  0  0  0
   -0.2781   -0.0608    1.3576 H   0  0  0  0  0  0  0  0  0  0  0  0
    1.3340    1.0172    1.2683 H   0  0  0  0  0  0  0  0  0  0  0  0
   -0.1993    1.8838    1.2782 H   0  0  0  0  0  0  0  0  0  0  0  0
    0.2852    3.1413   -0.7984 H   0  0  0  0  0  0  0  0  0  0  0  0
    0.3396    3.1448   -3.2580 H   0  0  0  0  0  0  0  0  0  0  0  0
    0.3929    1.0068   -4.5036 H   0  0  0  0  0  0  0  0  0  0  0  0
    0.3867   -1.1318   -3.2580 H   0  0  0  0  0  0  0  0  0  0  0  0
    0.3323   -1.1296   -0.7984 H   0  0  0  0  0  0  0  0  0  0  0  0
  1  2  2  3
  1  5  1  0
  1  6  1  0
  2  3  1  0
  2  7  1  0
  3  4  1  0
  3  8  1  0
  4  9  1  0
  4 10  1  0
  4 11  1  0
 12 13  1  0
 12 19  1  0
 12 20  1  0
 12 21  1  0
 13 14  2  0
 13 18  1  0
 14 15  1  0
 14 22  1  0
 15 16  2  0
 15 23  1  0
 16 17  1  0
 16 24  1  0
 17 18  2  0
 17 25  1  0
 18 26  1  0
M  RAD  1   3   2
M  END
>  <reaction>  (9) 
rxn_1439

>  <mol_properties>  (9) 
{"1": {"label": "*0", "atom_type": "Cd"}, "2": {"label": "*1", "atom_type": "Cs"}, "11": {"label": "*3", "atom_type": "Cd"}, "12": {"label": "*4", "atom_type": "Cd"}, "18": {"label": "*2", "atom_type": "H0"}}

>  <type>  (9) 
unop_5

>  <geom_source>  (9) 
Heuristics

$$$$

     RDKit          3D

 26 25  0  0  0  0  0  0  0  0999 V2000
   -2.5455   -0.5882    3.0866 C   0  0  0  0  0  0  0  0  0  0  0  0
   -1.9805   -1.1790    2.0447 C   0  0  0  0  0  0  0  0  0  0  0  0
   -0.5230   -1.4888    1.8751 C   0  0  0  0  0  3  0  0  0  0  0  0
    0.3776   -1.0741    3.0279 C   0  0  0  0  0  0  0  0  0  0  0  0
   -3.6125   -0.4073    3.1156 H   0  0  0  0  0  0  0  0  0  0  0  0
   -1.9726   -0.2632    3.9470 H   0  0  0  0  0  0  0  0  0  0  0  0
   -2.6134   -1.4804    1.2138 H   0  0  0  0  0  0  0  0  0  0  0  0
   -0.4222   -2.5651    1.6971 H   0  0  0  0  0  0  0  0  0  0  0  0
    0.0873   -1.5707    3.9558 H   0  0  0  0  0  0  0  0  0  0  0  0
    1.4147   -1.3377    2.8179 H   0  0  0  0  0  0  0  0  0  0  0  0
    0.3338    0.0036    3.1969 H   0  0  0  0  0  0  0  0  0  0  0  0
    0.6595    0.6495    0.9208 C   0  0  0  0  0  0  0  0  0  0  0  0
    0.6595    0.6495   -0.5829 C   0  0  0  0  0  0  0  0  0  0  0  0
    0.6595    1.8438   -1.2970 C   0  0  0  0  0  0  0  0  0  0  0  0
    0.6899    1.8472   -2.6830 C   0  0  0  0  0  0  0  0  0  0  0  0
    0.7195    0.6502   -3.3820 C   0  0  0  0  0  0  0  0  0  0  0  0
    0.7163   -0.5472   -2.6830 C   0  0  0  0  0  0  0  0  0  0  0  0
    0.6858   -0.5445   -1.2970 C   0  0  0  0  0  0  0  0  0  0  0  0
    0.0696   -0.4172    1.3969 H   0  0  0  0  0  0  0  0  0  0  0  0
    1.6817    0.6608    1.3076 H   0  0  0  0  0  0  0  0  0  0  0  0
    0.1484    1.5274    1.3175 H   0  0  0  0  0  0  0  0  0  0  0  0
    0.6328    2.7849   -0.7592 H   0  0  0  0  0  0  0  0  0  0  0  0
    0.6873    2.7884   -3.2187 H   0  0  0  0  0  0  0  0  0  0  0  0
    0.7406    0.6504   -4.4644 H   0  0  0  0  0  0  0  0  0  0  0  0
    0.7344   -1.4882   -3.2187 H   0  0  0  0  0  0  0  0  0  0  0  0
    0.6799   -1.4860   -0.7592 H   0  0  0  0  0  0  0  0  0  0  0  0
  1  2  2  3
  1  5  1  0
  1  6  1  0
  2  3  1  0
  2  7  1  0
  3  4  1  0
  3  8  1  0
  4  9  1  0
  4 10  1  0
  4 11  1  0
 12 13  1  0
 12 19  1  0
 12 20  1  0
 12 21  1  0
 13 14  2  0
 13 18  1  0
 14 15  1  0
 14 22  1  0
 15 16  2  0
 15 23  1  0
 16 17  1  0
 16 24  1  0
 17 18  2  0
 17 25  1  0
 18 26  1  0
M  RAD  1   3   2
M  END
>  <reaction>  (10) 
rxn_1439

>  <mol_properties>  (10) 
{"1": {"label": "*0", "atom_type": "Cd"}, "2": {"label": "*1", "atom_type": "Cs"}, "11": {"label": "*3", "atom_type": "Cd"}, "12": {"label": "*4", "atom_type": "Cd"}, "18": {"label": "*2", "atom_type": "H0"}}

>  <type>  (10) 
unop_6

>  <geom_source>  (10) 
Heuristics

$$$$

     RDKit          3D

 26 25  0  0  0  0  0  0  0  0999 V2000
   -1.8125   -0.6425    3.8847 C   0  0  0  0  0  0  0  0  0  0  0  0
   -1.8452   -1.0000    2.6100 C   0  0  0  0  0  0  0  0  0  0  0  0
   -0.6803   -1.4443    1.7765 C   0  0  0  0  0  3  0  0  0  0  0  0
    0.6633   -1.4803    2.4874 C   0  0  0  0  0  0  0  0  0  0  0  0
   -2.7126   -0.3353    4.4020 H   0  0  0  0  0  0  0  0  0  0  0  0
   -0.8948   -0.6413    4.4608 H   0  0  0  0  0  0  0  0  0  0  0  0
   -2.7998   -0.9786    2.0901 H   0  0  0  0  0  0  0  0  0  0  0  0
   -0.9100   -2.4360    1.3716 H   0  0  0  0  0  0  0  0  0  0  0  0
    0.6437   -2.1656    3.3371 H   0  0  0  0  0  0  0  0  0  0  0  0
    1.4479   -1.8135    1.8072 H   0  0  0  0  0  0  0  0  0  0  0  0
    0.9408   -0.4925    2.8603 H   0  0  0  0  0  0  0  0  0  0  0  0
    0.5022    0.6940    0.8222 C   0  0  0  0  0  0  0  0  0  0  0  0
    0.5022    0.6940   -0.6816 C   0  0  0  0  0  0  0  0  0  0  0  0
    0.5022    1.8883   -1.3956 C   0  0  0  0  0  0  0  0  0  0  0  0
    0.5326    1.8917   -2.7816 C   0  0  0  0  0  0  0  0  0  0  0  0
    0.5622    0.6947   -3.4806 C   0  0  0  0  0  0  0  0  0  0  0  0
    0.5590   -0.5027   -2.7816 C   0  0  0  0  0  0  0  0  0  0  0  0
    0.5285   -0.5000   -1.3956 C   0  0  0  0  0  0  0  0  0  0  0  0
   -0.0877   -0.3727    1.2983 H   0  0  0  0  0  0  0  0  0  0  0  0
    1.5244    0.7053    1.2089 H   0  0  0  0  0  0  0  0  0  0  0  0
   -0.0088    1.5719    1.2189 H   0  0  0  0  0  0  0  0  0  0  0  0
    0.4756    2.8294   -0.8578 H   0  0  0  0  0  0  0  0  0  0  0  0
    0.5300    2.8329   -3.3173 H   0  0  0  0  0  0  0  0  0  0  0  0
    0.5833    0.6949   -4.5630 H   0  0  0  0  0  0  0  0  0  0  0  0
    0.5771   -1.4437   -3.3173 H   0  0  0  0  0  0  0  0  0  0  0  0
    0.5227   -1.4415   -0.8578 H   0  0  0  0  0  0  0  0  0  0  0  0
  1  2  2  3
  1  5  1  0
  1  6  1  0
  2  3  1  0
  2  7  1  0
  3  4  1  0
  3  8  1  0
  4  9  1  0
  4 10  1  0
  4 11  1  0
 12 13  1  0
 12 19  1  0
 12 20  1  0
 12 21  1  0
 13 14  2  0
 13 18  1  0
 14 15  1  0
 14 22  1  0
 15 16  2  0
 15 23  1  0
 16 17  1  0
 16 24  1  0
 17 18  2  0
 17 25  1  0
 18 26  1  0
M  RAD  1   3   2
M  END
>  <reaction>  (11) 
rxn_1439

>  <mol_properties>  (11) 
{"1": {"label": "*0", "atom_type": "Cd"}, "2": {"label": "*1", "atom_type": "Cs"}, "11": {"label": "*3", "atom_type": "Cd"}, "12": {"label": "*4", "atom_type": "Cd"}, "18": {"label": "*2", "atom_type": "H0"}}

>  <type>  (11) 
unop_7

>  <geom_source>  (11) 
Heuristics

$$$$

     RDKit          3D

 26 25  0  0  0  0  0  0  0  0999 V2000
    0.0406   -3.3340    2.3836 C   0  0  0  0  0  0  0  0  0  0  0  0
    0.2613   -2.0351    2.2496 C   0  0  0  0  0  0  0  0  0  0  0  0
   -0.7760   -0.9654    2.0801 C   0  0  0  0  0  3  0  0  0  0  0  0
   -2.2193   -1.4434    2.0632 C   0  0  0  0  0  0  0  0  0  0  0  0
    0.8608   -4.0309    2.5011 H   0  0  0  0  0  0  0  0  0  0  0  0
   -0.9586   -3.7532    2.3818 H   0  0  0  0  0  0  0  0  0  0  0  0
    1.2889   -1.6803    2.2600 H   0  0  0  0  0  0  0  0  0  0  0  0
   -0.6405   -0.2297    2.8805 H   0  0  0  0  0  0  0  0  0  0  0  0
   -2.4805   -1.9476    2.9956 H   0  0  0  0  0  0  0  0  0  0  0  0
   -2.9004   -0.6013    1.9363 H   0  0  0  0  0  0  0  0  0  0  0  0
   -2.3954   -2.1428    1.2437 H   0  0  0  0  0  0  0  0  0  0  0  0
    0.4065    1.1730    1.1257 C   0  0  0  0  0  0  0  0  0  0  0  0
    0.4065    1.1730   -0.3780 C   0  0  0  0  0  0  0  0  0  0  0  0
    0.4065    2.3673   -1.0920 C   0  0  0  0  0  0  0  0  0  0  0  0
    0.4369    2.3706   -2.4780 C   0  0  0  0  0  0  0  0  0  0  0  0
    0.4664    1.1736   -3.1771 C   0  0  0  0  0  0  0  0  0  0  0  0
    0.4633   -0.0237   -2.4780 C   0  0  0  0  0  0  0  0  0  0  0  0
    0.4328   -0.0211   -1.0920 C   0  0  0  0  0  0  0  0  0  0  0  0
   -0.1834    0.1063    1.6018 H   0  0  0  0  0  0  0  0  0  0  0  0
    1.4287    1.1842    1.5125 H   0  0  0  0  0  0  0  0  0  0  0  0
   -0.1046    2.0509    1.5225 H   0  0  0  0  0  0  0  0  0  0  0  0
    0.3798    3.3084   -0.5542 H   0  0  0  0  0  0  0  0  0  0  0  0
    0.4343    3.3119   -3.0137 H   0  0  0  0  0  0  0  0  0  0  0  0
    0.4876    1.1739   -4.2594 H   0  0  0  0  0  0  0  0  0  0  0  0
    0.4814   -0.9648   -3.0137 H   0  0  0  0  0  0  0  0  0  0  0  0
    0.4269   -0.9625   -0.5542 H   0  0  0  0  0  0  0  0  0  0  0  0
  1  2  2  3
  1  5  1  0
  1  6  1  0
  2  3  1  0
  2  7  1  0
  3  4  1  0
  3  8  1  0
  4  9  1  0
  4 10  1  0
  4 11  1  0
 12 13  1  0
 12 19  1  0
 12 20  1  0
 12 21  1  0
 13 14  2  0
 13 18  1  0
 14 15  1  0
 14 22  1  0
 15 16  2  0
 15 23  1  0
 16 17  1  0
 16 24  1  0
 17 18  2  0
 17 25  1  0
 18 26  1  0
M  RAD  1   3   2
M  END
>  <reaction>  (12) 
rxn_1439

>  <mol_properties>  (12) 
{"1": {"label": "*0", "atom_type": "Cd"}, "2": {"label": "*1", "atom_type": "Cs"}, "11": {"label": "*3", "atom_type": "Cd"}, "12": {"label": "*4", "atom_type": "Cd"}, "18": {"label": "*2", "atom_type": "H0"}}

>  <type>  (12) 
unop_8

>  <geom_source>  (12) 
Heuristics

$$$$

     RDKit          3D

 26 25  0  0  0  0  0  0  0  0999 V2000
   -2.7411   -1.6100    1.3126 C   0  0  0  0  0  0  0  0  0  0  0  0
   -1.4322   -1.7658    1.1842 C   0  0  0  0  0  0  0  0  0  0  0  0
   -0.3811   -1.3378    2.1645 C   0  0  0  0  0  3  0  0  0  0  0  0
   -0.8927   -0.6589    3.4252 C   0  0  0  0  0  0  0  0  0  0  0  0
   -3.4227   -1.9548    0.5453 H   0  0  0  0  0  0  0  0  0  0  0  0
   -3.1838   -1.1363    2.1808 H   0  0  0  0  0  0  0  0  0  0  0  0
   -1.0535   -2.2497    0.2874 H   0  0  0  0  0  0  0  0  0  0  0  0
    0.2116   -2.2187    2.4346 H   0  0  0  0  0  0  0  0  0  0  0  0
   -1.5557   -1.3181    3.9889 H   0  0  0  0  0  0  0  0  0  0  0  0
   -0.0622   -0.3838    4.0762 H   0  0  0  0  0  0  0  0  0  0  0  0
   -1.4476    0.2508    3.1879 H   0  0  0  0  0  0  0  0  0  0  0  0
    0.8014    0.8006    1.2102 C   0  0  0  0  0  0  0  0  0  0  0  0
    0.8014    0.8006   -0.2935 C   0  0  0  0  0  0  0  0  0  0  0  0
    0.8014    1.9949   -1.0076 C   0  0  0  0  0  0  0  0  0  0  0  0
    0.8318    1.9983   -2.3936 C   0  0  0  0  0  0  0  0  0  0  0  0
    0.8614    0.8013   -3.0926 C   0  0  0  0  0  0  0  0  0  0  0  0
    0.8582   -0.3961   -2.3936 C   0  0  0  0  0  0  0  0  0  0  0  0
    0.8277   -0.3934   -1.0076 C   0  0  0  0  0  0  0  0  0  0  0  0
    0.2115   -0.2661    1.6863 H   0  0  0  0  0  0  0  0  0  0  0  0
    1.8236    0.8119    1.5969 H   0  0  0  0  0  0  0  0  0  0  0  0
    0.2904    1.6785    1.6069 H   0  0  0  0  0  0  0  0  0  0  0  0
    0.7748    2.9360   -0.4698 H   0  0  0  0  0  0  0  0  0  0  0  0
    0.8292    2.9395   -2.9293 H   0  0  0  0  0  0  0  0  0  0  0  0
    0.8825    0.8015   -4.1750 H   0  0  0  0  0  0  0  0  0  0  0  0
    0.8764   -1.3372   -2.9293 H   0  0  0  0  0  0  0  0  0  0  0  0
    0.8219   -1.3349   -0.4698 H   0  0  0  0  0  0  0  0  0  0  0  0
  1  2  2  3
  1  5  1  0
  1  6  1  0
  2  3  1  0
  2  7  1  0
  3  4  1  0
  3  8  1  0
  4  9  1  0
  4 10  1  0
  4 11  1  0
 12 13  1  0
 12 19  1  0
 12 20  1  0
 12 21  1  0
 13 14  2  0
 13 18  1  0
 14 15  1  0
 14 22  1  0
 15 16  2  0
 15 23  1  0
 16 17  1  0
 16 24  1  0
 17 18  2  0
 17 25  1  0
 18 26  1  0
M  RAD  1   3   2
M  END
>  <reaction>  (13) 
rxn_1439

>  <mol_properties>  (13) 
{"1": {"label": "*0", "atom_type": "Cd"}, "2": {"label": "*1", "atom_type": "Cs"}, "11": {"label": "*3", "atom_type": "Cd"}, "12": {"label": "*4", "atom_type": "Cd"}, "18": {"label": "*2", "atom_type": "H0"}}

>  <type>  (13) 
unop_9

>  <geom_source>  (13) 
Heuristics

$$$$

     RDKit          3D

 26 25  0  0  0  0  0  0  0  0999 V2000
   -0.4387   -3.3983    1.5481 C   0  0  0  0  0  0  0  0  0  0  0  0
    0.0483   -2.1758    1.6972 C   0  0  0  0  0  0  0  0  0  0  0  0
   -0.6965   -0.9716    2.1915 C   0  0  0  0  0  3  0  0  0  0  0  0
   -2.1557   -1.2009    2.5518 C   0  0  0  0  0  0  0  0  0  0  0  0
    0.1822   -4.2062    1.1821 H   0  0  0  0  0  0  0  0  0  0  0  0
   -1.4679   -3.6425    1.7828 H   0  0  0  0  0  0  0  0  0  0  0  0
    1.0903   -1.9985    1.4431 H   0  0  0  0  0  0  0  0  0  0  0  0
   -0.1606   -0.5725    3.0597 H   0  0  0  0  0  0  0  0  0  0  0  0
   -2.2557   -1.9431    3.3462 H   0  0  0  0  0  0  0  0  0  0  0  0
   -2.6147   -0.2749    2.8996 H   0  0  0  0  0  0  0  0  0  0  0  0
   -2.7258   -1.5539    1.6902 H   0  0  0  0  0  0  0  0  0  0  0  0
    0.4860    1.1668    1.2372 C   0  0  0  0  0  0  0  0  0  0  0  0
    0.4860    1.1668   -0.2666 C   0  0  0  0  0  0  0  0  0  0  0  0
    0.4860    2.3611   -0.9806 C   0  0  0  0  0  0  0  0  0  0  0  0
    0.5165    2.3644   -2.3666 C   0  0  0  0  0  0  0  0  0  0  0  0
    0.5460    1.1674   -3.0656 C   0  0  0  0  0  0  0  0  0  0  0  0
    0.5429   -0.0299   -2.3666 C   0  0  0  0  0  0  0  0  0  0  0  0
    0.5123   -0.0273   -0.9806 C   0  0  0  0  0  0  0  0  0  0  0  0
   -0.1039    0.1001    1.7132 H   0  0  0  0  0  0  0  0  0  0  0  0
    1.5082    1.1780    1.6239 H   0  0  0  0  0  0  0  0  0  0  0  0
   -0.0250    2.0447    1.6339 H   0  0  0  0  0  0  0  0  0  0  0  0
    0.4594    3.3022   -0.4428 H   0  0  0  0  0  0  0  0  0  0  0  0
    0.5138    3.3057   -2.9023 H   0  0  0  0  0  0  0  0  0  0  0  0
    0.5671    1.1677   -4.1480 H   0  0  0  0  0  0  0  0  0  0  0  0
    0.5610   -0.9710   -2.9023 H   0  0  0  0  0  0  0  0  0  0  0  0
    0.5065   -0.9687   -0.4428 H   0  0  0  0  0  0  0  0  0  0  0  0
  1  2  2  3
  1  5  1  0
  1  6  1  0
  2  3  1  0
  2  7  1  0
  3  4  1  0
  3  8  1  0
  4  9  1  0
  4 10  1  0
  4 11  1  0
 12 13  1  0
 12 19  1  0
 12 20  1  0
 12 21  1  0
 13 14  2  0
 13 18  1  0
 14 15  1  0
 14 22  1  0
 15 16  2  0
 15 23  1  0
 16 17  1  0
 16 24  1  0
 17 18  2  0
 17 25  1  0
 18 26  1  0
M  RAD  1   3   2
M  END
>  <reaction>  (14) 
rxn_1439

>  <mol_properties>  (14) 
{"1": {"label": "*0", "atom_type": "Cd"}, "2": {"label": "*1", "atom_type": "Cs"}, "11": {"label": "*3", "atom_type": "Cd"}, "12": {"label": "*4", "atom_type": "Cd"}, "18": {"label": "*2", "atom_type": "H0"}}

>  <type>  (14) 
unop_10

>  <geom_source>  (14) 
Heuristics

$$$$

     RDKit          3D

 26 25  0  0  0  0  0  0  0  0999 V2000
   -0.9176   -1.1503    4.2789 C   0  0  0  0  0  0  0  0  0  0  0  0
   -1.4474   -0.9535    3.0812 C   0  0  0  0  0  0  0  0  0  0  0  0
   -0.8309   -1.3114    1.7618 C   0  0  0  0  0  3  0  0  0  0  0  0
    0.5403   -1.9650    1.8304 C   0  0  0  0  0  0  0  0  0  0  0  0
   -1.4439   -0.8555    5.1779 H   0  0  0  0  0  0  0  0  0  0  0  0
    0.0547   -1.6098    4.4118 H   0  0  0  0  0  0  0  0  0  0  0  0
   -2.4274   -0.4870    3.0183 H   0  0  0  0  0  0  0  0  0  0  0  0
   -1.5264   -1.9685    1.2281 H   0  0  0  0  0  0  0  0  0  0  0  0
    0.5054   -2.9010    2.3913 H   0  0  0  0  0  0  0  0  0  0  0  0
    0.9086   -2.1890    0.8287 H   0  0  0  0  0  0  0  0  0  0  0  0
    1.2671   -1.3107    2.3157 H   0  0  0  0  0  0  0  0  0  0  0  0
    0.3516    0.8269    0.8074 C   0  0  0  0  0  0  0  0  0  0  0  0
    0.3516    0.8269   -0.6963 C   0  0  0  0  0  0  0  0  0  0  0  0
    0.3516    2.0212   -1.4104 C   0  0  0  0  0  0  0  0  0  0  0  0
    0.3820    2.0246   -2.7964 C   0  0  0  0  0  0  0  0  0  0  0  0
    0.4116    0.8276   -3.4954 C   0  0  0  0  0  0  0  0  0  0  0  0
    0.4084   -0.3698   -2.7964 C   0  0  0  0  0  0  0  0  0  0  0  0
    0.3779   -0.3671   -1.4104 C   0  0  0  0  0  0  0  0  0  0  0  0
   -0.2383   -0.2398    1.2835 H   0  0  0  0  0  0  0  0  0  0  0  0
    1.3738    0.8382    1.1942 H   0  0  0  0  0  0  0  0  0  0  0  0
   -0.1594    1.7048    1.2041 H   0  0  0  0  0  0  0  0  0  0  0  0
    0.3250    2.9623   -0.8725 H   0  0  0  0  0  0  0  0  0  0  0  0
    0.3794    2.9658   -3.3321 H   0  0  0  0  0  0  0  0  0  0  0  0
    0.4327    0.8278   -4.5777 H   0  0  0  0  0  0  0  0  0  0  0  0
    0.4265   -1.3108   -3.3321 H   0  0  0  0  0  0  0  0  0  0  0  0
    0.3721   -1.3086   -0.8725 H   0  0  0  0  0  0  0  0  0  0  0  0
  1  2  2  3
  1  5  1  0
  1  6  1  0
  2  3  1  0
  2  7  1  0
  3  4  1  0
  3  8  1  0
  4  9  1  0
  4 10  1  0
  4 11  1  0
 12 13  1  0
 12 19  1  0
 12 20  1  0
 12 21  1  0
 13 14  2  0
 13 18  1  0
 14 15  1  0
 14 22  1  0
 15 16  2  0
 15 23  1  0
 16 17  1  0
 16 24  1  0
 17 18  2  0
 17 25  1  0
 18 26  1  0
M  RAD  1   3   2
M  END
>  <reaction>  (15) 
rxn_1439

>  <mol_properties>  (15) 
{"1": {"label": "*0", "atom_type": "Cd"}, "2": {"label": "*1", "atom_type": "Cs"}, "11": {"label": "*3", "atom_type": "Cd"}, "12": {"label": "*4", "atom_type": "Cd"}, "18": {"label": "*2", "atom_type": "H0"}}

>  <type>  (15) 
unop_11

>  <geom_source>  (15) 
Heuristics

$$$$

     RDKit          3D

 26 25  0  0  0  0  0  0  0  0999 V2000
   -2.1392   -2.4196    0.8647 C   0  0  0  0  0  0  0  0  0  0  0  0
   -0.9007   -2.0151    1.1022 C   0  0  0  0  0  0  0  0  0  0  0  0
   -0.4396   -1.1814    2.2604 C   0  0  0  0  0  3  0  0  0  0  0  0
   -1.5199   -0.7709    3.2485 C   0  0  0  0  0  0  0  0  0  0  0  0
   -2.3733   -3.0220   -0.0038 H   0  0  0  0  0  0  0  0  0  0  0  0
   -2.9643   -2.1691    1.5209 H   0  0  0  0  0  0  0  0  0  0  0  0
   -0.1189   -2.3018    0.4032 H   0  0  0  0  0  0  0  0  0  0  0  0
    0.3491   -1.7326    2.7841 H   0  0  0  0  0  0  0  0  0  0  0  0
   -1.9974   -1.6435    3.6985 H   0  0  0  0  0  0  0  0  0  0  0  0
   -1.0948   -0.1702    4.0533 H   0  0  0  0  0  0  0  0  0  0  0  0
   -2.2967   -0.1776    2.7624 H   0  0  0  0  0  0  0  0  0  0  0  0
    0.7428    0.9570    1.3060 C   0  0  0  0  0  0  0  0  0  0  0  0
    0.7428    0.9570   -0.1977 C   0  0  0  0  0  0  0  0  0  0  0  0
    0.7428    2.1513   -0.9118 C   0  0  0  0  0  0  0  0  0  0  0  0
    0.7733    2.1547   -2.2977 C   0  0  0  0  0  0  0  0  0  0  0  0
    0.8028    0.9576   -2.9968 C   0  0  0  0  0  0  0  0  0  0  0  0
    0.7997   -0.2397   -2.2977 C   0  0  0  0  0  0  0  0  0  0  0  0
    0.7692   -0.2370   -0.9118 C   0  0  0  0  0  0  0  0  0  0  0  0
    0.1530   -0.1097    1.7821 H   0  0  0  0  0  0  0  0  0  0  0  0
    1.7651    0.9682    1.6928 H   0  0  0  0  0  0  0  0  0  0  0  0
    0.2318    1.8349    1.7028 H   0  0  0  0  0  0  0  0  0  0  0  0
    0.7162    3.0924   -0.3739 H   0  0  0  0  0  0  0  0  0  0  0  0
    0.7706    3.0959   -2.8335 H   0  0  0  0  0  0  0  0  0  0  0  0
    0.8240    0.9579   -4.0791 H   0  0  0  0  0  0  0  0  0  0  0  0
    0.8178   -1.1808   -2.8335 H   0  0  0  0  0  0  0  0  0  0  0  0
    0.7633   -1.1785   -0.3739 H   0  0  0  0  0  0  0  0  0  0  0  0
  1  2  2  3
  1  5  1  0
  1  6  1  0
  2  3  1  0
  2  7  1  0
  3  4  1  0
  3  8  1  0
  4  9  1  0
  4 10  1  0
  4 11  1  0
 12 13  1  0
 12 19  1  0
 12 20  1  0
 12 21  1  0
 13 14  2  0
 13 18  1  0
 14 15  1  0
 14 22  1  0
 15 16  2  0
 15 23  1  0
 16 17  1  0
 16 24  1  0
 17 18  2  0
 17 25  1  0
 18 26  1  0
M  RAD  1   3   2
M  END
>  <reaction>  (16) 
rxn_1439

>  <mol_properties>  (16) 
{"1": {"label": "*0", "atom_type": "Cd"}, "2": {"label": "*1", "atom_type": "Cs"}, "11": {"label": "*3", "atom_type": "Cd"}, "12": {"label": "*4", "atom_type": "Cd"}, "18": {"label": "*2", "atom_type": "H0"}}

>  <type>  (16) 
unop_12

>  <geom_source>  (16) 
Heuristics

$$$$

     RDKit          3D

 26 25  0  0  0  0  0  0  0  0999 V2000
    1.8255   -0.1740    0.6613 C   0  0  0  0  0  3  0  0  0  0  0  0
    2.3299   -1.4638    1.2973 C   0  0  0  0  0  0  0  0  0  0  0  0
   -1.2076   -0.1786   -0.8189 C   0  0  0  0  0  0  0  0  0  0  0  0
    2.9542    0.7783    0.3830 C   0  0  0  0  0  0  0  0  0  0  0  0
   -1.7463    1.1112   -0.6844 C   0  0  0  0  0  0  0  0  0  0  0  0
   -1.9411   -1.2840   -0.3587 C   0  0  0  0  0  0  0  0  0  0  0  0
   -3.0164    1.2884   -0.1261 C   0  0  0  0  0  0  0  0  0  0  0  0
   -3.7493    0.1820    0.3129 C   0  0  0  0  0  0  0  0  0  0  0  0
   -3.2109   -1.1029    0.1991 C   0  0  0  0  0  0  0  0  0  0  0  0
    0.1703   -0.3668   -1.3788 C   0  0  0  0  0  0  0  0  0  0  0  0
    2.7242    1.9522   -0.2083 C   0  0  0  0  0  0  0  0  0  0  0  0
    1.0942    0.3084    1.3454 H   0  0  0  0  0  0  0  0  0  0  0  0
    1.1694   -0.4900   -0.5589 H   0  0  0  0  0  0  0  0  0  0  0  0
    1.4719   -2.1433    1.4823 H   0  0  0  0  0  0  0  0  0  0  0  0
    2.8306   -1.2477    2.2653 H   0  0  0  0  0  0  0  0  0  0  0  0
    3.0448   -1.9722    0.6160 H   0  0  0  0  0  0  0  0  0  0  0  0
    3.9734    0.5171    0.6562 H   0  0  0  0  0  0  0  0  0  0  0  0
   -1.1850    1.9776   -1.0120 H   0  0  0  0  0  0  0  0  0  0  0  0
   -3.4309    2.2836   -0.0302 H   0  0  0  0  0  0  0  0  0  0  0  0
   -1.5316   -2.2840   -0.4325 H   0  0  0  0  0  0  0  0  0  0  0  0
   -4.7314    0.3208    0.7460 H   0  0  0  0  0  0  0  0  0  0  0  0
   -3.7758   -1.9582    0.5466 H   0  0  0  0  0  0  0  0  0  0  0  0
    3.5471    2.6310   -0.4070 H   0  0  0  0  0  0  0  0  0  0  0  0
    1.7188    2.2440   -0.4973 H   0  0  0  0  0  0  0  0  0  0  0  0
    0.4085    0.4254   -2.1201 H   0  0  0  0  0  0  0  0  0  0  0  0
    0.2636   -1.3546   -1.8784 H   0  0  0  0  0  0  0  0  0  0  0  0
  1  2  1  0
  1  4  1  0
  1 12  1  0
  2 14  1  0
  2 15  1  0
  2 16  1  0
  3 10  1  0
  3  5  2  0
  3  6  1  0
  4 11  2  3
  4 17  1  0
  5  7  1  0
  5 18  1  0
  6  9  2  0
  6 20  1  0
  7  8  2  0
  7 19  1  0
  8  9  1  0
  8 21  1  0
  9 22  1  0
 10 13  1  0
 10 25  1  0
 10 26  1  0
 11 23  1  0
 11 24  1  0
M  RAD  1   1   2
M  END
>  <reaction>  (17) 
rxn_1439

>  <mol_properties>  (17) 
{"1": {"label": "*0", "atom_type": "Cd"}, "2": {"label": "*1", "atom_type": "Cs"}, "11": {"label": "*3", "atom_type": "Cd"}, "12": {"label": "*4", "atom_type": "Cd"}, "18": {"label": "*2", "atom_type": "H0"}}

>  <type>  (17) 
unop_13

>  <geom_source>  (17) 
AutoTST

$$$$
