
     RDKit          3D

  5  4  0  0  0  0  0  0  0  0999 V2000
    0.0000    0.0000    0.0000 C   0  0  0  0  0  0  0  0  0  0  0  0
   -0.6486   -0.7720   -0.4113 H   0  0  0  0  0  0  0  0  0  0  0  0
   -0.3482    0.9787   -0.3267 H   0  0  0  0  0  0  0  0  0  0  0  0
   -0.0223   -0.0487    1.0876 H   0  0  0  0  0  0  0  0  0  0  0  0
    1.0191   -0.1580   -0.3496 H   0  0  0  0  0  0  0  0  0  0  0  0
  1  2  1  0
  1  3  1  0
  1  4  1  0
  1  5  1  0
M  END
>  <reaction>  (1) 
rxn_189

>  <mol_properties>  (1) 
{"0": {"label": "donator", "atom_type": "Cs"}, "1": {"label": "d_hydrogen", "atom_type": "H0"}}

>  <type>  (1) 
r1h

$$$$

     RDKit          3D

  3  2  0  0  0  0  0  0  0  0999 V2000
    0.9943   -0.1797    0.0000 O   0  0  0  0  0  1  0  0  0  0  0  0
   -0.1595    0.4394    0.0000 O   0  0  0  0  0  0  0  0  0  0  0  0
   -0.8348   -0.2597    0.0000 H   0  0  0  0  0  0  0  0  0  0  0  0
  1  2  1  0
  2  3  1  0
M  RAD  1   1   2
M  END
>  <reaction>  (2) 
rxn_189

>  <mol_properties>  (2) 
{"0": {"label": "acceptor", "atom_type": "O2s"}}

>  <type>  (2) 
r2

$$$$

     RDKit          3D

  4  3  0  0  0  0  0  0  0  0999 V2000
    0.5949   -0.3853    0.2659 O   0  0  0  0  0  0  0  0  0  0  0  0
   -0.5918    0.4028    0.2462 O   0  0  0  0  0  0  0  0  0  0  0  0
    1.1865    0.1539   -0.2689 H   0  0  0  0  0  0  0  0  0  0  0  0
   -1.1896   -0.1714   -0.2432 H   0  0  0  0  0  0  0  0  0  0  0  0
  1  2  1  0
  1  3  1  0
  2  4  1  0
M  END
>  <reaction>  (3) 
rxn_189

>  <mol_properties>  (3) 
{"0": {"label": "a_hydrogen", "atom_type": "H0"}, "1": {"label": "acceptor", "atom_type": "O2s"}}

>  <type>  (3) 
r2h

$$$$

     RDKit          3D

  8  6  0  0  0  0  0  0  0  0999 V2000
    0.4594   -1.8363   -0.4259 C   0  0  0  0  0  3  0  0  0  0  0  0
    0.2306   -0.4639   -0.4555 H   0  0  0  0  0  0  0  0  0  0  0  0
    0.7934   -2.0501   -1.4354 H   0  0  0  0  0  0  0  0  0  0  0  0
    1.2092   -1.9652    0.3473 H   0  0  0  0  0  0  0  0  0  0  0  0
   -0.5337   -2.1969   -0.1783 H   0  0  0  0  0  0  0  0  0  0  0  0
    0.0128    0.6473   -0.4387 O   0  0  0  0  0  0  0  0  0  0  0  0
   -1.0889    0.7815    0.3986 O   0  0  0  0  0  0  0  0  0  0  0  0
   -0.6909    1.0366    1.2389 H   0  0  0  0  0  0  0  0  0  0  0  0
  1  3  1  0
  1  4  1  0
  1  5  1  0
  2  6  1  0
  6  7  1  0
  7  8  1  0
M  RAD  1   1   2
M  END
>  <reaction>  (4) 
rxn_189

>  <mol_properties>  (4) 
{"0": {"label": "*3", "atom_type": "Cs"}, "1": {"label": "*2", "atom_type": "H0"}, "2": {"label": "*4", "atom_type": "H0"}, "5": {"label": "*1", "atom_type": "O2s"}, "6": {"label": "*0", "atom_type": "O2s"}}

>  <type>  (4) 
ts

$$$$

     RDKit          3D

  8  6  0  0  0  0  0  0  0  0999 V2000
    0.4145   -1.5658   -0.8303 C   0  0  0  0  0  3  0  0  0  0  0  0
    0.4145   -0.3338   -0.3947 H   0  0  0  0  0  0  0  0  0  0  0  0
    1.3036   -2.0791   -0.4673 H   0  0  0  0  0  0  0  0  0  0  0  0
   -0.4746   -2.0791   -0.4673 H   0  0  0  0  0  0  0  0  0  0  0  0
    0.4145   -1.5658   -1.9192 H   0  0  0  0  0  0  0  0  0  0  0  0
    0.4145    0.7553   -0.0097 O   0  0  0  0  0  0  0  0  0  0  0  0
   -0.7958    0.7834    0.7414 O   0  0  0  0  0  0  0  0  0  0  0  0
   -0.5427    0.2813    1.5227 H   0  0  0  0  0  0  0  0  0  0  0  0
  1  3  1  0
  1  4  1  0
  1  5  1  0
  2  6  1  0
  6  7  1  0
  7  8  1  0
M  RAD  1   1   2
M  END
>  <reaction>  (5) 
rxn_189

>  <mol_properties>  (5) 
{"0": {"label": "*3", "atom_type": "Cs"}, "1": {"label": "*2", "atom_type": "H0"}, "2": {"label": "*4", "atom_type": "H0"}, "5": {"label": "*1", "atom_type": "O2s"}, "6": {"label": "*0", "atom_type": "O2s"}}

>  <type>  (5) 
unop_1

>  <geom_source>  (5) 
Heuristics

$$$$

     RDKit          3D

  8  6  0  0  0  0  0  0  0  0999 V2000
    0.2609   -1.7963   -0.1969 C   0  0  0  0  0  3  0  0  0  0  0  0
    0.2609   -0.5643    0.2386 H   0  0  0  0  0  0  0  0  0  0  0  0
    1.1500   -2.3096    0.1661 H   0  0  0  0  0  0  0  0  0  0  0  0
   -0.6282   -2.3096    0.1661 H   0  0  0  0  0  0  0  0  0  0  0  0
    0.2609   -1.7963   -1.2859 H   0  0  0  0  0  0  0  0  0  0  0  0
    0.2609    0.5248    0.6237 O   0  0  0  0  0  0  0  0  0  0  0  0
   -0.4379    1.1892   -0.4251 O   0  0  0  0  0  0  0  0  0  0  0  0
   -1.3408    1.1660   -0.0923 H   0  0  0  0  0  0  0  0  0  0  0  0
  1  3  1  0
  1  4  1  0
  1  5  1  0
  2  6  1  0
  6  7  1  0
  7  8  1  0
M  RAD  1   1   2
M  END
>  <reaction>  (6) 
rxn_189

>  <mol_properties>  (6) 
{"0": {"label": "*3", "atom_type": "Cs"}, "1": {"label": "*2", "atom_type": "H0"}, "2": {"label": "*4", "atom_type": "H0"}, "5": {"label": "*1", "atom_type": "O2s"}, "6": {"label": "*0", "atom_type": "O2s"}}

>  <type>  (6) 
unop_2

>  <geom_source>  (6) 
Heuristics

$$$$

     RDKit          3D

  8  6  0  0  0  0  0  0  0  0999 V2000
    0.2275   -1.5123   -0.9938 C   0  0  0  0  0  3  0  0  0  0  0  0
    0.2275   -0.2803   -0.5582 H   0  0  0  0  0  0  0  0  0  0  0  0
    1.1166   -2.0256   -0.6308 H   0  0  0  0  0  0  0  0  0  0  0  0
   -0.6616   -2.0256   -0.6308 H   0  0  0  0  0  0  0  0  0  0  0  0
    0.2275   -1.5123   -2.0827 H   0  0  0  0  0  0  0  0  0  0  0  0
    0.2275    0.8087   -0.1732 O   0  0  0  0  0  0  0  0  0  0  0  0
   -0.4712    0.6663    1.0602 O   0  0  0  0  0  0  0  0  0  0  0  0
    0.2486    0.4402    1.6580 H   0  0  0  0  0  0  0  0  0  0  0  0
  1  3  1  0
  1  4  1  0
  1  5  1  0
  2  6  1  0
  6  7  1  0
  7  8  1  0
M  RAD  1   1   2
M  END
>  <reaction>  (7) 
rxn_189

>  <mol_properties>  (7) 
{"0": {"label": "*3", "atom_type": "Cs"}, "1": {"label": "*2", "atom_type": "H0"}, "2": {"label": "*4", "atom_type": "H0"}, "5": {"label": "*1", "atom_type": "O2s"}, "6": {"label": "*0", "atom_type": "O2s"}}

>  <type>  (7) 
unop_3

>  <geom_source>  (7) 
Heuristics

$$$$

     RDKit          3D

  8  6  0  0  0  0  0  0  0  0999 V2000
   -0.4152   -1.7567   -0.3547 C   0  0  0  0  0  3  0  0  0  0  0  0
   -0.4152   -0.5248    0.0808 H   0  0  0  0  0  0  0  0  0  0  0  0
    0.4739   -2.2701    0.0082 H   0  0  0  0  0  0  0  0  0  0  0  0
   -1.3043   -2.2701    0.0082 H   0  0  0  0  0  0  0  0  0  0  0  0
   -0.4152   -1.7567   -1.4437 H   0  0  0  0  0  0  0  0  0  0  0  0
   -0.4152    0.5643    0.4659 O   0  0  0  0  0  0  0  0  0  0  0  0
    0.7950    1.0583   -0.1006 O   0  0  0  0  0  0  0  0  0  0  0  0
    0.5770    1.9873   -0.2269 H   0  0  0  0  0  0  0  0  0  0  0  0
  1  3  1  0
  1  4  1  0
  1  5  1  0
  2  6  1  0
  6  7  1  0
  7  8  1  0
M  RAD  1   1   2
M  END
>  <reaction>  (8) 
rxn_189

>  <mol_properties>  (8) 
{"0": {"label": "*3", "atom_type": "Cs"}, "1": {"label": "*2", "atom_type": "H0"}, "2": {"label": "*4", "atom_type": "H0"}, "5": {"label": "*1", "atom_type": "O2s"}, "6": {"label": "*0", "atom_type": "O2s"}}

>  <type>  (8) 
unop_4

>  <geom_source>  (8) 
Heuristics

$$$$

     RDKit          3D

  8  6  0  0  0  0  0  0  0  0999 V2000
   -0.0177   -1.5027   -1.0477 C   0  0  0  0  0  3  0  0  0  0  0  0
   -0.0177   -0.2707   -0.6121 H   0  0  0  0  0  0  0  0  0  0  0  0
    0.8714   -2.0160   -0.6847 H   0  0  0  0  0  0  0  0  0  0  0  0
   -0.9068   -2.0160   -0.6847 H   0  0  0  0  0  0  0  0  0  0  0  0
   -0.0177   -1.5027   -2.1366 H   0  0  0  0  0  0  0  0  0  0  0  0
   -0.0177    0.8184   -0.2270 O   0  0  0  0  0  0  0  0  0  0  0  0
   -0.0177    0.6136    1.1828 O   0  0  0  0  0  0  0  0  0  0  0  0
    0.8430    0.9709    1.4238 H   0  0  0  0  0  0  0  0  0  0  0  0
  1  3  1  0
  1  4  1  0
  1  5  1  0
  2  6  1  0
  6  7  1  0
  7  8  1  0
M  RAD  1   1   2
M  END
>  <reaction>  (9) 
rxn_189

>  <mol_properties>  (9) 
{"0": {"label": "*3", "atom_type": "Cs"}, "1": {"label": "*2", "atom_type": "H0"}, "2": {"label": "*4", "atom_type": "H0"}, "5": {"label": "*1", "atom_type": "O2s"}, "6": {"label": "*0", "atom_type": "O2s"}}

>  <type>  (9) 
unop_5

>  <geom_source>  (9) 
Heuristics

$$$$

     RDKit          3D

  8  6  0  0  0  0  0  0  0  0999 V2000
   -0.4850   -1.6766   -0.5843 C   0  0  0  0  0  3  0  0  0  0  0  0
   -0.4850   -0.4446   -0.1487 H   0  0  0  0  0  0  0  0  0  0  0  0
    0.4041   -2.1899   -0.2213 H   0  0  0  0  0  0  0  0  0  0  0  0
   -1.3741   -2.1899   -0.2213 H   0  0  0  0  0  0  0  0  0  0  0  0
   -0.4850   -1.6766   -1.6732 H   0  0  0  0  0  0  0  0  0  0  0  0
   -0.4850    0.6445    0.2363 O   0  0  0  0  0  0  0  0  0  0  0  0
    0.9125    0.9055    0.3286 O   0  0  0  0  0  0  0  0  0  0  0  0
    0.9288    1.8652    0.2559 H   0  0  0  0  0  0  0  0  0  0  0  0
  1  3  1  0
  1  4  1  0
  1  5  1  0
  2  6  1  0
  6  7  1  0
  7  8  1  0
M  RAD  1   1   2
M  END
>  <reaction>  (10) 
rxn_189

>  <mol_properties>  (10) 
{"0": {"label": "*3", "atom_type": "Cs"}, "1": {"label": "*2", "atom_type": "H0"}, "2": {"label": "*4", "atom_type": "H0"}, "5": {"label": "*1", "atom_type": "O2s"}, "6": {"label": "*0", "atom_type": "O2s"}}

>  <type>  (10) 
unop_6

>  <geom_source>  (10) 
Heuristics

$$$$

     RDKit          3D

  8  6  0  0  0  0  0  0  0  0999 V2000
   -0.4243   -1.5953   -0.8135 C   0  0  0  0  0  3  0  0  0  0  0  0
   -0.4243   -0.3633   -0.3779 H   0  0  0  0  0  0  0  0  0  0  0  0
    0.4648   -2.1087   -0.4505 H   0  0  0  0  0  0  0  0  0  0  0  0
   -1.3134   -2.1087   -0.4505 H   0  0  0  0  0  0  0  0  0  0  0  0
   -0.4243   -1.5953   -1.9024 H   0  0  0  0  0  0  0  0  0  0  0  0
   -0.4243    0.7257    0.0071 O   0  0  0  0  0  0  0  0  0  0  0  0
    0.7860    0.7538    0.7582 O   0  0  0  0  0  0  0  0  0  0  0  0
    1.0075    1.6899    0.7210 H   0  0  0  0  0  0  0  0  0  0  0  0
  1  3  1  0
  1  4  1  0
  1  5  1  0
  2  6  1  0
  6  7  1  0
  7  8  1  0
M  RAD  1   1   2
M  END
>  <reaction>  (11) 
rxn_189

>  <mol_properties>  (11) 
{"0": {"label": "*3", "atom_type": "Cs"}, "1": {"label": "*2", "atom_type": "H0"}, "2": {"label": "*4", "atom_type": "H0"}, "5": {"label": "*1", "atom_type": "O2s"}, "6": {"label": "*0", "atom_type": "O2s"}}

>  <type>  (11) 
unop_7

>  <geom_source>  (11) 
Heuristics

$$$$

     RDKit          3D

  8  6  0  0  0  0  0  0  0  0999 V2000
    0.4895   -1.6461   -0.6017 C   0  0  0  0  0  3  0  0  0  0  0  0
    0.4895   -0.4141   -0.1661 H   0  0  0  0  0  0  0  0  0  0  0  0
    1.3786   -2.1594   -0.2387 H   0  0  0  0  0  0  0  0  0  0  0  0
   -0.3996   -2.1594   -0.2387 H   0  0  0  0  0  0  0  0  0  0  0  0
    0.4895   -1.6461   -1.6906 H   0  0  0  0  0  0  0  0  0  0  0  0
    0.4895    0.6750    0.2190 O   0  0  0  0  0  0  0  0  0  0  0  0
   -0.9080    0.9360    0.3112 O   0  0  0  0  0  0  0  0  0  0  0  0
   -1.1456    0.4120    1.0830 H   0  0  0  0  0  0  0  0  0  0  0  0
  1  3  1  0
  1  4  1  0
  1  5  1  0
  2  6  1  0
  6  7  1  0
  7  8  1  0
M  RAD  1   1   2
M  END
>  <reaction>  (12) 
rxn_189

>  <mol_properties>  (12) 
{"0": {"label": "*3", "atom_type": "Cs"}, "1": {"label": "*2", "atom_type": "H0"}, "2": {"label": "*4", "atom_type": "H0"}, "5": {"label": "*1", "atom_type": "O2s"}, "6": {"label": "*0", "atom_type": "O2s"}}

>  <type>  (12) 
unop_8

>  <geom_source>  (12) 
Heuristics

$$$$

     RDKit          3D

  8  6  0  0  0  0  0  0  0  0999 V2000
   -0.2310   -1.8128   -0.1875 C   0  0  0  0  0  3  0  0  0  0  0  0
   -0.2310   -0.5808    0.2481 H   0  0  0  0  0  0  0  0  0  0  0  0
    0.6581   -2.3261    0.1755 H   0  0  0  0  0  0  0  0  0  0  0  0
   -1.1201   -2.3261    0.1755 H   0  0  0  0  0  0  0  0  0  0  0  0
   -0.2310   -1.8128   -1.2764 H   0  0  0  0  0  0  0  0  0  0  0  0
   -0.2310    0.5082    0.6331 O   0  0  0  0  0  0  0  0  0  0  0  0
    0.4677    1.1727   -0.4157 O   0  0  0  0  0  0  0  0  0  0  0  0
   -0.0810    1.9537   -0.5405 H   0  0  0  0  0  0  0  0  0  0  0  0
  1  3  1  0
  1  4  1  0
  1  5  1  0
  2  6  1  0
  6  7  1  0
  7  8  1  0
M  RAD  1   1   2
M  END
>  <reaction>  (13) 
rxn_189

>  <mol_properties>  (13) 
{"0": {"label": "*3", "atom_type": "Cs"}, "1": {"label": "*2", "atom_type": "H0"}, "2": {"label": "*4", "atom_type": "H0"}, "5": {"label": "*1", "atom_type": "O2s"}, "6": {"label": "*0", "atom_type": "O2s"}}

>  <type>  (13) 
unop_9

>  <geom_source>  (13) 
Heuristics

$$$$

     RDKit          3D

  8  6  0  0  0  0  0  0  0  0999 V2000
    0.4331   -1.7302   -0.3698 C   0  0  0  0  0  3  0  0  0  0  0  0
    0.4331   -0.4982    0.0657 H   0  0  0  0  0  0  0  0  0  0  0  0
    1.3222   -2.2435   -0.0069 H   0  0  0  0  0  0  0  0  0  0  0  0
   -0.4560   -2.2435   -0.0069 H   0  0  0  0  0  0  0  0  0  0  0  0
    0.4331   -1.7302   -1.4588 H   0  0  0  0  0  0  0  0  0  0  0  0
    0.4331    0.5909    0.4508 O   0  0  0  0  0  0  0  0  0  0  0  0
   -0.7771    1.0848   -0.1157 O   0  0  0  0  0  0  0  0  0  0  0  0
   -1.4297    0.7231    0.4926 H   0  0  0  0  0  0  0  0  0  0  0  0
  1  3  1  0
  1  4  1  0
  1  5  1  0
  2  6  1  0
  6  7  1  0
  7  8  1  0
M  RAD  1   1   2
M  END
>  <reaction>  (14) 
rxn_189

>  <mol_properties>  (14) 
{"0": {"label": "*3", "atom_type": "Cs"}, "1": {"label": "*2", "atom_type": "H0"}, "2": {"label": "*4", "atom_type": "H0"}, "5": {"label": "*1", "atom_type": "O2s"}, "6": {"label": "*0", "atom_type": "O2s"}}

>  <type>  (14) 
unop_10

>  <geom_source>  (14) 
Heuristics

$$$$

     RDKit          3D

  8  6  0  0  0  0  0  0  0  0999 V2000
   -0.2531   -1.5335   -0.9817 C   0  0  0  0  0  3  0  0  0  0  0  0
   -0.2531   -0.3015   -0.5461 H   0  0  0  0  0  0  0  0  0  0  0  0
    0.6360   -2.0468   -0.6187 H   0  0  0  0  0  0  0  0  0  0  0  0
   -1.1423   -2.0468   -0.6187 H   0  0  0  0  0  0  0  0  0  0  0  0
   -0.2531   -1.5335   -2.0706 H   0  0  0  0  0  0  0  0  0  0  0  0
   -0.2531    0.7875   -0.1611 O   0  0  0  0  0  0  0  0  0  0  0  0
    0.4456    0.6451    1.0722 O   0  0  0  0  0  0  0  0  0  0  0  0
    0.9725    1.4507    1.0828 H   0  0  0  0  0  0  0  0  0  0  0  0
  1  3  1  0
  1  4  1  0
  1  5  1  0
  2  6  1  0
  6  7  1  0
  7  8  1  0
M  RAD  1   1   2
M  END
>  <reaction>  (15) 
rxn_189

>  <mol_properties>  (15) 
{"0": {"label": "*3", "atom_type": "Cs"}, "1": {"label": "*2", "atom_type": "H0"}, "2": {"label": "*4", "atom_type": "H0"}, "5": {"label": "*1", "atom_type": "O2s"}, "6": {"label": "*0", "atom_type": "O2s"}}

>  <type>  (15) 
unop_11

>  <geom_source>  (15) 
Heuristics

$$$$

     RDKit          3D

  8  6  0  0  0  0  0  0  0  0999 V2000
    0.0177   -1.8272   -0.1296 C   0  0  0  0  0  3  0  0  0  0  0  0
    0.0177   -0.5953    0.3059 H   0  0  0  0  0  0  0  0  0  0  0  0
    0.9068   -2.3406    0.2333 H   0  0  0  0  0  0  0  0  0  0  0  0
   -0.8714   -2.3406    0.2333 H   0  0  0  0  0  0  0  0  0  0  0  0
    0.0177   -1.8272   -1.2186 H   0  0  0  0  0  0  0  0  0  0  0  0
    0.0177    0.4938    0.6910 O   0  0  0  0  0  0  0  0  0  0  0  0
    0.0177    1.2207   -0.5343 O   0  0  0  0  0  0  0  0  0  0  0  0
   -0.8430    1.6501   -0.4971 H   0  0  0  0  0  0  0  0  0  0  0  0
  1  3  1  0
  1  4  1  0
  1  5  1  0
  2  6  1  0
  6  7  1  0
  7  8  1  0
M  RAD  1   1   2
M  END
>  <reaction>  (16) 
rxn_189

>  <mol_properties>  (16) 
{"0": {"label": "*3", "atom_type": "Cs"}, "1": {"label": "*2", "atom_type": "H0"}, "2": {"label": "*4", "atom_type": "H0"}, "5": {"label": "*1", "atom_type": "O2s"}, "6": {"label": "*0", "atom_type": "O2s"}}

>  <type>  (16) 
unop_12

>  <geom_source>  (16) 
Heuristics

$$$$

     RDKit          3D

  8  6  0  0  0  0  0  0  0  0999 V2000
    2.0583   -0.0053   -0.1781 O   0  0  0  0  0  0  0  0  0  0  0  0
    1.1699   -0.7350    0.4630 O   0  0  0  0  0  1  0  0  0  0  0  0
   -1.0508    0.0472   -0.1470 C   0  0  0  0  0  0  0  0  0  0  0  0
   -1.2171    1.1222    0.0714 H   0  0  0  0  0  0  0  0  0  0  0  0
   -1.4022   -0.5629    0.7104 H   0  0  0  0  0  0  0  0  0  0  0  0
   -1.6153   -0.2365   -1.0588 H   0  0  0  0  0  0  0  0  0  0  0  0
    2.0976    0.8435    0.3309 H   0  0  0  0  0  0  0  0  0  0  0  0
   -0.0405   -0.4732   -0.1917 H   0  0  0  0  0  0  0  0  0  0  0  0
  1  2  1  0
  1  7  1  0
  3  4  1  0
  3  5  1  0
  3  6  1  0
  3  8  1  0
M  RAD  1   2   2
M  END
>  <reaction>  (17) 
rxn_189

>  <mol_properties>  (17) 
{"0": {"label": "*3", "atom_type": "Cs"}, "1": {"label": "*2", "atom_type": "H0"}, "2": {"label": "*4", "atom_type": "H0"}, "5": {"label": "*1", "atom_type": "O2s"}, "6": {"label": "*0", "atom_type": "O2s"}}

>  <type>  (17) 
unop_13

>  <geom_source>  (17) 
AutoTST

$$$$
