
     RDKit          3D

 10  9  0  0  0  0  0  0  0  0999 V2000
   -1.1508    0.0666    0.2839 C   0  0  0  0  0  0  0  0  0  0  0  0
    0.1022   -0.3749   -0.4771 C   0  0  0  0  0  0  0  0  0  0  0  0
    1.3428    0.1620    0.1542 C   0  0  0  0  0  0  0  0  0  0  0  0
    2.5613   -0.6971    0.7526 S   0  0  0  0  0  0  0  0  0  0  0  0
   -1.2137    1.1546    0.3481 H   0  0  0  0  0  0  0  0  0  0  0  0
   -2.0472   -0.2935   -0.2212 H   0  0  0  0  0  0  0  0  0  0  0  0
   -1.1467   -0.3334    1.2987 H   0  0  0  0  0  0  0  0  0  0  0  0
    0.1602   -1.4616   -0.5369 H   0  0  0  0  0  0  0  0  0  0  0  0
    0.0536    0.0174   -1.4997 H   0  0  0  0  0  0  0  0  0  0  0  0
    1.3824    1.2528    0.2110 H   0  0  0  0  0  0  0  0  0  0  0  0
  1  2  1  0
  1  5  1  0
  1  6  1  0
  1  7  1  0
  2  3  1  0
  2  8  1  0
  2  9  1  0
  3  4  2  0
  3 10  1  0
M  END
>  <reaction>  (1) 
rxn_464

>  <mol_properties>  (1) 
{"1": {"label": "donator", "atom_type": "Cs"}, "7": {"label": "d_hydrogen", "atom_type": "H0"}}

>  <type>  (1) 
r1h

$$$$

     RDKit          3D

  2  1  0  0  0  0  0  0  0  0999 V2000
    0.0000    0.0000    0.6715 S   0  0  0  0  0  1  0  0  0  0  0  0
    0.0000    0.0000   -0.6715 H   0  0  0  0  0  0  0  0  0  0  0  0
  1  2  1  0
M  RAD  1   1   2
M  END
>  <reaction>  (2) 
rxn_464

>  <mol_properties>  (2) 
{"0": {"label": "acceptor", "atom_type": "S2s"}}

>  <type>  (2) 
r2

$$$$

     RDKit          3D

  3  2  0  0  0  0  0  0  0  0999 V2000
   -0.0007    0.6157    0.0000 S   0  0  0  0  0  0  0  0  0  0  0  0
   -0.9686   -0.3090    0.0000 H   0  0  0  0  0  0  0  0  0  0  0  0
    0.9693   -0.3067    0.0000 H   0  0  0  0  0  0  0  0  0  0  0  0
  1  2  1  0
  1  3  1  0
M  END
>  <reaction>  (3) 
rxn_464

>  <mol_properties>  (3) 
{"0": {"label": "acceptor", "atom_type": "S2s"}, "2": {"label": "a_hydrogen", "atom_type": "H0"}}

>  <type>  (3) 
r2h

$$$$

     RDKit          3D

 12 10  0  0  0  0  0  0  0  0999 V2000
   -0.8856   -1.9525    0.4347 S   0  0  0  0  0  1  0  0  0  0  0  0
   -1.7452   -0.9610    0.1571 H   0  0  0  0  0  0  0  0  0  0  0  0
    0.8442   -0.3130   -2.1814 C   0  0  0  0  0  0  0  0  0  0  0  0
    1.1615   -0.2246   -0.7160 C   0  0  0  0  0  0  0  0  0  0  0  0
    0.9937    1.0234    0.0111 C   0  0  0  0  0  0  0  0  0  0  0  0
    0.1972    2.3353   -0.5140 S   0  0  0  0  0  0  0  0  0  0  0  0
    1.5894    0.2412   -2.7573 H   0  0  0  0  0  0  0  0  0  0  0  0
    0.8554   -1.3515   -2.5095 H   0  0  0  0  0  0  0  0  0  0  0  0
   -0.1303    0.1209   -2.4009 H   0  0  0  0  0  0  0  0  0  0  0  0
    0.2963   -0.9863   -0.1211 H   0  0  0  0  0  0  0  0  0  0  0  0
    2.0518   -0.7743   -0.4062 H   0  0  0  0  0  0  0  0  0  0  0  0
    1.4295    1.0296    1.0097 H   0  0  0  0  0  0  0  0  0  0  0  0
  1  2  1  0
  3  4  1  0
  3  7  1  0
  3  8  1  0
  3  9  1  0
  4  5  1  0
  4 10  1  0
  4 11  1  0
  5  6  2  0
  5 12  1  0
M  RAD  1   1   2
M  END
>  <reaction>  (4) 
rxn_464

>  <mol_properties>  (4) 
{"0": {"label": "*3", "atom_type": "S2s"}, "1": {"label": "*4", "atom_type": "H0"}, "3": {"label": "*1", "atom_type": "Cs"}, "4": {"label": "*0", "atom_type": "CS"}, "9": {"label": "*2", "atom_type": "H0"}}

>  <type>  (4) 
ts

$$$$

     RDKit          3D

 12 10  0  0  0  0  0  0  0  0999 V2000
   -1.2638   -1.7823    0.4244 S   0  0  0  0  0  1  0  0  0  0  0  0
   -0.4873   -2.6599    1.0716 H   0  0  0  0  0  0  0  0  0  0  0  0
    1.0261   -0.3131   -2.1509 C   0  0  0  0  0  0  0  0  0  0  0  0
    1.0261   -0.3131   -0.6198 C   0  0  0  0  0  0  0  0  0  0  0  0
    1.0261    1.0751   -0.0732 C   0  0  0  0  0  0  0  0  0  0  0  0
   -0.0935    1.7308    0.8744 S   0  0  0  0  0  0  0  0  0  0  0  0
    1.8813    0.2371   -2.5480 H   0  0  0  0  0  0  0  0  0  0  0  0
    1.0769   -1.3340   -2.5296 H   0  0  0  0  0  0  0  0  0  0  0  0
    0.1166    0.1493   -2.5366 H   0  0  0  0  0  0  0  0  0  0  0  0
   -0.0016   -0.9725   -0.1512 H   0  0  0  0  0  0  0  0  0  0  0  0
    1.9364   -0.8098   -0.2644 H   0  0  0  0  0  0  0  0  0  0  0  0
    1.8815    1.6803   -0.3835 H   0  0  0  0  0  0  0  0  0  0  0  0
  1  2  1  0
  3  4  1  0
  3  7  1  0
  3  8  1  0
  3  9  1  0
  4  5  1  0
  4 10  1  0
  4 11  1  0
  5  6  2  0
  5 12  1  0
M  RAD  1   1   2
M  END
>  <reaction>  (5) 
rxn_464

>  <mol_properties>  (5) 
{"0": {"label": "*3", "atom_type": "S2s"}, "1": {"label": "*4", "atom_type": "H0"}, "3": {"label": "*1", "atom_type": "Cs"}, "4": {"label": "*0", "atom_type": "CS"}, "9": {"label": "*2", "atom_type": "H0"}}

>  <type>  (5) 
unop_1

>  <geom_source>  (5) 
Heuristics

$$$$

     RDKit          3D

 12 10  0  0  0  0  0  0  0  0999 V2000
   -1.2561   -1.7829    0.4405 S   0  0  0  0  0  1  0  0  0  0  0  0
   -1.2948   -2.6020   -0.6175 H   0  0  0  0  0  0  0  0  0  0  0  0
    1.0338   -0.3137   -2.1349 C   0  0  0  0  0  0  0  0  0  0  0  0
    1.0338   -0.3137   -0.6038 C   0  0  0  0  0  0  0  0  0  0  0  0
    1.0338    1.0745   -0.0571 C   0  0  0  0  0  0  0  0  0  0  0  0
   -0.0858    1.7302    0.8904 S   0  0  0  0  0  0  0  0  0  0  0  0
    1.8890    0.2365   -2.5320 H   0  0  0  0  0  0  0  0  0  0  0  0
    1.0846   -1.3346   -2.5135 H   0  0  0  0  0  0  0  0  0  0  0  0
    0.1243    0.1487   -2.5205 H   0  0  0  0  0  0  0  0  0  0  0  0
    0.0061   -0.9730   -0.1351 H   0  0  0  0  0  0  0  0  0  0  0  0
    1.9441   -0.8104   -0.2484 H   0  0  0  0  0  0  0  0  0  0  0  0
    1.8892    1.6798   -0.3674 H   0  0  0  0  0  0  0  0  0  0  0  0
  1  2  1  0
  3  4  1  0
  3  7  1  0
  3  8  1  0
  3  9  1  0
  4  5  1  0
  4 10  1  0
  4 11  1  0
  5  6  2  0
  5 12  1  0
M  RAD  1   1   2
M  END
>  <reaction>  (6) 
rxn_464

>  <mol_properties>  (6) 
{"0": {"label": "*3", "atom_type": "S2s"}, "1": {"label": "*4", "atom_type": "H0"}, "3": {"label": "*1", "atom_type": "Cs"}, "4": {"label": "*0", "atom_type": "CS"}, "9": {"label": "*2", "atom_type": "H0"}}

>  <type>  (6) 
unop_2

>  <geom_source>  (6) 
Heuristics

$$$$

     RDKit          3D

 12 10  0  0  0  0  0  0  0  0999 V2000
   -1.2627   -1.7871    0.4201 S   0  0  0  0  0  1  0  0  0  0  0  0
   -0.6029   -2.1581    1.5242 H   0  0  0  0  0  0  0  0  0  0  0  0
    1.0272   -0.3179   -2.1552 C   0  0  0  0  0  0  0  0  0  0  0  0
    1.0272   -0.3179   -0.6241 C   0  0  0  0  0  0  0  0  0  0  0  0
    1.0272    1.0703   -0.0775 C   0  0  0  0  0  0  0  0  0  0  0  0
   -0.0924    1.7260    0.8701 S   0  0  0  0  0  0  0  0  0  0  0  0
    1.8824    0.2323   -2.5523 H   0  0  0  0  0  0  0  0  0  0  0  0
    1.0780   -1.3388   -2.5339 H   0  0  0  0  0  0  0  0  0  0  0  0
    0.1177    0.1445   -2.5409 H   0  0  0  0  0  0  0  0  0  0  0  0
   -0.0005   -0.9772   -0.1555 H   0  0  0  0  0  0  0  0  0  0  0  0
    1.9375   -0.8146   -0.2687 H   0  0  0  0  0  0  0  0  0  0  0  0
    1.8826    1.6756   -0.3878 H   0  0  0  0  0  0  0  0  0  0  0  0
  1  2  1  0
  3  4  1  0
  3  7  1  0
  3  8  1  0
  3  9  1  0
  4  5  1  0
  4 10  1  0
  4 11  1  0
  5  6  2  0
  5 12  1  0
M  RAD  1   1   2
M  END
>  <reaction>  (7) 
rxn_464

>  <mol_properties>  (7) 
{"0": {"label": "*3", "atom_type": "S2s"}, "1": {"label": "*4", "atom_type": "H0"}, "3": {"label": "*1", "atom_type": "Cs"}, "4": {"label": "*0", "atom_type": "CS"}, "9": {"label": "*2", "atom_type": "H0"}}

>  <type>  (7) 
unop_3

>  <geom_source>  (7) 
Heuristics

$$$$

     RDKit          3D

 12 10  0  0  0  0  0  0  0  0999 V2000
   -1.2482   -1.7982    0.4362 S   0  0  0  0  0  1  0  0  0  0  0  0
   -2.1256   -0.9854   -0.1649 H   0  0  0  0  0  0  0  0  0  0  0  0
    1.0417   -0.3290   -2.1392 C   0  0  0  0  0  0  0  0  0  0  0  0
    1.0417   -0.3290   -0.6081 C   0  0  0  0  0  0  0  0  0  0  0  0
    1.0417    1.0592   -0.0614 C   0  0  0  0  0  0  0  0  0  0  0  0
   -0.0779    1.7148    0.8861 S   0  0  0  0  0  0  0  0  0  0  0  0
    1.8969    0.2211   -2.5363 H   0  0  0  0  0  0  0  0  0  0  0  0
    1.0925   -1.3499   -2.5178 H   0  0  0  0  0  0  0  0  0  0  0  0
    0.1322    0.1334   -2.5248 H   0  0  0  0  0  0  0  0  0  0  0  0
    0.0140   -0.9884   -0.1394 H   0  0  0  0  0  0  0  0  0  0  0  0
    1.9520   -0.8257   -0.2527 H   0  0  0  0  0  0  0  0  0  0  0  0
    1.8971    1.6644   -0.3717 H   0  0  0  0  0  0  0  0  0  0  0  0
  1  2  1  0
  3  4  1  0
  3  7  1  0
  3  8  1  0
  3  9  1  0
  4  5  1  0
  4 10  1  0
  4 11  1  0
  5  6  2  0
  5 12  1  0
M  RAD  1   1   2
M  END
>  <reaction>  (8) 
rxn_464

>  <mol_properties>  (8) 
{"0": {"label": "*3", "atom_type": "S2s"}, "1": {"label": "*4", "atom_type": "H0"}, "3": {"label": "*1", "atom_type": "Cs"}, "4": {"label": "*0", "atom_type": "CS"}, "9": {"label": "*2", "atom_type": "H0"}}

>  <type>  (8) 
unop_4

>  <geom_source>  (8) 
Heuristics

$$$$

     RDKit          3D

 12 10  0  0  0  0  0  0  0  0999 V2000
   -1.2598   -1.7927    0.4186 S   0  0  0  0  0  1  0  0  0  0  0  0
   -0.9070   -1.5664    1.6899 H   0  0  0  0  0  0  0  0  0  0  0  0
    1.0301   -0.3235   -2.1568 C   0  0  0  0  0  0  0  0  0  0  0  0
    1.0301   -0.3235   -0.6257 C   0  0  0  0  0  0  0  0  0  0  0  0
    1.0301    1.0647   -0.0790 C   0  0  0  0  0  0  0  0  0  0  0  0
   -0.0895    1.7204    0.8685 S   0  0  0  0  0  0  0  0  0  0  0  0
    1.8853    0.2267   -2.5539 H   0  0  0  0  0  0  0  0  0  0  0  0
    1.0809   -1.3444   -2.5354 H   0  0  0  0  0  0  0  0  0  0  0  0
    0.1206    0.1389   -2.5424 H   0  0  0  0  0  0  0  0  0  0  0  0
    0.0024   -0.9829   -0.1571 H   0  0  0  0  0  0  0  0  0  0  0  0
    1.9404   -0.8202   -0.2703 H   0  0  0  0  0  0  0  0  0  0  0  0
    1.8855    1.6699   -0.3894 H   0  0  0  0  0  0  0  0  0  0  0  0
  1  2  1  0
  3  4  1  0
  3  7  1  0
  3  8  1  0
  3  9  1  0
  4  5  1  0
  4 10  1  0
  4 11  1  0
  5  6  2  0
  5 12  1  0
M  RAD  1   1   2
M  END
>  <reaction>  (9) 
rxn_464

>  <mol_properties>  (9) 
{"0": {"label": "*3", "atom_type": "S2s"}, "1": {"label": "*4", "atom_type": "H0"}, "3": {"label": "*1", "atom_type": "Cs"}, "4": {"label": "*0", "atom_type": "CS"}, "9": {"label": "*2", "atom_type": "H0"}}

>  <type>  (9) 
unop_5

>  <geom_source>  (9) 
Heuristics

$$$$

     RDKit          3D

 12 10  0  0  0  0  0  0  0  0999 V2000
   -1.2492   -1.8009    0.4303 S   0  0  0  0  0  1  0  0  0  0  0  0
   -2.0217   -0.7079    0.4533 H   0  0  0  0  0  0  0  0  0  0  0  0
    1.0407   -0.3317   -2.1450 C   0  0  0  0  0  0  0  0  0  0  0  0
    1.0407   -0.3317   -0.6140 C   0  0  0  0  0  0  0  0  0  0  0  0
    1.0407    1.0565   -0.0673 C   0  0  0  0  0  0  0  0  0  0  0  0
   -0.0789    1.7122    0.8803 S   0  0  0  0  0  0  0  0  0  0  0  0
    1.8959    0.2185   -2.5421 H   0  0  0  0  0  0  0  0  0  0  0  0
    1.0915   -1.3526   -2.5237 H   0  0  0  0  0  0  0  0  0  0  0  0
    0.1312    0.1307   -2.5307 H   0  0  0  0  0  0  0  0  0  0  0  0
    0.0130   -0.9910   -0.1453 H   0  0  0  0  0  0  0  0  0  0  0  0
    1.9510   -0.8284   -0.2585 H   0  0  0  0  0  0  0  0  0  0  0  0
    1.8961    1.6618   -0.3776 H   0  0  0  0  0  0  0  0  0  0  0  0
  1  2  1  0
  3  4  1  0
  3  7  1  0
  3  8  1  0
  3  9  1  0
  4  5  1  0
  4 10  1  0
  4 11  1  0
  5  6  2  0
  5 12  1  0
M  RAD  1   1   2
M  END
>  <reaction>  (10) 
rxn_464

>  <mol_properties>  (10) 
{"0": {"label": "*3", "atom_type": "S2s"}, "1": {"label": "*4", "atom_type": "H0"}, "3": {"label": "*1", "atom_type": "Cs"}, "4": {"label": "*0", "atom_type": "CS"}, "9": {"label": "*2", "atom_type": "H0"}}

>  <type>  (10) 
unop_6

>  <geom_source>  (10) 
Heuristics

$$$$

     RDKit          3D

 12 10  0  0  0  0  0  0  0  0999 V2000
   -1.2520   -1.8007    0.4244 S   0  0  0  0  0  1  0  0  0  0  0  0
   -1.7261   -0.7291    1.0716 H   0  0  0  0  0  0  0  0  0  0  0  0
    1.0379   -0.3315   -2.1509 C   0  0  0  0  0  0  0  0  0  0  0  0
    1.0379   -0.3315   -0.6198 C   0  0  0  0  0  0  0  0  0  0  0  0
    1.0379    1.0567   -0.0732 C   0  0  0  0  0  0  0  0  0  0  0  0
   -0.0817    1.7124    0.8744 S   0  0  0  0  0  0  0  0  0  0  0  0
    1.8931    0.2187   -2.5480 H   0  0  0  0  0  0  0  0  0  0  0  0
    1.0887   -1.3524   -2.5296 H   0  0  0  0  0  0  0  0  0  0  0  0
    0.1284    0.1309   -2.5366 H   0  0  0  0  0  0  0  0  0  0  0  0
    0.0102   -0.9908   -0.1512 H   0  0  0  0  0  0  0  0  0  0  0  0
    1.9482   -0.8282   -0.2644 H   0  0  0  0  0  0  0  0  0  0  0  0
    1.8933    1.6620   -0.3835 H   0  0  0  0  0  0  0  0  0  0  0  0
  1  2  1  0
  3  4  1  0
  3  7  1  0
  3  8  1  0
  3  9  1  0
  4  5  1  0
  4 10  1  0
  4 11  1  0
  5  6  2  0
  5 12  1  0
M  RAD  1   1   2
M  END
>  <reaction>  (11) 
rxn_464

>  <mol_properties>  (11) 
{"0": {"label": "*3", "atom_type": "S2s"}, "1": {"label": "*4", "atom_type": "H0"}, "3": {"label": "*1", "atom_type": "Cs"}, "4": {"label": "*0", "atom_type": "CS"}, "9": {"label": "*2", "atom_type": "H0"}}

>  <type>  (11) 
unop_7

>  <geom_source>  (11) 
Heuristics

$$$$

     RDKit          3D

 12 10  0  0  0  0  0  0  0  0999 V2000
   -1.2628   -1.7797    0.4303 S   0  0  0  0  0  1  0  0  0  0  0  0
   -0.5912   -2.9374    0.4533 H   0  0  0  0  0  0  0  0  0  0  0  0
    1.0271   -0.3105   -2.1450 C   0  0  0  0  0  0  0  0  0  0  0  0
    1.0271   -0.3105   -0.6140 C   0  0  0  0  0  0  0  0  0  0  0  0
    1.0271    1.0777   -0.0673 C   0  0  0  0  0  0  0  0  0  0  0  0
   -0.0925    1.7334    0.8803 S   0  0  0  0  0  0  0  0  0  0  0  0
    1.8823    0.2397   -2.5421 H   0  0  0  0  0  0  0  0  0  0  0  0
    1.0779   -1.3314   -2.5237 H   0  0  0  0  0  0  0  0  0  0  0  0
    0.1176    0.1519   -2.5307 H   0  0  0  0  0  0  0  0  0  0  0  0
   -0.0006   -0.9698   -0.1453 H   0  0  0  0  0  0  0  0  0  0  0  0
    1.9374   -0.8072   -0.2585 H   0  0  0  0  0  0  0  0  0  0  0  0
    1.8825    1.6830   -0.3776 H   0  0  0  0  0  0  0  0  0  0  0  0
  1  2  1  0
  3  4  1  0
  3  7  1  0
  3  8  1  0
  3  9  1  0
  4  5  1  0
  4 10  1  0
  4 11  1  0
  5  6  2  0
  5 12  1  0
M  RAD  1   1   2
M  END
>  <reaction>  (12) 
rxn_464

>  <mol_properties>  (12) 
{"0": {"label": "*3", "atom_type": "S2s"}, "1": {"label": "*4", "atom_type": "H0"}, "3": {"label": "*1", "atom_type": "Cs"}, "4": {"label": "*0", "atom_type": "CS"}, "9": {"label": "*2", "atom_type": "H0"}}

>  <type>  (12) 
unop_8

>  <geom_source>  (12) 
Heuristics

$$$$

     RDKit          3D

 12 10  0  0  0  0  0  0  0  0999 V2000
   -1.2493   -1.7935    0.4405 S   0  0  0  0  0  1  0  0  0  0  0  0
   -2.0100   -1.4872   -0.6175 H   0  0  0  0  0  0  0  0  0  0  0  0
    1.0406   -0.3243   -2.1349 C   0  0  0  0  0  0  0  0  0  0  0  0
    1.0406   -0.3243   -0.6038 C   0  0  0  0  0  0  0  0  0  0  0  0
    1.0406    1.0639   -0.0571 C   0  0  0  0  0  0  0  0  0  0  0  0
   -0.0790    1.7196    0.8904 S   0  0  0  0  0  0  0  0  0  0  0  0
    1.8958    0.2259   -2.5320 H   0  0  0  0  0  0  0  0  0  0  0  0
    1.0914   -1.3452   -2.5135 H   0  0  0  0  0  0  0  0  0  0  0  0
    0.1311    0.1381   -2.5205 H   0  0  0  0  0  0  0  0  0  0  0  0
    0.0129   -0.9836   -0.1351 H   0  0  0  0  0  0  0  0  0  0  0  0
    1.9509   -0.8210   -0.2484 H   0  0  0  0  0  0  0  0  0  0  0  0
    1.8960    1.6692   -0.3674 H   0  0  0  0  0  0  0  0  0  0  0  0
  1  2  1  0
  3  4  1  0
  3  7  1  0
  3  8  1  0
  3  9  1  0
  4  5  1  0
  4 10  1  0
  4 11  1  0
  5  6  2  0
  5 12  1  0
M  RAD  1   1   2
M  END
>  <reaction>  (13) 
rxn_464

>  <mol_properties>  (13) 
{"0": {"label": "*3", "atom_type": "S2s"}, "1": {"label": "*4", "atom_type": "H0"}, "3": {"label": "*1", "atom_type": "Cs"}, "4": {"label": "*0", "atom_type": "CS"}, "9": {"label": "*2", "atom_type": "H0"}}

>  <type>  (13) 
unop_9

>  <geom_source>  (13) 
Heuristics

$$$$

     RDKit          3D

 12 10  0  0  0  0  0  0  0  0999 V2000
   -1.2600   -1.7799    0.4362 S   0  0  0  0  0  1  0  0  0  0  0  0
   -0.8868   -2.9162   -0.1649 H   0  0  0  0  0  0  0  0  0  0  0  0
    1.0299   -0.3107   -2.1392 C   0  0  0  0  0  0  0  0  0  0  0  0
    1.0299   -0.3107   -0.6081 C   0  0  0  0  0  0  0  0  0  0  0  0
    1.0299    1.0775   -0.0614 C   0  0  0  0  0  0  0  0  0  0  0  0
   -0.0897    1.7332    0.8861 S   0  0  0  0  0  0  0  0  0  0  0  0
    1.8851    0.2395   -2.5363 H   0  0  0  0  0  0  0  0  0  0  0  0
    1.0807   -1.3316   -2.5178 H   0  0  0  0  0  0  0  0  0  0  0  0
    0.1204    0.1517   -2.5248 H   0  0  0  0  0  0  0  0  0  0  0  0
    0.0022   -0.9700   -0.1394 H   0  0  0  0  0  0  0  0  0  0  0  0
    1.9402   -0.8074   -0.2527 H   0  0  0  0  0  0  0  0  0  0  0  0
    1.8853    1.6828   -0.3717 H   0  0  0  0  0  0  0  0  0  0  0  0
  1  2  1  0
  3  4  1  0
  3  7  1  0
  3  8  1  0
  3  9  1  0
  4  5  1  0
  4 10  1  0
  4 11  1  0
  5  6  2  0
  5 12  1  0
M  RAD  1   1   2
M  END
>  <reaction>  (14) 
rxn_464

>  <mol_properties>  (14) 
{"0": {"label": "*3", "atom_type": "S2s"}, "1": {"label": "*4", "atom_type": "H0"}, "3": {"label": "*1", "atom_type": "Cs"}, "4": {"label": "*0", "atom_type": "CS"}, "9": {"label": "*2", "atom_type": "H0"}}

>  <type>  (14) 
unop_10

>  <geom_source>  (14) 
Heuristics

$$$$

     RDKit          3D

 12 10  0  0  0  0  0  0  0  0999 V2000
   -1.2559   -1.7977    0.4201 S   0  0  0  0  0  1  0  0  0  0  0  0
   -1.3181   -1.0433    1.5242 H   0  0  0  0  0  0  0  0  0  0  0  0
    1.0340   -0.3285   -2.1552 C   0  0  0  0  0  0  0  0  0  0  0  0
    1.0340   -0.3285   -0.6241 C   0  0  0  0  0  0  0  0  0  0  0  0
    1.0340    1.0597   -0.0775 C   0  0  0  0  0  0  0  0  0  0  0  0
   -0.0856    1.7154    0.8701 S   0  0  0  0  0  0  0  0  0  0  0  0
    1.8892    0.2217   -2.5523 H   0  0  0  0  0  0  0  0  0  0  0  0
    1.0848   -1.3494   -2.5339 H   0  0  0  0  0  0  0  0  0  0  0  0
    0.1245    0.1339   -2.5409 H   0  0  0  0  0  0  0  0  0  0  0  0
    0.0063   -0.9878   -0.1555 H   0  0  0  0  0  0  0  0  0  0  0  0
    1.9443   -0.8252   -0.2687 H   0  0  0  0  0  0  0  0  0  0  0  0
    1.8894    1.6650   -0.3878 H   0  0  0  0  0  0  0  0  0  0  0  0
  1  2  1  0
  3  4  1  0
  3  7  1  0
  3  8  1  0
  3  9  1  0
  4  5  1  0
  4 10  1  0
  4 11  1  0
  5  6  2  0
  5 12  1  0
M  RAD  1   1   2
M  END
>  <reaction>  (15) 
rxn_464

>  <mol_properties>  (15) 
{"0": {"label": "*3", "atom_type": "S2s"}, "1": {"label": "*4", "atom_type": "H0"}, "3": {"label": "*1", "atom_type": "Cs"}, "4": {"label": "*0", "atom_type": "CS"}, "9": {"label": "*2", "atom_type": "H0"}}

>  <type>  (15) 
unop_11

>  <geom_source>  (15) 
Heuristics

$$$$

     RDKit          3D

 12 10  0  0  0  0  0  0  0  0999 V2000
   -1.2522   -1.7878    0.4421 S   0  0  0  0  0  1  0  0  0  0  0  0
   -1.7059   -2.0790   -0.7832 H   0  0  0  0  0  0  0  0  0  0  0  0
    1.0377   -0.3186   -2.1333 C   0  0  0  0  0  0  0  0  0  0  0  0
    1.0377   -0.3186   -0.6022 C   0  0  0  0  0  0  0  0  0  0  0  0
    1.0377    1.0696   -0.0555 C   0  0  0  0  0  0  0  0  0  0  0  0
   -0.0819    1.7252    0.8920 S   0  0  0  0  0  0  0  0  0  0  0  0
    1.8929    0.2315   -2.5304 H   0  0  0  0  0  0  0  0  0  0  0  0
    1.0885   -1.3395   -2.5119 H   0  0  0  0  0  0  0  0  0  0  0  0
    0.1282    0.1438   -2.5189 H   0  0  0  0  0  0  0  0  0  0  0  0
    0.0100   -0.9780   -0.1335 H   0  0  0  0  0  0  0  0  0  0  0  0
    1.9480   -0.8153   -0.2468 H   0  0  0  0  0  0  0  0  0  0  0  0
    1.8931    1.6748   -0.3658 H   0  0  0  0  0  0  0  0  0  0  0  0
  1  2  1  0
  3  4  1  0
  3  7  1  0
  3  8  1  0
  3  9  1  0
  4  5  1  0
  4 10  1  0
  4 11  1  0
  5  6  2  0
  5 12  1  0
M  RAD  1   1   2
M  END
>  <reaction>  (16) 
rxn_464

>  <mol_properties>  (16) 
{"0": {"label": "*3", "atom_type": "S2s"}, "1": {"label": "*4", "atom_type": "H0"}, "3": {"label": "*1", "atom_type": "Cs"}, "4": {"label": "*0", "atom_type": "CS"}, "9": {"label": "*2", "atom_type": "H0"}}

>  <type>  (16) 
unop_12

>  <geom_source>  (16) 
Heuristics

$$$$
