
     RDKit          3D

  9  8  0  0  0  0  0  0  0  0999 V2000
   -0.8818   -0.3578    0.1297 C   0  0  0  0  0  0  0  0  0  0  0  0
    0.6153   -0.3021   -0.1188 C   0  0  0  0  0  0  0  0  0  0  0  0
    1.5354   -1.7170    0.5545 S   0  0  0  0  0  0  0  0  0  0  0  0
   -1.1018   -0.3317    1.1984 H   0  0  0  0  0  0  0  0  0  0  0  0
   -1.3114   -1.2723   -0.2799 H   0  0  0  0  0  0  0  0  0  0  0  0
   -1.3767    0.4976   -0.3363 H   0  0  0  0  0  0  0  0  0  0  0  0
    1.0467    0.6194    0.2718 H   0  0  0  0  0  0  0  0  0  0  0  0
    0.8295   -0.3275   -1.1882 H   0  0  0  0  0  0  0  0  0  0  0  0
    1.2306   -1.5077    1.8423 H   0  0  0  0  0  0  0  0  0  0  0  0
  1  2  1  0
  1  4  1  0
  1  5  1  0
  1  6  1  0
  2  3  1  0
  2  7  1  0
  2  8  1  0
  3  9  1  0
M  END
>  <reaction>  (1) 
rxn_1893

>  <mol_properties>  (1) 
{"1": {"label": "donator", "atom_type": "Cs"}, "6": {"label": "d_hydrogen", "atom_type": "H0"}}

>  <type>  (1) 
r1h

$$$$

     RDKit          3D

  9  8  0  0  0  0  0  0  0  0999 V2000
    2.3991   -0.1292   -0.2384 S   0  0  0  0  0  0  0  0  0  0  0  0
    0.7460    0.2807    0.0931 C   0  0  0  0  0  3  0  0  0  0  0  0
   -0.3131   -0.5719   -0.2043 C   0  0  0  0  0  0  0  0  0  0  0  0
   -0.2286   -1.8095   -0.7775 C   0  0  0  0  0  0  0  0  0  0  0  0
    2.9373    1.0009    0.2312 H   0  0  0  0  0  0  0  0  0  0  0  0
    0.5618    1.2421    0.5487 H   0  0  0  0  0  0  0  0  0  0  0  0
   -1.2978   -0.1954    0.0537 H   0  0  0  0  0  0  0  0  0  0  0  0
    0.7207   -2.2479   -1.0607 H   0  0  0  0  0  0  0  0  0  0  0  0
   -1.1177   -2.3938   -0.9670 H   0  0  0  0  0  0  0  0  0  0  0  0
  1  2  1  0
  1  5  1  0
  2  3  1  0
  2  6  1  0
  3  4  2  3
  3  7  1  0
  4  8  1  0
  4  9  1  0
M  RAD  1   2   2
M  END
>  <reaction>  (2) 
rxn_1893

>  <mol_properties>  (2) 
{"1": {"label": "acceptor", "atom_type": "Cs"}}

>  <type>  (2) 
r2

$$$$

     RDKit          3D

 10  9  0  0  0  0  0  0  0  0999 V2000
    2.2097   -0.5315    0.2575 S   0  0  0  0  0  0  0  0  0  0  0  0
    0.5401   -0.7188   -0.4494 C   0  0  0  0  0  0  0  0  0  0  0  0
   -0.5263   -0.1678    0.4365 C   0  0  0  0  0  0  0  0  0  0  0  0
   -1.3394    0.8185    0.0912 C   0  0  0  0  0  0  0  0  0  0  0  0
    2.1701    0.8016    0.3806 H   0  0  0  0  0  0  0  0  0  0  0  0
    0.4238   -1.7978   -0.5701 H   0  0  0  0  0  0  0  0  0  0  0  0
    0.5053   -0.2663   -1.4400 H   0  0  0  0  0  0  0  0  0  0  0  0
   -0.6005   -0.6141    1.4236 H   0  0  0  0  0  0  0  0  0  0  0  0
   -2.0960    1.1907    0.7700 H   0  0  0  0  0  0  0  0  0  0  0  0
   -1.2784    1.2877   -0.8850 H   0  0  0  0  0  0  0  0  0  0  0  0
  1  2  1  0
  1  5  1  0
  2  3  1  0
  2  6  1  0
  2  7  1  0
  3  4  2  3
  3  8  1  0
  4  9  1  0
  4 10  1  0
M  END
>  <reaction>  (3) 
rxn_1893

>  <mol_properties>  (3) 
{"1": {"label": "acceptor", "atom_type": "Cs"}, "9": {"label": "a_hydrogen", "atom_type": "H0"}}

>  <type>  (3) 
r2h

$$$$

     RDKit          3D

 18 16  0  0  0  0  0  0  0  0999 V2000
    0.0849   -1.4529    1.9277 S   0  0  0  0  0  0  0  0  0  0  0  0
    0.5794   -1.1720    0.2310 C   0  0  0  0  0  0  0  0  0  0  0  0
    1.8180   -0.4424   -0.0080 C   0  0  0  0  0  0  0  0  0  0  0  0
    2.5843   -0.6005   -1.0909 C   0  0  0  0  0  0  0  0  0  0  0  0
    1.1173   -2.2262    2.2979 H   0  0  0  0  0  0  0  0  0  0  0  0
    0.4318   -2.0379   -0.4127 H   0  0  0  0  0  0  0  0  0  0  0  0
    2.0847    0.3023    0.7358 H   0  0  0  0  0  0  0  0  0  0  0  0
    2.3500   -1.3416   -1.8474 H   0  0  0  0  0  0  0  0  0  0  0  0
    3.4737   -0.0032   -1.2428 H   0  0  0  0  0  0  0  0  0  0  0  0
   -1.4199   -0.0544   -2.1717 C   0  0  0  0  0  0  0  0  0  0  0  0
   -1.2954    0.4795   -0.7710 C   0  0  0  0  0  3  0  0  0  0  0  0
   -0.6559    2.1100   -0.5520 S   0  0  0  0  0  0  0  0  0  0  0  0
   -0.4493   -0.0494   -2.6737 H   0  0  0  0  0  0  0  0  0  0  0  0
   -2.1106    0.5457   -2.7699 H   0  0  0  0  0  0  0  0  0  0  0  0
   -1.7866   -1.0825   -2.1531 H   0  0  0  0  0  0  0  0  0  0  0  0
   -0.3864   -0.3614   -0.1824 H   0  0  0  0  0  0  0  0  0  0  0  0
   -2.1835    0.3659   -0.1522 H   0  0  0  0  0  0  0  0  0  0  0  0
    0.3841    1.9837   -1.3897 H   0  0  0  0  0  0  0  0  0  0  0  0
  1  2  1  0
  1  5  1  0
  2  3  1  0
  2  6  1  0
  2 16  1  0
  3  4  2  3
  3  7  1  0
  4  8  1  0
  4  9  1  0
 10 11  1  0
 10 13  1  0
 10 14  1  0
 10 15  1  0
 11 12  1  0
 11 17  1  0
 12 18  1  0
M  RAD  1  11   2
M  END
>  <reaction>  (4) 
rxn_1893

>  <mol_properties>  (4) 
{"0": {"label": "*0", "atom_type": "S2s"}, "1": {"label": "*1", "atom_type": "Cs"}, "10": {"label": "*3", "atom_type": "Cs"}, "11": {"label": "*4", "atom_type": "S2s"}, "15": {"label": "*2", "atom_type": "H0"}}

>  <type>  (4) 
ts

$$$$

     RDKit          3D

 18 16  0  0  0  0  0  0  0  0999 V2000
    1.4757    0.2746    1.2173 S   0  0  0  0  0  0  0  0  0  0  0  0
    0.5470   -0.9467    0.2332 C   0  0  0  0  0  3  0  0  0  0  0  0
    1.3922   -2.0937   -0.2090 C   0  0  0  0  0  0  0  0  0  0  0  0
    1.1657   -3.3539    0.1288 C   0  0  0  0  0  0  0  0  0  0  0  0
    1.8709   -0.5753    2.1741 H   0  0  0  0  0  0  0  0  0  0  0  0
   -0.3228   -1.2883    0.7936 H   0  0  0  0  0  0  0  0  0  0  0  0
    2.2466   -1.8418   -0.8298 H   0  0  0  0  0  0  0  0  0  0  0  0
    0.3251   -3.6300    0.7564 H   0  0  0  0  0  0  0  0  0  0  0  0
    1.8102   -4.1543   -0.2112 H   0  0  0  0  0  0  0  0  0  0  0  0
   -1.4788    0.4133   -2.2346 C   0  0  0  0  0  0  0  0  0  0  0  0
   -1.4788    0.4133   -0.7159 C   0  0  0  0  0  0  0  0  0  0  0  0
   -1.4788    2.0706    0.0291 S   0  0  0  0  0  0  0  0  0  0  0  0
   -0.5722    0.8787   -2.6253 H   0  0  0  0  0  0  0  0  0  0  0  0
   -2.3348    0.9645   -2.6247 H   0  0  0  0  0  0  0  0  0  0  0  0
   -1.5219   -0.6101   -2.6149 H   0  0  0  0  0  0  0  0  0  0  0  0
   -0.4669   -0.2661   -0.2418 H   0  0  0  0  0  0  0  0  0  0  0  0
   -2.3864   -0.0538   -0.3308 H   0  0  0  0  0  0  0  0  0  0  0  0
   -0.3040    2.4723   -0.4745 H   0  0  0  0  0  0  0  0  0  0  0  0
  1  2  1  0
  1  5  1  0
  2  3  1  0
  2  6  1  0
  3  4  2  3
  3  7  1  0
  4  8  1  0
  4  9  1  0
 10 11  1  0
 10 13  1  0
 10 14  1  0
 10 15  1  0
 11 12  1  0
 11 16  1  0
 11 17  1  0
 12 18  1  0
M  RAD  1   2   2
M  END
>  <reaction>  (5) 
rxn_1893

>  <mol_properties>  (5) 
{"0": {"label": "*0", "atom_type": "S2s"}, "1": {"label": "*1", "atom_type": "Cs"}, "10": {"label": "*3", "atom_type": "Cs"}, "11": {"label": "*4", "atom_type": "S2s"}, "15": {"label": "*2", "atom_type": "H0"}}

>  <type>  (5) 
unop_1

>  <geom_source>  (5) 
Heuristics

$$$$

     RDKit          3D

 18 16  0  0  0  0  0  0  0  0999 V2000
    1.8848   -0.5611   -0.7842 S   0  0  0  0  0  0  0  0  0  0  0  0
    0.5896   -0.7567    0.4833 C   0  0  0  0  0  3  0  0  0  0  0  0
    0.5193   -2.1444    1.0265 C   0  0  0  0  0  0  0  0  0  0  0  0
    0.7172   -2.4523    2.2991 C   0  0  0  0  0  0  0  0  0  0  0  0
    2.9081   -0.9489   -0.0120 H   0  0  0  0  0  0  0  0  0  0  0  0
    0.7377   -0.0269    1.2787 H   0  0  0  0  0  0  0  0  0  0  0  0
    0.3086   -2.9267    0.3037 H   0  0  0  0  0  0  0  0  0  0  0  0
    0.9394   -1.6903    3.0385 H   0  0  0  0  0  0  0  0  0  0  0  0
    0.6620   -3.4755    2.6477 H   0  0  0  0  0  0  0  0  0  0  0  0
   -1.4362    0.6033   -1.9845 C   0  0  0  0  0  0  0  0  0  0  0  0
   -1.4362    0.6033   -0.4658 C   0  0  0  0  0  0  0  0  0  0  0  0
   -1.4362    2.2607    0.2792 S   0  0  0  0  0  0  0  0  0  0  0  0
   -0.5295    1.0687   -2.3752 H   0  0  0  0  0  0  0  0  0  0  0  0
   -2.2921    1.1545   -2.3746 H   0  0  0  0  0  0  0  0  0  0  0  0
   -1.4792   -0.4201   -2.3648 H   0  0  0  0  0  0  0  0  0  0  0  0
   -0.4242   -0.0760    0.0083 H   0  0  0  0  0  0  0  0  0  0  0  0
   -2.3438    0.1363   -0.0807 H   0  0  0  0  0  0  0  0  0  0  0  0
   -0.2614    2.6623   -0.2244 H   0  0  0  0  0  0  0  0  0  0  0  0
  1  2  1  0
  1  5  1  0
  2  3  1  0
  2  6  1  0
  3  4  2  3
  3  7  1  0
  4  8  1  0
  4  9  1  0
 10 11  1  0
 10 13  1  0
 10 14  1  0
 10 15  1  0
 11 12  1  0
 11 16  1  0
 11 17  1  0
 12 18  1  0
M  RAD  1   2   2
M  END
>  <reaction>  (6) 
rxn_1893

>  <mol_properties>  (6) 
{"0": {"label": "*0", "atom_type": "S2s"}, "1": {"label": "*1", "atom_type": "Cs"}, "10": {"label": "*3", "atom_type": "Cs"}, "11": {"label": "*4", "atom_type": "S2s"}, "15": {"label": "*2", "atom_type": "H0"}}

>  <type>  (6) 
unop_2

>  <geom_source>  (6) 
Heuristics

$$$$

     RDKit          3D

 18 16  0  0  0  0  0  0  0  0999 V2000
    0.9298   -0.1586    1.7952 S   0  0  0  0  0  0  0  0  0  0  0  0
    0.5567   -0.9733    0.2079 C   0  0  0  0  0  3  0  0  0  0  0  0
    1.7792   -1.4776   -0.4827 C   0  0  0  0  0  0  0  0  0  0  0  0
    1.9937   -2.7518   -0.7719 C   0  0  0  0  0  0  0  0  0  0  0  0
    1.5408   -1.2079    2.3605 H   0  0  0  0  0  0  0  0  0  0  0  0
   -0.1682   -1.7716    0.3636 H   0  0  0  0  0  0  0  0  0  0  0  0
    2.5253   -0.7296   -0.7331 H   0  0  0  0  0  0  0  0  0  0  0  0
    1.2686   -3.5193   -0.5229 H   0  0  0  0  0  0  0  0  0  0  0  0
    2.8997   -3.0732   -1.2694 H   0  0  0  0  0  0  0  0  0  0  0  0
   -1.4690    0.3867   -2.2600 C   0  0  0  0  0  0  0  0  0  0  0  0
   -1.4690    0.3867   -0.7413 C   0  0  0  0  0  0  0  0  0  0  0  0
   -1.4690    2.0441    0.0037 S   0  0  0  0  0  0  0  0  0  0  0  0
   -0.5624    0.8521   -2.6507 H   0  0  0  0  0  0  0  0  0  0  0  0
   -2.3250    0.9379   -2.6501 H   0  0  0  0  0  0  0  0  0  0  0  0
   -1.5121   -0.6366   -2.6403 H   0  0  0  0  0  0  0  0  0  0  0  0
   -0.4571   -0.2926   -0.2672 H   0  0  0  0  0  0  0  0  0  0  0  0
   -2.3767   -0.0803   -0.3562 H   0  0  0  0  0  0  0  0  0  0  0  0
   -0.2942    2.4458   -0.4999 H   0  0  0  0  0  0  0  0  0  0  0  0
  1  2  1  0
  1  5  1  0
  2  3  1  0
  2  6  1  0
  3  4  2  3
  3  7  1  0
  4  8  1  0
  4  9  1  0
 10 11  1  0
 10 13  1  0
 10 14  1  0
 10 15  1  0
 11 12  1  0
 11 16  1  0
 11 17  1  0
 12 18  1  0
M  RAD  1   2   2
M  END
>  <reaction>  (7) 
rxn_1893

>  <mol_properties>  (7) 
{"0": {"label": "*0", "atom_type": "S2s"}, "1": {"label": "*1", "atom_type": "Cs"}, "10": {"label": "*3", "atom_type": "Cs"}, "11": {"label": "*4", "atom_type": "S2s"}, "15": {"label": "*2", "atom_type": "H0"}}

>  <type>  (7) 
unop_3

>  <geom_source>  (7) 
Heuristics

$$$$

     RDKit          3D

 18 16  0  0  0  0  0  0  0  0999 V2000
    0.8034   -2.3655   -0.4662 S   0  0  0  0  0  0  0  0  0  0  0  0
    1.0497   -0.6860    0.1981 C   0  0  0  0  0  3  0  0  0  0  0  0
    0.3491   -0.4715    1.4976 C   0  0  0  0  0  0  0  0  0  0  0  0
    0.9650   -0.1656    2.6292 C   0  0  0  0  0  0  0  0  0  0  0  0
    1.3018   -3.0182    0.5919 H   0  0  0  0  0  0  0  0  0  0  0  0
    2.1152   -0.4747    0.2828 H   0  0  0  0  0  0  0  0  0  0  0  0
   -0.7290   -0.5992    1.4820 H   0  0  0  0  0  0  0  0  0  0  0  0
    2.0419   -0.0429    2.6729 H   0  0  0  0  0  0  0  0  0  0  0  0
    0.4154   -0.0248    3.5510 H   0  0  0  0  0  0  0  0  0  0  0  0
   -0.9760    0.6739   -2.2698 C   0  0  0  0  0  0  0  0  0  0  0  0
   -0.9760    0.6739   -0.7511 C   0  0  0  0  0  0  0  0  0  0  0  0
   -0.9760    2.3313   -0.0061 S   0  0  0  0  0  0  0  0  0  0  0  0
   -0.0694    1.1394   -2.6605 H   0  0  0  0  0  0  0  0  0  0  0  0
   -1.8320    1.2251   -2.6599 H   0  0  0  0  0  0  0  0  0  0  0  0
   -1.0191   -0.3494   -2.6501 H   0  0  0  0  0  0  0  0  0  0  0  0
    0.0359   -0.0054   -0.2770 H   0  0  0  0  0  0  0  0  0  0  0  0
   -1.8837    0.2069   -0.3660 H   0  0  0  0  0  0  0  0  0  0  0  0
    0.1988    2.7330   -0.5097 H   0  0  0  0  0  0  0  0  0  0  0  0
  1  2  1  0
  1  5  1  0
  2  3  1  0
  2  6  1  0
  3  4  2  3
  3  7  1  0
  4  8  1  0
  4  9  1  0
 10 11  1  0
 10 13  1  0
 10 14  1  0
 10 15  1  0
 11 12  1  0
 11 16  1  0
 11 17  1  0
 12 18  1  0
M  RAD  1   2   2
M  END
>  <reaction>  (8) 
rxn_1893

>  <mol_properties>  (8) 
{"0": {"label": "*0", "atom_type": "S2s"}, "1": {"label": "*1", "atom_type": "Cs"}, "10": {"label": "*3", "atom_type": "Cs"}, "11": {"label": "*4", "atom_type": "S2s"}, "15": {"label": "*2", "atom_type": "H0"}}

>  <type>  (8) 
unop_4

>  <geom_source>  (8) 
Heuristics

$$$$

     RDKit          3D

 18 16  0  0  0  0  0  0  0  0999 V2000
    0.4074   -0.9580    1.9610 S   0  0  0  0  0  0  0  0  0  0  0  0
    0.5985   -1.0863    0.1529 C   0  0  0  0  0  3  0  0  0  0  0  0
    1.8902   -0.5188   -0.3321 C   0  0  0  0  0  0  0  0  0  0  0  0
    2.8151   -1.2211   -0.9682 C   0  0  0  0  0  0  0  0  0  0  0  0
    1.5132   -1.6448    2.2763 H   0  0  0  0  0  0  0  0  0  0  0  0
    0.4797   -2.1237   -0.1587 H   0  0  0  0  0  0  0  0  0  0  0  0
    2.0566    0.5325   -0.1179 H   0  0  0  0  0  0  0  0  0  0  0  0
    2.6771   -2.2751   -1.1847 H   0  0  0  0  0  0  0  0  0  0  0  0
    3.7415   -0.7680   -1.2970 H   0  0  0  0  0  0  0  0  0  0  0  0
   -1.4273    0.2736   -2.3150 C   0  0  0  0  0  0  0  0  0  0  0  0
   -1.4273    0.2736   -0.7963 C   0  0  0  0  0  0  0  0  0  0  0  0
   -1.4273    1.9310   -0.0513 S   0  0  0  0  0  0  0  0  0  0  0  0
   -0.5206    0.7391   -2.7057 H   0  0  0  0  0  0  0  0  0  0  0  0
   -2.2832    0.8248   -2.7051 H   0  0  0  0  0  0  0  0  0  0  0  0
   -1.4703   -0.7497   -2.6953 H   0  0  0  0  0  0  0  0  0  0  0  0
   -0.4153   -0.4057   -0.3222 H   0  0  0  0  0  0  0  0  0  0  0  0
   -2.3349   -0.1934   -0.4112 H   0  0  0  0  0  0  0  0  0  0  0  0
   -0.2524    2.3327   -0.5548 H   0  0  0  0  0  0  0  0  0  0  0  0
  1  2  1  0
  1  5  1  0
  2  3  1  0
  2  6  1  0
  3  4  2  3
  3  7  1  0
  4  8  1  0
  4  9  1  0
 10 11  1  0
 10 13  1  0
 10 14  1  0
 10 15  1  0
 11 12  1  0
 11 16  1  0
 11 17  1  0
 12 18  1  0
M  RAD  1   2   2
M  END
>  <reaction>  (9) 
rxn_1893

>  <mol_properties>  (9) 
{"0": {"label": "*0", "atom_type": "S2s"}, "1": {"label": "*1", "atom_type": "Cs"}, "10": {"label": "*3", "atom_type": "Cs"}, "11": {"label": "*4", "atom_type": "S2s"}, "15": {"label": "*2", "atom_type": "H0"}}

>  <type>  (9) 
unop_5

>  <geom_source>  (9) 
Heuristics

$$$$

     RDKit          3D

 18 16  0  0  0  0  0  0  0  0999 V2000
    0.4087   -2.5437    0.2215 S   0  0  0  0  0  0  0  0  0  0  0  0
    1.0533   -0.8462    0.0617 C   0  0  0  0  0  3  0  0  0  0  0  0
    0.6745    0.0251    1.2119 C   0  0  0  0  0  0  0  0  0  0  0  0
    1.5479    0.6045    2.0210 C   0  0  0  0  0  0  0  0  0  0  0  0
    0.9985   -2.8167    1.3927 H   0  0  0  0  0  0  0  0  0  0  0  0
    2.1338   -0.8726   -0.0764 H   0  0  0  0  0  0  0  0  0  0  0  0
   -0.3906    0.1563    1.3770 H   0  0  0  0  0  0  0  0  0  0  0  0
    2.6168    0.4804    1.8834 H   0  0  0  0  0  0  0  0  0  0  0  0
    1.2267    1.2247    2.8479 H   0  0  0  0  0  0  0  0  0  0  0  0
   -0.9725    0.5138   -2.4062 C   0  0  0  0  0  0  0  0  0  0  0  0
   -0.9725    0.5138   -0.8875 C   0  0  0  0  0  0  0  0  0  0  0  0
   -0.9725    2.1712   -0.1425 S   0  0  0  0  0  0  0  0  0  0  0  0
   -0.0658    0.9792   -2.7969 H   0  0  0  0  0  0  0  0  0  0  0  0
   -1.8284    1.0650   -2.7963 H   0  0  0  0  0  0  0  0  0  0  0  0
   -1.0155   -0.5096   -2.7865 H   0  0  0  0  0  0  0  0  0  0  0  0
    0.0395   -0.1655   -0.4134 H   0  0  0  0  0  0  0  0  0  0  0  0
   -1.8801    0.0467   -0.5024 H   0  0  0  0  0  0  0  0  0  0  0  0
    0.2024    2.5728   -0.6461 H   0  0  0  0  0  0  0  0  0  0  0  0
  1  2  1  0
  1  5  1  0
  2  3  1  0
  2  6  1  0
  3  4  2  3
  3  7  1  0
  4  8  1  0
  4  9  1  0
 10 11  1  0
 10 13  1  0
 10 14  1  0
 10 15  1  0
 11 12  1  0
 11 16  1  0
 11 17  1  0
 12 18  1  0
M  RAD  1   2   2
M  END
>  <reaction>  (10) 
rxn_1893

>  <mol_properties>  (10) 
{"0": {"label": "*0", "atom_type": "S2s"}, "1": {"label": "*1", "atom_type": "Cs"}, "10": {"label": "*3", "atom_type": "Cs"}, "11": {"label": "*4", "atom_type": "S2s"}, "15": {"label": "*2", "atom_type": "H0"}}

>  <type>  (10) 
unop_6

>  <geom_source>  (10) 
Heuristics

$$$$

     RDKit          3D

 18 16  0  0  0  0  0  0  0  0999 V2000
    0.1743   -2.3461    0.9852 S   0  0  0  0  0  0  0  0  0  0  0  0
    0.9530   -1.0241    0.0012 C   0  0  0  0  0  3  0  0  0  0  0  0
    1.0738    0.2590    0.7526 C   0  0  0  0  0  0  0  0  0  0  0  0
    2.2258    0.8534    1.0227 C   0  0  0  0  0  0  0  0  0  0  0  0
    1.0616   -2.3268    1.9883 H   0  0  0  0  0  0  0  0  0  0  0  0
    1.9217   -1.3598   -0.3679 H   0  0  0  0  0  0  0  0  0  0  0  0
    0.1419    0.6952    1.0995 H   0  0  0  0  0  0  0  0  0  0  0  0
    3.1708    0.4323    0.6963 H   0  0  0  0  0  0  0  0  0  0  0  0
    2.2658    1.7822    1.5771 H   0  0  0  0  0  0  0  0  0  0  0  0
   -1.0727    0.3359   -2.4666 C   0  0  0  0  0  0  0  0  0  0  0  0
   -1.0727    0.3359   -0.9480 C   0  0  0  0  0  0  0  0  0  0  0  0
   -1.0727    1.9932   -0.2030 S   0  0  0  0  0  0  0  0  0  0  0  0
   -0.1661    0.8013   -2.8574 H   0  0  0  0  0  0  0  0  0  0  0  0
   -1.9287    0.8871   -2.8567 H   0  0  0  0  0  0  0  0  0  0  0  0
   -1.1158   -0.6875   -2.8469 H   0  0  0  0  0  0  0  0  0  0  0  0
   -0.0608   -0.3434   -0.4738 H   0  0  0  0  0  0  0  0  0  0  0  0
   -1.9803   -0.1312   -0.5628 H   0  0  0  0  0  0  0  0  0  0  0  0
    0.1021    2.3949   -0.7065 H   0  0  0  0  0  0  0  0  0  0  0  0
  1  2  1  0
  1  5  1  0
  2  3  1  0
  2  6  1  0
  3  4  2  3
  3  7  1  0
  4  8  1  0
  4  9  1  0
 10 11  1  0
 10 13  1  0
 10 14  1  0
 10 15  1  0
 11 12  1  0
 11 16  1  0
 11 17  1  0
 12 18  1  0
M  RAD  1   2   2
M  END
>  <reaction>  (11) 
rxn_1893

>  <mol_properties>  (11) 
{"0": {"label": "*0", "atom_type": "S2s"}, "1": {"label": "*1", "atom_type": "Cs"}, "10": {"label": "*3", "atom_type": "Cs"}, "11": {"label": "*4", "atom_type": "S2s"}, "15": {"label": "*2", "atom_type": "H0"}}

>  <type>  (11) 
unop_7

>  <geom_source>  (11) 
Heuristics

$$$$

     RDKit          3D

 18 16  0  0  0  0  0  0  0  0999 V2000
    1.8477    0.3010    0.4601 S   0  0  0  0  0  0  0  0  0  0  0  0
    0.5207   -0.9383    0.3002 C   0  0  0  0  0  3  0  0  0  0  0  0
    1.0416   -2.3342    0.2234 C   0  0  0  0  0  0  0  0  0  0  0  0
    0.7527   -3.2817    1.1022 C   0  0  0  0  0  0  0  0  0  0  0  0
    2.3807   -0.1964    1.5836 H   0  0  0  0  0  0  0  0  0  0  0  0
   -0.1910   -0.8254    1.1175 H   0  0  0  0  0  0  0  0  0  0  0  0
    1.7092   -2.5464   -0.6061 H   0  0  0  0  0  0  0  0  0  0  0  0
    0.0968   -3.0918    1.9451 H   0  0  0  0  0  0  0  0  0  0  0  0
    1.1591   -4.2806    1.0096 H   0  0  0  0  0  0  0  0  0  0  0  0
   -1.5051    0.4217   -2.1677 C   0  0  0  0  0  0  0  0  0  0  0  0
   -1.5051    0.4217   -0.6490 C   0  0  0  0  0  0  0  0  0  0  0  0
   -1.5051    2.0790    0.0960 S   0  0  0  0  0  0  0  0  0  0  0  0
   -0.5985    0.8871   -2.5584 H   0  0  0  0  0  0  0  0  0  0  0  0
   -2.3611    0.9729   -2.5578 H   0  0  0  0  0  0  0  0  0  0  0  0
   -1.5482   -0.6017   -2.5479 H   0  0  0  0  0  0  0  0  0  0  0  0
   -0.4932   -0.2577   -0.1749 H   0  0  0  0  0  0  0  0  0  0  0  0
   -2.4127   -0.0454   -0.2639 H   0  0  0  0  0  0  0  0  0  0  0  0
   -0.3303    2.4807   -0.4075 H   0  0  0  0  0  0  0  0  0  0  0  0
  1  2  1  0
  1  5  1  0
  2  3  1  0
  2  6  1  0
  3  4  2  3
  3  7  1  0
  4  8  1  0
  4  9  1  0
 10 11  1  0
 10 13  1  0
 10 14  1  0
 10 15  1  0
 11 12  1  0
 11 16  1  0
 11 17  1  0
 12 18  1  0
M  RAD  1   2   2
M  END
>  <reaction>  (12) 
rxn_1893

>  <mol_properties>  (12) 
{"0": {"label": "*0", "atom_type": "S2s"}, "1": {"label": "*1", "atom_type": "Cs"}, "10": {"label": "*3", "atom_type": "Cs"}, "11": {"label": "*4", "atom_type": "S2s"}, "15": {"label": "*2", "atom_type": "H0"}}

>  <type>  (12) 
unop_8

>  <geom_source>  (12) 
Heuristics

$$$$

     RDKit          3D

 18 16  0  0  0  0  0  0  0  0999 V2000
    1.2472   -1.8736   -0.9076 S   0  0  0  0  0  0  0  0  0  0  0  0
    0.9379   -0.6008    0.3599 C   0  0  0  0  0  3  0  0  0  0  0  0
    0.1909   -1.1298    1.5380 C   0  0  0  0  0  0  0  0  0  0  0  0
    0.6645   -1.1329    2.7745 C   0  0  0  0  0  0  0  0  0  0  0  0
    1.9159   -2.7173   -0.1108 H   0  0  0  0  0  0  0  0  0  0  0  0
    1.8794   -0.1424    0.6610 H   0  0  0  0  0  0  0  0  0  0  0  0
   -0.7900   -1.5462    1.3298 H   0  0  0  0  0  0  0  0  0  0  0  0
    1.6456   -0.7324    3.0066 H   0  0  0  0  0  0  0  0  0  0  0  0
    0.0885   -1.5333    3.5989 H   0  0  0  0  0  0  0  0  0  0  0  0
   -1.0879    0.7592   -2.1079 C   0  0  0  0  0  0  0  0  0  0  0  0
   -1.0879    0.7592   -0.5892 C   0  0  0  0  0  0  0  0  0  0  0  0
   -1.0879    2.4166    0.1557 S   0  0  0  0  0  0  0  0  0  0  0  0
   -0.1812    1.2246   -2.4987 H   0  0  0  0  0  0  0  0  0  0  0  0
   -1.9438    1.3104   -2.4980 H   0  0  0  0  0  0  0  0  0  0  0  0
   -1.1310   -0.2642   -2.4882 H   0  0  0  0  0  0  0  0  0  0  0  0
   -0.0760    0.0799   -0.1151 H   0  0  0  0  0  0  0  0  0  0  0  0
   -1.9955    0.2922   -0.2041 H   0  0  0  0  0  0  0  0  0  0  0  0
    0.0869    2.8183   -0.3478 H   0  0  0  0  0  0  0  0  0  0  0  0
  1  2  1  0
  1  5  1  0
  2  3  1  0
  2  6  1  0
  3  4  2  3
  3  7  1  0
  4  8  1  0
  4  9  1  0
 10 11  1  0
 10 13  1  0
 10 14  1  0
 10 15  1  0
 11 12  1  0
 11 16  1  0
 11 17  1  0
 12 18  1  0
M  RAD  1   2   2
M  END
>  <reaction>  (13) 
rxn_1893

>  <mol_properties>  (13) 
{"0": {"label": "*0", "atom_type": "S2s"}, "1": {"label": "*1", "atom_type": "Cs"}, "10": {"label": "*3", "atom_type": "Cs"}, "11": {"label": "*4", "atom_type": "S2s"}, "15": {"label": "*2", "atom_type": "H0"}}

>  <type>  (13) 
unop_9

>  <geom_source>  (13) 
Heuristics

$$$$

     RDKit          3D

 18 16  0  0  0  0  0  0  0  0999 V2000
    1.9790   -0.0152   -0.2624 S   0  0  0  0  0  0  0  0  0  0  0  0
    0.5179   -0.8791    0.4018 C   0  0  0  0  0  3  0  0  0  0  0  0
    0.7695   -2.3279    0.6532 C   0  0  0  0  0  0  0  0  0  0  0  0
    0.6791   -2.8995    1.8442 C   0  0  0  0  0  0  0  0  0  0  0  0
    2.7996   -0.3076    0.7550 H   0  0  0  0  0  0  0  0  0  0  0  0
    0.1687   -0.3755    1.3027 H   0  0  0  0  0  0  0  0  0  0  0  0
    1.0595   -2.9162   -0.2122 H   0  0  0  0  0  0  0  0  0  0  0  0
    0.4015   -2.3314    2.7256 H   0  0  0  0  0  0  0  0  0  0  0  0
    0.8768   -3.9549    1.9806 H   0  0  0  0  0  0  0  0  0  0  0  0
   -1.5079    0.4809   -2.0660 C   0  0  0  0  0  0  0  0  0  0  0  0
   -1.5079    0.4809   -0.5473 C   0  0  0  0  0  0  0  0  0  0  0  0
   -1.5079    2.1383    0.1977 S   0  0  0  0  0  0  0  0  0  0  0  0
   -0.6012    0.9463   -2.4567 H   0  0  0  0  0  0  0  0  0  0  0  0
   -2.3638    1.0321   -2.4561 H   0  0  0  0  0  0  0  0  0  0  0  0
   -1.5509   -0.5425   -2.4463 H   0  0  0  0  0  0  0  0  0  0  0  0
   -0.4959   -0.1984   -0.0732 H   0  0  0  0  0  0  0  0  0  0  0  0
   -2.4155    0.0139   -0.1622 H   0  0  0  0  0  0  0  0  0  0  0  0
   -0.3331    2.5399   -0.3059 H   0  0  0  0  0  0  0  0  0  0  0  0
  1  2  1  0
  1  5  1  0
  2  3  1  0
  2  6  1  0
  3  4  2  3
  3  7  1  0
  4  8  1  0
  4  9  1  0
 10 11  1  0
 10 13  1  0
 10 14  1  0
 10 15  1  0
 11 12  1  0
 11 16  1  0
 11 17  1  0
 12 18  1  0
M  RAD  1   2   2
M  END
>  <reaction>  (14) 
rxn_1893

>  <mol_properties>  (14) 
{"0": {"label": "*0", "atom_type": "S2s"}, "1": {"label": "*1", "atom_type": "Cs"}, "10": {"label": "*3", "atom_type": "Cs"}, "11": {"label": "*4", "atom_type": "S2s"}, "15": {"label": "*2", "atom_type": "H0"}}

>  <type>  (14) 
unop_10

>  <geom_source>  (14) 
Heuristics

$$$$

     RDKit          3D

 18 16  0  0  0  0  0  0  0  0999 V2000
    0.1581   -1.7913    1.6308 S   0  0  0  0  0  0  0  0  0  0  0  0
    0.7708   -1.1375    0.0435 C   0  0  0  0  0  3  0  0  0  0  0  0
    1.5221    0.1420    0.1984 C   0  0  0  0  0  0  0  0  0  0  0  0
    2.7928    0.3001   -0.1387 C   0  0  0  0  0  0  0  0  0  0  0  0
    1.3537   -1.8734    2.2289 H   0  0  0  0  0  0  0  0  0  0  0  0
    1.3742   -1.8929   -0.4591 H   0  0  0  0  0  0  0  0  0  0  0  0
    0.9677    0.9680    0.6335 H   0  0  0  0  0  0  0  0  0  0  0  0
    3.3711   -0.5125   -0.5654 H   0  0  0  0  0  0  0  0  0  0  0  0
    3.2996    1.2467   -0.0027 H   0  0  0  0  0  0  0  0  0  0  0  0
   -1.2549    0.2224   -2.4243 C   0  0  0  0  0  0  0  0  0  0  0  0
   -1.2549    0.2224   -0.9057 C   0  0  0  0  0  0  0  0  0  0  0  0
   -1.2549    1.8798   -0.1607 S   0  0  0  0  0  0  0  0  0  0  0  0
   -0.3483    0.6879   -2.8151 H   0  0  0  0  0  0  0  0  0  0  0  0
   -2.1109    0.7736   -2.8145 H   0  0  0  0  0  0  0  0  0  0  0  0
   -1.2980   -0.8009   -2.8046 H   0  0  0  0  0  0  0  0  0  0  0  0
   -0.2430   -0.4569   -0.4316 H   0  0  0  0  0  0  0  0  0  0  0  0
   -2.1625   -0.2446   -0.5206 H   0  0  0  0  0  0  0  0  0  0  0  0
   -0.0801    2.2815   -0.6642 H   0  0  0  0  0  0  0  0  0  0  0  0
  1  2  1  0
  1  5  1  0
  2  3  1  0
  2  6  1  0
  3  4  2  3
  3  7  1  0
  4  8  1  0
  4  9  1  0
 10 11  1  0
 10 13  1  0
 10 14  1  0
 10 15  1  0
 11 12  1  0
 11 16  1  0
 11 17  1  0
 12 18  1  0
M  RAD  1   2   2
M  END
>  <reaction>  (15) 
rxn_1893

>  <mol_properties>  (15) 
{"0": {"label": "*0", "atom_type": "S2s"}, "1": {"label": "*1", "atom_type": "Cs"}, "10": {"label": "*3", "atom_type": "Cs"}, "11": {"label": "*4", "atom_type": "S2s"}, "15": {"label": "*2", "atom_type": "H0"}}

>  <type>  (15) 
unop_11

>  <geom_source>  (15) 
Heuristics

$$$$

     RDKit          3D

 18 16  0  0  0  0  0  0  0  0999 V2000
    1.6261   -1.2184   -1.0132 S   0  0  0  0  0  0  0  0  0  0  0  0
    0.7525   -0.6319    0.4752 C   0  0  0  0  0  3  0  0  0  0  0  0
    0.2792   -1.7489    1.3436 C   0  0  0  0  0  0  0  0  0  0  0  0
    0.6695   -1.9296    2.5959 C   0  0  0  0  0  0  0  0  0  0  0  0
    2.5734   -1.9100   -0.3665 H   0  0  0  0  0  0  0  0  0  0  0  0
    1.3882    0.0584    1.0289 H   0  0  0  0  0  0  0  0  0  0  0  0
   -0.4129   -2.4472    0.8831 H   0  0  0  0  0  0  0  0  0  0  0  0
    1.3681   -1.2519    3.0751 H   0  0  0  0  0  0  0  0  0  0  0  0
    0.3037   -2.7590    3.1874 H   0  0  0  0  0  0  0  0  0  0  0  0
   -1.2732    0.7280   -1.9926 C   0  0  0  0  0  0  0  0  0  0  0  0
   -1.2732    0.7280   -0.4740 C   0  0  0  0  0  0  0  0  0  0  0  0
   -1.2732    2.3854    0.2710 S   0  0  0  0  0  0  0  0  0  0  0  0
   -0.3666    1.1935   -2.3834 H   0  0  0  0  0  0  0  0  0  0  0  0
   -2.1292    1.2792   -2.3827 H   0  0  0  0  0  0  0  0  0  0  0  0
   -1.3163   -0.2953   -2.3729 H   0  0  0  0  0  0  0  0  0  0  0  0
   -0.2613    0.0487    0.0002 H   0  0  0  0  0  0  0  0  0  0  0  0
   -2.1808    0.2610   -0.0888 H   0  0  0  0  0  0  0  0  0  0  0  0
   -0.0984    2.7871   -0.2325 H   0  0  0  0  0  0  0  0  0  0  0  0
  1  2  1  0
  1  5  1  0
  2  3  1  0
  2  6  1  0
  3  4  2  3
  3  7  1  0
  4  8  1  0
  4  9  1  0
 10 11  1  0
 10 13  1  0
 10 14  1  0
 10 15  1  0
 11 12  1  0
 11 16  1  0
 11 17  1  0
 12 18  1  0
M  RAD  1   2   2
M  END
>  <reaction>  (16) 
rxn_1893

>  <mol_properties>  (16) 
{"0": {"label": "*0", "atom_type": "S2s"}, "1": {"label": "*1", "atom_type": "Cs"}, "10": {"label": "*3", "atom_type": "Cs"}, "11": {"label": "*4", "atom_type": "S2s"}, "15": {"label": "*2", "atom_type": "H0"}}

>  <type>  (16) 
unop_12

>  <geom_source>  (16) 
Heuristics

$$$$

     RDKit          3D

 18 16  0  0  0  0  0  0  0  0999 V2000
   -0.4528    1.9728   -1.1458 S   0  0  0  0  0  0  0  0  0  0  0  0
    2.0256    1.0399   -0.2038 S   0  0  0  0  0  0  0  0  0  0  0  0
   -0.8529    0.5707   -0.0559 C   0  0  0  0  0  0  0  0  0  0  0  0
    2.5044   -1.6148    0.3516 C   0  0  0  0  0  0  0  0  0  0  0  0
   -2.0413   -0.1825   -0.5756 C   0  0  0  0  0  0  0  0  0  0  0  0
    1.4485   -0.5322    0.5076 C   0  0  0  0  0  3  0  0  0  0  0  0
   -3.2790    0.3148   -0.5007 C   0  0  0  0  0  0  0  0  0  0  0  0
   -1.0423    0.9321    0.9775 H   0  0  0  0  0  0  0  0  0  0  0  0
    0.2115   -0.2604   -0.0282 H   0  0  0  0  0  0  0  0  0  0  0  0
    2.7391   -1.7623   -0.7233 H   0  0  0  0  0  0  0  0  0  0  0  0
    3.4294   -1.3330    0.8978 H   0  0  0  0  0  0  0  0  0  0  0  0
    2.1171   -2.5684    0.7666 H   0  0  0  0  0  0  0  0  0  0  0  0
   -1.8918   -1.1734   -0.9928 H   0  0  0  0  0  0  0  0  0  0  0  0
    1.1981   -0.3904    1.5803 H   0  0  0  0  0  0  0  0  0  0  0  0
   -4.1191   -0.2630   -0.8722 H   0  0  0  0  0  0  0  0  0  0  0  0
   -3.4650    1.2919   -0.0658 H   0  0  0  0  0  0  0  0  0  0  0  0
   -1.5433    2.7438   -0.7014 H   0  0  0  0  0  0  0  0  0  0  0  0
    3.0139    1.2143    0.7841 H   0  0  0  0  0  0  0  0  0  0  0  0
  1  3  1  0
  1 17  1  0
  2  6  1  0
  2 18  1  0
  3  5  1  0
  3  8  1  0
  3  9  1  0
  4  6  1  0
  4 10  1  0
  4 11  1  0
  4 12  1  0
  5  7  2  3
  5 13  1  0
  6 14  1  0
  7 15  1  0
  7 16  1  0
M  RAD  1   6   2
M  END
>  <reaction>  (17) 
rxn_1893

>  <mol_properties>  (17) 
{"0": {"label": "*0", "atom_type": "S2s"}, "1": {"label": "*1", "atom_type": "Cs"}, "10": {"label": "*3", "atom_type": "Cs"}, "11": {"label": "*4", "atom_type": "S2s"}, "15": {"label": "*2", "atom_type": "H0"}}

>  <type>  (17) 
unop_13

>  <geom_source>  (17) 
AutoTST

$$$$
