
     RDKit          3D

  9  8  0  0  0  0  0  0  0  0999 V2000
   -0.9895    0.3048    0.1041 C   0  0  0  0  0  0  0  0  0  0  0  0
    0.3761   -0.3562    0.0721 C   0  0  0  0  0  0  0  0  0  0  0  0
    0.3441   -1.6564   -0.4834 O   0  0  0  0  0  0  0  0  0  0  0  0
   -1.6997   -0.3114    0.6572 H   0  0  0  0  0  0  0  0  0  0  0  0
   -0.9320    1.2848    0.5822 H   0  0  0  0  0  0  0  0  0  0  0  0
   -1.3774    0.4507   -0.9077 H   0  0  0  0  0  0  0  0  0  0  0  0
    0.7581   -0.4813    1.0862 H   0  0  0  0  0  0  0  0  0  0  0  0
    1.0900    0.2787   -0.4681 H   0  0  0  0  0  0  0  0  0  0  0  0
    0.0089   -1.5959   -1.3792 H   0  0  0  0  0  0  0  0  0  0  0  0
  1  2  1  0
  1  4  1  0
  1  5  1  0
  1  6  1  0
  2  3  1  0
  2  7  1  0
  2  8  1  0
  3  9  1  0
M  END
>  <reaction>  (1) 
rxn_231

>  <mol_properties>  (1) 
{"1": {"label": "donator", "atom_type": "Cs"}, "6": {"label": "d_hydrogen", "atom_type": "H0"}}

>  <type>  (1) 
r1h

$$$$

     RDKit          3D

  4  3  0  0  0  0  0  0  0  0999 V2000
    0.0000    0.0000    0.0000 C   0  0  0  0  0  3  0  0  0  0  0  0
    1.0638   -0.1747    0.0540 H   0  0  0  0  0  0  0  0  0  0  0  0
   -0.6833   -0.8351   -0.0280 H   0  0  0  0  0  0  0  0  0  0  0  0
   -0.3805    1.0098   -0.0260 H   0  0  0  0  0  0  0  0  0  0  0  0
  1  2  1  0
  1  3  1  0
  1  4  1  0
M  RAD  1   1   2
M  END
>  <reaction>  (2) 
rxn_231

>  <mol_properties>  (2) 
{"0": {"label": "acceptor", "atom_type": "Cs"}}

>  <type>  (2) 
r2

$$$$

     RDKit          3D

  5  4  0  0  0  0  0  0  0  0999 V2000
    0.0000    0.0000    0.0000 C   0  0  0  0  0  0  0  0  0  0  0  0
   -0.6486   -0.7720   -0.4113 H   0  0  0  0  0  0  0  0  0  0  0  0
   -0.3482    0.9787   -0.3267 H   0  0  0  0  0  0  0  0  0  0  0  0
   -0.0223   -0.0487    1.0876 H   0  0  0  0  0  0  0  0  0  0  0  0
    1.0191   -0.1580   -0.3496 H   0  0  0  0  0  0  0  0  0  0  0  0
  1  2  1  0
  1  3  1  0
  1  4  1  0
  1  5  1  0
M  END
>  <reaction>  (3) 
rxn_231

>  <mol_properties>  (3) 
{"0": {"label": "a_hydrogen", "atom_type": "H0"}, "1": {"label": "acceptor", "atom_type": "Cs"}}

>  <type>  (3) 
r2h

$$$$

     RDKit          3D

 13 11  0  0  0  0  0  0  0  0999 V2000
   -0.7324   -0.3333   -1.4050 C   0  0  0  0  0  0  0  0  0  0  0  0
   -0.6578    0.0272    0.0559 C   0  0  0  0  0  0  0  0  0  0  0  0
   -0.5867    1.3909    0.3239 O   0  0  0  0  0  0  0  0  0  0  0  0
    0.1559    0.0194   -1.9379 H   0  0  0  0  0  0  0  0  0  0  0  0
   -0.7812   -1.4167   -1.5256 H   0  0  0  0  0  0  0  0  0  0  0  0
   -1.6129    0.1095   -1.8778 H   0  0  0  0  0  0  0  0  0  0  0  0
    0.3933   -0.5378    0.5131 H   0  0  0  0  0  0  0  0  0  0  0  0
   -1.4736   -0.3837    0.6500 H   0  0  0  0  0  0  0  0  0  0  0  0
    0.0845    1.7823   -0.2387 H   0  0  0  0  0  0  0  0  0  0  0  0
    1.6359   -1.0860    0.9810 C   0  0  0  0  0  3  0  0  0  0  0  0
    1.4308   -2.1396    1.1435 H   0  0  0  0  0  0  0  0  0  0  0  0
    1.8306   -0.5255    1.8899 H   0  0  0  0  0  0  0  0  0  0  0  0
    2.3439   -0.8938    0.1798 H   0  0  0  0  0  0  0  0  0  0  0  0
  1  2  1  0
  1  4  1  0
  1  5  1  0
  1  6  1  0
  2  3  1  0
  2  7  1  0
  2  8  1  0
  3  9  1  0
 10 11  1  0
 10 12  1  0
 10 13  1  0
M  RAD  1  10   2
M  END
>  <reaction>  (4) 
rxn_231

>  <mol_properties>  (4) 
{"1": {"label": "*1", "atom_type": "Cs"}, "2": {"label": "*0", "atom_type": "O2s"}, "6": {"label": "*2", "atom_type": "H0"}, "9": {"label": "*3", "atom_type": "Cs"}, "10": {"label": "*4", "atom_type": "H0"}}

>  <type>  (4) 
ts

$$$$

     RDKit          3D

 13 11  0  0  0  0  0  0  0  0999 V2000
   -0.5339   -0.0638   -1.5255 C   0  0  0  0  0  0  0  0  0  0  0  0
   -0.5339   -0.0638   -0.0080 C   0  0  0  0  0  3  0  0  0  0  0  0
   -0.5339    1.2394    0.5413 O   0  0  0  0  0  0  0  0  0  0  0  0
    0.3222    0.4937   -1.9078 H   0  0  0  0  0  0  0  0  0  0  0  0
   -0.4854   -1.0844   -1.9107 H   0  0  0  0  0  0  0  0  0  0  0  0
   -1.4453    0.3963   -1.9167 H   0  0  0  0  0  0  0  0  0  0  0  0
    0.5539   -0.6347    0.4442 H   0  0  0  0  0  0  0  0  0  0  0  0
   -1.3861   -0.6436    0.3693 H   0  0  0  0  0  0  0  0  0  0  0  0
   -1.3158    1.6993    0.2323 H   0  0  0  0  0  0  0  0  0  0  0  0
    1.6397   -1.2045    0.8956 C   0  0  0  0  0  0  0  0  0  0  0  0
    2.1975   -0.4931    1.5027 H   0  0  0  0  0  0  0  0  0  0  0  0
    2.3075   -1.9956    0.5581 H   0  0  0  0  0  0  0  0  0  0  0  0
    0.9139   -1.5454    1.6323 H   0  0  0  0  0  0  0  0  0  0  0  0
  1  2  1  0
  1  4  1  0
  1  5  1  0
  1  6  1  0
  2  3  1  0
  2  8  1  0
  3  9  1  0
  7 10  1  0
 10 11  1  0
 10 12  1  0
 10 13  1  0
M  RAD  1   2   2
M  END
>  <reaction>  (5) 
rxn_231

>  <mol_properties>  (5) 
{"1": {"label": "*1", "atom_type": "Cs"}, "2": {"label": "*0", "atom_type": "O2s"}, "6": {"label": "*2", "atom_type": "H0"}, "9": {"label": "*3", "atom_type": "Cs"}, "10": {"label": "*4", "atom_type": "H0"}}

>  <type>  (5) 
unop_1

>  <geom_source>  (5) 
Heuristics

$$$$

     RDKit          3D

 13 11  0  0  0  0  0  0  0  0999 V2000
   -0.5323   -0.0654   -1.5171 C   0  0  0  0  0  0  0  0  0  0  0  0
   -0.5323   -0.0654    0.0004 C   0  0  0  0  0  3  0  0  0  0  0  0
   -0.5323    1.2378    0.5497 O   0  0  0  0  0  0  0  0  0  0  0  0
    0.3237    0.4921   -1.8994 H   0  0  0  0  0  0  0  0  0  0  0  0
   -0.4839   -1.0860   -1.9024 H   0  0  0  0  0  0  0  0  0  0  0  0
   -1.4438    0.3948   -1.9083 H   0  0  0  0  0  0  0  0  0  0  0  0
    0.5554   -0.6363    0.4526 H   0  0  0  0  0  0  0  0  0  0  0  0
   -1.3845   -0.6451    0.3777 H   0  0  0  0  0  0  0  0  0  0  0  0
   -1.3143    1.6978    0.2406 H   0  0  0  0  0  0  0  0  0  0  0  0
    1.6413   -1.2061    0.9040 C   0  0  0  0  0  0  0  0  0  0  0  0
    2.4534   -1.0526    0.1950 H   0  0  0  0  0  0  0  0  0  0  0  0
    1.6726   -2.2291    1.2759 H   0  0  0  0  0  0  0  0  0  0  0  0
    1.2041   -0.6614    1.7395 H   0  0  0  0  0  0  0  0  0  0  0  0
  1  2  1  0
  1  4  1  0
  1  5  1  0
  1  6  1  0
  2  3  1  0
  2  8  1  0
  3  9  1  0
  7 10  1  0
 10 11  1  0
 10 12  1  0
 10 13  1  0
M  RAD  1   2   2
M  END
>  <reaction>  (6) 
rxn_231

>  <mol_properties>  (6) 
{"1": {"label": "*1", "atom_type": "Cs"}, "2": {"label": "*0", "atom_type": "O2s"}, "6": {"label": "*2", "atom_type": "H0"}, "9": {"label": "*3", "atom_type": "Cs"}, "10": {"label": "*4", "atom_type": "H0"}}

>  <type>  (6) 
unop_2

>  <geom_source>  (6) 
Heuristics

$$$$

     RDKit          3D

 13 11  0  0  0  0  0  0  0  0999 V2000
   -0.5358   -0.0601   -1.5244 C   0  0  0  0  0  0  0  0  0  0  0  0
   -0.5358   -0.0601   -0.0069 C   0  0  0  0  0  3  0  0  0  0  0  0
   -0.5358    1.2431    0.5424 O   0  0  0  0  0  0  0  0  0  0  0  0
    0.3202    0.4974   -1.9068 H   0  0  0  0  0  0  0  0  0  0  0  0
   -0.4874   -1.0807   -1.9097 H   0  0  0  0  0  0  0  0  0  0  0  0
   -1.4472    0.4000   -1.9156 H   0  0  0  0  0  0  0  0  0  0  0  0
    0.5520   -0.6310    0.4453 H   0  0  0  0  0  0  0  0  0  0  0  0
   -1.3880   -0.6399    0.3703 H   0  0  0  0  0  0  0  0  0  0  0  0
   -1.3178    1.7030    0.2333 H   0  0  0  0  0  0  0  0  0  0  0  0
    1.6378   -1.2008    0.8967 C   0  0  0  0  0  0  0  0  0  0  0  0
    1.9060   -0.7618    1.8564 H   0  0  0  0  0  0  0  0  0  0  0  0
    2.5422   -1.4992    0.3686 H   0  0  0  0  0  0  0  0  0  0  0  0
    1.0822   -1.9861    1.4069 H   0  0  0  0  0  0  0  0  0  0  0  0
  1  2  1  0
  1  4  1  0
  1  5  1  0
  1  6  1  0
  2  3  1  0
  2  8  1  0
  3  9  1  0
  7 10  1  0
 10 11  1  0
 10 12  1  0
 10 13  1  0
M  RAD  1   2   2
M  END
>  <reaction>  (7) 
rxn_231

>  <mol_properties>  (7) 
{"1": {"label": "*1", "atom_type": "Cs"}, "2": {"label": "*0", "atom_type": "O2s"}, "6": {"label": "*2", "atom_type": "H0"}, "9": {"label": "*3", "atom_type": "Cs"}, "10": {"label": "*4", "atom_type": "H0"}}

>  <type>  (7) 
unop_3

>  <geom_source>  (7) 
Heuristics

$$$$

     RDKit          3D

 13 11  0  0  0  0  0  0  0  0999 V2000
   -0.5312   -0.0654   -1.5210 C   0  0  0  0  0  0  0  0  0  0  0  0
   -0.5312   -0.0654   -0.0035 C   0  0  0  0  0  3  0  0  0  0  0  0
   -0.5312    1.2378    0.5458 O   0  0  0  0  0  0  0  0  0  0  0  0
    0.3248    0.4921   -1.9033 H   0  0  0  0  0  0  0  0  0  0  0  0
   -0.4828   -1.0860   -1.9062 H   0  0  0  0  0  0  0  0  0  0  0  0
   -1.4426    0.3947   -1.9122 H   0  0  0  0  0  0  0  0  0  0  0  0
    0.5566   -0.6363    0.4487 H   0  0  0  0  0  0  0  0  0  0  0  0
   -1.3834   -0.6451    0.3738 H   0  0  0  0  0  0  0  0  0  0  0  0
   -1.3132    1.6978    0.2368 H   0  0  0  0  0  0  0  0  0  0  0  0
    1.6424   -1.2061    0.9001 C   0  0  0  0  0  0  0  0  0  0  0  0
    1.6879   -2.2341    0.5438 H   0  0  0  0  0  0  0  0  0  0  0  0
    1.0896   -1.1710    1.8376 H   0  0  0  0  0  0  0  0  0  0  0  0
    2.4883   -0.5374    1.0521 H   0  0  0  0  0  0  0  0  0  0  0  0
  1  2  1  0
  1  4  1  0
  1  5  1  0
  1  6  1  0
  2  3  1  0
  2  8  1  0
  3  9  1  0
  7 10  1  0
 10 11  1  0
 10 12  1  0
 10 13  1  0
M  RAD  1   2   2
M  END
>  <reaction>  (8) 
rxn_231

>  <mol_properties>  (8) 
{"1": {"label": "*1", "atom_type": "Cs"}, "2": {"label": "*0", "atom_type": "O2s"}, "6": {"label": "*2", "atom_type": "H0"}, "9": {"label": "*3", "atom_type": "Cs"}, "10": {"label": "*4", "atom_type": "H0"}}

>  <type>  (8) 
unop_4

>  <geom_source>  (8) 
Heuristics

$$$$

     RDKit          3D

 13 11  0  0  0  0  0  0  0  0999 V2000
   -0.5408   -0.0620   -1.5222 C   0  0  0  0  0  0  0  0  0  0  0  0
   -0.5408   -0.0620   -0.0047 C   0  0  0  0  0  3  0  0  0  0  0  0
   -0.5408    1.2412    0.5446 O   0  0  0  0  0  0  0  0  0  0  0  0
    0.3152    0.4956   -1.9046 H   0  0  0  0  0  0  0  0  0  0  0  0
   -0.4924   -1.0826   -1.9075 H   0  0  0  0  0  0  0  0  0  0  0  0
   -1.4522    0.3982   -1.9134 H   0  0  0  0  0  0  0  0  0  0  0  0
    0.5470   -0.6329    0.4475 H   0  0  0  0  0  0  0  0  0  0  0  0
   -1.3930   -0.6417    0.3725 H   0  0  0  0  0  0  0  0  0  0  0  0
   -1.3227    1.7012    0.2355 H   0  0  0  0  0  0  0  0  0  0  0  0
    1.6328   -1.2027    0.8989 C   0  0  0  0  0  0  0  0  0  0  0  0
    1.6204   -1.1962    1.9877 H   0  0  0  0  0  0  0  0  0  0  0  0
    2.5046   -0.6561    0.5425 H   0  0  0  0  0  0  0  0  0  0  0  0
    1.6932   -2.2872    0.9753 H   0  0  0  0  0  0  0  0  0  0  0  0
  1  2  1  0
  1  4  1  0
  1  5  1  0
  1  6  1  0
  2  3  1  0
  2  8  1  0
  3  9  1  0
  7 10  1  0
 10 11  1  0
 10 12  1  0
 10 13  1  0
M  RAD  1   2   2
M  END
>  <reaction>  (9) 
rxn_231

>  <mol_properties>  (9) 
{"1": {"label": "*1", "atom_type": "Cs"}, "2": {"label": "*0", "atom_type": "O2s"}, "6": {"label": "*2", "atom_type": "H0"}, "9": {"label": "*3", "atom_type": "Cs"}, "10": {"label": "*4", "atom_type": "H0"}}

>  <type>  (9) 
unop_5

>  <geom_source>  (9) 
Heuristics

$$$$

     RDKit          3D

 13 11  0  0  0  0  0  0  0  0999 V2000
   -0.5335   -0.0660   -1.5236 C   0  0  0  0  0  0  0  0  0  0  0  0
   -0.5335   -0.0660   -0.0061 C   0  0  0  0  0  3  0  0  0  0  0  0
   -0.5335    1.2372    0.5432 O   0  0  0  0  0  0  0  0  0  0  0  0
    0.3225    0.4915   -1.9059 H   0  0  0  0  0  0  0  0  0  0  0  0
   -0.4851   -1.0866   -1.9088 H   0  0  0  0  0  0  0  0  0  0  0  0
   -1.4450    0.3941   -1.9148 H   0  0  0  0  0  0  0  0  0  0  0  0
    0.5543   -0.6369    0.4461 H   0  0  0  0  0  0  0  0  0  0  0  0
   -1.3857   -0.6458    0.3712 H   0  0  0  0  0  0  0  0  0  0  0  0
   -1.3155    1.6972    0.2342 H   0  0  0  0  0  0  0  0  0  0  0  0
    1.6401   -1.2067    0.8975 C   0  0  0  0  0  0  0  0  0  0  0  0
    1.4646   -2.2741    1.0229 H   0  0  0  0  0  0  0  0  0  0  0  0
    1.2367   -0.6694    1.7545 H   0  0  0  0  0  0  0  0  0  0  0  0
    2.6976   -0.9640    0.8053 H   0  0  0  0  0  0  0  0  0  0  0  0
  1  2  1  0
  1  4  1  0
  1  5  1  0
  1  6  1  0
  2  3  1  0
  2  8  1  0
  3  9  1  0
  7 10  1  0
 10 11  1  0
 10 12  1  0
 10 13  1  0
M  RAD  1   2   2
M  END
>  <reaction>  (10) 
rxn_231

>  <mol_properties>  (10) 
{"1": {"label": "*1", "atom_type": "Cs"}, "2": {"label": "*0", "atom_type": "O2s"}, "6": {"label": "*2", "atom_type": "H0"}, "9": {"label": "*3", "atom_type": "Cs"}, "10": {"label": "*4", "atom_type": "H0"}}

>  <type>  (10) 
unop_6

>  <geom_source>  (10) 
Heuristics

$$$$

     RDKit          3D

 13 11  0  0  0  0  0  0  0  0999 V2000
   -0.5366   -0.0674   -1.5250 C   0  0  0  0  0  0  0  0  0  0  0  0
   -0.5366   -0.0674   -0.0075 C   0  0  0  0  0  3  0  0  0  0  0  0
   -0.5366    1.2358    0.5418 O   0  0  0  0  0  0  0  0  0  0  0  0
    0.3194    0.4902   -1.9073 H   0  0  0  0  0  0  0  0  0  0  0  0
   -0.4882   -1.0880   -1.9102 H   0  0  0  0  0  0  0  0  0  0  0  0
   -1.4481    0.3928   -1.9162 H   0  0  0  0  0  0  0  0  0  0  0  0
    0.5511   -0.6382    0.4447 H   0  0  0  0  0  0  0  0  0  0  0  0
   -1.3888   -0.6471    0.3698 H   0  0  0  0  0  0  0  0  0  0  0  0
   -1.3186    1.6958    0.2328 H   0  0  0  0  0  0  0  0  0  0  0  0
    1.6370   -1.2081    0.8961 C   0  0  0  0  0  0  0  0  0  0  0  0
    1.3684   -2.0712    1.5032 H   0  0  0  0  0  0  0  0  0  0  0  0
    1.5361   -0.3010    1.4901 H   0  0  0  0  0  0  0  0  0  0  0  0
    2.6730   -1.4568    0.6712 H   0  0  0  0  0  0  0  0  0  0  0  0
  1  2  1  0
  1  4  1  0
  1  5  1  0
  1  6  1  0
  2  3  1  0
  2  8  1  0
  3  9  1  0
  7 10  1  0
 10 11  1  0
 10 12  1  0
 10 13  1  0
M  RAD  1   2   2
M  END
>  <reaction>  (11) 
rxn_231

>  <mol_properties>  (11) 
{"1": {"label": "*1", "atom_type": "Cs"}, "2": {"label": "*0", "atom_type": "O2s"}, "6": {"label": "*2", "atom_type": "H0"}, "9": {"label": "*3", "atom_type": "Cs"}, "10": {"label": "*4", "atom_type": "H0"}}

>  <type>  (11) 
unop_7

>  <geom_source>  (11) 
Heuristics

$$$$

     RDKit          3D

 13 11  0  0  0  0  0  0  0  0999 V2000
   -0.5343   -0.0667   -1.5234 C   0  0  0  0  0  0  0  0  0  0  0  0
   -0.5343   -0.0667   -0.0059 C   0  0  0  0  0  3  0  0  0  0  0  0
   -0.5343    1.2364    0.5435 O   0  0  0  0  0  0  0  0  0  0  0  0
    0.3218    0.4908   -1.9057 H   0  0  0  0  0  0  0  0  0  0  0  0
   -0.4858   -1.0873   -1.9086 H   0  0  0  0  0  0  0  0  0  0  0  0
   -1.4457    0.3934   -1.9146 H   0  0  0  0  0  0  0  0  0  0  0  0
    0.5535   -0.6376    0.4464 H   0  0  0  0  0  0  0  0  0  0  0  0
   -1.3865   -0.6465    0.3714 H   0  0  0  0  0  0  0  0  0  0  0  0
   -1.3162    1.6964    0.2344 H   0  0  0  0  0  0  0  0  0  0  0  0
    1.6393   -1.2074    0.8978 C   0  0  0  0  0  0  0  0  0  0  0  0
    2.4180   -0.4566    1.0231 H   0  0  0  0  0  0  0  0  0  0  0  0
    2.0947   -2.1938    0.8240 H   0  0  0  0  0  0  0  0  0  0  0  0
    0.9293   -1.2164    1.7233 H   0  0  0  0  0  0  0  0  0  0  0  0
  1  2  1  0
  1  4  1  0
  1  5  1  0
  1  6  1  0
  2  3  1  0
  2  8  1  0
  3  9  1  0
  7 10  1  0
 10 11  1  0
 10 12  1  0
 10 13  1  0
M  RAD  1   2   2
M  END
>  <reaction>  (12) 
rxn_231

>  <mol_properties>  (12) 
{"1": {"label": "*1", "atom_type": "Cs"}, "2": {"label": "*0", "atom_type": "O2s"}, "6": {"label": "*2", "atom_type": "H0"}, "9": {"label": "*3", "atom_type": "Cs"}, "10": {"label": "*4", "atom_type": "H0"}}

>  <type>  (12) 
unop_8

>  <geom_source>  (12) 
Heuristics

$$$$

     RDKit          3D

 13 11  0  0  0  0  0  0  0  0999 V2000
   -0.5296   -0.0651   -1.5185 C   0  0  0  0  0  0  0  0  0  0  0  0
   -0.5296   -0.0651   -0.0010 C   0  0  0  0  0  3  0  0  0  0  0  0
   -0.5296    1.2381    0.5483 O   0  0  0  0  0  0  0  0  0  0  0  0
    0.3264    0.4925   -1.9009 H   0  0  0  0  0  0  0  0  0  0  0  0
   -0.4812   -1.0857   -1.9038 H   0  0  0  0  0  0  0  0  0  0  0  0
   -1.4411    0.3951   -1.9097 H   0  0  0  0  0  0  0  0  0  0  0  0
    0.5581   -0.6359    0.4512 H   0  0  0  0  0  0  0  0  0  0  0  0
   -1.3818   -0.6448    0.3762 H   0  0  0  0  0  0  0  0  0  0  0  0
   -1.3116    1.6981    0.2392 H   0  0  0  0  0  0  0  0  0  0  0  0
    1.6440   -1.2058    0.9026 C   0  0  0  0  0  0  0  0  0  0  0  0
    1.9790   -1.9613    0.1936 H   0  0  0  0  0  0  0  0  0  0  0  0
    1.1364   -1.6895    1.7357 H   0  0  0  0  0  0  0  0  0  0  0  0
    2.0591   -0.3105    1.3630 H   0  0  0  0  0  0  0  0  0  0  0  0
  1  2  1  0
  1  4  1  0
  1  5  1  0
  1  6  1  0
  2  3  1  0
  2  8  1  0
  3  9  1  0
  7 10  1  0
 10 11  1  0
 10 12  1  0
 10 13  1  0
M  RAD  1   2   2
M  END
>  <reaction>  (13) 
rxn_231

>  <mol_properties>  (13) 
{"1": {"label": "*1", "atom_type": "Cs"}, "2": {"label": "*0", "atom_type": "O2s"}, "6": {"label": "*2", "atom_type": "H0"}, "9": {"label": "*3", "atom_type": "Cs"}, "10": {"label": "*4", "atom_type": "H0"}}

>  <type>  (13) 
unop_9

>  <geom_source>  (13) 
Heuristics

$$$$

     RDKit          3D

 13 11  0  0  0  0  0  0  0  0999 V2000
   -0.5342   -0.0669   -1.5198 C   0  0  0  0  0  0  0  0  0  0  0  0
   -0.5342   -0.0669   -0.0023 C   0  0  0  0  0  3  0  0  0  0  0  0
   -0.5342    1.2363    0.5471 O   0  0  0  0  0  0  0  0  0  0  0  0
    0.3219    0.4907   -1.9021 H   0  0  0  0  0  0  0  0  0  0  0  0
   -0.4857   -1.0875   -1.9050 H   0  0  0  0  0  0  0  0  0  0  0  0
   -1.4456    0.3933   -1.9110 H   0  0  0  0  0  0  0  0  0  0  0  0
    0.5536   -0.6377    0.4500 H   0  0  0  0  0  0  0  0  0  0  0  0
   -1.3863   -0.6466    0.3750 H   0  0  0  0  0  0  0  0  0  0  0  0
   -1.3161    1.6963    0.2380 H   0  0  0  0  0  0  0  0  0  0  0  0
    1.6395   -1.2076    0.9014 C   0  0  0  0  0  0  0  0  0  0  0  0
    2.5112   -0.6610    0.5450 H   0  0  0  0  0  0  0  0  0  0  0  0
    1.9059   -2.2512    1.0615 H   0  0  0  0  0  0  0  0  0  0  0  0
    1.0184   -0.9458    1.7567 H   0  0  0  0  0  0  0  0  0  0  0  0
  1  2  1  0
  1  4  1  0
  1  5  1  0
  1  6  1  0
  2  3  1  0
  2  8  1  0
  3  9  1  0
  7 10  1  0
 10 11  1  0
 10 12  1  0
 10 13  1  0
M  RAD  1   2   2
M  END
>  <reaction>  (14) 
rxn_231

>  <mol_properties>  (14) 
{"1": {"label": "*1", "atom_type": "Cs"}, "2": {"label": "*0", "atom_type": "O2s"}, "6": {"label": "*2", "atom_type": "H0"}, "9": {"label": "*3", "atom_type": "Cs"}, "10": {"label": "*4", "atom_type": "H0"}}

>  <type>  (14) 
unop_10

>  <geom_source>  (14) 
Heuristics

$$$$

     RDKit          3D

 13 11  0  0  0  0  0  0  0  0999 V2000
   -0.5405   -0.0672   -1.5239 C   0  0  0  0  0  0  0  0  0  0  0  0
   -0.5405   -0.0672   -0.0064 C   0  0  0  0  0  3  0  0  0  0  0  0
   -0.5405    1.2360    0.5429 O   0  0  0  0  0  0  0  0  0  0  0  0
    0.3156    0.4904   -1.9062 H   0  0  0  0  0  0  0  0  0  0  0  0
   -0.4921   -1.0878   -1.9091 H   0  0  0  0  0  0  0  0  0  0  0  0
   -1.4519    0.3930   -1.9151 H   0  0  0  0  0  0  0  0  0  0  0  0
    0.5473   -0.6380    0.4458 H   0  0  0  0  0  0  0  0  0  0  0  0
   -1.3927   -0.6469    0.3709 H   0  0  0  0  0  0  0  0  0  0  0  0
   -1.3224    1.6960    0.2339 H   0  0  0  0  0  0  0  0  0  0  0  0
    1.6331   -1.2079    0.8972 C   0  0  0  0  0  0  0  0  0  0  0  0
    1.4243   -1.6780    1.8570 H   0  0  0  0  0  0  0  0  0  0  0  0
    1.9940   -0.1936    1.0608 H   0  0  0  0  0  0  0  0  0  0  0  0
    2.3813   -1.9695    0.6828 H   0  0  0  0  0  0  0  0  0  0  0  0
  1  2  1  0
  1  4  1  0
  1  5  1  0
  1  6  1  0
  2  3  1  0
  2  8  1  0
  3  9  1  0
  7 10  1  0
 10 11  1  0
 10 12  1  0
 10 13  1  0
M  RAD  1   2   2
M  END
>  <reaction>  (15) 
rxn_231

>  <mol_properties>  (15) 
{"1": {"label": "*1", "atom_type": "Cs"}, "2": {"label": "*0", "atom_type": "O2s"}, "6": {"label": "*2", "atom_type": "H0"}, "9": {"label": "*3", "atom_type": "Cs"}, "10": {"label": "*4", "atom_type": "H0"}}

>  <type>  (15) 
unop_11

>  <geom_source>  (15) 
Heuristics

$$$$

     RDKit          3D

 13 11  0  0  0  0  0  0  0  0999 V2000
   -0.5300   -0.0647   -1.5169 C   0  0  0  0  0  0  0  0  0  0  0  0
   -0.5300   -0.0647    0.0006 C   0  0  0  0  0  3  0  0  0  0  0  0
   -0.5300    1.2385    0.5499 O   0  0  0  0  0  0  0  0  0  0  0  0
    0.3260    0.4929   -1.8992 H   0  0  0  0  0  0  0  0  0  0  0  0
   -0.4816   -1.0853   -1.9021 H   0  0  0  0  0  0  0  0  0  0  0  0
   -1.4414    0.3955   -1.9081 H   0  0  0  0  0  0  0  0  0  0  0  0
    0.5578   -0.6355    0.4528 H   0  0  0  0  0  0  0  0  0  0  0  0
   -1.3822   -0.6444    0.3779 H   0  0  0  0  0  0  0  0  0  0  0  0
   -1.3120    1.6985    0.2409 H   0  0  0  0  0  0  0  0  0  0  0  0
    1.6436   -1.2054    0.9042 C   0  0  0  0  0  0  0  0  0  0  0  0
    2.2593   -1.5284    0.0662 H   0  0  0  0  0  0  0  0  0  0  0  0
    1.3750   -2.0685    1.5113 H   0  0  0  0  0  0  0  0  0  0  0  0
    1.5624   -0.3887    1.6200 H   0  0  0  0  0  0  0  0  0  0  0  0
  1  2  1  0
  1  4  1  0
  1  5  1  0
  1  6  1  0
  2  3  1  0
  2  8  1  0
  3  9  1  0
  7 10  1  0
 10 11  1  0
 10 12  1  0
 10 13  1  0
M  RAD  1   2   2
M  END
>  <reaction>  (16) 
rxn_231

>  <mol_properties>  (16) 
{"1": {"label": "*1", "atom_type": "Cs"}, "2": {"label": "*0", "atom_type": "O2s"}, "6": {"label": "*2", "atom_type": "H0"}, "9": {"label": "*3", "atom_type": "Cs"}, "10": {"label": "*4", "atom_type": "H0"}}

>  <type>  (16) 
unop_12

>  <geom_source>  (16) 
Heuristics

$$$$

     RDKit          3D

 13 11  0  0  0  0  0  0  0  0999 V2000
   -1.3262    1.4388    0.7947 O   0  0  0  0  0  0  0  0  0  0  0  0
   -1.5065   -0.7346   -0.1783 C   0  0  0  0  0  0  0  0  0  0  0  0
    1.9179   -0.1657   -0.1309 C   0  0  0  0  0  0  0  0  0  0  0  0
   -0.5999    0.4413    0.1422 C   0  0  0  0  0  3  0  0  0  0  0  0
   -1.9298   -1.1497    0.7603 H   0  0  0  0  0  0  0  0  0  0  0  0
   -2.3338   -0.4090   -0.8440 H   0  0  0  0  0  0  0  0  0  0  0  0
   -0.9190   -1.5261   -0.6885 H   0  0  0  0  0  0  0  0  0  0  0  0
    2.1080   -0.0508   -1.2178 H   0  0  0  0  0  0  0  0  0  0  0  0
    2.7587    0.2783    0.4406 H   0  0  0  0  0  0  0  0  0  0  0  0
    1.8304   -1.2434    0.1173 H   0  0  0  0  0  0  0  0  0  0  0  0
    0.8458    0.4238    0.1728 H   0  0  0  0  0  0  0  0  0  0  0  0
   -0.1643    0.8501   -0.7947 H   0  0  0  0  0  0  0  0  0  0  0  0
   -0.6811    1.8469    1.4262 H   0  0  0  0  0  0  0  0  0  0  0  0
  1  4  1  0
  1 13  1  0
  2  4  1  0
  2  5  1  0
  2  6  1  0
  2  7  1  0
  3  8  1  0
  3  9  1  0
  3 10  1  0
  3 11  1  0
  4 12  1  0
M  RAD  1   4   2
M  END
>  <reaction>  (17) 
rxn_231

>  <mol_properties>  (17) 
{"1": {"label": "*1", "atom_type": "Cs"}, "2": {"label": "*0", "atom_type": "O2s"}, "6": {"label": "*2", "atom_type": "H0"}, "9": {"label": "*3", "atom_type": "Cs"}, "10": {"label": "*4", "atom_type": "H0"}}

>  <type>  (17) 
unop_13

>  <geom_source>  (17) 
AutoTST

$$$$
