
     RDKit          3D

 12 11  0  0  0  0  0  0  0  0999 V2000
    2.1696    0.6854    1.1310 C   0  0  0  0  0  0  0  0  0  0  0  0
    1.2518    0.4145    0.4134 C   0  0  0  0  0  0  0  0  0  0  0  0
    0.1391    0.0443   -0.4683 C   0  0  0  0  0  0  0  0  0  0  0  0
   -0.2054   -1.4492   -0.3339 C   0  0  0  0  0  0  0  0  0  0  0  0
   -1.0375    0.8853   -0.2222 C   0  0  0  0  0  0  0  0  0  0  0  0
   -2.0160    1.5463   -0.0311 C   0  0  0  0  0  0  0  0  0  0  0  0
    2.9819    0.9356    1.7702 H   0  0  0  0  0  0  0  0  0  0  0  0
    0.4629    0.2285   -1.4981 H   0  0  0  0  0  0  0  0  0  0  0  0
   -0.5327   -1.6703    0.6812 H   0  0  0  0  0  0  0  0  0  0  0  0
    0.6727   -2.0535   -0.5593 H   0  0  0  0  0  0  0  0  0  0  0  0
   -1.0064   -1.7081   -1.0256 H   0  0  0  0  0  0  0  0  0  0  0  0
   -2.8802    2.1413    0.1426 H   0  0  0  0  0  0  0  0  0  0  0  0
  1  2  3  0
  1  7  1  0
  2  3  1  0
  3  4  1  0
  3  5  1  0
  3  8  1  0
  4  9  1  0
  4 10  1  0
  4 11  1  0
  5  6  3  0
  6 12  1  0
M  END
>  <reaction>  (1) 
rxn_1395

>  <mol_properties>  (1) 
{"2": {"label": "donator", "atom_type": "Cs"}, "7": {"label": "d_hydrogen", "atom_type": "H0"}}

>  <type>  (1) 
r1h

$$$$

     RDKit          3D

 11 10  0  0  0  0  0  0  0  0999 V2000
    2.0591    0.2533   -0.1061 C   0  0  0  0  0  0  0  0  0  0  0  0
    0.8045   -0.3111   -0.1535 C   0  0  0  0  0  0  0  0  0  0  0  0
   -0.3816    0.3942   -0.1885 C   0  0  0  0  0  3  0  0  0  0  0  0
   -1.7316   -0.2294   -0.2396 C   0  0  0  0  0  0  0  0  0  0  0  0
    2.9505   -0.3576   -0.0805 H   0  0  0  0  0  0  0  0  0  0  0  0
    2.1872    1.3290   -0.0933 H   0  0  0  0  0  0  0  0  0  0  0  0
    0.7385   -1.3970   -0.1643 H   0  0  0  0  0  0  0  0  0  0  0  0
   -0.3340    1.4795   -0.1783 H   0  0  0  0  0  0  0  0  0  0  0  0
   -1.6704   -1.3186   -0.2461 H   0  0  0  0  0  0  0  0  0  0  0  0
   -2.3404    0.0713    0.6191 H   0  0  0  0  0  0  0  0  0  0  0  0
   -2.2805    0.0851   -1.1331 H   0  0  0  0  0  0  0  0  0  0  0  0
  1  2  2  3
  1  5  1  0
  1  6  1  0
  2  3  1  0
  2  7  1  0
  3  4  1  0
  3  8  1  0
  4  9  1  0
  4 10  1  0
  4 11  1  0
M  RAD  1   3   2
M  END
>  <reaction>  (2) 
rxn_1395

>  <mol_properties>  (2) 
{"2": {"label": "acceptor", "atom_type": "Cs"}}

>  <type>  (2) 
r2

$$$$

     RDKit          3D

 12 11  0  0  0  0  0  0  0  0999 V2000
    1.9877    0.1011    0.4814 C   0  0  0  0  0  0  0  0  0  0  0  0
    0.8179    0.5502    0.0525 C   0  0  0  0  0  0  0  0  0  0  0  0
   -0.2939   -0.2692   -0.5320 C   0  0  0  0  0  0  0  0  0  0  0  0
   -0.0292   -1.7631   -0.6328 C   0  0  0  0  0  0  0  0  0  0  0  0
    2.2522   -0.9490    0.4436 H   0  0  0  0  0  0  0  0  0  0  0  0
    2.7295    0.7757    0.8896 H   0  0  0  0  0  0  0  0  0  0  0  0
    0.6162    1.6164    0.1190 H   0  0  0  0  0  0  0  0  0  0  0  0
   -0.5268    0.1319   -1.5245 H   0  0  0  0  0  0  0  0  0  0  0  0
   -1.1959   -0.0938    0.0644 H   0  0  0  0  0  0  0  0  0  0  0  0
    0.1590   -2.1992    0.3502 H   0  0  0  0  0  0  0  0  0  0  0  0
    0.8382   -1.9701   -1.2626 H   0  0  0  0  0  0  0  0  0  0  0  0
   -0.8879   -2.2759   -1.0672 H   0  0  0  0  0  0  0  0  0  0  0  0
  1  2  2  3
  1  5  1  0
  1  6  1  0
  2  3  1  0
  2  7  1  0
  3  4  1  0
  3  8  1  0
  3  9  1  0
  4 10  1  0
  4 11  1  0
  4 12  1  0
M  END
>  <reaction>  (3) 
rxn_1395

>  <mol_properties>  (3) 
{"0": {"label": "a_hydrogen", "atom_type": "H0"}, "3": {"label": "acceptor", "atom_type": "Cs"}}

>  <type>  (3) 
r2h

$$$$

     RDKit          3D

 23 21  0  0  0  0  0  0  0  0999 V2000
   -0.7790   -1.0687   -2.1688 C   0  0  0  0  0  0  0  0  0  0  0  0
   -0.9681   -0.4731   -1.1435 C   0  0  0  0  0  0  0  0  0  0  0  0
   -1.1211    0.2643    0.0779 C   0  0  0  0  0  0  0  0  0  0  0  0
   -1.2911    1.7669   -0.0889 C   0  0  0  0  0  0  0  0  0  0  0  0
   -1.9564   -0.3527    1.0699 C   0  0  0  0  0  0  0  0  0  0  0  0
   -2.6097   -0.8486    1.9464 C   0  0  0  0  0  0  0  0  0  0  0  0
   -0.6322   -1.5998   -3.0782 H   0  0  0  0  0  0  0  0  0  0  0  0
    0.1020    0.2038    0.6188 H   0  0  0  0  0  0  0  0  0  0  0  0
   -2.2473    2.0008   -0.5599 H   0  0  0  0  0  0  0  0  0  0  0  0
   -0.4893    2.1590   -0.7154 H   0  0  0  0  0  0  0  0  0  0  0  0
   -1.2547    2.2557    0.8848 H   0  0  0  0  0  0  0  0  0  0  0  0
   -3.2051   -1.2930    2.7070 H   0  0  0  0  0  0  0  0  0  0  0  0
    2.8633    0.6954   -0.7540 C   0  0  0  0  0  0  0  0  0  0  0  0
    2.1452    1.0054    0.3329 C   0  0  0  0  0  0  0  0  0  0  0  0
    1.3579    0.0788    1.1241 C   0  0  0  0  0  3  0  0  0  0  0  0
    1.5717   -1.4047    0.9957 C   0  0  0  0  0  0  0  0  0  0  0  0
    3.3954    1.4581   -1.3070 H   0  0  0  0  0  0  0  0  0  0  0  0
    2.9450   -0.3216   -1.1169 H   0  0  0  0  0  0  0  0  0  0  0  0
    2.1020    2.0465    0.6404 H   0  0  0  0  0  0  0  0  0  0  0  0
    1.1547    0.4201    2.1380 H   0  0  0  0  0  0  0  0  0  0  0  0
    2.5698   -1.6882    1.3420 H   0  0  0  0  0  0  0  0  0  0  0  0
    0.8360   -1.9488    1.5884 H   0  0  0  0  0  0  0  0  0  0  0  0
    1.4693   -1.7325   -0.0404 H   0  0  0  0  0  0  0  0  0  0  0  0
  1  2  3  0
  1  7  1  0
  2  3  1  0
  3  4  1  0
  3  5  1  0
  3  8  1  0
  4  9  1  0
  4 10  1  0
  4 11  1  0
  5  6  3  0
  6 12  1  0
 13 14  2  3
 13 17  1  0
 13 18  1  0
 14 15  1  0
 14 19  1  0
 15 16  1  0
 15 20  1  0
 16 21  1  0
 16 22  1  0
 16 23  1  0
M  RAD  1  15   2
M  END
>  <reaction>  (4) 
rxn_1395

>  <mol_properties>  (4) 
{"1": {"label": "*0", "atom_type": "Ct"}, "2": {"label": "*1", "atom_type": "Cs"}, "7": {"label": "*2", "atom_type": "H0"}, "13": {"label": "*4", "atom_type": "Cd"}, "14": {"label": "*3", "atom_type": "Cs"}}

>  <type>  (4) 
ts

$$$$

     RDKit          3D

 23 21  0  0  0  0  0  0  0  0999 V2000
   -1.1116   -0.0662   -2.9458 C   0  0  0  0  0  0  0  0  0  0  0  0
   -1.1116   -0.0662   -1.7496 C   0  0  0  0  0  0  0  0  0  0  0  0
   -1.1116   -0.0261   -0.2831 C   0  0  0  0  0  0  0  0  0  0  0  0
   -1.7497    1.2731    0.2389 C   0  0  0  0  0  0  0  0  0  0  0  0
   -1.7735   -1.2074    0.2817 C   0  0  0  0  0  0  0  0  0  0  0  0
   -2.3217   -2.1527    0.7682 C   0  0  0  0  0  0  0  0  0  0  0  0
   -1.1116   -0.0662   -4.0092 H   0  0  0  0  0  0  0  0  0  0  0  0
    0.1420   -0.0534    0.1101 H   0  0  0  0  0  0  0  0  0  0  0  0
   -2.7929    1.3303   -0.0688 H   0  0  0  0  0  0  0  0  0  0  0  0
   -1.2170    2.1345   -0.1627 H   0  0  0  0  0  0  0  0  0  0  0  0
   -1.7025    1.2975    1.3272 H   0  0  0  0  0  0  0  0  0  0  0  0
   -2.8091   -2.9931    1.2007 H   0  0  0  0  0  0  0  0  0  0  0  0
    2.8528    1.6843    1.5675 C   0  0  0  0  0  0  0  0  0  0  0  0
    1.6655    1.1681    1.2889 C   0  0  0  0  0  0  0  0  0  0  0  0
    1.3961   -0.0806    0.5034 C   0  0  0  0  0  3  0  0  0  0  0  0
    2.6247   -0.8110   -0.0154 C   0  0  0  0  0  0  0  0  0  0  0  0
    2.9444    2.5954    2.1451 H   0  0  0  0  0  0  0  0  0  0  0  0
    3.7753    1.2238    1.2341 H   0  0  0  0  0  0  0  0  0  0  0  0
    0.7790    1.6807    1.6541 H   0  0  0  0  0  0  0  0  0  0  0  0
    0.8029   -0.7557    1.1300 H   0  0  0  0  0  0  0  0  0  0  0  0
    3.2743   -1.1250    0.8039 H   0  0  0  0  0  0  0  0  0  0  0  0
    2.3338   -1.7026   -0.5720 H   0  0  0  0  0  0  0  0  0  0  0  0
    3.2106   -0.1760   -0.6828 H   0  0  0  0  0  0  0  0  0  0  0  0
  1  2  3  0
  1  7  1  0
  2  3  1  0
  3  4  1  0
  3  5  1  0
  3  8  1  0
  4  9  1  0
  4 10  1  0
  4 11  1  0
  5  6  3  0
  6 12  1  0
 13 14  2  3
 13 17  1  0
 13 18  1  0
 14 15  1  0
 14 19  1  0
 15 16  1  0
 15 20  1  0
 16 21  1  0
 16 22  1  0
 16 23  1  0
M  RAD  1  15   2
M  END
>  <reaction>  (5) 
rxn_1395

>  <mol_properties>  (5) 
{"1": {"label": "*0", "atom_type": "Ct"}, "2": {"label": "*1", "atom_type": "Cs"}, "7": {"label": "*2", "atom_type": "H0"}, "13": {"label": "*4", "atom_type": "Cd"}, "14": {"label": "*3", "atom_type": "Cs"}}

>  <type>  (5) 
unop_1

>  <geom_source>  (5) 
Heuristics

$$$$

     RDKit          3D

 23 21  0  0  0  0  0  0  0  0999 V2000
   -1.1621    0.1975   -2.6308 C   0  0  0  0  0  0  0  0  0  0  0  0
   -1.1621    0.1975   -1.4347 C   0  0  0  0  0  0  0  0  0  0  0  0
   -1.1621    0.2376    0.0319 C   0  0  0  0  0  0  0  0  0  0  0  0
   -1.8002    1.5368    0.5539 C   0  0  0  0  0  0  0  0  0  0  0  0
   -1.8240   -0.9437    0.5967 C   0  0  0  0  0  0  0  0  0  0  0  0
   -2.3722   -1.8890    1.0832 C   0  0  0  0  0  0  0  0  0  0  0  0
   -1.1621    0.1975   -3.6943 H   0  0  0  0  0  0  0  0  0  0  0  0
    0.0915    0.2103    0.4250 H   0  0  0  0  0  0  0  0  0  0  0  0
   -2.8434    1.5940    0.2461 H   0  0  0  0  0  0  0  0  0  0  0  0
   -1.2675    2.3982    0.1522 H   0  0  0  0  0  0  0  0  0  0  0  0
   -1.7530    1.5612    1.6421 H   0  0  0  0  0  0  0  0  0  0  0  0
   -2.8596   -2.7294    1.5157 H   0  0  0  0  0  0  0  0  0  0  0  0
    3.3855    0.4678   -0.6401 C   0  0  0  0  0  0  0  0  0  0  0  0
    2.1801    0.8422   -0.2391 C   0  0  0  0  0  0  0  0  0  0  0  0
    1.3456    0.1831    0.8183 C   0  0  0  0  0  3  0  0  0  0  0  0
    1.9659   -1.0356    1.4832 C   0  0  0  0  0  0  0  0  0  0  0  0
    3.9104    1.0118   -1.4152 H   0  0  0  0  0  0  0  0  0  0  0  0
    3.8948   -0.3894   -0.2160 H   0  0  0  0  0  0  0  0  0  0  0  0
    1.7254    1.7120   -0.7066 H   0  0  0  0  0  0  0  0  0  0  0  0
    1.1031    0.9342    1.5780 H   0  0  0  0  0  0  0  0  0  0  0  0
    2.9047   -0.7814    1.9792 H   0  0  0  0  0  0  0  0  0  0  0  0
    1.2914   -1.4469    2.2349 H   0  0  0  0  0  0  0  0  0  0  0  0
    2.1743   -1.8214    0.7545 H   0  0  0  0  0  0  0  0  0  0  0  0
  1  2  3  0
  1  7  1  0
  2  3  1  0
  3  4  1  0
  3  5  1  0
  3  8  1  0
  4  9  1  0
  4 10  1  0
  4 11  1  0
  5  6  3  0
  6 12  1  0
 13 14  2  3
 13 17  1  0
 13 18  1  0
 14 15  1  0
 14 19  1  0
 15 16  1  0
 15 20  1  0
 16 21  1  0
 16 22  1  0
 16 23  1  0
M  RAD  1  15   2
M  END
>  <reaction>  (6) 
rxn_1395

>  <mol_properties>  (6) 
{"1": {"label": "*0", "atom_type": "Ct"}, "2": {"label": "*1", "atom_type": "Cs"}, "7": {"label": "*2", "atom_type": "H0"}, "13": {"label": "*4", "atom_type": "Cd"}, "14": {"label": "*3", "atom_type": "Cs"}}

>  <type>  (6) 
unop_2

>  <geom_source>  (6) 
Heuristics

$$$$

     RDKit          3D

 23 21  0  0  0  0  0  0  0  0999 V2000
   -1.0661   -0.0639   -3.0258 C   0  0  0  0  0  0  0  0  0  0  0  0
   -1.0661   -0.0639   -1.8296 C   0  0  0  0  0  0  0  0  0  0  0  0
   -1.0661   -0.0238   -0.3631 C   0  0  0  0  0  0  0  0  0  0  0  0
   -1.7042    1.2754    0.1589 C   0  0  0  0  0  0  0  0  0  0  0  0
   -1.7280   -1.2051    0.2017 C   0  0  0  0  0  0  0  0  0  0  0  0
   -2.2762   -2.1503    0.6882 C   0  0  0  0  0  0  0  0  0  0  0  0
   -1.0661   -0.0639   -4.0892 H   0  0  0  0  0  0  0  0  0  0  0  0
    0.1875   -0.0511    0.0301 H   0  0  0  0  0  0  0  0  0  0  0  0
   -2.7474    1.3326   -0.1488 H   0  0  0  0  0  0  0  0  0  0  0  0
   -1.1716    2.1368   -0.2427 H   0  0  0  0  0  0  0  0  0  0  0  0
   -1.6570    1.2998    1.2471 H   0  0  0  0  0  0  0  0  0  0  0  0
   -2.7636   -2.9908    1.1207 H   0  0  0  0  0  0  0  0  0  0  0  0
    2.5917    1.3345    2.1700 C   0  0  0  0  0  0  0  0  0  0  0  0
    1.5395    0.6675    1.7208 C   0  0  0  0  0  0  0  0  0  0  0  0
    1.4416   -0.0783    0.4234 C   0  0  0  0  0  3  0  0  0  0  0  0
    2.6877   -0.0524   -0.4476 C   0  0  0  0  0  0  0  0  0  0  0  0
    2.5644    1.8436    3.1250 H   0  0  0  0  0  0  0  0  0  0  0  0
    3.5164    1.4001    1.6089 H   0  0  0  0  0  0  0  0  0  0  0  0
    0.6422    0.6412    2.3340 H   0  0  0  0  0  0  0  0  0  0  0  0
    1.1692   -1.1157    0.6467 H   0  0  0  0  0  0  0  0  0  0  0  0
    3.5420   -0.4930    0.0700 H   0  0  0  0  0  0  0  0  0  0  0  0
    2.5252   -0.6177   -1.3659 H   0  0  0  0  0  0  0  0  0  0  0  0
    2.9552    0.9688   -0.7260 H   0  0  0  0  0  0  0  0  0  0  0  0
  1  2  3  0
  1  7  1  0
  2  3  1  0
  3  4  1  0
  3  5  1  0
  3  8  1  0
  4  9  1  0
  4 10  1  0
  4 11  1  0
  5  6  3  0
  6 12  1  0
 13 14  2  3
 13 17  1  0
 13 18  1  0
 14 15  1  0
 14 19  1  0
 15 16  1  0
 15 20  1  0
 16 21  1  0
 16 22  1  0
 16 23  1  0
M  RAD  1  15   2
M  END
>  <reaction>  (7) 
rxn_1395

>  <mol_properties>  (7) 
{"1": {"label": "*0", "atom_type": "Ct"}, "2": {"label": "*1", "atom_type": "Cs"}, "7": {"label": "*2", "atom_type": "H0"}, "13": {"label": "*4", "atom_type": "Cd"}, "14": {"label": "*3", "atom_type": "Cs"}}

>  <type>  (7) 
unop_3

>  <geom_source>  (7) 
Heuristics

$$$$

     RDKit          3D

 23 21  0  0  0  0  0  0  0  0999 V2000
   -0.8591    0.5464   -2.9352 C   0  0  0  0  0  0  0  0  0  0  0  0
   -0.8591    0.5464   -1.7390 C   0  0  0  0  0  0  0  0  0  0  0  0
   -0.8591    0.5864   -0.2725 C   0  0  0  0  0  0  0  0  0  0  0  0
   -1.4971    1.8857    0.2495 C   0  0  0  0  0  0  0  0  0  0  0  0
   -1.5210   -0.5948    0.2923 C   0  0  0  0  0  0  0  0  0  0  0  0
   -2.0692   -1.5401    0.7788 C   0  0  0  0  0  0  0  0  0  0  0  0
   -0.8591    0.5464   -3.9986 H   0  0  0  0  0  0  0  0  0  0  0  0
    0.3945    0.5592    0.1207 H   0  0  0  0  0  0  0  0  0  0  0  0
   -2.5404    1.9429   -0.0582 H   0  0  0  0  0  0  0  0  0  0  0  0
   -0.9645    2.7471   -0.1521 H   0  0  0  0  0  0  0  0  0  0  0  0
   -1.4500    1.9101    1.3378 H   0  0  0  0  0  0  0  0  0  0  0  0
   -2.5566   -2.3805    1.2113 H   0  0  0  0  0  0  0  0  0  0  0  0
    2.3319   -1.8939    0.6473 C   0  0  0  0  0  0  0  0  0  0  0  0
    2.2685   -0.7362    0.0073 C   0  0  0  0  0  0  0  0  0  0  0  0
    1.6486    0.5319    0.5140 C   0  0  0  0  0  3  0  0  0  0  0  0
    1.0377    0.4574    1.9044 C   0  0  0  0  0  0  0  0  0  0  0  0
    2.8030   -2.7573    0.1948 H   0  0  0  0  0  0  0  0  0  0  0  0
    1.9202   -2.0280    1.6406 H   0  0  0  0  0  0  0  0  0  0  0  0
    2.7016   -0.6697   -0.9876 H   0  0  0  0  0  0  0  0  0  0  0  0
    2.4114    1.3179    0.4879 H   0  0  0  0  0  0  0  0  0  0  0  0
    1.7863    0.1883    2.6521 H   0  0  0  0  0  0  0  0  0  0  0  0
    0.6128    1.4208    2.1883 H   0  0  0  0  0  0  0  0  0  0  0  0
    0.2395   -0.2861    1.9470 H   0  0  0  0  0  0  0  0  0  0  0  0
  1  2  3  0
  1  7  1  0
  2  3  1  0
  3  4  1  0
  3  5  1  0
  3  8  1  0
  4  9  1  0
  4 10  1  0
  4 11  1  0
  5  6  3  0
  6 12  1  0
 13 14  2  3
 13 17  1  0
 13 18  1  0
 14 15  1  0
 14 19  1  0
 15 16  1  0
 15 20  1  0
 16 21  1  0
 16 22  1  0
 16 23  1  0
M  RAD  1  15   2
M  END
>  <reaction>  (8) 
rxn_1395

>  <mol_properties>  (8) 
{"1": {"label": "*0", "atom_type": "Ct"}, "2": {"label": "*1", "atom_type": "Cs"}, "7": {"label": "*2", "atom_type": "H0"}, "13": {"label": "*4", "atom_type": "Cd"}, "14": {"label": "*3", "atom_type": "Cs"}}

>  <type>  (8) 
unop_4

>  <geom_source>  (8) 
Heuristics

$$$$

     RDKit          3D

 23 21  0  0  0  0  0  0  0  0999 V2000
   -0.9542   -0.0680   -3.1165 C   0  0  0  0  0  0  0  0  0  0  0  0
   -0.9542   -0.0680   -1.9203 C   0  0  0  0  0  0  0  0  0  0  0  0
   -0.9542   -0.0280   -0.4538 C   0  0  0  0  0  0  0  0  0  0  0  0
   -1.5923    1.2712    0.0682 C   0  0  0  0  0  0  0  0  0  0  0  0
   -1.6161   -1.2092    0.1110 C   0  0  0  0  0  0  0  0  0  0  0  0
   -2.1643   -2.1545    0.5975 C   0  0  0  0  0  0  0  0  0  0  0  0
   -0.9542   -0.0680   -4.1799 H   0  0  0  0  0  0  0  0  0  0  0  0
    0.2994   -0.0552   -0.0606 H   0  0  0  0  0  0  0  0  0  0  0  0
   -2.6355    1.3285   -0.2395 H   0  0  0  0  0  0  0  0  0  0  0  0
   -1.0597    2.1327   -0.3334 H   0  0  0  0  0  0  0  0  0  0  0  0
   -1.5451    1.2957    1.1564 H   0  0  0  0  0  0  0  0  0  0  0  0
   -2.6517   -2.9949    1.0300 H   0  0  0  0  0  0  0  0  0  0  0  0
    2.1950    0.8485    2.5890 C   0  0  0  0  0  0  0  0  0  0  0  0
    1.5728   -0.0421    1.8317 C   0  0  0  0  0  0  0  0  0  0  0  0
    1.5535   -0.0825    0.3327 C   0  0  0  0  0  3  0  0  0  0  0  0
    2.3333    1.0197   -0.3666 C   0  0  0  0  0  0  0  0  0  0  0  0
    2.1492    0.7928    3.6692 H   0  0  0  0  0  0  0  0  0  0  0  0
    2.7710    1.6636    2.1671 H   0  0  0  0  0  0  0  0  0  0  0  0
    1.0117   -0.8353    2.3194 H   0  0  0  0  0  0  0  0  0  0  0  0
    1.9304   -1.0604    0.0135 H   0  0  0  0  0  0  0  0  0  0  0  0
    3.3903    0.9907   -0.0949 H   0  0  0  0  0  0  0  0  0  0  0  0
    2.2633    0.9109   -1.4494 H   0  0  0  0  0  0  0  0  0  0  0  0
    1.9470    2.0064   -0.1037 H   0  0  0  0  0  0  0  0  0  0  0  0
  1  2  3  0
  1  7  1  0
  2  3  1  0
  3  4  1  0
  3  5  1  0
  3  8  1  0
  4  9  1  0
  4 10  1  0
  4 11  1  0
  5  6  3  0
  6 12  1  0
 13 14  2  3
 13 17  1  0
 13 18  1  0
 14 15  1  0
 14 19  1  0
 15 16  1  0
 15 20  1  0
 16 21  1  0
 16 22  1  0
 16 23  1  0
M  RAD  1  15   2
M  END
>  <reaction>  (9) 
rxn_1395

>  <mol_properties>  (9) 
{"1": {"label": "*0", "atom_type": "Ct"}, "2": {"label": "*1", "atom_type": "Cs"}, "7": {"label": "*2", "atom_type": "H0"}, "13": {"label": "*4", "atom_type": "Cd"}, "14": {"label": "*3", "atom_type": "Cs"}}

>  <type>  (9) 
unop_5

>  <geom_source>  (9) 
Heuristics

$$$$

     RDKit          3D

 23 21  0  0  0  0  0  0  0  0999 V2000
   -0.7770    0.4545   -3.0984 C   0  0  0  0  0  0  0  0  0  0  0  0
   -0.7770    0.4545   -1.9022 C   0  0  0  0  0  0  0  0  0  0  0  0
   -0.7770    0.4945   -0.4357 C   0  0  0  0  0  0  0  0  0  0  0  0
   -1.4150    1.7937    0.0863 C   0  0  0  0  0  0  0  0  0  0  0  0
   -1.4388   -0.6867    0.1291 C   0  0  0  0  0  0  0  0  0  0  0  0
   -1.9871   -1.6320    0.6156 C   0  0  0  0  0  0  0  0  0  0  0  0
   -0.7770    0.4545   -4.1619 H   0  0  0  0  0  0  0  0  0  0  0  0
    0.4766    0.4673   -0.0426 H   0  0  0  0  0  0  0  0  0  0  0  0
   -2.4583    1.8510   -0.2215 H   0  0  0  0  0  0  0  0  0  0  0  0
   -0.8824    2.6552   -0.3154 H   0  0  0  0  0  0  0  0  0  0  0  0
   -1.3678    1.8182    1.1745 H   0  0  0  0  0  0  0  0  0  0  0  0
   -2.4745   -2.4724    1.0481 H   0  0  0  0  0  0  0  0  0  0  0  0
    1.9378   -1.7395    1.6062 C   0  0  0  0  0  0  0  0  0  0  0  0
    2.1322   -0.9939    0.5291 C   0  0  0  0  0  0  0  0  0  0  0  0
    1.7307    0.4400    0.3507 C   0  0  0  0  0  3  0  0  0  0  0  0
    1.0317    1.0816    1.5389 C   0  0  0  0  0  0  0  0  0  0  0  0
    2.2658   -2.7708    1.6384 H   0  0  0  0  0  0  0  0  0  0  0  0
    1.4475   -1.3561    2.4932 H   0  0  0  0  0  0  0  0  0  0  0  0
    2.6309   -1.4407   -0.3274 H   0  0  0  0  0  0  0  0  0  0  0  0
    2.6274    1.0154    0.0956 H   0  0  0  0  0  0  0  0  0  0  0  0
    1.6688    1.0728    2.4254 H   0  0  0  0  0  0  0  0  0  0  0  0
    0.7781    2.1193    1.3197 H   0  0  0  0  0  0  0  0  0  0  0  0
    0.1072    0.5560    1.7858 H   0  0  0  0  0  0  0  0  0  0  0  0
  1  2  3  0
  1  7  1  0
  2  3  1  0
  3  4  1  0
  3  5  1  0
  3  8  1  0
  4  9  1  0
  4 10  1  0
  4 11  1  0
  5  6  3  0
  6 12  1  0
 13 14  2  3
 13 17  1  0
 13 18  1  0
 14 15  1  0
 14 19  1  0
 15 16  1  0
 15 20  1  0
 16 21  1  0
 16 22  1  0
 16 23  1  0
M  RAD  1  15   2
M  END
>  <reaction>  (10) 
rxn_1395

>  <mol_properties>  (10) 
{"1": {"label": "*0", "atom_type": "Ct"}, "2": {"label": "*1", "atom_type": "Cs"}, "7": {"label": "*2", "atom_type": "H0"}, "13": {"label": "*4", "atom_type": "Cd"}, "14": {"label": "*3", "atom_type": "Cs"}}

>  <type>  (10) 
unop_6

>  <geom_source>  (10) 
Heuristics

$$$$

     RDKit          3D

 23 21  0  0  0  0  0  0  0  0999 V2000
   -0.7489    0.2746   -3.2051 C   0  0  0  0  0  0  0  0  0  0  0  0
   -0.7489    0.2746   -2.0090 C   0  0  0  0  0  0  0  0  0  0  0  0
   -0.7489    0.3147   -0.5424 C   0  0  0  0  0  0  0  0  0  0  0  0
   -1.3869    1.6139   -0.0204 C   0  0  0  0  0  0  0  0  0  0  0  0
   -1.4107   -0.8666    0.0224 C   0  0  0  0  0  0  0  0  0  0  0  0
   -1.9590   -1.8119    0.5089 C   0  0  0  0  0  0  0  0  0  0  0  0
   -0.7489    0.2746   -4.2686 H   0  0  0  0  0  0  0  0  0  0  0  0
    0.5047    0.2874   -0.1493 H   0  0  0  0  0  0  0  0  0  0  0  0
   -2.4302    1.6711   -0.3282 H   0  0  0  0  0  0  0  0  0  0  0  0
   -0.8543    2.4753   -0.4221 H   0  0  0  0  0  0  0  0  0  0  0  0
   -1.3397    1.6383    1.0678 H   0  0  0  0  0  0  0  0  0  0  0  0
   -2.4464   -2.6523    0.9414 H   0  0  0  0  0  0  0  0  0  0  0  0
    1.7095   -1.0596    2.3947 C   0  0  0  0  0  0  0  0  0  0  0  0
    1.9534   -0.9579    1.0970 C   0  0  0  0  0  0  0  0  0  0  0  0
    1.7588    0.2602    0.2440 C   0  0  0  0  0  3  0  0  0  0  0  0
    1.2272    1.4901    0.9627 C   0  0  0  0  0  0  0  0  0  0  0  0
    1.8831   -1.9875    2.9248 H   0  0  0  0  0  0  0  0  0  0  0  0
    1.3297   -0.2289    2.9777 H   0  0  0  0  0  0  0  0  0  0  0  0
    2.3339   -1.8302    0.5713 H   0  0  0  0  0  0  0  0  0  0  0  0
    2.7155    0.4973   -0.2343 H   0  0  0  0  0  0  0  0  0  0  0  0
    1.9029    1.8061    1.7599 H   0  0  0  0  0  0  0  0  0  0  0  0
    1.1180    2.3230    0.2672 H   0  0  0  0  0  0  0  0  0  0  0  0
    0.2499    1.2965    1.4092 H   0  0  0  0  0  0  0  0  0  0  0  0
  1  2  3  0
  1  7  1  0
  2  3  1  0
  3  4  1  0
  3  5  1  0
  3  8  1  0
  4  9  1  0
  4 10  1  0
  4 11  1  0
  5  6  3  0
  6 12  1  0
 13 14  2  3
 13 17  1  0
 13 18  1  0
 14 15  1  0
 14 19  1  0
 15 16  1  0
 15 20  1  0
 16 21  1  0
 16 22  1  0
 16 23  1  0
M  RAD  1  15   2
M  END
>  <reaction>  (11) 
rxn_1395

>  <mol_properties>  (11) 
{"1": {"label": "*0", "atom_type": "Ct"}, "2": {"label": "*1", "atom_type": "Cs"}, "7": {"label": "*2", "atom_type": "H0"}, "13": {"label": "*4", "atom_type": "Cd"}, "14": {"label": "*3", "atom_type": "Cs"}}

>  <type>  (11) 
unop_7

>  <geom_source>  (11) 
Heuristics

$$$$

     RDKit          3D

 23 21  0  0  0  0  0  0  0  0999 V2000
   -1.1472   -0.0522   -2.8328 C   0  0  0  0  0  0  0  0  0  0  0  0
   -1.1472   -0.0522   -1.6367 C   0  0  0  0  0  0  0  0  0  0  0  0
   -1.1472   -0.0121   -0.1701 C   0  0  0  0  0  0  0  0  0  0  0  0
   -1.7852    1.2871    0.3519 C   0  0  0  0  0  0  0  0  0  0  0  0
   -1.8090   -1.1934    0.3947 C   0  0  0  0  0  0  0  0  0  0  0  0
   -2.3572   -2.1387    0.8811 C   0  0  0  0  0  0  0  0  0  0  0  0
   -1.1472   -0.0522   -3.8963 H   0  0  0  0  0  0  0  0  0  0  0  0
    0.1064   -0.0394    0.2230 H   0  0  0  0  0  0  0  0  0  0  0  0
   -2.8285    1.3443    0.0441 H   0  0  0  0  0  0  0  0  0  0  0  0
   -1.2526    2.1485   -0.0498 H   0  0  0  0  0  0  0  0  0  0  0  0
   -1.7380    1.3115    1.4401 H   0  0  0  0  0  0  0  0  0  0  0  0
   -2.8447   -2.9791    1.3137 H   0  0  0  0  0  0  0  0  0  0  0  0
    3.1108    1.7465    0.7536 C   0  0  0  0  0  0  0  0  0  0  0  0
    1.8484    1.3479    0.7168 C   0  0  0  0  0  0  0  0  0  0  0  0
    1.3606   -0.0667    0.6163 C   0  0  0  0  0  3  0  0  0  0  0  0
    2.4418   -1.1338    0.5514 C   0  0  0  0  0  0  0  0  0  0  0  0
    3.3632    2.7967    0.8274 H   0  0  0  0  0  0  0  0  0  0  0  0
    3.9382    1.0481    0.7120 H   0  0  0  0  0  0  0  0  0  0  0  0
    1.0657    2.1011    0.7625 H   0  0  0  0  0  0  0  0  0  0  0  0
    0.7014   -0.2609    1.4695 H   0  0  0  0  0  0  0  0  0  0  0  0
    3.0727   -1.1131    1.4421 H   0  0  0  0  0  0  0  0  0  0  0  0
    1.9964   -2.1266    0.4801 H   0  0  0  0  0  0  0  0  0  0  0  0
    3.0860   -0.9926   -0.3186 H   0  0  0  0  0  0  0  0  0  0  0  0
  1  2  3  0
  1  7  1  0
  2  3  1  0
  3  4  1  0
  3  5  1  0
  3  8  1  0
  4  9  1  0
  4 10  1  0
  4 11  1  0
  5  6  3  0
  6 12  1  0
 13 14  2  3
 13 17  1  0
 13 18  1  0
 14 15  1  0
 14 19  1  0
 15 16  1  0
 15 20  1  0
 16 21  1  0
 16 22  1  0
 16 23  1  0
M  RAD  1  15   2
M  END
>  <reaction>  (12) 
rxn_1395

>  <mol_properties>  (12) 
{"1": {"label": "*0", "atom_type": "Ct"}, "2": {"label": "*1", "atom_type": "Cs"}, "7": {"label": "*2", "atom_type": "H0"}, "13": {"label": "*4", "atom_type": "Cd"}, "14": {"label": "*3", "atom_type": "Cs"}}

>  <type>  (12) 
unop_8

>  <geom_source>  (12) 
Heuristics

$$$$

     RDKit          3D

 23 21  0  0  0  0  0  0  0  0999 V2000
   -0.9746    0.5260   -2.7658 C   0  0  0  0  0  0  0  0  0  0  0  0
   -0.9746    0.5260   -1.5696 C   0  0  0  0  0  0  0  0  0  0  0  0
   -0.9746    0.5661   -0.1031 C   0  0  0  0  0  0  0  0  0  0  0  0
   -1.6126    1.8653    0.4189 C   0  0  0  0  0  0  0  0  0  0  0  0
   -1.6364   -0.6151    0.4617 C   0  0  0  0  0  0  0  0  0  0  0  0
   -2.1847   -1.5604    0.9482 C   0  0  0  0  0  0  0  0  0  0  0  0
   -0.9746    0.5260   -3.8292 H   0  0  0  0  0  0  0  0  0  0  0  0
    0.2790    0.5389    0.2901 H   0  0  0  0  0  0  0  0  0  0  0  0
   -2.6559    1.9226    0.1112 H   0  0  0  0  0  0  0  0  0  0  0  0
   -1.0800    2.7268    0.0173 H   0  0  0  0  0  0  0  0  0  0  0  0
   -1.5654    1.8898    1.5071 H   0  0  0  0  0  0  0  0  0  0  0  0
   -2.6721   -2.4008    1.3807 H   0  0  0  0  0  0  0  0  0  0  0  0
    2.7921   -1.4860   -0.2077 C   0  0  0  0  0  0  0  0  0  0  0  0
    2.3245   -0.2535   -0.3352 C   0  0  0  0  0  0  0  0  0  0  0  0
    1.5331    0.5116    0.6834 C   0  0  0  0  0  3  0  0  0  0  0  0
    1.2513   -0.2211    1.9855 C   0  0  0  0  0  0  0  0  0  0  0  0
    3.3557   -1.9548   -1.0043 H   0  0  0  0  0  0  0  0  0  0  0  0
    2.6337   -2.0739    0.6886 H   0  0  0  0  0  0  0  0  0  0  0  0
    2.5191    0.2814   -1.2614 H   0  0  0  0  0  0  0  0  0  0  0  0
    2.0632    1.4470    0.8938 H   0  0  0  0  0  0  0  0  0  0  0  0
    2.1775   -0.4968    2.4935 H   0  0  0  0  0  0  0  0  0  0  0  0
    0.6735    0.4090    2.6625 H   0  0  0  0  0  0  0  0  0  0  0  0
    0.6808   -1.1353    1.8102 H   0  0  0  0  0  0  0  0  0  0  0  0
  1  2  3  0
  1  7  1  0
  2  3  1  0
  3  4  1  0
  3  5  1  0
  3  8  1  0
  4  9  1  0
  4 10  1  0
  4 11  1  0
  5  6  3  0
  6 12  1  0
 13 14  2  3
 13 17  1  0
 13 18  1  0
 14 15  1  0
 14 19  1  0
 15 16  1  0
 15 20  1  0
 16 21  1  0
 16 22  1  0
 16 23  1  0
M  RAD  1  15   2
M  END
>  <reaction>  (13) 
rxn_1395

>  <mol_properties>  (13) 
{"1": {"label": "*0", "atom_type": "Ct"}, "2": {"label": "*1", "atom_type": "Cs"}, "7": {"label": "*2", "atom_type": "H0"}, "13": {"label": "*4", "atom_type": "Cd"}, "14": {"label": "*3", "atom_type": "Cs"}}

>  <type>  (13) 
unop_9

>  <geom_source>  (13) 
Heuristics

$$$$

     RDKit          3D

 23 21  0  0  0  0  0  0  0  0999 V2000
   -1.1727    0.0322   -2.7097 C   0  0  0  0  0  0  0  0  0  0  0  0
   -1.1727    0.0322   -1.5135 C   0  0  0  0  0  0  0  0  0  0  0  0
   -1.1727    0.0723   -0.0470 C   0  0  0  0  0  0  0  0  0  0  0  0
   -1.8107    1.3715    0.4750 C   0  0  0  0  0  0  0  0  0  0  0  0
   -1.8345   -1.1089    0.5178 C   0  0  0  0  0  0  0  0  0  0  0  0
   -2.3827   -2.0542    1.0043 C   0  0  0  0  0  0  0  0  0  0  0  0
   -1.1727    0.0322   -3.7732 H   0  0  0  0  0  0  0  0  0  0  0  0
    0.0809    0.0451    0.3461 H   0  0  0  0  0  0  0  0  0  0  0  0
   -2.8539    1.4288    0.1672 H   0  0  0  0  0  0  0  0  0  0  0  0
   -1.2781    2.2330    0.0733 H   0  0  0  0  0  0  0  0  0  0  0  0
   -1.7635    1.3960    1.5632 H   0  0  0  0  0  0  0  0  0  0  0  0
   -2.8702   -2.8946    1.4368 H   0  0  0  0  0  0  0  0  0  0  0  0
    3.3262    1.3363   -0.0770 C   0  0  0  0  0  0  0  0  0  0  0  0
    2.0297    1.2166    0.1654 C   0  0  0  0  0  0  0  0  0  0  0  0
    1.3351    0.0178    0.7395 C   0  0  0  0  0  3  0  0  0  0  0  0
    2.2290   -1.1673    1.0686 C   0  0  0  0  0  0  0  0  0  0  0  0
    3.7345    2.2475   -0.4953 H   0  0  0  0  0  0  0  0  0  0  0  0
    4.0285    0.5375    0.1299 H   0  0  0  0  0  0  0  0  0  0  0  0
    1.3796    2.0568   -0.0655 H   0  0  0  0  0  0  0  0  0  0  0  0
    0.7966    0.3348    1.6393 H   0  0  0  0  0  0  0  0  0  0  0  0
    2.9880   -0.8983    1.8058 H   0  0  0  0  0  0  0  0  0  0  0  0
    1.6407   -1.9887    1.4789 H   0  0  0  0  0  0  0  0  0  0  0  0
    2.7426   -1.5355    0.1784 H   0  0  0  0  0  0  0  0  0  0  0  0
  1  2  3  0
  1  7  1  0
  2  3  1  0
  3  4  1  0
  3  5  1  0
  3  8  1  0
  4  9  1  0
  4 10  1  0
  4 11  1  0
  5  6  3  0
  6 12  1  0
 13 14  2  3
 13 17  1  0
 13 18  1  0
 14 15  1  0
 14 19  1  0
 15 16  1  0
 15 20  1  0
 16 21  1  0
 16 22  1  0
 16 23  1  0
M  RAD  1  15   2
M  END
>  <reaction>  (14) 
rxn_1395

>  <mol_properties>  (14) 
{"1": {"label": "*0", "atom_type": "Ct"}, "2": {"label": "*1", "atom_type": "Cs"}, "7": {"label": "*2", "atom_type": "H0"}, "13": {"label": "*4", "atom_type": "Cd"}, "14": {"label": "*3", "atom_type": "Cs"}}

>  <type>  (14) 
unop_10

>  <geom_source>  (14) 
Heuristics

$$$$

     RDKit          3D

 23 21  0  0  0  0  0  0  0  0999 V2000
   -0.8044    0.0592   -3.2122 C   0  0  0  0  0  0  0  0  0  0  0  0
   -0.8044    0.0592   -2.0160 C   0  0  0  0  0  0  0  0  0  0  0  0
   -0.8044    0.0992   -0.5495 C   0  0  0  0  0  0  0  0  0  0  0  0
   -1.4425    1.3984   -0.0275 C   0  0  0  0  0  0  0  0  0  0  0  0
   -1.4663   -1.0820    0.0153 C   0  0  0  0  0  0  0  0  0  0  0  0
   -2.0145   -2.0273    0.5018 C   0  0  0  0  0  0  0  0  0  0  0  0
   -0.8044    0.0592   -4.2757 H   0  0  0  0  0  0  0  0  0  0  0  0
    0.4492    0.0720   -0.1564 H   0  0  0  0  0  0  0  0  0  0  0  0
   -2.4857    1.4557   -0.3352 H   0  0  0  0  0  0  0  0  0  0  0  0
   -0.9098    2.2599   -0.4291 H   0  0  0  0  0  0  0  0  0  0  0  0
   -1.3953    1.4229    1.0607 H   0  0  0  0  0  0  0  0  0  0  0  0
   -2.5019   -2.8677    0.9343 H   0  0  0  0  0  0  0  0  0  0  0  0
    1.7739   -0.0425    2.7582 C   0  0  0  0  0  0  0  0  0  0  0  0
    1.7580   -0.6337    1.5733 C   0  0  0  0  0  0  0  0  0  0  0  0
    1.7033    0.0447    0.2370 C   0  0  0  0  0  3  0  0  0  0  0  0
    1.6626    1.5643    0.2703 C   0  0  0  0  0  0  0  0  0  0  0  0
    1.8145   -0.6225    3.6715 H   0  0  0  0  0  0  0  0  0  0  0  0
    1.7473    1.0354    2.8662 H   0  0  0  0  0  0  0  0  0  0  0  0
    1.7867   -1.7199    1.5357 H   0  0  0  0  0  0  0  0  0  0  0  0
    2.5666   -0.2883   -0.3496 H   0  0  0  0  0  0  0  0  0  0  0  0
    2.5478    1.9736    0.7610 H   0  0  0  0  0  0  0  0  0  0  0  0
    1.6242    1.9689   -0.7417 H   0  0  0  0  0  0  0  0  0  0  0  0
    0.7842    1.9254    0.8087 H   0  0  0  0  0  0  0  0  0  0  0  0
  1  2  3  0
  1  7  1  0
  2  3  1  0
  3  4  1  0
  3  5  1  0
  3  8  1  0
  4  9  1  0
  4 10  1  0
  4 11  1  0
  5  6  3  0
  6 12  1  0
 13 14  2  3
 13 17  1  0
 13 18  1  0
 14 15  1  0
 14 19  1  0
 15 16  1  0
 15 20  1  0
 16 21  1  0
 16 22  1  0
 16 23  1  0
M  RAD  1  15   2
M  END
>  <reaction>  (15) 
rxn_1395

>  <mol_properties>  (15) 
{"1": {"label": "*0", "atom_type": "Ct"}, "2": {"label": "*1", "atom_type": "Cs"}, "7": {"label": "*2", "atom_type": "H0"}, "13": {"label": "*4", "atom_type": "Cd"}, "14": {"label": "*3", "atom_type": "Cs"}}

>  <type>  (15) 
unop_11

>  <geom_source>  (15) 
Heuristics

$$$$

     RDKit          3D

 23 21  0  0  0  0  0  0  0  0999 V2000
   -1.0911    0.3924   -2.6481 C   0  0  0  0  0  0  0  0  0  0  0  0
   -1.0911    0.3924   -1.4520 C   0  0  0  0  0  0  0  0  0  0  0  0
   -1.0911    0.4325    0.0146 C   0  0  0  0  0  0  0  0  0  0  0  0
   -1.7292    1.7317    0.5366 C   0  0  0  0  0  0  0  0  0  0  0  0
   -1.7530   -0.7488    0.5794 C   0  0  0  0  0  0  0  0  0  0  0  0
   -2.3012   -1.6941    1.0659 C   0  0  0  0  0  0  0  0  0  0  0  0
   -1.0911    0.3924   -3.7116 H   0  0  0  0  0  0  0  0  0  0  0  0
    0.1625    0.4052    0.4077 H   0  0  0  0  0  0  0  0  0  0  0  0
   -2.7724    1.7889    0.2288 H   0  0  0  0  0  0  0  0  0  0  0  0
   -1.1965    2.5931    0.1349 H   0  0  0  0  0  0  0  0  0  0  0  0
   -1.6820    1.7561    1.6248 H   0  0  0  0  0  0  0  0  0  0  0  0
   -2.7886   -2.5345    1.4984 H   0  0  0  0  0  0  0  0  0  0  0  0
    3.1938   -0.6056   -0.6968 C   0  0  0  0  0  0  0  0  0  0  0  0
    2.2865    0.3183   -0.4191 C   0  0  0  0  0  0  0  0  0  0  0  0
    1.4166    0.3780    0.8010 C   0  0  0  0  0  3  0  0  0  0  0  0
    1.6134   -0.7454    1.8066 C   0  0  0  0  0  0  0  0  0  0  0  0
    3.7751   -0.5615   -1.6091 H   0  0  0  0  0  0  0  0  0  0  0  0
    3.3932   -1.4375   -0.0316 H   0  0  0  0  0  0  0  0  0  0  0  0
    2.1361    1.1269   -1.1300 H   0  0  0  0  0  0  0  0  0  0  0  0
    1.5822    1.3441    1.2903 H   0  0  0  0  0  0  0  0  0  0  0  0
    2.6365   -0.7617    2.1873 H   0  0  0  0  0  0  0  0  0  0  0  0
    0.9422   -0.6205    2.6570 H   0  0  0  0  0  0  0  0  0  0  0  0
    1.4076   -1.7192    1.3580 H   0  0  0  0  0  0  0  0  0  0  0  0
  1  2  3  0
  1  7  1  0
  2  3  1  0
  3  4  1  0
  3  5  1  0
  3  8  1  0
  4  9  1  0
  4 10  1  0
  4 11  1  0
  5  6  3  0
  6 12  1  0
 13 14  2  3
 13 17  1  0
 13 18  1  0
 14 15  1  0
 14 19  1  0
 15 16  1  0
 15 20  1  0
 16 21  1  0
 16 22  1  0
 16 23  1  0
M  RAD  1  15   2
M  END
>  <reaction>  (16) 
rxn_1395

>  <mol_properties>  (16) 
{"1": {"label": "*0", "atom_type": "Ct"}, "2": {"label": "*1", "atom_type": "Cs"}, "7": {"label": "*2", "atom_type": "H0"}, "13": {"label": "*4", "atom_type": "Cd"}, "14": {"label": "*3", "atom_type": "Cs"}}

>  <type>  (16) 
unop_12

>  <geom_source>  (16) 
Heuristics

$$$$

     RDKit          3D

 23 21  0  0  0  0  0  0  0  0999 V2000
   -1.0609   -0.2872    0.2569 C   0  0  0  0  0  3  0  0  0  0  0  0
   -1.5164   -1.4130   -0.6654 C   0  0  0  0  0  0  0  0  0  0  0  0
    2.2545   -0.0670   -1.6106 C   0  0  0  0  0  0  0  0  0  0  0  0
   -2.0813    0.8139    0.3255 C   0  0  0  0  0  0  0  0  0  0  0  0
    1.4449    0.2073   -0.3465 C   0  0  0  0  0  0  0  0  0  0  0  0
   -3.2502    0.6534    0.9528 C   0  0  0  0  0  0  0  0  0  0  0  0
    1.7293    1.5513    0.1710 C   0  0  0  0  0  0  0  0  0  0  0  0
    1.7402   -0.7928    0.6866 C   0  0  0  0  0  0  0  0  0  0  0  0
    1.9617    2.6559    0.5951 C   0  0  0  0  0  0  0  0  0  0  0  0
    1.9816   -1.6154    1.5347 C   0  0  0  0  0  0  0  0  0  0  0  0
   -0.8648   -0.6873    1.2754 H   0  0  0  0  0  0  0  0  0  0  0  0
    0.1257    0.2350   -0.2392 H   0  0  0  0  0  0  0  0  0  0  0  0
   -0.7184   -2.1820   -0.7281 H   0  0  0  0  0  0  0  0  0  0  0  0
   -2.4394   -1.8905   -0.2736 H   0  0  0  0  0  0  0  0  0  0  0  0
   -1.7095   -1.0176   -1.6853 H   0  0  0  0  0  0  0  0  0  0  0  0
    2.0081   -1.0756   -2.0054 H   0  0  0  0  0  0  0  0  0  0  0  0
    3.3457   -0.0160   -1.4020 H   0  0  0  0  0  0  0  0  0  0  0  0
    2.0000    0.6807   -2.3918 H   0  0  0  0  0  0  0  0  0  0  0  0
   -1.8453    1.7750   -0.1203 H   0  0  0  0  0  0  0  0  0  0  0  0
   -3.5057   -0.2894    1.4269 H   0  0  0  0  0  0  0  0  0  0  0  0
   -3.9594    1.4735    0.9973 H   0  0  0  0  0  0  0  0  0  0  0  0
    2.1659    3.6254    0.9672 H   0  0  0  0  0  0  0  0  0  0  0  0
    2.1936   -2.3373    2.2789 H   0  0  0  0  0  0  0  0  0  0  0  0
  1  2  1  0
  1  4  1  0
  1 11  1  0
  2 13  1  0
  2 14  1  0
  2 15  1  0
  3  5  1  0
  3 16  1  0
  3 17  1  0
  3 18  1  0
  4  6  2  3
  4 19  1  0
  5  7  1  0
  5  8  1  0
  5 12  1  0
  6 20  1  0
  6 21  1  0
  7  9  3  0
  8 10  3  0
  9 22  1  0
 10 23  1  0
M  RAD  1   1   2
M  END
>  <reaction>  (17) 
rxn_1395

>  <mol_properties>  (17) 
{"1": {"label": "*0", "atom_type": "Ct"}, "2": {"label": "*1", "atom_type": "Cs"}, "7": {"label": "*2", "atom_type": "H0"}, "13": {"label": "*4", "atom_type": "Cd"}, "14": {"label": "*3", "atom_type": "Cs"}}

>  <type>  (17) 
unop_13

>  <geom_source>  (17) 
AutoTST

$$$$

     RDKit          3D

 23 21  0  0  0  0  0  0  0  0999 V2000
   -1.1621    0.1975   -2.6308 C   0  0  0  0  0  0  0  0  0  0  0  0
   -1.1621    0.1975   -1.4347 C   0  0  0  0  0  0  0  0  0  0  0  0
   -1.1621    0.2376    0.0319 C   0  0  0  0  0  0  0  0  0  0  0  0
   -1.8001    1.5368    0.5539 C   0  0  0  0  0  0  0  0  0  0  0  0
   -1.8240   -0.9437    0.5967 C   0  0  0  0  0  0  0  0  0  0  0  0
   -2.3722   -1.8890    1.0832 C   0  0  0  0  0  0  0  0  0  0  0  0
   -1.1621    0.1975   -3.6943 H   0  0  0  0  0  0  0  0  0  0  0  0
    0.0915    0.2103    0.4250 H   0  0  0  0  0  0  0  0  0  0  0  0
   -2.8434    1.5940    0.2461 H   0  0  0  0  0  0  0  0  0  0  0  0
   -1.2675    2.3982    0.1522 H   0  0  0  0  0  0  0  0  0  0  0  0
   -1.7530    1.5612    1.6421 H   0  0  0  0  0  0  0  0  0  0  0  0
   -2.8596   -2.7294    1.5157 H   0  0  0  0  0  0  0  0  0  0  0  0
    3.3855    0.4678   -0.6401 C   0  0  0  0  0  0  0  0  0  0  0  0
    2.1801    0.8422   -0.2391 C   0  0  0  0  0  0  0  0  0  0  0  0
    1.3456    0.1830    0.8183 C   0  0  0  0  0  3  0  0  0  0  0  0
    1.9659   -1.0356    1.4832 C   0  0  0  0  0  0  0  0  0  0  0  0
    3.9104    1.0118   -1.4152 H   0  0  0  0  0  0  0  0  0  0  0  0
    3.8948   -0.3894   -0.2160 H   0  0  0  0  0  0  0  0  0  0  0  0
    1.7254    1.7120   -0.7066 H   0  0  0  0  0  0  0  0  0  0  0  0
    1.1031    0.9342    1.5780 H   0  0  0  0  0  0  0  0  0  0  0  0
    2.9047   -0.7814    1.9792 H   0  0  0  0  0  0  0  0  0  0  0  0
    1.2914   -1.4469    2.2349 H   0  0  0  0  0  0  0  0  0  0  0  0
    2.1743   -1.8214    0.7545 H   0  0  0  0  0  0  0  0  0  0  0  0
  1  2  3  0
  1  7  1  0
  2  3  1  0
  3  4  1  0
  3  5  1  0
  3  8  1  0
  4  9  1  0
  4 10  1  0
  4 11  1  0
  5  6  3  0
  6 12  1  0
 13 14  2  3
 13 17  1  0
 13 18  1  0
 14 15  1  0
 14 19  1  0
 15 16  1  0
 15 20  1  0
 16 21  1  0
 16 22  1  0
 16 23  1  0
M  RAD  1  15   2
M  END
>  <reaction>  (18) 
rxn_1395

>  <mol_properties>  (18) 
{"1": {"label": "*0", "atom_type": "Ct"}, "2": {"label": "*1", "atom_type": "Cs"}, "7": {"label": "*2", "atom_type": "H0"}, "13": {"label": "*4", "atom_type": "Cd"}, "14": {"label": "*3", "atom_type": "Cs"}}

>  <type>  (18) 
unop_14

>  <geom_source>  (18) 
gaussian_log

$$$$
