
     RDKit          3D

  6  5  0  0  0  0  0  0  0  0999 V2000
    1.3543    1.0529    0.1454 O   0  0  0  0  0  0  0  0  0  0  0  0
    0.7621    0.0240   -0.0005 C   0  0  0  0  0  0  0  0  0  0  0  0
   -0.7621   -0.0240    0.0005 C   0  0  0  0  0  0  0  0  0  0  0  0
   -1.3543   -1.0529   -0.1454 O   0  0  0  0  0  0  0  0  0  0  0  0
    1.2588   -0.9541   -0.1447 H   0  0  0  0  0  0  0  0  0  0  0  0
   -1.2588    0.9541    0.1447 H   0  0  0  0  0  0  0  0  0  0  0  0
  1  2  2  0
  2  3  1  0
  2  5  1  0
  3  4  2  0
  3  6  1  0
M  END
>  <reaction>  (1) 
rxn_3226

>  <mol_properties>  (1) 
{"2": {"label": "donator", "atom_type": "CO"}, "5": {"label": "d_hydrogen", "atom_type": "H0"}}

>  <type>  (1) 
r1h

$$$$

     RDKit          3D

  7  6  0  0  0  0  0  0  0  0999 V2000
   -1.3059    0.5497   -0.1304 N   0  0  0  0  0  2  0  0  0  0  0  0
   -0.2700   -0.4288    0.0448 C   0  0  0  0  0  0  0  0  0  0  0  0
    1.1109    0.0669    0.0401 C   0  0  0  0  0  0  0  0  0  0  0  0
    2.1758    0.4925    0.0308 N   0  0  0  0  0  0  0  0  0  0  0  0
   -0.8815    1.4733   -0.2339 H   0  0  0  0  0  0  0  0  0  0  0  0
   -0.3767   -1.1909   -0.7373 H   0  0  0  0  0  0  0  0  0  0  0  0
   -0.4527   -0.9628    0.9858 H   0  0  0  0  0  0  0  0  0  0  0  0
  1  2  1  0
  1  5  1  0
  2  3  1  0
  2  6  1  0
  2  7  1  0
  3  4  3  0
M  RAD  1   1   2
M  END
>  <reaction>  (2) 
rxn_3226

>  <mol_properties>  (2) 
{"0": {"label": "acceptor", "atom_type": "N3s"}}

>  <type>  (2) 
r2

$$$$

     RDKit          3D

  8  7  0  0  0  0  0  0  0  0999 V2000
   -1.0805    0.5317    0.0204 N   0  0  0  0  0  0  0  0  0  0  0  0
   -0.1080   -0.5393    0.0956 C   0  0  0  0  0  0  0  0  0  0  0  0
    1.2945   -0.1247   -0.1005 C   0  0  0  0  0  0  0  0  0  0  0  0
    2.3714    0.2386   -0.2580 N   0  0  0  0  0  0  0  0  0  0  0  0
   -1.0516    0.9857   -0.8822 H   0  0  0  0  0  0  0  0  0  0  0  0
   -0.9009    1.2352    0.7235 H   0  0  0  0  0  0  0  0  0  0  0  0
   -0.3427   -1.2965   -0.6542 H   0  0  0  0  0  0  0  0  0  0  0  0
   -0.1810   -1.0288    1.0680 H   0  0  0  0  0  0  0  0  0  0  0  0
  1  2  1  0
  1  5  1  0
  1  6  1  0
  2  3  1  0
  2  7  1  0
  2  8  1  0
  3  4  3  0
M  END
>  <reaction>  (3) 
rxn_3226

>  <mol_properties>  (3) 
{"0": {"label": "acceptor", "atom_type": "N3s"}, "7": {"label": "a_hydrogen", "atom_type": "H0"}}

>  <type>  (3) 
r2h

$$$$

     RDKit          3D

 13 11  0  0  0  0  0  0  0  0999 V2000
    1.0675    1.4770   -0.0020 N   0  0  0  0  0  2  0  0  0  0  0  0
   -0.2671    2.0492   -0.0216 C   0  0  0  0  0  0  0  0  0  0  0  0
   -1.3064    1.1445   -0.5365 C   0  0  0  0  0  0  0  0  0  0  0  0
   -2.0696    0.3786   -0.9211 N   0  0  0  0  0  0  0  0  0  0  0  0
    1.2620    1.0888   -0.9271 H   0  0  0  0  0  0  0  0  0  0  0  0
   -0.2615    2.9525   -0.6412 H   0  0  0  0  0  0  0  0  0  0  0  0
   -0.5484    2.3544    0.9878 H   0  0  0  0  0  0  0  0  0  0  0  0
    1.0576   -1.6291   -1.1065 O   0  0  0  0  0  0  0  0  0  0  0  0
    0.5991   -1.9001   -0.0405 C   0  0  0  0  0  0  0  0  0  0  0  0
    0.5410   -0.8454    1.0861 C   0  0  0  0  0  0  0  0  0  0  0  0
    0.1423   -1.0745    2.1753 O   0  0  0  0  0  0  0  0  0  0  0  0
    0.2011   -2.8958    0.2275 H   0  0  0  0  0  0  0  0  0  0  0  0
    0.9340    0.2908    0.6940 H   0  0  0  0  0  0  0  0  0  0  0  0
  1  2  1  0
  1  5  1  0
  2  3  1  0
  2  6  1  0
  2  7  1  0
  3  4  3  0
  8  9  2  0
  9 10  1  0
  9 12  1  0
 10 11  2  0
 10 13  1  0
M  RAD  1   1   2
M  END
>  <reaction>  (4) 
rxn_3226

>  <mol_properties>  (4) 
{"0": {"label": "*3", "atom_type": "N3s"}, "1": {"label": "*4", "atom_type": "Cs"}, "8": {"label": "*0", "atom_type": "CO"}, "9": {"label": "*1", "atom_type": "CO"}, "12": {"label": "*2", "atom_type": "H0"}}

>  <type>  (4) 
ts

$$$$

     RDKit          3D

 13 11  0  0  0  0  0  0  0  0999 V2000
    0.7582    1.1544   -0.2829 N   0  0  0  0  0  0  0  0  0  0  0  0
   -0.4126    1.9622   -0.0086 C   0  0  0  0  0  0  0  0  0  0  0  0
   -1.4832    1.8744   -1.0202 C   0  0  0  0  0  0  0  0  0  0  0  0
   -2.2911    1.7783   -1.8294 N   0  0  0  0  0  0  0  0  0  0  0  0
    1.1857    1.4205   -1.1593 H   0  0  0  0  0  0  0  0  0  0  0  0
   -0.1190    3.0093    0.0802 H   0  0  0  0  0  0  0  0  0  0  0  0
   -0.8359    1.6732    0.9547 H   0  0  0  0  0  0  0  0  0  0  0  0
    0.7582   -2.2614   -0.8669 O   0  0  0  0  0  1  0  0  0  0  0  0
    0.7582   -2.2614    0.3292 C   0  0  0  0  0  0  0  0  0  0  0  0
    0.7582   -0.9604    1.1249 C   0  0  0  0  0  0  0  0  0  0  0  0
    0.7582   -0.9604    2.3210 O   0  0  0  0  0  0  0  0  0  0  0  0
    0.7582   -3.1824    0.9423 H   0  0  0  0  0  0  0  0  0  0  0  0
    0.7582    0.1448    0.3892 H   0  0  0  0  0  0  0  0  0  0  0  0
  1  2  1  0
  1  5  1  0
  1 13  1  0
  2  3  1  0
  2  6  1  0
  2  7  1  0
  3  4  3  0
  8  9  1  0
  9 10  2  0
  9 12  1  0
 10 11  2  0
M  RAD  1   8   2
M  END
>  <reaction>  (5) 
rxn_3226

>  <mol_properties>  (5) 
{"0": {"label": "*3", "atom_type": "N3s"}, "1": {"label": "*4", "atom_type": "Cs"}, "8": {"label": "*0", "atom_type": "CO"}, "9": {"label": "*1", "atom_type": "CO"}, "12": {"label": "*2", "atom_type": "H0"}}

>  <type>  (5) 
unop_1

>  <geom_source>  (5) 
Heuristics

$$$$

     RDKit          3D

 13 11  0  0  0  0  0  0  0  0999 V2000
   -0.0221    1.7137    0.2643 N   0  0  0  0  0  0  0  0  0  0  0  0
   -0.6981    1.4981   -0.9987 C   0  0  0  0  0  0  0  0  0  0  0  0
    0.1010    0.7994   -2.0237 C   0  0  0  0  0  0  0  0  0  0  0  0
    0.7554    0.2541   -2.7925 N   0  0  0  0  0  0  0  0  0  0  0  0
    0.8120    2.2706    0.1393 H   0  0  0  0  0  0  0  0  0  0  0  0
   -1.0100    2.4583   -1.4124 H   0  0  0  0  0  0  0  0  0  0  0  0
   -1.6078    0.9197   -0.8298 H   0  0  0  0  0  0  0  0  0  0  0  0
   -0.0221   -1.7022   -0.3197 O   0  0  0  0  0  1  0  0  0  0  0  0
   -0.0221   -1.7022    0.8764 C   0  0  0  0  0  0  0  0  0  0  0  0
   -0.0221   -0.4012    1.6721 C   0  0  0  0  0  0  0  0  0  0  0  0
   -0.0221   -0.4012    2.8682 O   0  0  0  0  0  0  0  0  0  0  0  0
   -0.0221   -2.6232    1.4895 H   0  0  0  0  0  0  0  0  0  0  0  0
   -0.0221    0.7040    0.9364 H   0  0  0  0  0  0  0  0  0  0  0  0
  1  2  1  0
  1  5  1  0
  1 13  1  0
  2  3  1  0
  2  6  1  0
  2  7  1  0
  3  4  3  0
  8  9  1  0
  9 10  2  0
  9 12  1  0
 10 11  2  0
M  RAD  1   8   2
M  END
>  <reaction>  (6) 
rxn_3226

>  <mol_properties>  (6) 
{"0": {"label": "*3", "atom_type": "N3s"}, "1": {"label": "*4", "atom_type": "Cs"}, "8": {"label": "*0", "atom_type": "CO"}, "9": {"label": "*1", "atom_type": "CO"}, "12": {"label": "*2", "atom_type": "H0"}}

>  <type>  (6) 
unop_2

>  <geom_source>  (6) 
Heuristics

$$$$

     RDKit          3D

 13 11  0  0  0  0  0  0  0  0999 V2000
    0.7055    0.9932   -0.6629 N   0  0  0  0  0  0  0  0  0  0  0  0
    0.0296    2.0751    0.0234 C   0  0  0  0  0  0  0  0  0  0  0  0
   -1.4142    2.1890   -0.2594 C   0  0  0  0  0  0  0  0  0  0  0  0
   -2.5336    2.2432   -0.5057 N   0  0  0  0  0  0  0  0  0  0  0  0
    0.6289    1.0952   -1.6655 H   0  0  0  0  0  0  0  0  0  0  0  0
    0.4997    3.0234   -0.2415 H   0  0  0  0  0  0  0  0  0  0  0  0
    0.1526    1.9551    1.1009 H   0  0  0  0  0  0  0  0  0  0  0  0
    0.7055   -2.4226   -1.2469 O   0  0  0  0  0  1  0  0  0  0  0  0
    0.7055   -2.4226   -0.0508 C   0  0  0  0  0  0  0  0  0  0  0  0
    0.7055   -1.1217    0.7449 C   0  0  0  0  0  0  0  0  0  0  0  0
    0.7055   -1.1217    1.9410 O   0  0  0  0  0  0  0  0  0  0  0  0
    0.7055   -3.3437    0.5623 H   0  0  0  0  0  0  0  0  0  0  0  0
    0.7055   -0.0164    0.0092 H   0  0  0  0  0  0  0  0  0  0  0  0
  1  2  1  0
  1  5  1  0
  1 13  1  0
  2  3  1  0
  2  6  1  0
  2  7  1  0
  3  4  3  0
  8  9  1  0
  9 10  2  0
  9 12  1  0
 10 11  2  0
M  RAD  1   8   2
M  END
>  <reaction>  (7) 
rxn_3226

>  <mol_properties>  (7) 
{"0": {"label": "*3", "atom_type": "N3s"}, "1": {"label": "*4", "atom_type": "Cs"}, "8": {"label": "*0", "atom_type": "CO"}, "9": {"label": "*1", "atom_type": "CO"}, "12": {"label": "*2", "atom_type": "H0"}}

>  <type>  (7) 
unop_3

>  <geom_source>  (7) 
Heuristics

$$$$

     RDKit          3D

 13 11  0  0  0  0  0  0  0  0999 V2000
   -0.7973    1.6297   -0.3822 N   0  0  0  0  0  0  0  0  0  0  0  0
    0.3735    1.6883   -1.2332 C   0  0  0  0  0  0  0  0  0  0  0  0
    1.5486    0.9505   -0.7310 C   0  0  0  0  0  0  0  0  0  0  0  0
    2.4390    0.3651   -0.3056 N   0  0  0  0  0  0  0  0  0  0  0  0
   -0.6014    2.0141    0.5318 H   0  0  0  0  0  0  0  0  0  0  0  0
    0.6666    2.7295   -1.3769 H   0  0  0  0  0  0  0  0  0  0  0  0
    0.1256    1.2941   -2.2199 H   0  0  0  0  0  0  0  0  0  0  0  0
   -0.7973   -1.7861   -0.9662 O   0  0  0  0  0  1  0  0  0  0  0  0
   -0.7973   -1.7861    0.2299 C   0  0  0  0  0  0  0  0  0  0  0  0
   -0.7973   -0.4851    1.0256 C   0  0  0  0  0  0  0  0  0  0  0  0
   -0.7973   -0.4851    2.2217 O   0  0  0  0  0  0  0  0  0  0  0  0
   -0.7973   -2.7071    0.8430 H   0  0  0  0  0  0  0  0  0  0  0  0
   -0.7973    0.6201    0.2899 H   0  0  0  0  0  0  0  0  0  0  0  0
  1  2  1  0
  1  5  1  0
  1 13  1  0
  2  3  1  0
  2  6  1  0
  2  7  1  0
  3  4  3  0
  8  9  1  0
  9 10  2  0
  9 12  1  0
 10 11  2  0
M  RAD  1   8   2
M  END
>  <reaction>  (8) 
rxn_3226

>  <mol_properties>  (8) 
{"0": {"label": "*3", "atom_type": "N3s"}, "1": {"label": "*4", "atom_type": "Cs"}, "8": {"label": "*0", "atom_type": "CO"}, "9": {"label": "*1", "atom_type": "CO"}, "12": {"label": "*2", "atom_type": "H0"}}

>  <type>  (8) 
unop_4

>  <geom_source>  (8) 
Heuristics

$$$$

     RDKit          3D

 13 11  0  0  0  0  0  0  0  0999 V2000
    0.3783    0.9557   -1.1025 N   0  0  0  0  0  0  0  0  0  0  0  0
    0.3783    2.1380   -0.2655 C   0  0  0  0  0  0  0  0  0  0  0  0
   -0.7782    2.2604    0.6428 C   0  0  0  0  0  0  0  0  0  0  0  0
   -1.6927    2.3181    1.3334 N   0  0  0  0  0  0  0  0  0  0  0  0
   -0.4404    0.9301   -1.6947 H   0  0  0  0  0  0  0  0  0  0  0  0
    0.4071    3.0288   -0.8949 H   0  0  0  0  0  0  0  0  0  0  0  0
    1.2852    2.1538    0.3410 H   0  0  0  0  0  0  0  0  0  0  0  0
    0.3783   -2.4601   -1.6866 O   0  0  0  0  0  1  0  0  0  0  0  0
    0.3783   -2.4601   -0.4904 C   0  0  0  0  0  0  0  0  0  0  0  0
    0.3783   -1.1592    0.3053 C   0  0  0  0  0  0  0  0  0  0  0  0
    0.3783   -1.1592    1.5014 O   0  0  0  0  0  0  0  0  0  0  0  0
    0.3783   -3.3812    0.1227 H   0  0  0  0  0  0  0  0  0  0  0  0
    0.3783   -0.0540   -0.4304 H   0  0  0  0  0  0  0  0  0  0  0  0
  1  2  1  0
  1  5  1  0
  1 13  1  0
  2  3  1  0
  2  6  1  0
  2  7  1  0
  3  4  3  0
  8  9  1  0
  9 10  2  0
  9 12  1  0
 10 11  2  0
M  RAD  1   8   2
M  END
>  <reaction>  (9) 
rxn_3226

>  <mol_properties>  (9) 
{"0": {"label": "*3", "atom_type": "N3s"}, "1": {"label": "*4", "atom_type": "Cs"}, "8": {"label": "*0", "atom_type": "CO"}, "9": {"label": "*1", "atom_type": "CO"}, "12": {"label": "*2", "atom_type": "H0"}}

>  <type>  (9) 
unop_5

>  <geom_source>  (9) 
Heuristics

$$$$

     RDKit          3D

 13 11  0  0  0  0  0  0  0  0999 V2000
   -0.8141    1.4413   -0.7058 N   0  0  0  0  0  0  0  0  0  0  0  0
    0.5378    1.8744   -0.9942 C   0  0  0  0  0  0  0  0  0  0  0  0
    1.5764    1.3102   -0.1108 C   0  0  0  0  0  0  0  0  0  0  0  0
    2.3530    0.8497    0.5973 N   0  0  0  0  0  0  0  0  0  0  0  0
   -1.0844    1.6963    0.2341 H   0  0  0  0  0  0  0  0  0  0  0  0
    0.5932    2.9620   -0.9262 H   0  0  0  0  0  0  0  0  0  0  0  0
    0.7920    1.6119   -2.0223 H   0  0  0  0  0  0  0  0  0  0  0  0
   -0.8141   -1.9745   -1.2899 O   0  0  0  0  0  1  0  0  0  0  0  0
   -0.8141   -1.9745   -0.0938 C   0  0  0  0  0  0  0  0  0  0  0  0
   -0.8141   -0.6736    0.7020 C   0  0  0  0  0  0  0  0  0  0  0  0
   -0.8141   -0.6736    1.8981 O   0  0  0  0  0  0  0  0  0  0  0  0
   -0.8141   -2.8956    0.5193 H   0  0  0  0  0  0  0  0  0  0  0  0
   -0.8141    0.4316   -0.0338 H   0  0  0  0  0  0  0  0  0  0  0  0
  1  2  1  0
  1  5  1  0
  1 13  1  0
  2  3  1  0
  2  6  1  0
  2  7  1  0
  3  4  3  0
  8  9  1  0
  9 10  2  0
  9 12  1  0
 10 11  2  0
M  RAD  1   8   2
M  END
>  <reaction>  (10) 
rxn_3226

>  <mol_properties>  (10) 
{"0": {"label": "*3", "atom_type": "N3s"}, "1": {"label": "*4", "atom_type": "Cs"}, "8": {"label": "*0", "atom_type": "CO"}, "9": {"label": "*1", "atom_type": "CO"}, "12": {"label": "*2", "atom_type": "H0"}}

>  <type>  (10) 
unop_6

>  <geom_source>  (10) 
Heuristics

$$$$

     RDKit          3D

 13 11  0  0  0  0  0  0  0  0999 V2000
   -0.6367    1.2306   -1.0258 N   0  0  0  0  0  0  0  0  0  0  0  0
    0.5341    2.0383   -0.7514 C   0  0  0  0  0  0  0  0  0  0  0  0
    1.2332    1.7177    0.5079 C   0  0  0  0  0  0  0  0  0  0  0  0
    1.7473    1.4374    1.4947 N   0  0  0  0  0  0  0  0  0  0  0  0
   -1.3271    1.3318   -0.2945 H   0  0  0  0  0  0  0  0  0  0  0  0
    0.2498    3.0912   -0.7193 H   0  0  0  0  0  0  0  0  0  0  0  0
    1.2487    1.9319   -1.5691 H   0  0  0  0  0  0  0  0  0  0  0  0
   -0.6367   -2.1852   -1.6098 O   0  0  0  0  0  1  0  0  0  0  0  0
   -0.6367   -2.1852   -0.4137 C   0  0  0  0  0  0  0  0  0  0  0  0
   -0.6367   -0.8843    0.3820 C   0  0  0  0  0  0  0  0  0  0  0  0
   -0.6367   -0.8843    1.5782 O   0  0  0  0  0  0  0  0  0  0  0  0
   -0.6367   -3.1062    0.1994 H   0  0  0  0  0  0  0  0  0  0  0  0
   -0.6367    0.2210   -0.3537 H   0  0  0  0  0  0  0  0  0  0  0  0
  1  2  1  0
  1  5  1  0
  1 13  1  0
  2  3  1  0
  2  6  1  0
  2  7  1  0
  3  4  3  0
  8  9  1  0
  9 10  2  0
  9 12  1  0
 10 11  2  0
M  RAD  1   8   2
M  END
>  <reaction>  (11) 
rxn_3226

>  <mol_properties>  (11) 
{"0": {"label": "*3", "atom_type": "N3s"}, "1": {"label": "*4", "atom_type": "Cs"}, "8": {"label": "*0", "atom_type": "CO"}, "9": {"label": "*1", "atom_type": "CO"}, "12": {"label": "*2", "atom_type": "H0"}}

>  <type>  (11) 
unop_7

>  <geom_source>  (11) 
Heuristics

$$$$

     RDKit          3D

 13 11  0  0  0  0  0  0  0  0999 V2000
    0.6342    1.3663    0.0252 N   0  0  0  0  0  0  0  0  0  0  0  0
   -0.7177    1.7995   -0.2632 C   0  0  0  0  0  0  0  0  0  0  0  0
   -1.2063    1.4645   -1.6146 C   0  0  0  0  0  0  0  0  0  0  0  0
   -1.5479    1.1852   -2.6738 N   0  0  0  0  0  0  0  0  0  0  0  0
    1.2939    1.7836   -0.6169 H   0  0  0  0  0  0  0  0  0  0  0  0
   -0.7869    2.8813   -0.1394 H   0  0  0  0  0  0  0  0  0  0  0  0
   -1.4033    1.3572    0.4613 H   0  0  0  0  0  0  0  0  0  0  0  0
    0.6342   -2.0495   -0.5588 O   0  0  0  0  0  1  0  0  0  0  0  0
    0.6342   -2.0495    0.6373 C   0  0  0  0  0  0  0  0  0  0  0  0
    0.6342   -0.7485    1.4330 C   0  0  0  0  0  0  0  0  0  0  0  0
    0.6342   -0.7485    2.6291 O   0  0  0  0  0  0  0  0  0  0  0  0
    0.6342   -2.9705    1.2504 H   0  0  0  0  0  0  0  0  0  0  0  0
    0.6342    0.3567    0.6973 H   0  0  0  0  0  0  0  0  0  0  0  0
  1  2  1  0
  1  5  1  0
  1 13  1  0
  2  3  1  0
  2  6  1  0
  2  7  1  0
  3  4  3  0
  8  9  1  0
  9 10  2  0
  9 12  1  0
 10 11  2  0
M  RAD  1   8   2
M  END
>  <reaction>  (12) 
rxn_3226

>  <mol_properties>  (12) 
{"0": {"label": "*3", "atom_type": "N3s"}, "1": {"label": "*4", "atom_type": "Cs"}, "8": {"label": "*0", "atom_type": "CO"}, "9": {"label": "*1", "atom_type": "CO"}, "12": {"label": "*2", "atom_type": "H0"}}

>  <type>  (12) 
unop_8

>  <geom_source>  (12) 
Heuristics

$$$$

     RDKit          3D

 13 11  0  0  0  0  0  0  0  0999 V2000
   -0.6415    1.7507   -0.0972 N   0  0  0  0  0  0  0  0  0  0  0  0
    0.0345    1.5351   -1.3601 C   0  0  0  0  0  0  0  0  0  0  0  0
    1.2640    0.7232   -1.2801 C   0  0  0  0  0  0  0  0  0  0  0  0
    2.2140    0.0882   -1.1749 N   0  0  0  0  0  0  0  0  0  0  0  0
   -0.0395    2.2274    0.5601 H   0  0  0  0  0  0  0  0  0  0  0  0
    0.2958    2.4982   -1.8015 H   0  0  0  0  0  0  0  0  0  0  0  0
   -0.6467    1.0457   -2.0580 H   0  0  0  0  0  0  0  0  0  0  0  0
   -0.6415   -1.6651   -0.6812 O   0  0  0  0  0  1  0  0  0  0  0  0
   -0.6415   -1.6651    0.5149 C   0  0  0  0  0  0  0  0  0  0  0  0
   -0.6415   -0.3641    1.3106 C   0  0  0  0  0  0  0  0  0  0  0  0
   -0.6415   -0.3641    2.5067 O   0  0  0  0  0  0  0  0  0  0  0  0
   -0.6415   -2.5861    1.1280 H   0  0  0  0  0  0  0  0  0  0  0  0
   -0.6415    0.7411    0.5749 H   0  0  0  0  0  0  0  0  0  0  0  0
  1  2  1  0
  1  5  1  0
  1 13  1  0
  2  3  1  0
  2  6  1  0
  2  7  1  0
  3  4  3  0
  8  9  1  0
  9 10  2  0
  9 12  1  0
 10 11  2  0
M  RAD  1   8   2
M  END
>  <reaction>  (13) 
rxn_3226

>  <mol_properties>  (13) 
{"0": {"label": "*3", "atom_type": "N3s"}, "1": {"label": "*4", "atom_type": "Cs"}, "8": {"label": "*0", "atom_type": "CO"}, "9": {"label": "*1", "atom_type": "CO"}, "12": {"label": "*2", "atom_type": "H0"}}

>  <type>  (13) 
unop_9

>  <geom_source>  (13) 
Heuristics

$$$$

     RDKit          3D

 13 11  0  0  0  0  0  0  0  0999 V2000
    0.3519    1.5674    0.2262 N   0  0  0  0  0  0  0  0  0  0  0  0
   -0.8189    1.6260   -0.6248 C   0  0  0  0  0  0  0  0  0  0  0  0
   -0.6324    1.0788   -1.9825 C   0  0  0  0  0  0  0  0  0  0  0  0
   -0.4462    0.6443   -3.0280 N   0  0  0  0  0  0  0  0  0  0  0  0
    1.1198    2.0867   -0.1764 H   0  0  0  0  0  0  0  0  0  0  0  0
   -1.1459    2.6623   -0.7221 H   0  0  0  0  0  0  0  0  0  0  0  0
   -1.6387    1.0821   -0.1530 H   0  0  0  0  0  0  0  0  0  0  0  0
    0.3519   -1.8485   -0.3578 O   0  0  0  0  0  1  0  0  0  0  0  0
    0.3519   -1.8485    0.8383 C   0  0  0  0  0  0  0  0  0  0  0  0
    0.3519   -0.5475    1.6340 C   0  0  0  0  0  0  0  0  0  0  0  0
    0.3519   -0.5475    2.8301 O   0  0  0  0  0  0  0  0  0  0  0  0
    0.3519   -2.7695    1.4514 H   0  0  0  0  0  0  0  0  0  0  0  0
    0.3519    0.5577    0.8983 H   0  0  0  0  0  0  0  0  0  0  0  0
  1  2  1  0
  1  5  1  0
  1 13  1  0
  2  3  1  0
  2  6  1  0
  2  7  1  0
  3  4  3  0
  8  9  1  0
  9 10  2  0
  9 12  1  0
 10 11  2  0
M  RAD  1   8   2
M  END
>  <reaction>  (14) 
rxn_3226

>  <mol_properties>  (14) 
{"0": {"label": "*3", "atom_type": "N3s"}, "1": {"label": "*4", "atom_type": "Cs"}, "8": {"label": "*0", "atom_type": "CO"}, "9": {"label": "*1", "atom_type": "CO"}, "12": {"label": "*2", "atom_type": "H0"}}

>  <type>  (14) 
unop_10

>  <geom_source>  (14) 
Heuristics

$$$$

     RDKit          3D

 13 11  0  0  0  0  0  0  0  0999 V2000
   -0.2166    1.0521   -1.2373 N   0  0  0  0  0  0  0  0  0  0  0  0
    0.4593    2.1340   -0.5510 C   0  0  0  0  0  0  0  0  0  0  0  0
    0.4086    2.0678    0.9222 C   0  0  0  0  0  0  0  0  0  0  0  0
    0.3460    1.9796    2.0646 N   0  0  0  0  0  0  0  0  0  0  0  0
   -1.1980    1.0266   -0.9969 H   0  0  0  0  0  0  0  0  0  0  0  0
    0.0265    3.0868   -0.8597 H   0  0  0  0  0  0  0  0  0  0  0  0
    1.5083    2.1552   -0.8506 H   0  0  0  0  0  0  0  0  0  0  0  0
   -0.2166   -2.3637   -1.8213 O   0  0  0  0  0  1  0  0  0  0  0  0
   -0.2166   -2.3637   -0.6252 C   0  0  0  0  0  0  0  0  0  0  0  0
   -0.2166   -1.0628    0.1705 C   0  0  0  0  0  0  0  0  0  0  0  0
   -0.2166   -1.0628    1.3666 O   0  0  0  0  0  0  0  0  0  0  0  0
   -0.2166   -3.2848   -0.0121 H   0  0  0  0  0  0  0  0  0  0  0  0
   -0.2166    0.0425   -0.5652 H   0  0  0  0  0  0  0  0  0  0  0  0
  1  2  1  0
  1  5  1  0
  1 13  1  0
  2  3  1  0
  2  6  1  0
  2  7  1  0
  3  4  3  0
  8  9  1  0
  9 10  2  0
  9 12  1  0
 10 11  2  0
M  RAD  1   8   2
M  END
>  <reaction>  (15) 
rxn_3226

>  <mol_properties>  (15) 
{"0": {"label": "*3", "atom_type": "N3s"}, "1": {"label": "*4", "atom_type": "Cs"}, "8": {"label": "*0", "atom_type": "CO"}, "9": {"label": "*1", "atom_type": "CO"}, "12": {"label": "*2", "atom_type": "H0"}}

>  <type>  (15) 
unop_11

>  <geom_source>  (15) 
Heuristics

$$$$

     RDKit          3D

 13 11  0  0  0  0  0  0  0  0999 V2000
   -0.3783    1.7793    0.1347 N   0  0  0  0  0  0  0  0  0  0  0  0
   -0.3783    1.4633   -1.2790 C   0  0  0  0  0  0  0  0  0  0  0  0
    0.7782    0.6726   -1.7425 C   0  0  0  0  0  0  0  0  0  0  0  0
    1.6927    0.0578   -2.0622 N   0  0  0  0  0  0  0  0  0  0  0  0
    0.4404    2.3157    0.3868 H   0  0  0  0  0  0  0  0  0  0  0  0
   -0.4071    2.3877   -1.8580 H   0  0  0  0  0  0  0  0  0  0  0  0
   -1.2852    0.9099   -1.5277 H   0  0  0  0  0  0  0  0  0  0  0  0
   -0.3783   -1.6365   -0.4493 O   0  0  0  0  0  1  0  0  0  0  0  0
   -0.3783   -1.6365    0.7468 C   0  0  0  0  0  0  0  0  0  0  0  0
   -0.3783   -0.3356    1.5425 C   0  0  0  0  0  0  0  0  0  0  0  0
   -0.3783   -0.3356    2.7386 O   0  0  0  0  0  0  0  0  0  0  0  0
   -0.3783   -2.5576    1.3599 H   0  0  0  0  0  0  0  0  0  0  0  0
   -0.3783    0.7696    0.8068 H   0  0  0  0  0  0  0  0  0  0  0  0
  1  2  1  0
  1  5  1  0
  1 13  1  0
  2  3  1  0
  2  6  1  0
  2  7  1  0
  3  4  3  0
  8  9  1  0
  9 10  2  0
  9 12  1  0
 10 11  2  0
M  RAD  1   8   2
M  END
>  <reaction>  (16) 
rxn_3226

>  <mol_properties>  (16) 
{"0": {"label": "*3", "atom_type": "N3s"}, "1": {"label": "*4", "atom_type": "Cs"}, "8": {"label": "*0", "atom_type": "CO"}, "9": {"label": "*1", "atom_type": "CO"}, "12": {"label": "*2", "atom_type": "H0"}}

>  <type>  (16) 
unop_12

>  <geom_source>  (16) 
Heuristics

$$$$

     RDKit          3D

 13 11  0  0  0  0  0  0  0  0999 V2000
   -0.0221    1.7137    0.2643 N   0  0  0  0  0  0  0  0  0  0  0  0
   -0.6981    1.4981   -0.9987 C   0  0  0  0  0  0  0  0  0  0  0  0
    0.1011    0.7994   -2.0237 C   0  0  0  0  0  0  0  0  0  0  0  0
    0.7554    0.2541   -2.7925 N   0  0  0  0  0  0  0  0  0  0  0  0
    0.8120    2.2706    0.1393 H   0  0  0  0  0  0  0  0  0  0  0  0
   -1.0100    2.4583   -1.4124 H   0  0  0  0  0  0  0  0  0  0  0  0
   -1.6078    0.9197   -0.8298 H   0  0  0  0  0  0  0  0  0  0  0  0
   -0.0221   -1.7022   -0.3197 O   0  0  0  0  0  1  0  0  0  0  0  0
   -0.0221   -1.7022    0.8764 C   0  0  0  0  0  0  0  0  0  0  0  0
   -0.0221   -0.4012    1.6721 C   0  0  0  0  0  0  0  0  0  0  0  0
   -0.0221   -0.4012    2.8682 O   0  0  0  0  0  0  0  0  0  0  0  0
   -0.0221   -2.6232    1.4895 H   0  0  0  0  0  0  0  0  0  0  0  0
   -0.0221    0.7040    0.9364 H   0  0  0  0  0  0  0  0  0  0  0  0
  1  2  1  0
  1  5  1  0
  1 13  1  0
  2  3  1  0
  2  6  1  0
  2  7  1  0
  3  4  3  0
  8  9  1  0
  9 10  2  0
  9 12  1  0
 10 11  2  0
M  RAD  1   8   2
M  END
>  <reaction>  (17) 
rxn_3226

>  <mol_properties>  (17) 
{"0": {"label": "*3", "atom_type": "N3s"}, "1": {"label": "*4", "atom_type": "Cs"}, "8": {"label": "*0", "atom_type": "CO"}, "9": {"label": "*1", "atom_type": "CO"}, "12": {"label": "*2", "atom_type": "H0"}}

>  <type>  (17) 
unop_13

>  <geom_source>  (17) 
gaussian_log

$$$$
