
     RDKit          3D

 22 23  0  0  0  0  0  0  0  0999 V2000
   -2.1093   -0.3263    0.3079 C   0  0  0  0  0  0  0  0  0  0  0  0
   -1.3270    0.9803    0.4115 C   0  0  0  0  0  0  0  0  0  0  0  0
   -0.1818    0.8289   -0.6044 C   0  0  0  0  0  0  0  0  0  0  0  0
    1.1682    1.3904   -0.1341 C   0  0  0  0  0  0  0  0  0  0  0  0
    1.8508    0.2041    0.5479 C   0  0  0  0  0  0  0  0  0  0  0  0
    1.4982   -0.9663   -0.3710 C   0  0  0  0  0  0  0  0  0  0  0  0
    0.0340   -0.7124   -0.7594 C   0  0  0  0  0  0  0  0  0  0  0  0
   -0.9986   -1.3650    0.1756 C   0  0  0  0  0  0  0  0  0  0  0  0
   -2.7686   -0.5042    1.1589 H   0  0  0  0  0  0  0  0  0  0  0  0
   -2.7285   -0.3223   -0.5943 H   0  0  0  0  0  0  0  0  0  0  0  0
   -1.9339    1.8682    0.2289 H   0  0  0  0  0  0  0  0  0  0  0  0
   -0.9144    1.0729    1.4218 H   0  0  0  0  0  0  0  0  0  0  0  0
   -0.4804    1.2763   -1.5535 H   0  0  0  0  0  0  0  0  0  0  0  0
    1.7667    1.7058   -0.9931 H   0  0  0  0  0  0  0  0  0  0  0  0
    1.0540    2.2578    0.5189 H   0  0  0  0  0  0  0  0  0  0  0  0
    1.4197    0.0438    1.5410 H   0  0  0  0  0  0  0  0  0  0  0  0
    2.9248    0.3413    0.6788 H   0  0  0  0  0  0  0  0  0  0  0  0
    2.1362   -0.9329   -1.2584 H   0  0  0  0  0  0  0  0  0  0  0  0
    1.6421   -1.9421    0.0966 H   0  0  0  0  0  0  0  0  0  0  0  0
   -0.1575   -1.0299   -1.7854 H   0  0  0  0  0  0  0  0  0  0  0  0
   -1.3459   -2.3310   -0.1933 H   0  0  0  0  0  0  0  0  0  0  0  0
   -0.5489   -1.5373    1.1593 H   0  0  0  0  0  0  0  0  0  0  0  0
  1  2  1  0
  1  8  1  0
  1  9  1  0
  1 10  1  0
  2  3  1  0
  2 11  1  0
  2 12  1  0
  3  4  1  0
  3  7  1  0
  3 13  1  0
  4  5  1  0
  4 14  1  0
  4 15  1  0
  5  6  1  0
  5 16  1  0
  5 17  1  0
  6  7  1  0
  6 18  1  0
  6 19  1  0
  7  8  1  0
  7 20  1  0
  8 21  1  0
  8 22  1  0
M  END
>  <reaction>  (1) 
rxn_563

>  <mol_properties>  (1) 
{"2": {"label": "donator", "atom_type": "Cs"}, "12": {"label": "d_hydrogen", "atom_type": "H0"}}

>  <type>  (1) 
r1h

$$$$

     RDKit          3D

 15 14  0  0  0  0  0  0  0  0999 V2000
    2.4381    0.5770   -0.2356 C   0  0  0  0  0  0  0  0  0  0  0  0
    1.4430   -0.3367   -0.1409 C   0  0  0  0  0  0  0  0  0  0  0  0
    0.0521   -0.0957   -0.0045 C   0  0  0  0  0  3  0  0  0  0  0  0
   -0.5167    1.2867    0.0548 C   0  0  0  0  0  0  0  0  0  0  0  0
   -0.8226   -1.2147    0.0778 C   0  0  0  0  0  0  0  0  0  0  0  0
   -2.1666   -1.1669    0.2092 C   0  0  0  0  0  0  0  0  0  0  0  0
    3.4666    0.2585   -0.3369 H   0  0  0  0  0  0  0  0  0  0  0  0
    2.2594    1.6438   -0.2152 H   0  0  0  0  0  0  0  0  0  0  0  0
    1.7306   -1.3845   -0.1719 H   0  0  0  0  0  0  0  0  0  0  0  0
   -1.2300    1.4469   -0.7583 H   0  0  0  0  0  0  0  0  0  0  0  0
    0.2481    2.0557   -0.0178 H   0  0  0  0  0  0  0  0  0  0  0  0
   -1.0592    1.4421    0.9914 H   0  0  0  0  0  0  0  0  0  0  0  0
   -0.3519   -2.1929    0.0292 H   0  0  0  0  0  0  0  0  0  0  0  0
   -2.7080   -0.2310    0.2646 H   0  0  0  0  0  0  0  0  0  0  0  0
   -2.7513   -2.0751    0.2638 H   0  0  0  0  0  0  0  0  0  0  0  0
  1  2  2  3
  1  7  1  0
  1  8  1  0
  2  3  1  0
  2  9  1  0
  3  4  1  0
  3  5  1  0
  4 10  1  0
  4 11  1  0
  4 12  1  0
  5  6  2  3
  5 13  1  0
  6 14  1  0
  6 15  1  0
M  RAD  1   3   2
M  END
>  <reaction>  (2) 
rxn_563

>  <mol_properties>  (2) 
{"2": {"label": "acceptor", "atom_type": "Cs"}}

>  <type>  (2) 
r2

$$$$

     RDKit          3D

 16 15  0  0  0  0  0  0  0  0999 V2000
    1.7961   -0.3807    1.6176 C   0  0  0  0  0  0  0  0  0  0  0  0
    0.8562   -0.8708    0.8256 C   0  0  0  0  0  0  0  0  0  0  0  0
    0.0895   -0.0826   -0.2048 C   0  0  0  0  0  0  0  0  0  0  0  0
   -1.4061   -0.1111    0.0982 C   0  0  0  0  0  0  0  0  0  0  0  0
    0.4476   -0.5902   -1.5797 C   0  0  0  0  0  0  0  0  0  0  0  0
   -0.3793   -1.1113   -2.4728 C   0  0  0  0  0  0  0  0  0  0  0  0
    2.3110   -1.0032    2.3386 H   0  0  0  0  0  0  0  0  0  0  0  0
    2.0846    0.6643    1.5737 H   0  0  0  0  0  0  0  0  0  0  0  0
    0.5921   -1.9241    0.8925 H   0  0  0  0  0  0  0  0  0  0  0  0
    0.4358    0.9557   -0.1462 H   0  0  0  0  0  0  0  0  0  0  0  0
   -1.5968    0.3080    1.0865 H   0  0  0  0  0  0  0  0  0  0  0  0
   -1.9674    0.4693   -0.6359 H   0  0  0  0  0  0  0  0  0  0  0  0
   -1.7902   -1.1338    0.0883 H   0  0  0  0  0  0  0  0  0  0  0  0
    1.5049   -0.5197   -1.8214 H   0  0  0  0  0  0  0  0  0  0  0  0
   -1.4421   -1.2131   -2.2889 H   0  0  0  0  0  0  0  0  0  0  0  0
   -0.0162   -1.4558   -3.4328 H   0  0  0  0  0  0  0  0  0  0  0  0
  1  2  2  3
  1  7  1  0
  1  8  1  0
  2  3  1  0
  2  9  1  0
  3  4  1  0
  3  5  1  0
  3 10  1  0
  4 11  1  0
  4 12  1  0
  4 13  1  0
  5  6  2  3
  5 14  1  0
  6 15  1  0
  6 16  1  0
M  END
>  <reaction>  (3) 
rxn_563

>  <mol_properties>  (3) 
{"2": {"label": "acceptor", "atom_type": "Cs"}, "15": {"label": "a_hydrogen", "atom_type": "H0"}}

>  <type>  (3) 
r2h

$$$$

     RDKit          3D

 37 37  0  0  0  0  0  0  0  0999 V2000
   -1.9227   -2.7973   -0.9743 C   0  0  0  0  0  0  0  0  0  0  0  0
   -1.8936   -1.4748   -0.8409 C   0  0  0  0  0  0  0  0  0  0  0  0
   -1.6428   -0.7058    0.4007 C   0  0  0  0  0  0  0  0  0  0  0  0
   -1.5966   -1.5018    1.6860 C   0  0  0  0  0  0  0  0  0  0  0  0
   -2.3885    0.5736    0.4454 C   0  0  0  0  0  0  0  0  0  0  0  0
   -2.8670    1.1873    1.5239 C   0  0  0  0  0  0  0  0  0  0  0  0
   -2.0848   -3.2535   -1.9422 H   0  0  0  0  0  0  0  0  0  0  0  0
   -1.7998   -3.4683   -0.1331 H   0  0  0  0  0  0  0  0  0  0  0  0
   -2.0369   -0.8672   -1.7319 H   0  0  0  0  0  0  0  0  0  0  0  0
   -1.2514   -0.8815    2.5138 H   0  0  0  0  0  0  0  0  0  0  0  0
   -0.9023   -2.3384    1.5983 H   0  0  0  0  0  0  0  0  0  0  0  0
   -2.5812   -1.9005    1.9447 H   0  0  0  0  0  0  0  0  0  0  0  0
   -2.5200    1.0591   -0.5192 H   0  0  0  0  0  0  0  0  0  0  0  0
   -2.7868    0.7627    2.5171 H   0  0  0  0  0  0  0  0  0  0  0  0
   -3.3720    2.1408    1.4407 H   0  0  0  0  0  0  0  0  0  0  0  0
    1.8609   -0.9681   -1.7678 C   0  0  0  0  0  0  0  0  0  0  0  0
    1.7056   -1.1304   -0.2513 C   0  0  0  0  0  0  0  0  0  0  0  0
    0.9396    0.1015    0.1743 C   0  0  0  0  0  3  0  0  0  0  0  0
    1.2422    0.8270    1.4628 C   0  0  0  0  0  0  0  0  0  0  0  0
    1.9958    2.0796    0.9889 C   0  0  0  0  0  0  0  0  0  0  0  0
    1.2740    2.4596   -0.3085 C   0  0  0  0  0  0  0  0  0  0  0  0
    0.9426    1.1131   -0.9697 C   0  0  0  0  0  0  0  0  0  0  0  0
    1.9801    0.5455   -1.9502 C   0  0  0  0  0  0  0  0  0  0  0  0
    2.7091   -1.5209   -2.1729 H   0  0  0  0  0  0  0  0  0  0  0  0
    0.9584   -1.3317   -2.2668 H   0  0  0  0  0  0  0  0  0  0  0  0
    1.2059   -2.0627    0.0246 H   0  0  0  0  0  0  0  0  0  0  0  0
    2.6892   -1.1414    0.2357 H   0  0  0  0  0  0  0  0  0  0  0  0
   -0.4657   -0.3310    0.2604 H   0  0  0  0  0  0  0  0  0  0  0  0
    0.3133    1.1304    1.9592 H   0  0  0  0  0  0  0  0  0  0  0  0
    1.8093    0.2181    2.1688 H   0  0  0  0  0  0  0  0  0  0  0  0
    3.0371    1.8205    0.7758 H   0  0  0  0  0  0  0  0  0  0  0  0
    2.0024    2.8831    1.7264 H   0  0  0  0  0  0  0  0  0  0  0  0
    0.3499    2.9906   -0.0671 H   0  0  0  0  0  0  0  0  0  0  0  0
    1.8676    3.1090   -0.9541 H   0  0  0  0  0  0  0  0  0  0  0  0
   -0.0308    1.1541   -1.4718 H   0  0  0  0  0  0  0  0  0  0  0  0
    1.8172    0.8737   -2.9778 H   0  0  0  0  0  0  0  0  0  0  0  0
    2.9820    0.8743   -1.6538 H   0  0  0  0  0  0  0  0  0  0  0  0
  1  2  2  3
  1  7  1  0
  1  8  1  0
  2  3  1  0
  2  9  1  0
  3  4  1  0
  3  5  1  0
  3 28  1  0
  4 10  1  0
  4 11  1  0
  4 12  1  0
  5  6  2  3
  5 13  1  0
  6 14  1  0
  6 15  1  0
 16 23  1  0
 16 17  1  0
 16 24  1  0
 16 25  1  0
 17 18  1  0
 17 26  1  0
 17 27  1  0
 18 19  1  0
 18 22  1  0
 19 20  1  0
 19 29  1  0
 19 30  1  0
 20 21  1  0
 20 31  1  0
 20 32  1  0
 21 22  1  0
 21 33  1  0
 21 34  1  0
 22 23  1  0
 22 35  1  0
 23 36  1  0
 23 37  1  0
M  RAD  1  18   2
M  END
>  <reaction>  (4) 
rxn_563

>  <mol_properties>  (4) 
{"1": {"label": "*0", "atom_type": "Cd"}, "2": {"label": "*1", "atom_type": "Cs"}, "17": {"label": "*3", "atom_type": "Cs"}, "21": {"label": "*4", "atom_type": "Cs"}, "27": {"label": "*2", "atom_type": "H0"}}

>  <type>  (4) 
ts

$$$$

     RDKit          3D

 37 37  0  0  0  0  0  0  0  0999 V2000
   -1.1326   -0.5798    2.9567 C   0  0  0  0  0  0  0  0  0  0  0  0
   -1.9490   -0.5230    1.9169 C   0  0  0  0  0  0  0  0  0  0  0  0
   -1.5656   -0.8315    0.4926 C   0  0  0  0  0  3  0  0  0  0  0  0
   -1.7881    0.3857   -0.4008 C   0  0  0  0  0  0  0  0  0  0  0  0
   -2.3025   -2.0681    0.0410 C   0  0  0  0  0  0  0  0  0  0  0  0
   -3.1517   -2.1600   -0.9706 C   0  0  0  0  0  0  0  0  0  0  0  0
   -1.4727   -0.3456    3.9577 H   0  0  0  0  0  0  0  0  0  0  0  0
   -0.0912   -0.8624    2.8436 H   0  0  0  0  0  0  0  0  0  0  0  0
   -2.9887   -0.2388    2.0646 H   0  0  0  0  0  0  0  0  0  0  0  0
   -1.4995    0.1749   -1.4319 H   0  0  0  0  0  0  0  0  0  0  0  0
   -1.1946    1.2274   -0.0430 H   0  0  0  0  0  0  0  0  0  0  0  0
   -2.8373    0.6901   -0.3973 H   0  0  0  0  0  0  0  0  0  0  0  0
   -2.1033   -2.9520    0.6413 H   0  0  0  0  0  0  0  0  0  0  0  0
   -3.3950   -1.3139   -1.6020 H   0  0  0  0  0  0  0  0  0  0  0  0
   -3.6368   -3.0988   -1.2063 H   0  0  0  0  0  0  0  0  0  0  0  0
    1.7935   -0.9712   -1.8204 C   0  0  0  0  0  0  0  0  0  0  0  0
    1.7935   -0.9712   -0.2940 C   0  0  0  0  0  0  0  0  0  0  0  0
    0.8301    0.1635    0.0944 C   0  0  0  0  0  0  0  0  0  0  0  0
    1.2829    1.0021    1.2988 C   0  0  0  0  0  0  0  0  0  0  0  0
    2.0949    2.1403    0.6794 C   0  0  0  0  0  0  0  0  0  0  0  0
    1.2829    2.4999   -0.5655 C   0  0  0  0  0  0  0  0  0  0  0  0
    0.8301    1.1431   -1.1248 C   0  0  0  0  0  0  0  0  0  0  0  0
    1.7935    0.5194   -2.1493 C   0  0  0  0  0  0  0  0  0  0  0  0
    2.6383   -1.5094   -2.2528 H   0  0  0  0  0  0  0  0  0  0  0  0
    0.8776   -1.4380   -2.1955 H   0  0  0  0  0  0  0  0  0  0  0  0
    1.5092   -1.9296    0.1426 H   0  0  0  0  0  0  0  0  0  0  0  0
    2.8016   -0.7386    0.0653 H   0  0  0  0  0  0  0  0  0  0  0  0
   -0.3649   -0.3328    0.2930 H   0  0  0  0  0  0  0  0  0  0  0  0
    0.4151    1.4189    1.8172 H   0  0  0  0  0  0  0  0  0  0  0  0
    1.8460    0.4154    2.0271 H   0  0  0  0  0  0  0  0  0  0  0  0
    3.0860    1.7785    0.3887 H   0  0  0  0  0  0  0  0  0  0  0  0
    2.2428    2.9826    1.3562 H   0  0  0  0  0  0  0  0  0  0  0  0
    0.4151    3.0960   -0.2701 H   0  0  0  0  0  0  0  0  0  0  0  0
    1.8460    3.0847   -1.2953 H   0  0  0  0  0  0  0  0  0  0  0  0
   -0.1657    1.2157   -1.5644 H   0  0  0  0  0  0  0  0  0  0  0  0
    1.5092    0.7393   -3.1792 H   0  0  0  0  0  0  0  0  0  0  0  0
    2.8016    0.9203   -1.9996 H   0  0  0  0  0  0  0  0  0  0  0  0
  1  2  2  3
  1  7  1  0
  1  8  1  0
  2  3  1  0
  2  9  1  0
  3  4  1  0
  3  5  1  0
  4 10  1  0
  4 11  1  0
  4 12  1  0
  5  6  2  3
  5 13  1  0
  6 14  1  0
  6 15  1  0
 16 17  1  0
 16 23  1  0
 16 24  1  0
 16 25  1  0
 17 18  1  0
 17 26  1  0
 17 27  1  0
 18 19  1  0
 18 22  1  0
 18 28  1  0
 19 20  1  0
 19 29  1  0
 19 30  1  0
 20 21  1  0
 20 31  1  0
 20 32  1  0
 21 22  1  0
 21 33  1  0
 21 34  1  0
 22 23  1  0
 22 35  1  0
 23 36  1  0
 23 37  1  0
M  RAD  1   3   2
M  END
>  <reaction>  (5) 
rxn_563

>  <mol_properties>  (5) 
{"1": {"label": "*0", "atom_type": "Cd"}, "2": {"label": "*1", "atom_type": "Cs"}, "17": {"label": "*3", "atom_type": "Cs"}, "21": {"label": "*4", "atom_type": "Cs"}, "27": {"label": "*2", "atom_type": "H0"}}

>  <type>  (5) 
unop_1

>  <geom_source>  (5) 
Heuristics

$$$$

     RDKit          3D

 37 37  0  0  0  0  0  0  0  0999 V2000
   -0.3262   -2.8920    0.9018 C   0  0  0  0  0  0  0  0  0  0  0  0
   -1.4176   -2.1599    1.0559 C   0  0  0  0  0  0  0  0  0  0  0  0
   -1.5944   -0.7477    0.5608 C   0  0  0  0  0  3  0  0  0  0  0  0
   -1.8756    0.1997    1.7239 C   0  0  0  0  0  0  0  0  0  0  0  0
   -2.6525   -0.7316   -0.5145 C   0  0  0  0  0  0  0  0  0  0  0  0
   -3.7921   -0.0578   -0.4955 C   0  0  0  0  0  0  0  0  0  0  0  0
   -0.2641   -3.9038    1.2821 H   0  0  0  0  0  0  0  0  0  0  0  0
    0.5475   -2.5039    0.3888 H   0  0  0  0  0  0  0  0  0  0  0  0
   -2.2781   -2.5797    1.5726 H   0  0  0  0  0  0  0  0  0  0  0  0
   -1.9911    1.2273    1.3752 H   0  0  0  0  0  0  0  0  0  0  0  0
   -1.0536    0.1698    2.4394 H   0  0  0  0  0  0  0  0  0  0  0  0
   -2.7892   -0.0847    2.2511 H   0  0  0  0  0  0  0  0  0  0  0  0
   -2.4297   -1.3623   -1.3711 H   0  0  0  0  0  0  0  0  0  0  0  0
   -4.0731    0.5829    0.3316 H   0  0  0  0  0  0  0  0  0  0  0  0
   -4.4909   -0.1232   -1.3198 H   0  0  0  0  0  0  0  0  0  0  0  0
    1.7647   -0.8874   -1.7523 C   0  0  0  0  0  0  0  0  0  0  0  0
    1.7647   -0.8874   -0.2258 C   0  0  0  0  0  0  0  0  0  0  0  0
    0.8013    0.2473    0.1625 C   0  0  0  0  0  0  0  0  0  0  0  0
    1.2541    1.0859    1.3670 C   0  0  0  0  0  0  0  0  0  0  0  0
    2.0661    2.2241    0.7476 C   0  0  0  0  0  0  0  0  0  0  0  0
    1.2541    2.5837   -0.4973 C   0  0  0  0  0  0  0  0  0  0  0  0
    0.8013    1.2269   -1.0567 C   0  0  0  0  0  0  0  0  0  0  0  0
    1.7647    0.6032   -2.0811 C   0  0  0  0  0  0  0  0  0  0  0  0
    2.6095   -1.4256   -2.1847 H   0  0  0  0  0  0  0  0  0  0  0  0
    0.8488   -1.3543   -2.1273 H   0  0  0  0  0  0  0  0  0  0  0  0
    1.4804   -1.8458    0.2108 H   0  0  0  0  0  0  0  0  0  0  0  0
    2.7728   -0.6549    0.1334 H   0  0  0  0  0  0  0  0  0  0  0  0
   -0.3937   -0.2490    0.3612 H   0  0  0  0  0  0  0  0  0  0  0  0
    0.3863    1.5027    1.8854 H   0  0  0  0  0  0  0  0  0  0  0  0
    1.8172    0.4992    2.0952 H   0  0  0  0  0  0  0  0  0  0  0  0
    3.0572    1.8622    0.4569 H   0  0  0  0  0  0  0  0  0  0  0  0
    2.2140    3.0664    1.4243 H   0  0  0  0  0  0  0  0  0  0  0  0
    0.3863    3.1797   -0.2020 H   0  0  0  0  0  0  0  0  0  0  0  0
    1.8172    3.1685   -1.2272 H   0  0  0  0  0  0  0  0  0  0  0  0
   -0.1945    1.2994   -1.4963 H   0  0  0  0  0  0  0  0  0  0  0  0
    1.4804    0.8230   -3.1110 H   0  0  0  0  0  0  0  0  0  0  0  0
    2.7728    1.0041   -1.9314 H   0  0  0  0  0  0  0  0  0  0  0  0
  1  2  2  3
  1  7  1  0
  1  8  1  0
  2  3  1  0
  2  9  1  0
  3  4  1  0
  3  5  1  0
  4 10  1  0
  4 11  1  0
  4 12  1  0
  5  6  2  3
  5 13  1  0
  6 14  1  0
  6 15  1  0
 16 17  1  0
 16 23  1  0
 16 24  1  0
 16 25  1  0
 17 18  1  0
 17 26  1  0
 17 27  1  0
 18 19  1  0
 18 22  1  0
 18 28  1  0
 19 20  1  0
 19 29  1  0
 19 30  1  0
 20 21  1  0
 20 31  1  0
 20 32  1  0
 21 22  1  0
 21 33  1  0
 21 34  1  0
 22 23  1  0
 22 35  1  0
 23 36  1  0
 23 37  1  0
M  RAD  1   3   2
M  END
>  <reaction>  (6) 
rxn_563

>  <mol_properties>  (6) 
{"1": {"label": "*0", "atom_type": "Cd"}, "2": {"label": "*1", "atom_type": "Cs"}, "17": {"label": "*3", "atom_type": "Cs"}, "21": {"label": "*4", "atom_type": "Cs"}, "27": {"label": "*2", "atom_type": "H0"}}

>  <type>  (6) 
unop_2

>  <geom_source>  (6) 
Heuristics

$$$$

     RDKit          3D

 37 37  0  0  0  0  0  0  0  0999 V2000
   -1.6328    0.7286    2.4624 C   0  0  0  0  0  0  0  0  0  0  0  0
   -2.2497    0.0395    1.5161 C   0  0  0  0  0  0  0  0  0  0  0  0
   -1.5693   -0.8258    0.4870 C   0  0  0  0  0  3  0  0  0  0  0  0
   -1.8754   -0.3278   -0.9229 C   0  0  0  0  0  0  0  0  0  0  0  0
   -1.9492   -2.2662    0.7258 C   0  0  0  0  0  0  0  0  0  0  0  0
   -2.5724   -3.0725   -0.1194 C   0  0  0  0  0  0  0  0  0  0  0  0
   -2.1825    1.3324    3.1735 H   0  0  0  0  0  0  0  0  0  0  0  0
   -0.5523    0.7144    2.5594 H   0  0  0  0  0  0  0  0  0  0  0  0
   -3.3350    0.0727    1.4476 H   0  0  0  0  0  0  0  0  0  0  0  0
   -1.3748   -0.9410   -1.6740 H   0  0  0  0  0  0  0  0  0  0  0  0
   -1.5372    0.7021   -1.0388 H   0  0  0  0  0  0  0  0  0  0  0  0
   -2.9488   -0.3526   -1.1247 H   0  0  0  0  0  0  0  0  0  0  0  0
   -1.6822   -2.6422    1.7100 H   0  0  0  0  0  0  0  0  0  0  0  0
   -2.8688   -2.7550   -1.1119 H   0  0  0  0  0  0  0  0  0  0  0  0
   -2.8078   -4.0928    0.1559 H   0  0  0  0  0  0  0  0  0  0  0  0
    1.7897   -0.9655   -1.8261 C   0  0  0  0  0  0  0  0  0  0  0  0
    1.7897   -0.9655   -0.2996 C   0  0  0  0  0  0  0  0  0  0  0  0
    0.8264    0.1692    0.0887 C   0  0  0  0  0  0  0  0  0  0  0  0
    1.2791    1.0078    1.2932 C   0  0  0  0  0  0  0  0  0  0  0  0
    2.0911    2.1460    0.6738 C   0  0  0  0  0  0  0  0  0  0  0  0
    1.2791    2.5056   -0.5711 C   0  0  0  0  0  0  0  0  0  0  0  0
    0.8264    1.1488   -1.1305 C   0  0  0  0  0  0  0  0  0  0  0  0
    1.7897    0.5251   -2.1549 C   0  0  0  0  0  0  0  0  0  0  0  0
    2.6346   -1.5037   -2.2585 H   0  0  0  0  0  0  0  0  0  0  0  0
    0.8739   -1.4324   -2.2011 H   0  0  0  0  0  0  0  0  0  0  0  0
    1.5054   -1.9239    0.1370 H   0  0  0  0  0  0  0  0  0  0  0  0
    2.7979   -0.7330    0.0596 H   0  0  0  0  0  0  0  0  0  0  0  0
   -0.3687   -0.3271    0.2874 H   0  0  0  0  0  0  0  0  0  0  0  0
    0.4113    1.4246    1.8116 H   0  0  0  0  0  0  0  0  0  0  0  0
    1.8422    0.4211    2.0214 H   0  0  0  0  0  0  0  0  0  0  0  0
    3.0822    1.7841    0.3831 H   0  0  0  0  0  0  0  0  0  0  0  0
    2.2390    2.9883    1.3505 H   0  0  0  0  0  0  0  0  0  0  0  0
    0.4113    3.1016   -0.2758 H   0  0  0  0  0  0  0  0  0  0  0  0
    1.8422    3.0904   -1.3010 H   0  0  0  0  0  0  0  0  0  0  0  0
   -0.1695    1.2213   -1.5701 H   0  0  0  0  0  0  0  0  0  0  0  0
    1.5054    0.7449   -3.1848 H   0  0  0  0  0  0  0  0  0  0  0  0
    2.7979    0.9260   -2.0052 H   0  0  0  0  0  0  0  0  0  0  0  0
  1  2  2  3
  1  7  1  0
  1  8  1  0
  2  3  1  0
  2  9  1  0
  3  4  1  0
  3  5  1  0
  4 10  1  0
  4 11  1  0
  4 12  1  0
  5  6  2  3
  5 13  1  0
  6 14  1  0
  6 15  1  0
 16 17  1  0
 16 23  1  0
 16 24  1  0
 16 25  1  0
 17 18  1  0
 17 26  1  0
 17 27  1  0
 18 19  1  0
 18 22  1  0
 18 28  1  0
 19 20  1  0
 19 29  1  0
 19 30  1  0
 20 21  1  0
 20 31  1  0
 20 32  1  0
 21 22  1  0
 21 33  1  0
 21 34  1  0
 22 23  1  0
 22 35  1  0
 23 36  1  0
 23 37  1  0
M  RAD  1   3   2
M  END
>  <reaction>  (7) 
rxn_563

>  <mol_properties>  (7) 
{"1": {"label": "*0", "atom_type": "Cd"}, "2": {"label": "*1", "atom_type": "Cs"}, "17": {"label": "*3", "atom_type": "Cs"}, "21": {"label": "*4", "atom_type": "Cs"}, "27": {"label": "*2", "atom_type": "H0"}}

>  <type>  (7) 
unop_3

>  <geom_source>  (7) 
Heuristics

$$$$

     RDKit          3D

 37 37  0  0  0  0  0  0  0  0999 V2000
   -1.2185   -2.1465   -1.5129 C   0  0  0  0  0  0  0  0  0  0  0  0
   -2.0281   -1.5971   -0.6220 C   0  0  0  0  0  0  0  0  0  0  0  0
   -1.5914   -0.9481    0.6660 C   0  0  0  0  0  3  0  0  0  0  0  0
   -2.2118   -1.6597    1.8652 C   0  0  0  0  0  0  0  0  0  0  0  0
   -1.8969    0.5280    0.6019 C   0  0  0  0  0  0  0  0  0  0  0  0
   -2.6889    1.2098    1.4146 C   0  0  0  0  0  0  0  0  0  0  0  0
   -1.5978   -2.5971   -2.4214 H   0  0  0  0  0  0  0  0  0  0  0  0
   -0.1439   -2.1662   -1.3644 H   0  0  0  0  0  0  0  0  0  0  0  0
   -3.1010   -1.5912   -0.8022 H   0  0  0  0  0  0  0  0  0  0  0  0
   -1.8893   -1.2042    2.8030 H   0  0  0  0  0  0  0  0  0  0  0  0
   -1.9161   -2.7090    1.8731 H   0  0  0  0  0  0  0  0  0  0  0  0
   -3.3029   -1.6194    1.8256 H   0  0  0  0  0  0  0  0  0  0  0  0
   -1.4116    1.0501   -0.2186 H   0  0  0  0  0  0  0  0  0  0  0  0
   -3.2042    0.7452    2.2467 H   0  0  0  0  0  0  0  0  0  0  0  0
   -2.8485    2.2715    1.2748 H   0  0  0  0  0  0  0  0  0  0  0  0
    1.7676   -1.0879   -1.6471 C   0  0  0  0  0  0  0  0  0  0  0  0
    1.7676   -1.0879   -0.1207 C   0  0  0  0  0  0  0  0  0  0  0  0
    0.8043    0.0469    0.2677 C   0  0  0  0  0  0  0  0  0  0  0  0
    1.2570    0.8855    1.4721 C   0  0  0  0  0  0  0  0  0  0  0  0
    2.0690    2.0236    0.8528 C   0  0  0  0  0  0  0  0  0  0  0  0
    1.2570    2.3833   -0.3921 C   0  0  0  0  0  0  0  0  0  0  0  0
    0.8043    1.0264   -0.9515 C   0  0  0  0  0  0  0  0  0  0  0  0
    1.7676    0.4027   -1.9760 C   0  0  0  0  0  0  0  0  0  0  0  0
    2.6125   -1.6261   -2.0795 H   0  0  0  0  0  0  0  0  0  0  0  0
    0.8518   -1.5547   -2.0222 H   0  0  0  0  0  0  0  0  0  0  0  0
    1.4833   -2.0462    0.3159 H   0  0  0  0  0  0  0  0  0  0  0  0
    2.7758   -0.8553    0.2386 H   0  0  0  0  0  0  0  0  0  0  0  0
   -0.3908   -0.4495    0.4664 H   0  0  0  0  0  0  0  0  0  0  0  0
    0.3892    1.3023    1.9906 H   0  0  0  0  0  0  0  0  0  0  0  0
    1.8201    0.2987    2.2004 H   0  0  0  0  0  0  0  0  0  0  0  0
    3.0601    1.6618    0.5620 H   0  0  0  0  0  0  0  0  0  0  0  0
    2.2169    2.8660    1.5295 H   0  0  0  0  0  0  0  0  0  0  0  0
    0.3892    2.9793   -0.0968 H   0  0  0  0  0  0  0  0  0  0  0  0
    1.8201    2.9680   -1.1220 H   0  0  0  0  0  0  0  0  0  0  0  0
   -0.1916    1.0990   -1.3911 H   0  0  0  0  0  0  0  0  0  0  0  0
    1.4833    0.6226   -3.0059 H   0  0  0  0  0  0  0  0  0  0  0  0
    2.7758    0.8037   -1.8263 H   0  0  0  0  0  0  0  0  0  0  0  0
  1  2  2  3
  1  7  1  0
  1  8  1  0
  2  3  1  0
  2  9  1  0
  3  4  1  0
  3  5  1  0
  4 10  1  0
  4 11  1  0
  4 12  1  0
  5  6  2  3
  5 13  1  0
  6 14  1  0
  6 15  1  0
 16 17  1  0
 16 23  1  0
 16 24  1  0
 16 25  1  0
 17 18  1  0
 17 26  1  0
 17 27  1  0
 18 19  1  0
 18 22  1  0
 18 28  1  0
 19 20  1  0
 19 29  1  0
 19 30  1  0
 20 21  1  0
 20 31  1  0
 20 32  1  0
 21 22  1  0
 21 33  1  0
 21 34  1  0
 22 23  1  0
 22 35  1  0
 23 36  1  0
 23 37  1  0
M  RAD  1   3   2
M  END
>  <reaction>  (8) 
rxn_563

>  <mol_properties>  (8) 
{"1": {"label": "*0", "atom_type": "Cd"}, "2": {"label": "*1", "atom_type": "Cs"}, "17": {"label": "*3", "atom_type": "Cs"}, "21": {"label": "*4", "atom_type": "Cs"}, "27": {"label": "*2", "atom_type": "H0"}}

>  <type>  (8) 
unop_4

>  <geom_source>  (8) 
Heuristics

$$$$

     RDKit          3D

 37 37  0  0  0  0  0  0  0  0999 V2000
   -2.1223    1.5554    0.9439 C   0  0  0  0  0  0  0  0  0  0  0  0
   -2.5013    0.2947    0.8102 C   0  0  0  0  0  0  0  0  0  0  0  0
   -1.5964   -0.8499    0.4337 C   0  0  0  0  0  3  0  0  0  0  0  0
   -2.0684   -1.5065   -0.8607 C   0  0  0  0  0  0  0  0  0  0  0  0
   -1.4913   -1.7993    1.6015 C   0  0  0  0  0  0  0  0  0  0  0  0
   -1.8372   -3.0772    1.6181 C   0  0  0  0  0  0  0  0  0  0  0  0
   -2.8248    2.3323    1.2183 H   0  0  0  0  0  0  0  0  0  0  0  0
   -1.0927    1.8568    0.7822 H   0  0  0  0  0  0  0  0  0  0  0  0
   -3.5411    0.0248    0.9823 H   0  0  0  0  0  0  0  0  0  0  0  0
   -1.4100   -2.3280   -1.1479 H   0  0  0  0  0  0  0  0  0  0  0  0
   -2.0795   -0.7758   -1.6698 H   0  0  0  0  0  0  0  0  0  0  0  0
   -3.0805   -1.9038   -0.7542 H   0  0  0  0  0  0  0  0  0  0  0  0
   -1.1023   -1.3488    2.5109 H   0  0  0  0  0  0  0  0  0  0  0  0
   -2.2355   -3.5814    0.7458 H   0  0  0  0  0  0  0  0  0  0  0  0
   -1.7292   -3.6713    2.5168 H   0  0  0  0  0  0  0  0  0  0  0  0
    1.7627   -0.9896   -1.8794 C   0  0  0  0  0  0  0  0  0  0  0  0
    1.7627   -0.9896   -0.3529 C   0  0  0  0  0  0  0  0  0  0  0  0
    0.7993    0.1451    0.0354 C   0  0  0  0  0  0  0  0  0  0  0  0
    1.2521    0.9837    1.2399 C   0  0  0  0  0  0  0  0  0  0  0  0
    2.0641    2.1219    0.6205 C   0  0  0  0  0  0  0  0  0  0  0  0
    1.2521    2.4815   -0.6244 C   0  0  0  0  0  0  0  0  0  0  0  0
    0.7993    1.1247   -1.1838 C   0  0  0  0  0  0  0  0  0  0  0  0
    1.7627    0.5010   -2.2082 C   0  0  0  0  0  0  0  0  0  0  0  0
    2.6075   -1.5278   -2.3118 H   0  0  0  0  0  0  0  0  0  0  0  0
    0.8468   -1.4565   -2.2544 H   0  0  0  0  0  0  0  0  0  0  0  0
    1.4783   -1.9480    0.0837 H   0  0  0  0  0  0  0  0  0  0  0  0
    2.7708   -0.7571    0.0064 H   0  0  0  0  0  0  0  0  0  0  0  0
   -0.3957   -0.3512    0.2341 H   0  0  0  0  0  0  0  0  0  0  0  0
    0.3842    1.4005    1.7583 H   0  0  0  0  0  0  0  0  0  0  0  0
    1.8151    0.3970    1.9681 H   0  0  0  0  0  0  0  0  0  0  0  0
    3.0552    1.7600    0.3298 H   0  0  0  0  0  0  0  0  0  0  0  0
    2.2120    2.9642    1.2972 H   0  0  0  0  0  0  0  0  0  0  0  0
    0.3842    3.0776   -0.3291 H   0  0  0  0  0  0  0  0  0  0  0  0
    1.8151    3.0663   -1.3542 H   0  0  0  0  0  0  0  0  0  0  0  0
   -0.1966    1.1972   -1.6234 H   0  0  0  0  0  0  0  0  0  0  0  0
    1.4783    0.7208   -3.2381 H   0  0  0  0  0  0  0  0  0  0  0  0
    2.7708    0.9019   -2.0585 H   0  0  0  0  0  0  0  0  0  0  0  0
  1  2  2  3
  1  7  1  0
  1  8  1  0
  2  3  1  0
  2  9  1  0
  3  4  1  0
  3  5  1  0
  4 10  1  0
  4 11  1  0
  4 12  1  0
  5  6  2  3
  5 13  1  0
  6 14  1  0
  6 15  1  0
 16 17  1  0
 16 23  1  0
 16 24  1  0
 16 25  1  0
 17 18  1  0
 17 26  1  0
 17 27  1  0
 18 19  1  0
 18 22  1  0
 18 28  1  0
 19 20  1  0
 19 29  1  0
 19 30  1  0
 20 21  1  0
 20 31  1  0
 20 32  1  0
 21 22  1  0
 21 33  1  0
 21 34  1  0
 22 23  1  0
 22 35  1  0
 23 36  1  0
 23 37  1  0
M  RAD  1   3   2
M  END
>  <reaction>  (9) 
rxn_563

>  <mol_properties>  (9) 
{"1": {"label": "*0", "atom_type": "Cd"}, "2": {"label": "*1", "atom_type": "Cs"}, "17": {"label": "*3", "atom_type": "Cs"}, "21": {"label": "*4", "atom_type": "Cs"}, "27": {"label": "*2", "atom_type": "H0"}}

>  <type>  (9) 
unop_5

>  <geom_source>  (9) 
Heuristics

$$$$

     RDKit          3D

 37 37  0  0  0  0  0  0  0  0999 V2000
   -1.7736   -1.1960   -1.9070 C   0  0  0  0  0  0  0  0  0  0  0  0
   -2.3253   -0.9714   -0.7254 C   0  0  0  0  0  0  0  0  0  0  0  0
   -1.5989   -1.0075    0.5943 C   0  0  0  0  0  3  0  0  0  0  0  0
   -2.2020   -2.0669    1.5125 C   0  0  0  0  0  0  0  0  0  0  0  0
   -1.5823    0.3805    1.1854 C   0  0  0  0  0  0  0  0  0  0  0  0
   -2.0981    0.7543    2.3461 C   0  0  0  0  0  0  0  0  0  0  0  0
   -2.3535   -1.1538   -2.8204 H   0  0  0  0  0  0  0  0  0  0  0  0
   -0.7190   -1.4319   -2.0032 H   0  0  0  0  0  0  0  0  0  0  0  0
   -3.3854   -0.7344   -0.6633 H   0  0  0  0  0  0  0  0  0  0  0  0
   -1.6724   -2.1091    2.4657 H   0  0  0  0  0  0  0  0  0  0  0  0
   -2.1425   -3.0488    1.0424 H   0  0  0  0  0  0  0  0  0  0  0  0
   -3.2543   -1.8570    1.7177 H   0  0  0  0  0  0  0  0  0  0  0  0
   -1.1031    1.1281    0.5587 H   0  0  0  0  0  0  0  0  0  0  0  0
   -2.5924    0.0574    3.0121 H   0  0  0  0  0  0  0  0  0  0  0  0
   -2.0399    1.7841    2.6750 H   0  0  0  0  0  0  0  0  0  0  0  0
    1.7602   -1.1472   -1.7188 C   0  0  0  0  0  0  0  0  0  0  0  0
    1.7602   -1.1472   -0.1923 C   0  0  0  0  0  0  0  0  0  0  0  0
    0.7968   -0.0125    0.1960 C   0  0  0  0  0  0  0  0  0  0  0  0
    1.2496    0.8261    1.4005 C   0  0  0  0  0  0  0  0  0  0  0  0
    2.0616    1.9643    0.7811 C   0  0  0  0  0  0  0  0  0  0  0  0
    1.2496    2.3239   -0.4638 C   0  0  0  0  0  0  0  0  0  0  0  0
    0.7968    0.9671   -1.0232 C   0  0  0  0  0  0  0  0  0  0  0  0
    1.7602    0.3434   -2.0476 C   0  0  0  0  0  0  0  0  0  0  0  0
    2.6050   -1.6854   -2.1512 H   0  0  0  0  0  0  0  0  0  0  0  0
    0.8444   -1.6141   -2.0938 H   0  0  0  0  0  0  0  0  0  0  0  0
    1.4759   -2.1056    0.2443 H   0  0  0  0  0  0  0  0  0  0  0  0
    2.7683   -0.9147    0.1669 H   0  0  0  0  0  0  0  0  0  0  0  0
   -0.3982   -0.5088    0.3947 H   0  0  0  0  0  0  0  0  0  0  0  0
    0.3818    1.2429    1.9189 H   0  0  0  0  0  0  0  0  0  0  0  0
    1.8127    0.2394    2.1287 H   0  0  0  0  0  0  0  0  0  0  0  0
    3.0527    1.6024    0.4904 H   0  0  0  0  0  0  0  0  0  0  0  0
    2.2095    2.8066    1.4578 H   0  0  0  0  0  0  0  0  0  0  0  0
    0.3818    2.9199   -0.1685 H   0  0  0  0  0  0  0  0  0  0  0  0
    1.8127    2.9087   -1.1937 H   0  0  0  0  0  0  0  0  0  0  0  0
   -0.1990    1.0396   -1.4628 H   0  0  0  0  0  0  0  0  0  0  0  0
    1.4759    0.5632   -3.0775 H   0  0  0  0  0  0  0  0  0  0  0  0
    2.7683    0.7443   -1.8979 H   0  0  0  0  0  0  0  0  0  0  0  0
  1  2  2  3
  1  7  1  0
  1  8  1  0
  2  3  1  0
  2  9  1  0
  3  4  1  0
  3  5  1  0
  4 10  1  0
  4 11  1  0
  4 12  1  0
  5  6  2  3
  5 13  1  0
  6 14  1  0
  6 15  1  0
 16 17  1  0
 16 23  1  0
 16 24  1  0
 16 25  1  0
 17 18  1  0
 17 26  1  0
 17 27  1  0
 18 19  1  0
 18 22  1  0
 18 28  1  0
 19 20  1  0
 19 29  1  0
 19 30  1  0
 20 21  1  0
 20 31  1  0
 20 32  1  0
 21 22  1  0
 21 33  1  0
 21 34  1  0
 22 23  1  0
 22 35  1  0
 23 36  1  0
 23 37  1  0
M  RAD  1   3   2
M  END
>  <reaction>  (10) 
rxn_563

>  <mol_properties>  (10) 
{"1": {"label": "*0", "atom_type": "Cd"}, "2": {"label": "*1", "atom_type": "Cs"}, "17": {"label": "*3", "atom_type": "Cs"}, "21": {"label": "*4", "atom_type": "Cs"}, "27": {"label": "*2", "atom_type": "H0"}}

>  <type>  (10) 
unop_6

>  <geom_source>  (10) 
Heuristics

$$$$

     RDKit          3D

 37 37  0  0  0  0  0  0  0  0999 V2000
   -2.2306   -0.0032   -1.7191 C   0  0  0  0  0  0  0  0  0  0  0  0
   -2.5433   -0.3447   -0.4796 C   0  0  0  0  0  0  0  0  0  0  0  0
   -1.6118   -1.0106    0.5000 C   0  0  0  0  0  3  0  0  0  0  0  0
   -2.1682   -2.3623    0.9391 C   0  0  0  0  0  0  0  0  0  0  0  0
   -1.3343   -0.0611    1.6392 C   0  0  0  0  0  0  0  0  0  0  0  0
   -1.5982   -0.2619    2.9210 C   0  0  0  0  0  0  0  0  0  0  0  0
   -2.9488    0.4746   -2.3736 H   0  0  0  0  0  0  0  0  0  0  0  0
   -1.2423   -0.1909   -2.1254 H   0  0  0  0  0  0  0  0  0  0  0  0
   -3.5426   -0.1400   -0.1013 H   0  0  0  0  0  0  0  0  0  0  0  0
   -1.4924   -2.8576    1.6382 H   0  0  0  0  0  0  0  0  0  0  0  0
   -2.3036   -3.0114    0.0736 H   0  0  0  0  0  0  0  0  0  0  0  0
   -3.1387   -2.2486    1.4276 H   0  0  0  0  0  0  0  0  0  0  0  0
   -0.8857    0.8816    1.3368 H   0  0  0  0  0  0  0  0  0  0  0  0
   -2.0491   -1.1778    3.2835 H   0  0  0  0  0  0  0  0  0  0  0  0
   -1.3661    0.4929    3.6617 H   0  0  0  0  0  0  0  0  0  0  0  0
    1.7473   -1.1504   -1.8130 C   0  0  0  0  0  0  0  0  0  0  0  0
    1.7473   -1.1504   -0.2866 C   0  0  0  0  0  0  0  0  0  0  0  0
    0.7839   -0.0156    0.1018 C   0  0  0  0  0  0  0  0  0  0  0  0
    1.2367    0.8230    1.3062 C   0  0  0  0  0  0  0  0  0  0  0  0
    2.0487    1.9612    0.6868 C   0  0  0  0  0  0  0  0  0  0  0  0
    1.2367    2.3208   -0.5581 C   0  0  0  0  0  0  0  0  0  0  0  0
    0.7839    0.9640   -1.1175 C   0  0  0  0  0  0  0  0  0  0  0  0
    1.7473    0.3402   -2.1419 C   0  0  0  0  0  0  0  0  0  0  0  0
    2.5921   -1.6885   -2.2454 H   0  0  0  0  0  0  0  0  0  0  0  0
    0.8314   -1.6172   -2.1881 H   0  0  0  0  0  0  0  0  0  0  0  0
    1.4630   -2.1087    0.1500 H   0  0  0  0  0  0  0  0  0  0  0  0
    2.7554   -0.9178    0.0727 H   0  0  0  0  0  0  0  0  0  0  0  0
   -0.4111   -0.5119    0.3004 H   0  0  0  0  0  0  0  0  0  0  0  0
    0.3689    1.2398    1.8246 H   0  0  0  0  0  0  0  0  0  0  0  0
    1.7998    0.2362    2.0345 H   0  0  0  0  0  0  0  0  0  0  0  0
    3.0398    1.5993    0.3961 H   0  0  0  0  0  0  0  0  0  0  0  0
    2.1966    2.8035    1.3636 H   0  0  0  0  0  0  0  0  0  0  0  0
    0.3689    2.9168   -0.2627 H   0  0  0  0  0  0  0  0  0  0  0  0
    1.7998    2.9055   -1.2879 H   0  0  0  0  0  0  0  0  0  0  0  0
   -0.2119    1.0365   -1.5570 H   0  0  0  0  0  0  0  0  0  0  0  0
    1.4630    0.5601   -3.1718 H   0  0  0  0  0  0  0  0  0  0  0  0
    2.7554    0.7412   -1.9922 H   0  0  0  0  0  0  0  0  0  0  0  0
  1  2  2  3
  1  7  1  0
  1  8  1  0
  2  3  1  0
  2  9  1  0
  3  4  1  0
  3  5  1  0
  4 10  1  0
  4 11  1  0
  4 12  1  0
  5  6  2  3
  5 13  1  0
  6 14  1  0
  6 15  1  0
 16 17  1  0
 16 23  1  0
 16 24  1  0
 16 25  1  0
 17 18  1  0
 17 26  1  0
 17 27  1  0
 18 19  1  0
 18 22  1  0
 18 28  1  0
 19 20  1  0
 19 29  1  0
 19 30  1  0
 20 21  1  0
 20 31  1  0
 20 32  1  0
 21 22  1  0
 21 33  1  0
 21 34  1  0
 22 23  1  0
 22 35  1  0
 23 36  1  0
 23 37  1  0
M  RAD  1   3   2
M  END
>  <reaction>  (11) 
rxn_563

>  <mol_properties>  (11) 
{"1": {"label": "*0", "atom_type": "Cd"}, "2": {"label": "*1", "atom_type": "Cs"}, "17": {"label": "*3", "atom_type": "Cs"}, "21": {"label": "*4", "atom_type": "Cs"}, "27": {"label": "*2", "atom_type": "H0"}}

>  <type>  (11) 
unop_7

>  <geom_source>  (11) 
Heuristics

$$$$

     RDKit          3D

 37 37  0  0  0  0  0  0  0  0999 V2000
   -0.7034   -1.7530    2.6456 C   0  0  0  0  0  0  0  0  0  0  0  0
   -1.6693   -1.1877    1.9396 C   0  0  0  0  0  0  0  0  0  0  0  0
   -1.5757   -0.8110    0.4836 C   0  0  0  0  0  3  0  0  0  0  0  0
   -1.7853    0.6896    0.3008 C   0  0  0  0  0  0  0  0  0  0  0  0
   -2.5333   -1.6662   -0.3089 C   0  0  0  0  0  0  0  0  0  0  0  0
   -3.5459   -1.2443   -1.0502 C   0  0  0  0  0  0  0  0  0  0  0  0
   -0.8359   -1.9997    3.6916 H   0  0  0  0  0  0  0  0  0  0  0  0
    0.2580   -1.9890    2.2016 H   0  0  0  0  0  0  0  0  0  0  0  0
   -2.6230   -0.9664    2.4141 H   0  0  0  0  0  0  0  0  0  0  0  0
   -1.7051    0.9729   -0.7500 H   0  0  0  0  0  0  0  0  0  0  0  0
   -1.0353    1.2447    0.8647 H   0  0  0  0  0  0  0  0  0  0  0  0
   -2.7700    0.9963    0.6610 H   0  0  0  0  0  0  0  0  0  0  0  0
   -2.3525   -2.7347   -0.2262 H   0  0  0  0  0  0  0  0  0  0  0  0
   -3.7799   -0.1931   -1.1676 H   0  0  0  0  0  0  0  0  0  0  0  0
   -4.1821   -1.9462   -1.5743 H   0  0  0  0  0  0  0  0  0  0  0  0
    1.7834   -0.9508   -1.8295 C   0  0  0  0  0  0  0  0  0  0  0  0
    1.7834   -0.9508   -0.3030 C   0  0  0  0  0  0  0  0  0  0  0  0
    0.8200    0.1840    0.0853 C   0  0  0  0  0  0  0  0  0  0  0  0
    1.2728    1.0225    1.2898 C   0  0  0  0  0  0  0  0  0  0  0  0
    2.0848    2.1607    0.6704 C   0  0  0  0  0  0  0  0  0  0  0  0
    1.2728    2.5203   -0.5745 C   0  0  0  0  0  0  0  0  0  0  0  0
    0.8200    1.1635   -1.1339 C   0  0  0  0  0  0  0  0  0  0  0  0
    1.7834    0.5398   -2.1583 C   0  0  0  0  0  0  0  0  0  0  0  0
    2.6282   -1.4890   -2.2619 H   0  0  0  0  0  0  0  0  0  0  0  0
    0.8675   -1.4176   -2.2045 H   0  0  0  0  0  0  0  0  0  0  0  0
    1.4991   -1.9091    0.1336 H   0  0  0  0  0  0  0  0  0  0  0  0
    2.7915   -0.7182    0.0563 H   0  0  0  0  0  0  0  0  0  0  0  0
   -0.3750   -0.3124    0.2840 H   0  0  0  0  0  0  0  0  0  0  0  0
    0.4050    1.4393    1.8082 H   0  0  0  0  0  0  0  0  0  0  0  0
    1.8359    0.4358    2.0180 H   0  0  0  0  0  0  0  0  0  0  0  0
    3.0759    1.7989    0.3797 H   0  0  0  0  0  0  0  0  0  0  0  0
    2.2327    3.0030    1.3471 H   0  0  0  0  0  0  0  0  0  0  0  0
    0.4050    3.1164   -0.2792 H   0  0  0  0  0  0  0  0  0  0  0  0
    1.8359    3.1051   -1.3043 H   0  0  0  0  0  0  0  0  0  0  0  0
   -0.1759    1.2361   -1.5735 H   0  0  0  0  0  0  0  0  0  0  0  0
    1.4990    0.7597   -3.1882 H   0  0  0  0  0  0  0  0  0  0  0  0
    2.7915    0.9408   -2.0086 H   0  0  0  0  0  0  0  0  0  0  0  0
  1  2  2  3
  1  7  1  0
  1  8  1  0
  2  3  1  0
  2  9  1  0
  3  4  1  0
  3  5  1  0
  4 10  1  0
  4 11  1  0
  4 12  1  0
  5  6  2  3
  5 13  1  0
  6 14  1  0
  6 15  1  0
 16 17  1  0
 16 23  1  0
 16 24  1  0
 16 25  1  0
 17 18  1  0
 17 26  1  0
 17 27  1  0
 18 19  1  0
 18 22  1  0
 18 28  1  0
 19 20  1  0
 19 29  1  0
 19 30  1  0
 20 21  1  0
 20 31  1  0
 20 32  1  0
 21 22  1  0
 21 33  1  0
 21 34  1  0
 22 23  1  0
 22 35  1  0
 23 36  1  0
 23 37  1  0
M  RAD  1   3   2
M  END
>  <reaction>  (12) 
rxn_563

>  <mol_properties>  (12) 
{"1": {"label": "*0", "atom_type": "Cd"}, "2": {"label": "*1", "atom_type": "Cs"}, "17": {"label": "*3", "atom_type": "Cs"}, "21": {"label": "*4", "atom_type": "Cs"}, "27": {"label": "*2", "atom_type": "H0"}}

>  <type>  (12) 
unop_8

>  <geom_source>  (12) 
Heuristics

$$$$

     RDKit          3D

 37 37  0  0  0  0  0  0  0  0999 V2000
   -0.7284   -2.7006   -0.7912 C   0  0  0  0  0  0  0  0  0  0  0  0
   -1.7301   -2.0626   -0.2076 C   0  0  0  0  0  0  0  0  0  0  0  0
   -1.5904   -0.8568    0.6852 C   0  0  0  0  0  3  0  0  0  0  0  0
   -2.1440   -1.1498    2.0769 C   0  0  0  0  0  0  0  0  0  0  0  0
   -2.2259    0.3328    0.0091 C   0  0  0  0  0  0  0  0  0  0  0  0
   -3.2339    1.0596    0.4660 C   0  0  0  0  0  0  0  0  0  0  0  0
   -0.8976   -3.5631   -1.4236 H   0  0  0  0  0  0  0  0  0  0  0  0
    0.3001   -2.3827   -0.6562 H   0  0  0  0  0  0  0  0  0  0  0  0
   -2.7506   -2.4051   -0.3657 H   0  0  0  0  0  0  0  0  0  0  0  0
   -2.0339   -0.2857    2.7341 H   0  0  0  0  0  0  0  0  0  0  0  0
   -1.6124   -1.9908    2.5228 H   0  0  0  0  0  0  0  0  0  0  0  0
   -3.2043   -1.4095    2.0321 H   0  0  0  0  0  0  0  0  0  0  0  0
   -1.7967    0.5798   -0.9584 H   0  0  0  0  0  0  0  0  0  0  0  0
   -3.7069    0.8601    1.4200 H   0  0  0  0  0  0  0  0  0  0  0  0
   -3.6234    1.8924   -0.1058 H   0  0  0  0  0  0  0  0  0  0  0  0
    1.7687   -0.9965   -1.6279 C   0  0  0  0  0  0  0  0  0  0  0  0
    1.7687   -0.9965   -0.1015 C   0  0  0  0  0  0  0  0  0  0  0  0
    0.8053    0.1382    0.2869 C   0  0  0  0  0  0  0  0  0  0  0  0
    1.2581    0.9768    1.4913 C   0  0  0  0  0  0  0  0  0  0  0  0
    2.0701    2.1150    0.8719 C   0  0  0  0  0  0  0  0  0  0  0  0
    1.2581    2.4746   -0.3730 C   0  0  0  0  0  0  0  0  0  0  0  0
    0.8053    1.1178   -0.9323 C   0  0  0  0  0  0  0  0  0  0  0  0
    1.7687    0.4941   -1.9568 C   0  0  0  0  0  0  0  0  0  0  0  0
    2.6135   -1.5347   -2.0603 H   0  0  0  0  0  0  0  0  0  0  0  0
    0.8528   -1.4634   -2.0030 H   0  0  0  0  0  0  0  0  0  0  0  0
    1.4844   -1.9549    0.3351 H   0  0  0  0  0  0  0  0  0  0  0  0
    2.7768   -0.7640    0.2578 H   0  0  0  0  0  0  0  0  0  0  0  0
   -0.3897   -0.3581    0.4856 H   0  0  0  0  0  0  0  0  0  0  0  0
    0.3903    1.3936    2.0098 H   0  0  0  0  0  0  0  0  0  0  0  0
    1.8212    0.3901    2.2196 H   0  0  0  0  0  0  0  0  0  0  0  0
    3.0612    1.7531    0.5812 H   0  0  0  0  0  0  0  0  0  0  0  0
    2.2180    2.9573    1.5487 H   0  0  0  0  0  0  0  0  0  0  0  0
    0.3903    3.0706   -0.0776 H   0  0  0  0  0  0  0  0  0  0  0  0
    1.8212    3.0594   -1.1028 H   0  0  0  0  0  0  0  0  0  0  0  0
   -0.1906    1.1903   -1.3719 H   0  0  0  0  0  0  0  0  0  0  0  0
    1.4844    0.7139   -2.9867 H   0  0  0  0  0  0  0  0  0  0  0  0
    2.7768    0.8950   -1.8071 H   0  0  0  0  0  0  0  0  0  0  0  0
  1  2  2  3
  1  7  1  0
  1  8  1  0
  2  3  1  0
  2  9  1  0
  3  4  1  0
  3  5  1  0
  4 10  1  0
  4 11  1  0
  4 12  1  0
  5  6  2  3
  5 13  1  0
  6 14  1  0
  6 15  1  0
 16 17  1  0
 16 23  1  0
 16 24  1  0
 16 25  1  0
 17 18  1  0
 17 26  1  0
 17 27  1  0
 18 19  1  0
 18 22  1  0
 18 28  1  0
 19 20  1  0
 19 29  1  0
 19 30  1  0
 20 21  1  0
 20 31  1  0
 20 32  1  0
 21 22  1  0
 21 33  1  0
 21 34  1  0
 22 23  1  0
 22 35  1  0
 23 36  1  0
 23 37  1  0
M  RAD  1   3   2
M  END
>  <reaction>  (13) 
rxn_563

>  <mol_properties>  (13) 
{"1": {"label": "*0", "atom_type": "Cd"}, "2": {"label": "*1", "atom_type": "Cs"}, "17": {"label": "*3", "atom_type": "Cs"}, "21": {"label": "*4", "atom_type": "Cs"}, "27": {"label": "*2", "atom_type": "H0"}}

>  <type>  (13) 
unop_9

>  <geom_source>  (13) 
Heuristics

$$$$

     RDKit          3D

 37 37  0  0  0  0  0  0  0  0999 V2000
   -0.4243   -2.5456    1.8512 C   0  0  0  0  0  0  0  0  0  0  0  0
   -1.4768   -1.7785    1.6172 C   0  0  0  0  0  0  0  0  0  0  0  0
   -1.5882   -0.7720    0.5013 C   0  0  0  0  0  3  0  0  0  0  0  0
   -1.8114    0.6303    1.0608 C   0  0  0  0  0  0  0  0  0  0  0  0
   -2.6543   -1.2246   -0.4655 C   0  0  0  0  0  0  0  0  0  0  0  0
   -3.7590   -0.5713   -0.7906 C   0  0  0  0  0  0  0  0  0  0  0  0
   -0.4087   -3.2513    2.6722 H   0  0  0  0  0  0  0  0  0  0  0  0
    0.4627   -2.4944    1.2285 H   0  0  0  0  0  0  0  0  0  0  0  0
   -2.3520   -1.8562    2.2588 H   0  0  0  0  0  0  0  0  0  0  0  0
   -1.8793    1.3676    0.2592 H   0  0  0  0  0  0  0  0  0  0  0  0
   -0.9852    0.9091    1.7153 H   0  0  0  0  0  0  0  0  0  0  0  0
   -2.7330    0.6786    1.6456 H   0  0  0  0  0  0  0  0  0  0  0  0
   -2.4709   -2.1995   -0.9097 H   0  0  0  0  0  0  0  0  0  0  0  0
   -4.0002    0.4010   -0.3781 H   0  0  0  0  0  0  0  0  0  0  0  0
   -4.4679   -0.9917   -1.4927 H   0  0  0  0  0  0  0  0  0  0  0  0
    1.7709   -0.9118   -1.8118 C   0  0  0  0  0  0  0  0  0  0  0  0
    1.7709   -0.9118   -0.2854 C   0  0  0  0  0  0  0  0  0  0  0  0
    0.8075    0.2230    0.1030 C   0  0  0  0  0  0  0  0  0  0  0  0
    1.2603    1.0616    1.3074 C   0  0  0  0  0  0  0  0  0  0  0  0
    2.0723    2.1997    0.6881 C   0  0  0  0  0  0  0  0  0  0  0  0
    1.2603    2.5594   -0.5568 C   0  0  0  0  0  0  0  0  0  0  0  0
    0.8075    1.2025   -1.1162 C   0  0  0  0  0  0  0  0  0  0  0  0
    1.7709    0.5788   -2.1407 C   0  0  0  0  0  0  0  0  0  0  0  0
    2.6157   -1.4499   -2.2442 H   0  0  0  0  0  0  0  0  0  0  0  0
    0.8550   -1.3786   -2.1869 H   0  0  0  0  0  0  0  0  0  0  0  0
    1.4865   -1.8701    0.1512 H   0  0  0  0  0  0  0  0  0  0  0  0
    2.7790   -0.6792    0.0739 H   0  0  0  0  0  0  0  0  0  0  0  0
   -0.3875   -0.2734    0.3017 H   0  0  0  0  0  0  0  0  0  0  0  0
    0.3924    1.4784    1.8259 H   0  0  0  0  0  0  0  0  0  0  0  0
    1.8233    0.4748    2.0357 H   0  0  0  0  0  0  0  0  0  0  0  0
    3.0634    1.8379    0.3974 H   0  0  0  0  0  0  0  0  0  0  0  0
    2.2202    3.0421    1.3648 H   0  0  0  0  0  0  0  0  0  0  0  0
    0.3924    3.1554   -0.2615 H   0  0  0  0  0  0  0  0  0  0  0  0
    1.8233    3.1441   -1.2867 H   0  0  0  0  0  0  0  0  0  0  0  0
   -0.1884    1.2751   -1.5558 H   0  0  0  0  0  0  0  0  0  0  0  0
    1.4865    0.7987   -3.1706 H   0  0  0  0  0  0  0  0  0  0  0  0
    2.7790    0.9798   -1.9909 H   0  0  0  0  0  0  0  0  0  0  0  0
  1  2  2  3
  1  7  1  0
  1  8  1  0
  2  3  1  0
  2  9  1  0
  3  4  1  0
  3  5  1  0
  4 10  1  0
  4 11  1  0
  4 12  1  0
  5  6  2  3
  5 13  1  0
  6 14  1  0
  6 15  1  0
 16 17  1  0
 16 23  1  0
 16 24  1  0
 16 25  1  0
 17 18  1  0
 17 26  1  0
 17 27  1  0
 18 19  1  0
 18 22  1  0
 18 28  1  0
 19 20  1  0
 19 29  1  0
 19 30  1  0
 20 21  1  0
 20 31  1  0
 20 32  1  0
 21 22  1  0
 21 33  1  0
 21 34  1  0
 22 23  1  0
 22 35  1  0
 23 36  1  0
 23 37  1  0
M  RAD  1   3   2
M  END
>  <reaction>  (14) 
rxn_563

>  <mol_properties>  (14) 
{"1": {"label": "*0", "atom_type": "Cd"}, "2": {"label": "*1", "atom_type": "Cs"}, "17": {"label": "*3", "atom_type": "Cs"}, "21": {"label": "*4", "atom_type": "Cs"}, "27": {"label": "*2", "atom_type": "H0"}}

>  <type>  (14) 
unop_10

>  <geom_source>  (14) 
Heuristics

$$$$

     RDKit          3D

 37 37  0  0  0  0  0  0  0  0999 V2000
   -2.3938    1.1234   -0.7732 C   0  0  0  0  0  0  0  0  0  0  0  0
   -2.6149    0.1255    0.0671 C   0  0  0  0  0  0  0  0  0  0  0  0
   -1.6181   -0.9461    0.4258 C   0  0  0  0  0  3  0  0  0  0  0  0
   -2.1520   -2.3259    0.0507 C   0  0  0  0  0  0  0  0  0  0  0  0
   -1.2467   -0.8059    1.8813 C   0  0  0  0  0  0  0  0  0  0  0  0
   -1.4148   -1.7107    2.8333 C   0  0  0  0  0  0  0  0  0  0  0  0
   -3.1550    1.8630   -0.9876 H   0  0  0  0  0  0  0  0  0  0  0  0
   -1.4407    1.2362   -1.2793 H   0  0  0  0  0  0  0  0  0  0  0  0
   -3.5809    0.0423    0.5606 H   0  0  0  0  0  0  0  0  0  0  0  0
   -1.4298   -3.1068    0.2945 H   0  0  0  0  0  0  0  0  0  0  0  0
   -2.3583   -2.3704   -1.0190 H   0  0  0  0  0  0  0  0  0  0  0  0
   -3.0817   -2.5456    0.5806 H   0  0  0  0  0  0  0  0  0  0  0  0
   -0.8137    0.1563    2.1420 H   0  0  0  0  0  0  0  0  0  0  0  0
   -1.8453   -2.6853    2.6373 H   0  0  0  0  0  0  0  0  0  0  0  0
   -1.1205   -1.5049    3.8547 H   0  0  0  0  0  0  0  0  0  0  0  0
    1.7409   -1.0859   -1.8873 C   0  0  0  0  0  0  0  0  0  0  0  0
    1.7409   -1.0859   -0.3608 C   0  0  0  0  0  0  0  0  0  0  0  0
    0.7776    0.0489    0.0275 C   0  0  0  0  0  0  0  0  0  0  0  0
    1.2303    0.8874    1.2320 C   0  0  0  0  0  0  0  0  0  0  0  0
    2.0423    2.0256    0.6126 C   0  0  0  0  0  0  0  0  0  0  0  0
    1.2303    2.3852   -0.6323 C   0  0  0  0  0  0  0  0  0  0  0  0
    0.7776    1.0284   -1.1917 C   0  0  0  0  0  0  0  0  0  0  0  0
    1.7409    0.4047   -2.2161 C   0  0  0  0  0  0  0  0  0  0  0  0
    2.5858   -1.6241   -2.3197 H   0  0  0  0  0  0  0  0  0  0  0  0
    0.8251   -1.5527   -2.2623 H   0  0  0  0  0  0  0  0  0  0  0  0
    1.4566   -2.0442    0.0758 H   0  0  0  0  0  0  0  0  0  0  0  0
    2.7491   -0.8533   -0.0015 H   0  0  0  0  0  0  0  0  0  0  0  0
   -0.4175   -0.4475    0.2262 H   0  0  0  0  0  0  0  0  0  0  0  0
    0.3625    1.3042    1.7504 H   0  0  0  0  0  0  0  0  0  0  0  0
    1.7934    0.3007    1.9602 H   0  0  0  0  0  0  0  0  0  0  0  0
    3.0335    1.6638    0.3219 H   0  0  0  0  0  0  0  0  0  0  0  0
    2.1903    2.8679    1.2893 H   0  0  0  0  0  0  0  0  0  0  0  0
    0.3625    2.9813   -0.3370 H   0  0  0  0  0  0  0  0  0  0  0  0
    1.7934    2.9700   -1.3622 H   0  0  0  0  0  0  0  0  0  0  0  0
   -0.2183    1.1010   -1.6313 H   0  0  0  0  0  0  0  0  0  0  0  0
    1.4566    0.6246   -3.2460 H   0  0  0  0  0  0  0  0  0  0  0  0
    2.7491    0.8057   -2.0664 H   0  0  0  0  0  0  0  0  0  0  0  0
  1  2  2  3
  1  7  1  0
  1  8  1  0
  2  3  1  0
  2  9  1  0
  3  4  1  0
  3  5  1  0
  4 10  1  0
  4 11  1  0
  4 12  1  0
  5  6  2  3
  5 13  1  0
  6 14  1  0
  6 15  1  0
 16 17  1  0
 16 23  1  0
 16 24  1  0
 16 25  1  0
 17 18  1  0
 17 26  1  0
 17 27  1  0
 18 19  1  0
 18 22  1  0
 18 28  1  0
 19 20  1  0
 19 29  1  0
 19 30  1  0
 20 21  1  0
 20 31  1  0
 20 32  1  0
 21 22  1  0
 21 33  1  0
 21 34  1  0
 22 23  1  0
 22 35  1  0
 23 36  1  0
 23 37  1  0
M  RAD  1   3   2
M  END
>  <reaction>  (15) 
rxn_563

>  <mol_properties>  (15) 
{"1": {"label": "*0", "atom_type": "Cd"}, "2": {"label": "*1", "atom_type": "Cs"}, "17": {"label": "*3", "atom_type": "Cs"}, "21": {"label": "*4", "atom_type": "Cs"}, "27": {"label": "*2", "atom_type": "H0"}}

>  <type>  (15) 
unop_11

>  <geom_source>  (15) 
Heuristics

$$$$

     RDKit          3D

 37 37  0  0  0  0  0  0  0  0999 V2000
   -0.4201   -2.9121    0.0222 C   0  0  0  0  0  0  0  0  0  0  0  0
   -1.5082   -2.2607    0.3997 C   0  0  0  0  0  0  0  0  0  0  0  0
   -1.5930   -0.7755    0.6399 C   0  0  0  0  0  3  0  0  0  0  0  0
   -2.0035   -0.4854    2.0810 C   0  0  0  0  0  0  0  0  0  0  0  0
   -2.5037   -0.1606   -0.3939 C   0  0  0  0  0  0  0  0  0  0  0  0
   -3.6232    0.5087   -0.1669 C   0  0  0  0  0  0  0  0  0  0  0  0
   -0.4266   -3.9835   -0.1343 H   0  0  0  0  0  0  0  0  0  0  0  0
    0.5195   -2.3956   -0.1435 H   0  0  0  0  0  0  0  0  0  0  0  0
   -2.4357   -2.8078    0.5547 H   0  0  0  0  0  0  0  0  0  0  0  0
   -2.0536    0.5887    2.2671 H   0  0  0  0  0  0  0  0  0  0  0  0
   -1.2810   -0.9206    2.7718 H   0  0  0  0  0  0  0  0  0  0  0  0
   -2.9825   -0.9150    2.3055 H   0  0  0  0  0  0  0  0  0  0  0  0
   -2.1845   -0.3170   -1.4211 H   0  0  0  0  0  0  0  0  0  0  0  0
   -3.9960    0.6926    0.8335 H   0  0  0  0  0  0  0  0  0  0  0  0
   -4.2114    0.9033   -0.9858 H   0  0  0  0  0  0  0  0  0  0  0  0
    1.7660   -0.9152   -1.6732 C   0  0  0  0  0  0  0  0  0  0  0  0
    1.7660   -0.9152   -0.1467 C   0  0  0  0  0  0  0  0  0  0  0  0
    0.8027    0.2195    0.2416 C   0  0  0  0  0  0  0  0  0  0  0  0
    1.2554    1.0581    1.4461 C   0  0  0  0  0  0  0  0  0  0  0  0
    2.0674    2.1963    0.8267 C   0  0  0  0  0  0  0  0  0  0  0  0
    1.2554    2.5559   -0.4182 C   0  0  0  0  0  0  0  0  0  0  0  0
    0.8027    1.1991   -0.9776 C   0  0  0  0  0  0  0  0  0  0  0  0
    1.7660    0.5754   -2.0020 C   0  0  0  0  0  0  0  0  0  0  0  0
    2.6109   -1.4534   -2.1055 H   0  0  0  0  0  0  0  0  0  0  0  0
    0.8502   -1.3821   -2.0482 H   0  0  0  0  0  0  0  0  0  0  0  0
    1.4817   -1.8736    0.2899 H   0  0  0  0  0  0  0  0  0  0  0  0
    2.7742   -0.6827    0.2126 H   0  0  0  0  0  0  0  0  0  0  0  0
   -0.3924   -0.2768    0.4403 H   0  0  0  0  0  0  0  0  0  0  0  0
    0.3876    1.4749    1.9645 H   0  0  0  0  0  0  0  0  0  0  0  0
    1.8185    0.4714    2.1744 H   0  0  0  0  0  0  0  0  0  0  0  0
    3.0586    1.8344    0.5360 H   0  0  0  0  0  0  0  0  0  0  0  0
    2.2154    3.0386    1.5035 H   0  0  0  0  0  0  0  0  0  0  0  0
    0.3876    3.1519   -0.1229 H   0  0  0  0  0  0  0  0  0  0  0  0
    1.8185    3.1407   -1.1480 H   0  0  0  0  0  0  0  0  0  0  0  0
   -0.1932    1.2716   -1.4171 H   0  0  0  0  0  0  0  0  0  0  0  0
    1.4817    0.7952   -3.0319 H   0  0  0  0  0  0  0  0  0  0  0  0
    2.7742    0.9763   -1.8523 H   0  0  0  0  0  0  0  0  0  0  0  0
  1  2  2  3
  1  7  1  0
  1  8  1  0
  2  3  1  0
  2  9  1  0
  3  4  1  0
  3  5  1  0
  4 10  1  0
  4 11  1  0
  4 12  1  0
  5  6  2  3
  5 13  1  0
  6 14  1  0
  6 15  1  0
 16 17  1  0
 16 23  1  0
 16 24  1  0
 16 25  1  0
 17 18  1  0
 17 26  1  0
 17 27  1  0
 18 19  1  0
 18 22  1  0
 18 28  1  0
 19 20  1  0
 19 29  1  0
 19 30  1  0
 20 21  1  0
 20 31  1  0
 20 32  1  0
 21 22  1  0
 21 33  1  0
 21 34  1  0
 22 23  1  0
 22 35  1  0
 23 36  1  0
 23 37  1  0
M  RAD  1   3   2
M  END
>  <reaction>  (16) 
rxn_563

>  <mol_properties>  (16) 
{"1": {"label": "*0", "atom_type": "Cd"}, "2": {"label": "*1", "atom_type": "Cs"}, "17": {"label": "*3", "atom_type": "Cs"}, "21": {"label": "*4", "atom_type": "Cs"}, "27": {"label": "*2", "atom_type": "H0"}}

>  <type>  (16) 
unop_12

>  <geom_source>  (16) 
Heuristics

$$$$

     RDKit          3D

 37 37  0  0  0  0  0  0  0  0999 V2000
   -2.1098   -0.2352   -0.1982 C   0  0  0  0  0  0  0  0  0  0  0  0
    1.2856   -0.0895   -0.2228 C   0  0  0  0  0  0  0  0  0  0  0  0
   -1.8559    0.3067   -1.5874 C   0  0  0  0  0  0  0  0  0  0  0  0
   -1.8394   -1.6715    0.1914 C   0  0  0  0  0  0  0  0  0  0  0  0
   -1.5287    1.7972   -1.3203 C   0  0  0  0  0  0  0  0  0  0  0  0
   -1.5007   -1.5607    1.6990 C   0  0  0  0  0  0  0  0  0  0  0  0
   -1.2302    1.9259    0.1898 C   0  0  0  0  0  0  0  0  0  0  0  0
   -1.2135   -0.0700    1.9845 C   0  0  0  0  0  0  0  0  0  0  0  0
    1.4969    0.2785   -1.6969 C   0  0  0  0  0  0  0  0  0  0  0  0
   -1.0875    0.4834    0.5915 C   0  0  0  0  0  3  0  0  0  0  0  0
    1.7040   -1.5072    0.0952 C   0  0  0  0  0  0  0  0  0  0  0  0
    1.9089    0.9077    0.7275 C   0  0  0  0  0  0  0  0  0  0  0  0
    2.9216   -1.9972   -0.1660 C   0  0  0  0  0  0  0  0  0  0  0  0
    3.1984    1.2637    0.6878 C   0  0  0  0  0  0  0  0  0  0  0  0
   -3.1399    0.0508    0.1294 H   0  0  0  0  0  0  0  0  0  0  0  0
   -0.0224   -0.0340   -0.0109 H   0  0  0  0  0  0  0  0  0  0  0  0
   -2.7531    0.1939   -2.2333 H   0  0  0  0  0  0  0  0  0  0  0  0
   -0.9852   -0.2032   -2.0571 H   0  0  0  0  0  0  0  0  0  0  0  0
   -0.6464    2.1077   -1.9212 H   0  0  0  0  0  0  0  0  0  0  0  0
   -2.3950    2.4391   -1.5916 H   0  0  0  0  0  0  0  0  0  0  0  0
   -2.7322   -2.3101    0.0182 H   0  0  0  0  0  0  0  0  0  0  0  0
   -0.9696   -2.0765   -0.3727 H   0  0  0  0  0  0  0  0  0  0  0  0
   -2.3587   -1.9065    2.3157 H   0  0  0  0  0  0  0  0  0  0  0  0
   -0.6105   -2.1830    1.9367 H   0  0  0  0  0  0  0  0  0  0  0  0
   -0.2884    2.4830    0.3784 H   0  0  0  0  0  0  0  0  0  0  0  0
   -2.0822    2.4008    0.7248 H   0  0  0  0  0  0  0  0  0  0  0  0
   -0.2682    0.0672    2.5506 H   0  0  0  0  0  0  0  0  0  0  0  0
   -2.0655    0.4037    2.5204 H   0  0  0  0  0  0  0  0  0  0  0  0
    1.0970    1.2964   -1.8906 H   0  0  0  0  0  0  0  0  0  0  0  0
    0.9497   -0.4386   -2.3448 H   0  0  0  0  0  0  0  0  0  0  0  0
    2.5710    0.2601   -1.9748 H   0  0  0  0  0  0  0  0  0  0  0  0
    0.9734   -2.1609    0.5620 H   0  0  0  0  0  0  0  0  0  0  0  0
    1.2720    1.3574    1.4831 H   0  0  0  0  0  0  0  0  0  0  0  0
    3.6883   -1.3965   -0.6406 H   0  0  0  0  0  0  0  0  0  0  0  0
    3.1557   -3.0251    0.0909 H   0  0  0  0  0  0  0  0  0  0  0  0
    3.5809    1.9849    1.4026 H   0  0  0  0  0  0  0  0  0  0  0  0
    3.8796    0.8577   -0.0504 H   0  0  0  0  0  0  0  0  0  0  0  0
  1  3  1  0
  1  4  1  0
  1 10  1  0
  1 15  1  0
  2  9  1  0
  2 11  1  0
  2 12  1  0
  2 16  1  0
  3  5  1  0
  3 17  1  0
  3 18  1  0
  4  6  1  0
  4 21  1  0
  4 22  1  0
  5  7  1  0
  5 19  1  0
  5 20  1  0
  6  8  1  0
  6 23  1  0
  6 24  1  0
  7 10  1  0
  7 25  1  0
  7 26  1  0
  8 10  1  0
  8 27  1  0
  8 28  1  0
  9 29  1  0
  9 30  1  0
  9 31  1  0
 11 13  2  3
 11 32  1  0
 12 14  2  3
 12 33  1  0
 13 34  1  0
 13 35  1  0
 14 36  1  0
 14 37  1  0
M  RAD  1  10   2
M  END
>  <reaction>  (17) 
rxn_563

>  <mol_properties>  (17) 
{"1": {"label": "*0", "atom_type": "Cd"}, "2": {"label": "*1", "atom_type": "Cs"}, "17": {"label": "*3", "atom_type": "Cs"}, "21": {"label": "*4", "atom_type": "Cs"}, "27": {"label": "*2", "atom_type": "H0"}}

>  <type>  (17) 
unop_13

>  <geom_source>  (17) 
AutoTST

$$$$
