
     RDKit          3D

 15 14  0  0  0  0  0  0  0  0999 V2000
    2.1256    0.4849   -0.6284 C   0  0  0  0  0  0  0  0  0  0  0  0
    1.1128    0.2141    0.1794 C   0  0  0  0  0  0  0  0  0  0  0  0
   -0.3017   -0.0425   -0.2513 C   0  0  0  0  0  0  0  0  0  0  0  0
   -1.2427    1.0075    0.3423 C   0  0  0  0  0  0  0  0  0  0  0  0
   -0.7381   -1.4526    0.1504 C   0  0  0  0  0  0  0  0  0  0  0  0
    3.1243    0.6602   -0.2486 H   0  0  0  0  0  0  0  0  0  0  0  0
    1.9908    0.5411   -1.7036 H   0  0  0  0  0  0  0  0  0  0  0  0
    1.2888    0.1665    1.2533 H   0  0  0  0  0  0  0  0  0  0  0  0
   -0.3426    0.0343   -1.3424 H   0  0  0  0  0  0  0  0  0  0  0  0
   -0.9570    2.0133    0.0315 H   0  0  0  0  0  0  0  0  0  0  0  0
   -1.2189    0.9728    1.4350 H   0  0  0  0  0  0  0  0  0  0  0  0
   -2.2723    0.8287    0.0254 H   0  0  0  0  0  0  0  0  0  0  0  0
   -0.6964   -1.5744    1.2363 H   0  0  0  0  0  0  0  0  0  0  0  0
   -0.0911   -2.2079   -0.2978 H   0  0  0  0  0  0  0  0  0  0  0  0
   -1.7646   -1.6461   -0.1677 H   0  0  0  0  0  0  0  0  0  0  0  0
  1  2  2  3
  1  6  1  0
  1  7  1  0
  2  3  1  0
  2  8  1  0
  3  4  1  0
  3  5  1  0
  3  9  1  0
  4 10  1  0
  4 11  1  0
  4 12  1  0
  5 13  1  0
  5 14  1  0
  5 15  1  0
M  END
>  <reaction>  (1) 
rxn_1116

>  <mol_properties>  (1) 
{"2": {"label": "donator", "atom_type": "Cs"}, "8": {"label": "d_hydrogen", "atom_type": "H0"}}

>  <type>  (1) 
r1h

$$$$

     RDKit          3D

  7  6  0  0  0  0  0  0  0  0999 V2000
   -2.0652    0.3855   -0.2963 S   0  0  0  0  0  0  0  0  0  0  0  0
   -0.7169   -0.5853    0.1792 C   0  0  0  0  0  3  0  0  0  0  0  0
    0.5987   -0.2168    0.0254 C   0  0  0  0  0  0  0  0  0  0  0  0
    1.7547    0.1211   -0.1163 C   0  0  0  0  0  0  0  0  0  0  0  0
   -1.3643    1.4227   -0.7731 H   0  0  0  0  0  0  0  0  0  0  0  0
   -0.9781   -1.5363    0.6220 H   0  0  0  0  0  0  0  0  0  0  0  0
    2.7711    0.4089   -0.2366 H   0  0  0  0  0  0  0  0  0  0  0  0
  1  2  1  0
  1  5  1  0
  2  3  1  0
  2  6  1  0
  3  4  3  0
  4  7  1  0
M  RAD  1   2   2
M  END
>  <reaction>  (2) 
rxn_1116

>  <mol_properties>  (2) 
{"1": {"label": "acceptor", "atom_type": "Cs"}}

>  <type>  (2) 
r2

$$$$

     RDKit          3D

  8  7  0  0  0  0  0  0  0  0999 V2000
   -0.7014    1.0753    1.5530 S   0  0  0  0  0  0  0  0  0  0  0  0
   -0.3105   -0.4583    0.6462 C   0  0  0  0  0  0  0  0  0  0  0  0
    0.0935   -0.2424   -0.7319 C   0  0  0  0  0  0  0  0  0  0  0  0
    0.4431   -0.0604   -1.8621 C   0  0  0  0  0  0  0  0  0  0  0  0
    0.4994    1.6466    1.3970 H   0  0  0  0  0  0  0  0  0  0  0  0
   -1.2277   -1.0477    0.6819 H   0  0  0  0  0  0  0  0  0  0  0  0
    0.4563   -1.0151    1.1841 H   0  0  0  0  0  0  0  0  0  0  0  0
    0.7474    0.1020   -2.8681 H   0  0  0  0  0  0  0  0  0  0  0  0
  1  2  1  0
  1  5  1  0
  2  3  1  0
  2  6  1  0
  2  7  1  0
  3  4  3  0
  4  8  1  0
M  END
>  <reaction>  (3) 
rxn_1116

>  <mol_properties>  (3) 
{"1": {"label": "acceptor", "atom_type": "Cs"}, "7": {"label": "a_hydrogen", "atom_type": "H0"}}

>  <type>  (3) 
r2h

$$$$

     RDKit          3D

 22 20  0  0  0  0  0  0  0  0999 V2000
   -1.7275    1.4245   -1.0340 S   0  0  0  0  0  0  0  0  0  0  0  0
   -0.2359    1.4871   -0.0541 C   0  0  0  0  0  3  0  0  0  0  0  0
    0.9530    1.6023   -0.8197 C   0  0  0  0  0  0  0  0  0  0  0  0
    1.9743    1.6365   -1.4537 C   0  0  0  0  0  0  0  0  0  0  0  0
   -2.5658    1.2978    0.0036 H   0  0  0  0  0  0  0  0  0  0  0  0
   -0.2953    2.1708    0.7892 H   0  0  0  0  0  0  0  0  0  0  0  0
    2.8733    1.6829   -2.0195 H   0  0  0  0  0  0  0  0  0  0  0  0
    0.9538   -2.3994   -0.6104 C   0  0  0  0  0  0  0  0  0  0  0  0
   -0.0768   -1.8440    0.0311 C   0  0  0  0  0  0  0  0  0  0  0  0
   -0.0008   -0.9115    1.1552 C   0  0  0  0  0  0  0  0  0  0  0  0
    1.3352   -0.7488    1.8395 C   0  0  0  0  0  0  0  0  0  0  0  0
   -1.1909   -0.9323    2.0889 C   0  0  0  0  0  0  0  0  0  0  0  0
    0.7934   -3.0472   -1.4621 H   0  0  0  0  0  0  0  0  0  0  0  0
    1.9805   -2.2306   -0.3104 H   0  0  0  0  0  0  0  0  0  0  0  0
   -1.0801   -2.0556   -0.3296 H   0  0  0  0  0  0  0  0  0  0  0  0
   -0.1357    0.2529    0.5473 H   0  0  0  0  0  0  0  0  0  0  0  0
    2.1176   -0.4751    1.1302 H   0  0  0  0  0  0  0  0  0  0  0  0
    1.6363   -1.6768    2.3357 H   0  0  0  0  0  0  0  0  0  0  0  0
    1.2842    0.0351    2.5974 H   0  0  0  0  0  0  0  0  0  0  0  0
   -1.1531   -1.8039    2.7503 H   0  0  0  0  0  0  0  0  0  0  0  0
   -2.1297   -0.9799    1.5333 H   0  0  0  0  0  0  0  0  0  0  0  0
   -1.2099   -0.0417    2.7217 H   0  0  0  0  0  0  0  0  0  0  0  0
  1  2  1  0
  1  5  1  0
  2  3  1  0
  2  6  1  0
  3  4  3  0
  4  7  1  0
  8  9  2  3
  8 13  1  0
  8 14  1  0
  9 10  1  0
  9 15  1  0
 10 11  1  0
 10 12  1  0
 10 16  1  0
 11 17  1  0
 11 18  1  0
 11 19  1  0
 12 20  1  0
 12 21  1  0
 12 22  1  0
M  RAD  1   2   2
M  END
>  <reaction>  (4) 
rxn_1116

>  <mol_properties>  (4) 
{"0": {"label": "*4", "atom_type": "S2s"}, "1": {"label": "*3", "atom_type": "Cs"}, "8": {"label": "*0", "atom_type": "Cd"}, "9": {"label": "*1", "atom_type": "Cs"}, "15": {"label": "*2", "atom_type": "H0"}}

>  <type>  (4) 
ts

$$$$

     RDKit          3D

 22 20  0  0  0  0  0  0  0  0999 V2000
   -1.3129    1.8718    0.0055 S   0  0  0  0  0  0  0  0  0  0  0  0
    0.2134    0.9700   -0.4238 C   0  0  0  0  0  0  0  0  0  0  0  0
    0.7330    1.2837   -1.7431 C   0  0  0  0  0  0  0  0  0  0  0  0
    1.1614    1.5422   -2.8305 C   0  0  0  0  0  0  0  0  0  0  0  0
   -0.7994    3.1006   -0.1327 H   0  0  0  0  0  0  0  0  0  0  0  0
    0.9743    1.1592    0.3327 H   0  0  0  0  0  0  0  0  0  0  0  0
    1.5419    1.7719   -3.7967 H   0  0  0  0  0  0  0  0  0  0  0  0
    0.2134   -2.3607   -1.0611 C   0  0  0  0  0  0  0  0  0  0  0  0
    0.2134   -2.3607    0.2624 C   0  0  0  0  0  0  0  0  0  0  0  0
    0.2134   -1.1393    1.1345 C   0  0  0  0  0  3  0  0  0  0  0  0
    1.4727   -1.0989    2.0021 C   0  0  0  0  0  0  0  0  0  0  0  0
   -1.0459   -1.0989    2.0021 C   0  0  0  0  0  0  0  0  0  0  0  0
    0.2134   -3.2824   -1.6293 H   0  0  0  0  0  0  0  0  0  0  0  0
    0.2134   -1.4342   -1.6256 H   0  0  0  0  0  0  0  0  0  0  0  0
    0.2134   -3.3120    0.7930 H   0  0  0  0  0  0  0  0  0  0  0  0
    0.2134   -0.0829    0.3540 H   0  0  0  0  0  0  0  0  0  0  0  0
    2.3742   -1.0930    1.3880 H   0  0  0  0  0  0  0  0  0  0  0  0
    1.5172   -1.9727    2.6579 H   0  0  0  0  0  0  0  0  0  0  0  0
    1.4802   -0.2077    2.6331 H   0  0  0  0  0  0  0  0  0  0  0  0
   -1.0905   -1.9727    2.6579 H   0  0  0  0  0  0  0  0  0  0  0  0
   -1.9475   -1.0930    1.3880 H   0  0  0  0  0  0  0  0  0  0  0  0
   -1.0535   -0.2077    2.6331 H   0  0  0  0  0  0  0  0  0  0  0  0
  1  2  1  0
  1  5  1  0
  2  3  1  0
  2  6  1  0
  2 16  1  0
  3  4  3  0
  4  7  1  0
  8  9  2  3
  8 13  1  0
  8 14  1  0
  9 10  1  0
  9 15  1  0
 10 11  1  0
 10 12  1  0
 11 17  1  0
 11 18  1  0
 11 19  1  0
 12 20  1  0
 12 21  1  0
 12 22  1  0
M  RAD  1  10   2
M  END
>  <reaction>  (5) 
rxn_1116

>  <mol_properties>  (5) 
{"0": {"label": "*4", "atom_type": "S2s"}, "1": {"label": "*3", "atom_type": "Cs"}, "8": {"label": "*0", "atom_type": "Cd"}, "9": {"label": "*1", "atom_type": "Cs"}, "15": {"label": "*2", "atom_type": "H0"}}

>  <type>  (5) 
unop_1

>  <geom_source>  (5) 
Heuristics

$$$$

     RDKit          3D

 22 20  0  0  0  0  0  0  0  0999 V2000
   -0.9696    0.6405   -1.7498 S   0  0  0  0  0  0  0  0  0  0  0  0
   -0.0884    1.1691   -0.2428 C   0  0  0  0  0  0  0  0  0  0  0  0
    1.0768    1.9968   -0.5000 C   0  0  0  0  0  0  0  0  0  0  0  0
    2.0372    2.6790   -0.7120 C   0  0  0  0  0  0  0  0  0  0  0  0
   -1.2290    1.8722   -2.2060 H   0  0  0  0  0  0  0  0  0  0  0  0
   -0.7787    1.6904    0.4199 H   0  0  0  0  0  0  0  0  0  0  0  0
    2.8905    3.2851   -0.9004 H   0  0  0  0  0  0  0  0  0  0  0  0
   -0.0884   -2.1616   -0.8800 C   0  0  0  0  0  0  0  0  0  0  0  0
   -0.0884   -2.1616    0.4435 C   0  0  0  0  0  0  0  0  0  0  0  0
   -0.0884   -0.9402    1.3155 C   0  0  0  0  0  3  0  0  0  0  0  0
    1.1709   -0.8997    2.1832 C   0  0  0  0  0  0  0  0  0  0  0  0
   -1.3477   -0.8997    2.1832 C   0  0  0  0  0  0  0  0  0  0  0  0
   -0.0884   -3.0833   -1.4483 H   0  0  0  0  0  0  0  0  0  0  0  0
   -0.0884   -1.2350   -1.4446 H   0  0  0  0  0  0  0  0  0  0  0  0
   -0.0884   -3.1129    0.9740 H   0  0  0  0  0  0  0  0  0  0  0  0
   -0.0884    0.1162    0.5351 H   0  0  0  0  0  0  0  0  0  0  0  0
    2.0724   -0.8938    1.5690 H   0  0  0  0  0  0  0  0  0  0  0  0
    1.2155   -1.7736    2.8390 H   0  0  0  0  0  0  0  0  0  0  0  0
    1.1784   -0.0085    2.8142 H   0  0  0  0  0  0  0  0  0  0  0  0
   -1.3923   -1.7736    2.8390 H   0  0  0  0  0  0  0  0  0  0  0  0
   -2.2493   -0.8938    1.5690 H   0  0  0  0  0  0  0  0  0  0  0  0
   -1.3553   -0.0085    2.8142 H   0  0  0  0  0  0  0  0  0  0  0  0
  1  2  1  0
  1  5  1  0
  2  3  1  0
  2  6  1  0
  2 16  1  0
  3  4  3  0
  4  7  1  0
  8  9  2  3
  8 13  1  0
  8 14  1  0
  9 10  1  0
  9 15  1  0
 10 11  1  0
 10 12  1  0
 11 17  1  0
 11 18  1  0
 11 19  1  0
 12 20  1  0
 12 21  1  0
 12 22  1  0
M  RAD  1  10   2
M  END
>  <reaction>  (6) 
rxn_1116

>  <mol_properties>  (6) 
{"0": {"label": "*4", "atom_type": "S2s"}, "1": {"label": "*3", "atom_type": "Cs"}, "8": {"label": "*0", "atom_type": "Cd"}, "9": {"label": "*1", "atom_type": "Cs"}, "15": {"label": "*2", "atom_type": "H0"}}

>  <type>  (6) 
unop_2

>  <geom_source>  (6) 
Heuristics

$$$$

     RDKit          3D

 22 20  0  0  0  0  0  0  0  0999 V2000
   -0.6325    2.2291    0.4401 S   0  0  0  0  0  0  0  0  0  0  0  0
    0.2487    0.9440   -0.5081 C   0  0  0  0  0  0  0  0  0  0  0  0
    0.0384    1.0206   -1.9430 C   0  0  0  0  0  0  0  0  0  0  0  0
   -0.1349    1.0838   -3.1256 C   0  0  0  0  0  0  0  0  0  0  0  0
   -0.0621    3.2760   -0.1692 H   0  0  0  0  0  0  0  0  0  0  0  0
    1.3138    0.9900   -0.2831 H   0  0  0  0  0  0  0  0  0  0  0  0
   -0.2889    1.1399   -4.1764 H   0  0  0  0  0  0  0  0  0  0  0  0
    0.2487   -2.3867   -1.1453 C   0  0  0  0  0  0  0  0  0  0  0  0
    0.2487   -2.3867    0.1782 C   0  0  0  0  0  0  0  0  0  0  0  0
    0.2487   -1.1653    1.0502 C   0  0  0  0  0  3  0  0  0  0  0  0
    1.5080   -1.1249    1.9179 C   0  0  0  0  0  0  0  0  0  0  0  0
   -1.0106   -1.1249    1.9179 C   0  0  0  0  0  0  0  0  0  0  0  0
    0.2487   -3.3084   -1.7136 H   0  0  0  0  0  0  0  0  0  0  0  0
    0.2487   -1.4602   -1.7099 H   0  0  0  0  0  0  0  0  0  0  0  0
    0.2487   -3.3380    0.7087 H   0  0  0  0  0  0  0  0  0  0  0  0
    0.2487   -0.1089    0.2698 H   0  0  0  0  0  0  0  0  0  0  0  0
    2.4095   -1.1190    1.3037 H   0  0  0  0  0  0  0  0  0  0  0  0
    1.5526   -1.9987    2.5737 H   0  0  0  0  0  0  0  0  0  0  0  0
    1.5155   -0.2337    2.5489 H   0  0  0  0  0  0  0  0  0  0  0  0
   -1.0552   -1.9987    2.5737 H   0  0  0  0  0  0  0  0  0  0  0  0
   -1.9122   -1.1190    1.3037 H   0  0  0  0  0  0  0  0  0  0  0  0
   -1.0182   -0.2337    2.5489 H   0  0  0  0  0  0  0  0  0  0  0  0
  1  2  1  0
  1  5  1  0
  2  3  1  0
  2  6  1  0
  2 16  1  0
  3  4  3  0
  4  7  1  0
  8  9  2  3
  8 13  1  0
  8 14  1  0
  9 10  1  0
  9 15  1  0
 10 11  1  0
 10 12  1  0
 11 17  1  0
 11 18  1  0
 11 19  1  0
 12 20  1  0
 12 21  1  0
 12 22  1  0
M  RAD  1  10   2
M  END
>  <reaction>  (7) 
rxn_1116

>  <mol_properties>  (7) 
{"0": {"label": "*4", "atom_type": "S2s"}, "1": {"label": "*3", "atom_type": "Cs"}, "8": {"label": "*0", "atom_type": "Cd"}, "9": {"label": "*1", "atom_type": "Cs"}, "15": {"label": "*2", "atom_type": "H0"}}

>  <type>  (7) 
unop_3

>  <geom_source>  (7) 
Heuristics

$$$$

     RDKit          3D

 22 20  0  0  0  0  0  0  0  0999 V2000
    1.1279    0.9654   -1.7372 S   0  0  0  0  0  0  0  0  0  0  0  0
   -0.3983    1.1107   -0.7490 C   0  0  0  0  0  0  0  0  0  0  0  0
   -0.2227    1.8165    0.5080 C   0  0  0  0  0  0  0  0  0  0  0  0
   -0.0779    2.3982    1.5440 C   0  0  0  0  0  0  0  0  0  0  0  0
    1.3579    2.2801   -1.8436 H   0  0  0  0  0  0  0  0  0  0  0  0
   -1.1737    1.5928   -1.3436 H   0  0  0  0  0  0  0  0  0  0  0  0
    0.0507    2.9151    2.4645 H   0  0  0  0  0  0  0  0  0  0  0  0
   -0.3983   -2.2200   -1.3862 C   0  0  0  0  0  0  0  0  0  0  0  0
   -0.3983   -2.2200   -0.0627 C   0  0  0  0  0  0  0  0  0  0  0  0
   -0.3983   -0.9986    0.8093 C   0  0  0  0  0  3  0  0  0  0  0  0
    0.8610   -0.9581    1.6770 C   0  0  0  0  0  0  0  0  0  0  0  0
   -1.6576   -0.9581    1.6770 C   0  0  0  0  0  0  0  0  0  0  0  0
   -0.3983   -3.1417   -1.9545 H   0  0  0  0  0  0  0  0  0  0  0  0
   -0.3983   -1.2934   -1.9508 H   0  0  0  0  0  0  0  0  0  0  0  0
   -0.3983   -3.1713    0.4678 H   0  0  0  0  0  0  0  0  0  0  0  0
   -0.3983    0.0578    0.0289 H   0  0  0  0  0  0  0  0  0  0  0  0
    1.7626   -0.9523    1.0628 H   0  0  0  0  0  0  0  0  0  0  0  0
    0.9056   -1.8320    2.3328 H   0  0  0  0  0  0  0  0  0  0  0  0
    0.8685   -0.0669    2.3080 H   0  0  0  0  0  0  0  0  0  0  0  0
   -1.7022   -1.8320    2.3328 H   0  0  0  0  0  0  0  0  0  0  0  0
   -2.5592   -0.9523    1.0628 H   0  0  0  0  0  0  0  0  0  0  0  0
   -1.6651   -0.0669    2.3080 H   0  0  0  0  0  0  0  0  0  0  0  0
  1  2  1  0
  1  5  1  0
  2  3  1  0
  2  6  1  0
  2 16  1  0
  3  4  3  0
  4  7  1  0
  8  9  2  3
  8 13  1  0
  8 14  1  0
  9 10  1  0
  9 15  1  0
 10 11  1  0
 10 12  1  0
 11 17  1  0
 11 18  1  0
 11 19  1  0
 12 20  1  0
 12 21  1  0
 12 22  1  0
M  RAD  1  10   2
M  END
>  <reaction>  (8) 
rxn_1116

>  <mol_properties>  (8) 
{"0": {"label": "*4", "atom_type": "S2s"}, "1": {"label": "*3", "atom_type": "Cs"}, "8": {"label": "*0", "atom_type": "Cd"}, "9": {"label": "*1", "atom_type": "Cs"}, "15": {"label": "*2", "atom_type": "H0"}}

>  <type>  (8) 
unop_4

>  <geom_source>  (8) 
Heuristics

$$$$

     RDKit          3D

 22 20  0  0  0  0  0  0  0  0999 V2000
    0.2886    2.3677    0.4546 S   0  0  0  0  0  0  0  0  0  0  0  0
    0.2886    0.9423   -0.6834 C   0  0  0  0  0  0  0  0  0  0  0  0
   -0.8530    0.9030   -1.5803 C   0  0  0  0  0  0  0  0  0  0  0  0
   -1.7938    0.8706   -2.3195 C   0  0  0  0  0  0  0  0  0  0  0  0
    0.2709    3.3116   -0.4947 H   0  0  0  0  0  0  0  0  0  0  0  0
    1.2152    0.9327   -1.2566 H   0  0  0  0  0  0  0  0  0  0  0  0
   -2.6298    0.8418   -2.9762 H   0  0  0  0  0  0  0  0  0  0  0  0
    0.2886   -2.3884   -1.3207 C   0  0  0  0  0  0  0  0  0  0  0  0
    0.2886   -2.3884    0.0028 C   0  0  0  0  0  0  0  0  0  0  0  0
    0.2886   -1.1670    0.8749 C   0  0  0  0  0  3  0  0  0  0  0  0
    1.5479   -1.1266    1.7425 C   0  0  0  0  0  0  0  0  0  0  0  0
   -0.9707   -1.1266    1.7425 C   0  0  0  0  0  0  0  0  0  0  0  0
    0.2886   -3.3101   -1.8889 H   0  0  0  0  0  0  0  0  0  0  0  0
    0.2886   -1.4619   -1.8852 H   0  0  0  0  0  0  0  0  0  0  0  0
    0.2886   -3.3397    0.5334 H   0  0  0  0  0  0  0  0  0  0  0  0
    0.2886   -0.1106    0.0944 H   0  0  0  0  0  0  0  0  0  0  0  0
    2.4494   -1.1207    1.1284 H   0  0  0  0  0  0  0  0  0  0  0  0
    1.5925   -2.0004    2.3983 H   0  0  0  0  0  0  0  0  0  0  0  0
    1.5554   -0.2354    2.3735 H   0  0  0  0  0  0  0  0  0  0  0  0
   -1.0153   -2.0004    2.3983 H   0  0  0  0  0  0  0  0  0  0  0  0
   -1.8723   -1.1207    1.1284 H   0  0  0  0  0  0  0  0  0  0  0  0
   -0.9782   -0.2354    2.3735 H   0  0  0  0  0  0  0  0  0  0  0  0
  1  2  1  0
  1  5  1  0
  2  3  1  0
  2  6  1  0
  2 16  1  0
  3  4  3  0
  4  7  1  0
  8  9  2  3
  8 13  1  0
  8 14  1  0
  9 10  1  0
  9 15  1  0
 10 11  1  0
 10 12  1  0
 11 17  1  0
 11 18  1  0
 11 19  1  0
 12 20  1  0
 12 21  1  0
 12 22  1  0
M  RAD  1  10   2
M  END
>  <reaction>  (9) 
rxn_1116

>  <mol_properties>  (9) 
{"0": {"label": "*4", "atom_type": "S2s"}, "1": {"label": "*3", "atom_type": "Cs"}, "8": {"label": "*0", "atom_type": "Cd"}, "9": {"label": "*1", "atom_type": "Cs"}, "15": {"label": "*2", "atom_type": "H0"}}

>  <type>  (9) 
unop_5

>  <geom_source>  (9) 
Heuristics

$$$$

     RDKit          3D

 22 20  0  0  0  0  0  0  0  0999 V2000
    1.4911    1.4150   -1.1917 S   0  0  0  0  0  0  0  0  0  0  0  0
   -0.2713    1.0367   -0.9123 C   0  0  0  0  0  0  0  0  0  0  0  0
   -0.7958    1.5578    0.3376 C   0  0  0  0  0  0  0  0  0  0  0  0
   -1.2282    1.9873    1.3678 C   0  0  0  0  0  0  0  0  0  0  0  0
    1.3651    2.7466   -1.1320 H   0  0  0  0  0  0  0  0  0  0  0  0
   -0.8616    1.4080   -1.7495 H   0  0  0  0  0  0  0  0  0  0  0  0
   -1.6124    2.3689    2.2832 H   0  0  0  0  0  0  0  0  0  0  0  0
   -0.2713   -2.2940   -1.5495 C   0  0  0  0  0  0  0  0  0  0  0  0
   -0.2713   -2.2940   -0.2260 C   0  0  0  0  0  0  0  0  0  0  0  0
   -0.2713   -1.0726    0.6460 C   0  0  0  0  0  3  0  0  0  0  0  0
    0.9880   -1.0321    1.5137 C   0  0  0  0  0  0  0  0  0  0  0  0
   -1.5306   -1.0321    1.5137 C   0  0  0  0  0  0  0  0  0  0  0  0
   -0.2713   -3.2157   -2.1178 H   0  0  0  0  0  0  0  0  0  0  0  0
   -0.2713   -1.3674   -2.1141 H   0  0  0  0  0  0  0  0  0  0  0  0
   -0.2713   -3.2453    0.3045 H   0  0  0  0  0  0  0  0  0  0  0  0
   -0.2713   -0.0162   -0.1344 H   0  0  0  0  0  0  0  0  0  0  0  0
    1.8896   -1.0262    0.8995 H   0  0  0  0  0  0  0  0  0  0  0  0
    1.0326   -1.9060    2.1694 H   0  0  0  0  0  0  0  0  0  0  0  0
    0.9956   -0.1409    2.1446 H   0  0  0  0  0  0  0  0  0  0  0  0
   -1.5752   -1.9060    2.1694 H   0  0  0  0  0  0  0  0  0  0  0  0
   -2.4321   -1.0262    0.8995 H   0  0  0  0  0  0  0  0  0  0  0  0
   -1.5381   -0.1409    2.1446 H   0  0  0  0  0  0  0  0  0  0  0  0
  1  2  1  0
  1  5  1  0
  2  3  1  0
  2  6  1  0
  2 16  1  0
  3  4  3  0
  4  7  1  0
  8  9  2  3
  8 13  1  0
  8 14  1  0
  9 10  1  0
  9 15  1  0
 10 11  1  0
 10 12  1  0
 11 17  1  0
 11 18  1  0
 11 19  1  0
 12 20  1  0
 12 21  1  0
 12 22  1  0
M  RAD  1  10   2
M  END
>  <reaction>  (10) 
rxn_1116

>  <mol_properties>  (10) 
{"0": {"label": "*4", "atom_type": "S2s"}, "1": {"label": "*3", "atom_type": "Cs"}, "8": {"label": "*0", "atom_type": "Cd"}, "9": {"label": "*1", "atom_type": "Cs"}, "15": {"label": "*2", "atom_type": "H0"}}

>  <type>  (10) 
unop_6

>  <geom_source>  (10) 
Heuristics

$$$$

     RDKit          3D

 22 20  0  0  0  0  0  0  0  0999 V2000
    1.4642    1.8808   -0.5514 S   0  0  0  0  0  0  0  0  0  0  0  0
   -0.0620    0.9789   -0.9807 C   0  0  0  0  0  0  0  0  0  0  0  0
   -1.1804    1.2572   -0.0971 C   0  0  0  0  0  0  0  0  0  0  0  0
   -2.1022    1.4866    0.6311 C   0  0  0  0  0  0  0  0  0  0  0  0
    0.9415    3.1090   -0.6555 H   0  0  0  0  0  0  0  0  0  0  0  0
   -0.3370    1.1969   -2.0123 H   0  0  0  0  0  0  0  0  0  0  0  0
   -2.9212    1.6904    1.2782 H   0  0  0  0  0  0  0  0  0  0  0  0
   -0.0620   -2.3518   -1.6180 C   0  0  0  0  0  0  0  0  0  0  0  0
   -0.0620   -2.3518   -0.2945 C   0  0  0  0  0  0  0  0  0  0  0  0
   -0.0620   -1.1304    0.5775 C   0  0  0  0  0  3  0  0  0  0  0  0
    1.1973   -1.0899    1.4452 C   0  0  0  0  0  0  0  0  0  0  0  0
   -1.3213   -1.0899    1.4452 C   0  0  0  0  0  0  0  0  0  0  0  0
   -0.0620   -3.2735   -2.1863 H   0  0  0  0  0  0  0  0  0  0  0  0
   -0.0620   -1.4252   -2.1826 H   0  0  0  0  0  0  0  0  0  0  0  0
   -0.0620   -3.3031    0.2361 H   0  0  0  0  0  0  0  0  0  0  0  0
   -0.0620   -0.0740   -0.2029 H   0  0  0  0  0  0  0  0  0  0  0  0
    2.0989   -1.0840    0.8310 H   0  0  0  0  0  0  0  0  0  0  0  0
    1.2419   -1.9638    2.1010 H   0  0  0  0  0  0  0  0  0  0  0  0
    1.2048   -0.1987    2.0762 H   0  0  0  0  0  0  0  0  0  0  0  0
   -1.3659   -1.9638    2.1010 H   0  0  0  0  0  0  0  0  0  0  0  0
   -2.2229   -1.0840    0.8310 H   0  0  0  0  0  0  0  0  0  0  0  0
   -1.3288   -0.1987    2.0762 H   0  0  0  0  0  0  0  0  0  0  0  0
  1  2  1  0
  1  5  1  0
  2  3  1  0
  2  6  1  0
  2 16  1  0
  3  4  3  0
  4  7  1  0
  8  9  2  3
  8 13  1  0
  8 14  1  0
  9 10  1  0
  9 15  1  0
 10 11  1  0
 10 12  1  0
 11 17  1  0
 11 18  1  0
 11 19  1  0
 12 20  1  0
 12 21  1  0
 12 22  1  0
M  RAD  1  10   2
M  END
>  <reaction>  (11) 
rxn_1116

>  <mol_properties>  (11) 
{"0": {"label": "*4", "atom_type": "S2s"}, "1": {"label": "*3", "atom_type": "Cs"}, "8": {"label": "*0", "atom_type": "Cd"}, "9": {"label": "*1", "atom_type": "Cs"}, "15": {"label": "*2", "atom_type": "H0"}}

>  <type>  (11) 
unop_7

>  <geom_source>  (11) 
Heuristics

$$$$

     RDKit          3D

 22 20  0  0  0  0  0  0  0  0999 V2000
   -1.5834    1.4058   -0.6221 S   0  0  0  0  0  0  0  0  0  0  0  0
    0.1790    1.0276   -0.3426 C   0  0  0  0  0  0  0  0  0  0  0  0
    1.0686    1.5849   -1.3461 C   0  0  0  0  0  0  0  0  0  0  0  0
    1.8019    2.0442   -2.1732 C   0  0  0  0  0  0  0  0  0  0  0  0
   -1.4518    2.7380   -0.5973 H   0  0  0  0  0  0  0  0  0  0  0  0
    0.4730    1.3695    0.6493 H   0  0  0  0  0  0  0  0  0  0  0  0
    2.4534    2.4523   -2.9081 H   0  0  0  0  0  0  0  0  0  0  0  0
    0.1790   -2.3031   -0.9798 C   0  0  0  0  0  0  0  0  0  0  0  0
    0.1790   -2.3031    0.3436 C   0  0  0  0  0  0  0  0  0  0  0  0
    0.1790   -1.0817    1.2157 C   0  0  0  0  0  3  0  0  0  0  0  0
    1.4383   -1.0413    2.0833 C   0  0  0  0  0  0  0  0  0  0  0  0
   -1.0803   -1.0413    2.0833 C   0  0  0  0  0  0  0  0  0  0  0  0
    0.1790   -3.2248   -1.5481 H   0  0  0  0  0  0  0  0  0  0  0  0
    0.1790   -1.3765   -1.5444 H   0  0  0  0  0  0  0  0  0  0  0  0
    0.1790   -3.2544    0.8742 H   0  0  0  0  0  0  0  0  0  0  0  0
    0.1790   -0.0253    0.4352 H   0  0  0  0  0  0  0  0  0  0  0  0
    2.3398   -1.0354    1.4692 H   0  0  0  0  0  0  0  0  0  0  0  0
    1.4829   -1.9151    2.7391 H   0  0  0  0  0  0  0  0  0  0  0  0
    1.4458   -0.1501    2.7143 H   0  0  0  0  0  0  0  0  0  0  0  0
   -1.1249   -1.9151    2.7391 H   0  0  0  0  0  0  0  0  0  0  0  0
   -1.9819   -1.0354    1.4692 H   0  0  0  0  0  0  0  0  0  0  0  0
   -1.0879   -0.1501    2.7143 H   0  0  0  0  0  0  0  0  0  0  0  0
  1  2  1  0
  1  5  1  0
  2  3  1  0
  2  6  1  0
  2 16  1  0
  3  4  3  0
  4  7  1  0
  8  9  2  3
  8 13  1  0
  8 14  1  0
  9 10  1  0
  9 15  1  0
 10 11  1  0
 10 12  1  0
 11 17  1  0
 11 18  1  0
 11 19  1  0
 12 20  1  0
 12 21  1  0
 12 22  1  0
M  RAD  1  10   2
M  END
>  <reaction>  (12) 
rxn_1116

>  <mol_properties>  (12) 
{"0": {"label": "*4", "atom_type": "S2s"}, "1": {"label": "*3", "atom_type": "Cs"}, "8": {"label": "*0", "atom_type": "Cd"}, "9": {"label": "*1", "atom_type": "Cs"}, "15": {"label": "*2", "atom_type": "H0"}}

>  <type>  (12) 
unop_8

>  <geom_source>  (12) 
Heuristics

$$$$

     RDKit          3D

 22 20  0  0  0  0  0  0  0  0999 V2000
    0.4721    0.6452   -2.0423 S   0  0  0  0  0  0  0  0  0  0  0  0
   -0.4091    1.1738   -0.5353 C   0  0  0  0  0  0  0  0  0  0  0  0
    0.3937    1.9829    0.3647 C   0  0  0  0  0  0  0  0  0  0  0  0
    1.0553    2.6498    1.1065 C   0  0  0  0  0  0  0  0  0  0  0  0
    0.7620    1.8766   -2.4807 H   0  0  0  0  0  0  0  0  0  0  0  0
   -1.3163    1.7102   -0.8120 H   0  0  0  0  0  0  0  0  0  0  0  0
    1.6432    3.2423    1.7655 H   0  0  0  0  0  0  0  0  0  0  0  0
   -0.4091   -2.1569   -1.1725 C   0  0  0  0  0  0  0  0  0  0  0  0
   -0.4091   -2.1569    0.1510 C   0  0  0  0  0  0  0  0  0  0  0  0
   -0.4091   -0.9355    1.0230 C   0  0  0  0  0  3  0  0  0  0  0  0
    0.8502   -0.8950    1.8906 C   0  0  0  0  0  0  0  0  0  0  0  0
   -1.6684   -0.8950    1.8906 C   0  0  0  0  0  0  0  0  0  0  0  0
   -0.4091   -3.0786   -1.7408 H   0  0  0  0  0  0  0  0  0  0  0  0
   -0.4091   -1.2303   -1.7371 H   0  0  0  0  0  0  0  0  0  0  0  0
   -0.4091   -3.1082    0.6815 H   0  0  0  0  0  0  0  0  0  0  0  0
   -0.4091    0.1209    0.2425 H   0  0  0  0  0  0  0  0  0  0  0  0
    1.7518   -0.8891    1.2765 H   0  0  0  0  0  0  0  0  0  0  0  0
    0.8948   -1.7689    2.5464 H   0  0  0  0  0  0  0  0  0  0  0  0
    0.8577   -0.0038    2.5216 H   0  0  0  0  0  0  0  0  0  0  0  0
   -1.7130   -1.7689    2.5464 H   0  0  0  0  0  0  0  0  0  0  0  0
   -2.5700   -0.8891    1.2765 H   0  0  0  0  0  0  0  0  0  0  0  0
   -1.6759   -0.0038    2.5216 H   0  0  0  0  0  0  0  0  0  0  0  0
  1  2  1  0
  1  5  1  0
  2  3  1  0
  2  6  1  0
  2 16  1  0
  3  4  3  0
  4  7  1  0
  8  9  2  3
  8 13  1  0
  8 14  1  0
  9 10  1  0
  9 15  1  0
 10 11  1  0
 10 12  1  0
 11 17  1  0
 11 18  1  0
 11 19  1  0
 12 20  1  0
 12 21  1  0
 12 22  1  0
M  RAD  1  10   2
M  END
>  <reaction>  (13) 
rxn_1116

>  <mol_properties>  (13) 
{"0": {"label": "*4", "atom_type": "S2s"}, "1": {"label": "*3", "atom_type": "Cs"}, "8": {"label": "*0", "atom_type": "Cd"}, "9": {"label": "*1", "atom_type": "Cs"}, "15": {"label": "*2", "atom_type": "H0"}}

>  <type>  (13) 
unop_9

>  <geom_source>  (13) 
Heuristics

$$$$

     RDKit          3D

 22 20  0  0  0  0  0  0  0  0999 V2000
   -1.4411    0.9576   -1.2524 S   0  0  0  0  0  0  0  0  0  0  0  0
    0.0852    1.1029   -0.2642 C   0  0  0  0  0  0  0  0  0  0  0  0
    1.1482    1.8395   -0.9248 C   0  0  0  0  0  0  0  0  0  0  0  0
    2.0243    2.4466   -1.4693 C   0  0  0  0  0  0  0  0  0  0  0  0
   -1.6519    2.2727   -1.3885 H   0  0  0  0  0  0  0  0  0  0  0  0
   -0.1449    1.5601    0.6978 H   0  0  0  0  0  0  0  0  0  0  0  0
    2.8028    2.9860   -1.9531 H   0  0  0  0  0  0  0  0  0  0  0  0
    0.0852   -2.2278   -0.9014 C   0  0  0  0  0  0  0  0  0  0  0  0
    0.0852   -2.2278    0.4221 C   0  0  0  0  0  0  0  0  0  0  0  0
    0.0852   -1.0064    1.2941 C   0  0  0  0  0  3  0  0  0  0  0  0
    1.3445   -0.9659    2.1618 C   0  0  0  0  0  0  0  0  0  0  0  0
   -1.1741   -0.9659    2.1618 C   0  0  0  0  0  0  0  0  0  0  0  0
    0.0852   -3.1495   -1.4697 H   0  0  0  0  0  0  0  0  0  0  0  0
    0.0852   -1.3012   -1.4660 H   0  0  0  0  0  0  0  0  0  0  0  0
    0.0852   -3.1791    0.9526 H   0  0  0  0  0  0  0  0  0  0  0  0
    0.0852    0.0500    0.5137 H   0  0  0  0  0  0  0  0  0  0  0  0
    2.2460   -0.9600    1.5476 H   0  0  0  0  0  0  0  0  0  0  0  0
    1.3890   -1.8398    2.8176 H   0  0  0  0  0  0  0  0  0  0  0  0
    1.3520   -0.0747    2.7927 H   0  0  0  0  0  0  0  0  0  0  0  0
   -1.2187   -1.8398    2.8176 H   0  0  0  0  0  0  0  0  0  0  0  0
   -2.0757   -0.9600    1.5476 H   0  0  0  0  0  0  0  0  0  0  0  0
   -1.1817   -0.0747    2.7927 H   0  0  0  0  0  0  0  0  0  0  0  0
  1  2  1  0
  1  5  1  0
  2  3  1  0
  2  6  1  0
  2 16  1  0
  3  4  3  0
  4  7  1  0
  8  9  2  3
  8 13  1  0
  8 14  1  0
  9 10  1  0
  9 15  1  0
 10 11  1  0
 10 12  1  0
 11 17  1  0
 11 18  1  0
 11 19  1  0
 12 20  1  0
 12 21  1  0
 12 22  1  0
M  RAD  1  10   2
M  END
>  <reaction>  (14) 
rxn_1116

>  <mol_properties>  (14) 
{"0": {"label": "*4", "atom_type": "S2s"}, "1": {"label": "*3", "atom_type": "Cs"}, "8": {"label": "*0", "atom_type": "Cd"}, "9": {"label": "*1", "atom_type": "Cs"}, "15": {"label": "*2", "atom_type": "H0"}}

>  <type>  (14) 
unop_10

>  <geom_source>  (14) 
Heuristics

$$$$

     RDKit          3D

 22 20  0  0  0  0  0  0  0  0999 V2000
    1.0509    2.2355    0.0425 S   0  0  0  0  0  0  0  0  0  0  0  0
    0.1697    0.9504   -0.9056 C   0  0  0  0  0  0  0  0  0  0  0  0
   -1.2751    1.0018   -0.7681 C   0  0  0  0  0  0  0  0  0  0  0  0
   -2.4659    1.0441   -0.6547 C   0  0  0  0  0  0  0  0  0  0  0  0
    0.4549    3.2820   -0.5424 H   0  0  0  0  0  0  0  0  0  0  0  0
    0.4481    1.0169   -1.9570 H   0  0  0  0  0  0  0  0  0  0  0  0
   -3.5239    1.0818   -0.5540 H   0  0  0  0  0  0  0  0  0  0  0  0
    0.1697   -2.3803   -1.5428 C   0  0  0  0  0  0  0  0  0  0  0  0
    0.1697   -2.3803   -0.2193 C   0  0  0  0  0  0  0  0  0  0  0  0
    0.1697   -1.1590    0.6527 C   0  0  0  0  0  3  0  0  0  0  0  0
    1.4291   -1.1185    1.5204 C   0  0  0  0  0  0  0  0  0  0  0  0
   -1.0896   -1.1185    1.5204 C   0  0  0  0  0  0  0  0  0  0  0  0
    0.1697   -3.3021   -2.1111 H   0  0  0  0  0  0  0  0  0  0  0  0
    0.1697   -1.4538   -2.1074 H   0  0  0  0  0  0  0  0  0  0  0  0
    0.1697   -3.3316    0.3112 H   0  0  0  0  0  0  0  0  0  0  0  0
    0.1697   -0.1026   -0.1277 H   0  0  0  0  0  0  0  0  0  0  0  0
    2.3306   -1.1126    0.9062 H   0  0  0  0  0  0  0  0  0  0  0  0
    1.4736   -1.9924    2.1762 H   0  0  0  0  0  0  0  0  0  0  0  0
    1.4366   -0.2273    2.1513 H   0  0  0  0  0  0  0  0  0  0  0  0
   -1.1341   -1.9924    2.1762 H   0  0  0  0  0  0  0  0  0  0  0  0
   -1.9911   -1.1126    0.9062 H   0  0  0  0  0  0  0  0  0  0  0  0
   -1.0971   -0.2273    2.1513 H   0  0  0  0  0  0  0  0  0  0  0  0
  1  2  1  0
  1  5  1  0
  2  3  1  0
  2  6  1  0
  2 16  1  0
  3  4  3  0
  4  7  1  0
  8  9  2  3
  8 13  1  0
  8 14  1  0
  9 10  1  0
  9 15  1  0
 10 11  1  0
 10 12  1  0
 11 17  1  0
 11 18  1  0
 11 19  1  0
 12 20  1  0
 12 21  1  0
 12 22  1  0
M  RAD  1  10   2
M  END
>  <reaction>  (15) 
rxn_1116

>  <mol_properties>  (15) 
{"0": {"label": "*4", "atom_type": "S2s"}, "1": {"label": "*3", "atom_type": "Cs"}, "8": {"label": "*0", "atom_type": "Cd"}, "9": {"label": "*1", "atom_type": "Cs"}, "15": {"label": "*2", "atom_type": "H0"}}

>  <type>  (15) 
unop_11

>  <geom_source>  (15) 
Heuristics

$$$$

     RDKit          3D

 22 20  0  0  0  0  0  0  0  0999 V2000
   -0.2886    0.5285   -2.0349 S   0  0  0  0  0  0  0  0  0  0  0  0
   -0.2886    1.1974   -0.3380 C   0  0  0  0  0  0  0  0  0  0  0  0
    0.8530    2.0432   -0.0369 C   0  0  0  0  0  0  0  0  0  0  0  0
    1.7938    2.7402    0.2112 C   0  0  0  0  0  0  0  0  0  0  0  0
   -0.2709    1.7133   -2.6582 H   0  0  0  0  0  0  0  0  0  0  0  0
   -1.2152    1.7425   -0.1604 H   0  0  0  0  0  0  0  0  0  0  0  0
    2.6298    3.3595    0.4317 H   0  0  0  0  0  0  0  0  0  0  0  0
   -0.2886   -2.1333   -0.9753 C   0  0  0  0  0  0  0  0  0  0  0  0
   -0.2886   -2.1333    0.3482 C   0  0  0  0  0  0  0  0  0  0  0  0
   -0.2886   -0.9119    1.2203 C   0  0  0  0  0  3  0  0  0  0  0  0
    0.9707   -0.8714    2.0879 C   0  0  0  0  0  0  0  0  0  0  0  0
   -1.5479   -0.8714    2.0879 C   0  0  0  0  0  0  0  0  0  0  0  0
   -0.2886   -3.0550   -1.5435 H   0  0  0  0  0  0  0  0  0  0  0  0
   -0.2886   -1.2067   -1.5398 H   0  0  0  0  0  0  0  0  0  0  0  0
   -0.2886   -3.0846    0.8788 H   0  0  0  0  0  0  0  0  0  0  0  0
   -0.2886    0.1445    0.4398 H   0  0  0  0  0  0  0  0  0  0  0  0
    1.8723   -0.8655    1.4738 H   0  0  0  0  0  0  0  0  0  0  0  0
    1.0153   -1.7453    2.7437 H   0  0  0  0  0  0  0  0  0  0  0  0
    0.9782    0.0198    2.7189 H   0  0  0  0  0  0  0  0  0  0  0  0
   -1.5925   -1.7453    2.7437 H   0  0  0  0  0  0  0  0  0  0  0  0
   -2.4495   -0.8655    1.4738 H   0  0  0  0  0  0  0  0  0  0  0  0
   -1.5554    0.0198    2.7189 H   0  0  0  0  0  0  0  0  0  0  0  0
  1  2  1  0
  1  5  1  0
  2  3  1  0
  2  6  1  0
  2 16  1  0
  3  4  3  0
  4  7  1  0
  8  9  2  3
  8 13  1  0
  8 14  1  0
  9 10  1  0
  9 15  1  0
 10 11  1  0
 10 12  1  0
 11 17  1  0
 11 18  1  0
 11 19  1  0
 12 20  1  0
 12 21  1  0
 12 22  1  0
M  RAD  1  10   2
M  END
>  <reaction>  (16) 
rxn_1116

>  <mol_properties>  (16) 
{"0": {"label": "*4", "atom_type": "S2s"}, "1": {"label": "*3", "atom_type": "Cs"}, "8": {"label": "*0", "atom_type": "Cd"}, "9": {"label": "*1", "atom_type": "Cs"}, "15": {"label": "*2", "atom_type": "H0"}}

>  <type>  (16) 
unop_12

>  <geom_source>  (16) 
Heuristics

$$$$

     RDKit          3D

 22 20  0  0  0  0  0  0  0  0999 V2000
    2.3730   -2.0284   -0.2801 S   0  0  0  0  0  0  0  0  0  0  0  0
   -0.9720   -1.3792   -0.6441 C   0  0  0  0  0  0  0  0  0  0  0  0
   -2.1792   -0.2586    1.2896 C   0  0  0  0  0  0  0  0  0  0  0  0
    1.6133   -0.3788   -0.2352 C   0  0  0  0  0  3  0  0  0  0  0  0
   -0.8970   -0.3201    0.4574 C   0  0  0  0  0  0  0  0  0  0  0  0
   -0.4937    1.0322   -0.0745 C   0  0  0  0  0  0  0  0  0  0  0  0
   -1.2437    1.7212   -0.9420 C   0  0  0  0  0  0  0  0  0  0  0  0
    2.5050    0.5599    0.4486 C   0  0  0  0  0  0  0  0  0  0  0  0
    3.2383    1.3336    1.0115 C   0  0  0  0  0  0  0  0  0  0  0  0
    1.4251   -0.0260   -1.2704 H   0  0  0  0  0  0  0  0  0  0  0  0
    0.4337   -0.4465    0.4367 H   0  0  0  0  0  0  0  0  0  0  0  0
   -1.7973   -1.1554   -1.3531 H   0  0  0  0  0  0  0  0  0  0  0  0
   -1.1467   -2.3783   -0.1927 H   0  0  0  0  0  0  0  0  0  0  0  0
   -0.0121   -1.4131   -1.2015 H   0  0  0  0  0  0  0  0  0  0  0  0
   -2.0706    0.4976    2.0956 H   0  0  0  0  0  0  0  0  0  0  0  0
   -2.3673   -1.2453    1.7625 H   0  0  0  0  0  0  0  0  0  0  0  0
   -3.0509    0.0083    0.6549 H   0  0  0  0  0  0  0  0  0  0  0  0
    0.4451    1.4572    0.2653 H   0  0  0  0  0  0  0  0  0  0  0  0
   -2.1884    1.3286   -1.3043 H   0  0  0  0  0  0  0  0  0  0  0  0
   -0.9098    2.6911   -1.2956 H   0  0  0  0  0  0  0  0  0  0  0  0
    3.4130   -1.6126   -1.1344 H   0  0  0  0  0  0  0  0  0  0  0  0
    3.8822    2.0127    1.5057 H   0  0  0  0  0  0  0  0  0  0  0  0
  1  4  1  0
  1 21  1  0
  2  5  1  0
  2 12  1  0
  2 13  1  0
  2 14  1  0
  3  5  1  0
  3 15  1  0
  3 16  1  0
  3 17  1  0
  4  8  1  0
  4 10  1  0
  5  6  1  0
  5 11  1  0
  6  7  2  3
  6 18  1  0
  7 19  1  0
  7 20  1  0
  8  9  3  0
  9 22  1  0
M  RAD  1   4   2
M  END
>  <reaction>  (17) 
rxn_1116

>  <mol_properties>  (17) 
{"0": {"label": "*4", "atom_type": "S2s"}, "1": {"label": "*3", "atom_type": "Cs"}, "8": {"label": "*0", "atom_type": "Cd"}, "9": {"label": "*1", "atom_type": "Cs"}, "15": {"label": "*2", "atom_type": "H0"}}

>  <type>  (17) 
unop_13

>  <geom_source>  (17) 
AutoTST

$$$$

     RDKit          3D

 22 20  0  0  0  0  0  0  0  0999 V2000
   -0.9696    0.6405   -1.7498 S   0  0  0  0  0  0  0  0  0  0  0  0
   -0.0884    1.1691   -0.2428 C   0  0  0  0  0  0  0  0  0  0  0  0
    1.0768    1.9968   -0.5000 C   0  0  0  0  0  0  0  0  0  0  0  0
    2.0372    2.6790   -0.7120 C   0  0  0  0  0  0  0  0  0  0  0  0
   -1.2290    1.8722   -2.2060 H   0  0  0  0  0  0  0  0  0  0  0  0
   -0.7787    1.6904    0.4199 H   0  0  0  0  0  0  0  0  0  0  0  0
    2.8905    3.2851   -0.9004 H   0  0  0  0  0  0  0  0  0  0  0  0
   -0.0884   -2.1616   -0.8800 C   0  0  0  0  0  0  0  0  0  0  0  0
   -0.0884   -2.1616    0.4435 C   0  0  0  0  0  0  0  0  0  0  0  0
   -0.0884   -0.9402    1.3155 C   0  0  0  0  0  3  0  0  0  0  0  0
    1.1709   -0.8997    2.1832 C   0  0  0  0  0  0  0  0  0  0  0  0
   -1.3477   -0.8997    2.1832 C   0  0  0  0  0  0  0  0  0  0  0  0
   -0.0884   -3.0833   -1.4483 H   0  0  0  0  0  0  0  0  0  0  0  0
   -0.0884   -1.2350   -1.4446 H   0  0  0  0  0  0  0  0  0  0  0  0
   -0.0884   -3.1129    0.9740 H   0  0  0  0  0  0  0  0  0  0  0  0
   -0.0884    0.1162    0.5351 H   0  0  0  0  0  0  0  0  0  0  0  0
    2.0724   -0.8938    1.5690 H   0  0  0  0  0  0  0  0  0  0  0  0
    1.2155   -1.7736    2.8390 H   0  0  0  0  0  0  0  0  0  0  0  0
    1.1784   -0.0085    2.8142 H   0  0  0  0  0  0  0  0  0  0  0  0
   -1.3923   -1.7736    2.8390 H   0  0  0  0  0  0  0  0  0  0  0  0
   -2.2493   -0.8938    1.5690 H   0  0  0  0  0  0  0  0  0  0  0  0
   -1.3553   -0.0085    2.8142 H   0  0  0  0  0  0  0  0  0  0  0  0
  1  2  1  0
  1  5  1  0
  2  3  1  0
  2  6  1  0
  2 16  1  0
  3  4  3  0
  4  7  1  0
  8  9  2  3
  8 13  1  0
  8 14  1  0
  9 10  1  0
  9 15  1  0
 10 11  1  0
 10 12  1  0
 11 17  1  0
 11 18  1  0
 11 19  1  0
 12 20  1  0
 12 21  1  0
 12 22  1  0
M  RAD  1  10   2
M  END
>  <reaction>  (18) 
rxn_1116

>  <mol_properties>  (18) 
{"0": {"label": "*4", "atom_type": "S2s"}, "1": {"label": "*3", "atom_type": "Cs"}, "8": {"label": "*0", "atom_type": "Cd"}, "9": {"label": "*1", "atom_type": "Cs"}, "15": {"label": "*2", "atom_type": "H0"}}

>  <type>  (18) 
unop_14

>  <geom_source>  (18) 
gaussian_log

$$$$
