
     RDKit          3D

  7  6  0  0  0  0  0  0  0  0999 V2000
    1.2985   -0.0065   -0.2721 C   0  0  0  0  0  0  0  0  0  0  0  0
    0.0000    0.0000   -0.2926 C   0  0  0  0  0  0  0  0  0  0  0  0
   -1.2985    0.0065   -0.3130 C   0  0  0  0  0  0  0  0  0  0  0  0
    1.8444   -0.7551    0.2895 H   0  0  0  0  0  0  0  0  0  0  0  0
    1.8693    0.7364   -0.8162 H   0  0  0  0  0  0  0  0  0  0  0  0
   -1.8658    0.5623    0.4239 H   0  0  0  0  0  0  0  0  0  0  0  0
   -1.8479   -0.5437   -1.0675 H   0  0  0  0  0  0  0  0  0  0  0  0
  1  2  2  0
  1  4  1  0
  1  5  1  0
  2  3  2  0
  3  6  1  0
  3  7  1  0
M  END
>  <reaction>  (1) 
rxn_1820

>  <mol_properties>  (1) 
{"0": {"label": "donator", "atom_type": "Cd"}, "3": {"label": "d_hydrogen", "atom_type": "H0"}}

>  <type>  (1) 
r1h

$$$$

     RDKit          3D

  7  6  0  0  0  0  0  0  0  0999 V2000
    1.8092   -0.3013   -0.2242 S   0  0  0  0  0  0  0  0  0  0  0  0
    0.1552   -0.6967   -0.1137 C   0  0  0  0  0  0  0  0  0  0  0  0
   -0.8921    0.1788    0.1148 C   0  0  0  0  0  0  0  0  0  0  0  0
   -0.7548    1.8245    0.3328 S   0  0  0  0  0  1  0  0  0  0  0  0
    1.6168    1.0210   -0.0187 H   0  0  0  0  0  0  0  0  0  0  0  0
   -0.0550   -1.7522   -0.2412 H   0  0  0  0  0  0  0  0  0  0  0  0
   -1.8791   -0.2740    0.1502 H   0  0  0  0  0  0  0  0  0  0  0  0
  1  2  1  0
  1  5  1  0
  2  3  2  3
  2  6  1  0
  3  4  1  0
  3  7  1  0
M  RAD  1   4   2
M  END
>  <reaction>  (2) 
rxn_1820

>  <mol_properties>  (2) 
{"1": {"label": "acceptor", "atom_type": "Cs"}}

>  <type>  (2) 
r2

$$$$

     RDKit          3D

  8  7  0  0  0  0  0  0  0  0999 V2000
    1.7301   -0.0562    0.5281 S   0  0  0  0  0  0  0  0  0  0  0  0
    0.1858    0.6127   -0.1669 C   0  0  0  0  0  0  0  0  0  0  0  0
   -0.9621   -0.2567    0.2171 C   0  0  0  0  0  0  0  0  0  0  0  0
   -1.8663   -1.1002   -0.8086 S   0  0  0  0  0  0  0  0  0  0  0  0
    1.7025   -1.2092   -0.1540 H   0  0  0  0  0  0  0  0  0  0  0  0
    0.2619    0.7246   -1.2458 H   0  0  0  0  0  0  0  0  0  0  0  0
    0.0809    1.5982    0.2929 H   0  0  0  0  0  0  0  0  0  0  0  0
   -1.1456   -0.3126    1.2907 H   0  0  0  0  0  0  0  0  0  0  0  0
  1  2  1  0
  1  5  1  0
  2  3  1  0
  2  6  1  0
  2  7  1  0
  3  4  2  0
  3  8  1  0
M  END
>  <reaction>  (3) 
rxn_1820

>  <mol_properties>  (3) 
{"1": {"label": "acceptor", "atom_type": "Cs"}, "7": {"label": "a_hydrogen", "atom_type": "H0"}}

>  <type>  (3) 
r2h

$$$$

     RDKit          3D

 14 12  0  0  0  0  0  0  0  0999 V2000
    0.2594   -1.7961   -0.6813 S   0  0  0  0  0  0  0  0  0  0  0  0
    0.3940   -0.7467    0.7341 C   0  0  0  0  0  0  0  0  0  0  0  0
   -0.7952   -0.1549    1.3365 C   0  0  0  0  0  0  0  0  0  0  0  0
   -2.2566    0.0272    0.6653 S   0  0  0  0  0  0  0  0  0  0  0  0
   -0.9428   -1.3229   -1.0591 H   0  0  0  0  0  0  0  0  0  0  0  0
    1.0858   -1.1671    1.4619 H   0  0  0  0  0  0  0  0  0  0  0  0
   -0.6098    0.2670    2.3245 H   0  0  0  0  0  0  0  0  0  0  0  0
    1.7426    1.3983   -0.2651 C   0  0  0  0  0  0  0  0  0  0  0  0
    1.6536    1.3108   -1.5151 C   0  0  0  0  0  0  0  0  0  0  0  0
    1.4819    1.0954   -2.8142 C   0  0  0  0  0  3  0  0  0  0  0  0
    1.0244    0.2816    0.3483 H   0  0  0  0  0  0  0  0  0  0  0  0
    2.1559    2.0374    0.4932 H   0  0  0  0  0  0  0  0  0  0  0  0
    0.6295    1.5108   -3.3360 H   0  0  0  0  0  0  0  0  0  0  0  0
    2.2001    0.5152   -3.3787 H   0  0  0  0  0  0  0  0  0  0  0  0
  1  2  1  0
  1  5  1  0
  2  3  1  0
  2  6  1  0
  2 11  1  0
  3  4  2  0
  3  7  1  0
  8  9  3  0
  8 12  1  0
  9 10  1  0
 10 13  1  0
 10 14  1  0
M  RAD  1  10   2
M  END
>  <reaction>  (4) 
rxn_1820

>  <mol_properties>  (4) 
{"1": {"label": "*1", "atom_type": "Cs"}, "2": {"label": "*0", "atom_type": "CS"}, "7": {"label": "*3", "atom_type": "Ct"}, "8": {"label": "*4", "atom_type": "Ct"}, "10": {"label": "*2", "atom_type": "H0"}}

>  <type>  (4) 
ts

$$$$

     RDKit          3D

 14 12  0  0  0  0  0  0  0  0999 V2000
    1.0232   -0.8886    1.9828 S   0  0  0  0  0  0  0  0  0  0  0  0
   -0.0890    0.0843    0.9189 C   0  0  0  0  0  0  0  0  0  0  0  0
   -1.3955   -0.6177    0.7741 C   0  0  0  0  0  0  0  0  0  0  0  0
   -1.9819   -1.2045   -0.6018 S   0  0  0  0  0  1  0  0  0  0  0  0
    1.0944   -1.9540    1.1733 H   0  0  0  0  0  0  0  0  0  0  0  0
   -0.2264    1.0273    1.4534 H   0  0  0  0  0  0  0  0  0  0  0  0
   -1.9465   -0.7414    1.7071 H   0  0  0  0  0  0  0  0  0  0  0  0
    1.2406    1.8774   -0.4237 C   0  0  0  0  0  0  0  0  0  0  0  0
    1.2406    1.8774   -1.7224 C   0  0  0  0  0  0  0  0  0  0  0  0
    1.2406    1.8774   -3.0211 C   0  0  0  0  0  0  0  0  0  0  0  0
    0.5770    0.9825    0.2464 H   0  0  0  0  0  0  0  0  0  0  0  0
    1.7936    2.6231    0.1347 H   0  0  0  0  0  0  0  0  0  0  0  0
    0.4949    2.4304   -3.5795 H   0  0  0  0  0  0  0  0  0  0  0  0
    1.9864    1.3244   -3.5795 H   0  0  0  0  0  0  0  0  0  0  0  0
  1  2  1  0
  1  5  1  0
  2  3  2  3
  2  6  1  0
  3  4  1  0
  3  7  1  0
  8  9  2  0
  8 11  1  0
  8 12  1  0
  9 10  2  0
 10 13  1  0
 10 14  1  0
M  RAD  1   4   2
M  END
>  <reaction>  (5) 
rxn_1820

>  <mol_properties>  (5) 
{"1": {"label": "*1", "atom_type": "Cs"}, "2": {"label": "*0", "atom_type": "CS"}, "7": {"label": "*3", "atom_type": "Ct"}, "8": {"label": "*4", "atom_type": "Ct"}, "10": {"label": "*2", "atom_type": "H0"}}

>  <type>  (5) 
unop_1

>  <geom_source>  (5) 
Heuristics

$$$$

     RDKit          3D

 14 12  0  0  0  0  0  0  0  0999 V2000
    0.2062   -2.0978   -0.0670 S   0  0  0  0  0  0  0  0  0  0  0  0
    0.3073   -0.5338    0.8600 C   0  0  0  0  0  0  0  0  0  0  0  0
   -0.9757   -0.2841    1.5758 C   0  0  0  0  0  0  0  0  0  0  0  0
   -1.9734    0.9410    1.2844 S   0  0  0  0  0  1  0  0  0  0  0  0
   -0.7785   -1.7098   -0.8887 H   0  0  0  0  0  0  0  0  0  0  0  0
    1.1143   -0.6917    1.5795 H   0  0  0  0  0  0  0  0  0  0  0  0
   -1.2255   -1.0335    2.3278 H   0  0  0  0  0  0  0  0  0  0  0  0
    1.6369    1.2593   -0.4826 C   0  0  0  0  0  0  0  0  0  0  0  0
    1.6369    1.2593   -1.7813 C   0  0  0  0  0  0  0  0  0  0  0  0
    1.6369    1.2593   -3.0800 C   0  0  0  0  0  0  0  0  0  0  0  0
    0.9733    0.3644    0.1875 H   0  0  0  0  0  0  0  0  0  0  0  0
    2.1900    2.0050    0.0758 H   0  0  0  0  0  0  0  0  0  0  0  0
    0.8912    1.8123   -3.6384 H   0  0  0  0  0  0  0  0  0  0  0  0
    2.3827    0.7063   -3.6384 H   0  0  0  0  0  0  0  0  0  0  0  0
  1  2  1  0
  1  5  1  0
  2  3  2  3
  2  6  1  0
  3  4  1  0
  3  7  1  0
  8  9  2  0
  8 11  1  0
  8 12  1  0
  9 10  2  0
 10 13  1  0
 10 14  1  0
M  RAD  1   4   2
M  END
>  <reaction>  (6) 
rxn_1820

>  <mol_properties>  (6) 
{"1": {"label": "*1", "atom_type": "Cs"}, "2": {"label": "*0", "atom_type": "CS"}, "7": {"label": "*3", "atom_type": "Ct"}, "8": {"label": "*4", "atom_type": "Ct"}, "10": {"label": "*2", "atom_type": "H0"}}

>  <type>  (6) 
unop_2

>  <geom_source>  (6) 
Heuristics

$$$$

     RDKit          3D

 14 12  0  0  0  0  0  0  0  0999 V2000
    0.3864   -0.1798    2.4738 S   0  0  0  0  0  0  0  0  0  0  0  0
   -0.4170    0.1646    0.8765 C   0  0  0  0  0  0  0  0  0  0  0  0
   -1.1854   -1.0304    0.4266 C   0  0  0  0  0  0  0  0  0  0  0  0
   -0.8635   -1.8948   -0.8889 S   0  0  0  0  0  1  0  0  0  0  0  0
    1.1760   -1.1643    2.0237 H   0  0  0  0  0  0  0  0  0  0  0  0
   -1.0984    0.9932    1.0837 H   0  0  0  0  0  0  0  0  0  0  0  0
   -2.0030   -1.3161    1.0893 H   0  0  0  0  0  0  0  0  0  0  0  0
    0.9127    1.9577   -0.4662 C   0  0  0  0  0  0  0  0  0  0  0  0
    0.9127    1.9577   -1.7649 C   0  0  0  0  0  0  0  0  0  0  0  0
    0.9127    1.9577   -3.0636 C   0  0  0  0  0  0  0  0  0  0  0  0
    0.2491    1.0627    0.2039 H   0  0  0  0  0  0  0  0  0  0  0  0
    1.4657    2.7034    0.0922 H   0  0  0  0  0  0  0  0  0  0  0  0
    0.1669    2.5107   -3.6220 H   0  0  0  0  0  0  0  0  0  0  0  0
    1.6584    1.4047   -3.6220 H   0  0  0  0  0  0  0  0  0  0  0  0
  1  2  1  0
  1  5  1  0
  2  3  2  3
  2  6  1  0
  3  4  1  0
  3  7  1  0
  8  9  2  0
  8 11  1  0
  8 12  1  0
  9 10  2  0
 10 13  1  0
 10 14  1  0
M  RAD  1   4   2
M  END
>  <reaction>  (7) 
rxn_1820

>  <mol_properties>  (7) 
{"1": {"label": "*1", "atom_type": "Cs"}, "2": {"label": "*0", "atom_type": "CS"}, "7": {"label": "*3", "atom_type": "Ct"}, "8": {"label": "*4", "atom_type": "Ct"}, "10": {"label": "*2", "atom_type": "H0"}}

>  <type>  (7) 
unop_3

>  <geom_source>  (7) 
Heuristics

$$$$

     RDKit          3D

 14 12  0  0  0  0  0  0  0  0999 V2000
   -2.0605   -1.1018    0.1027 S   0  0  0  0  0  0  0  0  0  0  0  0
   -0.2844   -1.1795    0.4963 C   0  0  0  0  0  0  0  0  0  0  0  0
    0.0113   -0.3234    1.6796 C   0  0  0  0  0  0  0  0  0  0  0  0
    0.9420    0.9861    1.6636 S   0  0  0  0  0  1  0  0  0  0  0  0
   -2.0827    0.2065   -0.1858 H   0  0  0  0  0  0  0  0  0  0  0  0
   -0.1012   -2.2294    0.7370 H   0  0  0  0  0  0  0  0  0  0  0  0
   -0.4874   -0.6358    2.5978 H   0  0  0  0  0  0  0  0  0  0  0  0
    1.0452    0.6136   -0.8464 C   0  0  0  0  0  0  0  0  0  0  0  0
    1.0452    0.6136   -2.1451 C   0  0  0  0  0  0  0  0  0  0  0  0
    1.0452    0.6136   -3.4437 C   0  0  0  0  0  0  0  0  0  0  0  0
    0.3816   -0.2813   -0.1763 H   0  0  0  0  0  0  0  0  0  0  0  0
    1.5983    1.3594   -0.2880 H   0  0  0  0  0  0  0  0  0  0  0  0
    0.2995    1.1666   -4.0022 H   0  0  0  0  0  0  0  0  0  0  0  0
    1.7910    0.0606   -4.0022 H   0  0  0  0  0  0  0  0  0  0  0  0
  1  2  1  0
  1  5  1  0
  2  3  2  3
  2  6  1  0
  3  4  1  0
  3  7  1  0
  8  9  2  0
  8 11  1  0
  8 12  1  0
  9 10  2  0
 10 13  1  0
 10 14  1  0
M  RAD  1   4   2
M  END
>  <reaction>  (8) 
rxn_1820

>  <mol_properties>  (8) 
{"1": {"label": "*1", "atom_type": "Cs"}, "2": {"label": "*0", "atom_type": "CS"}, "7": {"label": "*3", "atom_type": "Ct"}, "8": {"label": "*4", "atom_type": "Ct"}, "10": {"label": "*2", "atom_type": "H0"}}

>  <type>  (8) 
unop_4

>  <geom_source>  (8) 
Heuristics

$$$$

     RDKit          3D

 14 12  0  0  0  0  0  0  0  0999 V2000
   -0.7094    0.2167    2.4995 S   0  0  0  0  0  0  0  0  0  0  0  0
   -0.8996   -0.0398    0.7069 C   0  0  0  0  0  0  0  0  0  0  0  0
   -0.4796   -1.4229    0.3446 C   0  0  0  0  0  0  0  0  0  0  0  0
    0.7686   -1.7931   -0.5968 S   0  0  0  0  0  1  0  0  0  0  0  0
    0.6207    0.0561    2.5233 H   0  0  0  0  0  0  0  0  0  0  0  0
   -1.9688    0.0886    0.5222 H   0  0  0  0  0  0  0  0  0  0  0  0
   -1.0810   -2.2105    0.8001 H   0  0  0  0  0  0  0  0  0  0  0  0
    0.4301    1.7533   -0.6358 C   0  0  0  0  0  0  0  0  0  0  0  0
    0.4301    1.7533   -1.9344 C   0  0  0  0  0  0  0  0  0  0  0  0
    0.4301    1.7533   -3.2331 C   0  0  0  0  0  0  0  0  0  0  0  0
   -0.2336    0.8584    0.0343 H   0  0  0  0  0  0  0  0  0  0  0  0
    0.9831    2.4991   -0.0773 H   0  0  0  0  0  0  0  0  0  0  0  0
   -0.3157    2.3063   -3.7915 H   0  0  0  0  0  0  0  0  0  0  0  0
    1.1758    1.2003   -3.7915 H   0  0  0  0  0  0  0  0  0  0  0  0
  1  2  1  0
  1  5  1  0
  2  3  2  3
  2  6  1  0
  3  4  1  0
  3  7  1  0
  8  9  2  0
  8 11  1  0
  8 12  1  0
  9 10  2  0
 10 13  1  0
 10 14  1  0
M  RAD  1   4   2
M  END
>  <reaction>  (9) 
rxn_1820

>  <mol_properties>  (9) 
{"1": {"label": "*1", "atom_type": "Cs"}, "2": {"label": "*0", "atom_type": "CS"}, "7": {"label": "*3", "atom_type": "Ct"}, "8": {"label": "*4", "atom_type": "Ct"}, "10": {"label": "*2", "atom_type": "H0"}}

>  <type>  (9) 
unop_5

>  <geom_source>  (9) 
Heuristics

$$$$

     RDKit          3D

 14 12  0  0  0  0  0  0  0  0999 V2000
   -2.2870   -0.5573    0.7597 S   0  0  0  0  0  0  0  0  0  0  0  0
   -0.5889   -1.1228    0.4246 C   0  0  0  0  0  0  0  0  0  0  0  0
    0.3376   -0.5912    1.4637 C   0  0  0  0  0  0  0  0  0  0  0  0
    1.5376    0.4417    1.1909 S   0  0  0  0  0  1  0  0  0  0  0  0
   -2.0319    0.7492    0.6071 H   0  0  0  0  0  0  0  0  0  0  0  0
   -0.6431   -2.2120    0.4913 H   0  0  0  0  0  0  0  0  0  0  0  0
    0.1270   -0.9390    2.4757 H   0  0  0  0  0  0  0  0  0  0  0  0
    0.7408    0.6704   -0.9181 C   0  0  0  0  0  0  0  0  0  0  0  0
    0.7408    0.6704   -2.2168 C   0  0  0  0  0  0  0  0  0  0  0  0
    0.7408    0.6704   -3.5154 C   0  0  0  0  0  0  0  0  0  0  0  0
    0.0771   -0.2246   -0.2480 H   0  0  0  0  0  0  0  0  0  0  0  0
    1.2938    1.4161   -0.3597 H   0  0  0  0  0  0  0  0  0  0  0  0
   -0.0050    1.2234   -4.0738 H   0  0  0  0  0  0  0  0  0  0  0  0
    1.4865    0.1173   -4.0738 H   0  0  0  0  0  0  0  0  0  0  0  0
  1  2  1  0
  1  5  1  0
  2  3  2  3
  2  6  1  0
  3  4  1  0
  3  7  1  0
  8  9  2  0
  8 11  1  0
  8 12  1  0
  9 10  2  0
 10 13  1  0
 10 14  1  0
M  RAD  1   4   2
M  END
>  <reaction>  (10) 
rxn_1820

>  <mol_properties>  (10) 
{"1": {"label": "*1", "atom_type": "Cs"}, "2": {"label": "*0", "atom_type": "CS"}, "7": {"label": "*3", "atom_type": "Ct"}, "8": {"label": "*4", "atom_type": "Ct"}, "10": {"label": "*2", "atom_type": "H0"}}

>  <type>  (10) 
unop_6

>  <geom_source>  (10) 
Heuristics

$$$$

     RDKit          3D

 14 13  0  0  0  0  0  0  0  0999 V2000
   -2.1178   -0.1500    1.4793 S   0  0  0  0  0  0  0  0  0  0  0  0
   -0.8638   -0.9318    0.4154 C   0  0  0  0  0  0  0  0  0  0  0  0
    0.4561   -0.9385    1.1072 C   0  0  0  0  0  0  0  0  0  0  0  0
    1.7630   -0.1456    0.6125 S   0  0  0  0  0  0  0  0  0  0  0  0
   -1.5418    1.0595    1.5085 H   0  0  0  0  0  0  0  0  0  0  0  0
   -1.2201   -1.9552    0.2760 H   0  0  0  0  0  0  0  0  0  0  0  0
    0.4783   -1.5192    2.0301 H   0  0  0  0  0  0  0  0  0  0  0  0
    0.4659    0.8613   -0.9273 C   0  0  0  0  0  0  0  0  0  0  0  0
    0.4659    0.8613   -2.2259 C   0  0  0  0  0  3  0  0  0  0  0  0
    0.4659    0.8613   -3.5246 C   0  0  0  0  0  0  0  0  0  0  0  0
   -0.1978   -0.0336   -0.2571 H   0  0  0  0  0  0  0  0  0  0  0  0
    1.0189    1.6071   -0.3688 H   0  0  0  0  0  0  0  0  0  0  0  0
   -0.2799    1.4143   -4.0830 H   0  0  0  0  0  0  0  0  0  0  0  0
    1.2116    0.3083   -4.0830 H   0  0  0  0  0  0  0  0  0  0  0  0
  1  2  1  0
  1  5  1  0
  2  3  2  3
  2  6  1  0
  3  4  1  0
  3  7  1  0
  4  8  1  0
  8  9  1  0
  8 11  1  0
  8 12  1  0
  9 10  2  3
 10 13  1  0
 10 14  1  0
M  RAD  1   9   2
M  END
>  <reaction>  (11) 
rxn_1820

>  <mol_properties>  (11) 
{"1": {"label": "*1", "atom_type": "Cs"}, "2": {"label": "*0", "atom_type": "CS"}, "7": {"label": "*3", "atom_type": "Ct"}, "8": {"label": "*4", "atom_type": "Ct"}, "10": {"label": "*2", "atom_type": "H0"}}

>  <type>  (11) 
unop_7

>  <geom_source>  (11) 
Heuristics

$$$$

     RDKit          3D

 14 12  0  0  0  0  0  0  0  0999 V2000
    1.1397   -1.5214    1.2589 S   0  0  0  0  0  0  0  0  0  0  0  0
    0.1055   -0.0608    0.9238 C   0  0  0  0  0  0  0  0  0  0  0  0
   -1.3311   -0.3970    1.1335 C   0  0  0  0  0  0  0  0  0  0  0  0
   -2.4567   -0.3992   -0.0129 S   0  0  0  0  0  1  0  0  0  0  0  0
    0.6356   -2.2783    0.2748 H   0  0  0  0  0  0  0  0  0  0  0  0
    0.4290    0.6803    1.6585 H   0  0  0  0  0  0  0  0  0  0  0  0
   -1.5825   -0.6828    2.1555 H   0  0  0  0  0  0  0  0  0  0  0  0
    1.4351    1.7323   -0.4189 C   0  0  0  0  0  0  0  0  0  0  0  0
    1.4351    1.7323   -1.7176 C   0  0  0  0  0  0  0  0  0  0  0  0
    1.4351    1.7323   -3.0162 C   0  0  0  0  0  0  0  0  0  0  0  0
    0.7715    0.8374    0.2512 H   0  0  0  0  0  0  0  0  0  0  0  0
    1.9881    2.4781    0.1395 H   0  0  0  0  0  0  0  0  0  0  0  0
    0.6894    2.2853   -3.5747 H   0  0  0  0  0  0  0  0  0  0  0  0
    2.1809    1.1793   -3.5747 H   0  0  0  0  0  0  0  0  0  0  0  0
  1  2  1  0
  1  5  1  0
  2  3  2  3
  2  6  1  0
  3  4  1  0
  3  7  1  0
  8  9  2  0
  8 11  1  0
  8 12  1  0
  9 10  2  0
 10 13  1  0
 10 14  1  0
M  RAD  1   4   2
M  END
>  <reaction>  (12) 
rxn_1820

>  <mol_properties>  (12) 
{"1": {"label": "*1", "atom_type": "Cs"}, "2": {"label": "*0", "atom_type": "CS"}, "7": {"label": "*3", "atom_type": "Ct"}, "8": {"label": "*4", "atom_type": "Ct"}, "10": {"label": "*2", "atom_type": "H0"}}

>  <type>  (12) 
unop_8

>  <geom_source>  (12) 
Heuristics

$$$$

     RDKit          3D

 14 12  0  0  0  0  0  0  0  0999 V2000
   -1.4507   -1.6422   -0.3117 S   0  0  0  0  0  0  0  0  0  0  0  0
    0.0165   -1.0913    0.6153 C   0  0  0  0  0  0  0  0  0  0  0  0
   -0.3964   -0.2023    1.7377 C   0  0  0  0  0  0  0  0  0  0  0  0
   -0.0134    1.3520    1.8746 S   0  0  0  0  0  1  0  0  0  0  0  0
   -1.8204   -0.4227   -0.7258 H   0  0  0  0  0  0  0  0  0  0  0  0
    0.4563   -2.0116    1.0072 H   0  0  0  0  0  0  0  0  0  0  0  0
   -1.0286   -0.6836    2.4848 H   0  0  0  0  0  0  0  0  0  0  0  0
    1.3462    0.7018   -0.7274 C   0  0  0  0  0  0  0  0  0  0  0  0
    1.3462    0.7018   -2.0260 C   0  0  0  0  0  0  0  0  0  0  0  0
    1.3462    0.7018   -3.3247 C   0  0  0  0  0  0  0  0  0  0  0  0
    0.6826   -0.1931   -0.0573 H   0  0  0  0  0  0  0  0  0  0  0  0
    1.8992    1.4475   -0.1689 H   0  0  0  0  0  0  0  0  0  0  0  0
    0.6004    1.2548   -3.8831 H   0  0  0  0  0  0  0  0  0  0  0  0
    2.0919    0.1488   -3.8831 H   0  0  0  0  0  0  0  0  0  0  0  0
  1  2  1  0
  1  5  1  0
  2  3  2  3
  2  6  1  0
  3  4  1  0
  3  7  1  0
  8  9  2  0
  8 11  1  0
  8 12  1  0
  9 10  2  0
 10 13  1  0
 10 14  1  0
M  RAD  1   4   2
M  END
>  <reaction>  (13) 
rxn_1820

>  <mol_properties>  (13) 
{"1": {"label": "*1", "atom_type": "Cs"}, "2": {"label": "*0", "atom_type": "CS"}, "7": {"label": "*3", "atom_type": "Ct"}, "8": {"label": "*4", "atom_type": "Ct"}, "10": {"label": "*2", "atom_type": "H0"}}

>  <type>  (13) 
unop_9

>  <geom_source>  (13) 
Heuristics

$$$$

     RDKit          3D

 14 12  0  0  0  0  0  0  0  0999 V2000
    0.8308   -1.9362    0.5173 S   0  0  0  0  0  0  0  0  0  0  0  0
    0.2406   -0.2592    0.9108 C   0  0  0  0  0  0  0  0  0  0  0  0
   -1.1639   -0.3183    1.4054 C   0  0  0  0  0  0  0  0  0  0  0  0
   -2.4329    0.3305    0.6638 S   0  0  0  0  0  1  0  0  0  0  0  0
   -0.0539   -2.1695   -0.4617 H   0  0  0  0  0  0  0  0  0  0  0  0
    0.9048    0.0869    1.7064 H   0  0  0  0  0  0  0  0  0  0  0  0
   -1.2922   -0.8791    2.3319 H   0  0  0  0  0  0  0  0  0  0  0  0
    1.5703    1.5339   -0.4318 C   0  0  0  0  0  0  0  0  0  0  0  0
    1.5703    1.5339   -1.7305 C   0  0  0  0  0  0  0  0  0  0  0  0
    1.5703    1.5339   -3.0292 C   0  0  0  0  0  0  0  0  0  0  0  0
    0.9067    0.6390    0.2383 H   0  0  0  0  0  0  0  0  0  0  0  0
    2.1233    2.2796    0.1266 H   0  0  0  0  0  0  0  0  0  0  0  0
    0.8245    2.0869   -3.5876 H   0  0  0  0  0  0  0  0  0  0  0  0
    2.3161    0.9809   -3.5876 H   0  0  0  0  0  0  0  0  0  0  0  0
  1  2  1  0
  1  5  1  0
  2  3  2  3
  2  6  1  0
  3  4  1  0
  3  7  1  0
  8  9  2  0
  8 11  1  0
  8 12  1  0
  9 10  2  0
 10 13  1  0
 10 14  1  0
M  RAD  1   4   2
M  END
>  <reaction>  (14) 
rxn_1820

>  <mol_properties>  (14) 
{"1": {"label": "*1", "atom_type": "Cs"}, "2": {"label": "*0", "atom_type": "CS"}, "7": {"label": "*3", "atom_type": "Ct"}, "8": {"label": "*4", "atom_type": "Ct"}, "10": {"label": "*2", "atom_type": "H0"}}

>  <type>  (14) 
unop_10

>  <geom_source>  (14) 
Heuristics

$$$$

     RDKit          3D

 14 12  0  0  0  0  0  0  0  0999 V2000
   -1.6127    0.1050    2.0947 S   0  0  0  0  0  0  0  0  0  0  0  0
   -1.0499   -0.5637    0.4973 C   0  0  0  0  0  0  0  0  0  0  0  0
    0.2371   -1.2930    0.6774 C   0  0  0  0  0  0  0  0  0  0  0  0
    1.6415   -0.8641    0.0254 S   0  0  0  0  0  1  0  0  0  0  0  0
   -0.5715    0.9286    2.2761 H   0  0  0  0  0  0  0  0  0  0  0  0
   -1.8372   -1.2594    0.1972 H   0  0  0  0  0  0  0  0  0  0  0  0
    0.1745   -2.1626    1.3325 H   0  0  0  0  0  0  0  0  0  0  0  0
    0.2797    1.2294   -0.8453 C   0  0  0  0  0  0  0  0  0  0  0  0
    0.2797    1.2294   -2.1440 C   0  0  0  0  0  0  0  0  0  0  0  0
    0.2797    1.2294   -3.4427 C   0  0  0  0  0  0  0  0  0  0  0  0
   -0.3839    0.3345   -0.1752 H   0  0  0  0  0  0  0  0  0  0  0  0
    0.8327    1.9752   -0.2869 H   0  0  0  0  0  0  0  0  0  0  0  0
   -0.4660    1.7824   -4.0011 H   0  0  0  0  0  0  0  0  0  0  0  0
    1.0255    0.6764   -4.0011 H   0  0  0  0  0  0  0  0  0  0  0  0
  1  2  1  0
  1  5  1  0
  2  3  2  3
  2  6  1  0
  3  4  1  0
  3  7  1  0
  8  9  2  0
  8 11  1  0
  8 12  1  0
  9 10  2  0
 10 13  1  0
 10 14  1  0
M  RAD  1   4   2
M  END
>  <reaction>  (15) 
rxn_1820

>  <mol_properties>  (15) 
{"1": {"label": "*1", "atom_type": "Cs"}, "2": {"label": "*0", "atom_type": "CS"}, "7": {"label": "*3", "atom_type": "Ct"}, "8": {"label": "*4", "atom_type": "Ct"}, "10": {"label": "*2", "atom_type": "H0"}}

>  <type>  (15) 
unop_11

>  <geom_source>  (15) 
Heuristics

$$$$

     RDKit          3D

 14 12  0  0  0  0  0  0  0  0999 V2000
   -0.6143   -2.0018   -0.3691 S   0  0  0  0  0  0  0  0  0  0  0  0
    0.2397   -0.8501    0.7531 C   0  0  0  0  0  0  0  0  0  0  0  0
   -0.7427   -0.2254    1.6834 C   0  0  0  0  0  0  0  0  0  0  0  0
   -1.1053    1.3391    1.7305 S   0  0  0  0  0  1  0  0  0  0  0  0
   -1.3767   -1.0756   -0.9662 H   0  0  0  0  0  0  0  0  0  0  0  0
    0.9393   -1.4770    1.3111 H   0  0  0  0  0  0  0  0  0  0  0  0
   -1.2477   -0.9299    2.3451 H   0  0  0  0  0  0  0  0  0  0  0  0
    1.5694    0.9431   -0.5895 C   0  0  0  0  0  0  0  0  0  0  0  0
    1.5694    0.9431   -1.8882 C   0  0  0  0  0  0  0  0  0  0  0  0
    1.5694    0.9431   -3.1869 C   0  0  0  0  0  0  0  0  0  0  0  0
    0.9058    0.0481    0.0806 H   0  0  0  0  0  0  0  0  0  0  0  0
    2.1224    1.6888   -0.0311 H   0  0  0  0  0  0  0  0  0  0  0  0
    0.8236    1.4961   -3.7453 H   0  0  0  0  0  0  0  0  0  0  0  0
    2.3152    0.3900   -3.7453 H   0  0  0  0  0  0  0  0  0  0  0  0
  1  2  1  0
  1  5  1  0
  2  3  2  3
  2  6  1  0
  3  4  1  0
  3  7  1  0
  8  9  2  0
  8 11  1  0
  8 12  1  0
  9 10  2  0
 10 13  1  0
 10 14  1  0
M  RAD  1   4   2
M  END
>  <reaction>  (16) 
rxn_1820

>  <mol_properties>  (16) 
{"1": {"label": "*1", "atom_type": "Cs"}, "2": {"label": "*0", "atom_type": "CS"}, "7": {"label": "*3", "atom_type": "Ct"}, "8": {"label": "*4", "atom_type": "Ct"}, "10": {"label": "*2", "atom_type": "H0"}}

>  <type>  (16) 
unop_12

>  <geom_source>  (16) 
Heuristics

$$$$

     RDKit          3D

 14 12  0  0  0  0  0  0  0  0999 V2000
   -1.7862   -1.2928    1.4519 S   0  0  0  0  0  0  0  0  0  0  0  0
   -3.1227   -0.3452   -1.5399 S   0  0  0  0  0  1  0  0  0  0  0  0
   -1.4171    0.0766    0.3116 C   0  0  0  0  0  0  0  0  0  0  0  0
   -2.6430    0.4668   -0.4564 C   0  0  0  0  0  0  0  0  0  0  0  0
    3.1121    0.3182    0.2911 C   0  0  0  0  0  0  0  0  0  0  0  0
    1.9846    0.0356   -0.2967 C   0  0  0  0  0  0  0  0  0  0  0  0
    0.8571   -0.2470   -0.8846 C   0  0  0  0  0  0  0  0  0  0  0  0
   -1.0662    0.9464    0.9060 H   0  0  0  0  0  0  0  0  0  0  0  0
   -0.3798   -0.3080   -0.5802 H   0  0  0  0  0  0  0  0  0  0  0  0
   -3.0973    1.4365   -0.2807 H   0  0  0  0  0  0  0  0  0  0  0  0
    3.5109    1.3222    0.2416 H   0  0  0  0  0  0  0  0  0  0  0  0
    3.6498   -0.4513    0.8279 H   0  0  0  0  0  0  0  0  0  0  0  0
   -0.4569   -1.3471    1.9114 H   0  0  0  0  0  0  0  0  0  0  0  0
    0.8547   -0.6109   -1.9029 H   0  0  0  0  0  0  0  0  0  0  0  0
  1  3  1  0
  1 13  1  0
  2  4  1  0
  3  4  2  3
  3  8  1  0
  4 10  1  0
  5  6  2  0
  5 11  1  0
  5 12  1  0
  6  7  2  0
  7  9  1  0
  7 14  1  0
M  RAD  1   2   2
M  END
>  <reaction>  (17) 
rxn_1820

>  <mol_properties>  (17) 
{"1": {"label": "*1", "atom_type": "Cs"}, "2": {"label": "*0", "atom_type": "CS"}, "7": {"label": "*3", "atom_type": "Ct"}, "8": {"label": "*4", "atom_type": "Ct"}, "10": {"label": "*2", "atom_type": "H0"}}

>  <type>  (17) 
unop_13

>  <geom_source>  (17) 
AutoTST

$$$$
