
     RDKit          3D

  6  5  0  0  0  0  0  0  0  0999 V2000
   -0.5072   -0.0291   -0.0097 C   0  0  0  0  0  0  0  0  0  0  0  0
    1.1321   -0.1527   -0.7687 S   0  0  0  0  0  0  0  0  0  0  0  0
   -0.6174   -0.7330    0.8127 H   0  0  0  0  0  0  0  0  0  0  0  0
   -0.5863    0.9827    0.3845 H   0  0  0  0  0  0  0  0  0  0  0  0
   -1.2962   -0.1800   -0.7434 H   0  0  0  0  0  0  0  0  0  0  0  0
    1.0312   -1.4237   -1.1764 H   0  0  0  0  0  0  0  0  0  0  0  0
  1  2  1  0
  1  3  1  0
  1  4  1  0
  1  5  1  0
  2  6  1  0
M  END
>  <reaction>  (1) 
rxn_1819

>  <mol_properties>  (1) 
{"0": {"label": "donator", "atom_type": "Cs"}, "2": {"label": "d_hydrogen", "atom_type": "H0"}}

>  <type>  (1) 
r1h

$$$$

     RDKit          3D

  9  8  0  0  0  0  0  0  0  0999 V2000
    2.3038   -0.0269    0.1590 C   0  0  0  0  0  0  0  0  0  0  0  0
    1.1426    0.1377   -0.1648 C   0  0  0  0  0  0  0  0  0  0  0  0
   -0.1694    0.3175   -0.5203 C   0  0  0  0  0  3  0  0  0  0  0  0
   -1.3163   -0.1910    0.2856 C   0  0  0  0  0  0  0  0  0  0  0  0
    3.3199   -0.1683    0.4378 H   0  0  0  0  0  0  0  0  0  0  0  0
   -0.3786    0.8584   -1.4360 H   0  0  0  0  0  0  0  0  0  0  0  0
   -1.9694    0.6309    0.5951 H   0  0  0  0  0  0  0  0  0  0  0  0
   -1.9325   -0.8770   -0.3039 H   0  0  0  0  0  0  0  0  0  0  0  0
   -0.9753   -0.7144    1.1774 H   0  0  0  0  0  0  0  0  0  0  0  0
  1  2  3  0
  1  5  1  0
  2  3  1  0
  3  4  1  0
  3  6  1  0
  4  7  1  0
  4  8  1  0
  4  9  1  0
M  RAD  1   3   2
M  END
>  <reaction>  (2) 
rxn_1819

>  <mol_properties>  (2) 
{"2": {"label": "acceptor", "atom_type": "Cs"}}

>  <type>  (2) 
r2

$$$$

     RDKit          3D

 10  9  0  0  0  0  0  0  0  0999 V2000
    2.2738    0.0217   -0.0992 C   0  0  0  0  0  0  0  0  0  0  0  0
    1.1083    0.2960   -0.0695 C   0  0  0  0  0  0  0  0  0  0  0  0
   -0.3173    0.6046   -0.0227 C   0  0  0  0  0  0  0  0  0  0  0  0
   -1.1561   -0.5495    0.5292 C   0  0  0  0  0  0  0  0  0  0  0  0
    3.3097   -0.2166   -0.1277 H   0  0  0  0  0  0  0  0  0  0  0  0
   -0.6542    0.8617   -1.0302 H   0  0  0  0  0  0  0  0  0  0  0  0
   -0.4633    1.4978    0.5900 H   0  0  0  0  0  0  0  0  0  0  0  0
   -0.8485   -0.7997    1.5447 H   0  0  0  0  0  0  0  0  0  0  0  0
   -2.2115   -0.2752    0.5459 H   0  0  0  0  0  0  0  0  0  0  0  0
   -1.0409   -1.4407   -0.0879 H   0  0  0  0  0  0  0  0  0  0  0  0
  1  2  3  0
  1  5  1  0
  2  3  1  0
  3  4  1  0
  3  6  1  0
  3  7  1  0
  4  8  1  0
  4  9  1  0
  4 10  1  0
M  END
>  <reaction>  (3) 
rxn_1819

>  <mol_properties>  (3) 
{"2": {"label": "acceptor", "atom_type": "Cs"}, "9": {"label": "a_hydrogen", "atom_type": "H0"}}

>  <type>  (3) 
r2h

$$$$

     RDKit          3D

 15 13  0  0  0  0  0  0  0  0999 V2000
   -2.2568    1.2023    1.8453 C   0  0  0  0  0  0  0  0  0  0  0  0
   -1.1458    1.1778    1.3861 C   0  0  0  0  0  0  0  0  0  0  0  0
    0.1627    1.0799    0.8203 C   0  0  0  0  0  0  0  0  0  0  0  0
    1.2853    0.7008    1.7628 C   0  0  0  0  0  0  0  0  0  0  0  0
   -3.2362    1.2437    2.2570 H   0  0  0  0  0  0  0  0  0  0  0  0
    0.4035    1.9219    0.1716 H   0  0  0  0  0  0  0  0  0  0  0  0
    2.2035    0.5210    1.2017 H   0  0  0  0  0  0  0  0  0  0  0  0
    1.4779    1.4944    2.4887 H   0  0  0  0  0  0  0  0  0  0  0  0
    1.0343   -0.2041    2.3185 H   0  0  0  0  0  0  0  0  0  0  0  0
    0.0769   -0.9965   -0.8970 C   0  0  0  0  0  3  0  0  0  0  0  0
    1.6972   -1.6243   -1.1909 S   0  0  0  0  0  0  0  0  0  0  0  0
    0.1079    0.0855   -0.0411 H   0  0  0  0  0  0  0  0  0  0  0  0
   -0.3363   -0.5775   -1.8104 H   0  0  0  0  0  0  0  0  0  0  0  0
   -0.6055   -1.6815   -0.4015 H   0  0  0  0  0  0  0  0  0  0  0  0
    1.8780   -2.2052    0.0022 H   0  0  0  0  0  0  0  0  0  0  0  0
  1  2  3  0
  1  5  1  0
  2  3  1  0
  3  4  1  0
  3  6  1  0
  3 12  1  0
  4  7  1  0
  4  8  1  0
  4  9  1  0
 10 11  1  0
 10 13  1  0
 10 14  1  0
 11 15  1  0
M  RAD  1  10   2
M  END
>  <reaction>  (4) 
rxn_1819

>  <mol_properties>  (4) 
{"1": {"label": "*0", "atom_type": "Ct"}, "2": {"label": "*1", "atom_type": "Cs"}, "9": {"label": "*3", "atom_type": "Cs"}, "10": {"label": "*4", "atom_type": "S2s"}, "11": {"label": "*2", "atom_type": "H0"}}

>  <type>  (4) 
ts

$$$$

     RDKit          3D

 15 13  0  0  0  0  0  0  0  0999 V2000
   -1.9310    1.5058    2.1224 C   0  0  0  0  0  0  0  0  0  0  0  0
   -0.9597    1.3639    1.4362 C   0  0  0  0  0  0  0  0  0  0  0  0
    0.2372    1.1791    0.6218 C   0  0  0  0  0  3  0  0  0  0  0  0
    1.3800    0.5126    1.3899 C   0  0  0  0  0  0  0  0  0  0  0  0
   -2.7933    1.6318    2.7317 H   0  0  0  0  0  0  0  0  0  0  0  0
    0.5595    2.1531    0.2452 H   0  0  0  0  0  0  0  0  0  0  0  0
    2.2511    0.3949    0.7443 H   0  0  0  0  0  0  0  0  0  0  0  0
    1.6684    1.1138    2.2523 H   0  0  0  0  0  0  0  0  0  0  0  0
    1.0814   -0.4723    1.7494 H   0  0  0  0  0  0  0  0  0  0  0  0
    0.2372   -1.2581   -0.3319 C   0  0  0  0  0  0  0  0  0  0  0  0
    0.2372   -1.2581   -2.1425 S   0  0  0  0  0  0  0  0  0  0  0  0
    0.2372   -0.0422    0.1439 H   0  0  0  0  0  0  0  0  0  0  0  0
   -0.6834   -1.7522   -0.0259 H   0  0  0  0  0  0  0  0  0  0  0  0
    1.0816   -1.8181    0.0646 H   0  0  0  0  0  0  0  0  0  0  0  0
    1.4076   -0.6299   -2.3089 H   0  0  0  0  0  0  0  0  0  0  0  0
  1  2  3  0
  1  5  1  0
  2  3  1  0
  3  4  1  0
  3  6  1  0
  4  7  1  0
  4  8  1  0
  4  9  1  0
 10 11  1  0
 10 12  1  0
 10 13  1  0
 10 14  1  0
 11 15  1  0
M  RAD  1   3   2
M  END
>  <reaction>  (5) 
rxn_1819

>  <mol_properties>  (5) 
{"1": {"label": "*0", "atom_type": "Ct"}, "2": {"label": "*1", "atom_type": "Cs"}, "9": {"label": "*3", "atom_type": "Cs"}, "10": {"label": "*4", "atom_type": "S2s"}, "11": {"label": "*2", "atom_type": "H0"}}

>  <type>  (5) 
unop_1

>  <geom_source>  (5) 
Heuristics

$$$$

     RDKit          3D

 15 13  0  0  0  0  0  0  0  0999 V2000
   -0.9126    2.4724   -0.5268 C   0  0  0  0  0  0  0  0  0  0  0  0
   -0.3270    1.7560    0.2337 C   0  0  0  0  0  0  0  0  0  0  0  0
    0.3640    0.8832    1.1774 C   0  0  0  0  0  3  0  0  0  0  0  0
   -0.4851    0.5460    2.4044 C   0  0  0  0  0  0  0  0  0  0  0  0
   -1.4324    3.1084   -1.2020 H   0  0  0  0  0  0  0  0  0  0  0  0
    1.2927    1.3680    1.4887 H   0  0  0  0  0  0  0  0  0  0  0  0
    0.0695   -0.1062    3.0800 H   0  0  0  0  0  0  0  0  0  0  0  0
   -0.7585    1.4517    2.9460 H   0  0  0  0  0  0  0  0  0  0  0  0
   -1.4037    0.0377    2.1108 H   0  0  0  0  0  0  0  0  0  0  0  0
    0.3640   -1.5539    0.2237 C   0  0  0  0  0  0  0  0  0  0  0  0
    0.3640   -1.5539   -1.5869 S   0  0  0  0  0  0  0  0  0  0  0  0
    0.3640   -0.3381    0.6995 H   0  0  0  0  0  0  0  0  0  0  0  0
   -0.5566   -2.0481    0.5297 H   0  0  0  0  0  0  0  0  0  0  0  0
    1.2084   -2.1139    0.6202 H   0  0  0  0  0  0  0  0  0  0  0  0
    1.5343   -0.9258   -1.7533 H   0  0  0  0  0  0  0  0  0  0  0  0
  1  2  3  0
  1  5  1  0
  2  3  1  0
  3  4  1  0
  3  6  1  0
  4  7  1  0
  4  8  1  0
  4  9  1  0
 10 11  1  0
 10 12  1  0
 10 13  1  0
 10 14  1  0
 11 15  1  0
M  RAD  1   3   2
M  END
>  <reaction>  (6) 
rxn_1819

>  <mol_properties>  (6) 
{"1": {"label": "*0", "atom_type": "Ct"}, "2": {"label": "*1", "atom_type": "Cs"}, "9": {"label": "*3", "atom_type": "Cs"}, "10": {"label": "*4", "atom_type": "S2s"}, "11": {"label": "*2", "atom_type": "H0"}}

>  <type>  (6) 
unop_2

>  <geom_source>  (6) 
Heuristics

$$$$

     RDKit          3D

 15 13  0  0  0  0  0  0  0  0999 V2000
   -1.2369    1.1612    2.9034 C   0  0  0  0  0  0  0  0  0  0  0  0
   -0.6902    1.1632    1.8378 C   0  0  0  0  0  0  0  0  0  0  0  0
    0.0008    1.1627    0.5523 C   0  0  0  0  0  3  0  0  0  0  0  0
    1.5176    1.0228    0.6945 C   0  0  0  0  0  0  0  0  0  0  0  0
   -1.7222    1.1595    3.8495 H   0  0  0  0  0  0  0  0  0  0  0  0
   -0.2401    2.0885    0.0238 H   0  0  0  0  0  0  0  0  0  0  0  0
    1.9911    1.0272   -0.2880 H   0  0  0  0  0  0  0  0  0  0  0  0
    1.9285    1.8458    1.2793 H   0  0  0  0  0  0  0  0  0  0  0  0
    1.7742    0.0901    1.1970 H   0  0  0  0  0  0  0  0  0  0  0  0
    0.0008   -1.2744   -0.4014 C   0  0  0  0  0  0  0  0  0  0  0  0
    0.0008   -1.2744   -2.2120 S   0  0  0  0  0  0  0  0  0  0  0  0
    0.0008   -0.0586    0.0744 H   0  0  0  0  0  0  0  0  0  0  0  0
   -0.9198   -1.7685   -0.0955 H   0  0  0  0  0  0  0  0  0  0  0  0
    0.8452   -1.8344   -0.0049 H   0  0  0  0  0  0  0  0  0  0  0  0
    1.1712   -0.6463   -2.3784 H   0  0  0  0  0  0  0  0  0  0  0  0
  1  2  3  0
  1  5  1  0
  2  3  1  0
  3  4  1  0
  3  6  1  0
  4  7  1  0
  4  8  1  0
  4  9  1  0
 10 11  1  0
 10 12  1  0
 10 13  1  0
 10 14  1  0
 11 15  1  0
M  RAD  1   3   2
M  END
>  <reaction>  (7) 
rxn_1819

>  <mol_properties>  (7) 
{"1": {"label": "*0", "atom_type": "Ct"}, "2": {"label": "*1", "atom_type": "Cs"}, "9": {"label": "*3", "atom_type": "Cs"}, "10": {"label": "*4", "atom_type": "S2s"}, "11": {"label": "*2", "atom_type": "H0"}}

>  <type>  (7) 
unop_3

>  <geom_source>  (7) 
Heuristics

$$$$

     RDKit          3D

 15 13  0  0  0  0  0  0  0  0999 V2000
    1.9042    2.0288    0.2870 C   0  0  0  0  0  0  0  0  0  0  0  0
    0.9330    1.4436    0.6727 C   0  0  0  0  0  0  0  0  0  0  0  0
   -0.2639    0.7551    1.1454 C   0  0  0  0  0  3  0  0  0  0  0  0
   -1.4126    1.7139    1.4641 C   0  0  0  0  0  0  0  0  0  0  0  0
    2.7664    2.5483   -0.0555 H   0  0  0  0  0  0  0  0  0  0  0  0
   -0.0065    0.1734    2.0341 H   0  0  0  0  0  0  0  0  0  0  0  0
   -2.2834    1.1575    1.8126 H   0  0  0  0  0  0  0  0  0  0  0  0
   -1.1214    2.4211    2.2409 H   0  0  0  0  0  0  0  0  0  0  0  0
   -1.6981    2.2827    0.5790 H   0  0  0  0  0  0  0  0  0  0  0  0
   -0.2639   -1.6820    0.1917 C   0  0  0  0  0  0  0  0  0  0  0  0
   -0.2639   -1.6820   -1.6190 S   0  0  0  0  0  0  0  0  0  0  0  0
   -0.2639   -0.4662    0.6675 H   0  0  0  0  0  0  0  0  0  0  0  0
   -1.1846   -2.1762    0.4976 H   0  0  0  0  0  0  0  0  0  0  0  0
    0.5804   -2.2420    0.5882 H   0  0  0  0  0  0  0  0  0  0  0  0
    0.9064   -1.0539   -1.7853 H   0  0  0  0  0  0  0  0  0  0  0  0
  1  2  3  0
  1  5  1  0
  2  3  1  0
  3  4  1  0
  3  6  1  0
  4  7  1  0
  4  8  1  0
  4  9  1  0
 10 11  1  0
 10 12  1  0
 10 13  1  0
 10 14  1  0
 11 15  1  0
M  RAD  1   3   2
M  END
>  <reaction>  (8) 
rxn_1819

>  <mol_properties>  (8) 
{"1": {"label": "*0", "atom_type": "Ct"}, "2": {"label": "*1", "atom_type": "Cs"}, "9": {"label": "*3", "atom_type": "Cs"}, "10": {"label": "*4", "atom_type": "S2s"}, "11": {"label": "*2", "atom_type": "H0"}}

>  <type>  (8) 
unop_4

>  <geom_source>  (8) 
Heuristics

$$$$

     RDKit          3D

 15 13  0  0  0  0  0  0  0  0999 V2000
   -0.1710    0.9365    3.2536 C   0  0  0  0  0  0  0  0  0  0  0  0
   -0.1906    0.9792    2.0568 C   0  0  0  0  0  0  0  0  0  0  0  0
   -0.1906    1.0462    0.5989 C   0  0  0  0  0  3  0  0  0  0  0  0
    1.0023    1.8247    0.0411 C   0  0  0  0  0  0  0  0  0  0  0  0
   -0.1536    0.8987    4.3161 H   0  0  0  0  0  0  0  0  0  0  0  0
   -1.1244    1.5081    0.2687 H   0  0  0  0  0  0  0  0  0  0  0  0
    0.9614    1.8490   -1.0485 H   0  0  0  0  0  0  0  0  0  0  0  0
    1.0006    2.8507    0.4094 H   0  0  0  0  0  0  0  0  0  0  0  0
    1.9416    1.3597    0.3409 H   0  0  0  0  0  0  0  0  0  0  0  0
   -0.1906   -1.3909   -0.3548 C   0  0  0  0  0  0  0  0  0  0  0  0
   -0.1906   -1.3909   -2.1654 S   0  0  0  0  0  0  0  0  0  0  0  0
   -0.1906   -0.1751    0.1210 H   0  0  0  0  0  0  0  0  0  0  0  0
   -1.1113   -1.8851   -0.0488 H   0  0  0  0  0  0  0  0  0  0  0  0
    0.6538   -1.9509    0.0417 H   0  0  0  0  0  0  0  0  0  0  0  0
    0.9797   -0.7628   -2.3318 H   0  0  0  0  0  0  0  0  0  0  0  0
  1  2  3  0
  1  5  1  0
  2  3  1  0
  3  4  1  0
  3  6  1  0
  4  7  1  0
  4  8  1  0
  4  9  1  0
 10 11  1  0
 10 12  1  0
 10 13  1  0
 10 14  1  0
 11 15  1  0
M  RAD  1   3   2
M  END
>  <reaction>  (9) 
rxn_1819

>  <mol_properties>  (9) 
{"1": {"label": "*0", "atom_type": "Ct"}, "2": {"label": "*1", "atom_type": "Cs"}, "9": {"label": "*3", "atom_type": "Cs"}, "10": {"label": "*4", "atom_type": "S2s"}, "11": {"label": "*2", "atom_type": "H0"}}

>  <type>  (9) 
unop_5

>  <geom_source>  (9) 
Heuristics

$$$$

     RDKit          3D

 15 13  0  0  0  0  0  0  0  0999 V2000
    2.1582    1.6312    1.2813 C   0  0  0  0  0  0  0  0  0  0  0  0
    1.0312    1.2509    1.1405 C   0  0  0  0  0  0  0  0  0  0  0  0
   -0.3508    0.8143    0.9697 C   0  0  0  0  0  3  0  0  0  0  0  0
   -1.3409    1.9800    0.9346 C   0  0  0  0  0  0  0  0  0  0  0  0
    3.1587    1.9689    1.4063 H   0  0  0  0  0  0  0  0  0  0  0  0
   -0.6068    0.1323    1.7844 H   0  0  0  0  0  0  0  0  0  0  0  0
   -2.3580    1.6080    0.8058 H   0  0  0  0  0  0  0  0  0  0  0  0
   -1.2974    2.5520    1.8615 H   0  0  0  0  0  0  0  0  0  0  0  0
   -1.1136    2.6554    0.1097 H   0  0  0  0  0  0  0  0  0  0  0  0
   -0.3508   -1.6228    0.0160 C   0  0  0  0  0  0  0  0  0  0  0  0
   -0.3508   -1.6228   -1.7947 S   0  0  0  0  0  0  0  0  0  0  0  0
   -0.3508   -0.4070    0.4918 H   0  0  0  0  0  0  0  0  0  0  0  0
   -1.2715   -2.1170    0.3219 H   0  0  0  0  0  0  0  0  0  0  0  0
    0.4935   -2.1828    0.4125 H   0  0  0  0  0  0  0  0  0  0  0  0
    0.8195   -0.9947   -1.9611 H   0  0  0  0  0  0  0  0  0  0  0  0
  1  2  3  0
  1  5  1  0
  2  3  1  0
  3  4  1  0
  3  6  1  0
  4  7  1  0
  4  8  1  0
  4  9  1  0
 10 11  1  0
 10 12  1  0
 10 13  1  0
 10 14  1  0
 11 15  1  0
M  RAD  1   3   2
M  END
>  <reaction>  (10) 
rxn_1819

>  <mol_properties>  (10) 
{"1": {"label": "*0", "atom_type": "Ct"}, "2": {"label": "*1", "atom_type": "Cs"}, "9": {"label": "*3", "atom_type": "Cs"}, "10": {"label": "*4", "atom_type": "S2s"}, "11": {"label": "*2", "atom_type": "H0"}}

>  <type>  (10) 
unop_6

>  <geom_source>  (10) 
Heuristics

$$$$

     RDKit          3D

 15 13  0  0  0  0  0  0  0  0999 V2000
    1.8399    1.2387    2.2848 C   0  0  0  0  0  0  0  0  0  0  0  0
    0.8601    1.0641    1.6185 C   0  0  0  0  0  0  0  0  0  0  0  0
   -0.3368    0.8793    0.8041 C   0  0  0  0  0  3  0  0  0  0  0  0
   -0.9634    2.2030    0.3620 C   0  0  0  0  0  0  0  0  0  0  0  0
    2.7097    1.3937    2.8764 H   0  0  0  0  0  0  0  0  0  0  0  0
   -1.0632    0.2953    1.3749 H   0  0  0  0  0  0  0  0  0  0  0  0
   -1.8522    2.0170   -0.2421 H   0  0  0  0  0  0  0  0  0  0  0  0
   -1.2526    2.8014    1.2261 H   0  0  0  0  0  0  0  0  0  0  0  0
   -0.2584    2.7852   -0.2315 H   0  0  0  0  0  0  0  0  0  0  0  0
   -0.3368   -1.5578   -0.1496 C   0  0  0  0  0  0  0  0  0  0  0  0
   -0.3368   -1.5578   -1.9602 S   0  0  0  0  0  0  0  0  0  0  0  0
   -0.3368   -0.3420    0.3262 H   0  0  0  0  0  0  0  0  0  0  0  0
   -1.2575   -2.0520    0.1564 H   0  0  0  0  0  0  0  0  0  0  0  0
    0.5075   -2.1178    0.2469 H   0  0  0  0  0  0  0  0  0  0  0  0
    0.8335   -0.9297   -2.1266 H   0  0  0  0  0  0  0  0  0  0  0  0
  1  2  3  0
  1  5  1  0
  2  3  1  0
  3  4  1  0
  3  6  1  0
  4  7  1  0
  4  8  1  0
  4  9  1  0
 10 11  1  0
 10 12  1  0
 10 13  1  0
 10 14  1  0
 11 15  1  0
M  RAD  1   3   2
M  END
>  <reaction>  (11) 
rxn_1819

>  <mol_properties>  (11) 
{"1": {"label": "*0", "atom_type": "Ct"}, "2": {"label": "*1", "atom_type": "Cs"}, "9": {"label": "*3", "atom_type": "Cs"}, "10": {"label": "*4", "atom_type": "S2s"}, "11": {"label": "*2", "atom_type": "H0"}}

>  <type>  (11) 
unop_7

>  <geom_source>  (11) 
Heuristics

$$$$

     RDKit          3D

 15 13  0  0  0  0  0  0  0  0999 V2000
   -2.1155    1.8992    1.1183 C   0  0  0  0  0  0  0  0  0  0  0  0
   -0.9807    1.5517    0.9577 C   0  0  0  0  0  0  0  0  0  0  0  0
    0.4014    1.1151    0.7868 C   0  0  0  0  0  3  0  0  0  0  0  0
    0.9108    0.2841    1.9658 C   0  0  0  0  0  0  0  0  0  0  0  0
   -3.1230    2.2077    1.2610 H   0  0  0  0  0  0  0  0  0  0  0  0
    1.0337    1.9961    0.6510 H   0  0  0  0  0  0  0  0  0  0  0  0
    1.9444   -0.0195    1.7955 H   0  0  0  0  0  0  0  0  0  0  0  0
    0.8681    0.8590    2.8910 H   0  0  0  0  0  0  0  0  0  0  0  0
    0.3050   -0.6127    2.0970 H   0  0  0  0  0  0  0  0  0  0  0  0
    0.4014   -1.3220   -0.1669 C   0  0  0  0  0  0  0  0  0  0  0  0
    0.4014   -1.3220   -1.9775 S   0  0  0  0  0  0  0  0  0  0  0  0
    0.4014   -0.1062    0.3089 H   0  0  0  0  0  0  0  0  0  0  0  0
   -0.5193   -1.8162    0.1390 H   0  0  0  0  0  0  0  0  0  0  0  0
    1.2458   -1.8820    0.2296 H   0  0  0  0  0  0  0  0  0  0  0  0
    1.5717   -0.6939   -2.1439 H   0  0  0  0  0  0  0  0  0  0  0  0
  1  2  3  0
  1  5  1  0
  2  3  1  0
  3  4  1  0
  3  6  1  0
  4  7  1  0
  4  8  1  0
  4  9  1  0
 10 11  1  0
 10 12  1  0
 10 13  1  0
 10 14  1  0
 11 15  1  0
M  RAD  1   3   2
M  END
>  <reaction>  (12) 
rxn_1819

>  <mol_properties>  (12) 
{"1": {"label": "*0", "atom_type": "Ct"}, "2": {"label": "*1", "atom_type": "Cs"}, "9": {"label": "*3", "atom_type": "Cs"}, "10": {"label": "*4", "atom_type": "S2s"}, "11": {"label": "*2", "atom_type": "H0"}}

>  <type>  (12) 
unop_8

>  <geom_source>  (12) 
Heuristics

$$$$

     RDKit          3D

 15 13  0  0  0  0  0  0  0  0999 V2000
    1.1702    2.3389   -0.4456 C   0  0  0  0  0  0  0  0  0  0  0  0
    0.6189    1.6062    0.3248 C   0  0  0  0  0  0  0  0  0  0  0  0
   -0.0722    0.7334    1.2686 C   0  0  0  0  0  3  0  0  0  0  0  0
   -1.3054    1.3909    1.8906 C   0  0  0  0  0  0  0  0  0  0  0  0
    1.6597    2.9894   -1.1296 H   0  0  0  0  0  0  0  0  0  0  0  0
    0.6293    0.4395    2.0534 H   0  0  0  0  0  0  0  0  0  0  0  0
   -1.7887    0.7046    2.5870 H   0  0  0  0  0  0  0  0  0  0  0  0
   -1.0291    2.2952    2.4331 H   0  0  0  0  0  0  0  0  0  0  0  0
   -2.0266    1.6659    1.1208 H   0  0  0  0  0  0  0  0  0  0  0  0
   -0.0722   -1.7038    0.3149 C   0  0  0  0  0  0  0  0  0  0  0  0
   -0.0722   -1.7038   -1.4958 S   0  0  0  0  0  0  0  0  0  0  0  0
   -0.0722   -0.4879    0.7906 H   0  0  0  0  0  0  0  0  0  0  0  0
   -0.9929   -2.1979    0.6208 H   0  0  0  0  0  0  0  0  0  0  0  0
    0.7722   -2.2638    0.7113 H   0  0  0  0  0  0  0  0  0  0  0  0
    1.0981   -1.0756   -1.6622 H   0  0  0  0  0  0  0  0  0  0  0  0
  1  2  3  0
  1  5  1  0
  2  3  1  0
  3  4  1  0
  3  6  1  0
  4  7  1  0
  4  8  1  0
  4  9  1  0
 10 11  1  0
 10 12  1  0
 10 13  1  0
 10 14  1  0
 11 15  1  0
M  RAD  1   3   2
M  END
>  <reaction>  (13) 
rxn_1819

>  <mol_properties>  (13) 
{"1": {"label": "*0", "atom_type": "Ct"}, "2": {"label": "*1", "atom_type": "Cs"}, "9": {"label": "*3", "atom_type": "Cs"}, "10": {"label": "*4", "atom_type": "S2s"}, "11": {"label": "*2", "atom_type": "H0"}}

>  <type>  (13) 
unop_9

>  <geom_source>  (13) 
Heuristics

$$$$

     RDKit          3D

 15 13  0  0  0  0  0  0  0  0999 V2000
   -1.7430    2.2532    0.1505 C   0  0  0  0  0  0  0  0  0  0  0  0
   -0.7494    1.6955    0.5195 C   0  0  0  0  0  0  0  0  0  0  0  0
    0.4475    1.0071    0.9922 C   0  0  0  0  0  3  0  0  0  0  0  0
    0.2325    0.2932    2.3280 C   0  0  0  0  0  0  0  0  0  0  0  0
   -2.6251    2.7484   -0.1771 H   0  0  0  0  0  0  0  0  0  0  0  0
    1.2577    1.7348    1.0847 H   0  0  0  0  0  0  0  0  0  0  0  0
    1.1501   -0.2058    2.6416 H   0  0  0  0  0  0  0  0  0  0  0  0
   -0.0567    1.0029    3.1033 H   0  0  0  0  0  0  0  0  0  0  0  0
   -0.5558   -0.4550    2.2438 H   0  0  0  0  0  0  0  0  0  0  0  0
    0.4475   -1.4301    0.0385 C   0  0  0  0  0  0  0  0  0  0  0  0
    0.4475   -1.4301   -1.7722 S   0  0  0  0  0  0  0  0  0  0  0  0
    0.4475   -0.2142    0.5143 H   0  0  0  0  0  0  0  0  0  0  0  0
   -0.4732   -1.9242    0.3444 H   0  0  0  0  0  0  0  0  0  0  0  0
    1.2919   -1.9901    0.4350 H   0  0  0  0  0  0  0  0  0  0  0  0
    1.6178   -0.8019   -1.9386 H   0  0  0  0  0  0  0  0  0  0  0  0
  1  2  3  0
  1  5  1  0
  2  3  1  0
  3  4  1  0
  3  6  1  0
  4  7  1  0
  4  8  1  0
  4  9  1  0
 10 11  1  0
 10 12  1  0
 10 13  1  0
 10 14  1  0
 11 15  1  0
M  RAD  1   3   2
M  END
>  <reaction>  (14) 
rxn_1819

>  <mol_properties>  (14) 
{"1": {"label": "*0", "atom_type": "Ct"}, "2": {"label": "*1", "atom_type": "Cs"}, "9": {"label": "*3", "atom_type": "Cs"}, "10": {"label": "*4", "atom_type": "S2s"}, "11": {"label": "*2", "atom_type": "H0"}}

>  <type>  (14) 
unop_10

>  <geom_source>  (14) 
Heuristics

$$$$

     RDKit          3D

 15 13  0  0  0  0  0  0  0  0999 V2000
    0.9926    0.9645    3.0231 C   0  0  0  0  0  0  0  0  0  0  0  0
    0.4187    0.9423    1.9721 C   0  0  0  0  0  0  0  0  0  0  0  0
   -0.2724    0.9419    0.6866 C   0  0  0  0  0  3  0  0  0  0  0  0
   -0.1315    2.2681   -0.0628 C   0  0  0  0  0  0  0  0  0  0  0  0
    1.5021    0.9841    3.9561 H   0  0  0  0  0  0  0  0  0  0  0  0
   -1.3290    0.7199    0.8561 H   0  0  0  0  0  0  0  0  0  0  0  0
   -0.6619    2.2223   -1.0147 H   0  0  0  0  0  0  0  0  0  0  0  0
   -0.5449    3.0890    0.5234 H   0  0  0  0  0  0  0  0  0  0  0  0
    0.9170    2.4898   -0.2623 H   0  0  0  0  0  0  0  0  0  0  0  0
   -0.2724   -1.4952   -0.2671 C   0  0  0  0  0  0  0  0  0  0  0  0
   -0.2724   -1.4952   -2.0778 S   0  0  0  0  0  0  0  0  0  0  0  0
   -0.2724   -0.2794    0.2087 H   0  0  0  0  0  0  0  0  0  0  0  0
   -1.1930   -1.9894    0.0388 H   0  0  0  0  0  0  0  0  0  0  0  0
    0.5720   -2.0552    0.1294 H   0  0  0  0  0  0  0  0  0  0  0  0
    0.8980   -0.8671   -2.2441 H   0  0  0  0  0  0  0  0  0  0  0  0
  1  2  3  0
  1  5  1  0
  2  3  1  0
  3  4  1  0
  3  6  1  0
  4  7  1  0
  4  8  1  0
  4  9  1  0
 10 11  1  0
 10 12  1  0
 10 13  1  0
 10 14  1  0
 11 15  1  0
M  RAD  1   3   2
M  END
>  <reaction>  (15) 
rxn_1819

>  <mol_properties>  (15) 
{"1": {"label": "*0", "atom_type": "Ct"}, "2": {"label": "*1", "atom_type": "Cs"}, "9": {"label": "*3", "atom_type": "Cs"}, "10": {"label": "*4", "atom_type": "S2s"}, "11": {"label": "*2", "atom_type": "H0"}}

>  <type>  (15) 
unop_11

>  <geom_source>  (15) 
Heuristics

$$$$

     RDKit          3D

 15 13  0  0  0  0  0  0  0  0999 V2000
    0.1492    2.4997   -0.7410 C   0  0  0  0  0  0  0  0  0  0  0  0
    0.1688    1.7188    0.1669 C   0  0  0  0  0  0  0  0  0  0  0  0
    0.1688    0.7785    1.2831 C   0  0  0  0  0  3  0  0  0  0  0  0
   -1.0241    0.9716    2.2211 C   0  0  0  0  0  0  0  0  0  0  0  0
    0.1318    3.1930   -1.5470 H   0  0  0  0  0  0  0  0  0  0  0  0
    1.1026    0.8936    1.8391 H   0  0  0  0  0  0  0  0  0  0  0  0
   -0.9832    0.2500    3.0378 H   0  0  0  0  0  0  0  0  0  0  0  0
   -1.0224    1.9751    2.6470 H   0  0  0  0  0  0  0  0  0  0  0  0
   -1.9634    0.8336    1.6854 H   0  0  0  0  0  0  0  0  0  0  0  0
    0.1688   -1.6586    0.3294 C   0  0  0  0  0  0  0  0  0  0  0  0
    0.1688   -1.6586   -1.4813 S   0  0  0  0  0  0  0  0  0  0  0  0
    0.1688   -0.4428    0.8052 H   0  0  0  0  0  0  0  0  0  0  0  0
   -0.7519   -2.1528    0.6353 H   0  0  0  0  0  0  0  0  0  0  0  0
    1.0131   -2.2186    0.7259 H   0  0  0  0  0  0  0  0  0  0  0  0
    1.3391   -1.0305   -1.6477 H   0  0  0  0  0  0  0  0  0  0  0  0
  1  2  3  0
  1  5  1  0
  2  3  1  0
  3  4  1  0
  3  6  1  0
  4  7  1  0
  4  8  1  0
  4  9  1  0
 10 11  1  0
 10 12  1  0
 10 13  1  0
 10 14  1  0
 11 15  1  0
M  RAD  1   3   2
M  END
>  <reaction>  (16) 
rxn_1819

>  <mol_properties>  (16) 
{"1": {"label": "*0", "atom_type": "Ct"}, "2": {"label": "*1", "atom_type": "Cs"}, "9": {"label": "*3", "atom_type": "Cs"}, "10": {"label": "*4", "atom_type": "S2s"}, "11": {"label": "*2", "atom_type": "H0"}}

>  <type>  (16) 
unop_12

>  <geom_source>  (16) 
Heuristics

$$$$

     RDKit          3D

 15 13  0  0  0  0  0  0  0  0999 V2000
    2.8990    0.6778    0.9310 S   0  0  0  0  0  0  0  0  0  0  0  0
   -0.6128   -0.1959   -0.4668 C   0  0  0  0  0  3  0  0  0  0  0  0
   -1.2384   -1.3032    0.3701 C   0  0  0  0  0  0  0  0  0  0  0  0
    1.9623    0.1651   -0.5357 C   0  0  0  0  0  0  0  0  0  0  0  0
   -1.2789    1.0853   -0.2084 C   0  0  0  0  0  0  0  0  0  0  0  0
   -1.8254    2.1387    0.0035 C   0  0  0  0  0  0  0  0  0  0  0  0
   -0.7064   -0.4441   -1.5451 H   0  0  0  0  0  0  0  0  0  0  0  0
    0.7403   -0.0810   -0.1441 H   0  0  0  0  0  0  0  0  0  0  0  0
   -0.7176   -2.2609    0.1610 H   0  0  0  0  0  0  0  0  0  0  0  0
   -1.1349   -1.0724    1.4519 H   0  0  0  0  0  0  0  0  0  0  0  0
   -2.3145   -1.4195    0.1181 H   0  0  0  0  0  0  0  0  0  0  0  0
    2.0673   -0.9301   -0.6801 H   0  0  0  0  0  0  0  0  0  0  0  0
    2.3556    0.6937   -1.4282 H   0  0  0  0  0  0  0  0  0  0  0  0
    2.1095   -0.1169    1.7832 H   0  0  0  0  0  0  0  0  0  0  0  0
   -2.3052    3.0634    0.1897 H   0  0  0  0  0  0  0  0  0  0  0  0
  1  4  1  0
  1 14  1  0
  2  3  1  0
  2  5  1  0
  2  7  1  0
  3  9  1  0
  3 10  1  0
  3 11  1  0
  4  8  1  0
  4 12  1  0
  4 13  1  0
  5  6  3  0
  6 15  1  0
M  RAD  1   2   2
M  END
>  <reaction>  (17) 
rxn_1819

>  <mol_properties>  (17) 
{"1": {"label": "*0", "atom_type": "Ct"}, "2": {"label": "*1", "atom_type": "Cs"}, "9": {"label": "*3", "atom_type": "Cs"}, "10": {"label": "*4", "atom_type": "S2s"}, "11": {"label": "*2", "atom_type": "H0"}}

>  <type>  (17) 
unop_13

>  <geom_source>  (17) 
AutoTST

$$$$
