
     RDKit          3D

 10  9  0  0  0  0  0  0  0  0999 V2000
    1.8334    0.0847   -0.1062 C   0  0  0  0  0  0  0  0  0  0  0  0
    0.5993   -0.4071   -0.0750 C   0  0  0  0  0  0  0  0  0  0  0  0
   -0.5993    0.4071    0.0750 C   0  0  0  0  0  0  0  0  0  0  0  0
   -1.8334   -0.0847    0.1062 C   0  0  0  0  0  0  0  0  0  0  0  0
    2.0179    1.1498   -0.0189 H   0  0  0  0  0  0  0  0  0  0  0  0
    2.6972   -0.5572   -0.2194 H   0  0  0  0  0  0  0  0  0  0  0  0
    0.4465   -1.4793   -0.1649 H   0  0  0  0  0  0  0  0  0  0  0  0
   -0.4465    1.4793    0.1649 H   0  0  0  0  0  0  0  0  0  0  0  0
   -2.0179   -1.1498    0.0189 H   0  0  0  0  0  0  0  0  0  0  0  0
   -2.6972    0.5572    0.2194 H   0  0  0  0  0  0  0  0  0  0  0  0
  1  2  2  3
  1  5  1  0
  1  6  1  0
  2  3  1  0
  2  7  1  0
  3  4  2  3
  3  8  1  0
  4  9  1  0
  4 10  1  0
M  END
>  <reaction>  (1) 
rxn_1667

>  <mol_properties>  (1) 
{"2": {"label": "donator", "atom_type": "Cd"}, "7": {"label": "d_hydrogen", "atom_type": "H0"}}

>  <type>  (1) 
r1h

$$$$

     RDKit          3D

  7  6  0  0  0  0  0  0  0  0999 V2000
    1.3002    0.7433    2.1279 C   0  0  0  0  0  0  0  0  0  0  0  0
    0.5758    0.3292    1.2319 C   0  0  0  0  0  0  0  0  0  0  0  0
   -0.2057   -0.1176    0.2652 C   0  0  0  0  0  3  0  0  0  0  0  0
   -0.9747   -0.5572   -0.6858 C   0  0  0  0  0  0  0  0  0  0  0  0
    1.9293    1.1030    2.9060 H   0  0  0  0  0  0  0  0  0  0  0  0
   -1.9977   -0.8727   -0.4932 H   0  0  0  0  0  0  0  0  0  0  0  0
   -0.6274   -0.6280   -1.7143 H   0  0  0  0  0  0  0  0  0  0  0  0
  1  2  3  0
  1  5  1  0
  2  3  1  0
  3  4  2  3
  4  6  1  0
  4  7  1  0
M  RAD  1   3   2
M  END
>  <reaction>  (2) 
rxn_1667

>  <mol_properties>  (2) 
{"2": {"label": "acceptor", "atom_type": "Cd"}}

>  <type>  (2) 
r2

$$$$

     RDKit          3D

  8  7  0  0  0  0  0  0  0  0999 V2000
    1.9029    0.9046   -0.2050 C   0  0  0  0  0  0  0  0  0  0  0  0
    0.8517    0.4283    0.1217 C   0  0  0  0  0  0  0  0  0  0  0  0
   -0.3908   -0.1311    0.5404 C   0  0  0  0  0  0  0  0  0  0  0  0
   -1.2847   -0.6576   -0.2899 C   0  0  0  0  0  0  0  0  0  0  0  0
    2.8335    1.3255   -0.5014 H   0  0  0  0  0  0  0  0  0  0  0  0
   -0.5867   -0.1096    1.6074 H   0  0  0  0  0  0  0  0  0  0  0  0
   -2.2126   -1.0686    0.0850 H   0  0  0  0  0  0  0  0  0  0  0  0
   -1.1134   -0.6914   -1.3582 H   0  0  0  0  0  0  0  0  0  0  0  0
  1  2  3  0
  1  5  1  0
  2  3  1  0
  3  4  2  3
  3  6  1  0
  4  7  1  0
  4  8  1  0
M  END
>  <reaction>  (3) 
rxn_1667

>  <mol_properties>  (3) 
{"2": {"label": "acceptor", "atom_type": "Cd"}, "7": {"label": "a_hydrogen", "atom_type": "H0"}}

>  <type>  (3) 
r2h

$$$$

     RDKit          3D

 17 15  0  0  0  0  0  0  0  0999 V2000
   -1.0115    1.4248   -2.5238 C   0  0  0  0  0  0  0  0  0  0  0  0
   -0.4948    1.4332   -1.4371 C   0  0  0  0  0  0  0  0  0  0  0  0
    0.0783    1.3277   -0.1625 C   0  0  0  0  0  0  0  0  0  0  0  0
    0.7786    2.1979    0.5438 C   0  0  0  0  0  0  0  0  0  0  0  0
   -1.4650    1.4398   -3.4856 H   0  0  0  0  0  0  0  0  0  0  0  0
    0.9962    3.1941    0.1728 H   0  0  0  0  0  0  0  0  0  0  0  0
    1.1591    1.9314    1.5229 H   0  0  0  0  0  0  0  0  0  0  0  0
    0.7580   -2.1711   -0.7171 C   0  0  0  0  0  0  0  0  0  0  0  0
    0.2417   -2.1451    0.5071 C   0  0  0  0  0  0  0  0  0  0  0  0
   -0.2449   -0.9536    1.1651 C   0  0  0  0  0  3  0  0  0  0  0  0
   -0.7780   -0.7811    2.3582 C   0  0  0  0  0  0  0  0  0  0  0  0
    0.8444   -1.2708   -1.3140 H   0  0  0  0  0  0  0  0  0  0  0  0
    1.1045   -3.0960   -1.1588 H   0  0  0  0  0  0  0  0  0  0  0  0
    0.1622   -3.0691    1.0793 H   0  0  0  0  0  0  0  0  0  0  0  0
   -0.1096    0.1878    0.4186 H   0  0  0  0  0  0  0  0  0  0  0  0
   -0.9149   -1.6160    3.0425 H   0  0  0  0  0  0  0  0  0  0  0  0
   -1.1041    0.1945    2.6994 H   0  0  0  0  0  0  0  0  0  0  0  0
  1  2  3  0
  1  5  1  0
  2  3  1  0
  3  4  2  3
  3 15  1  0
  4  6  1  0
  4  7  1  0
  8  9  2  3
  8 12  1  0
  8 13  1  0
  9 10  1  0
  9 14  1  0
 10 11  2  3
 11 16  1  0
 11 17  1  0
M  RAD  1  10   2
M  END
>  <reaction>  (4) 
rxn_1667

>  <mol_properties>  (4) 
{"1": {"label": "*0", "atom_type": "Ct"}, "2": {"label": "*1", "atom_type": "Cd"}, "8": {"label": "*4", "atom_type": "Cd"}, "9": {"label": "*3", "atom_type": "Cd"}, "14": {"label": "*2", "atom_type": "H0"}}

>  <type>  (4) 
ts

$$$$

     RDKit          3D

 17 15  0  0  0  0  0  0  0  0999 V2000
   -1.8476    2.6797   -0.0691 C   0  0  0  0  0  0  0  0  0  0  0  0
   -0.8978    1.9775   -0.2771 C   0  0  0  0  0  0  0  0  0  0  0  0
    0.2118    1.1177   -0.5255 C   0  0  0  0  0  0  0  0  0  0  0  0
    1.4698    1.5364   -0.6130 C   0  0  0  0  0  0  0  0  0  0  0  0
   -2.6898    3.3023    0.1153 H   0  0  0  0  0  0  0  0  0  0  0  0
    1.7276    2.5813   -0.4972 H   0  0  0  0  0  0  0  0  0  0  0  0
    2.2732    0.8372   -0.8035 H   0  0  0  0  0  0  0  0  0  0  0  0
    0.2118   -2.3558   -1.3828 C   0  0  0  0  0  0  0  0  0  0  0  0
    0.2118   -2.3558   -0.0539 C   0  0  0  0  0  0  0  0  0  0  0  0
    0.2118   -1.1485    0.7614 C   0  0  0  0  0  3  0  0  0  0  0  0
    0.2118   -1.1485    2.0903 C   0  0  0  0  0  0  0  0  0  0  0  0
    0.2118   -1.4292   -1.9462 H   0  0  0  0  0  0  0  0  0  0  0  0
    0.2118   -3.2774   -1.9500 H   0  0  0  0  0  0  0  0  0  0  0  0
    0.2118   -3.3007    0.4827 H   0  0  0  0  0  0  0  0  0  0  0  0
    0.2118   -0.0146    0.1175 H   0  0  0  0  0  0  0  0  0  0  0  0
    0.2118   -2.0751    2.6537 H   0  0  0  0  0  0  0  0  0  0  0  0
    0.2118   -0.2269    2.6575 H   0  0  0  0  0  0  0  0  0  0  0  0
  1  2  3  0
  1  5  1  0
  2  3  1  0
  3  4  2  3
  3 15  1  0
  4  6  1  0
  4  7  1  0
  8  9  2  3
  8 12  1  0
  8 13  1  0
  9 10  1  0
  9 14  1  0
 10 11  2  3
 11 16  1  0
 11 17  1  0
M  RAD  1  10   2
M  END
>  <reaction>  (5) 
rxn_1667

>  <mol_properties>  (5) 
{"1": {"label": "*0", "atom_type": "Ct"}, "2": {"label": "*1", "atom_type": "Cd"}, "8": {"label": "*4", "atom_type": "Cd"}, "9": {"label": "*3", "atom_type": "Cd"}, "14": {"label": "*2", "atom_type": "H0"}}

>  <type>  (5) 
unop_1

>  <geom_source>  (5) 
Heuristics

$$$$

     RDKit          3D

 17 15  0  0  0  0  0  0  0  0999 V2000
   -0.9926    1.2886   -2.4494 C   0  0  0  0  0  0  0  0  0  0  0  0
   -0.4553    1.3191   -1.3776 C   0  0  0  0  0  0  0  0  0  0  0  0
    0.1853    1.3235   -0.1041 C   0  0  0  0  0  0  0  0  0  0  0  0
    0.4556    2.4261    0.5866 C   0  0  0  0  0  0  0  0  0  0  0  0
   -1.4691    1.2616   -3.3998 H   0  0  0  0  0  0  0  0  0  0  0  0
    0.1971    3.4073    0.2097 H   0  0  0  0  0  0  0  0  0  0  0  0
    0.9445    2.3690    1.5500 H   0  0  0  0  0  0  0  0  0  0  0  0
    0.1853   -2.1499   -0.9614 C   0  0  0  0  0  0  0  0  0  0  0  0
    0.1853   -2.1499    0.3675 C   0  0  0  0  0  0  0  0  0  0  0  0
    0.1853   -0.9426    1.1828 C   0  0  0  0  0  3  0  0  0  0  0  0
    0.1853   -0.9426    2.5117 C   0  0  0  0  0  0  0  0  0  0  0  0
    0.1853   -1.2233   -1.5248 H   0  0  0  0  0  0  0  0  0  0  0  0
    0.1853   -3.0715   -1.5285 H   0  0  0  0  0  0  0  0  0  0  0  0
    0.1853   -3.0949    0.9041 H   0  0  0  0  0  0  0  0  0  0  0  0
    0.1853    0.1913    0.5389 H   0  0  0  0  0  0  0  0  0  0  0  0
    0.1853   -1.8692    3.0751 H   0  0  0  0  0  0  0  0  0  0  0  0
    0.1853   -0.0211    3.0789 H   0  0  0  0  0  0  0  0  0  0  0  0
  1  2  3  0
  1  5  1  0
  2  3  1  0
  3  4  2  3
  3 15  1  0
  4  6  1  0
  4  7  1  0
  8  9  2  3
  8 12  1  0
  8 13  1  0
  9 10  1  0
  9 14  1  0
 10 11  2  3
 11 16  1  0
 11 17  1  0
M  RAD  1  10   2
M  END
>  <reaction>  (6) 
rxn_1667

>  <mol_properties>  (6) 
{"1": {"label": "*0", "atom_type": "Ct"}, "2": {"label": "*1", "atom_type": "Cd"}, "8": {"label": "*4", "atom_type": "Cd"}, "9": {"label": "*3", "atom_type": "Cd"}, "14": {"label": "*2", "atom_type": "H0"}}

>  <type>  (6) 
unop_2

>  <geom_source>  (6) 
Heuristics

$$$$

     RDKit          3D

 17 15  0  0  0  0  0  0  0  0999 V2000
   -1.1190    3.0694    0.6516 C   0  0  0  0  0  0  0  0  0  0  0  0
   -0.5628    2.1683    0.0883 C   0  0  0  0  0  0  0  0  0  0  0  0
    0.0778    1.0769   -0.5679 C   0  0  0  0  0  0  0  0  0  0  0  0
    1.1258    1.2079   -1.3743 C   0  0  0  0  0  0  0  0  0  0  0  0
   -1.6121    3.8684    1.1510 H   0  0  0  0  0  0  0  0  0  0  0  0
    1.5618    2.1765   -1.5825 H   0  0  0  0  0  0  0  0  0  0  0  0
    1.5719    0.3424   -1.8460 H   0  0  0  0  0  0  0  0  0  0  0  0
    0.0778   -2.3965   -1.4251 C   0  0  0  0  0  0  0  0  0  0  0  0
    0.0778   -2.3965   -0.0962 C   0  0  0  0  0  0  0  0  0  0  0  0
    0.0778   -1.1892    0.7190 C   0  0  0  0  0  3  0  0  0  0  0  0
    0.0778   -1.1892    2.0479 C   0  0  0  0  0  0  0  0  0  0  0  0
    0.0778   -1.4699   -1.9886 H   0  0  0  0  0  0  0  0  0  0  0  0
    0.0778   -3.3181   -1.9923 H   0  0  0  0  0  0  0  0  0  0  0  0
    0.0778   -3.3415    0.4404 H   0  0  0  0  0  0  0  0  0  0  0  0
    0.0778   -0.0553    0.0751 H   0  0  0  0  0  0  0  0  0  0  0  0
    0.0778   -2.1158    2.6114 H   0  0  0  0  0  0  0  0  0  0  0  0
    0.0778   -0.2677    2.6151 H   0  0  0  0  0  0  0  0  0  0  0  0
  1  2  3  0
  1  5  1  0
  2  3  1  0
  3  4  2  3
  3 15  1  0
  4  6  1  0
  4  7  1  0
  8  9  2  3
  8 12  1  0
  8 13  1  0
  9 10  1  0
  9 14  1  0
 10 11  2  3
 11 16  1  0
 11 17  1  0
M  RAD  1  10   2
M  END
>  <reaction>  (7) 
rxn_1667

>  <mol_properties>  (7) 
{"1": {"label": "*0", "atom_type": "Ct"}, "2": {"label": "*1", "atom_type": "Cd"}, "8": {"label": "*4", "atom_type": "Cd"}, "9": {"label": "*3", "atom_type": "Cd"}, "14": {"label": "*2", "atom_type": "H0"}}

>  <type>  (7) 
unop_3

>  <geom_source>  (7) 
Heuristics

$$$$

     RDKit          3D

 17 15  0  0  0  0  0  0  0  0999 V2000
    1.7474    1.6542   -1.8394 C   0  0  0  0  0  0  0  0  0  0  0  0
    0.8125    1.4894   -1.1063 C   0  0  0  0  0  0  0  0  0  0  0  0
   -0.2970    1.2622   -0.2406 C   0  0  0  0  0  0  0  0  0  0  0  0
   -0.9382    2.2259    0.4122 C   0  0  0  0  0  0  0  0  0  0  0  0
    2.5763    1.8003   -2.4894 H   0  0  0  0  0  0  0  0  0  0  0  0
   -0.6449    3.2637    0.3197 H   0  0  0  0  0  0  0  0  0  0  0  0
   -1.7755    1.9943    1.0570 H   0  0  0  0  0  0  0  0  0  0  0  0
   -0.2970   -2.2112   -1.0979 C   0  0  0  0  0  0  0  0  0  0  0  0
   -0.2970   -2.2112    0.2310 C   0  0  0  0  0  0  0  0  0  0  0  0
   -0.2970   -1.0039    1.0463 C   0  0  0  0  0  3  0  0  0  0  0  0
   -0.2970   -1.0039    2.3752 C   0  0  0  0  0  0  0  0  0  0  0  0
   -0.2970   -1.2846   -1.6613 H   0  0  0  0  0  0  0  0  0  0  0  0
   -0.2970   -3.1328   -1.6650 H   0  0  0  0  0  0  0  0  0  0  0  0
   -0.2970   -3.1562    0.7676 H   0  0  0  0  0  0  0  0  0  0  0  0
   -0.2970    0.1300    0.4024 H   0  0  0  0  0  0  0  0  0  0  0  0
   -0.2970   -1.9305    2.9387 H   0  0  0  0  0  0  0  0  0  0  0  0
   -0.2970   -0.0823    2.9424 H   0  0  0  0  0  0  0  0  0  0  0  0
  1  2  3  0
  1  5  1  0
  2  3  1  0
  3  4  2  3
  3 15  1  0
  4  6  1  0
  4  7  1  0
  8  9  2  3
  8 12  1  0
  8 13  1  0
  9 10  1  0
  9 14  1  0
 10 11  2  3
 11 16  1  0
 11 17  1  0
M  RAD  1  10   2
M  END
>  <reaction>  (8) 
rxn_1667

>  <mol_properties>  (8) 
{"1": {"label": "*0", "atom_type": "Ct"}, "2": {"label": "*1", "atom_type": "Cd"}, "8": {"label": "*4", "atom_type": "Cd"}, "9": {"label": "*3", "atom_type": "Cd"}, "14": {"label": "*2", "atom_type": "H0"}}

>  <type>  (8) 
unop_4

>  <geom_source>  (8) 
Heuristics

$$$$

     RDKit          3D

 17 15  0  0  0  0  0  0  0  0999 V2000
    0.0000    3.2145    0.9575 C   0  0  0  0  0  0  0  0  0  0  0  0
   -0.0000    2.2402    0.2579 C   0  0  0  0  0  0  0  0  0  0  0  0
   -0.0000    1.0641   -0.5475 C   0  0  0  0  0  0  0  0  0  0  0  0
    0.0000    1.0749   -1.8763 C   0  0  0  0  0  0  0  0  0  0  0  0
    0.0000    4.0783    1.5778 H   0  0  0  0  0  0  0  0  0  0  0  0
    0.0000    2.0023   -2.4345 H   0  0  0  0  0  0  0  0  0  0  0  0
    0.0000    0.1494   -2.4367 H   0  0  0  0  0  0  0  0  0  0  0  0
   -0.0000   -2.4094   -1.4048 C   0  0  0  0  0  0  0  0  0  0  0  0
   -0.0000   -2.4094   -0.0759 C   0  0  0  0  0  0  0  0  0  0  0  0
   -0.0000   -1.2020    0.7394 C   0  0  0  0  0  3  0  0  0  0  0  0
   -0.0000   -1.2020    2.0682 C   0  0  0  0  0  0  0  0  0  0  0  0
   -0.0000   -1.4828   -1.9683 H   0  0  0  0  0  0  0  0  0  0  0  0
    0.0000   -3.3309   -1.9720 H   0  0  0  0  0  0  0  0  0  0  0  0
   -0.0000   -3.3543    0.4607 H   0  0  0  0  0  0  0  0  0  0  0  0
   -0.0000   -0.0681    0.0954 H   0  0  0  0  0  0  0  0  0  0  0  0
    0.0000   -2.1286    2.6317 H   0  0  0  0  0  0  0  0  0  0  0  0
   -0.0000   -0.2805    2.6354 H   0  0  0  0  0  0  0  0  0  0  0  0
  1  2  3  0
  1  5  1  0
  2  3  1  0
  3  4  2  3
  3 15  1  0
  4  6  1  0
  4  7  1  0
  8  9  2  3
  8 12  1  0
  8 13  1  0
  9 10  1  0
  9 14  1  0
 10 11  2  3
 11 16  1  0
 11 17  1  0
M  RAD  1  10   2
M  END
>  <reaction>  (9) 
rxn_1667

>  <mol_properties>  (9) 
{"1": {"label": "*0", "atom_type": "Ct"}, "2": {"label": "*1", "atom_type": "Cd"}, "8": {"label": "*4", "atom_type": "Cd"}, "9": {"label": "*3", "atom_type": "Cd"}, "14": {"label": "*2", "atom_type": "H0"}}

>  <type>  (9) 
unop_5

>  <geom_source>  (9) 
Heuristics

$$$$

     RDKit          3D

 17 15  0  0  0  0  0  0  0  0999 V2000
    2.0655    2.1613   -0.9752 C   0  0  0  0  0  0  0  0  0  0  0  0
    0.9788    1.7286   -0.7095 C   0  0  0  0  0  0  0  0  0  0  0  0
   -0.3024    1.1852   -0.4009 C   0  0  0  0  0  0  0  0  0  0  0  0
   -1.3366    1.9110    0.0106 C   0  0  0  0  0  0  0  0  0  0  0  0
    3.0290    2.5449   -1.2107 H   0  0  0  0  0  0  0  0  0  0  0  0
   -1.2605    2.9833    0.1372 H   0  0  0  0  0  0  0  0  0  0  0  0
   -2.2873    1.4437    0.2306 H   0  0  0  0  0  0  0  0  0  0  0  0
   -0.3024   -2.2883   -1.2581 C   0  0  0  0  0  0  0  0  0  0  0  0
   -0.3024   -2.2883    0.0708 C   0  0  0  0  0  0  0  0  0  0  0  0
   -0.3024   -1.0810    0.8861 C   0  0  0  0  0  3  0  0  0  0  0  0
   -0.3024   -1.0810    2.2149 C   0  0  0  0  0  0  0  0  0  0  0  0
   -0.3024   -1.3617   -1.8216 H   0  0  0  0  0  0  0  0  0  0  0  0
   -0.3024   -3.2098   -1.8253 H   0  0  0  0  0  0  0  0  0  0  0  0
   -0.3024   -3.2332    0.6074 H   0  0  0  0  0  0  0  0  0  0  0  0
   -0.3024    0.0529    0.2421 H   0  0  0  0  0  0  0  0  0  0  0  0
   -0.3024   -2.0076    2.7784 H   0  0  0  0  0  0  0  0  0  0  0  0
   -0.3024   -0.1594    2.7821 H   0  0  0  0  0  0  0  0  0  0  0  0
  1  2  3  0
  1  5  1  0
  2  3  1  0
  3  4  2  3
  3 15  1  0
  4  6  1  0
  4  7  1  0
  8  9  2  3
  8 12  1  0
  8 13  1  0
  9 10  1  0
  9 14  1  0
 10 11  2  3
 11 16  1  0
 11 17  1  0
M  RAD  1  10   2
M  END
>  <reaction>  (10) 
rxn_1667

>  <mol_properties>  (10) 
{"1": {"label": "*0", "atom_type": "Ct"}, "2": {"label": "*1", "atom_type": "Cd"}, "8": {"label": "*4", "atom_type": "Cd"}, "9": {"label": "*3", "atom_type": "Cd"}, "14": {"label": "*2", "atom_type": "H0"}}

>  <type>  (10) 
unop_6

>  <geom_source>  (10) 
Heuristics

$$$$

     RDKit          3D

 17 15  0  0  0  0  0  0  0  0999 V2000
    1.8476    2.6797   -0.0691 C   0  0  0  0  0  0  0  0  0  0  0  0
    0.8978    1.9775   -0.2771 C   0  0  0  0  0  0  0  0  0  0  0  0
   -0.2118    1.1177   -0.5255 C   0  0  0  0  0  0  0  0  0  0  0  0
   -1.4698    1.5364   -0.6130 C   0  0  0  0  0  0  0  0  0  0  0  0
    2.6898    3.3023    0.1152 H   0  0  0  0  0  0  0  0  0  0  0  0
   -1.7276    2.5813   -0.4972 H   0  0  0  0  0  0  0  0  0  0  0  0
   -2.2732    0.8372   -0.8035 H   0  0  0  0  0  0  0  0  0  0  0  0
   -0.2118   -2.3558   -1.3828 C   0  0  0  0  0  0  0  0  0  0  0  0
   -0.2118   -2.3558   -0.0539 C   0  0  0  0  0  0  0  0  0  0  0  0
   -0.2118   -1.1485    0.7614 C   0  0  0  0  0  3  0  0  0  0  0  0
   -0.2118   -1.1485    2.0903 C   0  0  0  0  0  0  0  0  0  0  0  0
   -0.2118   -1.4292   -1.9462 H   0  0  0  0  0  0  0  0  0  0  0  0
   -0.2118   -3.2774   -1.9500 H   0  0  0  0  0  0  0  0  0  0  0  0
   -0.2118   -3.3007    0.4827 H   0  0  0  0  0  0  0  0  0  0  0  0
   -0.2118   -0.0146    0.1175 H   0  0  0  0  0  0  0  0  0  0  0  0
   -0.2118   -2.0751    2.6537 H   0  0  0  0  0  0  0  0  0  0  0  0
   -0.2118   -0.2269    2.6575 H   0  0  0  0  0  0  0  0  0  0  0  0
  1  2  3  0
  1  5  1  0
  2  3  1  0
  3  4  2  3
  3 15  1  0
  4  6  1  0
  4  7  1  0
  8  9  2  3
  8 12  1  0
  8 13  1  0
  9 10  1  0
  9 14  1  0
 10 11  2  3
 11 16  1  0
 11 17  1  0
M  RAD  1  10   2
M  END
>  <reaction>  (11) 
rxn_1667

>  <mol_properties>  (11) 
{"1": {"label": "*0", "atom_type": "Ct"}, "2": {"label": "*1", "atom_type": "Cd"}, "8": {"label": "*4", "atom_type": "Cd"}, "9": {"label": "*3", "atom_type": "Cd"}, "14": {"label": "*2", "atom_type": "H0"}}

>  <type>  (11) 
unop_7

>  <geom_source>  (11) 
Heuristics

$$$$

     RDKit          3D

 17 15  0  0  0  0  0  0  0  0999 V2000
   -2.0655    2.1613   -0.9752 C   0  0  0  0  0  0  0  0  0  0  0  0
   -0.9788    1.7286   -0.7095 C   0  0  0  0  0  0  0  0  0  0  0  0
    0.3024    1.1852   -0.4009 C   0  0  0  0  0  0  0  0  0  0  0  0
    1.3366    1.9110    0.0106 C   0  0  0  0  0  0  0  0  0  0  0  0
   -3.0290    2.5449   -1.2107 H   0  0  0  0  0  0  0  0  0  0  0  0
    1.2605    2.9833    0.1372 H   0  0  0  0  0  0  0  0  0  0  0  0
    2.2873    1.4437    0.2306 H   0  0  0  0  0  0  0  0  0  0  0  0
    0.3024   -2.2883   -1.2581 C   0  0  0  0  0  0  0  0  0  0  0  0
    0.3024   -2.2883    0.0708 C   0  0  0  0  0  0  0  0  0  0  0  0
    0.3024   -1.0810    0.8861 C   0  0  0  0  0  3  0  0  0  0  0  0
    0.3024   -1.0810    2.2149 C   0  0  0  0  0  0  0  0  0  0  0  0
    0.3024   -1.3617   -1.8216 H   0  0  0  0  0  0  0  0  0  0  0  0
    0.3024   -3.2098   -1.8253 H   0  0  0  0  0  0  0  0  0  0  0  0
    0.3024   -3.2332    0.6074 H   0  0  0  0  0  0  0  0  0  0  0  0
    0.3024    0.0529    0.2421 H   0  0  0  0  0  0  0  0  0  0  0  0
    0.3024   -2.0076    2.7784 H   0  0  0  0  0  0  0  0  0  0  0  0
    0.3024   -0.1594    2.7821 H   0  0  0  0  0  0  0  0  0  0  0  0
  1  2  3  0
  1  5  1  0
  2  3  1  0
  3  4  2  3
  3 15  1  0
  4  6  1  0
  4  7  1  0
  8  9  2  3
  8 12  1  0
  8 13  1  0
  9 10  1  0
  9 14  1  0
 10 11  2  3
 11 16  1  0
 11 17  1  0
M  RAD  1  10   2
M  END
>  <reaction>  (12) 
rxn_1667

>  <mol_properties>  (12) 
{"1": {"label": "*0", "atom_type": "Ct"}, "2": {"label": "*1", "atom_type": "Cd"}, "8": {"label": "*4", "atom_type": "Cd"}, "9": {"label": "*3", "atom_type": "Cd"}, "14": {"label": "*2", "atom_type": "H0"}}

>  <type>  (12) 
unop_8

>  <geom_source>  (12) 
Heuristics

$$$$

     RDKit          3D

 17 15  0  0  0  0  0  0  0  0999 V2000
    0.9926    1.2886   -2.4494 C   0  0  0  0  0  0  0  0  0  0  0  0
    0.4553    1.3191   -1.3776 C   0  0  0  0  0  0  0  0  0  0  0  0
   -0.1853    1.3235   -0.1041 C   0  0  0  0  0  0  0  0  0  0  0  0
   -0.4556    2.4261    0.5866 C   0  0  0  0  0  0  0  0  0  0  0  0
    1.4691    1.2616   -3.3998 H   0  0  0  0  0  0  0  0  0  0  0  0
   -0.1971    3.4073    0.2097 H   0  0  0  0  0  0  0  0  0  0  0  0
   -0.9445    2.3690    1.5500 H   0  0  0  0  0  0  0  0  0  0  0  0
   -0.1853   -2.1499   -0.9614 C   0  0  0  0  0  0  0  0  0  0  0  0
   -0.1853   -2.1499    0.3675 C   0  0  0  0  0  0  0  0  0  0  0  0
   -0.1853   -0.9426    1.1828 C   0  0  0  0  0  3  0  0  0  0  0  0
   -0.1853   -0.9426    2.5117 C   0  0  0  0  0  0  0  0  0  0  0  0
   -0.1853   -1.2233   -1.5248 H   0  0  0  0  0  0  0  0  0  0  0  0
   -0.1853   -3.0715   -1.5285 H   0  0  0  0  0  0  0  0  0  0  0  0
   -0.1853   -3.0949    0.9041 H   0  0  0  0  0  0  0  0  0  0  0  0
   -0.1853    0.1913    0.5389 H   0  0  0  0  0  0  0  0  0  0  0  0
   -0.1853   -1.8692    3.0751 H   0  0  0  0  0  0  0  0  0  0  0  0
   -0.1853   -0.0211    3.0789 H   0  0  0  0  0  0  0  0  0  0  0  0
  1  2  3  0
  1  5  1  0
  2  3  1  0
  3  4  2  3
  3 15  1  0
  4  6  1  0
  4  7  1  0
  8  9  2  3
  8 12  1  0
  8 13  1  0
  9 10  1  0
  9 14  1  0
 10 11  2  3
 11 16  1  0
 11 17  1  0
M  RAD  1  10   2
M  END
>  <reaction>  (13) 
rxn_1667

>  <mol_properties>  (13) 
{"1": {"label": "*0", "atom_type": "Ct"}, "2": {"label": "*1", "atom_type": "Cd"}, "8": {"label": "*4", "atom_type": "Cd"}, "9": {"label": "*3", "atom_type": "Cd"}, "14": {"label": "*2", "atom_type": "H0"}}

>  <type>  (13) 
unop_9

>  <geom_source>  (13) 
Heuristics

$$$$

     RDKit          3D

 17 15  0  0  0  0  0  0  0  0999 V2000
   -1.7474    1.6542   -1.8394 C   0  0  0  0  0  0  0  0  0  0  0  0
   -0.8125    1.4894   -1.1063 C   0  0  0  0  0  0  0  0  0  0  0  0
    0.2970    1.2622   -0.2406 C   0  0  0  0  0  0  0  0  0  0  0  0
    0.9382    2.2259    0.4122 C   0  0  0  0  0  0  0  0  0  0  0  0
   -2.5763    1.8003   -2.4894 H   0  0  0  0  0  0  0  0  0  0  0  0
    0.6449    3.2637    0.3197 H   0  0  0  0  0  0  0  0  0  0  0  0
    1.7755    1.9943    1.0570 H   0  0  0  0  0  0  0  0  0  0  0  0
    0.2970   -2.2112   -1.0979 C   0  0  0  0  0  0  0  0  0  0  0  0
    0.2970   -2.2112    0.2310 C   0  0  0  0  0  0  0  0  0  0  0  0
    0.2970   -1.0039    1.0463 C   0  0  0  0  0  3  0  0  0  0  0  0
    0.2970   -1.0039    2.3752 C   0  0  0  0  0  0  0  0  0  0  0  0
    0.2970   -1.2846   -1.6613 H   0  0  0  0  0  0  0  0  0  0  0  0
    0.2970   -3.1328   -1.6650 H   0  0  0  0  0  0  0  0  0  0  0  0
    0.2970   -3.1562    0.7676 H   0  0  0  0  0  0  0  0  0  0  0  0
    0.2970    0.1300    0.4024 H   0  0  0  0  0  0  0  0  0  0  0  0
    0.2970   -1.9305    2.9387 H   0  0  0  0  0  0  0  0  0  0  0  0
    0.2970   -0.0823    2.9424 H   0  0  0  0  0  0  0  0  0  0  0  0
  1  2  3  0
  1  5  1  0
  2  3  1  0
  3  4  2  3
  3 15  1  0
  4  6  1  0
  4  7  1  0
  8  9  2  3
  8 12  1  0
  8 13  1  0
  9 10  1  0
  9 14  1  0
 10 11  2  3
 11 16  1  0
 11 17  1  0
M  RAD  1  10   2
M  END
>  <reaction>  (14) 
rxn_1667

>  <mol_properties>  (14) 
{"1": {"label": "*0", "atom_type": "Ct"}, "2": {"label": "*1", "atom_type": "Cd"}, "8": {"label": "*4", "atom_type": "Cd"}, "9": {"label": "*3", "atom_type": "Cd"}, "14": {"label": "*2", "atom_type": "H0"}}

>  <type>  (14) 
unop_10

>  <geom_source>  (14) 
Heuristics

$$$$

     RDKit          3D

 17 15  0  0  0  0  0  0  0  0999 V2000
    1.1190    3.0694    0.6516 C   0  0  0  0  0  0  0  0  0  0  0  0
    0.5628    2.1683    0.0883 C   0  0  0  0  0  0  0  0  0  0  0  0
   -0.0778    1.0769   -0.5679 C   0  0  0  0  0  0  0  0  0  0  0  0
   -1.1258    1.2079   -1.3743 C   0  0  0  0  0  0  0  0  0  0  0  0
    1.6121    3.8684    1.1510 H   0  0  0  0  0  0  0  0  0  0  0  0
   -1.5618    2.1765   -1.5825 H   0  0  0  0  0  0  0  0  0  0  0  0
   -1.5719    0.3424   -1.8460 H   0  0  0  0  0  0  0  0  0  0  0  0
   -0.0778   -2.3965   -1.4251 C   0  0  0  0  0  0  0  0  0  0  0  0
   -0.0778   -2.3965   -0.0962 C   0  0  0  0  0  0  0  0  0  0  0  0
   -0.0778   -1.1892    0.7190 C   0  0  0  0  0  3  0  0  0  0  0  0
   -0.0778   -1.1892    2.0479 C   0  0  0  0  0  0  0  0  0  0  0  0
   -0.0778   -1.4699   -1.9886 H   0  0  0  0  0  0  0  0  0  0  0  0
   -0.0778   -3.3181   -1.9923 H   0  0  0  0  0  0  0  0  0  0  0  0
   -0.0778   -3.3415    0.4404 H   0  0  0  0  0  0  0  0  0  0  0  0
   -0.0778   -0.0553    0.0751 H   0  0  0  0  0  0  0  0  0  0  0  0
   -0.0778   -2.1158    2.6114 H   0  0  0  0  0  0  0  0  0  0  0  0
   -0.0778   -0.2677    2.6151 H   0  0  0  0  0  0  0  0  0  0  0  0
  1  2  3  0
  1  5  1  0
  2  3  1  0
  3  4  2  3
  3 15  1  0
  4  6  1  0
  4  7  1  0
  8  9  2  3
  8 12  1  0
  8 13  1  0
  9 10  1  0
  9 14  1  0
 10 11  2  3
 11 16  1  0
 11 17  1  0
M  RAD  1  10   2
M  END
>  <reaction>  (15) 
rxn_1667

>  <mol_properties>  (15) 
{"1": {"label": "*0", "atom_type": "Ct"}, "2": {"label": "*1", "atom_type": "Cd"}, "8": {"label": "*4", "atom_type": "Cd"}, "9": {"label": "*3", "atom_type": "Cd"}, "14": {"label": "*2", "atom_type": "H0"}}

>  <type>  (15) 
unop_11

>  <geom_source>  (15) 
Heuristics

$$$$

     RDKit          3D

 17 15  0  0  0  0  0  0  0  0999 V2000
   -0.0000    1.1559   -2.6674 C   0  0  0  0  0  0  0  0  0  0  0  0
    0.0000    1.2577   -1.4723 C   0  0  0  0  0  0  0  0  0  0  0  0
    0.0000    1.3469   -0.0496 C   0  0  0  0  0  0  0  0  0  0  0  0
   -0.0000    2.4936    0.6219 C   0  0  0  0  0  0  0  0  0  0  0  0
   -0.0000    1.0657   -3.7270 H   0  0  0  0  0  0  0  0  0  0  0  0
   -0.0000    3.4481    0.1114 H   0  0  0  0  0  0  0  0  0  0  0  0
   -0.0000    2.5007    1.7038 H   0  0  0  0  0  0  0  0  0  0  0  0
    0.0000   -2.1266   -0.9068 C   0  0  0  0  0  0  0  0  0  0  0  0
    0.0000   -2.1266    0.4221 C   0  0  0  0  0  0  0  0  0  0  0  0
    0.0000   -0.9192    1.2373 C   0  0  0  0  0  3  0  0  0  0  0  0
    0.0000   -0.9192    2.5662 C   0  0  0  0  0  0  0  0  0  0  0  0
   -0.0000   -1.2000   -1.4703 H   0  0  0  0  0  0  0  0  0  0  0  0
    0.0000   -3.0481   -1.4740 H   0  0  0  0  0  0  0  0  0  0  0  0
    0.0000   -3.0715    0.9587 H   0  0  0  0  0  0  0  0  0  0  0  0
    0.0000    0.2147    0.5934 H   0  0  0  0  0  0  0  0  0  0  0  0
    0.0000   -1.8458    3.1297 H   0  0  0  0  0  0  0  0  0  0  0  0
    0.0000    0.0023    3.1334 H   0  0  0  0  0  0  0  0  0  0  0  0
  1  2  3  0
  1  5  1  0
  2  3  1  0
  3  4  2  3
  3 15  1  0
  4  6  1  0
  4  7  1  0
  8  9  2  3
  8 12  1  0
  8 13  1  0
  9 10  1  0
  9 14  1  0
 10 11  2  3
 11 16  1  0
 11 17  1  0
M  RAD  1  10   2
M  END
>  <reaction>  (16) 
rxn_1667

>  <mol_properties>  (16) 
{"1": {"label": "*0", "atom_type": "Ct"}, "2": {"label": "*1", "atom_type": "Cd"}, "8": {"label": "*4", "atom_type": "Cd"}, "9": {"label": "*3", "atom_type": "Cd"}, "14": {"label": "*2", "atom_type": "H0"}}

>  <type>  (16) 
unop_12

>  <geom_source>  (16) 
Heuristics

$$$$

     RDKit          3D

 17 15  0  0  0  0  0  0  0  0999 V2000
   -2.0025   -0.5624   -0.2356 C   0  0  0  0  0  0  0  0  0  0  0  0
    1.3519    0.2498   -0.0903 C   0  0  0  0  0  3  0  0  0  0  0  0
    2.1289    1.0546   -0.8051 C   0  0  0  0  0  0  0  0  0  0  0  0
   -1.8059   -1.6959    0.4279 C   0  0  0  0  0  0  0  0  0  0  0  0
   -1.3749    1.7761   -0.5700 C   0  0  0  0  0  0  0  0  0  0  0  0
   -1.2030    0.6278    0.0748 C   0  0  0  0  0  0  0  0  0  0  0  0
    1.9160   -0.6561    0.8736 C   0  0  0  0  0  0  0  0  0  0  0  0
    2.3878   -1.4159    1.6820 C   0  0  0  0  0  0  0  0  0  0  0  0
    0.0058    0.2795   -0.2689 H   0  0  0  0  0  0  0  0  0  0  0  0
   -2.7600   -0.5242   -1.0097 H   0  0  0  0  0  0  0  0  0  0  0  0
    1.6849    1.7287   -1.5251 H   0  0  0  0  0  0  0  0  0  0  0  0
    3.2054    1.0505   -0.6819 H   0  0  0  0  0  0  0  0  0  0  0  0
   -1.0561   -1.7649    1.2068 H   0  0  0  0  0  0  0  0  0  0  0  0
   -2.3993   -2.5701    0.1937 H   0  0  0  0  0  0  0  0  0  0  0  0
   -2.1165    1.8752   -1.3532 H   0  0  0  0  0  0  0  0  0  0  0  0
   -0.7646    2.6302   -0.3106 H   0  0  0  0  0  0  0  0  0  0  0  0
    2.8020   -2.0829    2.3916 H   0  0  0  0  0  0  0  0  0  0  0  0
  1  4  2  3
  1  6  1  0
  1 10  1  0
  2  3  2  3
  2  7  1  0
  3 11  1  0
  3 12  1  0
  4 13  1  0
  4 14  1  0
  5  6  2  3
  5 15  1  0
  5 16  1  0
  6  9  1  0
  7  8  3  0
  8 17  1  0
M  RAD  1   2   2
M  END
>  <reaction>  (17) 
rxn_1667

>  <mol_properties>  (17) 
{"1": {"label": "*0", "atom_type": "Ct"}, "2": {"label": "*1", "atom_type": "Cd"}, "8": {"label": "*4", "atom_type": "Cd"}, "9": {"label": "*3", "atom_type": "Cd"}, "14": {"label": "*2", "atom_type": "H0"}}

>  <type>  (17) 
unop_13

>  <geom_source>  (17) 
AutoTST

$$$$
