
     RDKit          3D

 14 13  0  0  0  0  0  0  0  0999 V2000
   -0.7647   -1.2352   -0.0348 C   0  0  0  0  0  0  0  0  0  0  0  0
    0.0570   -0.0126    0.3624 C   0  0  0  0  0  0  0  0  0  0  0  0
    1.4161   -0.0194   -0.3307 C   0  0  0  0  0  0  0  0  0  0  0  0
   -0.7022    1.2765    0.0629 C   0  0  0  0  0  0  0  0  0  0  0  0
   -0.2387   -2.1618    0.2040 H   0  0  0  0  0  0  0  0  0  0  0  0
   -0.9625   -1.2315   -1.1108 H   0  0  0  0  0  0  0  0  0  0  0  0
   -1.7273   -1.2512    0.4807 H   0  0  0  0  0  0  0  0  0  0  0  0
    0.2295   -0.0589    1.4432 H   0  0  0  0  0  0  0  0  0  0  0  0
    1.2933    0.0260   -1.4168 H   0  0  0  0  0  0  0  0  0  0  0  0
    2.0206    0.8381   -0.0278 H   0  0  0  0  0  0  0  0  0  0  0  0
    1.9767   -0.9269   -0.0966 H   0  0  0  0  0  0  0  0  0  0  0  0
   -1.6639    1.3001    0.5798 H   0  0  0  0  0  0  0  0  0  0  0  0
   -0.8977    1.3664   -1.0097 H   0  0  0  0  0  0  0  0  0  0  0  0
   -0.1313    2.1545    0.3722 H   0  0  0  0  0  0  0  0  0  0  0  0
  1  2  1  0
  1  5  1  0
  1  6  1  0
  1  7  1  0
  2  3  1  0
  2  4  1  0
  2  8  1  0
  3  9  1  0
  3 10  1  0
  3 11  1  0
  4 12  1  0
  4 13  1  0
  4 14  1  0
M  END
>  <reaction>  (1) 
rxn_973

>  <mol_properties>  (1) 
{"1": {"label": "donator", "atom_type": "Cs"}, "7": {"label": "d_hydrogen", "atom_type": "H0"}}

>  <type>  (1) 
r1h

$$$$

     RDKit          3D

  5  4  0  0  0  0  0  0  0  0999 V2000
   -0.5642    0.0794    0.0348 C   0  0  0  0  0  3  0  0  0  0  0  0
    1.0624    0.5420    0.2853 S   0  0  0  0  0  0  0  0  0  0  0  0
   -1.3257    0.7631    0.3741 H   0  0  0  0  0  0  0  0  0  0  0  0
   -0.8236   -0.8519   -0.4401 H   0  0  0  0  0  0  0  0  0  0  0  0
    1.6511   -0.5325   -0.2540 H   0  0  0  0  0  0  0  0  0  0  0  0
  1  2  1  0
  1  3  1  0
  1  4  1  0
  2  5  1  0
M  RAD  1   1   2
M  END
>  <reaction>  (2) 
rxn_973

>  <mol_properties>  (2) 
{"0": {"label": "acceptor", "atom_type": "Cs"}}

>  <type>  (2) 
r2

$$$$

     RDKit          3D

  6  5  0  0  0  0  0  0  0  0999 V2000
   -0.5072   -0.0291   -0.0097 C   0  0  0  0  0  0  0  0  0  0  0  0
    1.1321   -0.1527   -0.7687 S   0  0  0  0  0  0  0  0  0  0  0  0
   -0.6174   -0.7330    0.8127 H   0  0  0  0  0  0  0  0  0  0  0  0
   -0.5863    0.9827    0.3845 H   0  0  0  0  0  0  0  0  0  0  0  0
   -1.2962   -0.1800   -0.7434 H   0  0  0  0  0  0  0  0  0  0  0  0
    1.0312   -1.4237   -1.1764 H   0  0  0  0  0  0  0  0  0  0  0  0
  1  2  1  0
  1  3  1  0
  1  4  1  0
  1  5  1  0
  2  6  1  0
M  END
>  <reaction>  (3) 
rxn_973

>  <mol_properties>  (3) 
{"0": {"label": "acceptor", "atom_type": "Cs"}, "5": {"label": "a_hydrogen", "atom_type": "H0"}}

>  <type>  (3) 
r2h

$$$$

     RDKit          3D

 19 17  0  0  0  0  0  0  0  0999 V2000
    1.2974   -0.7583   -0.0032 C   0  0  0  0  0  3  0  0  0  0  0  0
    1.3653   -0.5848    1.7592 S   0  0  0  0  0  0  0  0  0  0  0  0
    1.1484   -1.8045   -0.2586 H   0  0  0  0  0  0  0  0  0  0  0  0
    2.1393   -0.3211   -0.5340 H   0  0  0  0  0  0  0  0  0  0  0  0
    1.6017    0.7331    1.7931 H   0  0  0  0  0  0  0  0  0  0  0  0
   -0.8327    0.4738   -2.4045 C   0  0  0  0  0  0  0  0  0  0  0  0
   -0.9233    0.4690   -0.8979 C   0  0  0  0  0  0  0  0  0  0  0  0
   -0.8401    1.8380   -0.2681 C   0  0  0  0  0  0  0  0  0  0  0  0
   -2.0272   -0.3962   -0.3416 C   0  0  0  0  0  0  0  0  0  0  0  0
    0.0468    1.0225   -2.7489 H   0  0  0  0  0  0  0  0  0  0  0  0
   -1.7138    0.9536   -2.8476 H   0  0  0  0  0  0  0  0  0  0  0  0
   -0.7780   -0.5418   -2.8028 H   0  0  0  0  0  0  0  0  0  0  0  0
    0.1813   -0.1331   -0.4884 H   0  0  0  0  0  0  0  0  0  0  0  0
   -1.7164    2.4436   -0.5297 H   0  0  0  0  0  0  0  0  0  0  0  0
   -0.8028    1.7679    0.8213 H   0  0  0  0  0  0  0  0  0  0  0  0
    0.0456    2.3799   -0.6084 H   0  0  0  0  0  0  0  0  0  0  0  0
   -1.9949   -1.4024   -0.7652 H   0  0  0  0  0  0  0  0  0  0  0  0
   -3.0119    0.0279   -0.5727 H   0  0  0  0  0  0  0  0  0  0  0  0
   -1.9489   -0.4814    0.7445 H   0  0  0  0  0  0  0  0  0  0  0  0
  1  2  1  0
  1  3  1  0
  1  4  1  0
  2  5  1  0
  6  7  1  0
  6 10  1  0
  6 11  1  0
  6 12  1  0
  7  8  1  0
  7  9  1  0
  7 13  1  0
  8 14  1  0
  8 15  1  0
  8 16  1  0
  9 17  1  0
  9 18  1  0
  9 19  1  0
M  RAD  1   1   2
M  END
>  <reaction>  (4) 
rxn_973

>  <mol_properties>  (4) 
{"0": {"label": "*3", "atom_type": "Cs"}, "1": {"label": "*4", "atom_type": "S2s"}, "5": {"label": "*0", "atom_type": "Cs"}, "6": {"label": "*1", "atom_type": "Cs"}, "12": {"label": "*2", "atom_type": "H0"}}

>  <type>  (4) 
ts

$$$$

     RDKit          3D

 19 17  0  0  0  0  0  0  0  0999 V2000
    1.0596   -1.0791    0.1979 C   0  0  0  0  0  0  0  0  0  0  0  0
    2.0715    0.0362    1.2031 S   0  0  0  0  0  0  0  0  0  0  0  0
    0.2622   -1.4373    0.8470 H   0  0  0  0  0  0  0  0  0  0  0  0
    1.6367   -1.9336   -0.1491 H   0  0  0  0  0  0  0  0  0  0  0  0
    2.9608    0.3545    0.2545 H   0  0  0  0  0  0  0  0  0  0  0  0
   -1.1403    0.0937   -2.1343 C   0  0  0  0  0  0  0  0  0  0  0  0
   -1.1403    0.0937   -0.6085 C   0  0  0  0  0  3  0  0  0  0  0  0
   -1.1403    1.5183   -0.0625 C   0  0  0  0  0  0  0  0  0  0  0  0
   -2.3231   -0.7004   -0.0625 C   0  0  0  0  0  0  0  0  0  0  0  0
   -0.2796    0.6360   -2.5313 H   0  0  0  0  0  0  0  0  0  0  0  0
   -2.0443    0.5756   -2.5180 H   0  0  0  0  0  0  0  0  0  0  0  0
   -1.1108   -0.9232   -2.5313 H   0  0  0  0  0  0  0  0  0  0  0  0
   -0.0366   -0.4947   -0.2040 H   0  0  0  0  0  0  0  0  0  0  0  0
   -2.0443    2.0491   -0.3751 H   0  0  0  0  0  0  0  0  0  0  0  0
   -1.1108    1.5251    1.0291 H   0  0  0  0  0  0  0  0  0  0  0  0
   -0.2797    2.0832   -0.4268 H   0  0  0  0  0  0  0  0  0  0  0  0
   -2.3124   -1.7298   -0.4269 H   0  0  0  0  0  0  0  0  0  0  0  0
   -3.2677   -0.2457   -0.3750 H   0  0  0  0  0  0  0  0  0  0  0  0
   -2.3122   -0.7288    1.0291 H   0  0  0  0  0  0  0  0  0  0  0  0
  1  2  1  0
  1  3  1  0
  1  4  1  0
  1 13  1  0
  2  5  1  0
  6  7  1  0
  6 10  1  0
  6 11  1  0
  6 12  1  0
  7  8  1  0
  7  9  1  0
  8 14  1  0
  8 15  1  0
  8 16  1  0
  9 17  1  0
  9 18  1  0
  9 19  1  0
M  RAD  1   7   2
M  END
>  <reaction>  (5) 
rxn_973

>  <mol_properties>  (5) 
{"0": {"label": "*3", "atom_type": "Cs"}, "1": {"label": "*4", "atom_type": "S2s"}, "5": {"label": "*0", "atom_type": "Cs"}, "6": {"label": "*1", "atom_type": "Cs"}, "12": {"label": "*2", "atom_type": "H0"}}

>  <type>  (5) 
unop_1

>  <geom_source>  (5) 
Heuristics

$$$$

     RDKit          3D

 19 17  0  0  0  0  0  0  0  0999 V2000
    0.9626   -0.8003    0.8761 C   0  0  0  0  0  0  0  0  0  0  0  0
    2.3098   -0.5631   -0.3101 S   0  0  0  0  0  0  0  0  0  0  0  0
    1.1266   -0.0777    1.6739 H   0  0  0  0  0  0  0  0  0  0  0  0
    0.9817   -1.8009    1.3030 H   0  0  0  0  0  0  0  0  0  0  0  0
    1.9357   -1.5107   -1.1784 H   0  0  0  0  0  0  0  0  0  0  0  0
   -1.2373    0.3725   -1.4560 C   0  0  0  0  0  0  0  0  0  0  0  0
   -1.2373    0.3725    0.0697 C   0  0  0  0  0  3  0  0  0  0  0  0
   -1.2373    1.7971    0.6158 C   0  0  0  0  0  0  0  0  0  0  0  0
   -2.4201   -0.4216    0.6157 C   0  0  0  0  0  0  0  0  0  0  0  0
   -0.3766    0.9148   -1.8531 H   0  0  0  0  0  0  0  0  0  0  0  0
   -2.1413    0.8544   -1.8398 H   0  0  0  0  0  0  0  0  0  0  0  0
   -1.2078   -0.6444   -1.8531 H   0  0  0  0  0  0  0  0  0  0  0  0
   -0.1336   -0.2159    0.4743 H   0  0  0  0  0  0  0  0  0  0  0  0
   -2.1413    2.3279    0.3032 H   0  0  0  0  0  0  0  0  0  0  0  0
   -1.2077    1.8039    1.7074 H   0  0  0  0  0  0  0  0  0  0  0  0
   -0.3766    2.3620    0.2515 H   0  0  0  0  0  0  0  0  0  0  0  0
   -2.4094   -1.4510    0.2513 H   0  0  0  0  0  0  0  0  0  0  0  0
   -3.3647    0.0331    0.3032 H   0  0  0  0  0  0  0  0  0  0  0  0
   -2.4092   -0.4501    1.7073 H   0  0  0  0  0  0  0  0  0  0  0  0
  1  2  1  0
  1  3  1  0
  1  4  1  0
  1 13  1  0
  2  5  1  0
  6  7  1  0
  6 10  1  0
  6 11  1  0
  6 12  1  0
  7  8  1  0
  7  9  1  0
  8 14  1  0
  8 15  1  0
  8 16  1  0
  9 17  1  0
  9 18  1  0
  9 19  1  0
M  RAD  1   7   2
M  END
>  <reaction>  (6) 
rxn_973

>  <mol_properties>  (6) 
{"0": {"label": "*3", "atom_type": "Cs"}, "1": {"label": "*4", "atom_type": "S2s"}, "5": {"label": "*0", "atom_type": "Cs"}, "6": {"label": "*1", "atom_type": "Cs"}, "12": {"label": "*2", "atom_type": "H0"}}

>  <type>  (6) 
unop_2

>  <geom_source>  (6) 
Heuristics

$$$$

     RDKit          3D

 19 17  0  0  0  0  0  0  0  0999 V2000
    1.2006   -0.9425    0.0154 C   0  0  0  0  0  0  0  0  0  0  0  0
    1.7546   -0.2824    1.6079 S   0  0  0  0  0  0  0  0  0  0  0  0
    0.5277   -1.7674    0.2436 H   0  0  0  0  0  0  0  0  0  0  0  0
    2.0359   -1.3251   -0.5673 H   0  0  0  0  0  0  0  0  0  0  0  0
    2.5419    0.6851    1.1222 H   0  0  0  0  0  0  0  0  0  0  0  0
   -0.9993    0.2303   -2.3167 C   0  0  0  0  0  0  0  0  0  0  0  0
   -0.9993    0.2303   -0.7910 C   0  0  0  0  0  3  0  0  0  0  0  0
   -0.9993    1.6549   -0.2449 C   0  0  0  0  0  0  0  0  0  0  0  0
   -2.1821   -0.5638   -0.2449 C   0  0  0  0  0  0  0  0  0  0  0  0
   -0.1386    0.7726   -2.7138 H   0  0  0  0  0  0  0  0  0  0  0  0
   -1.9033    0.7122   -2.7005 H   0  0  0  0  0  0  0  0  0  0  0  0
   -0.9697   -0.7866   -2.7138 H   0  0  0  0  0  0  0  0  0  0  0  0
    0.1044   -0.3581   -0.3864 H   0  0  0  0  0  0  0  0  0  0  0  0
   -1.9033    2.1857   -0.5575 H   0  0  0  0  0  0  0  0  0  0  0  0
   -0.9697    1.6617    0.8467 H   0  0  0  0  0  0  0  0  0  0  0  0
   -0.1386    2.2198   -0.6092 H   0  0  0  0  0  0  0  0  0  0  0  0
   -2.1714   -1.5932   -0.6093 H   0  0  0  0  0  0  0  0  0  0  0  0
   -3.1267   -0.1090   -0.5574 H   0  0  0  0  0  0  0  0  0  0  0  0
   -2.1712   -0.5922    0.8467 H   0  0  0  0  0  0  0  0  0  0  0  0
  1  2  1  0
  1  3  1  0
  1  4  1  0
  1 13  1  0
  2  5  1  0
  6  7  1  0
  6 10  1  0
  6 11  1  0
  6 12  1  0
  7  8  1  0
  7  9  1  0
  8 14  1  0
  8 15  1  0
  8 16  1  0
  9 17  1  0
  9 18  1  0
  9 19  1  0
M  RAD  1   7   2
M  END
>  <reaction>  (7) 
rxn_973

>  <mol_properties>  (7) 
{"0": {"label": "*3", "atom_type": "Cs"}, "1": {"label": "*4", "atom_type": "S2s"}, "5": {"label": "*0", "atom_type": "Cs"}, "6": {"label": "*1", "atom_type": "Cs"}, "12": {"label": "*2", "atom_type": "H0"}}

>  <type>  (7) 
unop_3

>  <geom_source>  (7) 
Heuristics

$$$$

     RDKit          3D

 19 17  0  0  0  0  0  0  0  0999 V2000
    1.3608   -0.2037    0.6854 C   0  0  0  0  0  0  0  0  0  0  0  0
    1.4568   -1.9097    0.0863 S   0  0  0  0  0  0  0  0  0  0  0  0
    2.3874    0.1482    0.7723 H   0  0  0  0  0  0  0  0  0  0  0  0
    0.8910   -0.1535    1.6654 H   0  0  0  0  0  0  0  0  0  0  0  0
    0.1400   -2.1474    0.0494 H   0  0  0  0  0  0  0  0  0  0  0  0
   -0.8391    0.9690   -1.6468 C   0  0  0  0  0  0  0  0  0  0  0  0
   -0.8391    0.9690   -0.1211 C   0  0  0  0  0  3  0  0  0  0  0  0
   -0.8391    2.3937    0.4250 C   0  0  0  0  0  0  0  0  0  0  0  0
   -2.0219    0.1750    0.4250 C   0  0  0  0  0  0  0  0  0  0  0  0
    0.0216    1.5114   -2.0438 H   0  0  0  0  0  0  0  0  0  0  0  0
   -1.7431    1.4509   -2.0306 H   0  0  0  0  0  0  0  0  0  0  0  0
   -0.8096   -0.0478   -2.0438 H   0  0  0  0  0  0  0  0  0  0  0  0
    0.2646    0.3807    0.2835 H   0  0  0  0  0  0  0  0  0  0  0  0
   -1.7431    2.9245    0.1124 H   0  0  0  0  0  0  0  0  0  0  0  0
   -0.8096    2.4005    1.5166 H   0  0  0  0  0  0  0  0  0  0  0  0
    0.0215    2.9586    0.0607 H   0  0  0  0  0  0  0  0  0  0  0  0
   -2.0112   -0.8544    0.0606 H   0  0  0  0  0  0  0  0  0  0  0  0
   -2.9665    0.6297    0.1125 H   0  0  0  0  0  0  0  0  0  0  0  0
   -2.0111    0.1465    1.5166 H   0  0  0  0  0  0  0  0  0  0  0  0
  1  2  1  0
  1  3  1  0
  1  4  1  0
  1 13  1  0
  2  5  1  0
  6  7  1  0
  6 10  1  0
  6 11  1  0
  6 12  1  0
  7  8  1  0
  7  9  1  0
  8 14  1  0
  8 15  1  0
  8 16  1  0
  9 17  1  0
  9 18  1  0
  9 19  1  0
M  RAD  1   7   2
M  END
>  <reaction>  (8) 
rxn_973

>  <mol_properties>  (8) 
{"0": {"label": "*3", "atom_type": "Cs"}, "1": {"label": "*4", "atom_type": "S2s"}, "5": {"label": "*0", "atom_type": "Cs"}, "6": {"label": "*1", "atom_type": "Cs"}, "12": {"label": "*2", "atom_type": "H0"}}

>  <type>  (8) 
unop_4

>  <geom_source>  (8) 
Heuristics

$$$$

     RDKit          3D

 19 17  0  0  0  0  0  0  0  0999 V2000
    1.3452   -0.7290   -0.0547 C   0  0  0  0  0  0  0  0  0  0  0  0
    1.4412   -0.7802    1.7527 S   0  0  0  0  0  0  0  0  0  0  0  0
    1.3311   -1.7649   -0.3898 H   0  0  0  0  0  0  0  0  0  0  0  0
    2.2147   -0.2357   -0.4841 H   0  0  0  0  0  0  0  0  0  0  0  0
    1.4473    0.5428    1.9565 H   0  0  0  0  0  0  0  0  0  0  0  0
   -0.8547    0.4437   -2.3868 C   0  0  0  0  0  0  0  0  0  0  0  0
   -0.8547    0.4437   -0.8611 C   0  0  0  0  0  3  0  0  0  0  0  0
   -0.8547    1.8684   -0.3151 C   0  0  0  0  0  0  0  0  0  0  0  0
   -2.0375   -0.3503   -0.3151 C   0  0  0  0  0  0  0  0  0  0  0  0
    0.0060    0.9861   -2.7839 H   0  0  0  0  0  0  0  0  0  0  0  0
   -1.7587    0.9256   -2.7706 H   0  0  0  0  0  0  0  0  0  0  0  0
   -0.8252   -0.5731   -2.7839 H   0  0  0  0  0  0  0  0  0  0  0  0
    0.2490   -0.1446   -0.4565 H   0  0  0  0  0  0  0  0  0  0  0  0
   -1.7587    2.3992   -0.6277 H   0  0  0  0  0  0  0  0  0  0  0  0
   -0.8251    1.8752    0.7765 H   0  0  0  0  0  0  0  0  0  0  0  0
    0.0060    2.4333   -0.6794 H   0  0  0  0  0  0  0  0  0  0  0  0
   -2.0268   -1.3797   -0.6795 H   0  0  0  0  0  0  0  0  0  0  0  0
   -2.9821    0.1044   -0.6276 H   0  0  0  0  0  0  0  0  0  0  0  0
   -2.0266   -0.3788    0.7765 H   0  0  0  0  0  0  0  0  0  0  0  0
  1  2  1  0
  1  3  1  0
  1  4  1  0
  1 13  1  0
  2  5  1  0
  6  7  1  0
  6 10  1  0
  6 11  1  0
  6 12  1  0
  7  8  1  0
  7  9  1  0
  8 14  1  0
  8 15  1  0
  8 16  1  0
  9 17  1  0
  9 18  1  0
  9 19  1  0
M  RAD  1   7   2
M  END
>  <reaction>  (9) 
rxn_973

>  <mol_properties>  (9) 
{"0": {"label": "*3", "atom_type": "Cs"}, "1": {"label": "*4", "atom_type": "S2s"}, "5": {"label": "*0", "atom_type": "Cs"}, "6": {"label": "*1", "atom_type": "Cs"}, "12": {"label": "*2", "atom_type": "H0"}}

>  <type>  (9) 
unop_5

>  <geom_source>  (9) 
Heuristics

$$$$

     RDKit          3D

 19 17  0  0  0  0  0  0  0  0999 V2000
    1.4643   -0.1848    0.4349 C   0  0  0  0  0  0  0  0  0  0  0  0
    1.2250   -1.9681    0.6379 S   0  0  0  0  0  0  0  0  0  0  0  0
    2.5339   -0.0331    0.2997 H   0  0  0  0  0  0  0  0  0  0  0  0
    1.1439    0.3615    1.3196 H   0  0  0  0  0  0  0  0  0  0  0  0
   -0.1052   -1.9418    0.7848 H   0  0  0  0  0  0  0  0  0  0  0  0
   -0.7356    0.9879   -1.8973 C   0  0  0  0  0  0  0  0  0  0  0  0
   -0.7356    0.9879   -0.3716 C   0  0  0  0  0  3  0  0  0  0  0  0
   -0.7356    2.4126    0.1745 C   0  0  0  0  0  0  0  0  0  0  0  0
   -1.9184    0.1938    0.1745 C   0  0  0  0  0  0  0  0  0  0  0  0
    0.1251    1.5302   -2.2943 H   0  0  0  0  0  0  0  0  0  0  0  0
   -1.6396    1.4698   -2.2811 H   0  0  0  0  0  0  0  0  0  0  0  0
   -0.7061   -0.0289   -2.2943 H   0  0  0  0  0  0  0  0  0  0  0  0
    0.3681    0.3995    0.0330 H   0  0  0  0  0  0  0  0  0  0  0  0
   -1.6396    2.9434   -0.1381 H   0  0  0  0  0  0  0  0  0  0  0  0
   -0.7061    2.4194    1.2661 H   0  0  0  0  0  0  0  0  0  0  0  0
    0.1250    2.9774   -0.1898 H   0  0  0  0  0  0  0  0  0  0  0  0
   -1.9077   -0.8355   -0.1899 H   0  0  0  0  0  0  0  0  0  0  0  0
   -2.8630    0.6486   -0.1380 H   0  0  0  0  0  0  0  0  0  0  0  0
   -1.9075    0.1654    1.2661 H   0  0  0  0  0  0  0  0  0  0  0  0
  1  2  1  0
  1  3  1  0
  1  4  1  0
  1 13  1  0
  2  5  1  0
  6  7  1  0
  6 10  1  0
  6 11  1  0
  6 12  1  0
  7  8  1  0
  7  9  1  0
  8 14  1  0
  8 15  1  0
  8 16  1  0
  9 17  1  0
  9 18  1  0
  9 19  1  0
M  RAD  1   7   2
M  END
>  <reaction>  (10) 
rxn_973

>  <mol_properties>  (10) 
{"0": {"label": "*3", "atom_type": "Cs"}, "1": {"label": "*4", "atom_type": "S2s"}, "5": {"label": "*0", "atom_type": "Cs"}, "6": {"label": "*1", "atom_type": "Cs"}, "12": {"label": "*2", "atom_type": "H0"}}

>  <type>  (10) 
unop_6

>  <geom_source>  (10) 
Heuristics

$$$$

     RDKit          3D

 19 17  0  0  0  0  0  0  0  0999 V2000
    1.4997   -0.2896    0.1862 C   0  0  0  0  0  0  0  0  0  0  0  0
    1.1378   -1.7514    1.1914 S   0  0  0  0  0  0  0  0  0  0  0  0
    2.5113   -0.4224   -0.1938 H   0  0  0  0  0  0  0  0  0  0  0  0
    1.4682    0.6197    0.7829 H   0  0  0  0  0  0  0  0  0  0  0  0
   -0.1037   -1.4029    1.5509 H   0  0  0  0  0  0  0  0  0  0  0  0
   -0.7002    0.8832   -2.1460 C   0  0  0  0  0  0  0  0  0  0  0  0
   -0.7002    0.8832   -0.6203 C   0  0  0  0  0  3  0  0  0  0  0  0
   -0.7002    2.3078   -0.0742 C   0  0  0  0  0  0  0  0  0  0  0  0
   -1.8830    0.0891   -0.0742 C   0  0  0  0  0  0  0  0  0  0  0  0
    0.1605    1.4255   -2.5430 H   0  0  0  0  0  0  0  0  0  0  0  0
   -1.6042    1.3651   -2.5298 H   0  0  0  0  0  0  0  0  0  0  0  0
   -0.6706   -0.1337   -2.5430 H   0  0  0  0  0  0  0  0  0  0  0  0
    0.4035    0.2948   -0.2157 H   0  0  0  0  0  0  0  0  0  0  0  0
   -1.6042    2.8387   -0.3868 H   0  0  0  0  0  0  0  0  0  0  0  0
   -0.6706    2.3146    1.0174 H   0  0  0  0  0  0  0  0  0  0  0  0
    0.1605    2.8727   -0.4385 H   0  0  0  0  0  0  0  0  0  0  0  0
   -1.8723   -0.9403   -0.4386 H   0  0  0  0  0  0  0  0  0  0  0  0
   -2.8276    0.5439   -0.3867 H   0  0  0  0  0  0  0  0  0  0  0  0
   -1.8721    0.0607    1.0174 H   0  0  0  0  0  0  0  0  0  0  0  0
  1  2  1  0
  1  3  1  0
  1  4  1  0
  1 13  1  0
  2  5  1  0
  6  7  1  0
  6 10  1  0
  6 11  1  0
  6 12  1  0
  7  8  1  0
  7  9  1  0
  8 14  1  0
  8 15  1  0
  8 16  1  0
  9 17  1  0
  9 18  1  0
  9 19  1  0
M  RAD  1   7   2
M  END
>  <reaction>  (11) 
rxn_973

>  <mol_properties>  (11) 
{"0": {"label": "*3", "atom_type": "Cs"}, "1": {"label": "*4", "atom_type": "S2s"}, "5": {"label": "*0", "atom_type": "Cs"}, "6": {"label": "*1", "atom_type": "Cs"}, "12": {"label": "*2", "atom_type": "H0"}}

>  <type>  (11) 
unop_7

>  <geom_source>  (11) 
Heuristics

$$$$

     RDKit          3D

 19 17  0  0  0  0  0  0  0  0999 V2000
    0.9571   -1.1005    0.4465 C   0  0  0  0  0  0  0  0  0  0  0  0
    2.3043    0.0921    0.6495 S   0  0  0  0  0  0  0  0  0  0  0  0
    0.3270   -1.0036    1.3291 H   0  0  0  0  0  0  0  0  0  0  0  0
    1.3340   -2.1199    0.3977 H   0  0  0  0  0  0  0  0  0  0  0  0
    2.9396   -0.1777   -0.4974 H   0  0  0  0  0  0  0  0  0  0  0  0
   -1.2428    0.0723   -1.8857 C   0  0  0  0  0  0  0  0  0  0  0  0
   -1.2428    0.0723   -0.3600 C   0  0  0  0  0  3  0  0  0  0  0  0
   -1.2428    1.4969    0.1861 C   0  0  0  0  0  0  0  0  0  0  0  0
   -2.4256   -0.7218    0.1861 C   0  0  0  0  0  0  0  0  0  0  0  0
   -0.3821    0.6146   -2.2827 H   0  0  0  0  0  0  0  0  0  0  0  0
   -2.1468    0.5542   -2.2695 H   0  0  0  0  0  0  0  0  0  0  0  0
   -1.2133   -0.9446   -2.2827 H   0  0  0  0  0  0  0  0  0  0  0  0
   -0.1391   -0.5161    0.0446 H   0  0  0  0  0  0  0  0  0  0  0  0
   -2.1468    2.0277   -0.1265 H   0  0  0  0  0  0  0  0  0  0  0  0
   -1.2132    1.5037    1.2777 H   0  0  0  0  0  0  0  0  0  0  0  0
   -0.3821    2.0618   -0.1782 H   0  0  0  0  0  0  0  0  0  0  0  0
   -2.4149   -1.7512   -0.1783 H   0  0  0  0  0  0  0  0  0  0  0  0
   -3.3702   -0.2671   -0.1264 H   0  0  0  0  0  0  0  0  0  0  0  0
   -2.4147   -0.7502    1.2777 H   0  0  0  0  0  0  0  0  0  0  0  0
  1  2  1  0
  1  3  1  0
  1  4  1  0
  1 13  1  0
  2  5  1  0
  6  7  1  0
  6 10  1  0
  6 11  1  0
  6 12  1  0
  7  8  1  0
  7  9  1  0
  8 14  1  0
  8 15  1  0
  8 16  1  0
  9 17  1  0
  9 18  1  0
  9 19  1  0
M  RAD  1   7   2
M  END
>  <reaction>  (12) 
rxn_973

>  <mol_properties>  (12) 
{"0": {"label": "*3", "atom_type": "Cs"}, "1": {"label": "*4", "atom_type": "S2s"}, "5": {"label": "*0", "atom_type": "Cs"}, "6": {"label": "*1", "atom_type": "Cs"}, "12": {"label": "*2", "atom_type": "H0"}}

>  <type>  (12) 
unop_8

>  <geom_source>  (12) 
Heuristics

$$$$

     RDKit          3D

 19 17  0  0  0  0  0  0  0  0999 V2000
    1.2169   -0.3407    0.8705 C   0  0  0  0  0  0  0  0  0  0  0  0
    1.7709   -1.5914   -0.3158 S   0  0  0  0  0  0  0  0  0  0  0  0
    2.1061    0.2111    1.1709 H   0  0  0  0  0  0  0  0  0  0  0  0
    0.7765   -0.7992    1.7534 H   0  0  0  0  0  0  0  0  0  0  0  0
    0.5725   -2.1391   -0.5519 H   0  0  0  0  0  0  0  0  0  0  0  0
   -0.9830    0.8321   -1.4617 C   0  0  0  0  0  0  0  0  0  0  0  0
   -0.9830    0.8321    0.0640 C   0  0  0  0  0  3  0  0  0  0  0  0
   -0.9830    2.2567    0.6101 C   0  0  0  0  0  0  0  0  0  0  0  0
   -2.1658    0.0380    0.6101 C   0  0  0  0  0  0  0  0  0  0  0  0
   -0.1223    1.3744   -1.8587 H   0  0  0  0  0  0  0  0  0  0  0  0
   -1.8870    1.3140   -1.8455 H   0  0  0  0  0  0  0  0  0  0  0  0
   -0.9534   -0.1848   -1.8587 H   0  0  0  0  0  0  0  0  0  0  0  0
    0.1207    0.2437    0.4686 H   0  0  0  0  0  0  0  0  0  0  0  0
   -1.8870    2.7875    0.2975 H   0  0  0  0  0  0  0  0  0  0  0  0
   -0.9534    2.2635    1.7017 H   0  0  0  0  0  0  0  0  0  0  0  0
   -0.1223    2.8216    0.2458 H   0  0  0  0  0  0  0  0  0  0  0  0
   -2.1551   -0.9914    0.2457 H   0  0  0  0  0  0  0  0  0  0  0  0
   -3.1104    0.4928    0.2976 H   0  0  0  0  0  0  0  0  0  0  0  0
   -2.1549    0.0096    1.7017 H   0  0  0  0  0  0  0  0  0  0  0  0
  1  2  1  0
  1  3  1  0
  1  4  1  0
  1 13  1  0
  2  5  1  0
  6  7  1  0
  6 10  1  0
  6 11  1  0
  6 12  1  0
  7  8  1  0
  7  9  1  0
  8 14  1  0
  8 15  1  0
  8 16  1  0
  9 17  1  0
  9 18  1  0
  9 19  1  0
M  RAD  1   7   2
M  END
>  <reaction>  (13) 
rxn_973

>  <mol_properties>  (13) 
{"0": {"label": "*3", "atom_type": "Cs"}, "1": {"label": "*4", "atom_type": "S2s"}, "5": {"label": "*0", "atom_type": "Cs"}, "6": {"label": "*1", "atom_type": "Cs"}, "12": {"label": "*2", "atom_type": "H0"}}

>  <type>  (13) 
unop_9

>  <geom_source>  (13) 
Heuristics

$$$$

     RDKit          3D

 19 17  0  0  0  0  0  0  0  0999 V2000
    0.9212   -0.9987    0.6950 C   0  0  0  0  0  0  0  0  0  0  0  0
    2.3911   -0.1275    0.0959 S   0  0  0  0  0  0  0  0  0  0  0  0
    0.6350   -0.5117    1.6257 H   0  0  0  0  0  0  0  0  0  0  0  0
    1.1369   -2.0450    0.9012 H   0  0  0  0  0  0  0  0  0  0  0  0
    2.5742   -0.8537   -1.0136 H   0  0  0  0  0  0  0  0  0  0  0  0
   -1.2787    0.1741   -1.6372 C   0  0  0  0  0  0  0  0  0  0  0  0
   -1.2787    0.1741   -0.1115 C   0  0  0  0  0  3  0  0  0  0  0  0
   -1.2787    1.5987    0.4346 C   0  0  0  0  0  0  0  0  0  0  0  0
   -2.4615   -0.6200    0.4346 C   0  0  0  0  0  0  0  0  0  0  0  0
   -0.4180    0.7164   -2.0342 H   0  0  0  0  0  0  0  0  0  0  0  0
   -2.1827    0.6560   -2.0210 H   0  0  0  0  0  0  0  0  0  0  0  0
   -1.2492   -0.8428   -2.0342 H   0  0  0  0  0  0  0  0  0  0  0  0
   -0.1750   -0.4143    0.2931 H   0  0  0  0  0  0  0  0  0  0  0  0
   -2.1827    2.1295    0.1220 H   0  0  0  0  0  0  0  0  0  0  0  0
   -1.2492    1.6055    1.5262 H   0  0  0  0  0  0  0  0  0  0  0  0
   -0.4181    2.1636    0.0703 H   0  0  0  0  0  0  0  0  0  0  0  0
   -2.4508   -1.6494    0.0702 H   0  0  0  0  0  0  0  0  0  0  0  0
   -3.4061   -0.1653    0.1221 H   0  0  0  0  0  0  0  0  0  0  0  0
   -2.4506   -0.6485    1.5262 H   0  0  0  0  0  0  0  0  0  0  0  0
  1  2  1  0
  1  3  1  0
  1  4  1  0
  1 13  1  0
  2  5  1  0
  6  7  1  0
  6 10  1  0
  6 11  1  0
  6 12  1  0
  7  8  1  0
  7  9  1  0
  8 14  1  0
  8 15  1  0
  8 16  1  0
  9 17  1  0
  9 18  1  0
  9 19  1  0
M  RAD  1   7   2
M  END
>  <reaction>  (14) 
rxn_973

>  <mol_properties>  (14) 
{"0": {"label": "*3", "atom_type": "Cs"}, "1": {"label": "*4", "atom_type": "S2s"}, "5": {"label": "*0", "atom_type": "Cs"}, "6": {"label": "*1", "atom_type": "Cs"}, "12": {"label": "*2", "atom_type": "H0"}}

>  <type>  (14) 
unop_10

>  <geom_source>  (14) 
Heuristics

$$$$

     RDKit          3D

 19 17  0  0  0  0  0  0  0  0999 V2000
    1.4564   -0.4899    0.0066 C   0  0  0  0  0  0  0  0  0  0  0  0
    1.2172   -1.3178    1.5990 S   0  0  0  0  0  0  0  0  0  0  0  0
    2.1814   -1.0879   -0.5433 H   0  0  0  0  0  0  0  0  0  0  0  0
    1.8590    0.5124    0.1373 H   0  0  0  0  0  0  0  0  0  0  0  0
    0.3251   -0.4559    2.1022 H   0  0  0  0  0  0  0  0  0  0  0  0
   -0.7434    0.6829   -2.3256 C   0  0  0  0  0  0  0  0  0  0  0  0
   -0.7434    0.6829   -0.7999 C   0  0  0  0  0  3  0  0  0  0  0  0
   -0.7434    2.1075   -0.2538 C   0  0  0  0  0  0  0  0  0  0  0  0
   -1.9263   -0.1112   -0.2538 C   0  0  0  0  0  0  0  0  0  0  0  0
    0.1172    1.2252   -2.7226 H   0  0  0  0  0  0  0  0  0  0  0  0
   -1.6474    1.1648   -2.7093 H   0  0  0  0  0  0  0  0  0  0  0  0
   -0.7139   -0.3340   -2.7226 H   0  0  0  0  0  0  0  0  0  0  0  0
    0.3602    0.0945   -0.3953 H   0  0  0  0  0  0  0  0  0  0  0  0
   -1.6475    2.6383   -0.5664 H   0  0  0  0  0  0  0  0  0  0  0  0
   -0.7139    2.1143    0.8378 H   0  0  0  0  0  0  0  0  0  0  0  0
    0.1172    2.6724   -0.6181 H   0  0  0  0  0  0  0  0  0  0  0  0
   -1.9156   -1.1406   -0.6182 H   0  0  0  0  0  0  0  0  0  0  0  0
   -2.8709    0.3435   -0.5663 H   0  0  0  0  0  0  0  0  0  0  0  0
   -1.9154   -0.1397    0.8378 H   0  0  0  0  0  0  0  0  0  0  0  0
  1  2  1  0
  1  3  1  0
  1  4  1  0
  1 13  1  0
  2  5  1  0
  6  7  1  0
  6 10  1  0
  6 11  1  0
  6 12  1  0
  7  8  1  0
  7  9  1  0
  8 14  1  0
  8 15  1  0
  8 16  1  0
  9 17  1  0
  9 18  1  0
  9 19  1  0
M  RAD  1   7   2
M  END
>  <reaction>  (15) 
rxn_973

>  <mol_properties>  (15) 
{"0": {"label": "*3", "atom_type": "Cs"}, "1": {"label": "*4", "atom_type": "S2s"}, "5": {"label": "*0", "atom_type": "Cs"}, "6": {"label": "*1", "atom_type": "Cs"}, "12": {"label": "*2", "atom_type": "H0"}}

>  <type>  (15) 
unop_11

>  <geom_source>  (15) 
Heuristics

$$$$

     RDKit          3D

 19 17  0  0  0  0  0  0  0  0999 V2000
    1.0710   -0.5591    0.9404 C   0  0  0  0  0  0  0  0  0  0  0  0
    2.0829   -1.0985   -0.4608 S   0  0  0  0  0  0  0  0  0  0  0  0
    1.6706    0.1646    1.4902 H   0  0  0  0  0  0  0  0  0  0  0  0
    0.8346   -1.3899    1.6019 H   0  0  0  0  0  0  0  0  0  0  0  0
    1.1964   -1.9522   -0.9874 H   0  0  0  0  0  0  0  0  0  0  0  0
   -1.1289    0.6137   -1.3917 C   0  0  0  0  0  0  0  0  0  0  0  0
   -1.1289    0.6137    0.1340 C   0  0  0  0  0  3  0  0  0  0  0  0
   -1.1289    2.0383    0.6801 C   0  0  0  0  0  0  0  0  0  0  0  0
   -2.3117   -0.1804    0.6801 C   0  0  0  0  0  0  0  0  0  0  0  0
   -0.2682    1.1560   -1.7888 H   0  0  0  0  0  0  0  0  0  0  0  0
   -2.0329    1.0956   -1.7755 H   0  0  0  0  0  0  0  0  0  0  0  0
   -1.0994   -0.4032   -1.7888 H   0  0  0  0  0  0  0  0  0  0  0  0
   -0.0252    0.0253    0.5386 H   0  0  0  0  0  0  0  0  0  0  0  0
   -2.0329    2.5692    0.3675 H   0  0  0  0  0  0  0  0  0  0  0  0
   -1.0993    2.0451    1.7717 H   0  0  0  0  0  0  0  0  0  0  0  0
   -0.2682    2.6032    0.3158 H   0  0  0  0  0  0  0  0  0  0  0  0
   -2.3010   -1.2098    0.3157 H   0  0  0  0  0  0  0  0  0  0  0  0
   -3.2563    0.2744    0.3676 H   0  0  0  0  0  0  0  0  0  0  0  0
   -2.3008   -0.2088    1.7717 H   0  0  0  0  0  0  0  0  0  0  0  0
  1  2  1  0
  1  3  1  0
  1  4  1  0
  1 13  1  0
  2  5  1  0
  6  7  1  0
  6 10  1  0
  6 11  1  0
  6 12  1  0
  7  8  1  0
  7  9  1  0
  8 14  1  0
  8 15  1  0
  8 16  1  0
  9 17  1  0
  9 18  1  0
  9 19  1  0
M  RAD  1   7   2
M  END
>  <reaction>  (16) 
rxn_973

>  <mol_properties>  (16) 
{"0": {"label": "*3", "atom_type": "Cs"}, "1": {"label": "*4", "atom_type": "S2s"}, "5": {"label": "*0", "atom_type": "Cs"}, "6": {"label": "*1", "atom_type": "Cs"}, "12": {"label": "*2", "atom_type": "H0"}}

>  <type>  (16) 
unop_12

>  <geom_source>  (16) 
Heuristics

$$$$

     RDKit          3D

 19 17  0  0  0  0  0  0  0  0999 V2000
    3.2519    0.2019   -0.4588 S   0  0  0  0  0  0  0  0  0  0  0  0
   -0.5590    0.9734    1.0820 C   0  0  0  0  0  0  0  0  0  0  0  0
   -1.5828   -1.1334    0.1345 C   0  0  0  0  0  0  0  0  0  0  0  0
   -0.6768    0.6406   -1.4201 C   0  0  0  0  0  0  0  0  0  0  0  0
    1.9295   -0.8294    0.2342 C   0  0  0  0  0  0  0  0  0  0  0  0
   -0.5263   -0.0441   -0.0602 C   0  0  0  0  0  3  0  0  0  0  0  0
   -1.5378    1.4988    1.1111 H   0  0  0  0  0  0  0  0  0  0  0  0
    0.2505    1.7213    0.9462 H   0  0  0  0  0  0  0  0  0  0  0  0
   -0.3941    0.4592    2.0522 H   0  0  0  0  0  0  0  0  0  0  0  0
   -2.6041   -0.6954    0.1243 H   0  0  0  0  0  0  0  0  0  0  0  0
   -1.5033   -1.8875   -0.6767 H   0  0  0  0  0  0  0  0  0  0  0  0
   -1.4194   -1.6507    1.1033 H   0  0  0  0  0  0  0  0  0  0  0  0
   -0.5959   -0.1109   -2.2335 H   0  0  0  0  0  0  0  0  0  0  0  0
   -1.6605    1.1522   -1.4947 H   0  0  0  0  0  0  0  0  0  0  0  0
    0.1325    1.3880   -1.5595 H   0  0  0  0  0  0  0  0  0  0  0  0
    2.1060   -1.8893   -0.0416 H   0  0  0  0  0  0  0  0  0  0  0  0
    1.9228   -0.7331    1.3397 H   0  0  0  0  0  0  0  0  0  0  0  0
    0.7792   -0.4436   -0.2435 H   0  0  0  0  0  0  0  0  0  0  0  0
    2.6873    1.3819    0.0610 H   0  0  0  0  0  0  0  0  0  0  0  0
  1  5  1  0
  1 19  1  0
  2  6  1  0
  2  7  1  0
  2  8  1  0
  2  9  1  0
  3  6  1  0
  3 10  1  0
  3 11  1  0
  3 12  1  0
  4  6  1  0
  4 13  1  0
  4 14  1  0
  4 15  1  0
  5 16  1  0
  5 17  1  0
  5 18  1  0
M  RAD  1   6   2
M  END
>  <reaction>  (17) 
rxn_973

>  <mol_properties>  (17) 
{"0": {"label": "*3", "atom_type": "Cs"}, "1": {"label": "*4", "atom_type": "S2s"}, "5": {"label": "*0", "atom_type": "Cs"}, "6": {"label": "*1", "atom_type": "Cs"}, "12": {"label": "*2", "atom_type": "H0"}}

>  <type>  (17) 
unop_13

>  <geom_source>  (17) 
AutoTST

$$$$
