
     RDKit          3D

 12 11  0  0  0  0  0  0  0  0999 V2000
    1.3372   -0.1398    0.4136 C   0  0  0  0  0  0  0  0  0  0  0  0
   -0.0787    0.3743    0.2016 C   0  0  0  0  0  0  0  0  0  0  0  0
   -1.0057   -0.7011   -0.3445 C   0  0  0  0  0  0  0  0  0  0  0  0
   -0.0866    1.5266   -0.6273 O   0  0  0  0  0  0  0  0  0  0  0  0
    1.7593   -0.4986   -0.5303 H   0  0  0  0  0  0  0  0  0  0  0  0
    1.3510   -0.9703    1.1220 H   0  0  0  0  0  0  0  0  0  0  0  0
    1.9774    0.6555    0.7960 H   0  0  0  0  0  0  0  0  0  0  0  0
   -0.4728    0.7287    1.1572 H   0  0  0  0  0  0  0  0  0  0  0  0
   -1.0678   -1.5498    0.3393 H   0  0  0  0  0  0  0  0  0  0  0  0
   -2.0082   -0.2994   -0.4937 H   0  0  0  0  0  0  0  0  0  0  0  0
   -0.6364   -1.0726   -1.3055 H   0  0  0  0  0  0  0  0  0  0  0  0
    0.2522    1.2779   -1.4902 H   0  0  0  0  0  0  0  0  0  0  0  0
  1  2  1  0
  1  5  1  0
  1  6  1  0
  1  7  1  0
  2  3  1  0
  2  4  1  0
  2  8  1  0
  3  9  1  0
  3 10  1  0
  3 11  1  0
  4 12  1  0
M  END
>  <reaction>  (1) 
rxn_751

>  <mol_properties>  (1) 
{"0": {"label": "donator", "atom_type": "Cs"}, "4": {"label": "d_hydrogen", "atom_type": "H0"}}

>  <type>  (1) 
r1h

$$$$

     RDKit          3D

  4  3  0  0  0  0  0  0  0  0999 V2000
    0.0000    0.0000    0.0000 C   0  0  0  0  0  3  0  0  0  0  0  0
    1.0638   -0.1747    0.0540 H   0  0  0  0  0  0  0  0  0  0  0  0
   -0.6833   -0.8351   -0.0280 H   0  0  0  0  0  0  0  0  0  0  0  0
   -0.3805    1.0098   -0.0260 H   0  0  0  0  0  0  0  0  0  0  0  0
  1  2  1  0
  1  3  1  0
  1  4  1  0
M  RAD  1   1   2
M  END
>  <reaction>  (2) 
rxn_751

>  <mol_properties>  (2) 
{"0": {"label": "acceptor", "atom_type": "Cs"}}

>  <type>  (2) 
r2

$$$$

     RDKit          3D

  5  4  0  0  0  0  0  0  0  0999 V2000
    0.0000    0.0000    0.0000 C   0  0  0  0  0  0  0  0  0  0  0  0
   -0.6486   -0.7720   -0.4113 H   0  0  0  0  0  0  0  0  0  0  0  0
   -0.3482    0.9787   -0.3267 H   0  0  0  0  0  0  0  0  0  0  0  0
   -0.0223   -0.0487    1.0876 H   0  0  0  0  0  0  0  0  0  0  0  0
    1.0191   -0.1580   -0.3496 H   0  0  0  0  0  0  0  0  0  0  0  0
  1  2  1  0
  1  3  1  0
  1  4  1  0
  1  5  1  0
M  END
>  <reaction>  (3) 
rxn_751

>  <mol_properties>  (3) 
{"0": {"label": "a_hydrogen", "atom_type": "H0"}, "1": {"label": "acceptor", "atom_type": "Cs"}}

>  <type>  (3) 
r2h

$$$$

     RDKit          3D

 16 14  0  0  0  0  0  0  0  0999 V2000
    0.2821    0.1923    1.0311 C   0  0  0  0  0  0  0  0  0  0  0  0
    0.6334   -0.7156   -0.1207 C   0  0  0  0  0  0  0  0  0  0  0  0
    1.2970    0.0302   -1.2703 C   0  0  0  0  0  0  0  0  0  0  0  0
   -0.5021   -1.4440   -0.5619 O   0  0  0  0  0  0  0  0  0  0  0  0
   -0.6239    1.0439    0.5799 H   0  0  0  0  0  0  0  0  0  0  0  0
    1.0994    0.8243    1.3753 H   0  0  0  0  0  0  0  0  0  0  0  0
   -0.2189   -0.3177    1.8516 H   0  0  0  0  0  0  0  0  0  0  0  0
    1.3240   -1.4876    0.2366 H   0  0  0  0  0  0  0  0  0  0  0  0
    2.2238    0.5054   -0.9428 H   0  0  0  0  0  0  0  0  0  0  0  0
    1.5266   -0.6591   -2.0828 H   0  0  0  0  0  0  0  0  0  0  0  0
    0.6360    0.8113   -1.6548 H   0  0  0  0  0  0  0  0  0  0  0  0
   -1.1760   -0.8124   -0.8234 H   0  0  0  0  0  0  0  0  0  0  0  0
   -1.5852    1.8973    0.1012 C   0  0  0  0  0  3  0  0  0  0  0  0
   -2.4806    1.6503    0.6640 H   0  0  0  0  0  0  0  0  0  0  0  0
   -1.6745    1.6987   -0.9641 H   0  0  0  0  0  0  0  0  0  0  0  0
   -1.1968    2.8883    0.3162 H   0  0  0  0  0  0  0  0  0  0  0  0
  1  2  1  0
  1  5  1  0
  1  6  1  0
  1  7  1  0
  2  3  1  0
  2  4  1  0
  2  8  1  0
  3  9  1  0
  3 10  1  0
  3 11  1  0
  4 12  1  0
 13 14  1  0
 13 15  1  0
 13 16  1  0
M  RAD  1  13   2
M  END
>  <reaction>  (4) 
rxn_751

>  <mol_properties>  (4) 
{"0": {"label": "*1", "atom_type": "Cs"}, "1": {"label": "*0", "atom_type": "Cs"}, "4": {"label": "*2", "atom_type": "H0"}, "12": {"label": "*3", "atom_type": "Cs"}, "13": {"label": "*4", "atom_type": "H0"}}

>  <type>  (4) 
ts

$$$$

     RDKit          3D

 16 14  0  0  0  0  0  0  0  0999 V2000
    0.6769    0.7244    0.7043 C   0  0  0  0  0  3  0  0  0  0  0  0
    0.6769   -0.6837    0.1287 C   0  0  0  0  0  0  0  0  0  0  0  0
    0.6769   -0.6837   -1.3925 C   0  0  0  0  0  0  0  0  0  0  0  0
   -0.4052   -1.4464    0.6409 O   0  0  0  0  0  0  0  0  0  0  0  0
   -0.3846    1.3849    0.3018 H   0  0  0  0  0  0  0  0  0  0  0  0
    1.5585    1.2807    0.3799 H   0  0  0  0  0  0  0  0  0  0  0  0
    0.6676    0.6900    1.7939 H   0  0  0  0  0  0  0  0  0  0  0  0
    1.5669   -1.2100    0.4821 H   0  0  0  0  0  0  0  0  0  0  0  0
    1.5585   -0.1730   -1.7847 H   0  0  0  0  0  0  0  0  0  0  0  0
    0.6676   -1.7053   -1.7729 H   0  0  0  0  0  0  0  0  0  0  0  0
   -0.2076   -0.1650   -1.7751 H   0  0  0  0  0  0  0  0  0  0  0  0
   -1.2241   -1.0307    0.3617 H   0  0  0  0  0  0  0  0  0  0  0  0
   -1.4406    2.0420   -0.0986 C   0  0  0  0  0  0  0  0  0  0  0  0
   -2.0289    2.3452    0.7661 H   0  0  0  0  0  0  0  0  0  0  0  0
   -2.0718    2.0447   -0.9860 H   0  0  0  0  0  0  0  0  0  0  0  0
   -0.6967    2.8373   -0.1027 H   0  0  0  0  0  0  0  0  0  0  0  0
  1  2  1  0
  1  6  1  0
  1  7  1  0
  2  3  1  0
  2  4  1  0
  2  8  1  0
  3  9  1  0
  3 10  1  0
  3 11  1  0
  4 12  1  0
  5 13  1  0
 13 14  1  0
 13 15  1  0
 13 16  1  0
M  RAD  1   1   2
M  END
>  <reaction>  (5) 
rxn_751

>  <mol_properties>  (5) 
{"0": {"label": "*1", "atom_type": "Cs"}, "1": {"label": "*0", "atom_type": "Cs"}, "4": {"label": "*2", "atom_type": "H0"}, "12": {"label": "*3", "atom_type": "Cs"}, "13": {"label": "*4", "atom_type": "H0"}}

>  <type>  (5) 
unop_1

>  <geom_source>  (5) 
Heuristics

$$$$

     RDKit          3D

 16 14  0  0  0  0  0  0  0  0999 V2000
    0.6757    0.7312    0.7056 C   0  0  0  0  0  3  0  0  0  0  0  0
    0.6757   -0.6769    0.1301 C   0  0  0  0  0  0  0  0  0  0  0  0
    0.6757   -0.6769   -1.3911 C   0  0  0  0  0  0  0  0  0  0  0  0
   -0.4064   -1.4396    0.6423 O   0  0  0  0  0  0  0  0  0  0  0  0
   -0.3857    1.3917    0.3032 H   0  0  0  0  0  0  0  0  0  0  0  0
    1.5573    1.2875    0.3813 H   0  0  0  0  0  0  0  0  0  0  0  0
    0.6664    0.6968    1.7952 H   0  0  0  0  0  0  0  0  0  0  0  0
    1.5657   -1.2032    0.4835 H   0  0  0  0  0  0  0  0  0  0  0  0
    1.5573   -0.1662   -1.7834 H   0  0  0  0  0  0  0  0  0  0  0  0
    0.6664   -1.6985   -1.7716 H   0  0  0  0  0  0  0  0  0  0  0  0
   -0.2088   -0.1582   -1.7737 H   0  0  0  0  0  0  0  0  0  0  0  0
   -1.2252   -1.0239    0.3631 H   0  0  0  0  0  0  0  0  0  0  0  0
   -1.4418    2.0489   -0.0972 C   0  0  0  0  0  0  0  0  0  0  0  0
   -2.2630    1.3523   -0.2593 H   0  0  0  0  0  0  0  0  0  0  0  0
   -1.4235    2.7820   -0.9022 H   0  0  0  0  0  0  0  0  0  0  0  0
   -1.0276    2.6053    0.7422 H   0  0  0  0  0  0  0  0  0  0  0  0
  1  2  1  0
  1  6  1  0
  1  7  1  0
  2  3  1  0
  2  4  1  0
  2  8  1  0
  3  9  1  0
  3 10  1  0
  3 11  1  0
  4 12  1  0
  5 13  1  0
 13 14  1  0
 13 15  1  0
 13 16  1  0
M  RAD  1   1   2
M  END
>  <reaction>  (6) 
rxn_751

>  <mol_properties>  (6) 
{"0": {"label": "*1", "atom_type": "Cs"}, "1": {"label": "*0", "atom_type": "Cs"}, "4": {"label": "*2", "atom_type": "H0"}, "12": {"label": "*3", "atom_type": "Cs"}, "13": {"label": "*4", "atom_type": "H0"}}

>  <type>  (6) 
unop_2

>  <geom_source>  (6) 
Heuristics

$$$$

     RDKit          3D

 16 14  0  0  0  0  0  0  0  0999 V2000
    0.6783    0.7240    0.7074 C   0  0  0  0  0  3  0  0  0  0  0  0
    0.6783   -0.6841    0.1319 C   0  0  0  0  0  0  0  0  0  0  0  0
    0.6783   -0.6841   -1.3893 C   0  0  0  0  0  0  0  0  0  0  0  0
   -0.4038   -1.4468    0.6441 O   0  0  0  0  0  0  0  0  0  0  0  0
   -0.3831    1.3845    0.3050 H   0  0  0  0  0  0  0  0  0  0  0  0
    1.5599    1.2803    0.3831 H   0  0  0  0  0  0  0  0  0  0  0  0
    0.6690    0.6896    1.7970 H   0  0  0  0  0  0  0  0  0  0  0  0
    1.5683   -1.2104    0.4853 H   0  0  0  0  0  0  0  0  0  0  0  0
    1.5599   -0.1734   -1.7815 H   0  0  0  0  0  0  0  0  0  0  0  0
    0.6690   -1.7057   -1.7698 H   0  0  0  0  0  0  0  0  0  0  0  0
   -0.2062   -0.1654   -1.7719 H   0  0  0  0  0  0  0  0  0  0  0  0
   -1.2226   -1.0311    0.3649 H   0  0  0  0  0  0  0  0  0  0  0  0
   -1.4392    2.0417   -0.0954 C   0  0  0  0  0  0  0  0  0  0  0  0
   -1.7241    2.7683    0.6640 H   0  0  0  0  0  0  0  0  0  0  0  0
   -2.3305    1.6860   -0.6100 H   0  0  0  0  0  0  0  0  0  0  0  0
   -0.8453    2.7999   -0.6035 H   0  0  0  0  0  0  0  0  0  0  0  0
  1  2  1  0
  1  6  1  0
  1  7  1  0
  2  3  1  0
  2  4  1  0
  2  8  1  0
  3  9  1  0
  3 10  1  0
  3 11  1  0
  4 12  1  0
  5 13  1  0
 13 14  1  0
 13 15  1  0
 13 16  1  0
M  RAD  1   1   2
M  END
>  <reaction>  (7) 
rxn_751

>  <mol_properties>  (7) 
{"0": {"label": "*1", "atom_type": "Cs"}, "1": {"label": "*0", "atom_type": "Cs"}, "4": {"label": "*2", "atom_type": "H0"}, "12": {"label": "*3", "atom_type": "Cs"}, "13": {"label": "*4", "atom_type": "H0"}}

>  <type>  (7) 
unop_3

>  <geom_source>  (7) 
Heuristics

$$$$

     RDKit          3D

 16 14  0  0  0  0  0  0  0  0999 V2000
    0.6748    0.7283    0.7044 C   0  0  0  0  0  3  0  0  0  0  0  0
    0.6748   -0.6798    0.1288 C   0  0  0  0  0  0  0  0  0  0  0  0
    0.6748   -0.6798   -1.3924 C   0  0  0  0  0  0  0  0  0  0  0  0
   -0.4073   -1.4425    0.6410 O   0  0  0  0  0  0  0  0  0  0  0  0
   -0.3866    1.3888    0.3019 H   0  0  0  0  0  0  0  0  0  0  0  0
    1.5564    1.2846    0.3800 H   0  0  0  0  0  0  0  0  0  0  0  0
    0.6655    0.6940    1.7940 H   0  0  0  0  0  0  0  0  0  0  0  0
    1.5648   -1.2061    0.4823 H   0  0  0  0  0  0  0  0  0  0  0  0
    1.5564   -0.1691   -1.7846 H   0  0  0  0  0  0  0  0  0  0  0  0
    0.6655   -1.7014   -1.7728 H   0  0  0  0  0  0  0  0  0  0  0  0
   -0.2097   -0.1611   -1.7750 H   0  0  0  0  0  0  0  0  0  0  0  0
   -1.2261   -1.0268    0.3618 H   0  0  0  0  0  0  0  0  0  0  0  0
   -1.4427    2.0460   -0.0985 C   0  0  0  0  0  0  0  0  0  0  0  0
   -1.4411    2.1079   -1.1857 H   0  0  0  0  0  0  0  0  0  0  0  0
   -0.8886    2.8878    0.3138 H   0  0  0  0  0  0  0  0  0  0  0  0
   -2.3185    1.9507    0.5416 H   0  0  0  0  0  0  0  0  0  0  0  0
  1  2  1  0
  1  6  1  0
  1  7  1  0
  2  3  1  0
  2  4  1  0
  2  8  1  0
  3  9  1  0
  3 10  1  0
  3 11  1  0
  4 12  1  0
  5 13  1  0
 13 14  1  0
 13 15  1  0
 13 16  1  0
M  RAD  1   1   2
M  END
>  <reaction>  (8) 
rxn_751

>  <mol_properties>  (8) 
{"0": {"label": "*1", "atom_type": "Cs"}, "1": {"label": "*0", "atom_type": "Cs"}, "4": {"label": "*2", "atom_type": "H0"}, "12": {"label": "*3", "atom_type": "Cs"}, "13": {"label": "*4", "atom_type": "H0"}}

>  <type>  (8) 
unop_4

>  <geom_source>  (8) 
Heuristics

$$$$

     RDKit          3D

 16 14  0  0  0  0  0  0  0  0999 V2000
    0.6825    0.7261    0.7069 C   0  0  0  0  0  3  0  0  0  0  0  0
    0.6825   -0.6820    0.1313 C   0  0  0  0  0  0  0  0  0  0  0  0
    0.6825   -0.6820   -1.3899 C   0  0  0  0  0  0  0  0  0  0  0  0
   -0.3997   -1.4447    0.6435 O   0  0  0  0  0  0  0  0  0  0  0  0
   -0.3790    1.3866    0.3044 H   0  0  0  0  0  0  0  0  0  0  0  0
    1.5641    1.2825    0.3825 H   0  0  0  0  0  0  0  0  0  0  0  0
    0.6732    0.6918    1.7965 H   0  0  0  0  0  0  0  0  0  0  0  0
    1.5725   -1.2083    0.4848 H   0  0  0  0  0  0  0  0  0  0  0  0
    1.5641   -0.1712   -1.7821 H   0  0  0  0  0  0  0  0  0  0  0  0
    0.6732   -1.7036   -1.7703 H   0  0  0  0  0  0  0  0  0  0  0  0
   -0.2021   -0.1633   -1.7725 H   0  0  0  0  0  0  0  0  0  0  0  0
   -1.2185   -1.0289    0.3643 H   0  0  0  0  0  0  0  0  0  0  0  0
   -1.4351    2.0438   -0.0960 C   0  0  0  0  0  0  0  0  0  0  0  0
   -1.4188    3.0480    0.3248 H   0  0  0  0  0  0  0  0  0  0  0  0
   -2.3330    1.5253    0.2368 H   0  0  0  0  0  0  0  0  0  0  0  0
   -1.4440    2.5278   -1.0714 H   0  0  0  0  0  0  0  0  0  0  0  0
  1  2  1  0
  1  6  1  0
  1  7  1  0
  2  3  1  0
  2  4  1  0
  2  8  1  0
  3  9  1  0
  3 10  1  0
  3 11  1  0
  4 12  1  0
  5 13  1  0
 13 14  1  0
 13 15  1  0
 13 16  1  0
M  RAD  1   1   2
M  END
>  <reaction>  (9) 
rxn_751

>  <mol_properties>  (9) 
{"0": {"label": "*1", "atom_type": "Cs"}, "1": {"label": "*0", "atom_type": "Cs"}, "4": {"label": "*2", "atom_type": "H0"}, "12": {"label": "*3", "atom_type": "Cs"}, "13": {"label": "*4", "atom_type": "H0"}}

>  <type>  (9) 
unop_5

>  <geom_source>  (9) 
Heuristics

$$$$

     RDKit          3D

 16 14  0  0  0  0  0  0  0  0999 V2000
    0.6767    0.7265    0.7032 C   0  0  0  0  0  3  0  0  0  0  0  0
    0.6767   -0.6816    0.1276 C   0  0  0  0  0  0  0  0  0  0  0  0
    0.6767   -0.6816   -1.3935 C   0  0  0  0  0  0  0  0  0  0  0  0
   -0.4054   -1.4443    0.6398 O   0  0  0  0  0  0  0  0  0  0  0  0
   -0.3848    1.3870    0.3007 H   0  0  0  0  0  0  0  0  0  0  0  0
    1.5583    1.2828    0.3788 H   0  0  0  0  0  0  0  0  0  0  0  0
    0.6674    0.6922    1.7928 H   0  0  0  0  0  0  0  0  0  0  0  0
    1.5667   -1.2079    0.4811 H   0  0  0  0  0  0  0  0  0  0  0  0
    1.5583   -0.1709   -1.7858 H   0  0  0  0  0  0  0  0  0  0  0  0
    0.6674   -1.7032   -1.7740 H   0  0  0  0  0  0  0  0  0  0  0  0
   -0.2078   -0.1629   -1.7762 H   0  0  0  0  0  0  0  0  0  0  0  0
   -1.2242   -1.0286    0.3607 H   0  0  0  0  0  0  0  0  0  0  0  0
   -1.4408    2.0442   -0.0997 C   0  0  0  0  0  0  0  0  0  0  0  0
   -1.2149    2.5618   -1.0307 H   0  0  0  0  0  0  0  0  0  0  0  0
   -1.0599    2.6239    0.7397 H   0  0  0  0  0  0  0  0  0  0  0  0
   -2.5090    1.8893    0.0449 H   0  0  0  0  0  0  0  0  0  0  0  0
  1  2  1  0
  1  6  1  0
  1  7  1  0
  2  3  1  0
  2  4  1  0
  2  8  1  0
  3  9  1  0
  3 10  1  0
  3 11  1  0
  4 12  1  0
  5 13  1  0
 13 14  1  0
 13 15  1  0
 13 16  1  0
M  RAD  1   1   2
M  END
>  <reaction>  (10) 
rxn_751

>  <mol_properties>  (10) 
{"0": {"label": "*1", "atom_type": "Cs"}, "1": {"label": "*0", "atom_type": "Cs"}, "4": {"label": "*2", "atom_type": "H0"}, "12": {"label": "*3", "atom_type": "Cs"}, "13": {"label": "*4", "atom_type": "H0"}}

>  <type>  (10) 
unop_6

>  <geom_source>  (10) 
Heuristics

$$$$

     RDKit          3D

 16 14  0  0  0  0  0  0  0  0999 V2000
    0.6793    0.7258    0.7018 C   0  0  0  0  0  3  0  0  0  0  0  0
    0.6793   -0.6823    0.1263 C   0  0  0  0  0  0  0  0  0  0  0  0
    0.6793   -0.6823   -1.3949 C   0  0  0  0  0  0  0  0  0  0  0  0
   -0.4029   -1.4450    0.6385 O   0  0  0  0  0  0  0  0  0  0  0  0
   -0.3822    1.3863    0.2994 H   0  0  0  0  0  0  0  0  0  0  0  0
    1.5609    1.2821    0.3775 H   0  0  0  0  0  0  0  0  0  0  0  0
    0.6700    0.6915    1.7914 H   0  0  0  0  0  0  0  0  0  0  0  0
    1.5693   -1.2086    0.4797 H   0  0  0  0  0  0  0  0  0  0  0  0
    1.5609   -0.1716   -1.7872 H   0  0  0  0  0  0  0  0  0  0  0  0
    0.6700   -1.7039   -1.7754 H   0  0  0  0  0  0  0  0  0  0  0  0
   -0.2053   -0.1636   -1.7775 H   0  0  0  0  0  0  0  0  0  0  0  0
   -1.2217   -1.0293    0.3593 H   0  0  0  0  0  0  0  0  0  0  0  0
   -1.4383    2.0435   -0.1010 C   0  0  0  0  0  0  0  0  0  0  0  0
   -1.1271    2.9270   -0.6562 H   0  0  0  0  0  0  0  0  0  0  0  0
   -1.3779    2.2461    0.9672 H   0  0  0  0  0  0  0  0  0  0  0  0
   -2.4623    1.9521   -0.4599 H   0  0  0  0  0  0  0  0  0  0  0  0
  1  2  1  0
  1  6  1  0
  1  7  1  0
  2  3  1  0
  2  4  1  0
  2  8  1  0
  3  9  1  0
  3 10  1  0
  3 11  1  0
  4 12  1  0
  5 13  1  0
 13 14  1  0
 13 15  1  0
 13 16  1  0
M  RAD  1   1   2
M  END
>  <reaction>  (11) 
rxn_751

>  <mol_properties>  (11) 
{"0": {"label": "*1", "atom_type": "Cs"}, "1": {"label": "*0", "atom_type": "Cs"}, "4": {"label": "*2", "atom_type": "H0"}, "12": {"label": "*3", "atom_type": "Cs"}, "13": {"label": "*4", "atom_type": "H0"}}

>  <type>  (11) 
unop_7

>  <geom_source>  (11) 
Heuristics

$$$$

     RDKit          3D

 16 14  0  0  0  0  0  0  0  0999 V2000
    0.6774    0.7269    0.7028 C   0  0  0  0  0  3  0  0  0  0  0  0
    0.6774   -0.6812    0.1272 C   0  0  0  0  0  0  0  0  0  0  0  0
    0.6774   -0.6812   -1.3940 C   0  0  0  0  0  0  0  0  0  0  0  0
   -0.4048   -1.4439    0.6394 O   0  0  0  0  0  0  0  0  0  0  0  0
   -0.3841    1.3874    0.3003 H   0  0  0  0  0  0  0  0  0  0  0  0
    1.5589    1.2832    0.3784 H   0  0  0  0  0  0  0  0  0  0  0  0
    0.6680    0.6925    1.7923 H   0  0  0  0  0  0  0  0  0  0  0  0
    1.5673   -1.2075    0.4806 H   0  0  0  0  0  0  0  0  0  0  0  0
    1.5589   -0.1705   -1.7862 H   0  0  0  0  0  0  0  0  0  0  0  0
    0.6680   -1.7028   -1.7744 H   0  0  0  0  0  0  0  0  0  0  0  0
   -0.2072   -0.1625   -1.7766 H   0  0  0  0  0  0  0  0  0  0  0  0
   -1.2236   -1.0282    0.3602 H   0  0  0  0  0  0  0  0  0  0  0  0
   -1.4402    2.0445   -0.1001 C   0  0  0  0  0  0  0  0  0  0  0  0
   -2.2529    1.8920    0.6085 H   0  0  0  0  0  0  0  0  0  0  0  0
   -1.8489    2.3608   -1.0586 H   0  0  0  0  0  0  0  0  0  0  0  0
   -0.7274    2.7962    0.2355 H   0  0  0  0  0  0  0  0  0  0  0  0
  1  2  1  0
  1  6  1  0
  1  7  1  0
  2  3  1  0
  2  4  1  0
  2  8  1  0
  3  9  1  0
  3 10  1  0
  3 11  1  0
  4 12  1  0
  5 13  1  0
 13 14  1  0
 13 15  1  0
 13 16  1  0
M  RAD  1   1   2
M  END
>  <reaction>  (12) 
rxn_751

>  <mol_properties>  (12) 
{"0": {"label": "*1", "atom_type": "Cs"}, "1": {"label": "*0", "atom_type": "Cs"}, "4": {"label": "*2", "atom_type": "H0"}, "12": {"label": "*3", "atom_type": "Cs"}, "13": {"label": "*4", "atom_type": "H0"}}

>  <type>  (12) 
unop_8

>  <geom_source>  (12) 
Heuristics

$$$$

     RDKit          3D

 16 14  0  0  0  0  0  0  0  0999 V2000
    0.6735    0.7301    0.7053 C   0  0  0  0  0  3  0  0  0  0  0  0
    0.6735   -0.6780    0.1298 C   0  0  0  0  0  0  0  0  0  0  0  0
    0.6735   -0.6780   -1.3914 C   0  0  0  0  0  0  0  0  0  0  0  0
   -0.4086   -1.4407    0.6420 O   0  0  0  0  0  0  0  0  0  0  0  0
   -0.3879    1.3906    0.3029 H   0  0  0  0  0  0  0  0  0  0  0  0
    1.5551    1.2864    0.3810 H   0  0  0  0  0  0  0  0  0  0  0  0
    0.6642    0.6957    1.7949 H   0  0  0  0  0  0  0  0  0  0  0  0
    1.5635   -1.2043    0.4832 H   0  0  0  0  0  0  0  0  0  0  0  0
    1.5551   -0.1673   -1.7837 H   0  0  0  0  0  0  0  0  0  0  0  0
    0.6642   -1.6996   -1.7719 H   0  0  0  0  0  0  0  0  0  0  0  0
   -0.2110   -0.1593   -1.7740 H   0  0  0  0  0  0  0  0  0  0  0  0
   -1.2274   -1.0250    0.3628 H   0  0  0  0  0  0  0  0  0  0  0  0
   -1.4440    2.0477   -0.0975 C   0  0  0  0  0  0  0  0  0  0  0  0
   -1.7458    1.6862   -1.0794 H   0  0  0  0  0  0  0  0  0  0  0  0
   -0.9110    2.9911   -0.2061 H   0  0  0  0  0  0  0  0  0  0  0  0
   -1.8991    2.1424    0.8872 H   0  0  0  0  0  0  0  0  0  0  0  0
  1  2  1  0
  1  6  1  0
  1  7  1  0
  2  3  1  0
  2  4  1  0
  2  8  1  0
  3  9  1  0
  3 10  1  0
  3 11  1  0
  4 12  1  0
  5 13  1  0
 13 14  1  0
 13 15  1  0
 13 16  1  0
M  RAD  1   1   2
M  END
>  <reaction>  (13) 
rxn_751

>  <mol_properties>  (13) 
{"0": {"label": "*1", "atom_type": "Cs"}, "1": {"label": "*0", "atom_type": "Cs"}, "4": {"label": "*2", "atom_type": "H0"}, "12": {"label": "*3", "atom_type": "Cs"}, "13": {"label": "*4", "atom_type": "H0"}}

>  <type>  (13) 
unop_9

>  <geom_source>  (13) 
Heuristics

$$$$

     RDKit          3D

 16 14  0  0  0  0  0  0  0  0999 V2000
    0.6773    0.7296    0.7037 C   0  0  0  0  0  3  0  0  0  0  0  0
    0.6773   -0.6785    0.1282 C   0  0  0  0  0  0  0  0  0  0  0  0
    0.6773   -0.6785   -1.3930 C   0  0  0  0  0  0  0  0  0  0  0  0
   -0.4049   -1.4412    0.6404 O   0  0  0  0  0  0  0  0  0  0  0  0
   -0.3842    1.3901    0.3013 H   0  0  0  0  0  0  0  0  0  0  0  0
    1.5589    1.2859    0.3794 H   0  0  0  0  0  0  0  0  0  0  0  0
    0.6680    0.6953    1.7933 H   0  0  0  0  0  0  0  0  0  0  0  0
    1.5672   -1.2048    0.4816 H   0  0  0  0  0  0  0  0  0  0  0  0
    1.5589   -0.1678   -1.7852 H   0  0  0  0  0  0  0  0  0  0  0  0
    0.6680   -1.7001   -1.7735 H   0  0  0  0  0  0  0  0  0  0  0  0
   -0.2073   -0.1598   -1.7756 H   0  0  0  0  0  0  0  0  0  0  0  0
   -1.2237   -1.0255    0.3612 H   0  0  0  0  0  0  0  0  0  0  0  0
   -1.4403    2.0473   -0.0991 C   0  0  0  0  0  0  0  0  0  0  0  0
   -2.3382    1.5288    0.2336 H   0  0  0  0  0  0  0  0  0  0  0  0
   -1.6567    2.5975   -1.0136 H   0  0  0  0  0  0  0  0  0  0  0  0
   -0.8290    2.7256    0.4942 H   0  0  0  0  0  0  0  0  0  0  0  0
  1  2  1  0
  1  6  1  0
  1  7  1  0
  2  3  1  0
  2  4  1  0
  2  8  1  0
  3  9  1  0
  3 10  1  0
  3 11  1  0
  4 12  1  0
  5 13  1  0
 13 14  1  0
 13 15  1  0
 13 16  1  0
M  RAD  1   1   2
M  END
>  <reaction>  (14) 
rxn_751

>  <mol_properties>  (14) 
{"0": {"label": "*1", "atom_type": "Cs"}, "1": {"label": "*0", "atom_type": "Cs"}, "4": {"label": "*2", "atom_type": "H0"}, "12": {"label": "*3", "atom_type": "Cs"}, "13": {"label": "*4", "atom_type": "H0"}}

>  <type>  (14) 
unop_10

>  <geom_source>  (14) 
Heuristics

$$$$

     RDKit          3D

 16 14  0  0  0  0  0  0  0  0999 V2000
    0.6824    0.7265    0.7025 C   0  0  0  0  0  3  0  0  0  0  0  0
    0.6824   -0.6816    0.1269 C   0  0  0  0  0  0  0  0  0  0  0  0
    0.6824   -0.6816   -1.3943 C   0  0  0  0  0  0  0  0  0  0  0  0
   -0.3997   -1.4443    0.6391 O   0  0  0  0  0  0  0  0  0  0  0  0
   -0.3791    1.3870    0.3000 H   0  0  0  0  0  0  0  0  0  0  0  0
    1.5640    1.2828    0.3781 H   0  0  0  0  0  0  0  0  0  0  0  0
    0.6731    0.6922    1.7921 H   0  0  0  0  0  0  0  0  0  0  0  0
    1.5724   -1.2079    0.4804 H   0  0  0  0  0  0  0  0  0  0  0  0
    1.5640   -0.1709   -1.7865 H   0  0  0  0  0  0  0  0  0  0  0  0
    0.6731   -1.7032   -1.7747 H   0  0  0  0  0  0  0  0  0  0  0  0
   -0.2021   -0.1629   -1.7769 H   0  0  0  0  0  0  0  0  0  0  0  0
   -1.2186   -1.0286    0.3599 H   0  0  0  0  0  0  0  0  0  0  0  0
   -1.4351    2.0442   -0.1004 C   0  0  0  0  0  0  0  0  0  0  0  0
   -1.2007    3.1059   -0.1608 H   0  0  0  0  0  0  0  0  0  0  0  0
   -1.8427    1.8179    0.8837 H   0  0  0  0  0  0  0  0  0  0  0  0
   -2.1475    2.1512   -0.9170 H   0  0  0  0  0  0  0  0  0  0  0  0
  1  2  1  0
  1  6  1  0
  1  7  1  0
  2  3  1  0
  2  4  1  0
  2  8  1  0
  3  9  1  0
  3 10  1  0
  3 11  1  0
  4 12  1  0
  5 13  1  0
 13 14  1  0
 13 15  1  0
 13 16  1  0
M  RAD  1   1   2
M  END
>  <reaction>  (15) 
rxn_751

>  <mol_properties>  (15) 
{"0": {"label": "*1", "atom_type": "Cs"}, "1": {"label": "*0", "atom_type": "Cs"}, "4": {"label": "*2", "atom_type": "H0"}, "12": {"label": "*3", "atom_type": "Cs"}, "13": {"label": "*4", "atom_type": "H0"}}

>  <type>  (15) 
unop_11

>  <geom_source>  (15) 
Heuristics

$$$$

     RDKit          3D

 16 14  0  0  0  0  0  0  0  0999 V2000
    0.6738    0.7312    0.7062 C   0  0  0  0  0  3  0  0  0  0  0  0
    0.6738   -0.6769    0.1306 C   0  0  0  0  0  0  0  0  0  0  0  0
    0.6738   -0.6769   -1.3906 C   0  0  0  0  0  0  0  0  0  0  0  0
   -0.4083   -1.4396    0.6428 O   0  0  0  0  0  0  0  0  0  0  0  0
   -0.3876    1.3917    0.3037 H   0  0  0  0  0  0  0  0  0  0  0  0
    1.5554    1.2875    0.3818 H   0  0  0  0  0  0  0  0  0  0  0  0
    0.6645    0.6968    1.7957 H   0  0  0  0  0  0  0  0  0  0  0  0
    1.5638   -1.2032    0.4840 H   0  0  0  0  0  0  0  0  0  0  0  0
    1.5554   -0.1662   -1.7828 H   0  0  0  0  0  0  0  0  0  0  0  0
    0.6645   -1.6985   -1.7710 H   0  0  0  0  0  0  0  0  0  0  0  0
   -0.2107   -0.1582   -1.7732 H   0  0  0  0  0  0  0  0  0  0  0  0
   -1.2271   -1.0239    0.3636 H   0  0  0  0  0  0  0  0  0  0  0  0
   -1.4437    2.0488   -0.0967 C   0  0  0  0  0  0  0  0  0  0  0  0
   -2.0467    1.4097   -0.7399 H   0  0  0  0  0  0  0  0  0  0  0  0
   -1.1325    2.9324   -0.6519 H   0  0  0  0  0  0  0  0  0  0  0  0
   -1.3984    2.3989    0.9334 H   0  0  0  0  0  0  0  0  0  0  0  0
  1  2  1  0
  1  6  1  0
  1  7  1  0
  2  3  1  0
  2  4  1  0
  2  8  1  0
  3  9  1  0
  3 10  1  0
  3 11  1  0
  4 12  1  0
  5 13  1  0
 13 14  1  0
 13 15  1  0
 13 16  1  0
M  RAD  1   1   2
M  END
>  <reaction>  (16) 
rxn_751

>  <mol_properties>  (16) 
{"0": {"label": "*1", "atom_type": "Cs"}, "1": {"label": "*0", "atom_type": "Cs"}, "4": {"label": "*2", "atom_type": "H0"}, "12": {"label": "*3", "atom_type": "Cs"}, "13": {"label": "*4", "atom_type": "H0"}}

>  <type>  (16) 
unop_12

>  <geom_source>  (16) 
Heuristics

$$$$

     RDKit          3D

 16 14  0  0  0  0  0  0  0  0999 V2000
    0.2757    1.5455   -0.4757 O   0  0  0  0  0  0  0  0  0  0  0  0
    1.0040    0.3457   -0.5328 C   0  0  0  0  0  0  0  0  0  0  0  0
    1.7137    0.0854    0.7978 C   0  0  0  0  0  0  0  0  0  0  0  0
   -2.0949   -0.1383    0.3627 C   0  0  0  0  0  0  0  0  0  0  0  0
    0.0842   -0.8196   -0.8962 C   0  0  0  0  0  3  0  0  0  0  0  0
    1.7745    0.4449   -1.3276 H   0  0  0  0  0  0  0  0  0  0  0  0
    2.3661    0.9480    1.0506 H   0  0  0  0  0  0  0  0  0  0  0  0
    0.9735   -0.0559    1.6145 H   0  0  0  0  0  0  0  0  0  0  0  0
    2.3468   -0.8245    0.7232 H   0  0  0  0  0  0  0  0  0  0  0  0
   -2.9089    0.4295   -0.1330 H   0  0  0  0  0  0  0  0  0  0  0  0
   -2.5097   -1.0649    0.8101 H   0  0  0  0  0  0  0  0  0  0  0  0
   -1.6407    0.4858    1.1595 H   0  0  0  0  0  0  0  0  0  0  0  0
   -1.1862   -0.4497   -0.5153 H   0  0  0  0  0  0  0  0  0  0  0  0
   -0.4392   -0.6097   -1.8529 H   0  0  0  0  0  0  0  0  0  0  0  0
    0.6686   -1.7585   -1.0023 H   0  0  0  0  0  0  0  0  0  0  0  0
   -0.4278    1.4363    0.2174 H   0  0  0  0  0  0  0  0  0  0  0  0
  1  2  1  0
  1 16  1  0
  2  5  1  0
  2  3  1  0
  2  6  1  0
  3  7  1  0
  3  8  1  0
  3  9  1  0
  4 10  1  0
  4 11  1  0
  4 12  1  0
  4 13  1  0
  5 14  1  0
  5 15  1  0
M  RAD  1   5   2
M  END
>  <reaction>  (17) 
rxn_751

>  <mol_properties>  (17) 
{"0": {"label": "*1", "atom_type": "Cs"}, "1": {"label": "*0", "atom_type": "Cs"}, "4": {"label": "*2", "atom_type": "H0"}, "12": {"label": "*3", "atom_type": "Cs"}, "13": {"label": "*4", "atom_type": "H0"}}

>  <type>  (17) 
unop_13

>  <geom_source>  (17) 
AutoTST

$$$$
