
     RDKit          3D

  9  8  0  0  0  0  0  0  0  0999 V2000
    1.1303   -0.2933   -0.7510 C   0  0  0  0  0  0  0  0  0  0  0  0
    0.2866    0.4560   -0.0588 C   0  0  0  0  0  0  0  0  0  0  0  0
   -0.9719   -0.0331    0.5823 C   0  0  0  0  0  0  0  0  0  0  0  0
    2.0274    0.1230   -1.1916 H   0  0  0  0  0  0  0  0  0  0  0  0
    0.9532   -1.3530   -0.9023 H   0  0  0  0  0  0  0  0  0  0  0  0
    0.5065    1.5132    0.0659 H   0  0  0  0  0  0  0  0  0  0  0  0
   -0.9526    0.1426    1.6610 H   0  0  0  0  0  0  0  0  0  0  0  0
   -1.1182   -1.1002    0.4106 H   0  0  0  0  0  0  0  0  0  0  0  0
   -1.8412    0.5010    0.1901 H   0  0  0  0  0  0  0  0  0  0  0  0
  1  2  2  3
  1  4  1  0
  1  5  1  0
  2  3  1  0
  2  6  1  0
  3  7  1  0
  3  8  1  0
  3  9  1  0
M  END
>  <reaction>  (1) 
rxn_1012

>  <mol_properties>  (1) 
{"2": {"label": "donator", "atom_type": "Cs"}, "6": {"label": "d_hydrogen", "atom_type": "H0"}}

>  <type>  (1) 
r1h

$$$$

     RDKit          3D

  5  4  0  0  0  0  0  0  0  0999 V2000
    0.0397    0.7134    0.0000 C   0  0  0  0  0  3  0  0  0  0  0  0
    0.0458   -0.5870    0.0000 C   0  0  0  0  0  0  0  0  0  0  0  0
   -0.6871    1.5118    0.0000 H   0  0  0  0  0  0  0  0  0  0  0  0
   -0.8806   -1.1637    0.0000 H   0  0  0  0  0  0  0  0  0  0  0  0
    0.9690   -1.1600    0.0000 H   0  0  0  0  0  0  0  0  0  0  0  0
  1  2  2  3
  1  3  1  0
  2  4  1  0
  2  5  1  0
M  RAD  1   1   2
M  END
>  <reaction>  (2) 
rxn_1012

>  <mol_properties>  (2) 
{"0": {"label": "acceptor", "atom_type": "Cd"}}

>  <type>  (2) 
r2

$$$$

     RDKit          3D

  6  5  0  0  0  0  0  0  0  0999 V2000
    0.6594    0.0438   -0.0050 C   0  0  0  0  0  0  0  0  0  0  0  0
   -0.6594   -0.0438    0.0050 C   0  0  0  0  0  0  0  0  0  0  0  0
    1.1706    0.8681   -0.4881 H   0  0  0  0  0  0  0  0  0  0  0  0
    1.2824   -0.7051    0.4696 H   0  0  0  0  0  0  0  0  0  0  0  0
   -1.2824    0.7051   -0.4696 H   0  0  0  0  0  0  0  0  0  0  0  0
   -1.1706   -0.8681    0.4881 H   0  0  0  0  0  0  0  0  0  0  0  0
  1  2  2  3
  1  3  1  0
  1  4  1  0
  2  5  1  0
  2  6  1  0
M  END
>  <reaction>  (3) 
rxn_1012

>  <mol_properties>  (3) 
{"0": {"label": "acceptor", "atom_type": "Cd"}, "5": {"label": "a_hydrogen", "atom_type": "H0"}}

>  <type>  (3) 
r2h

$$$$

     RDKit          3D

 14 12  0  0  0  0  0  0  0  0999 V2000
   -0.9840    0.6520    1.6406 C   0  0  0  0  0  3  0  0  0  0  0  0
   -1.8272   -0.2555    1.2161 C   0  0  0  0  0  0  0  0  0  0  0  0
   -1.0444    1.3228    2.4887 H   0  0  0  0  0  0  0  0  0  0  0  0
   -2.7707   -0.4519    1.7216 H   0  0  0  0  0  0  0  0  0  0  0  0
   -1.6122   -0.8505    0.3320 H   0  0  0  0  0  0  0  0  0  0  0  0
    0.5752   -0.6353   -1.9956 C   0  0  0  0  0  0  0  0  0  0  0  0
    1.0823   -0.5176   -0.7701 C   0  0  0  0  0  0  0  0  0  0  0  0
    1.1634    0.7356   -0.0093 C   0  0  0  0  0  0  0  0  0  0  0  0
    0.5164   -1.5946   -2.4937 H   0  0  0  0  0  0  0  0  0  0  0  0
    0.2102    0.2284   -2.5407 H   0  0  0  0  0  0  0  0  0  0  0  0
    1.4329   -1.4128   -0.2637 H   0  0  0  0  0  0  0  0  0  0  0  0
    0.2272    0.7487    0.8046 H   0  0  0  0  0  0  0  0  0  0  0  0
    1.0110    1.6318   -0.6091 H   0  0  0  0  0  0  0  0  0  0  0  0
    2.0458    0.8213    0.6232 H   0  0  0  0  0  0  0  0  0  0  0  0
  1  2  2  3
  1  3  1  0
  2  4  1  0
  2  5  1  0
  6  7  2  3
  6  9  1  0
  6 10  1  0
  7  8  1  0
  7 11  1  0
  8 12  1  0
  8 13  1  0
  8 14  1  0
M  RAD  1   1   2
M  END
>  <reaction>  (4) 
rxn_1012

>  <mol_properties>  (4) 
{"0": {"label": "*3", "atom_type": "Cd"}, "1": {"label": "*4", "atom_type": "Cd"}, "6": {"label": "*0", "atom_type": "Cd"}, "7": {"label": "*1", "atom_type": "Cs"}, "11": {"label": "*2", "atom_type": "H0"}}

>  <type>  (4) 
ts

$$$$

     RDKit          3D

 14 12  0  0  0  0  0  0  0  0999 V2000
   -1.2888    0.4897    1.2732 C   0  0  0  0  0  0  0  0  0  0  0  0
   -1.1749    0.5074    2.5899 C   0  0  0  0  0  0  0  0  0  0  0  0
   -1.9737    1.1489    0.7531 H   0  0  0  0  0  0  0  0  0  0  0  0
   -1.7618    1.1818    3.2022 H   0  0  0  0  0  0  0  0  0  0  0  0
   -0.4900   -0.1518    3.1101 H   0  0  0  0  0  0  0  0  0  0  0  0
    0.8086   -0.7734   -2.4672 C   0  0  0  0  0  0  0  0  0  0  0  0
    0.8086   -0.7734   -1.1434 C   0  0  0  0  0  0  0  0  0  0  0  0
    0.8086    0.4488   -0.2829 C   0  0  0  0  0  3  0  0  0  0  0  0
    0.8086   -1.6961   -3.0337 H   0  0  0  0  0  0  0  0  0  0  0  0
    0.8086    0.1522   -3.0332 H   0  0  0  0  0  0  0  0  0  0  0  0
    0.8086   -1.7261   -0.6199 H   0  0  0  0  0  0  0  0  0  0  0  0
   -0.2446    0.4693    0.4985 H   0  0  0  0  0  0  0  0  0  0  0  0
    0.8086    1.3592   -0.8835 H   0  0  0  0  0  0  0  0  0  0  0  0
    1.6863    0.4659    0.3683 H   0  0  0  0  0  0  0  0  0  0  0  0
  1  2  2  3
  1  3  1  0
  1 12  1  0
  2  4  1  0
  2  5  1  0
  6  7  2  3
  6  9  1  0
  6 10  1  0
  7  8  1  0
  7 11  1  0
  8 13  1  0
  8 14  1  0
M  RAD  1   8   2
M  END
>  <reaction>  (5) 
rxn_1012

>  <mol_properties>  (5) 
{"0": {"label": "*3", "atom_type": "Cd"}, "1": {"label": "*4", "atom_type": "Cd"}, "6": {"label": "*0", "atom_type": "Cd"}, "7": {"label": "*1", "atom_type": "Cs"}, "11": {"label": "*2", "atom_type": "H0"}}

>  <type>  (5) 
unop_1

>  <geom_source>  (5) 
Heuristics

$$$$

     RDKit          3D

 14 12  0  0  0  0  0  0  0  0999 V2000
   -1.1494    0.7293    1.4499 C   0  0  0  0  0  0  0  0  0  0  0  0
   -1.7162   -0.3850    1.8790 C   0  0  0  0  0  0  0  0  0  0  0  0
   -1.3346    1.6827    1.9305 H   0  0  0  0  0  0  0  0  0  0  0  0
   -2.3888   -0.3900    2.7285 H   0  0  0  0  0  0  0  0  0  0  0  0
   -1.5310   -1.3384    1.3984 H   0  0  0  0  0  0  0  0  0  0  0  0
    0.9480   -0.5338   -2.2905 C   0  0  0  0  0  0  0  0  0  0  0  0
    0.9480   -0.5338   -0.9668 C   0  0  0  0  0  0  0  0  0  0  0  0
    0.9480    0.6884   -0.1063 C   0  0  0  0  0  3  0  0  0  0  0  0
    0.9480   -1.4565   -2.8570 H   0  0  0  0  0  0  0  0  0  0  0  0
    0.9480    0.3918   -2.8565 H   0  0  0  0  0  0  0  0  0  0  0  0
    0.9480   -1.4864   -0.4433 H   0  0  0  0  0  0  0  0  0  0  0  0
   -0.1053    0.7089    0.6752 H   0  0  0  0  0  0  0  0  0  0  0  0
    0.9480    1.5988   -0.7069 H   0  0  0  0  0  0  0  0  0  0  0  0
    1.8257    0.7055    0.5449 H   0  0  0  0  0  0  0  0  0  0  0  0
  1  2  2  3
  1  3  1  0
  1 12  1  0
  2  4  1  0
  2  5  1  0
  6  7  2  3
  6  9  1  0
  6 10  1  0
  7  8  1  0
  7 11  1  0
  8 13  1  0
  8 14  1  0
M  RAD  1   8   2
M  END
>  <reaction>  (6) 
rxn_1012

>  <mol_properties>  (6) 
{"0": {"label": "*3", "atom_type": "Cd"}, "1": {"label": "*4", "atom_type": "Cd"}, "6": {"label": "*0", "atom_type": "Cd"}, "7": {"label": "*1", "atom_type": "Cs"}, "11": {"label": "*2", "atom_type": "H0"}}

>  <type>  (6) 
unop_2

>  <geom_source>  (6) 
Heuristics

$$$$

     RDKit          3D

 14 12  0  0  0  0  0  0  0  0999 V2000
   -1.2677    0.3775    1.3027 C   0  0  0  0  0  0  0  0  0  0  0  0
   -1.2387    0.9569    2.4904 C   0  0  0  0  0  0  0  0  0  0  0  0
   -2.1438    0.4281    0.6670 H   0  0  0  0  0  0  0  0  0  0  0  0
   -2.0897    1.5057    2.8760 H   0  0  0  0  0  0  0  0  0  0  0  0
   -0.3626    0.9063    3.1261 H   0  0  0  0  0  0  0  0  0  0  0  0
    0.8297   -0.8856   -2.4377 C   0  0  0  0  0  0  0  0  0  0  0  0
    0.8297   -0.8856   -1.1139 C   0  0  0  0  0  0  0  0  0  0  0  0
    0.8297    0.3366   -0.2534 C   0  0  0  0  0  3  0  0  0  0  0  0
    0.8297   -1.8083   -3.0042 H   0  0  0  0  0  0  0  0  0  0  0  0
    0.8297    0.0400   -3.0037 H   0  0  0  0  0  0  0  0  0  0  0  0
    0.8297   -1.8382   -0.5904 H   0  0  0  0  0  0  0  0  0  0  0  0
   -0.2236    0.3572    0.5280 H   0  0  0  0  0  0  0  0  0  0  0  0
    0.8297    1.2471   -0.8540 H   0  0  0  0  0  0  0  0  0  0  0  0
    1.7074    0.3537    0.3978 H   0  0  0  0  0  0  0  0  0  0  0  0
  1  2  2  3
  1  3  1  0
  1 12  1  0
  2  4  1  0
  2  5  1  0
  6  7  2  3
  6  9  1  0
  6 10  1  0
  7  8  1  0
  7 11  1  0
  8 13  1  0
  8 14  1  0
M  RAD  1   8   2
M  END
>  <reaction>  (7) 
rxn_1012

>  <mol_properties>  (7) 
{"0": {"label": "*3", "atom_type": "Cd"}, "1": {"label": "*4", "atom_type": "Cd"}, "6": {"label": "*0", "atom_type": "Cd"}, "7": {"label": "*1", "atom_type": "Cs"}, "11": {"label": "*2", "atom_type": "H0"}}

>  <type>  (7) 
unop_3

>  <geom_source>  (7) 
Heuristics

$$$$

     RDKit          3D

 14 12  0  0  0  0  0  0  0  0999 V2000
   -1.0134    0.4949    1.6415 C   0  0  0  0  0  0  0  0  0  0  0  0
   -2.2406    0.4989    1.1509 C   0  0  0  0  0  0  0  0  0  0  0  0
   -0.7705    0.9991    2.5694 H   0  0  0  0  0  0  0  0  0  0  0  0
   -3.0534    1.0065    1.6569 H   0  0  0  0  0  0  0  0  0  0  0  0
   -2.4835   -0.0053    0.2230 H   0  0  0  0  0  0  0  0  0  0  0  0
    1.0841   -0.7682   -2.0989 C   0  0  0  0  0  0  0  0  0  0  0  0
    1.0841   -0.7682   -0.7752 C   0  0  0  0  0  0  0  0  0  0  0  0
    1.0841    0.4540    0.0854 C   0  0  0  0  0  3  0  0  0  0  0  0
    1.0841   -1.6909   -2.6654 H   0  0  0  0  0  0  0  0  0  0  0  0
    1.0841    0.1574   -2.6649 H   0  0  0  0  0  0  0  0  0  0  0  0
    1.0841   -1.7208   -0.2516 H   0  0  0  0  0  0  0  0  0  0  0  0
    0.0308    0.4745    0.8668 H   0  0  0  0  0  0  0  0  0  0  0  0
    1.0841    1.3644   -0.5152 H   0  0  0  0  0  0  0  0  0  0  0  0
    1.9618    0.4711    0.7366 H   0  0  0  0  0  0  0  0  0  0  0  0
  1  2  2  3
  1  3  1  0
  1 12  1  0
  2  4  1  0
  2  5  1  0
  6  7  2  3
  6  9  1  0
  6 10  1  0
  7  8  1  0
  7 11  1  0
  8 13  1  0
  8 14  1  0
M  RAD  1   8   2
M  END
>  <reaction>  (8) 
rxn_1012

>  <mol_properties>  (8) 
{"0": {"label": "*3", "atom_type": "Cd"}, "1": {"label": "*4", "atom_type": "Cd"}, "6": {"label": "*0", "atom_type": "Cd"}, "7": {"label": "*1", "atom_type": "Cs"}, "11": {"label": "*2", "atom_type": "H0"}}

>  <type>  (8) 
unop_4

>  <geom_source>  (8) 
Heuristics

$$$$

     RDKit          3D

 14 12  0  0  0  0  0  0  0  0999 V2000
   -1.2184    0.3022    1.3673 C   0  0  0  0  0  0  0  0  0  0  0  0
   -1.4311    1.2909    2.2183 C   0  0  0  0  0  0  0  0  0  0  0  0
   -1.9056   -0.5312    1.2809 H   0  0  0  0  0  0  0  0  0  0  0  0
   -2.3012    1.3079    2.8639 H   0  0  0  0  0  0  0  0  0  0  0  0
   -0.7439    2.1243    2.3046 H   0  0  0  0  0  0  0  0  0  0  0  0
    0.8790   -0.9609   -2.3732 C   0  0  0  0  0  0  0  0  0  0  0  0
    0.8790   -0.9609   -1.0494 C   0  0  0  0  0  0  0  0  0  0  0  0
    0.8790    0.2613   -0.1889 C   0  0  0  0  0  3  0  0  0  0  0  0
    0.8790   -1.8836   -2.9397 H   0  0  0  0  0  0  0  0  0  0  0  0
    0.8790   -0.0353   -2.9392 H   0  0  0  0  0  0  0  0  0  0  0  0
    0.8790   -1.9135   -0.5259 H   0  0  0  0  0  0  0  0  0  0  0  0
   -0.1742    0.2819    0.5925 H   0  0  0  0  0  0  0  0  0  0  0  0
    0.8790    1.1718   -0.7895 H   0  0  0  0  0  0  0  0  0  0  0  0
    1.7567    0.2784    0.4623 H   0  0  0  0  0  0  0  0  0  0  0  0
  1  2  2  3
  1  3  1  0
  1 12  1  0
  2  4  1  0
  2  5  1  0
  6  7  2  3
  6  9  1  0
  6 10  1  0
  7  8  1  0
  7 11  1  0
  8 13  1  0
  8 14  1  0
M  RAD  1   8   2
M  END
>  <reaction>  (9) 
rxn_1012

>  <mol_properties>  (9) 
{"0": {"label": "*3", "atom_type": "Cd"}, "1": {"label": "*4", "atom_type": "Cd"}, "6": {"label": "*0", "atom_type": "Cd"}, "7": {"label": "*1", "atom_type": "Cs"}, "11": {"label": "*2", "atom_type": "H0"}}

>  <type>  (9) 
unop_5

>  <geom_source>  (9) 
Heuristics

$$$$

     RDKit          3D

 14 12  0  0  0  0  0  0  0  0999 V2000
   -1.0360    0.3790    1.6161 C   0  0  0  0  0  0  0  0  0  0  0  0
   -2.1684    0.9465    1.2385 C   0  0  0  0  0  0  0  0  0  0  0  0
   -0.6443    0.5038    2.6187 H   0  0  0  0  0  0  0  0  0  0  0  0
   -2.7507    1.5594    1.9164 H   0  0  0  0  0  0  0  0  0  0  0  0
   -2.5601    0.8217    0.2359 H   0  0  0  0  0  0  0  0  0  0  0  0
    1.0615   -0.8841   -2.1244 C   0  0  0  0  0  0  0  0  0  0  0  0
    1.0615   -0.8841   -0.8006 C   0  0  0  0  0  0  0  0  0  0  0  0
    1.0615    0.3381    0.0599 C   0  0  0  0  0  3  0  0  0  0  0  0
    1.0615   -1.8068   -2.6908 H   0  0  0  0  0  0  0  0  0  0  0  0
    1.0615    0.0415   -2.6904 H   0  0  0  0  0  0  0  0  0  0  0  0
    1.0615   -1.8367   -0.2771 H   0  0  0  0  0  0  0  0  0  0  0  0
    0.0082    0.3586    0.8414 H   0  0  0  0  0  0  0  0  0  0  0  0
    1.0615    1.2485   -0.5407 H   0  0  0  0  0  0  0  0  0  0  0  0
    1.9392    0.3552    0.7111 H   0  0  0  0  0  0  0  0  0  0  0  0
  1  2  2  3
  1  3  1  0
  1 12  1  0
  2  4  1  0
  2  5  1  0
  6  7  2  3
  6  9  1  0
  6 10  1  0
  7  8  1  0
  7 11  1  0
  8 13  1  0
  8 14  1  0
M  RAD  1   8   2
M  END
>  <reaction>  (10) 
rxn_1012

>  <mol_properties>  (10) 
{"0": {"label": "*3", "atom_type": "Cd"}, "1": {"label": "*4", "atom_type": "Cd"}, "6": {"label": "*0", "atom_type": "Cd"}, "7": {"label": "*1", "atom_type": "Cs"}, "11": {"label": "*2", "atom_type": "H0"}}

>  <type>  (10) 
unop_6

>  <geom_source>  (10) 
Heuristics

$$$$

     RDKit          3D

 14 12  0  0  0  0  0  0  0  0999 V2000
   -1.0895    0.2970    1.5469 C   0  0  0  0  0  0  0  0  0  0  0  0
   -1.9728    1.2788    1.4943 C   0  0  0  0  0  0  0  0  0  0  0  0
   -0.7083   -0.0746    2.4908 H   0  0  0  0  0  0  0  0  0  0  0  0
   -2.3512    1.7517    2.3928 H   0  0  0  0  0  0  0  0  0  0  0  0
   -2.3540    1.6504    0.5505 H   0  0  0  0  0  0  0  0  0  0  0  0
    1.0079   -0.9661   -2.1935 C   0  0  0  0  0  0  0  0  0  0  0  0
    1.0079   -0.9661   -0.8698 C   0  0  0  0  0  0  0  0  0  0  0  0
    1.0079    0.2561   -0.0092 C   0  0  0  0  0  3  0  0  0  0  0  0
    1.0079   -1.8888   -2.7600 H   0  0  0  0  0  0  0  0  0  0  0  0
    1.0079   -0.0405   -2.7595 H   0  0  0  0  0  0  0  0  0  0  0  0
    1.0079   -1.9187   -0.3462 H   0  0  0  0  0  0  0  0  0  0  0  0
   -0.0453    0.2766    0.7722 H   0  0  0  0  0  0  0  0  0  0  0  0
    1.0079    1.1665   -0.6098 H   0  0  0  0  0  0  0  0  0  0  0  0
    1.8856    0.2732    0.6420 H   0  0  0  0  0  0  0  0  0  0  0  0
  1  2  2  3
  1  3  1  0
  1 12  1  0
  2  4  1  0
  2  5  1  0
  6  7  2  3
  6  9  1  0
  6 10  1  0
  7  8  1  0
  7 11  1  0
  8 13  1  0
  8 14  1  0
M  RAD  1   8   2
M  END
>  <reaction>  (11) 
rxn_1012

>  <mol_properties>  (11) 
{"0": {"label": "*3", "atom_type": "Cd"}, "1": {"label": "*4", "atom_type": "Cd"}, "6": {"label": "*0", "atom_type": "Cd"}, "7": {"label": "*1", "atom_type": "Cs"}, "11": {"label": "*2", "atom_type": "H0"}}

>  <type>  (11) 
unop_7

>  <geom_source>  (11) 
Heuristics

$$$$

     RDKit          3D

 14 12  0  0  0  0  0  0  0  0999 V2000
   -1.2715    0.6067    1.2927 C   0  0  0  0  0  0  0  0  0  0  0  0
   -1.2525    0.0609    2.4963 C   0  0  0  0  0  0  0  0  0  0  0  0
   -1.7424    1.5655    1.1107 H   0  0  0  0  0  0  0  0  0  0  0  0
   -1.7070    0.5503    3.3496 H   0  0  0  0  0  0  0  0  0  0  0  0
   -0.7816   -0.8979    2.6782 H   0  0  0  0  0  0  0  0  0  0  0  0
    0.8259   -0.6564   -2.4478 C   0  0  0  0  0  0  0  0  0  0  0  0
    0.8259   -0.6564   -1.1240 C   0  0  0  0  0  0  0  0  0  0  0  0
    0.8259    0.5658   -0.2635 C   0  0  0  0  0  3  0  0  0  0  0  0
    0.8259   -1.5791   -3.0143 H   0  0  0  0  0  0  0  0  0  0  0  0
    0.8259    0.2692   -3.0138 H   0  0  0  0  0  0  0  0  0  0  0  0
    0.8259   -1.6090   -0.6005 H   0  0  0  0  0  0  0  0  0  0  0  0
   -0.2273    0.5863    0.5180 H   0  0  0  0  0  0  0  0  0  0  0  0
    0.8259    1.4762   -0.8641 H   0  0  0  0  0  0  0  0  0  0  0  0
    1.7037    0.5829    0.3877 H   0  0  0  0  0  0  0  0  0  0  0  0
  1  2  2  3
  1  3  1  0
  1 12  1  0
  2  4  1  0
  2  5  1  0
  6  7  2  3
  6  9  1  0
  6 10  1  0
  7  8  1  0
  7 11  1  0
  8 13  1  0
  8 14  1  0
M  RAD  1   8   2
M  END
>  <reaction>  (12) 
rxn_1012

>  <mol_properties>  (12) 
{"0": {"label": "*3", "atom_type": "Cd"}, "1": {"label": "*4", "atom_type": "Cd"}, "6": {"label": "*0", "atom_type": "Cd"}, "7": {"label": "*1", "atom_type": "Cs"}, "11": {"label": "*2", "atom_type": "H0"}}

>  <type>  (12) 
unop_8

>  <geom_source>  (12) 
Heuristics

$$$$

     RDKit          3D

 14 12  0  0  0  0  0  0  0  0999 V2000
   -1.0288    0.6126    1.6156 C   0  0  0  0  0  0  0  0  0  0  0  0
   -2.1713    0.0550    1.2540 C   0  0  0  0  0  0  0  0  0  0  0  0
   -0.9799    1.3398    2.4175 H   0  0  0  0  0  0  0  0  0  0  0  0
   -3.1050    0.3025    1.7450 H   0  0  0  0  0  0  0  0  0  0  0  0
   -2.2202   -0.6722    0.4521 H   0  0  0  0  0  0  0  0  0  0  0  0
    1.0686   -0.6504   -2.1249 C   0  0  0  0  0  0  0  0  0  0  0  0
    1.0686   -0.6504   -0.8011 C   0  0  0  0  0  0  0  0  0  0  0  0
    1.0686    0.5717    0.0594 C   0  0  0  0  0  3  0  0  0  0  0  0
    1.0686   -1.5732   -2.6914 H   0  0  0  0  0  0  0  0  0  0  0  0
    1.0686    0.2752   -2.6909 H   0  0  0  0  0  0  0  0  0  0  0  0
    1.0686   -1.6031   -0.2776 H   0  0  0  0  0  0  0  0  0  0  0  0
    0.0154    0.5923    0.8408 H   0  0  0  0  0  0  0  0  0  0  0  0
    1.0686    1.4822   -0.5412 H   0  0  0  0  0  0  0  0  0  0  0  0
    1.9463    0.5889    0.7106 H   0  0  0  0  0  0  0  0  0  0  0  0
  1  2  2  3
  1  3  1  0
  1 12  1  0
  2  4  1  0
  2  5  1  0
  6  7  2  3
  6  9  1  0
  6 10  1  0
  7  8  1  0
  7 11  1  0
  8 13  1  0
  8 14  1  0
M  RAD  1   8   2
M  END
>  <reaction>  (13) 
rxn_1012

>  <mol_properties>  (13) 
{"0": {"label": "*3", "atom_type": "Cd"}, "1": {"label": "*4", "atom_type": "Cd"}, "6": {"label": "*0", "atom_type": "Cd"}, "7": {"label": "*1", "atom_type": "Cs"}, "11": {"label": "*2", "atom_type": "H0"}}

>  <type>  (13) 
unop_9

>  <geom_source>  (13) 
Heuristics

$$$$

     RDKit          3D

 14 12  0  0  0  0  0  0  0  0999 V2000
   -1.2203    0.6950    1.3573 C   0  0  0  0  0  0  0  0  0  0  0  0
   -1.4505   -0.2651    2.2360 C   0  0  0  0  0  0  0  0  0  0  0  0
   -1.5165    1.7203    1.5451 H   0  0  0  0  0  0  0  0  0  0  0  0
   -1.9445   -0.0656    3.1796 H   0  0  0  0  0  0  0  0  0  0  0  0
   -1.1544   -1.2904    2.0482 H   0  0  0  0  0  0  0  0  0  0  0  0
    0.8771   -0.5681   -2.3832 C   0  0  0  0  0  0  0  0  0  0  0  0
    0.8771   -0.5681   -1.0594 C   0  0  0  0  0  0  0  0  0  0  0  0
    0.8771    0.6541   -0.1989 C   0  0  0  0  0  3  0  0  0  0  0  0
    0.8771   -1.4908   -2.9496 H   0  0  0  0  0  0  0  0  0  0  0  0
    0.8771    0.3575   -2.9492 H   0  0  0  0  0  0  0  0  0  0  0  0
    0.8771   -1.5207   -0.5359 H   0  0  0  0  0  0  0  0  0  0  0  0
   -0.1762    0.6746    0.5826 H   0  0  0  0  0  0  0  0  0  0  0  0
    0.8771    1.5646   -0.7995 H   0  0  0  0  0  0  0  0  0  0  0  0
    1.7548    0.6712    0.4523 H   0  0  0  0  0  0  0  0  0  0  0  0
  1  2  2  3
  1  3  1  0
  1 12  1  0
  2  4  1  0
  2  5  1  0
  6  7  2  3
  6  9  1  0
  6 10  1  0
  7  8  1  0
  7 11  1  0
  8 13  1  0
  8 14  1  0
M  RAD  1   8   2
M  END
>  <reaction>  (14) 
rxn_1012

>  <mol_properties>  (14) 
{"0": {"label": "*3", "atom_type": "Cd"}, "1": {"label": "*4", "atom_type": "Cd"}, "6": {"label": "*0", "atom_type": "Cd"}, "7": {"label": "*1", "atom_type": "Cs"}, "11": {"label": "*2", "atom_type": "H0"}}

>  <type>  (14) 
unop_10

>  <geom_source>  (14) 
Heuristics

$$$$

     RDKit          3D

 14 12  0  0  0  0  0  0  0  0999 V2000
   -1.1574    0.2709    1.4542 C   0  0  0  0  0  0  0  0  0  0  0  0
   -1.7041    1.4069    1.8513 C   0  0  0  0  0  0  0  0  0  0  0  0
   -1.0922   -0.5886    2.1109 H   0  0  0  0  0  0  0  0  0  0  0  0
   -2.1090    1.5244    2.8495 H   0  0  0  0  0  0  0  0  0  0  0  0
   -1.7692    2.2663    1.1945 H   0  0  0  0  0  0  0  0  0  0  0  0
    0.9400   -0.9922   -2.2862 C   0  0  0  0  0  0  0  0  0  0  0  0
    0.9400   -0.9922   -0.9625 C   0  0  0  0  0  0  0  0  0  0  0  0
    0.9400    0.2300   -0.1019 C   0  0  0  0  0  3  0  0  0  0  0  0
    0.9400   -1.9149   -2.8527 H   0  0  0  0  0  0  0  0  0  0  0  0
    0.9400   -0.0666   -2.8522 H   0  0  0  0  0  0  0  0  0  0  0  0
    0.9400   -1.9448   -0.4389 H   0  0  0  0  0  0  0  0  0  0  0  0
   -0.1133    0.2505    0.6795 H   0  0  0  0  0  0  0  0  0  0  0  0
    0.9400    1.1404   -0.7025 H   0  0  0  0  0  0  0  0  0  0  0  0
    1.8177    0.2471    0.5493 H   0  0  0  0  0  0  0  0  0  0  0  0
  1  2  2  3
  1  3  1  0
  1 12  1  0
  2  4  1  0
  2  5  1  0
  6  7  2  3
  6  9  1  0
  6 10  1  0
  7  8  1  0
  7 11  1  0
  8 13  1  0
  8 14  1  0
M  RAD  1   8   2
M  END
>  <reaction>  (15) 
rxn_1012

>  <mol_properties>  (15) 
{"0": {"label": "*3", "atom_type": "Cd"}, "1": {"label": "*4", "atom_type": "Cd"}, "6": {"label": "*0", "atom_type": "Cd"}, "7": {"label": "*1", "atom_type": "Cs"}, "11": {"label": "*2", "atom_type": "H0"}}

>  <type>  (15) 
unop_11

>  <geom_source>  (15) 
Heuristics

$$$$

     RDKit          3D

 14 12  0  0  0  0  0  0  0  0999 V2000
   -1.0788    0.6991    1.5450 C   0  0  0  0  0  0  0  0  0  0  0  0
   -1.9795   -0.2679    1.5201 C   0  0  0  0  0  0  0  0  0  0  0  0
   -1.1742    1.5477    2.2120 H   0  0  0  0  0  0  0  0  0  0  0  0
   -2.8496   -0.2509    2.1657 H   0  0  0  0  0  0  0  0  0  0  0  0
   -1.8840   -1.1166    0.8531 H   0  0  0  0  0  0  0  0  0  0  0  0
    1.0186   -0.5640   -2.1954 C   0  0  0  0  0  0  0  0  0  0  0  0
    1.0186   -0.5640   -0.8717 C   0  0  0  0  0  0  0  0  0  0  0  0
    1.0186    0.6582   -0.0112 C   0  0  0  0  0  3  0  0  0  0  0  0
    1.0186   -1.4867   -2.7619 H   0  0  0  0  0  0  0  0  0  0  0  0
    1.0186    0.3616   -2.7615 H   0  0  0  0  0  0  0  0  0  0  0  0
    1.0186   -1.5166   -0.3482 H   0  0  0  0  0  0  0  0  0  0  0  0
   -0.0346    0.6787    0.7703 H   0  0  0  0  0  0  0  0  0  0  0  0
    1.0186    1.5686   -0.6118 H   0  0  0  0  0  0  0  0  0  0  0  0
    1.8963    0.6753    0.6400 H   0  0  0  0  0  0  0  0  0  0  0  0
  1  2  2  3
  1  3  1  0
  1 12  1  0
  2  4  1  0
  2  5  1  0
  6  7  2  3
  6  9  1  0
  6 10  1  0
  7  8  1  0
  7 11  1  0
  8 13  1  0
  8 14  1  0
M  RAD  1   8   2
M  END
>  <reaction>  (16) 
rxn_1012

>  <mol_properties>  (16) 
{"0": {"label": "*3", "atom_type": "Cd"}, "1": {"label": "*4", "atom_type": "Cd"}, "6": {"label": "*0", "atom_type": "Cd"}, "7": {"label": "*1", "atom_type": "Cs"}, "11": {"label": "*2", "atom_type": "H0"}}

>  <type>  (16) 
unop_12

>  <geom_source>  (16) 
Heuristics

$$$$

     RDKit          3D

 14 12  0  0  0  0  0  0  0  0999 V2000
   -1.8514   -0.0357   -0.5547 C   0  0  0  0  0  0  0  0  0  0  0  0
   -0.5324    0.1113    0.1341 C   0  0  0  0  0  0  0  0  0  0  0  0
   -2.9870   -0.1397    0.1390 C   0  0  0  0  0  3  0  0  0  0  0  0
    3.0470    0.3696    0.1498 C   0  0  0  0  0  0  0  0  0  0  0  0
    1.9973   -0.3140   -0.2989 C   0  0  0  0  0  0  0  0  0  0  0  0
   -1.8792   -0.0576   -1.6392 H   0  0  0  0  0  0  0  0  0  0  0  0
    2.9202    1.3819    0.5187 H   0  0  0  0  0  0  0  0  0  0  0  0
    4.0342   -0.0809    0.1493 H   0  0  0  0  0  0  0  0  0  0  0  0
    2.1212   -1.3267   -0.6684 H   0  0  0  0  0  0  0  0  0  0  0  0
    0.8969    0.1913   -0.2972 H   0  0  0  0  0  0  0  0  0  0  0  0
   -2.9813   -0.1201    1.2248 H   0  0  0  0  0  0  0  0  0  0  0  0
   -3.9334   -0.2456   -0.3813 H   0  0  0  0  0  0  0  0  0  0  0  0
   -0.3336   -0.7715    0.7779 H   0  0  0  0  0  0  0  0  0  0  0  0
   -0.5187    1.0378    0.7461 H   0  0  0  0  0  0  0  0  0  0  0  0
  1  2  2  3
  1  3  1  0
  1  6  1  0
  2 13  1  0
  2 14  1  0
  3 11  1  0
  3 12  1  0
  4  5  2  3
  4  7  1  0
  4  8  1  0
  5  9  1  0
  5 10  1  0
M  RAD  1   3   2
M  END
>  <reaction>  (17) 
rxn_1012

>  <mol_properties>  (17) 
{"0": {"label": "*3", "atom_type": "Cd"}, "1": {"label": "*4", "atom_type": "Cd"}, "6": {"label": "*0", "atom_type": "Cd"}, "7": {"label": "*1", "atom_type": "Cs"}, "11": {"label": "*2", "atom_type": "H0"}}

>  <type>  (17) 
unop_13

>  <geom_source>  (17) 
AutoTST

$$$$
