
     RDKit          3D

  4  3  0  0  0  0  0  0  0  0999 V2000
    0.5949   -0.3853    0.2659 O   0  0  0  0  0  0  0  0  0  0  0  0
   -0.5918    0.4028    0.2462 O   0  0  0  0  0  0  0  0  0  0  0  0
    1.1865    0.1539   -0.2689 H   0  0  0  0  0  0  0  0  0  0  0  0
   -1.1896   -0.1714   -0.2432 H   0  0  0  0  0  0  0  0  0  0  0  0
  1  2  1  0
  1  3  1  0
  2  4  1  0
M  END
>  <reaction>  (1) 
rxn_439

>  <mol_properties>  (1) 
{"1": {"label": "donator", "atom_type": "O2s"}, "3": {"label": "d_hydrogen", "atom_type": "H0"}}

>  <type>  (1) 
r1h

$$$$

     RDKit          3D

  6  5  0  0  0  0  0  0  0  0999 V2000
   -0.4344    0.0212    0.0006 C   0  0  0  0  0  0  0  0  0  0  0  0
    0.8754    0.5852   -0.1558 O   0  0  0  0  0  0  0  0  0  0  0  0
    1.8009   -0.3034    0.0506 O   0  0  0  0  0  1  0  0  0  0  0  0
   -0.5437   -0.3548    1.0170 H   0  0  0  0  0  0  0  0  0  0  0  0
   -1.1312    0.8347   -0.1903 H   0  0  0  0  0  0  0  0  0  0  0  0
   -0.5670   -0.7829   -0.7220 H   0  0  0  0  0  0  0  0  0  0  0  0
  1  2  1  0
  1  4  1  0
  1  5  1  0
  1  6  1  0
  2  3  1  0
M  RAD  1   3   2
M  END
>  <reaction>  (2) 
rxn_439

>  <mol_properties>  (2) 
{"2": {"label": "acceptor", "atom_type": "O2s"}}

>  <type>  (2) 
r2

$$$$

     RDKit          3D

  7  6  0  0  0  0  0  0  0  0999 V2000
   -0.7707    0.0268   -0.0047 C   0  0  0  0  0  0  0  0  0  0  0  0
    0.4327    0.7555    0.0056 O   0  0  0  0  0  0  0  0  0  0  0  0
    0.2257    1.8886    0.8427 O   0  0  0  0  0  0  0  0  0  0  0  0
   -1.5847    0.6016   -0.4574 H   0  0  0  0  0  0  0  0  0  0  0  0
   -1.0534   -0.2811    1.0050 H   0  0  0  0  0  0  0  0  0  0  0  0
   -0.5599   -0.8542   -0.6123 H   0  0  0  0  0  0  0  0  0  0  0  0
    0.2626    2.6067    0.2016 H   0  0  0  0  0  0  0  0  0  0  0  0
  1  2  1  0
  1  4  1  0
  1  5  1  0
  1  6  1  0
  2  3  1  0
  3  7  1  0
M  END
>  <reaction>  (3) 
rxn_439

>  <mol_properties>  (3) 
{"0": {"label": "a_hydrogen", "atom_type": "H0"}, "3": {"label": "acceptor", "atom_type": "O2s"}}

>  <type>  (3) 
r2h

$$$$

     RDKit          3D

 10  8  0  0  0  0  0  0  0  0999 V2000
   -0.3186   -1.6732   -0.7356 O   0  0  0  0  0  0  0  0  0  0  0  0
    0.0606   -1.5859    0.5664 O   0  0  0  0  0  1  0  0  0  0  0  0
    0.5134   -1.6226   -1.2252 H   0  0  0  0  0  0  0  0  0  0  0  0
   -0.2799   -0.4839    0.8710 H   0  0  0  0  0  0  0  0  0  0  0  0
    1.0078    1.6739   -0.4607 C   0  0  0  0  0  0  0  0  0  0  0  0
   -0.2940    1.1326   -0.2988 O   0  0  0  0  0  0  0  0  0  0  0  0
   -0.4253    0.6664    0.9659 O   0  0  0  0  0  0  0  0  0  0  0  0
    1.7596    0.8969   -0.3002 H   0  0  0  0  0  0  0  0  0  0  0  0
    1.0471    2.0410   -1.4853 H   0  0  0  0  0  0  0  0  0  0  0  0
    1.1658    2.4904    0.2449 H   0  0  0  0  0  0  0  0  0  0  0  0
  1  2  1  0
  1  3  1  0
  4  7  1  0
  5  6  1  0
  5  8  1  0
  5  9  1  0
  5 10  1  0
  6  7  1  0
M  RAD  1   2   2
M  END
>  <reaction>  (4) 
rxn_439

>  <mol_properties>  (4) 
{"0": {"label": "*4", "atom_type": "O2s"}, "1": {"label": "*3", "atom_type": "O2s"}, "3": {"label": "*2", "atom_type": "H0"}, "5": {"label": "*0", "atom_type": "O2s"}, "6": {"label": "*1", "atom_type": "O2s"}}

>  <type>  (4) 
ts

$$$$

     RDKit          3D

 10  8  0  0  0  0  0  0  0  0999 V2000
    0.5425   -1.6338   -1.6301 O   0  0  0  0  0  0  0  0  0  0  0  0
    0.5425   -1.6338   -0.2055 O   0  0  0  0  0  0  0  0  0  0  0  0
    1.4033   -2.0221   -1.8172 H   0  0  0  0  0  0  0  0  0  0  0  0
    0.5425   -0.5007    0.0190 H   0  0  0  0  0  0  0  0  0  0  0  0
   -1.1262    2.0855    0.7764 C   0  0  0  0  0  0  0  0  0  0  0  0
   -0.6666    0.7720    0.9828 O   0  0  0  0  0  0  0  0  0  0  0  0
    0.5425    0.6332    0.2436 O   0  0  0  0  0  1  0  0  0  0  0  0
   -1.3829    2.2612   -0.2731 H   0  0  0  0  0  0  0  0  0  0  0  0
   -2.0216    2.1696    1.3934 H   0  0  0  0  0  0  0  0  0  0  0  0
   -0.3839    2.8183    1.1024 H   0  0  0  0  0  0  0  0  0  0  0  0
  1  2  1  0
  1  3  1  0
  2  4  1  0
  5  6  1  0
  5  8  1  0
  5  9  1  0
  5 10  1  0
  6  7  1  0
M  RAD  1   7   2
M  END
>  <reaction>  (5) 
rxn_439

>  <mol_properties>  (5) 
{"0": {"label": "*4", "atom_type": "O2s"}, "1": {"label": "*3", "atom_type": "O2s"}, "3": {"label": "*2", "atom_type": "H0"}, "5": {"label": "*0", "atom_type": "O2s"}, "6": {"label": "*1", "atom_type": "O2s"}}

>  <type>  (5) 
unop_1

>  <geom_source>  (5) 
Heuristics

$$$$

     RDKit          3D

 10  8  0  0  0  0  0  0  0  0999 V2000
    0.1137   -1.7343   -0.8599 O   0  0  0  0  0  0  0  0  0  0  0  0
    0.1137   -1.7343    0.5648 O   0  0  0  0  0  0  0  0  0  0  0  0
    0.9744   -2.1226   -1.0469 H   0  0  0  0  0  0  0  0  0  0  0  0
    0.1137   -0.6012    0.7893 H   0  0  0  0  0  0  0  0  0  0  0  0
    0.1522    2.1417   -0.5945 C   0  0  0  0  0  0  0  0  0  0  0  0
   -0.5844    1.0420   -0.1178 O   0  0  0  0  0  0  0  0  0  0  0  0
    0.1137    0.5327    1.0139 O   0  0  0  0  0  1  0  0  0  0  0  0
    1.1414    1.8383   -0.9516 H   0  0  0  0  0  0  0  0  0  0  0  0
   -0.4350    2.5335   -1.4259 H   0  0  0  0  0  0  0  0  0  0  0  0
    0.2575    2.9093    0.1762 H   0  0  0  0  0  0  0  0  0  0  0  0
  1  2  1  0
  1  3  1  0
  2  4  1  0
  5  6  1  0
  5  8  1  0
  5  9  1  0
  5 10  1  0
  6  7  1  0
M  RAD  1   7   2
M  END
>  <reaction>  (6) 
rxn_439

>  <mol_properties>  (6) 
{"0": {"label": "*4", "atom_type": "O2s"}, "1": {"label": "*3", "atom_type": "O2s"}, "3": {"label": "*2", "atom_type": "H0"}, "5": {"label": "*0", "atom_type": "O2s"}, "6": {"label": "*1", "atom_type": "O2s"}}

>  <type>  (6) 
unop_2

>  <geom_source>  (6) 
Heuristics

$$$$

     RDKit          3D

 10  8  0  0  0  0  0  0  0  0999 V2000
    0.4231   -1.5576   -1.8541 O   0  0  0  0  0  0  0  0  0  0  0  0
    0.4231   -1.5576   -0.4294 O   0  0  0  0  0  0  0  0  0  0  0  0
    1.2838   -1.9459   -2.0411 H   0  0  0  0  0  0  0  0  0  0  0  0
    0.4231   -0.4245   -0.2049 H   0  0  0  0  0  0  0  0  0  0  0  0
   -1.1280    1.8667    1.2164 C   0  0  0  0  0  0  0  0  0  0  0  0
   -0.2750    0.7488    1.2601 O   0  0  0  0  0  0  0  0  0  0  0  0
    0.4231    0.7094    0.0197 O   0  0  0  0  0  1  0  0  0  0  0  0
   -1.8885    1.7616    0.4363 H   0  0  0  0  0  0  0  0  0  0  0  0
   -1.6067    1.8927    2.1961 H   0  0  0  0  0  0  0  0  0  0  0  0
   -0.5621    2.7881    1.0584 H   0  0  0  0  0  0  0  0  0  0  0  0
  1  2  1  0
  1  3  1  0
  2  4  1  0
  5  6  1  0
  5  8  1  0
  5  9  1  0
  5 10  1  0
  6  7  1  0
M  RAD  1   7   2
M  END
>  <reaction>  (7) 
rxn_439

>  <mol_properties>  (7) 
{"0": {"label": "*4", "atom_type": "O2s"}, "1": {"label": "*3", "atom_type": "O2s"}, "3": {"label": "*2", "atom_type": "H0"}, "5": {"label": "*0", "atom_type": "O2s"}, "6": {"label": "*1", "atom_type": "O2s"}}

>  <type>  (7) 
unop_3

>  <geom_source>  (7) 
Heuristics

$$$$

     RDKit          3D

 10  8  0  0  0  0  0  0  0  0999 V2000
   -0.6801   -1.4076   -1.3100 O   0  0  0  0  0  0  0  0  0  0  0  0
   -0.6801   -1.4076    0.1147 O   0  0  0  0  0  0  0  0  0  0  0  0
    0.1807   -1.7959   -1.4971 H   0  0  0  0  0  0  0  0  0  0  0  0
   -0.6801   -0.2745    0.3391 H   0  0  0  0  0  0  0  0  0  0  0  0
    1.5848    0.8868    0.7808 C   0  0  0  0  0  0  0  0  0  0  0  0
    0.5291    1.2695   -0.0667 O   0  0  0  0  0  0  0  0  0  0  0  0
   -0.6801    0.8594    0.5638 O   0  0  0  0  0  1  0  0  0  0  0  0
    1.6429   -0.2014    0.8840 H   0  0  0  0  0  0  0  0  0  0  0  0
    2.4859    1.2588    0.2918 H   0  0  0  0  0  0  0  0  0  0  0  0
    1.4844    1.3462    1.7672 H   0  0  0  0  0  0  0  0  0  0  0  0
  1  2  1  0
  1  3  1  0
  2  4  1  0
  5  6  1  0
  5  8  1  0
  5  9  1  0
  5 10  1  0
  6  7  1  0
M  RAD  1   7   2
M  END
>  <reaction>  (8) 
rxn_439

>  <mol_properties>  (8) 
{"0": {"label": "*4", "atom_type": "O2s"}, "1": {"label": "*3", "atom_type": "O2s"}, "3": {"label": "*2", "atom_type": "H0"}, "5": {"label": "*0", "atom_type": "O2s"}, "6": {"label": "*1", "atom_type": "O2s"}}

>  <type>  (8) 
unop_4

>  <geom_source>  (8) 
Heuristics

$$$$

     RDKit          3D

 10  8  0  0  0  0  0  0  0  0999 V2000
    0.2316   -1.4258   -2.0128 O   0  0  0  0  0  0  0  0  0  0  0  0
    0.2316   -1.4258   -0.5881 O   0  0  0  0  0  0  0  0  0  0  0  0
    1.0923   -1.8141   -2.1998 H   0  0  0  0  0  0  0  0  0  0  0  0
    0.2316   -0.2927   -0.3636 H   0  0  0  0  0  0  0  0  0  0  0  0
   -1.0128    1.3567    1.6949 C   0  0  0  0  0  0  0  0  0  0  0  0
    0.2316    0.8443    1.2849 O   0  0  0  0  0  0  0  0  0  0  0  0
    0.2316    0.8412   -0.1390 O   0  0  0  0  0  1  0  0  0  0  0  0
   -1.8368    0.7056    1.3866 H   0  0  0  0  0  0  0  0  0  0  0  0
   -0.9575    1.3901    2.7836 H   0  0  0  0  0  0  0  0  0  0  0  0
   -1.1723    2.3644    1.3031 H   0  0  0  0  0  0  0  0  0  0  0  0
  1  2  1  0
  1  3  1  0
  2  4  1  0
  5  6  1  0
  5  8  1  0
  5  9  1  0
  5 10  1  0
  6  7  1  0
M  RAD  1   7   2
M  END
>  <reaction>  (9) 
rxn_439

>  <mol_properties>  (9) 
{"0": {"label": "*4", "atom_type": "O2s"}, "1": {"label": "*3", "atom_type": "O2s"}, "3": {"label": "*2", "atom_type": "H0"}, "5": {"label": "*0", "atom_type": "O2s"}, "6": {"label": "*1", "atom_type": "O2s"}}

>  <type>  (9) 
unop_5

>  <geom_source>  (9) 
Heuristics

$$$$

     RDKit          3D

 10  8  0  0  0  0  0  0  0  0999 V2000
   -0.6415   -1.3150   -1.6373 O   0  0  0  0  0  0  0  0  0  0  0  0
   -0.6415   -1.3150   -0.2126 O   0  0  0  0  0  0  0  0  0  0  0  0
    0.2192   -1.7033   -1.8243 H   0  0  0  0  0  0  0  0  0  0  0  0
   -0.6415   -0.1819    0.0119 H   0  0  0  0  0  0  0  0  0  0  0  0
    1.2441    0.6356    1.4701 C   0  0  0  0  0  0  0  0  0  0  0  0
    0.7547    1.2264    0.2908 O   0  0  0  0  0  0  0  0  0  0  0  0
   -0.6415    0.9520    0.2365 O   0  0  0  0  0  1  0  0  0  0  0  0
    1.1434   -0.4540    1.4454 H   0  0  0  0  0  0  0  0  0  0  0  0
    2.2999    0.9071    1.5025 H   0  0  0  0  0  0  0  0  0  0  0  0
    0.7342    1.0335    2.3510 H   0  0  0  0  0  0  0  0  0  0  0  0
  1  2  1  0
  1  3  1  0
  2  4  1  0
  5  6  1  0
  5  8  1  0
  5  9  1  0
  5 10  1  0
  6  7  1  0
M  RAD  1   7   2
M  END
>  <reaction>  (10) 
rxn_439

>  <mol_properties>  (10) 
{"0": {"label": "*4", "atom_type": "O2s"}, "1": {"label": "*3", "atom_type": "O2s"}, "3": {"label": "*2", "atom_type": "H0"}, "5": {"label": "*0", "atom_type": "O2s"}, "6": {"label": "*1", "atom_type": "O2s"}}

>  <type>  (10) 
unop_6

>  <geom_source>  (10) 
Heuristics

$$$$

     RDKit          3D

 10  8  0  0  0  0  0  0  0  0999 V2000
   -0.4310   -1.2663   -1.9166 O   0  0  0  0  0  0  0  0  0  0  0  0
   -0.4310   -1.2663   -0.4919 O   0  0  0  0  0  0  0  0  0  0  0  0
    0.4297   -1.6545   -2.1036 H   0  0  0  0  0  0  0  0  0  0  0  0
   -0.4310   -0.1331   -0.2675 H   0  0  0  0  0  0  0  0  0  0  0  0
    0.5549    0.5654    1.9611 C   0  0  0  0  0  0  0  0  0  0  0  0
    0.7781    1.1395    0.6963 O   0  0  0  0  0  0  0  0  0  0  0  0
   -0.4310    1.0008   -0.0428 O   0  0  0  0  0  1  0  0  0  0  0  0
    0.3595   -0.5090    1.8859 H   0  0  0  0  0  0  0  0  0  0  0  0
    1.4807    0.7334    2.5127 H   0  0  0  0  0  0  0  0  0  0  0  0
   -0.2748    1.0563    2.4757 H   0  0  0  0  0  0  0  0  0  0  0  0
  1  2  1  0
  1  3  1  0
  2  4  1  0
  5  6  1  0
  5  8  1  0
  5  9  1  0
  5 10  1  0
  6  7  1  0
M  RAD  1   7   2
M  END
>  <reaction>  (11) 
rxn_439

>  <mol_properties>  (11) 
{"0": {"label": "*4", "atom_type": "O2s"}, "1": {"label": "*3", "atom_type": "O2s"}, "3": {"label": "*2", "atom_type": "H0"}, "5": {"label": "*0", "atom_type": "O2s"}, "6": {"label": "*1", "atom_type": "O2s"}}

>  <type>  (11) 
unop_7

>  <geom_source>  (11) 
Heuristics

$$$$

     RDKit          3D

 10  8  0  0  0  0  0  0  0  0999 V2000
    0.5571   -1.6940   -1.3419 O   0  0  0  0  0  0  0  0  0  0  0  0
    0.5571   -1.6940    0.0827 O   0  0  0  0  0  0  0  0  0  0  0  0
    1.4179   -2.0823   -1.5290 H   0  0  0  0  0  0  0  0  0  0  0  0
    0.5571   -0.5609    0.3072 H   0  0  0  0  0  0  0  0  0  0  0  0
   -1.0050    2.2030    0.2485 C   0  0  0  0  0  0  0  0  0  0  0  0
   -0.8390    0.8474    0.5862 O   0  0  0  0  0  0  0  0  0  0  0  0
    0.5571    0.5730    0.5318 O   0  0  0  0  0  1  0  0  0  0  0  0
   -0.6901    2.4022   -0.7807 H   0  0  0  0  0  0  0  0  0  0  0  0
   -2.0753    2.3879    0.3484 H   0  0  0  0  0  0  0  0  0  0  0  0
   -0.4537    2.8503    0.9350 H   0  0  0  0  0  0  0  0  0  0  0  0
  1  2  1  0
  1  3  1  0
  2  4  1  0
  5  6  1  0
  5  8  1  0
  5  9  1  0
  5 10  1  0
  6  7  1  0
M  RAD  1   7   2
M  END
>  <reaction>  (12) 
rxn_439

>  <mol_properties>  (12) 
{"0": {"label": "*4", "atom_type": "O2s"}, "1": {"label": "*3", "atom_type": "O2s"}, "3": {"label": "*2", "atom_type": "H0"}, "5": {"label": "*0", "atom_type": "O2s"}, "6": {"label": "*1", "atom_type": "O2s"}}

>  <type>  (12) 
unop_8

>  <geom_source>  (12) 
Heuristics

$$$$

     RDKit          3D

 10  8  0  0  0  0  0  0  0  0999 V2000
   -0.5439   -1.5292   -1.0197 O   0  0  0  0  0  0  0  0  0  0  0  0
   -0.5439   -1.5292    0.4049 O   0  0  0  0  0  0  0  0  0  0  0  0
    0.3168   -1.9175   -1.2068 H   0  0  0  0  0  0  0  0  0  0  0  0
   -0.5439   -0.3961    0.6294 H   0  0  0  0  0  0  0  0  0  0  0  0
    1.5174    1.2933    0.0667 C   0  0  0  0  0  0  0  0  0  0  0  0
    0.1542    1.2472   -0.2777 O   0  0  0  0  0  0  0  0  0  0  0  0
   -0.5439    0.7378    0.8540 O   0  0  0  0  0  1  0  0  0  0  0  0
    1.9188    0.2922    0.2534 H   0  0  0  0  0  0  0  0  0  0  0  0
    2.0113    1.7320   -0.8011 H   0  0  0  0  0  0  0  0  0  0  0  0
    1.6812    1.9258    0.9427 H   0  0  0  0  0  0  0  0  0  0  0  0
  1  2  1  0
  1  3  1  0
  2  4  1  0
  5  6  1  0
  5  8  1  0
  5  9  1  0
  5 10  1  0
  6  7  1  0
M  RAD  1   7   2
M  END
>  <reaction>  (13) 
rxn_439

>  <mol_properties>  (13) 
{"0": {"label": "*4", "atom_type": "O2s"}, "1": {"label": "*3", "atom_type": "O2s"}, "3": {"label": "*2", "atom_type": "H0"}, "5": {"label": "*0", "atom_type": "O2s"}, "6": {"label": "*1", "atom_type": "O2s"}}

>  <type>  (13) 
unop_9

>  <geom_source>  (13) 
Heuristics

$$$$

     RDKit          3D

 10  8  0  0  0  0  0  0  0  0999 V2000
    0.4130   -1.7371   -1.0532 O   0  0  0  0  0  0  0  0  0  0  0  0
    0.4130   -1.7371    0.3714 O   0  0  0  0  0  0  0  0  0  0  0  0
    1.2738   -2.1254   -1.2403 H   0  0  0  0  0  0  0  0  0  0  0  0
    0.4130   -0.6040    0.5959 H   0  0  0  0  0  0  0  0  0  0  0  0
   -0.5904    2.2494   -0.2812 C   0  0  0  0  0  0  0  0  0  0  0  0
   -0.7961    0.9400    0.1901 O   0  0  0  0  0  0  0  0  0  0  0  0
    0.4130    0.5300    0.8205 O   0  0  0  0  0  1  0  0  0  0  0  0
    0.1868    2.2819   -1.0513 H   0  0  0  0  0  0  0  0  0  0  0  0
   -1.5476    2.5463   -0.7116 H   0  0  0  0  0  0  0  0  0  0  0  0
   -0.3284    2.9258    0.5362 H   0  0  0  0  0  0  0  0  0  0  0  0
  1  2  1  0
  1  3  1  0
  2  4  1  0
  5  6  1  0
  5  8  1  0
  5  9  1  0
  5 10  1  0
  6  7  1  0
M  RAD  1   7   2
M  END
>  <reaction>  (14) 
rxn_439

>  <mol_properties>  (14) 
{"0": {"label": "*4", "atom_type": "O2s"}, "1": {"label": "*3", "atom_type": "O2s"}, "3": {"label": "*2", "atom_type": "H0"}, "5": {"label": "*0", "atom_type": "O2s"}, "6": {"label": "*1", "atom_type": "O2s"}}

>  <type>  (14) 
unop_10

>  <geom_source>  (14) 
Heuristics

$$$$

     RDKit          3D

 10  8  0  0  0  0  0  0  0  0999 V2000
   -0.0940   -1.2937   -2.0597 O   0  0  0  0  0  0  0  0  0  0  0  0
   -0.0940   -1.2937   -0.6351 O   0  0  0  0  0  0  0  0  0  0  0  0
    0.7668   -1.6820   -2.2468 H   0  0  0  0  0  0  0  0  0  0  0  0
   -0.0940   -0.1606   -0.4106 H   0  0  0  0  0  0  0  0  0  0  0  0
   -0.3432    0.7753    2.0670 C   0  0  0  0  0  0  0  0  0  0  0  0
    0.6041    1.0127    1.0545 O   0  0  0  0  0  0  0  0  0  0  0  0
   -0.0940    0.9733   -0.1860 O   0  0  0  0  0  1  0  0  0  0  0  0
   -0.7749   -0.2273    1.9864 H   0  0  0  0  0  0  0  0  0  0  0  0
    0.2155    0.8615    2.9997 H   0  0  0  0  0  0  0  0  0  0  0  0
   -1.1399    1.5230    2.0443 H   0  0  0  0  0  0  0  0  0  0  0  0
  1  2  1  0
  1  3  1  0
  2  4  1  0
  5  6  1  0
  5  8  1  0
  5  9  1  0
  5 10  1  0
  6  7  1  0
M  RAD  1   7   2
M  END
>  <reaction>  (15) 
rxn_439

>  <mol_properties>  (15) 
{"0": {"label": "*4", "atom_type": "O2s"}, "1": {"label": "*3", "atom_type": "O2s"}, "3": {"label": "*2", "atom_type": "H0"}, "5": {"label": "*0", "atom_type": "O2s"}, "6": {"label": "*1", "atom_type": "O2s"}}

>  <type>  (15) 
unop_11

>  <geom_source>  (15) 
Heuristics

$$$$

     RDKit          3D

 10  8  0  0  0  0  0  0  0  0999 V2000
   -0.2530   -1.6568   -0.8465 O   0  0  0  0  0  0  0  0  0  0  0  0
   -0.2530   -1.6568    0.5781 O   0  0  0  0  0  0  0  0  0  0  0  0
    0.6077   -2.0451   -1.0336 H   0  0  0  0  0  0  0  0  0  0  0  0
   -0.2530   -0.5237    0.8026 H   0  0  0  0  0  0  0  0  0  0  0  0
    0.9914    1.7859   -0.4716 C   0  0  0  0  0  0  0  0  0  0  0  0
   -0.2530    1.1559   -0.2880 O   0  0  0  0  0  0  0  0  0  0  0  0
   -0.2530    0.6102    1.0272 O   0  0  0  0  0  1  0  0  0  0  0  0
    1.8154    1.0664   -0.4349 H   0  0  0  0  0  0  0  0  0  0  0  0
    0.9360    2.2318   -1.4654 H   0  0  0  0  0  0  0  0  0  0  0  0
    1.1509    2.5681    0.2747 H   0  0  0  0  0  0  0  0  0  0  0  0
  1  2  1  0
  1  3  1  0
  2  4  1  0
  5  6  1  0
  5  8  1  0
  5  9  1  0
  5 10  1  0
  6  7  1  0
M  RAD  1   7   2
M  END
>  <reaction>  (16) 
rxn_439

>  <mol_properties>  (16) 
{"0": {"label": "*4", "atom_type": "O2s"}, "1": {"label": "*3", "atom_type": "O2s"}, "3": {"label": "*2", "atom_type": "H0"}, "5": {"label": "*0", "atom_type": "O2s"}, "6": {"label": "*1", "atom_type": "O2s"}}

>  <type>  (16) 
unop_12

>  <geom_source>  (16) 
Heuristics

$$$$

     RDKit          3D

 10  8  0  0  0  0  0  0  0  0999 V2000
   -0.6464   -0.1716   -0.8396 O   0  0  0  0  0  0  0  0  0  0  0  0
   -0.0573    0.9127   -0.3719 O   0  0  0  0  0  0  0  0  0  0  0  0
    3.1701    0.0681    0.4656 O   0  0  0  0  0  0  0  0  0  0  0  0
    1.9828    0.6242    0.5798 O   0  0  0  0  0  1  0  0  0  0  0  0
   -1.8377   -0.3045   -0.1128 C   0  0  0  0  0  0  0  0  0  0  0  0
   -1.6231   -0.4365    0.9707 H   0  0  0  0  0  0  0  0  0  0  0  0
   -2.3794   -1.2037   -0.4718 H   0  0  0  0  0  0  0  0  0  0  0  0
   -2.4920    0.5816   -0.2679 H   0  0  0  0  0  0  0  0  0  0  0  0
    0.8119    0.5072    0.3266 H   0  0  0  0  0  0  0  0  0  0  0  0
    3.0712   -0.5774   -0.2787 H   0  0  0  0  0  0  0  0  0  0  0  0
  1  5  1  0
  1  2  1  0
  2  9  1  0
  3  4  1  0
  3 10  1  0
  5  6  1  0
  5  7  1  0
  5  8  1  0
M  RAD  1   4   2
M  END
>  <reaction>  (17) 
rxn_439

>  <mol_properties>  (17) 
{"0": {"label": "*4", "atom_type": "O2s"}, "1": {"label": "*3", "atom_type": "O2s"}, "3": {"label": "*2", "atom_type": "H0"}, "5": {"label": "*0", "atom_type": "O2s"}, "6": {"label": "*1", "atom_type": "O2s"}}

>  <type>  (17) 
unop_13

>  <geom_source>  (17) 
AutoTST

$$$$
