
     RDKit          3D

 18 18  0  0  0  0  0  0  0  0999 V2000
   -2.4852    0.3210   -0.3966 C   0  0  0  0  0  0  0  0  0  0  0  0
   -1.5917   -0.2708    0.6941 C   0  0  0  0  0  0  0  0  0  0  0  0
   -0.1292   -0.1692    0.3493 C   0  0  0  0  0  0  0  0  0  0  0  0
    0.6099    0.9558    0.7015 C   0  0  0  0  0  0  0  0  0  0  0  0
    1.9447    1.0728    0.3458 C   0  0  0  0  0  0  0  0  0  0  0  0
    2.5646    0.0613   -0.3720 C   0  0  0  0  0  0  0  0  0  0  0  0
    1.8399   -1.0657   -0.7287 C   0  0  0  0  0  0  0  0  0  0  0  0
    0.5055   -1.1769   -0.3700 C   0  0  0  0  0  0  0  0  0  0  0  0
   -2.3325   -0.1971   -1.3452 H   0  0  0  0  0  0  0  0  0  0  0  0
   -2.2554    1.3763   -0.5546 H   0  0  0  0  0  0  0  0  0  0  0  0
   -3.5397    0.2376   -0.1280 H   0  0  0  0  0  0  0  0  0  0  0  0
   -1.7801    0.2462    1.6380 H   0  0  0  0  0  0  0  0  0  0  0  0
   -1.8568   -1.3190    0.8516 H   0  0  0  0  0  0  0  0  0  0  0  0
    0.1327    1.7497    1.2656 H   0  0  0  0  0  0  0  0  0  0  0  0
    2.5033    1.9550    0.6330 H   0  0  0  0  0  0  0  0  0  0  0  0
    3.6077    0.1491   -0.6484 H   0  0  0  0  0  0  0  0  0  0  0  0
    2.3163   -1.8632   -1.2854 H   0  0  0  0  0  0  0  0  0  0  0  0
   -0.0540   -2.0629   -0.6500 H   0  0  0  0  0  0  0  0  0  0  0  0
  1  2  1  0
  1  9  1  0
  1 10  1  0
  1 11  1  0
  2  3  1  0
  2 12  1  0
  2 13  1  0
  3  4  2  0
  3  8  1  0
  4  5  1  0
  4 14  1  0
  5  6  2  0
  5 15  1  0
  6  7  1  0
  6 16  1  0
  7  8  2  0
  7 17  1  0
  8 18  1  0
M  END
>  <reaction>  (1) 
rxn_1479

>  <mol_properties>  (1) 
{"1": {"label": "donator", "atom_type": "Cs"}, "11": {"label": "d_hydrogen", "atom_type": "H0"}}

>  <type>  (1) 
r1h

$$$$

     RDKit          3D

  7  6  0  0  0  0  0  0  0  0999 V2000
   -0.6201    0.0189   -0.0017 C   0  0  0  0  0  0  0  0  0  0  0  0
    0.8589   -0.0553    0.0500 C   0  0  0  0  0  3  0  0  0  0  0  0
   -1.0738   -0.9730   -0.0559 H   0  0  0  0  0  0  0  0  0  0  0  0
   -0.9680    0.5706   -0.8872 H   0  0  0  0  0  0  0  0  0  0  0  0
   -1.0303    0.5369    0.8678 H   0  0  0  0  0  0  0  0  0  0  0  0
    1.3939   -0.8386   -0.4695 H   0  0  0  0  0  0  0  0  0  0  0  0
    1.4394    0.7404    0.4965 H   0  0  0  0  0  0  0  0  0  0  0  0
  1  2  1  0
  1  3  1  0
  1  4  1  0
  1  5  1  0
  2  6  1  0
  2  7  1  0
M  RAD  1   2   2
M  END
>  <reaction>  (2) 
rxn_1479

>  <mol_properties>  (2) 
{"1": {"label": "acceptor", "atom_type": "Cs"}}

>  <type>  (2) 
r2

$$$$

     RDKit          3D

  8  7  0  0  0  0  0  0  0  0999 V2000
    0.7610    0.0250    0.0051 C   0  0  0  0  0  0  0  0  0  0  0  0
   -0.7610   -0.0250   -0.0051 C   0  0  0  0  0  0  0  0  0  0  0  0
    1.1904   -0.9237   -0.3217 H   0  0  0  0  0  0  0  0  0  0  0  0
    1.1359    0.8041   -0.6609 H   0  0  0  0  0  0  0  0  0  0  0  0
    1.1435    0.2336    1.0058 H   0  0  0  0  0  0  0  0  0  0  0  0
   -1.1435   -0.2336   -1.0058 H   0  0  0  0  0  0  0  0  0  0  0  0
   -1.1904    0.9237    0.3216 H   0  0  0  0  0  0  0  0  0  0  0  0
   -1.1359   -0.8041    0.6609 H   0  0  0  0  0  0  0  0  0  0  0  0
  1  2  1  0
  1  3  1  0
  1  4  1  0
  1  5  1  0
  2  6  1  0
  2  7  1  0
  2  8  1  0
M  END
>  <reaction>  (3) 
rxn_1479

>  <mol_properties>  (3) 
{"1": {"label": "acceptor", "atom_type": "Cs"}, "7": {"label": "a_hydrogen", "atom_type": "H0"}}

>  <type>  (3) 
r2h

$$$$

     RDKit          3D

 25 24  0  0  0  0  0  0  0  0999 V2000
   -1.4556   -2.2513    1.0653 C   0  0  0  0  0  0  0  0  0  0  0  0
   -0.7915   -2.9825   -0.0641 C   0  0  0  0  0  3  0  0  0  0  0  0
   -1.8968   -2.9442    1.7903 H   0  0  0  0  0  0  0  0  0  0  0  0
   -2.2577   -1.6054    0.7024 H   0  0  0  0  0  0  0  0  0  0  0  0
   -0.7431   -1.6219    1.6019 H   0  0  0  0  0  0  0  0  0  0  0  0
   -1.4513   -3.5166   -0.7442 H   0  0  0  0  0  0  0  0  0  0  0  0
    0.0966   -3.5539    0.1954 H   0  0  0  0  0  0  0  0  0  0  0  0
   -1.0061   -0.6587   -2.5272 C   0  0  0  0  0  0  0  0  0  0  0  0
    0.1176   -0.9203   -1.5530 C   0  0  0  0  0  0  0  0  0  0  0  0
    0.4302    0.1020   -0.5322 C   0  0  0  0  0  0  0  0  0  0  0  0
   -0.4651    1.1140   -0.1822 C   0  0  0  0  0  0  0  0  0  0  0  0
   -0.1682    2.0099    0.8333 C   0  0  0  0  0  0  0  0  0  0  0  0
    1.0284    1.9152    1.5260 C   0  0  0  0  0  0  0  0  0  0  0  0
    1.9318    0.9161    1.1880 C   0  0  0  0  0  0  0  0  0  0  0  0
    1.6352    0.0248    0.1732 C   0  0  0  0  0  0  0  0  0  0  0  0
   -0.8368    0.2537   -3.1060 H   0  0  0  0  0  0  0  0  0  0  0  0
   -1.9653   -0.5528   -2.0155 H   0  0  0  0  0  0  0  0  0  0  0  0
   -1.1013   -1.4887   -3.2281 H   0  0  0  0  0  0  0  0  0  0  0  0
   -0.2590   -1.9469   -0.8857 H   0  0  0  0  0  0  0  0  0  0  0  0
    1.0190   -1.2930   -2.0401 H   0  0  0  0  0  0  0  0  0  0  0  0
   -1.4060    1.2078   -0.7092 H   0  0  0  0  0  0  0  0  0  0  0  0
   -0.8785    2.7882    1.0843 H   0  0  0  0  0  0  0  0  0  0  0  0
    1.2585    2.6151    2.3191 H   0  0  0  0  0  0  0  0  0  0  0  0
    2.8729    0.8341    1.7179 H   0  0  0  0  0  0  0  0  0  0  0  0
    2.3456   -0.7535   -0.0831 H   0  0  0  0  0  0  0  0  0  0  0  0
  1  2  1  0
  1  3  1  0
  1  4  1  0
  1  5  1  0
  2  6  1  0
  2  7  1  0
  8  9  1  0
  8 16  1  0
  8 17  1  0
  8 18  1  0
  9 10  1  0
  9 19  1  0
  9 20  1  0
 10 11  2  0
 10 15  1  0
 11 12  1  0
 11 21  1  0
 12 13  2  0
 12 22  1  0
 13 14  1  0
 13 23  1  0
 14 15  2  0
 14 24  1  0
 15 25  1  0
M  RAD  1   2   2
M  END
>  <reaction>  (4) 
rxn_1479

>  <mol_properties>  (4) 
{"0": {"label": "*4", "atom_type": "Cs"}, "1": {"label": "*3", "atom_type": "Cs"}, "8": {"label": "*1", "atom_type": "Cs"}, "9": {"label": "*0", "atom_type": "Cd"}, "18": {"label": "*2", "atom_type": "H0"}}

>  <type>  (4) 
ts

$$$$

     RDKit          3D

 25 24  0  0  0  0  0  0  0  0999 V2000
   -1.2860   -3.6359    0.9991 C   0  0  0  0  0  0  0  0  0  0  0  0
   -1.6895   -2.4406    0.1464 C   0  0  0  0  0  0  0  0  0  0  0  0
   -1.9461   -3.7482    1.8610 H   0  0  0  0  0  0  0  0  0  0  0  0
   -0.2671   -3.5280    1.3752 H   0  0  0  0  0  0  0  0  0  0  0  0
   -1.3301   -4.5638    0.4262 H   0  0  0  0  0  0  0  0  0  0  0  0
   -1.6454   -1.5127    0.7193 H   0  0  0  0  0  0  0  0  0  0  0  0
   -2.7084   -2.5485   -0.2297 H   0  0  0  0  0  0  0  0  0  0  0  0
    0.4133   -1.1413   -2.2538 C   0  0  0  0  0  0  0  0  0  0  0  0
    0.4133   -1.1413   -0.7247 C   0  0  0  0  0  0  0  0  0  0  0  0
    0.4133    0.2530   -0.1553 C   0  0  0  0  0  0  0  0  0  0  0  0
   -0.7812    0.9220    0.0925 C   0  0  0  0  0  3  0  0  0  0  0  0
   -0.7845    2.2222    0.5734 C   0  0  0  0  0  0  0  0  0  0  0  0
    0.4133    2.8775    0.8152 C   0  0  0  0  0  0  0  0  0  0  0  0
    1.6111    2.2222    0.5734 C   0  0  0  0  0  0  0  0  0  0  0  0
    1.6078    0.9220    0.0925 C   0  0  0  0  0  0  0  0  0  0  0  0
    1.2946   -0.6262   -2.6406 H   0  0  0  0  0  0  0  0  0  0  0  0
   -0.4680   -0.6262   -2.6406 H   0  0  0  0  0  0  0  0  0  0  0  0
    0.4133   -2.1597   -2.6461 H   0  0  0  0  0  0  0  0  0  0  0  0
   -0.6387   -1.7913   -0.2889 H   0  0  0  0  0  0  0  0  0  0  0  0
    1.2899   -1.6829   -0.3616 H   0  0  0  0  0  0  0  0  0  0  0  0
   -1.7221    0.4148   -0.0913 H   0  0  0  0  0  0  0  0  0  0  0  0
   -1.7253    2.7239    0.7633 H   0  0  0  0  0  0  0  0  0  0  0  0
    0.4133    3.8919    1.1935 H   0  0  0  0  0  0  0  0  0  0  0  0
    2.5519    2.7239    0.7633 H   0  0  0  0  0  0  0  0  0  0  0  0
    2.5487    0.4148   -0.0913 H   0  0  0  0  0  0  0  0  0  0  0  0
  1  2  1  0
  1  3  1  0
  1  4  1  0
  1  5  1  0
  2  6  1  0
  2  7  1  0
  2 19  1  0
  8  9  1  0
  8 16  1  0
  8 17  1  0
  8 18  1  0
  9 10  2  3
  9 20  1  0
 10 11  1  0
 10 15  1  0
 11 12  1  0
 11 21  1  0
 12 13  2  0
 12 22  1  0
 13 14  1  0
 13 23  1  0
 14 15  2  0
 14 24  1  0
 15 25  1  0
M  RAD  1  11   2
M  END
>  <reaction>  (5) 
rxn_1479

>  <mol_properties>  (5) 
{"0": {"label": "*4", "atom_type": "Cs"}, "1": {"label": "*3", "atom_type": "Cs"}, "8": {"label": "*1", "atom_type": "Cs"}, "9": {"label": "*0", "atom_type": "Cd"}, "18": {"label": "*2", "atom_type": "H0"}}

>  <type>  (5) 
unop_1

>  <geom_source>  (5) 
Heuristics

$$$$

     RDKit          3D

 25 24  0  0  0  0  0  0  0  0999 V2000
   -2.0159   -3.5396   -0.6231 C   0  0  0  0  0  0  0  0  0  0  0  0
   -1.5983   -2.4474    0.3525 C   0  0  0  0  0  0  0  0  0  0  0  0
   -2.6659   -4.2726   -0.1421 H   0  0  0  0  0  0  0  0  0  0  0  0
   -1.1483   -4.0738   -1.0144 H   0  0  0  0  0  0  0  0  0  0  0  0
   -2.5592   -3.1240   -1.4736 H   0  0  0  0  0  0  0  0  0  0  0  0
   -1.0550   -2.8630    1.2030 H   0  0  0  0  0  0  0  0  0  0  0  0
   -2.4659   -1.9133    0.7438 H   0  0  0  0  0  0  0  0  0  0  0  0
    0.5045   -1.1481   -2.0477 C   0  0  0  0  0  0  0  0  0  0  0  0
    0.5045   -1.1481   -0.5186 C   0  0  0  0  0  0  0  0  0  0  0  0
    0.5045    0.2462    0.0508 C   0  0  0  0  0  0  0  0  0  0  0  0
   -0.6900    0.9151    0.2986 C   0  0  0  0  0  3  0  0  0  0  0  0
   -0.6933    2.2153    0.7795 C   0  0  0  0  0  0  0  0  0  0  0  0
    0.5045    2.8707    1.0213 C   0  0  0  0  0  0  0  0  0  0  0  0
    1.7023    2.2153    0.7795 C   0  0  0  0  0  0  0  0  0  0  0  0
    1.6990    0.9151    0.2986 C   0  0  0  0  0  0  0  0  0  0  0  0
    1.3858   -0.6331   -2.4345 H   0  0  0  0  0  0  0  0  0  0  0  0
   -0.3768   -0.6331   -2.4345 H   0  0  0  0  0  0  0  0  0  0  0  0
    0.5045   -2.1665   -2.4400 H   0  0  0  0  0  0  0  0  0  0  0  0
   -0.5474   -1.7981   -0.0828 H   0  0  0  0  0  0  0  0  0  0  0  0
    1.3812   -1.6898   -0.1554 H   0  0  0  0  0  0  0  0  0  0  0  0
   -1.6309    0.4079    0.1148 H   0  0  0  0  0  0  0  0  0  0  0  0
   -1.6341    2.7170    0.9694 H   0  0  0  0  0  0  0  0  0  0  0  0
    0.5045    3.8850    1.3997 H   0  0  0  0  0  0  0  0  0  0  0  0
    2.6431    2.7170    0.9694 H   0  0  0  0  0  0  0  0  0  0  0  0
    2.6399    0.4079    0.1148 H   0  0  0  0  0  0  0  0  0  0  0  0
  1  2  1  0
  1  3  1  0
  1  4  1  0
  1  5  1  0
  2  6  1  0
  2  7  1  0
  2 19  1  0
  8  9  1  0
  8 16  1  0
  8 17  1  0
  8 18  1  0
  9 10  2  3
  9 20  1  0
 10 11  1  0
 10 15  1  0
 11 12  1  0
 11 21  1  0
 12 13  2  0
 12 22  1  0
 13 14  1  0
 13 23  1  0
 14 15  2  0
 14 24  1  0
 15 25  1  0
M  RAD  1  11   2
M  END
>  <reaction>  (6) 
rxn_1479

>  <mol_properties>  (6) 
{"0": {"label": "*4", "atom_type": "Cs"}, "1": {"label": "*3", "atom_type": "Cs"}, "8": {"label": "*1", "atom_type": "Cs"}, "9": {"label": "*0", "atom_type": "Cd"}, "18": {"label": "*2", "atom_type": "H0"}}

>  <type>  (6) 
unop_2

>  <geom_source>  (6) 
Heuristics

$$$$

     RDKit          3D

 25 24  0  0  0  0  0  0  0  0999 V2000
   -1.3963   -3.1627    1.4366 C   0  0  0  0  0  0  0  0  0  0  0  0
   -1.6736   -2.5000    0.0939 C   0  0  0  0  0  0  0  0  0  0  0  0
   -2.3083   -3.2531    2.0293 H   0  0  0  0  0  0  0  0  0  0  0  0
   -0.6778   -2.5860    2.0217 H   0  0  0  0  0  0  0  0  0  0  0  0
   -0.9865   -4.1658    1.3058 H   0  0  0  0  0  0  0  0  0  0  0  0
   -2.0834   -1.4969    0.2247 H   0  0  0  0  0  0  0  0  0  0  0  0
   -2.3921   -3.0766   -0.4913 H   0  0  0  0  0  0  0  0  0  0  0  0
    0.4292   -1.2006   -2.3063 C   0  0  0  0  0  0  0  0  0  0  0  0
    0.4292   -1.2006   -0.7772 C   0  0  0  0  0  0  0  0  0  0  0  0
    0.4292    0.1936   -0.2077 C   0  0  0  0  0  0  0  0  0  0  0  0
   -0.7653    0.8626    0.0400 C   0  0  0  0  0  3  0  0  0  0  0  0
   -0.7686    2.1628    0.5209 C   0  0  0  0  0  0  0  0  0  0  0  0
    0.4292    2.8181    0.7627 C   0  0  0  0  0  0  0  0  0  0  0  0
    1.6270    2.1628    0.5209 C   0  0  0  0  0  0  0  0  0  0  0  0
    1.6237    0.8626    0.0400 C   0  0  0  0  0  0  0  0  0  0  0  0
    1.3105   -0.6856   -2.6931 H   0  0  0  0  0  0  0  0  0  0  0  0
   -0.4521   -0.6856   -2.6931 H   0  0  0  0  0  0  0  0  0  0  0  0
    0.4292   -2.2191   -2.6986 H   0  0  0  0  0  0  0  0  0  0  0  0
   -0.6228   -1.8507   -0.3414 H   0  0  0  0  0  0  0  0  0  0  0  0
    1.3058   -1.7423   -0.4140 H   0  0  0  0  0  0  0  0  0  0  0  0
   -1.7062    0.3554   -0.1438 H   0  0  0  0  0  0  0  0  0  0  0  0
   -1.7094    2.6645    0.7108 H   0  0  0  0  0  0  0  0  0  0  0  0
    0.4292    3.8325    1.1411 H   0  0  0  0  0  0  0  0  0  0  0  0
    2.5678    2.6645    0.7108 H   0  0  0  0  0  0  0  0  0  0  0  0
    2.5646    0.3554   -0.1438 H   0  0  0  0  0  0  0  0  0  0  0  0
  1  2  1  0
  1  3  1  0
  1  4  1  0
  1  5  1  0
  2  6  1  0
  2  7  1  0
  2 19  1  0
  8  9  1  0
  8 16  1  0
  8 17  1  0
  8 18  1  0
  9 10  2  3
  9 20  1  0
 10 11  1  0
 10 15  1  0
 11 12  1  0
 11 21  1  0
 12 13  2  0
 12 22  1  0
 13 14  1  0
 13 23  1  0
 14 15  2  0
 14 24  1  0
 15 25  1  0
M  RAD  1  11   2
M  END
>  <reaction>  (7) 
rxn_1479

>  <mol_properties>  (7) 
{"0": {"label": "*4", "atom_type": "Cs"}, "1": {"label": "*3", "atom_type": "Cs"}, "8": {"label": "*1", "atom_type": "Cs"}, "9": {"label": "*0", "atom_type": "Cd"}, "18": {"label": "*2", "atom_type": "H0"}}

>  <type>  (7) 
unop_3

>  <geom_source>  (7) 
Heuristics

$$$$

     RDKit          3D

 25 24  0  0  0  0  0  0  0  0999 V2000
   -2.7899   -1.9977   -0.1895 C   0  0  0  0  0  0  0  0  0  0  0  0
   -1.5002   -2.6454    0.2962 C   0  0  0  0  0  0  0  0  0  0  0  0
   -3.5946   -2.1246    0.5369 H   0  0  0  0  0  0  0  0  0  0  0  0
   -3.1230   -2.4367   -1.1316 H   0  0  0  0  0  0  0  0  0  0  0  0
   -2.6580   -0.9266   -0.3525 H   0  0  0  0  0  0  0  0  0  0  0  0
   -1.6321   -3.7165    0.4592 H   0  0  0  0  0  0  0  0  0  0  0  0
   -1.1671   -2.2064    1.2383 H   0  0  0  0  0  0  0  0  0  0  0  0
    0.6026   -1.3461   -2.1040 C   0  0  0  0  0  0  0  0  0  0  0  0
    0.6026   -1.3461   -0.5749 C   0  0  0  0  0  0  0  0  0  0  0  0
    0.6026    0.0482   -0.0055 C   0  0  0  0  0  0  0  0  0  0  0  0
   -0.5919    0.7171    0.2423 C   0  0  0  0  0  3  0  0  0  0  0  0
   -0.5952    2.0174    0.7232 C   0  0  0  0  0  0  0  0  0  0  0  0
    0.6026    2.6727    0.9650 C   0  0  0  0  0  0  0  0  0  0  0  0
    1.8004    2.0174    0.7232 C   0  0  0  0  0  0  0  0  0  0  0  0
    1.7972    0.7171    0.2423 C   0  0  0  0  0  0  0  0  0  0  0  0
    1.4839   -0.8310   -2.4908 H   0  0  0  0  0  0  0  0  0  0  0  0
   -0.2786   -0.8310   -2.4908 H   0  0  0  0  0  0  0  0  0  0  0  0
    0.6026   -2.3645   -2.4963 H   0  0  0  0  0  0  0  0  0  0  0  0
   -0.4493   -1.9961   -0.1391 H   0  0  0  0  0  0  0  0  0  0  0  0
    1.4793   -1.8878   -0.2117 H   0  0  0  0  0  0  0  0  0  0  0  0
   -1.5328    0.2100    0.0585 H   0  0  0  0  0  0  0  0  0  0  0  0
   -1.5359    2.5191    0.9131 H   0  0  0  0  0  0  0  0  0  0  0  0
    0.6026    3.6871    1.3434 H   0  0  0  0  0  0  0  0  0  0  0  0
    2.7412    2.5191    0.9131 H   0  0  0  0  0  0  0  0  0  0  0  0
    2.7381    0.2100    0.0585 H   0  0  0  0  0  0  0  0  0  0  0  0
  1  2  1  0
  1  3  1  0
  1  4  1  0
  1  5  1  0
  2  6  1  0
  2  7  1  0
  2 19  1  0
  8  9  1  0
  8 16  1  0
  8 17  1  0
  8 18  1  0
  9 10  2  3
  9 20  1  0
 10 11  1  0
 10 15  1  0
 11 12  1  0
 11 21  1  0
 12 13  2  0
 12 22  1  0
 13 14  1  0
 13 23  1  0
 14 15  2  0
 14 24  1  0
 15 25  1  0
M  RAD  1  11   2
M  END
>  <reaction>  (8) 
rxn_1479

>  <mol_properties>  (8) 
{"0": {"label": "*4", "atom_type": "Cs"}, "1": {"label": "*3", "atom_type": "Cs"}, "8": {"label": "*1", "atom_type": "Cs"}, "9": {"label": "*0", "atom_type": "Cd"}, "18": {"label": "*2", "atom_type": "H0"}}

>  <type>  (8) 
unop_4

>  <geom_source>  (8) 
Heuristics

$$$$

     RDKit          3D

 25 24  0  0  0  0  0  0  0  0999 V2000
   -1.6803   -2.5933    1.5977 C   0  0  0  0  0  0  0  0  0  0  0  0
   -1.6384   -2.5674    0.0757 C   0  0  0  0  0  0  0  0  0  0  0  0
   -2.5560   -3.1344    1.9604 H   0  0  0  0  0  0  0  0  0  0  0  0
   -1.7218   -1.5835    2.0098 H   0  0  0  0  0  0  0  0  0  0  0  0
   -0.7957   -3.0822    2.0098 H   0  0  0  0  0  0  0  0  0  0  0  0
   -2.5229   -2.0785   -0.3364 H   0  0  0  0  0  0  0  0  0  0  0  0
   -1.5969   -3.5772   -0.3364 H   0  0  0  0  0  0  0  0  0  0  0  0
    0.4644   -1.2681   -2.3245 C   0  0  0  0  0  0  0  0  0  0  0  0
    0.4644   -1.2681   -0.7954 C   0  0  0  0  0  0  0  0  0  0  0  0
    0.4644    0.1262   -0.2260 C   0  0  0  0  0  0  0  0  0  0  0  0
   -0.7301    0.7951    0.0218 C   0  0  0  0  0  3  0  0  0  0  0  0
   -0.7334    2.0953    0.5027 C   0  0  0  0  0  0  0  0  0  0  0  0
    0.4644    2.7507    0.7445 C   0  0  0  0  0  0  0  0  0  0  0  0
    1.6622    2.0953    0.5027 C   0  0  0  0  0  0  0  0  0  0  0  0
    1.6590    0.7951    0.0218 C   0  0  0  0  0  0  0  0  0  0  0  0
    1.3457   -0.7530   -2.7113 H   0  0  0  0  0  0  0  0  0  0  0  0
   -0.4169   -0.7530   -2.7113 H   0  0  0  0  0  0  0  0  0  0  0  0
    0.4644   -2.2865   -2.7168 H   0  0  0  0  0  0  0  0  0  0  0  0
   -0.5875   -1.9181   -0.3596 H   0  0  0  0  0  0  0  0  0  0  0  0
    1.3411   -1.8098   -0.4322 H   0  0  0  0  0  0  0  0  0  0  0  0
   -1.6710    0.2880   -0.1620 H   0  0  0  0  0  0  0  0  0  0  0  0
   -1.6742    2.5970    0.6926 H   0  0  0  0  0  0  0  0  0  0  0  0
    0.4644    3.7650    1.1229 H   0  0  0  0  0  0  0  0  0  0  0  0
    2.6030    2.5970    0.6926 H   0  0  0  0  0  0  0  0  0  0  0  0
    2.5998    0.2880   -0.1620 H   0  0  0  0  0  0  0  0  0  0  0  0
  1  2  1  0
  1  3  1  0
  1  4  1  0
  1  5  1  0
  2  6  1  0
  2  7  1  0
  2 19  1  0
  8  9  1  0
  8 16  1  0
  8 17  1  0
  8 18  1  0
  9 10  2  3
  9 20  1  0
 10 11  1  0
 10 15  1  0
 11 12  1  0
 11 21  1  0
 12 13  2  0
 12 22  1  0
 13 14  1  0
 13 23  1  0
 14 15  2  0
 14 24  1  0
 15 25  1  0
M  RAD  1  11   2
M  END
>  <reaction>  (9) 
rxn_1479

>  <mol_properties>  (9) 
{"0": {"label": "*4", "atom_type": "Cs"}, "1": {"label": "*3", "atom_type": "Cs"}, "8": {"label": "*1", "atom_type": "Cs"}, "9": {"label": "*0", "atom_type": "Cd"}, "18": {"label": "*2", "atom_type": "H0"}}

>  <type>  (9) 
unop_5

>  <geom_source>  (9) 
Heuristics

$$$$

     RDKit          3D

 25 24  0  0  0  0  0  0  0  0999 V2000
   -2.7022   -1.7428    0.4040 C   0  0  0  0  0  0  0  0  0  0  0  0
   -1.5131   -2.6763    0.2205 C   0  0  0  0  0  0  0  0  0  0  0  0
   -3.2673   -1.9938    1.3034 H   0  0  0  0  0  0  0  0  0  0  0  0
   -3.3869   -1.8026   -0.4438 H   0  0  0  0  0  0  0  0  0  0  0  0
   -2.3797   -0.7042    0.4957 H   0  0  0  0  0  0  0  0  0  0  0  0
   -1.8357   -3.7149    0.1289 H   0  0  0  0  0  0  0  0  0  0  0  0
   -0.8284   -2.6165    1.0683 H   0  0  0  0  0  0  0  0  0  0  0  0
    0.5897   -1.3769   -2.1797 C   0  0  0  0  0  0  0  0  0  0  0  0
    0.5897   -1.3769   -0.6506 C   0  0  0  0  0  0  0  0  0  0  0  0
    0.5897    0.0174   -0.0812 C   0  0  0  0  0  0  0  0  0  0  0  0
   -0.6049    0.6863    0.1666 C   0  0  0  0  0  3  0  0  0  0  0  0
   -0.6081    1.9865    0.6475 C   0  0  0  0  0  0  0  0  0  0  0  0
    0.5897    2.6419    0.8893 C   0  0  0  0  0  0  0  0  0  0  0  0
    1.7875    1.9865    0.6475 C   0  0  0  0  0  0  0  0  0  0  0  0
    1.7842    0.6863    0.1666 C   0  0  0  0  0  0  0  0  0  0  0  0
    1.4709   -0.8619   -2.5665 H   0  0  0  0  0  0  0  0  0  0  0  0
   -0.2916   -0.8619   -2.5665 H   0  0  0  0  0  0  0  0  0  0  0  0
    0.5897   -2.3953   -2.5720 H   0  0  0  0  0  0  0  0  0  0  0  0
   -0.4623   -2.0269   -0.2148 H   0  0  0  0  0  0  0  0  0  0  0  0
    1.4663   -1.9186   -0.2874 H   0  0  0  0  0  0  0  0  0  0  0  0
   -1.5458    0.1791   -0.0172 H   0  0  0  0  0  0  0  0  0  0  0  0
   -1.5489    2.4882    0.8374 H   0  0  0  0  0  0  0  0  0  0  0  0
    0.5897    3.6562    1.2677 H   0  0  0  0  0  0  0  0  0  0  0  0
    2.7283    2.4882    0.8374 H   0  0  0  0  0  0  0  0  0  0  0  0
    2.7251    0.1791   -0.0172 H   0  0  0  0  0  0  0  0  0  0  0  0
  1  2  1  0
  1  3  1  0
  1  4  1  0
  1  5  1  0
  2  6  1  0
  2  7  1  0
  2 19  1  0
  8  9  1  0
  8 16  1  0
  8 17  1  0
  8 18  1  0
  9 10  2  3
  9 20  1  0
 10 11  1  0
 10 15  1  0
 11 12  1  0
 11 21  1  0
 12 13  2  0
 12 22  1  0
 13 14  1  0
 13 23  1  0
 14 15  2  0
 14 24  1  0
 15 25  1  0
M  RAD  1  11   2
M  END
>  <reaction>  (10) 
rxn_1479

>  <mol_properties>  (10) 
{"0": {"label": "*4", "atom_type": "Cs"}, "1": {"label": "*3", "atom_type": "Cs"}, "8": {"label": "*1", "atom_type": "Cs"}, "9": {"label": "*0", "atom_type": "Cd"}, "18": {"label": "*2", "atom_type": "H0"}}

>  <type>  (10) 
unop_6

>  <geom_source>  (10) 
Heuristics

$$$$

     RDKit          3D

 25 24  0  0  0  0  0  0  0  0999 V2000
   -2.4363   -1.7743    0.9991 C   0  0  0  0  0  0  0  0  0  0  0  0
   -1.5478   -2.6699    0.1464 C   0  0  0  0  0  0  0  0  0  0  0  0
   -2.8320   -2.3144    1.8610 H   0  0  0  0  0  0  0  0  0  0  0  0
   -3.2860   -1.3986    0.4262 H   0  0  0  0  0  0  0  0  0  0  0  0
   -1.8840   -0.9113    1.3752 H   0  0  0  0  0  0  0  0  0  0  0  0
   -2.1002   -3.5328   -0.2297 H   0  0  0  0  0  0  0  0  0  0  0  0
   -0.6982   -3.0456    0.7193 H   0  0  0  0  0  0  0  0  0  0  0  0
    0.5550   -1.3706   -2.2538 C   0  0  0  0  0  0  0  0  0  0  0  0
    0.5550   -1.3706   -0.7247 C   0  0  0  0  0  0  0  0  0  0  0  0
    0.5550    0.0237   -0.1553 C   0  0  0  0  0  0  0  0  0  0  0  0
   -0.6395    0.6927    0.0925 C   0  0  0  0  0  3  0  0  0  0  0  0
   -0.6428    1.9929    0.5734 C   0  0  0  0  0  0  0  0  0  0  0  0
    0.5550    2.6482    0.8152 C   0  0  0  0  0  0  0  0  0  0  0  0
    1.7528    1.9929    0.5734 C   0  0  0  0  0  0  0  0  0  0  0  0
    1.7495    0.6927    0.0925 C   0  0  0  0  0  0  0  0  0  0  0  0
    1.4363   -0.8555   -2.6406 H   0  0  0  0  0  0  0  0  0  0  0  0
   -0.3263   -0.8555   -2.6406 H   0  0  0  0  0  0  0  0  0  0  0  0
    0.5550   -2.3890   -2.6461 H   0  0  0  0  0  0  0  0  0  0  0  0
   -0.4970   -2.0206   -0.2889 H   0  0  0  0  0  0  0  0  0  0  0  0
    1.4316   -1.9122   -0.3616 H   0  0  0  0  0  0  0  0  0  0  0  0
   -1.5804    0.1855   -0.0913 H   0  0  0  0  0  0  0  0  0  0  0  0
   -1.5836    2.4946    0.7633 H   0  0  0  0  0  0  0  0  0  0  0  0
    0.5550    3.6626    1.1935 H   0  0  0  0  0  0  0  0  0  0  0  0
    2.6936    2.4946    0.7633 H   0  0  0  0  0  0  0  0  0  0  0  0
    2.6904    0.1855   -0.0913 H   0  0  0  0  0  0  0  0  0  0  0  0
  1  2  1  0
  1  3  1  0
  1  4  1  0
  1  5  1  0
  2  6  1  0
  2  7  1  0
  2 19  1  0
  8  9  1  0
  8 16  1  0
  8 17  1  0
  8 18  1  0
  9 10  2  3
  9 20  1  0
 10 11  1  0
 10 15  1  0
 11 12  1  0
 11 21  1  0
 12 13  2  0
 12 22  1  0
 13 14  1  0
 13 23  1  0
 14 15  2  0
 14 24  1  0
 15 25  1  0
M  RAD  1  11   2
M  END
>  <reaction>  (11) 
rxn_1479

>  <mol_properties>  (11) 
{"0": {"label": "*4", "atom_type": "Cs"}, "1": {"label": "*3", "atom_type": "Cs"}, "8": {"label": "*1", "atom_type": "Cs"}, "9": {"label": "*0", "atom_type": "Cd"}, "18": {"label": "*2", "atom_type": "H0"}}

>  <type>  (11) 
unop_7

>  <geom_source>  (11) 
Heuristics

$$$$

     RDKit          3D

 25 24  0  0  0  0  0  0  0  0999 V2000
   -1.3768   -3.8878    0.4040 C   0  0  0  0  0  0  0  0  0  0  0  0
   -1.6797   -2.4067    0.2205 C   0  0  0  0  0  0  0  0  0  0  0  0
   -1.8541   -4.2809    1.3034 H   0  0  0  0  0  0  0  0  0  0  0  0
   -0.3036   -4.0640    0.4957 H   0  0  0  0  0  0  0  0  0  0  0  0
   -1.7366   -4.4734   -0.4438 H   0  0  0  0  0  0  0  0  0  0  0  0
   -1.3199   -1.8211    1.0683 H   0  0  0  0  0  0  0  0  0  0  0  0
   -2.7529   -2.2305    0.1289 H   0  0  0  0  0  0  0  0  0  0  0  0
    0.4231   -1.1074   -2.1797 C   0  0  0  0  0  0  0  0  0  0  0  0
    0.4231   -1.1074   -0.6506 C   0  0  0  0  0  0  0  0  0  0  0  0
    0.4231    0.2869   -0.0812 C   0  0  0  0  0  0  0  0  0  0  0  0
   -0.7714    0.9558    0.1666 C   0  0  0  0  0  3  0  0  0  0  0  0
   -0.7747    2.2560    0.6475 C   0  0  0  0  0  0  0  0  0  0  0  0
    0.4231    2.9114    0.8893 C   0  0  0  0  0  0  0  0  0  0  0  0
    1.6209    2.2560    0.6475 C   0  0  0  0  0  0  0  0  0  0  0  0
    1.6176    0.9558    0.1666 C   0  0  0  0  0  0  0  0  0  0  0  0
    1.3044   -0.5923   -2.5665 H   0  0  0  0  0  0  0  0  0  0  0  0
   -0.4582   -0.5923   -2.5665 H   0  0  0  0  0  0  0  0  0  0  0  0
    0.4231   -2.1258   -2.5720 H   0  0  0  0  0  0  0  0  0  0  0  0
   -0.6288   -1.7574   -0.2148 H   0  0  0  0  0  0  0  0  0  0  0  0
    1.2998   -1.6491   -0.2874 H   0  0  0  0  0  0  0  0  0  0  0  0
   -1.7123    0.4487   -0.0172 H   0  0  0  0  0  0  0  0  0  0  0  0
   -1.7155    2.7577    0.8374 H   0  0  0  0  0  0  0  0  0  0  0  0
    0.4231    3.9257    1.2677 H   0  0  0  0  0  0  0  0  0  0  0  0
    2.5617    2.7577    0.8374 H   0  0  0  0  0  0  0  0  0  0  0  0
    2.5585    0.4487   -0.0172 H   0  0  0  0  0  0  0  0  0  0  0  0
  1  2  1  0
  1  3  1  0
  1  4  1  0
  1  5  1  0
  2  6  1  0
  2  7  1  0
  2 19  1  0
  8  9  1  0
  8 16  1  0
  8 17  1  0
  8 18  1  0
  9 10  2  3
  9 20  1  0
 10 11  1  0
 10 15  1  0
 11 12  1  0
 11 21  1  0
 12 13  2  0
 12 22  1  0
 13 14  1  0
 13 23  1  0
 14 15  2  0
 14 24  1  0
 15 25  1  0
M  RAD  1  11   2
M  END
>  <reaction>  (12) 
rxn_1479

>  <mol_properties>  (12) 
{"0": {"label": "*4", "atom_type": "Cs"}, "1": {"label": "*3", "atom_type": "Cs"}, "8": {"label": "*1", "atom_type": "Cs"}, "9": {"label": "*0", "atom_type": "Cd"}, "18": {"label": "*2", "atom_type": "H0"}}

>  <type>  (12) 
unop_8

>  <geom_source>  (12) 
Heuristics

$$$$

     RDKit          3D

 25 24  0  0  0  0  0  0  0  0999 V2000
   -2.6767   -2.4702   -0.6231 C   0  0  0  0  0  0  0  0  0  0  0  0
   -1.5131   -2.5852    0.3525 C   0  0  0  0  0  0  0  0  0  0  0  0
   -3.6231   -2.7235   -0.1421 H   0  0  0  0  0  0  0  0  0  0  0  0
   -2.5481   -3.1420   -1.4736 H   0  0  0  0  0  0  0  0  0  0  0  0
   -2.7663   -1.4552   -1.0144 H   0  0  0  0  0  0  0  0  0  0  0  0
   -1.4235   -3.6002    0.7438 H   0  0  0  0  0  0  0  0  0  0  0  0
   -1.6417   -1.9134    1.2030 H   0  0  0  0  0  0  0  0  0  0  0  0
    0.5897   -1.2859   -2.0477 C   0  0  0  0  0  0  0  0  0  0  0  0
    0.5897   -1.2859   -0.5186 C   0  0  0  0  0  0  0  0  0  0  0  0
    0.5897    0.1084    0.0508 C   0  0  0  0  0  0  0  0  0  0  0  0
   -0.6049    0.7773    0.2986 C   0  0  0  0  0  3  0  0  0  0  0  0
   -0.6081    2.0775    0.7795 C   0  0  0  0  0  0  0  0  0  0  0  0
    0.5897    2.7329    1.0213 C   0  0  0  0  0  0  0  0  0  0  0  0
    1.7875    2.0775    0.7795 C   0  0  0  0  0  0  0  0  0  0  0  0
    1.7842    0.7773    0.2986 C   0  0  0  0  0  0  0  0  0  0  0  0
    1.4710   -0.7709   -2.4345 H   0  0  0  0  0  0  0  0  0  0  0  0
   -0.2916   -0.7709   -2.4345 H   0  0  0  0  0  0  0  0  0  0  0  0
    0.5897   -2.3043   -2.4400 H   0  0  0  0  0  0  0  0  0  0  0  0
   -0.4623   -1.9359   -0.0828 H   0  0  0  0  0  0  0  0  0  0  0  0
    1.4663   -1.8276   -0.1554 H   0  0  0  0  0  0  0  0  0  0  0  0
   -1.5457    0.2701    0.1148 H   0  0  0  0  0  0  0  0  0  0  0  0
   -1.5489    2.5792    0.9694 H   0  0  0  0  0  0  0  0  0  0  0  0
    0.5897    3.7472    1.3997 H   0  0  0  0  0  0  0  0  0  0  0  0
    2.7283    2.5792    0.9694 H   0  0  0  0  0  0  0  0  0  0  0  0
    2.7251    0.2701    0.1148 H   0  0  0  0  0  0  0  0  0  0  0  0
  1  2  1  0
  1  3  1  0
  1  4  1  0
  1  5  1  0
  2  6  1  0
  2  7  1  0
  2 19  1  0
  8  9  1  0
  8 16  1  0
  8 17  1  0
  8 18  1  0
  9 10  2  3
  9 20  1  0
 10 11  1  0
 10 15  1  0
 11 12  1  0
 11 21  1  0
 12 13  2  0
 12 22  1  0
 13 14  1  0
 13 23  1  0
 14 15  2  0
 14 24  1  0
 15 25  1  0
M  RAD  1  11   2
M  END
>  <reaction>  (13) 
rxn_1479

>  <mol_properties>  (13) 
{"0": {"label": "*4", "atom_type": "Cs"}, "1": {"label": "*3", "atom_type": "Cs"}, "8": {"label": "*1", "atom_type": "Cs"}, "9": {"label": "*0", "atom_type": "Cd"}, "18": {"label": "*2", "atom_type": "H0"}}

>  <type>  (13) 
unop_9

>  <geom_source>  (13) 
Heuristics

$$$$

     RDKit          3D

 25 24  0  0  0  0  0  0  0  0999 V2000
   -1.6440   -3.8522   -0.1895 C   0  0  0  0  0  0  0  0  0  0  0  0
   -1.6463   -2.4089    0.2962 C   0  0  0  0  0  0  0  0  0  0  0  0
   -2.1175   -4.5150    0.5369 H   0  0  0  0  0  0  0  0  0  0  0  0
   -0.6271   -4.2134   -0.3525 H   0  0  0  0  0  0  0  0  0  0  0  0
   -2.1856   -3.9537   -1.1316 H   0  0  0  0  0  0  0  0  0  0  0  0
   -1.1046   -2.3074    1.2383 H   0  0  0  0  0  0  0  0  0  0  0  0
   -2.6632   -2.0477    0.4592 H   0  0  0  0  0  0  0  0  0  0  0  0
    0.4565   -1.1096   -2.1040 C   0  0  0  0  0  0  0  0  0  0  0  0
    0.4565   -1.1096   -0.5749 C   0  0  0  0  0  0  0  0  0  0  0  0
    0.4565    0.2847   -0.0055 C   0  0  0  0  0  0  0  0  0  0  0  0
   -0.7380    0.9536    0.2423 C   0  0  0  0  0  3  0  0  0  0  0  0
   -0.7413    2.2538    0.7232 C   0  0  0  0  0  0  0  0  0  0  0  0
    0.4565    2.9092    0.9650 C   0  0  0  0  0  0  0  0  0  0  0  0
    1.6543    2.2538    0.7232 C   0  0  0  0  0  0  0  0  0  0  0  0
    1.6510    0.9536    0.2423 C   0  0  0  0  0  0  0  0  0  0  0  0
    1.3378   -0.5945   -2.4908 H   0  0  0  0  0  0  0  0  0  0  0  0
   -0.4248   -0.5945   -2.4908 H   0  0  0  0  0  0  0  0  0  0  0  0
    0.4565   -2.1280   -2.4963 H   0  0  0  0  0  0  0  0  0  0  0  0
   -0.5954   -1.7596   -0.1391 H   0  0  0  0  0  0  0  0  0  0  0  0
    1.3332   -1.6513   -0.2117 H   0  0  0  0  0  0  0  0  0  0  0  0
   -1.6789    0.4465    0.0585 H   0  0  0  0  0  0  0  0  0  0  0  0
   -1.6821    2.7555    0.9131 H   0  0  0  0  0  0  0  0  0  0  0  0
    0.4565    3.9235    1.3434 H   0  0  0  0  0  0  0  0  0  0  0  0
    2.5951    2.7555    0.9131 H   0  0  0  0  0  0  0  0  0  0  0  0
    2.5919    0.4465    0.0585 H   0  0  0  0  0  0  0  0  0  0  0  0
  1  2  1  0
  1  3  1  0
  1  4  1  0
  1  5  1  0
  2  6  1  0
  2  7  1  0
  2 19  1  0
  8  9  1  0
  8 16  1  0
  8 17  1  0
  8 18  1  0
  9 10  2  3
  9 20  1  0
 10 11  1  0
 10 15  1  0
 11 12  1  0
 11 21  1  0
 12 13  2  0
 12 22  1  0
 13 14  1  0
 13 23  1  0
 14 15  2  0
 14 24  1  0
 15 25  1  0
M  RAD  1  11   2
M  END
>  <reaction>  (14) 
rxn_1479

>  <mol_properties>  (14) 
{"0": {"label": "*4", "atom_type": "Cs"}, "1": {"label": "*3", "atom_type": "Cs"}, "8": {"label": "*1", "atom_type": "Cs"}, "9": {"label": "*0", "atom_type": "Cd"}, "18": {"label": "*2", "atom_type": "H0"}}

>  <type>  (14) 
unop_10

>  <geom_source>  (14) 
Heuristics

$$$$

     RDKit          3D

 25 24  0  0  0  0  0  0  0  0999 V2000
   -2.0624   -2.0846    1.4366 C   0  0  0  0  0  0  0  0  0  0  0  0
   -1.5938   -2.6291    0.0939 C   0  0  0  0  0  0  0  0  0  0  0  0
   -2.5513   -2.8598    2.0293 H   0  0  0  0  0  0  0  0  0  0  0  0
   -2.7762   -1.2694    1.3058 H   0  0  0  0  0  0  0  0  0  0  0  0
   -1.2253   -1.7000    2.0217 H   0  0  0  0  0  0  0  0  0  0  0  0
   -2.4310   -3.0137   -0.4913 H   0  0  0  0  0  0  0  0  0  0  0  0
   -0.8800   -3.4443    0.2247 H   0  0  0  0  0  0  0  0  0  0  0  0
    0.5090   -1.3298   -2.3063 C   0  0  0  0  0  0  0  0  0  0  0  0
    0.5090   -1.3298   -0.7772 C   0  0  0  0  0  0  0  0  0  0  0  0
    0.5090    0.0645   -0.2077 C   0  0  0  0  0  0  0  0  0  0  0  0
   -0.6855    0.7334    0.0400 C   0  0  0  0  0  3  0  0  0  0  0  0
   -0.6888    2.0337    0.5209 C   0  0  0  0  0  0  0  0  0  0  0  0
    0.5090    2.6890    0.7627 C   0  0  0  0  0  0  0  0  0  0  0  0
    1.7068    2.0337    0.5209 C   0  0  0  0  0  0  0  0  0  0  0  0
    1.7035    0.7334    0.0400 C   0  0  0  0  0  0  0  0  0  0  0  0
    1.3903   -0.8147   -2.6931 H   0  0  0  0  0  0  0  0  0  0  0  0
   -0.3723   -0.8147   -2.6931 H   0  0  0  0  0  0  0  0  0  0  0  0
    0.5090   -2.3482   -2.6986 H   0  0  0  0  0  0  0  0  0  0  0  0
   -0.5430   -1.9798   -0.3414 H   0  0  0  0  0  0  0  0  0  0  0  0
    1.3856   -1.8714   -0.4140 H   0  0  0  0  0  0  0  0  0  0  0  0
   -1.6264    0.2263   -0.1438 H   0  0  0  0  0  0  0  0  0  0  0  0
   -1.6296    2.5354    0.7108 H   0  0  0  0  0  0  0  0  0  0  0  0
    0.5090    3.7034    1.1411 H   0  0  0  0  0  0  0  0  0  0  0  0
    2.6476    2.5354    0.7108 H   0  0  0  0  0  0  0  0  0  0  0  0
    2.6444    0.2263   -0.1438 H   0  0  0  0  0  0  0  0  0  0  0  0
  1  2  1  0
  1  3  1  0
  1  4  1  0
  1  5  1  0
  2  6  1  0
  2  7  1  0
  2 19  1  0
  8  9  1  0
  8 16  1  0
  8 17  1  0
  8 18  1  0
  9 10  2  3
  9 20  1  0
 10 11  1  0
 10 15  1  0
 11 12  1  0
 11 21  1  0
 12 13  2  0
 12 22  1  0
 13 14  1  0
 13 23  1  0
 14 15  2  0
 14 24  1  0
 15 25  1  0
M  RAD  1  11   2
M  END
>  <reaction>  (15) 
rxn_1479

>  <mol_properties>  (15) 
{"0": {"label": "*4", "atom_type": "Cs"}, "1": {"label": "*3", "atom_type": "Cs"}, "8": {"label": "*1", "atom_type": "Cs"}, "9": {"label": "*0", "atom_type": "Cd"}, "18": {"label": "*2", "atom_type": "H0"}}

>  <type>  (15) 
unop_11

>  <geom_source>  (15) 
Heuristics

$$$$

     RDKit          3D

 25 24  0  0  0  0  0  0  0  0999 V2000
   -2.3935   -3.0340   -0.7816 C   0  0  0  0  0  0  0  0  0  0  0  0
   -1.5491   -2.5123    0.3733 C   0  0  0  0  0  0  0  0  0  0  0  0
   -3.2692   -3.5751   -0.4188 H   0  0  0  0  0  0  0  0  0  0  0  0
   -1.8219   -3.7163   -1.4132 H   0  0  0  0  0  0  0  0  0  0  0  0
   -2.7479   -2.2176   -1.4133 H   0  0  0  0  0  0  0  0  0  0  0  0
   -1.1947   -3.3287    1.0050 H   0  0  0  0  0  0  0  0  0  0  0  0
   -2.1208   -1.8301    1.0050 H   0  0  0  0  0  0  0  0  0  0  0  0
    0.5537   -1.2130   -2.0269 C   0  0  0  0  0  0  0  0  0  0  0  0
    0.5537   -1.2130   -0.4977 C   0  0  0  0  0  0  0  0  0  0  0  0
    0.5537    0.1813    0.0717 C   0  0  0  0  0  0  0  0  0  0  0  0
   -0.6409    0.8503    0.3194 C   0  0  0  0  0  3  0  0  0  0  0  0
   -0.6442    2.1505    0.8003 C   0  0  0  0  0  0  0  0  0  0  0  0
    0.5537    2.8058    1.0421 C   0  0  0  0  0  0  0  0  0  0  0  0
    1.7515    2.1505    0.8003 C   0  0  0  0  0  0  0  0  0  0  0  0
    1.7482    0.8503    0.3194 C   0  0  0  0  0  0  0  0  0  0  0  0
    1.4349   -0.6979   -2.4137 H   0  0  0  0  0  0  0  0  0  0  0  0
   -0.3276   -0.6979   -2.4137 H   0  0  0  0  0  0  0  0  0  0  0  0
    0.5537   -2.2314   -2.4192 H   0  0  0  0  0  0  0  0  0  0  0  0
   -0.4983   -1.8630   -0.0620 H   0  0  0  0  0  0  0  0  0  0  0  0
    1.4303   -1.7546   -0.1346 H   0  0  0  0  0  0  0  0  0  0  0  0
   -1.5818    0.3431    0.1357 H   0  0  0  0  0  0  0  0  0  0  0  0
   -1.5849    2.6522    0.9902 H   0  0  0  0  0  0  0  0  0  0  0  0
    0.5536    3.8202    1.4205 H   0  0  0  0  0  0  0  0  0  0  0  0
    2.6922    2.6522    0.9902 H   0  0  0  0  0  0  0  0  0  0  0  0
    2.6891    0.3431    0.1357 H   0  0  0  0  0  0  0  0  0  0  0  0
  1  2  1  0
  1  3  1  0
  1  4  1  0
  1  5  1  0
  2  6  1  0
  2  7  1  0
  2 19  1  0
  8  9  1  0
  8 16  1  0
  8 17  1  0
  8 18  1  0
  9 10  2  3
  9 20  1  0
 10 11  1  0
 10 15  1  0
 11 12  1  0
 11 21  1  0
 12 13  2  0
 12 22  1  0
 13 14  1  0
 13 23  1  0
 14 15  2  0
 14 24  1  0
 15 25  1  0
M  RAD  1  11   2
M  END
>  <reaction>  (16) 
rxn_1479

>  <mol_properties>  (16) 
{"0": {"label": "*4", "atom_type": "Cs"}, "1": {"label": "*3", "atom_type": "Cs"}, "8": {"label": "*1", "atom_type": "Cs"}, "9": {"label": "*0", "atom_type": "Cd"}, "18": {"label": "*2", "atom_type": "H0"}}

>  <type>  (16) 
unop_12

>  <geom_source>  (16) 
Heuristics

$$$$

     RDKit          3D

 25 24  0  0  0  0  0  0  0  0999 V2000
   -3.1180    0.2826   -0.4333 C   0  0  0  0  0  0  0  0  0  0  0  0
   -1.9889   -0.6743   -0.7727 C   0  0  0  0  0  0  0  0  0  0  0  0
    0.7561   -2.2792    1.2851 C   0  0  0  0  0  0  0  0  0  0  0  0
    0.6932    0.0445    0.3762 C   0  0  0  0  0  0  0  0  0  0  0  0
   -0.1061   -1.0545    1.0088 C   0  0  0  0  0  0  0  0  0  0  0  0
    0.6648    0.2102   -1.0156 C   0  0  0  0  0  3  0  0  0  0  0  0
    1.4949    0.8903    1.1597 C   0  0  0  0  0  0  0  0  0  0  0  0
    1.4222    1.2201   -1.6181 C   0  0  0  0  0  0  0  0  0  0  0  0
    2.2138    2.0646   -0.8338 C   0  0  0  0  0  0  0  0  0  0  0  0
    2.2509    1.8991    0.5540 C   0  0  0  0  0  0  0  0  0  0  0  0
   -2.7004    1.2179   -0.0052 H   0  0  0  0  0  0  0  0  0  0  0  0
   -3.6944    0.5264   -1.3505 H   0  0  0  0  0  0  0  0  0  0  0  0
   -3.7960   -0.1865    0.3101 H   0  0  0  0  0  0  0  0  0  0  0  0
   -2.4045   -1.6114   -1.1994 H   0  0  0  0  0  0  0  0  0  0  0  0
   -1.3084   -0.2063   -1.5148 H   0  0  0  0  0  0  0  0  0  0  0  0
   -1.3369   -0.9484    0.2722 H   0  0  0  0  0  0  0  0  0  0  0  0
    1.2072   -2.6496    0.3402 H   0  0  0  0  0  0  0  0  0  0  0  0
    0.1237   -3.0830    1.7158 H   0  0  0  0  0  0  0  0  0  0  0  0
    1.5623   -2.0301    2.0077 H   0  0  0  0  0  0  0  0  0  0  0  0
   -0.5905   -0.7010    1.9447 H   0  0  0  0  0  0  0  0  0  0  0  0
    0.0580   -0.4418   -1.6319 H   0  0  0  0  0  0  0  0  0  0  0  0
    1.3967    1.3470   -2.6926 H   0  0  0  0  0  0  0  0  0  0  0  0
    1.5338    0.7671    2.2349 H   0  0  0  0  0  0  0  0  0  0  0  0
    2.7999    2.8452   -1.3014 H   0  0  0  0  0  0  0  0  0  0  0  0
    2.8666    2.5512    1.1600 H   0  0  0  0  0  0  0  0  0  0  0  0
  1  2  1  0
  1 11  1  0
  1 12  1  0
  1 13  1  0
  2 14  1  0
  2 15  1  0
  2 16  1  0
  3  5  1  0
  3 17  1  0
  3 18  1  0
  3 19  1  0
  4  5  2  3
  4  6  1  0
  4  7  1  0
  5 20  1  0
  6  8  1  0
  6 21  1  0
  7 10  2  0
  7 23  1  0
  8  9  2  0
  8 22  1  0
  9 10  1  0
  9 24  1  0
 10 25  1  0
M  RAD  1   6   2
M  END
>  <reaction>  (17) 
rxn_1479

>  <mol_properties>  (17) 
{"0": {"label": "*4", "atom_type": "Cs"}, "1": {"label": "*3", "atom_type": "Cs"}, "8": {"label": "*1", "atom_type": "Cs"}, "9": {"label": "*0", "atom_type": "Cd"}, "18": {"label": "*2", "atom_type": "H0"}}

>  <type>  (17) 
unop_13

>  <geom_source>  (17) 
AutoTST

$$$$
