
     RDKit          3D

 10  9  0  0  0  0  0  0  0  0999 V2000
    2.2738    0.0217   -0.0992 C   0  0  0  0  0  0  0  0  0  0  0  0
    1.1083    0.2960   -0.0695 C   0  0  0  0  0  0  0  0  0  0  0  0
   -0.3173    0.6046   -0.0227 C   0  0  0  0  0  0  0  0  0  0  0  0
   -1.1561   -0.5495    0.5292 C   0  0  0  0  0  0  0  0  0  0  0  0
    3.3097   -0.2166   -0.1277 H   0  0  0  0  0  0  0  0  0  0  0  0
   -0.6542    0.8617   -1.0302 H   0  0  0  0  0  0  0  0  0  0  0  0
   -0.4633    1.4978    0.5900 H   0  0  0  0  0  0  0  0  0  0  0  0
   -0.8485   -0.7997    1.5447 H   0  0  0  0  0  0  0  0  0  0  0  0
   -2.2115   -0.2752    0.5459 H   0  0  0  0  0  0  0  0  0  0  0  0
   -1.0409   -1.4407   -0.0879 H   0  0  0  0  0  0  0  0  0  0  0  0
  1  2  3  0
  1  5  1  0
  2  3  1  0
  3  4  1  0
  3  6  1  0
  3  7  1  0
  4  8  1  0
  4  9  1  0
  4 10  1  0
M  END
>  <reaction>  (1) 
rxn_1258

>  <mol_properties>  (1) 
{"2": {"label": "donator", "atom_type": "Cs"}, "5": {"label": "d_hydrogen", "atom_type": "H0"}}

>  <type>  (1) 
r1h

$$$$

     RDKit          3D

  4  3  0  0  0  0  0  0  0  0999 V2000
    0.0000    0.0000    0.0000 C   0  0  0  0  0  3  0  0  0  0  0  0
    1.0638   -0.1747    0.0540 H   0  0  0  0  0  0  0  0  0  0  0  0
   -0.6833   -0.8351   -0.0280 H   0  0  0  0  0  0  0  0  0  0  0  0
   -0.3805    1.0098   -0.0260 H   0  0  0  0  0  0  0  0  0  0  0  0
  1  2  1  0
  1  3  1  0
  1  4  1  0
M  RAD  1   1   2
M  END
>  <reaction>  (2) 
rxn_1258

>  <mol_properties>  (2) 
{"0": {"label": "acceptor", "atom_type": "Cs"}}

>  <type>  (2) 
r2

$$$$

     RDKit          3D

  5  4  0  0  0  0  0  0  0  0999 V2000
    0.0000    0.0000    0.0000 C   0  0  0  0  0  0  0  0  0  0  0  0
   -0.6486   -0.7720   -0.4113 H   0  0  0  0  0  0  0  0  0  0  0  0
   -0.3482    0.9787   -0.3267 H   0  0  0  0  0  0  0  0  0  0  0  0
   -0.0223   -0.0487    1.0876 H   0  0  0  0  0  0  0  0  0  0  0  0
    1.0191   -0.1580   -0.3496 H   0  0  0  0  0  0  0  0  0  0  0  0
  1  2  1  0
  1  3  1  0
  1  4  1  0
  1  5  1  0
M  END
>  <reaction>  (3) 
rxn_1258

>  <mol_properties>  (3) 
{"0": {"label": "a_hydrogen", "atom_type": "H0"}, "1": {"label": "acceptor", "atom_type": "Cs"}}

>  <type>  (3) 
r2h

$$$$

     RDKit          3D

 14 12  0  0  0  0  0  0  0  0999 V2000
   -0.2846   -0.0384   -2.2243 C   0  0  0  0  0  0  0  0  0  0  0  0
   -0.4369   -0.0152   -1.0331 C   0  0  0  0  0  0  0  0  0  0  0  0
   -0.5626    0.0057    0.3960 C   0  0  0  0  0  0  0  0  0  0  0  0
   -0.5014    1.3752    1.0457 C   0  0  0  0  0  0  0  0  0  0  0  0
   -0.1638   -0.0570   -3.2805 H   0  0  0  0  0  0  0  0  0  0  0  0
    0.4282   -0.6368    0.8542 H   0  0  0  0  0  0  0  0  0  0  0  0
   -1.4105   -0.5897    0.7365 H   0  0  0  0  0  0  0  0  0  0  0  0
   -1.3534    1.9904    0.7490 H   0  0  0  0  0  0  0  0  0  0  0  0
   -0.5109    1.2789    2.1323 H   0  0  0  0  0  0  0  0  0  0  0  0
    0.4091    1.8995    0.7538 H   0  0  0  0  0  0  0  0  0  0  0  0
    1.5778   -1.2919    1.4161 C   0  0  0  0  0  3  0  0  0  0  0  0
    2.3724   -0.5727    1.2474 H   0  0  0  0  0  0  0  0  0  0  0  0
    1.6480   -2.1950    0.8196 H   0  0  0  0  0  0  0  0  0  0  0  0
    1.3179   -1.4490    2.4577 H   0  0  0  0  0  0  0  0  0  0  0  0
  1  2  3  0
  1  5  1  0
  2  3  1  0
  3  4  1  0
  3  6  1  0
  3  7  1  0
  4  8  1  0
  4  9  1  0
  4 10  1  0
 11 12  1  0
 11 13  1  0
 11 14  1  0
M  RAD  1  11   2
M  END
>  <reaction>  (4) 
rxn_1258

>  <mol_properties>  (4) 
{"1": {"label": "*0", "atom_type": "Ct"}, "2": {"label": "*1", "atom_type": "Cs"}, "5": {"label": "*2", "atom_type": "H0"}, "10": {"label": "*3", "atom_type": "Cs"}, "11": {"label": "*4", "atom_type": "H0"}}

>  <type>  (4) 
ts

$$$$

     RDKit          3D

 14 12  0  0  0  0  0  0  0  0999 V2000
   -0.4659   -0.0346   -2.2314 C   0  0  0  0  0  0  0  0  0  0  0  0
   -0.4659   -0.0346   -1.0337 C   0  0  0  0  0  0  0  0  0  0  0  0
   -0.4659   -0.0064    0.4255 C   0  0  0  0  0  3  0  0  0  0  0  0
   -0.4658    1.4150    0.9911 C   0  0  0  0  0  0  0  0  0  0  0  0
   -0.4659   -0.0346   -3.2947 H   0  0  0  0  0  0  0  0  0  0  0  0
    0.5847   -0.6605    0.8595 H   0  0  0  0  0  0  0  0  0  0  0  0
   -1.3414   -0.5515    0.7872 H   0  0  0  0  0  0  0  0  0  0  0  0
   -1.3481    1.9629    0.6596 H   0  0  0  0  0  0  0  0  0  0  0  0
   -0.4658    1.3877    2.0813 H   0  0  0  0  0  0  0  0  0  0  0  0
    0.4164    1.9628    0.6596 H   0  0  0  0  0  0  0  0  0  0  0  0
    1.6315   -1.3122    1.2920 C   0  0  0  0  0  0  0  0  0  0  0  0
    2.2570   -0.6440    1.8819 H   0  0  0  0  0  0  0  0  0  0  0  0
    2.2270   -2.1558    0.9462 H   0  0  0  0  0  0  0  0  0  0  0  0
    0.8971   -1.5902    2.0464 H   0  0  0  0  0  0  0  0  0  0  0  0
  1  2  3  0
  1  5  1  0
  2  3  1  0
  3  4  1  0
  3  7  1  0
  4  8  1  0
  4  9  1  0
  4 10  1  0
  6 11  1  0
 11 12  1  0
 11 13  1  0
 11 14  1  0
M  RAD  1   3   2
M  END
>  <reaction>  (5) 
rxn_1258

>  <mol_properties>  (5) 
{"1": {"label": "*0", "atom_type": "Ct"}, "2": {"label": "*1", "atom_type": "Cs"}, "5": {"label": "*2", "atom_type": "H0"}, "10": {"label": "*3", "atom_type": "Cs"}, "11": {"label": "*4", "atom_type": "H0"}}

>  <type>  (5) 
unop_1

>  <geom_source>  (5) 
Heuristics

$$$$

     RDKit          3D

 14 12  0  0  0  0  0  0  0  0999 V2000
   -0.4644   -0.0361   -2.2240 C   0  0  0  0  0  0  0  0  0  0  0  0
   -0.4644   -0.0361   -1.0263 C   0  0  0  0  0  0  0  0  0  0  0  0
   -0.4644   -0.0079    0.4329 C   0  0  0  0  0  3  0  0  0  0  0  0
   -0.4644    1.4135    0.9985 C   0  0  0  0  0  0  0  0  0  0  0  0
   -0.4644   -0.0361   -3.2873 H   0  0  0  0  0  0  0  0  0  0  0  0
    0.5862   -0.6620    0.8669 H   0  0  0  0  0  0  0  0  0  0  0  0
   -1.3400   -0.5529    0.7946 H   0  0  0  0  0  0  0  0  0  0  0  0
   -1.3467    1.9614    0.6670 H   0  0  0  0  0  0  0  0  0  0  0  0
   -0.4644    1.3862    2.0887 H   0  0  0  0  0  0  0  0  0  0  0  0
    0.4178    1.9614    0.6670 H   0  0  0  0  0  0  0  0  0  0  0  0
    1.6329   -1.3137    1.2994 C   0  0  0  0  0  0  0  0  0  0  0  0
    2.4391   -1.2292    0.5722 H   0  0  0  0  0  0  0  0  0  0  0  0
    1.5911   -2.3338    1.6780 H   0  0  0  0  0  0  0  0  0  0  0  0
    1.2586   -0.7313    2.1399 H   0  0  0  0  0  0  0  0  0  0  0  0
  1  2  3  0
  1  5  1  0
  2  3  1  0
  3  4  1  0
  3  7  1  0
  4  8  1  0
  4  9  1  0
  4 10  1  0
  6 11  1  0
 11 12  1  0
 11 13  1  0
 11 14  1  0
M  RAD  1   3   2
M  END
>  <reaction>  (6) 
rxn_1258

>  <mol_properties>  (6) 
{"1": {"label": "*0", "atom_type": "Ct"}, "2": {"label": "*1", "atom_type": "Cs"}, "5": {"label": "*2", "atom_type": "H0"}, "10": {"label": "*3", "atom_type": "Cs"}, "11": {"label": "*4", "atom_type": "H0"}}

>  <type>  (6) 
unop_2

>  <geom_source>  (6) 
Heuristics

$$$$

     RDKit          3D

 14 12  0  0  0  0  0  0  0  0999 V2000
   -0.4673   -0.0312   -2.2304 C   0  0  0  0  0  0  0  0  0  0  0  0
   -0.4673   -0.0312   -1.0327 C   0  0  0  0  0  0  0  0  0  0  0  0
   -0.4673   -0.0030    0.4264 C   0  0  0  0  0  3  0  0  0  0  0  0
   -0.4673    1.4184    0.9920 C   0  0  0  0  0  0  0  0  0  0  0  0
   -0.4673   -0.0312   -3.2938 H   0  0  0  0  0  0  0  0  0  0  0  0
    0.5833   -0.6571    0.8605 H   0  0  0  0  0  0  0  0  0  0  0  0
   -1.3428   -0.5481    0.7881 H   0  0  0  0  0  0  0  0  0  0  0  0
   -1.3495    1.9663    0.6606 H   0  0  0  0  0  0  0  0  0  0  0  0
   -0.4673    1.3911    2.0823 H   0  0  0  0  0  0  0  0  0  0  0  0
    0.4150    1.9662    0.6606 H   0  0  0  0  0  0  0  0  0  0  0  0
    1.6301   -1.3088    1.2929 C   0  0  0  0  0  0  0  0  0  0  0  0
    1.9530   -0.8871    2.2435 H   0  0  0  0  0  0  0  0  0  0  0  0
    2.4963   -1.6811    0.7480 H   0  0  0  0  0  0  0  0  0  0  0  0
    1.0252   -2.0446    1.8206 H   0  0  0  0  0  0  0  0  0  0  0  0
  1  2  3  0
  1  5  1  0
  2  3  1  0
  3  4  1  0
  3  7  1  0
  4  8  1  0
  4  9  1  0
  4 10  1  0
  6 11  1  0
 11 12  1  0
 11 13  1  0
 11 14  1  0
M  RAD  1   3   2
M  END
>  <reaction>  (7) 
rxn_1258

>  <mol_properties>  (7) 
{"1": {"label": "*0", "atom_type": "Ct"}, "2": {"label": "*1", "atom_type": "Cs"}, "5": {"label": "*2", "atom_type": "H0"}, "10": {"label": "*3", "atom_type": "Cs"}, "11": {"label": "*4", "atom_type": "H0"}}

>  <type>  (7) 
unop_3

>  <geom_source>  (7) 
Heuristics

$$$$

     RDKit          3D

 14 12  0  0  0  0  0  0  0  0999 V2000
   -0.4635   -0.0362   -2.2275 C   0  0  0  0  0  0  0  0  0  0  0  0
   -0.4635   -0.0362   -1.0297 C   0  0  0  0  0  0  0  0  0  0  0  0
   -0.4635   -0.0080    0.4294 C   0  0  0  0  0  3  0  0  0  0  0  0
   -0.4635    1.4134    0.9950 C   0  0  0  0  0  0  0  0  0  0  0  0
   -0.4635   -0.0362   -3.2908 H   0  0  0  0  0  0  0  0  0  0  0  0
    0.5871   -0.6621    0.8635 H   0  0  0  0  0  0  0  0  0  0  0  0
   -1.3390   -0.5530    0.7911 H   0  0  0  0  0  0  0  0  0  0  0  0
   -1.3457    1.9613    0.6635 H   0  0  0  0  0  0  0  0  0  0  0  0
   -0.4635    1.3861    2.0853 H   0  0  0  0  0  0  0  0  0  0  0  0
    0.4187    1.9613    0.6635 H   0  0  0  0  0  0  0  0  0  0  0  0
    1.6338   -1.3138    1.2959 C   0  0  0  0  0  0  0  0  0  0  0  0
    1.5899   -2.3441    0.9463 H   0  0  0  0  0  0  0  0  0  0  0  0
    1.1060   -1.2296    2.2447 H   0  0  0  0  0  0  0  0  0  0  0  0
    2.5332   -0.7135    1.4250 H   0  0  0  0  0  0  0  0  0  0  0  0
  1  2  3  0
  1  5  1  0
  2  3  1  0
  3  4  1  0
  3  7  1  0
  4  8  1  0
  4  9  1  0
  4 10  1  0
  6 11  1  0
 11 12  1  0
 11 13  1  0
 11 14  1  0
M  RAD  1   3   2
M  END
>  <reaction>  (8) 
rxn_1258

>  <mol_properties>  (8) 
{"1": {"label": "*0", "atom_type": "Ct"}, "2": {"label": "*1", "atom_type": "Cs"}, "5": {"label": "*2", "atom_type": "H0"}, "10": {"label": "*3", "atom_type": "Cs"}, "11": {"label": "*4", "atom_type": "H0"}}

>  <type>  (8) 
unop_4

>  <geom_source>  (8) 
Heuristics

$$$$

     RDKit          3D

 14 12  0  0  0  0  0  0  0  0999 V2000
   -0.4718   -0.0325   -2.2284 C   0  0  0  0  0  0  0  0  0  0  0  0
   -0.4718   -0.0325   -1.0307 C   0  0  0  0  0  0  0  0  0  0  0  0
   -0.4718   -0.0043    0.4285 C   0  0  0  0  0  3  0  0  0  0  0  0
   -0.4718    1.4171    0.9941 C   0  0  0  0  0  0  0  0  0  0  0  0
   -0.4718   -0.0325   -3.2917 H   0  0  0  0  0  0  0  0  0  0  0  0
    0.5788   -0.6584    0.8625 H   0  0  0  0  0  0  0  0  0  0  0  0
   -1.3473   -0.5493    0.7902 H   0  0  0  0  0  0  0  0  0  0  0  0
   -1.3540    1.9650    0.6626 H   0  0  0  0  0  0  0  0  0  0  0  0
   -0.4718    1.3898    2.0843 H   0  0  0  0  0  0  0  0  0  0  0  0
    0.4105    1.9649    0.6626 H   0  0  0  0  0  0  0  0  0  0  0  0
    1.6256   -1.3101    1.2950 C   0  0  0  0  0  0  0  0  0  0  0  0
    1.6374   -1.2965    2.3838 H   0  0  0  0  0  0  0  0  0  0  0  0
    2.5301   -0.8365    0.9162 H   0  0  0  0  0  0  0  0  0  0  0  0
    1.6014   -2.3956    1.3781 H   0  0  0  0  0  0  0  0  0  0  0  0
  1  2  3  0
  1  5  1  0
  2  3  1  0
  3  4  1  0
  3  7  1  0
  4  8  1  0
  4  9  1  0
  4 10  1  0
  6 11  1  0
 11 12  1  0
 11 13  1  0
 11 14  1  0
M  RAD  1   3   2
M  END
>  <reaction>  (9) 
rxn_1258

>  <mol_properties>  (9) 
{"1": {"label": "*0", "atom_type": "Ct"}, "2": {"label": "*1", "atom_type": "Cs"}, "5": {"label": "*2", "atom_type": "H0"}, "10": {"label": "*3", "atom_type": "Cs"}, "11": {"label": "*4", "atom_type": "H0"}}

>  <type>  (9) 
unop_5

>  <geom_source>  (9) 
Heuristics

$$$$

     RDKit          3D

 14 12  0  0  0  0  0  0  0  0999 V2000
   -0.4657   -0.0366   -2.2297 C   0  0  0  0  0  0  0  0  0  0  0  0
   -0.4657   -0.0366   -1.0320 C   0  0  0  0  0  0  0  0  0  0  0  0
   -0.4657   -0.0083    0.4272 C   0  0  0  0  0  3  0  0  0  0  0  0
   -0.4656    1.4130    0.9928 C   0  0  0  0  0  0  0  0  0  0  0  0
   -0.4657   -0.0366   -3.2930 H   0  0  0  0  0  0  0  0  0  0  0  0
    0.5849   -0.6625    0.8612 H   0  0  0  0  0  0  0  0  0  0  0  0
   -1.3412   -0.5534    0.7889 H   0  0  0  0  0  0  0  0  0  0  0  0
   -1.3479    1.9609    0.6613 H   0  0  0  0  0  0  0  0  0  0  0  0
   -0.4656    1.3857    2.0830 H   0  0  0  0  0  0  0  0  0  0  0  0
    0.4166    1.9609    0.6613 H   0  0  0  0  0  0  0  0  0  0  0  0
    1.6317   -1.3142    1.2937 C   0  0  0  0  0  0  0  0  0  0  0  0
    1.3749   -2.3635    1.4306 H   0  0  0  0  0  0  0  0  0  0  0  0
    1.2908   -0.7417    2.1550 H   0  0  0  0  0  0  0  0  0  0  0  0
    2.7029   -1.1568    1.1773 H   0  0  0  0  0  0  0  0  0  0  0  0
  1  2  3  0
  1  5  1  0
  2  3  1  0
  3  4  1  0
  3  7  1  0
  4  8  1  0
  4  9  1  0
  4 10  1  0
  6 11  1  0
 11 12  1  0
 11 13  1  0
 11 14  1  0
M  RAD  1   3   2
M  END
>  <reaction>  (10) 
rxn_1258

>  <mol_properties>  (10) 
{"1": {"label": "*0", "atom_type": "Ct"}, "2": {"label": "*1", "atom_type": "Cs"}, "5": {"label": "*2", "atom_type": "H0"}, "10": {"label": "*3", "atom_type": "Cs"}, "11": {"label": "*4", "atom_type": "H0"}}

>  <type>  (10) 
unop_6

>  <geom_source>  (10) 
Heuristics

$$$$

     RDKit          3D

 14 12  0  0  0  0  0  0  0  0999 V2000
   -0.4685   -0.0376   -2.2309 C   0  0  0  0  0  0  0  0  0  0  0  0
   -0.4685   -0.0376   -1.0332 C   0  0  0  0  0  0  0  0  0  0  0  0
   -0.4685   -0.0093    0.4260 C   0  0  0  0  0  3  0  0  0  0  0  0
   -0.4685    1.4120    0.9916 C   0  0  0  0  0  0  0  0  0  0  0  0
   -0.4685   -0.0376   -3.2942 H   0  0  0  0  0  0  0  0  0  0  0  0
    0.5821   -0.6634    0.8600 H   0  0  0  0  0  0  0  0  0  0  0  0
   -1.3440   -0.5544    0.7877 H   0  0  0  0  0  0  0  0  0  0  0  0
   -1.3507    1.9599    0.6601 H   0  0  0  0  0  0  0  0  0  0  0  0
   -0.4685    1.3848    2.0819 H   0  0  0  0  0  0  0  0  0  0  0  0
    0.4137    1.9599    0.6601 H   0  0  0  0  0  0  0  0  0  0  0  0
    1.6288   -1.3152    1.2925 C   0  0  0  0  0  0  0  0  0  0  0  0
    1.3059   -2.1508    1.9115 H   0  0  0  0  0  0  0  0  0  0  0  0
    1.6131   -0.3996    1.8818 H   0  0  0  0  0  0  0  0  0  0  0  0
    2.6368   -1.6467    1.0475 H   0  0  0  0  0  0  0  0  0  0  0  0
  1  2  3  0
  1  5  1  0
  2  3  1  0
  3  4  1  0
  3  7  1  0
  4  8  1  0
  4  9  1  0
  4 10  1  0
  6 11  1  0
 11 12  1  0
 11 13  1  0
 11 14  1  0
M  RAD  1   3   2
M  END
>  <reaction>  (11) 
rxn_1258

>  <mol_properties>  (11) 
{"1": {"label": "*0", "atom_type": "Ct"}, "2": {"label": "*1", "atom_type": "Cs"}, "5": {"label": "*2", "atom_type": "H0"}, "10": {"label": "*3", "atom_type": "Cs"}, "11": {"label": "*4", "atom_type": "H0"}}

>  <type>  (11) 
unop_7

>  <geom_source>  (11) 
Heuristics

$$$$

     RDKit          3D

 14 12  0  0  0  0  0  0  0  0999 V2000
   -0.4664   -0.0371   -2.2295 C   0  0  0  0  0  0  0  0  0  0  0  0
   -0.4664   -0.0371   -1.0318 C   0  0  0  0  0  0  0  0  0  0  0  0
   -0.4664   -0.0089    0.4274 C   0  0  0  0  0  3  0  0  0  0  0  0
   -0.4664    1.4125    0.9930 C   0  0  0  0  0  0  0  0  0  0  0  0
   -0.4664   -0.0371   -3.2928 H   0  0  0  0  0  0  0  0  0  0  0  0
    0.5842   -0.6630    0.8614 H   0  0  0  0  0  0  0  0  0  0  0  0
   -1.3419   -0.5540    0.7891 H   0  0  0  0  0  0  0  0  0  0  0  0
   -1.3486    1.9603    0.6615 H   0  0  0  0  0  0  0  0  0  0  0  0
   -0.4664    1.3852    2.0833 H   0  0  0  0  0  0  0  0  0  0  0  0
    0.4159    1.9603    0.6615 H   0  0  0  0  0  0  0  0  0  0  0  0
    1.6310   -1.3147    1.2939 C   0  0  0  0  0  0  0  0  0  0  0  0
    2.4693   -0.6275    1.3972 H   0  0  0  0  0  0  0  0  0  0  0  0
    2.0050   -2.3346    1.2178 H   0  0  0  0  0  0  0  0  0  0  0  0
    0.9406   -1.2626    2.1343 H   0  0  0  0  0  0  0  0  0  0  0  0
  1  2  3  0
  1  5  1  0
  2  3  1  0
  3  4  1  0
  3  7  1  0
  4  8  1  0
  4  9  1  0
  4 10  1  0
  6 11  1  0
 11 12  1  0
 11 13  1  0
 11 14  1  0
M  RAD  1   3   2
M  END
>  <reaction>  (12) 
rxn_1258

>  <mol_properties>  (12) 
{"1": {"label": "*0", "atom_type": "Ct"}, "2": {"label": "*1", "atom_type": "Cs"}, "5": {"label": "*2", "atom_type": "H0"}, "10": {"label": "*3", "atom_type": "Cs"}, "11": {"label": "*4", "atom_type": "H0"}}

>  <type>  (12) 
unop_8

>  <geom_source>  (12) 
Heuristics

$$$$

     RDKit          3D

 14 12  0  0  0  0  0  0  0  0999 V2000
   -0.4621   -0.0360   -2.2253 C   0  0  0  0  0  0  0  0  0  0  0  0
   -0.4621   -0.0360   -1.0276 C   0  0  0  0  0  0  0  0  0  0  0  0
   -0.4621   -0.0078    0.4315 C   0  0  0  0  0  3  0  0  0  0  0  0
   -0.4621    1.4136    0.9971 C   0  0  0  0  0  0  0  0  0  0  0  0
   -0.4621   -0.0360   -3.2886 H   0  0  0  0  0  0  0  0  0  0  0  0
    0.5885   -0.6619    0.8656 H   0  0  0  0  0  0  0  0  0  0  0  0
   -1.3376   -0.5528    0.7933 H   0  0  0  0  0  0  0  0  0  0  0  0
   -1.3443    1.9615    0.6657 H   0  0  0  0  0  0  0  0  0  0  0  0
   -0.4621    1.3863    2.0874 H   0  0  0  0  0  0  0  0  0  0  0  0
    0.4202    1.9615    0.6657 H   0  0  0  0  0  0  0  0  0  0  0  0
    1.6353   -1.3136    1.2981 C   0  0  0  0  0  0  0  0  0  0  0  0
    1.8939   -2.0974    0.5877 H   0  0  0  0  0  0  0  0  0  0  0  0
    1.1091   -1.7508    2.1453 H   0  0  0  0  0  0  0  0  0  0  0  0
    2.1300   -0.4516    1.7430 H   0  0  0  0  0  0  0  0  0  0  0  0
  1  2  3  0
  1  5  1  0
  2  3  1  0
  3  4  1  0
  3  7  1  0
  4  8  1  0
  4  9  1  0
  4 10  1  0
  6 11  1  0
 11 12  1  0
 11 13  1  0
 11 14  1  0
M  RAD  1   3   2
M  END
>  <reaction>  (13) 
rxn_1258

>  <mol_properties>  (13) 
{"1": {"label": "*0", "atom_type": "Ct"}, "2": {"label": "*1", "atom_type": "Cs"}, "5": {"label": "*2", "atom_type": "H0"}, "10": {"label": "*3", "atom_type": "Cs"}, "11": {"label": "*4", "atom_type": "H0"}}

>  <type>  (13) 
unop_9

>  <geom_source>  (13) 
Heuristics

$$$$

     RDKit          3D

 14 12  0  0  0  0  0  0  0  0999 V2000
   -0.4662   -0.0373   -2.2263 C   0  0  0  0  0  0  0  0  0  0  0  0
   -0.4662   -0.0373   -1.0286 C   0  0  0  0  0  0  0  0  0  0  0  0
   -0.4662   -0.0090    0.4306 C   0  0  0  0  0  3  0  0  0  0  0  0
   -0.4662    1.4123    0.9962 C   0  0  0  0  0  0  0  0  0  0  0  0
   -0.4662   -0.0373   -3.2896 H   0  0  0  0  0  0  0  0  0  0  0  0
    0.5844   -0.6631    0.8646 H   0  0  0  0  0  0  0  0  0  0  0  0
   -1.3417   -0.5541    0.7923 H   0  0  0  0  0  0  0  0  0  0  0  0
   -1.3484    1.9602    0.6647 H   0  0  0  0  0  0  0  0  0  0  0  0
   -0.4662    1.3851    2.0864 H   0  0  0  0  0  0  0  0  0  0  0  0
    0.4160    1.9602    0.6647 H   0  0  0  0  0  0  0  0  0  0  0  0
    1.6312   -1.3149    1.2971 C   0  0  0  0  0  0  0  0  0  0  0  0
    2.5356   -0.8413    0.9183 H   0  0  0  0  0  0  0  0  0  0  0  0
    1.8174   -2.3754    1.4592 H   0  0  0  0  0  0  0  0  0  0  0  0
    1.0516   -0.9998    2.1634 H   0  0  0  0  0  0  0  0  0  0  0  0
  1  2  3  0
  1  5  1  0
  2  3  1  0
  3  4  1  0
  3  7  1  0
  4  8  1  0
  4  9  1  0
  4 10  1  0
  6 11  1  0
 11 12  1  0
 11 13  1  0
 11 14  1  0
M  RAD  1   3   2
M  END
>  <reaction>  (14) 
rxn_1258

>  <mol_properties>  (14) 
{"1": {"label": "*0", "atom_type": "Ct"}, "2": {"label": "*1", "atom_type": "Cs"}, "5": {"label": "*2", "atom_type": "H0"}, "10": {"label": "*3", "atom_type": "Cs"}, "11": {"label": "*4", "atom_type": "H0"}}

>  <type>  (14) 
unop_10

>  <geom_source>  (14) 
Heuristics

$$$$

     RDKit          3D

 14 12  0  0  0  0  0  0  0  0999 V2000
   -0.4719   -0.0371   -2.2298 C   0  0  0  0  0  0  0  0  0  0  0  0
   -0.4719   -0.0371   -1.0321 C   0  0  0  0  0  0  0  0  0  0  0  0
   -0.4719   -0.0089    0.4270 C   0  0  0  0  0  3  0  0  0  0  0  0
   -0.4719    1.4125    0.9926 C   0  0  0  0  0  0  0  0  0  0  0  0
   -0.4719   -0.0371   -3.2931 H   0  0  0  0  0  0  0  0  0  0  0  0
    0.5787   -0.6630    0.8611 H   0  0  0  0  0  0  0  0  0  0  0  0
   -1.3474   -0.5539    0.7887 H   0  0  0  0  0  0  0  0  0  0  0  0
   -1.3541    1.9604    0.6612 H   0  0  0  0  0  0  0  0  0  0  0  0
   -0.4719    1.3852    2.0829 H   0  0  0  0  0  0  0  0  0  0  0  0
    0.4104    1.9604    0.6612 H   0  0  0  0  0  0  0  0  0  0  0  0
    1.6255   -1.3147    1.2936 C   0  0  0  0  0  0  0  0  0  0  0  0
    1.4009   -1.7613    2.2610 H   0  0  0  0  0  0  0  0  0  0  0  0
    2.0691   -0.3314    1.4419 H   0  0  0  0  0  0  0  0  0  0  0  0
    2.3061   -2.1345    1.0689 H   0  0  0  0  0  0  0  0  0  0  0  0
  1  2  3  0
  1  5  1  0
  2  3  1  0
  3  4  1  0
  3  7  1  0
  4  8  1  0
  4  9  1  0
  4 10  1  0
  6 11  1  0
 11 12  1  0
 11 13  1  0
 11 14  1  0
M  RAD  1   3   2
M  END
>  <reaction>  (15) 
rxn_1258

>  <mol_properties>  (15) 
{"1": {"label": "*0", "atom_type": "Ct"}, "2": {"label": "*1", "atom_type": "Cs"}, "5": {"label": "*2", "atom_type": "H0"}, "10": {"label": "*3", "atom_type": "Cs"}, "11": {"label": "*4", "atom_type": "H0"}}

>  <type>  (15) 
unop_11

>  <geom_source>  (15) 
Heuristics

$$$$

     RDKit          3D

 14 12  0  0  0  0  0  0  0  0999 V2000
   -0.4624   -0.0356   -2.2239 C   0  0  0  0  0  0  0  0  0  0  0  0
   -0.4624   -0.0356   -1.0262 C   0  0  0  0  0  0  0  0  0  0  0  0
   -0.4624   -0.0074    0.4330 C   0  0  0  0  0  3  0  0  0  0  0  0
   -0.4623    1.4140    0.9986 C   0  0  0  0  0  0  0  0  0  0  0  0
   -0.4624   -0.0356   -3.2872 H   0  0  0  0  0  0  0  0  0  0  0  0
    0.5882   -0.6615    0.8671 H   0  0  0  0  0  0  0  0  0  0  0  0
   -1.3379   -0.5524    0.7947 H   0  0  0  0  0  0  0  0  0  0  0  0
   -1.3446    1.9619    0.6671 H   0  0  0  0  0  0  0  0  0  0  0  0
   -0.4623    1.3867    2.0889 H   0  0  0  0  0  0  0  0  0  0  0  0
    0.4199    1.9619    0.6671 H   0  0  0  0  0  0  0  0  0  0  0  0
    1.6350   -1.3132    1.2995 C   0  0  0  0  0  0  0  0  0  0  0  0
    2.2048   -1.6889    0.4510 H   0  0  0  0  0  0  0  0  0  0  0  0
    1.3121   -2.1489    1.9185 H   0  0  0  0  0  0  0  0  0  0  0  0
    1.6344   -0.4887    2.0108 H   0  0  0  0  0  0  0  0  0  0  0  0
  1  2  3  0
  1  5  1  0
  2  3  1  0
  3  4  1  0
  3  7  1  0
  4  8  1  0
  4  9  1  0
  4 10  1  0
  6 11  1  0
 11 12  1  0
 11 13  1  0
 11 14  1  0
M  RAD  1   3   2
M  END
>  <reaction>  (16) 
rxn_1258

>  <mol_properties>  (16) 
{"1": {"label": "*0", "atom_type": "Ct"}, "2": {"label": "*1", "atom_type": "Cs"}, "5": {"label": "*2", "atom_type": "H0"}, "10": {"label": "*3", "atom_type": "Cs"}, "11": {"label": "*4", "atom_type": "H0"}}

>  <type>  (16) 
unop_12

>  <geom_source>  (16) 
Heuristics

$$$$

     RDKit          3D

 14 12  0  0  0  0  0  0  0  0999 V2000
    0.6056    1.5573   -0.2414 C   0  0  0  0  0  0  0  0  0  0  0  0
   -2.1204   -0.6805    0.1905 C   0  0  0  0  0  0  0  0  0  0  0  0
    0.3805    0.1252    0.2212 C   0  0  0  0  0  3  0  0  0  0  0  0
    1.5316   -0.7182   -0.1187 C   0  0  0  0  0  0  0  0  0  0  0  0
    2.4772   -1.4120   -0.3979 C   0  0  0  0  0  0  0  0  0  0  0  0
    1.4985    1.9911    0.2583 H   0  0  0  0  0  0  0  0  0  0  0  0
    0.7464    1.5865   -1.3429 H   0  0  0  0  0  0  0  0  0  0  0  0
   -0.2829    2.1698    0.0179 H   0  0  0  0  0  0  0  0  0  0  0  0
   -2.5122   -1.4491   -0.5071 H   0  0  0  0  0  0  0  0  0  0  0  0
   -2.2201   -1.0432    1.2342 H   0  0  0  0  0  0  0  0  0  0  0  0
   -2.6983    0.2586    0.0685 H   0  0  0  0  0  0  0  0  0  0  0  0
   -0.9304   -0.4667   -0.0589 H   0  0  0  0  0  0  0  0  0  0  0  0
    0.2170    0.1022    1.3193 H   0  0  0  0  0  0  0  0  0  0  0  0
    3.3073   -2.0209   -0.6430 H   0  0  0  0  0  0  0  0  0  0  0  0
  1  3  1  0
  1  6  1  0
  1  7  1  0
  1  8  1  0
  2  9  1  0
  2 10  1  0
  2 11  1  0
  2 12  1  0
  3  4  1  0
  3 13  1  0
  4  5  3  0
  5 14  1  0
M  RAD  1   3   2
M  END
>  <reaction>  (17) 
rxn_1258

>  <mol_properties>  (17) 
{"1": {"label": "*0", "atom_type": "Ct"}, "2": {"label": "*1", "atom_type": "Cs"}, "5": {"label": "*2", "atom_type": "H0"}, "10": {"label": "*3", "atom_type": "Cs"}, "11": {"label": "*4", "atom_type": "H0"}}

>  <type>  (17) 
unop_13

>  <geom_source>  (17) 
AutoTST

$$$$
