
     RDKit          3D

  7  6  0  0  0  0  0  0  0  0999 V2000
    1.6964   -0.0938    0.0583 C   0  0  0  0  0  0  0  0  0  0  0  0
    0.5019   -0.0278    0.0173 C   0  0  0  0  0  0  0  0  0  0  0  0
   -0.9505    0.0525   -0.0327 C   0  0  0  0  0  0  0  0  0  0  0  0
    2.7574   -0.1524    0.0947 H   0  0  0  0  0  0  0  0  0  0  0  0
   -1.2692    0.9972   -0.4754 H   0  0  0  0  0  0  0  0  0  0  0  0
   -1.3749   -0.0147    0.9700 H   0  0  0  0  0  0  0  0  0  0  0  0
   -1.3610   -0.7611   -0.6323 H   0  0  0  0  0  0  0  0  0  0  0  0
  1  2  3  0
  1  4  1  0
  2  3  1  0
  3  5  1  0
  3  6  1  0
  3  7  1  0
M  END
>  <reaction>  (1) 
rxn_1247

>  <mol_properties>  (1) 
{"2": {"label": "donator", "atom_type": "Cs"}, "4": {"label": "d_hydrogen", "atom_type": "H0"}}

>  <type>  (1) 
r1h

$$$$

     RDKit          3D

 10  9  0  0  0  0  0  0  0  0999 V2000
   -1.3354   -0.2069    0.0525 C   0  0  0  0  0  0  0  0  0  0  0  0
    0.0851    0.2624    0.0266 C   0  0  0  0  0  0  0  0  0  0  0  0
    0.4841    1.3876    0.7359 C   0  0  0  0  0  0  0  0  0  0  0  0
    2.0191    2.0303    0.8057 S   0  0  0  0  0  1  0  0  0  0  0  0
    1.1566   -0.6823   -0.9297 S   0  0  0  0  0  0  0  0  0  0  0  0
   -1.7589   -0.2174   -0.9545 H   0  0  0  0  0  0  0  0  0  0  0  0
   -1.4004   -1.2253    0.4427 H   0  0  0  0  0  0  0  0  0  0  0  0
   -1.9442    0.4442    0.6783 H   0  0  0  0  0  0  0  0  0  0  0  0
   -0.3073    1.8814    1.2951 H   0  0  0  0  0  0  0  0  0  0  0  0
    2.2383    0.0827   -0.6554 H   0  0  0  0  0  0  0  0  0  0  0  0
  1  2  1  0
  1  6  1  0
  1  7  1  0
  1  8  1  0
  2  3  2  3
  2  5  1  0
  3  4  1  0
  3  9  1  0
  5 10  1  0
M  RAD  1   4   2
M  END
>  <reaction>  (2) 
rxn_1247

>  <mol_properties>  (2) 
{"1": {"label": "acceptor", "atom_type": "Cs"}}

>  <type>  (2) 
r2

$$$$

     RDKit          3D

 11 10  0  0  0  0  0  0  0  0999 V2000
   -1.0997   -0.5860   -0.1182 C   0  0  0  0  0  0  0  0  0  0  0  0
    0.0827    0.2961    0.2270 C   0  0  0  0  0  0  0  0  0  0  0  0
    0.1622    1.6171   -0.4774 C   0  0  0  0  0  0  0  0  0  0  0  0
   -0.9879    2.3087   -1.3633 S   0  0  0  0  0  0  0  0  0  0  0  0
    0.2176    0.6619    2.0187 S   0  0  0  0  0  0  0  0  0  0  0  0
   -1.1052   -0.8107   -1.1861 H   0  0  0  0  0  0  0  0  0  0  0  0
   -2.0402   -0.0893    0.1198 H   0  0  0  0  0  0  0  0  0  0  0  0
   -1.0438   -1.5182    0.4423 H   0  0  0  0  0  0  0  0  0  0  0  0
    1.0207   -0.2324    0.0280 H   0  0  0  0  0  0  0  0  0  0  0  0
    1.1091    2.1333   -0.3182 H   0  0  0  0  0  0  0  0  0  0  0  0
   -0.9205    1.3661    2.0994 H   0  0  0  0  0  0  0  0  0  0  0  0
  1  2  1  0
  1  6  1  0
  1  7  1  0
  1  8  1  0
  2  3  1  0
  2  5  1  0
  2  9  1  0
  3  4  2  0
  3 10  1  0
  5 11  1  0
M  END
>  <reaction>  (3) 
rxn_1247

>  <mol_properties>  (3) 
{"0": {"label": "a_hydrogen", "atom_type": "H0"}, "2": {"label": "acceptor", "atom_type": "Cs"}}

>  <type>  (3) 
r2h

$$$$

     RDKit          3D

 17 15  0  0  0  0  0  0  0  0999 V2000
    0.3529   -1.6905   -3.1328 C   0  0  0  0  0  0  0  0  0  0  0  0
   -0.2595   -1.9488   -2.1277 C   0  0  0  0  0  0  0  0  0  0  0  0
   -0.9277   -2.1434   -0.9065 C   0  0  0  0  0  3  0  0  0  0  0  0
    0.8815   -1.4797   -4.0315 H   0  0  0  0  0  0  0  0  0  0  0  0
   -0.5270   -1.0063   -0.1524 H   0  0  0  0  0  0  0  0  0  0  0  0
   -0.5695   -2.9498   -0.2733 H   0  0  0  0  0  0  0  0  0  0  0  0
   -2.0060   -2.0155   -0.9130 H   0  0  0  0  0  0  0  0  0  0  0  0
   -1.6272    0.6343    0.8316 C   0  0  0  0  0  0  0  0  0  0  0  0
   -0.2662    0.0450    0.5528 C   0  0  0  0  0  0  0  0  0  0  0  0
    0.6514    0.7582   -0.3233 C   0  0  0  0  0  0  0  0  0  0  0  0
    0.2737    2.0064   -1.2926 S   0  0  0  0  0  0  0  0  0  0  0  0
    0.5355   -0.7567    1.9622 S   0  0  0  0  0  0  0  0  0  0  0  0
   -1.5374    1.5190    1.4662 H   0  0  0  0  0  0  0  0  0  0  0  0
   -2.1062    0.9434   -0.0975 H   0  0  0  0  0  0  0  0  0  0  0  0
   -2.2547   -0.0937    1.3444 H   0  0  0  0  0  0  0  0  0  0  0  0
    1.6648    0.3602   -0.3289 H   0  0  0  0  0  0  0  0  0  0  0  0
    0.7120    0.3545    2.6927 H   0  0  0  0  0  0  0  0  0  0  0  0
  1  2  3  0
  1  4  1  0
  2  3  1  0
  3  6  1  0
  3  7  1  0
  5  9  1  0
  8  9  1  0
  8 13  1  0
  8 14  1  0
  8 15  1  0
  9 10  1  0
  9 12  1  0
 10 11  2  0
 10 16  1  0
 12 17  1  0
M  RAD  1   3   2
M  END
>  <reaction>  (4) 
rxn_1247

>  <mol_properties>  (4) 
{"1": {"label": "*4", "atom_type": "Ct"}, "2": {"label": "*3", "atom_type": "Cs"}, "4": {"label": "*2", "atom_type": "H0"}, "8": {"label": "*1", "atom_type": "Cs"}, "9": {"label": "*0", "atom_type": "CS"}}

>  <type>  (4) 
ts

$$$$

     RDKit          3D

 17 15  0  0  0  0  0  0  0  0999 V2000
   -0.5370   -2.2473   -3.1956 C   0  0  0  0  0  0  0  0  0  0  0  0
   -0.5370   -2.2473   -1.9985 C   0  0  0  0  0  0  0  0  0  0  0  0
   -0.5370   -2.2473   -0.5431 C   0  0  0  0  0  0  0  0  0  0  0  0
   -0.5370   -2.2473   -4.2589 H   0  0  0  0  0  0  0  0  0  0  0  0
   -0.4255   -1.0278   -0.0807 H   0  0  0  0  0  0  0  0  0  0  0  0
    0.2967   -2.8359   -0.1577 H   0  0  0  0  0  0  0  0  0  0  0  0
   -1.4636   -2.6750   -0.1577 H   0  0  0  0  0  0  0  0  0  0  0  0
   -1.5177    0.5469    1.2336 C   0  0  0  0  0  0  0  0  0  0  0  0
   -0.3136    0.1963    0.3834 C   0  0  0  0  0  0  0  0  0  0  0  0
    0.5095    1.3440   -0.1193 C   0  0  0  0  0  0  0  0  0  0  0  0
    0.4077    2.8803    0.3445 S   0  0  0  0  0  1  0  0  0  0  0  0
    0.8545   -0.9467    1.2148 S   0  0  0  0  0  0  0  0  0  0  0  0
   -1.2178    1.0860    2.1321 H   0  0  0  0  0  0  0  0  0  0  0  0
   -2.2011    1.1889    0.6752 H   0  0  0  0  0  0  0  0  0  0  0  0
   -2.0417   -0.3614    1.5279 H   0  0  0  0  0  0  0  0  0  0  0  0
    1.2577    1.0474   -0.8546 H   0  0  0  0  0  0  0  0  0  0  0  0
    1.2102   -0.0940    2.1864 H   0  0  0  0  0  0  0  0  0  0  0  0
  1  2  3  0
  1  4  1  0
  2  3  1  0
  3  5  1  0
  3  6  1  0
  3  7  1  0
  8  9  1  0
  8 13  1  0
  8 14  1  0
  8 15  1  0
  9 10  2  3
  9 12  1  0
 10 11  1  0
 10 16  1  0
 12 17  1  0
M  RAD  1  11   2
M  END
>  <reaction>  (5) 
rxn_1247

>  <mol_properties>  (5) 
{"1": {"label": "*4", "atom_type": "Ct"}, "2": {"label": "*3", "atom_type": "Cs"}, "4": {"label": "*2", "atom_type": "H0"}, "8": {"label": "*1", "atom_type": "Cs"}, "9": {"label": "*0", "atom_type": "CS"}}

>  <type>  (5) 
unop_1

>  <geom_source>  (5) 
Heuristics

$$$$

     RDKit          3D

 17 15  0  0  0  0  0  0  0  0999 V2000
   -0.3780   -2.2214   -3.3793 C   0  0  0  0  0  0  0  0  0  0  0  0
   -0.3780   -2.2214   -2.1822 C   0  0  0  0  0  0  0  0  0  0  0  0
   -0.3780   -2.2214   -0.7268 C   0  0  0  0  0  0  0  0  0  0  0  0
   -0.3780   -2.2214   -4.4425 H   0  0  0  0  0  0  0  0  0  0  0  0
   -0.2666   -1.0018   -0.2644 H   0  0  0  0  0  0  0  0  0  0  0  0
    0.4557   -2.8100   -0.3414 H   0  0  0  0  0  0  0  0  0  0  0  0
   -1.3046   -2.6491   -0.3414 H   0  0  0  0  0  0  0  0  0  0  0  0
   -0.7782    1.2086   -0.7666 C   0  0  0  0  0  0  0  0  0  0  0  0
   -0.1547    0.2223    0.1998 C   0  0  0  0  0  0  0  0  0  0  0  0
    1.1221    0.6469    0.8608 C   0  0  0  0  0  0  0  0  0  0  0  0
    1.7687    2.1191    0.8540 S   0  0  0  0  0  1  0  0  0  0  0  0
   -1.2864   -0.2861    1.5500 S   0  0  0  0  0  0  0  0  0  0  0  0
   -1.0251    2.1441   -0.2649 H   0  0  0  0  0  0  0  0  0  0  0  0
   -0.0810    1.4399   -1.5736 H   0  0  0  0  0  0  0  0  0  0  0  0
   -1.6885    0.7876   -1.1913 H   0  0  0  0  0  0  0  0  0  0  0  0
    1.6094   -0.1575    1.4120 H   0  0  0  0  0  0  0  0  0  0  0  0
   -1.3707    0.9249    2.1194 H   0  0  0  0  0  0  0  0  0  0  0  0
  1  2  3  0
  1  4  1  0
  2  3  1  0
  3  5  1  0
  3  6  1  0
  3  7  1  0
  8  9  1  0
  8 13  1  0
  8 14  1  0
  8 15  1  0
  9 10  2  3
  9 12  1  0
 10 11  1  0
 10 16  1  0
 12 17  1  0
M  RAD  1  11   2
M  END
>  <reaction>  (6) 
rxn_1247

>  <mol_properties>  (6) 
{"1": {"label": "*4", "atom_type": "Ct"}, "2": {"label": "*3", "atom_type": "Cs"}, "4": {"label": "*2", "atom_type": "H0"}, "8": {"label": "*1", "atom_type": "Cs"}, "9": {"label": "*0", "atom_type": "CS"}}

>  <type>  (6) 
unop_2

>  <geom_source>  (6) 
Heuristics

$$$$

     RDKit          3D

 17 15  0  0  0  0  0  0  0  0999 V2000
   -0.4194   -2.3656   -2.9811 C   0  0  0  0  0  0  0  0  0  0  0  0
   -0.4194   -2.3656   -1.7840 C   0  0  0  0  0  0  0  0  0  0  0  0
   -0.4194   -2.3656   -0.3286 C   0  0  0  0  0  0  0  0  0  0  0  0
   -0.4194   -2.3656   -4.0443 H   0  0  0  0  0  0  0  0  0  0  0  0
   -0.3080   -1.1461    0.1338 H   0  0  0  0  0  0  0  0  0  0  0  0
    0.4143   -2.9542    0.0568 H   0  0  0  0  0  0  0  0  0  0  0  0
   -1.3460   -2.7933    0.0568 H   0  0  0  0  0  0  0  0  0  0  0  0
   -0.8988    0.1983    1.9348 C   0  0  0  0  0  0  0  0  0  0  0  0
   -0.1961    0.0780    0.5980 C   0  0  0  0  0  0  0  0  0  0  0  0
   -0.1367    1.3181   -0.2425 C   0  0  0  0  0  0  0  0  0  0  0  0
   -0.5094    2.8134    0.2168 S   0  0  0  0  0  1  0  0  0  0  0  0
    1.5280   -0.5306    0.7357 S   0  0  0  0  0  0  0  0  0  0  0  0
   -0.4093    0.9378    2.5683 H   0  0  0  0  0  0  0  0  0  0  0  0
   -1.9325    0.5176    1.7916 H   0  0  0  0  0  0  0  0  0  0  0  0
   -0.8900   -0.7630    2.4468 H   0  0  0  0  0  0  0  0  0  0  0  0
    0.2286    1.1357   -1.2532 H   0  0  0  0  0  0  0  0  0  0  0  0
    1.9941    0.5329    1.4062 H   0  0  0  0  0  0  0  0  0  0  0  0
  1  2  3  0
  1  4  1  0
  2  3  1  0
  3  5  1  0
  3  6  1  0
  3  7  1  0
  8  9  1  0
  8 13  1  0
  8 14  1  0
  8 15  1  0
  9 10  2  3
  9 12  1  0
 10 11  1  0
 10 16  1  0
 12 17  1  0
M  RAD  1  11   2
M  END
>  <reaction>  (7) 
rxn_1247

>  <mol_properties>  (7) 
{"1": {"label": "*4", "atom_type": "Ct"}, "2": {"label": "*3", "atom_type": "Cs"}, "4": {"label": "*2", "atom_type": "H0"}, "8": {"label": "*1", "atom_type": "Cs"}, "9": {"label": "*0", "atom_type": "CS"}}

>  <type>  (7) 
unop_3

>  <geom_source>  (7) 
Heuristics

$$$$

     RDKit          3D

 17 15  0  0  0  0  0  0  0  0999 V2000
   -0.2683   -1.8892   -3.5948 C   0  0  0  0  0  0  0  0  0  0  0  0
   -0.2683   -1.8892   -2.3978 C   0  0  0  0  0  0  0  0  0  0  0  0
   -0.2683   -1.8892   -0.9424 C   0  0  0  0  0  0  0  0  0  0  0  0
   -0.2683   -1.8892   -4.6581 H   0  0  0  0  0  0  0  0  0  0  0  0
   -0.1569   -0.6696   -0.4800 H   0  0  0  0  0  0  0  0  0  0  0  0
    0.5654   -2.4778   -0.5570 H   0  0  0  0  0  0  0  0  0  0  0  0
   -1.1949   -2.3169   -0.5570 H   0  0  0  0  0  0  0  0  0  0  0  0
    1.2484    1.1810   -0.4954 C   0  0  0  0  0  0  0  0  0  0  0  0
   -0.0450    0.5544   -0.0158 C   0  0  0  0  0  0  0  0  0  0  0  0
    0.0088   -0.1777    1.2913 C   0  0  0  0  0  0  0  0  0  0  0  0
    1.2121   -0.1605    2.3578 S   0  0  0  0  0  1  0  0  0  0  0  0
   -1.4247    1.7538    0.1251 S   0  0  0  0  0  0  0  0  0  0  0  0
    1.6136    1.9185    0.2191 H   0  0  0  0  0  0  0  0  0  0  0  0
    2.0202    0.4176   -0.6067 H   0  0  0  0  0  0  0  0  0  0  0  0
    1.0901    1.6710   -1.4552 H   0  0  0  0  0  0  0  0  0  0  0  0
   -0.8979   -0.7441    1.5049 H   0  0  0  0  0  0  0  0  0  0  0  0
   -0.8733    2.4800    1.1081 H   0  0  0  0  0  0  0  0  0  0  0  0
  1  2  3  0
  1  4  1  0
  2  3  1  0
  3  5  1  0
  3  6  1  0
  3  7  1  0
  8  9  1  0
  8 13  1  0
  8 14  1  0
  8 15  1  0
  9 10  2  3
  9 12  1  0
 10 11  1  0
 10 16  1  0
 12 17  1  0
M  RAD  1  11   2
M  END
>  <reaction>  (8) 
rxn_1247

>  <mol_properties>  (8) 
{"1": {"label": "*4", "atom_type": "Ct"}, "2": {"label": "*3", "atom_type": "Cs"}, "4": {"label": "*2", "atom_type": "H0"}, "8": {"label": "*1", "atom_type": "Cs"}, "9": {"label": "*0", "atom_type": "CS"}}

>  <type>  (8) 
unop_4

>  <geom_source>  (8) 
Heuristics

$$$$

     RDKit          3D

 17 15  0  0  0  0  0  0  0  0999 V2000
    0.0210   -2.3905   -2.9116 C   0  0  0  0  0  0  0  0  0  0  0  0
    0.0210   -2.3905   -1.7146 C   0  0  0  0  0  0  0  0  0  0  0  0
    0.0210   -2.3905   -0.2591 C   0  0  0  0  0  0  0  0  0  0  0  0
    0.0210   -2.3905   -3.9749 H   0  0  0  0  0  0  0  0  0  0  0  0
    0.1324   -1.1709    0.2033 H   0  0  0  0  0  0  0  0  0  0  0  0
    0.8547   -2.9791    0.1262 H   0  0  0  0  0  0  0  0  0  0  0  0
   -0.9056   -2.8182    0.1262 H   0  0  0  0  0  0  0  0  0  0  0  0
    0.2433    0.0417    2.1825 C   0  0  0  0  0  0  0  0  0  0  0  0
    0.2443    0.0531    0.6674 C   0  0  0  0  0  0  0  0  0  0  0  0
   -0.8175    0.8764    0.0022 C   0  0  0  0  0  0  0  0  0  0  0  0
   -1.7947    1.9417    0.7063 S   0  0  0  0  0  1  0  0  0  0  0  0
    1.8404    0.5958   -0.0538 S   0  0  0  0  0  0  0  0  0  0  0  0
    0.3831    1.0465    2.5808 H   0  0  0  0  0  0  0  0  0  0  0  0
   -0.7107   -0.3330    2.5574 H   0  0  0  0  0  0  0  0  0  0  0  0
    1.0462   -0.5960    2.5496 H   0  0  0  0  0  0  0  0  0  0  0  0
   -0.8732    0.7176   -1.0749 H   0  0  0  0  0  0  0  0  0  0  0  0
    1.7817    1.8504    0.4155 H   0  0  0  0  0  0  0  0  0  0  0  0
  1  2  3  0
  1  4  1  0
  2  3  1  0
  3  5  1  0
  3  6  1  0
  3  7  1  0
  8  9  1  0
  8 13  1  0
  8 14  1  0
  8 15  1  0
  9 10  2  3
  9 12  1  0
 10 11  1  0
 10 16  1  0
 12 17  1  0
M  RAD  1  11   2
M  END
>  <reaction>  (9) 
rxn_1247

>  <mol_properties>  (9) 
{"1": {"label": "*4", "atom_type": "Ct"}, "2": {"label": "*3", "atom_type": "Cs"}, "4": {"label": "*2", "atom_type": "H0"}, "8": {"label": "*1", "atom_type": "Cs"}, "9": {"label": "*0", "atom_type": "CS"}}

>  <type>  (9) 
unop_5

>  <geom_source>  (9) 
Heuristics

$$$$

     RDKit          3D

 17 15  0  0  0  0  0  0  0  0999 V2000
   -0.0031   -1.8445   -3.5907 C   0  0  0  0  0  0  0  0  0  0  0  0
   -0.0031   -1.8445   -2.3936 C   0  0  0  0  0  0  0  0  0  0  0  0
   -0.0031   -1.8445   -0.9382 C   0  0  0  0  0  0  0  0  0  0  0  0
   -0.0031   -1.8445   -4.6540 H   0  0  0  0  0  0  0  0  0  0  0  0
    0.1083   -0.6249   -0.4758 H   0  0  0  0  0  0  0  0  0  0  0  0
    0.8306   -2.4330   -0.5529 H   0  0  0  0  0  0  0  0  0  0  0  0
   -0.9297   -2.2722   -0.5529 H   0  0  0  0  0  0  0  0  0  0  0  0
    1.6804    0.9584    0.1736 C   0  0  0  0  0  0  0  0  0  0  0  0
    0.2202    0.5992   -0.0117 C   0  0  0  0  0  0  0  0  0  0  0  0
   -0.4277   -0.1693    1.1006 C   0  0  0  0  0  0  0  0  0  0  0  0
    0.1748   -0.4363    2.5674 S   0  0  0  0  0  1  0  0  0  0  0  0
   -0.8520    2.0539   -0.3218 S   0  0  0  0  0  0  0  0  0  0  0  0
    1.8204    1.5808    1.0572 H   0  0  0  0  0  0  0  0  0  0  0  0
    2.2783    0.0553    0.3069 H   0  0  0  0  0  0  0  0  0  0  0  0
    2.0429    1.5008   -0.6985 H   0  0  0  0  0  0  0  0  0  0  0  0
   -1.4200   -0.5416    0.8453 H   0  0  0  0  0  0  0  0  0  0  0  0
   -0.6662    2.6181    0.8802 H   0  0  0  0  0  0  0  0  0  0  0  0
  1  2  3  0
  1  4  1  0
  2  3  1  0
  3  5  1  0
  3  6  1  0
  3  7  1  0
  8  9  1  0
  8 13  1  0
  8 14  1  0
  8 15  1  0
  9 10  2  3
  9 12  1  0
 10 11  1  0
 10 16  1  0
 12 17  1  0
M  RAD  1  11   2
M  END
>  <reaction>  (10) 
rxn_1247

>  <mol_properties>  (10) 
{"1": {"label": "*4", "atom_type": "Ct"}, "2": {"label": "*3", "atom_type": "Cs"}, "4": {"label": "*2", "atom_type": "H0"}, "8": {"label": "*1", "atom_type": "Cs"}, "9": {"label": "*0", "atom_type": "CS"}}

>  <type>  (10) 
unop_6

>  <geom_source>  (10) 
Heuristics

$$$$

     RDKit          3D

 17 15  0  0  0  0  0  0  0  0999 V2000
    0.2505   -1.9213   -3.4436 C   0  0  0  0  0  0  0  0  0  0  0  0
    0.2505   -1.9213   -2.2465 C   0  0  0  0  0  0  0  0  0  0  0  0
    0.2505   -1.9213   -0.7911 C   0  0  0  0  0  0  0  0  0  0  0  0
    0.2505   -1.9213   -4.5069 H   0  0  0  0  0  0  0  0  0  0  0  0
    0.3620   -0.7018   -0.3287 H   0  0  0  0  0  0  0  0  0  0  0  0
    1.0842   -2.5099   -0.4058 H   0  0  0  0  0  0  0  0  0  0  0  0
   -0.6761   -2.3490   -0.4058 H   0  0  0  0  0  0  0  0  0  0  0  0
    1.7215    0.6489    0.9856 C   0  0  0  0  0  0  0  0  0  0  0  0
    0.4739    0.5223    0.1354 C   0  0  0  0  0  0  0  0  0  0  0  0
   -0.7441   -0.0332    0.8104 C   0  0  0  0  0  0  0  0  0  0  0  0
   -0.9481   -0.2735    2.3872 S   0  0  0  0  0  1  0  0  0  0  0  0
   -0.0436    2.1036   -0.6350 S   0  0  0  0  0  0  0  0  0  0  0  0
    1.5504    1.3107    1.8344 H   0  0  0  0  0  0  0  0  0  0  0  0
    2.0113   -0.3266    1.3798 H   0  0  0  0  0  0  0  0  0  0  0  0
    2.5392    1.0494    0.3878 H   0  0  0  0  0  0  0  0  0  0  0  0
   -1.5560   -0.2558    0.1178 H   0  0  0  0  0  0  0  0  0  0  0  0
   -0.3329    2.7271    0.5162 H   0  0  0  0  0  0  0  0  0  0  0  0
  1  2  3  0
  1  4  1  0
  2  3  1  0
  3  5  1  0
  3  6  1  0
  3  7  1  0
  8  9  1  0
  8 13  1  0
  8 14  1  0
  8 15  1  0
  9 10  2  3
  9 12  1  0
 10 11  1  0
 10 16  1  0
 12 17  1  0
M  RAD  1  11   2
M  END
>  <reaction>  (11) 
rxn_1247

>  <mol_properties>  (11) 
{"1": {"label": "*4", "atom_type": "Ct"}, "2": {"label": "*3", "atom_type": "Cs"}, "4": {"label": "*2", "atom_type": "H0"}, "8": {"label": "*1", "atom_type": "Cs"}, "9": {"label": "*0", "atom_type": "CS"}}

>  <type>  (11) 
unop_7

>  <geom_source>  (11) 
Heuristics

$$$$

     RDKit          3D

 17 15  0  0  0  0  0  0  0  0999 V2000
   -0.4707   -2.1979   -3.3438 C   0  0  0  0  0  0  0  0  0  0  0  0
   -0.4707   -2.1979   -2.1467 C   0  0  0  0  0  0  0  0  0  0  0  0
   -0.4707   -2.1979   -0.6913 C   0  0  0  0  0  0  0  0  0  0  0  0
   -0.4707   -2.1979   -4.4071 H   0  0  0  0  0  0  0  0  0  0  0  0
   -0.3593   -0.9783   -0.2289 H   0  0  0  0  0  0  0  0  0  0  0  0
    0.3630   -2.7865   -0.3060 H   0  0  0  0  0  0  0  0  0  0  0  0
   -1.3973   -2.6256   -0.3060 H   0  0  0  0  0  0  0  0  0  0  0  0
   -1.6183    0.8637    0.4205 C   0  0  0  0  0  0  0  0  0  0  0  0
   -0.2474    0.2457    0.2352 C   0  0  0  0  0  0  0  0  0  0  0  0
    0.9128    1.1933    0.1751 C   0  0  0  0  0  0  0  0  0  0  0  0
    0.8979    2.7607    0.5338 S   0  0  0  0  0  1  0  0  0  0  0  0
    0.1699   -0.9945    1.5197 S   0  0  0  0  0  0  0  0  0  0  0  0
   -1.6711    1.4244    1.3536 H   0  0  0  0  0  0  0  0  0  0  0  0
   -1.8342    1.5566   -0.3945 H   0  0  0  0  0  0  0  0  0  0  0  0
   -2.3782    0.0837    0.4365 H   0  0  0  0  0  0  0  0  0  0  0  0
    1.8452    0.7134   -0.1228 H   0  0  0  0  0  0  0  0  0  0  0  0
    0.1904   -0.1283    2.5430 H   0  0  0  0  0  0  0  0  0  0  0  0
  1  2  3  0
  1  4  1  0
  2  3  1  0
  3  5  1  0
  3  6  1  0
  3  7  1  0
  8  9  1  0
  8 13  1  0
  8 14  1  0
  8 15  1  0
  9 10  2  3
  9 12  1  0
 10 11  1  0
 10 16  1  0
 12 17  1  0
M  RAD  1  11   2
M  END
>  <reaction>  (12) 
rxn_1247

>  <mol_properties>  (12) 
{"1": {"label": "*4", "atom_type": "Ct"}, "2": {"label": "*3", "atom_type": "Cs"}, "4": {"label": "*2", "atom_type": "H0"}, "8": {"label": "*1", "atom_type": "Cs"}, "9": {"label": "*0", "atom_type": "CS"}}

>  <type>  (12) 
unop_8

>  <geom_source>  (12) 
Heuristics

$$$$

     RDKit          3D

 17 15  0  0  0  0  0  0  0  0999 V2000
   -0.4297   -2.0216   -3.5008 C   0  0  0  0  0  0  0  0  0  0  0  0
   -0.4297   -2.0216   -2.3038 C   0  0  0  0  0  0  0  0  0  0  0  0
   -0.4297   -2.0216   -0.8484 C   0  0  0  0  0  0  0  0  0  0  0  0
   -0.4297   -2.0216   -4.5641 H   0  0  0  0  0  0  0  0  0  0  0  0
   -0.3182   -0.8020   -0.3859 H   0  0  0  0  0  0  0  0  0  0  0  0
    0.4040   -2.6102   -0.4630 H   0  0  0  0  0  0  0  0  0  0  0  0
   -1.3563   -2.4493   -0.4630 H   0  0  0  0  0  0  0  0  0  0  0  0
    0.5856    1.2790   -0.8882 C   0  0  0  0  0  0  0  0  0  0  0  0
   -0.2064    0.4220    0.0782 C   0  0  0  0  0  0  0  0  0  0  0  0
    0.5088   -0.0282    1.3165 C   0  0  0  0  0  0  0  0  0  0  0  0
    1.9296    0.4979    1.8552 S   0  0  0  0  0  1  0  0  0  0  0  0
   -1.7615    1.2122    0.6433 S   0  0  0  0  0  0  0  0  0  0  0  0
    0.9180    2.2007   -0.4108 H   0  0  0  0  0  0  0  0  0  0  0  0
    1.4737    0.7437   -1.2283 H   0  0  0  0  0  0  0  0  0  0  0  0
   -0.0300    1.5327   -1.7501 H   0  0  0  0  0  0  0  0  0  0  0  0
   -0.0476   -0.7709    1.8887 H   0  0  0  0  0  0  0  0  0  0  0  0
   -1.1703    2.2202    1.3007 H   0  0  0  0  0  0  0  0  0  0  0  0
  1  2  3  0
  1  4  1  0
  2  3  1  0
  3  5  1  0
  3  6  1  0
  3  7  1  0
  8  9  1  0
  8 13  1  0
  8 14  1  0
  8 15  1  0
  9 10  2  3
  9 12  1  0
 10 11  1  0
 10 16  1  0
 12 17  1  0
M  RAD  1  11   2
M  END
>  <reaction>  (13) 
rxn_1247

>  <mol_properties>  (13) 
{"1": {"label": "*4", "atom_type": "Ct"}, "2": {"label": "*3", "atom_type": "Cs"}, "4": {"label": "*2", "atom_type": "H0"}, "8": {"label": "*1", "atom_type": "Cs"}, "9": {"label": "*0", "atom_type": "CS"}}

>  <type>  (13) 
unop_9

>  <geom_source>  (13) 
Heuristics

$$$$

     RDKit          3D

 17 15  0  0  0  0  0  0  0  0999 V2000
   -0.3853   -2.2084   -3.3893 C   0  0  0  0  0  0  0  0  0  0  0  0
   -0.3853   -2.2084   -2.1922 C   0  0  0  0  0  0  0  0  0  0  0  0
   -0.3853   -2.2084   -0.7368 C   0  0  0  0  0  0  0  0  0  0  0  0
   -0.3853   -2.2084   -4.4526 H   0  0  0  0  0  0  0  0  0  0  0  0
   -0.2739   -0.9888   -0.2744 H   0  0  0  0  0  0  0  0  0  0  0  0
    0.4484   -2.7969   -0.3514 H   0  0  0  0  0  0  0  0  0  0  0  0
   -1.3119   -2.6361   -0.3515 H   0  0  0  0  0  0  0  0  0  0  0  0
   -1.3203    1.0859   -0.2899 C   0  0  0  0  0  0  0  0  0  0  0  0
   -0.1620    0.2353    0.1897 C   0  0  0  0  0  0  0  0  0  0  0  0
    1.1090    0.9582    0.5208 C   0  0  0  0  0  0  0  0  0  0  0  0
    1.3053    2.5476    0.6648 S   0  0  0  0  0  1  0  0  0  0  0  0
   -0.5689   -0.7845    1.6582 S   0  0  0  0  0  0  0  0  0  0  0  0
   -1.6074    1.8169    0.4659 H   0  0  0  0  0  0  0  0  0  0  0  0
   -1.0396    1.6343   -1.1907 H   0  0  0  0  0  0  0  0  0  0  0  0
   -2.1793    0.4535   -0.5103 H   0  0  0  0  0  0  0  0  0  0  0  0
    1.9508    0.2888    0.6989 H   0  0  0  0  0  0  0  0  0  0  0  0
   -0.7574    0.2481    2.4925 H   0  0  0  0  0  0  0  0  0  0  0  0
  1  2  3  0
  1  4  1  0
  2  3  1  0
  3  5  1  0
  3  6  1  0
  3  7  1  0
  8  9  1  0
  8 13  1  0
  8 14  1  0
  8 15  1  0
  9 10  2  3
  9 12  1  0
 10 11  1  0
 10 16  1  0
 12 17  1  0
M  RAD  1  11   2
M  END
>  <reaction>  (14) 
rxn_1247

>  <mol_properties>  (14) 
{"1": {"label": "*4", "atom_type": "Ct"}, "2": {"label": "*3", "atom_type": "Cs"}, "4": {"label": "*2", "atom_type": "H0"}, "8": {"label": "*1", "atom_type": "Cs"}, "9": {"label": "*0", "atom_type": "CS"}}

>  <type>  (14) 
unop_10

>  <geom_source>  (14) 
Heuristics

$$$$

     RDKit          3D

 17 15  0  0  0  0  0  0  0  0999 V2000
    0.3343   -2.1375   -3.1662 C   0  0  0  0  0  0  0  0  0  0  0  0
    0.3343   -2.1375   -1.9692 C   0  0  0  0  0  0  0  0  0  0  0  0
    0.3343   -2.1375   -0.5137 C   0  0  0  0  0  0  0  0  0  0  0  0
    0.3343   -2.1375   -4.2295 H   0  0  0  0  0  0  0  0  0  0  0  0
    0.4457   -0.9179   -0.0513 H   0  0  0  0  0  0  0  0  0  0  0  0
    1.1680   -2.7260   -0.1284 H   0  0  0  0  0  0  0  0  0  0  0  0
   -0.5923   -2.5652   -0.1284 H   0  0  0  0  0  0  0  0  0  0  0  0
    1.2704    0.2971    1.7497 C   0  0  0  0  0  0  0  0  0  0  0  0
    0.5576    0.3062    0.4128 C   0  0  0  0  0  0  0  0  0  0  0  0
   -0.9408    0.2780    0.4515 C   0  0  0  0  0  0  0  0  0  0  0  0
   -1.8767    0.4916    1.7416 S   0  0  0  0  0  1  0  0  0  0  0  0
    1.0161    1.7319   -0.6451 S   0  0  0  0  0  0  0  0  0  0  0  0
    0.9933    1.1662    2.3461 H   0  0  0  0  0  0  0  0  0  0  0  0
    0.9982   -0.5942    2.3176 H   0  0  0  0  0  0  0  0  0  0  0  0
    2.3486    0.3066    1.5958 H   0  0  0  0  0  0  0  0  0  0  0  0
   -1.3936    0.1192   -0.5273 H   0  0  0  0  0  0  0  0  0  0  0  0
    0.4966    2.6703    0.1594 H   0  0  0  0  0  0  0  0  0  0  0  0
  1  2  3  0
  1  4  1  0
  2  3  1  0
  3  5  1  0
  3  6  1  0
  3  7  1  0
  8  9  1  0
  8 13  1  0
  8 14  1  0
  8 15  1  0
  9 10  2  3
  9 12  1  0
 10 11  1  0
 10 16  1  0
 12 17  1  0
M  RAD  1  11   2
M  END
>  <reaction>  (15) 
rxn_1247

>  <mol_properties>  (15) 
{"1": {"label": "*4", "atom_type": "Ct"}, "2": {"label": "*3", "atom_type": "Cs"}, "4": {"label": "*2", "atom_type": "H0"}, "8": {"label": "*1", "atom_type": "Cs"}, "9": {"label": "*0", "atom_type": "CS"}}

>  <type>  (15) 
unop_11

>  <geom_source>  (15) 
Heuristics

$$$$

     RDKit          3D

 17 15  0  0  0  0  0  0  0  0999 V2000
   -0.4370   -2.1619   -3.4040 C   0  0  0  0  0  0  0  0  0  0  0  0
   -0.4370   -2.1619   -2.2070 C   0  0  0  0  0  0  0  0  0  0  0  0
   -0.4370   -2.1619   -0.7516 C   0  0  0  0  0  0  0  0  0  0  0  0
   -0.4370   -2.1619   -4.4673 H   0  0  0  0  0  0  0  0  0  0  0  0
   -0.3256   -0.9424   -0.2892 H   0  0  0  0  0  0  0  0  0  0  0  0
    0.3967   -2.7505   -0.3662 H   0  0  0  0  0  0  0  0  0  0  0  0
   -1.3636   -2.5896   -0.3662 H   0  0  0  0  0  0  0  0  0  0  0  0
   -0.1233    1.2704   -0.9695 C   0  0  0  0  0  0  0  0  0  0  0  0
   -0.2137    0.2817    0.1750 C   0  0  0  0  0  0  0  0  0  0  0  0
    0.9233    0.2812    1.1522 C   0  0  0  0  0  0  0  0  0  0  0  0
    2.0977    1.3737    1.2662 S   0  0  0  0  0  1  0  0  0  0  0  0
   -1.7439    0.4596    1.1694 S   0  0  0  0  0  0  0  0  0  0  0  0
   -0.0778    2.2941   -0.5986 H   0  0  0  0  0  0  0  0  0  0  0  0
    0.7799    1.0900   -1.5549 H   0  0  0  0  0  0  0  0  0  0  0  0
   -0.9938    1.1701   -1.6165 H   0  0  0  0  0  0  0  0  0  0  0  0
    0.8882   -0.5534    1.8526 H   0  0  0  0  0  0  0  0  0  0  0  0
   -1.4588    1.6825    1.6395 H   0  0  0  0  0  0  0  0  0  0  0  0
  1  2  3  0
  1  4  1  0
  2  3  1  0
  3  5  1  0
  3  6  1  0
  3  7  1  0
  8  9  1  0
  8 13  1  0
  8 14  1  0
  8 15  1  0
  9 10  2  3
  9 12  1  0
 10 11  1  0
 10 16  1  0
 12 17  1  0
M  RAD  1  11   2
M  END
>  <reaction>  (16) 
rxn_1247

>  <mol_properties>  (16) 
{"1": {"label": "*4", "atom_type": "Ct"}, "2": {"label": "*3", "atom_type": "Cs"}, "4": {"label": "*2", "atom_type": "H0"}, "8": {"label": "*1", "atom_type": "Cs"}, "9": {"label": "*0", "atom_type": "CS"}}

>  <type>  (16) 
unop_12

>  <geom_source>  (16) 
Heuristics

$$$$

     RDKit          3D

 17 15  0  0  0  0  0  0  0  0999 V2000
   -0.4698   -0.5913    1.7752 S   0  0  0  0  0  0  0  0  0  0  0  0
   -0.8429    2.4414   -0.9457 S   0  0  0  0  0  1  0  0  0  0  0  0
   -0.7650    0.1124    0.1169 C   0  0  0  0  0  0  0  0  0  0  0  0
   -1.9716   -0.5710   -0.5288 C   0  0  0  0  0  0  0  0  0  0  0  0
   -0.9647    1.6032    0.2152 C   0  0  0  0  0  0  0  0  0  0  0  0
    1.4517   -0.8324   -0.8594 C   0  0  0  0  0  0  0  0  0  0  0  0
    2.4444   -0.2127    0.0188 C   0  0  0  0  0  0  0  0  0  0  0  0
    3.2620    0.2980    0.7424 C   0  0  0  0  0  0  0  0  0  0  0  0
    0.3355   -0.1455   -0.6344 H   0  0  0  0  0  0  0  0  0  0  0  0
   -1.8083   -1.6687   -0.5634 H   0  0  0  0  0  0  0  0  0  0  0  0
   -2.1050   -0.2092   -1.5701 H   0  0  0  0  0  0  0  0  0  0  0  0
   -2.8975   -0.3609    0.0485 H   0  0  0  0  0  0  0  0  0  0  0  0
   -1.0896    2.0744    1.1851 H   0  0  0  0  0  0  0  0  0  0  0  0
    1.6678   -0.5598   -1.9130 H   0  0  0  0  0  0  0  0  0  0  0  0
    1.4947   -1.9353   -0.7466 H   0  0  0  0  0  0  0  0  0  0  0  0
   -1.7216   -0.1892    2.2815 H   0  0  0  0  0  0  0  0  0  0  0  0
    3.9799    0.7464    1.3777 H   0  0  0  0  0  0  0  0  0  0  0  0
  1  3  1  0
  1 16  1  0
  2  5  1  0
  3  4  1  0
  3  5  2  3
  4 10  1  0
  4 11  1  0
  4 12  1  0
  5 13  1  0
  6  7  1  0
  6  9  1  0
  6 14  1  0
  6 15  1  0
  7  8  3  0
  8 17  1  0
M  RAD  1   2   2
M  END
>  <reaction>  (17) 
rxn_1247

>  <mol_properties>  (17) 
{"1": {"label": "*4", "atom_type": "Ct"}, "2": {"label": "*3", "atom_type": "Cs"}, "4": {"label": "*2", "atom_type": "H0"}, "8": {"label": "*1", "atom_type": "Cs"}, "9": {"label": "*0", "atom_type": "CS"}}

>  <type>  (17) 
unop_13

>  <geom_source>  (17) 
AutoTST

$$$$

     RDKit          3D

 17 15  0  0  0  0  0  0  0  0999 V2000
   -0.3780   -2.2214   -3.3793 C   0  0  0  0  0  0  0  0  0  0  0  0
   -0.3780   -2.2214   -2.1822 C   0  0  0  0  0  0  0  0  0  0  0  0
   -0.3780   -2.2214   -0.7268 C   0  0  0  0  0  0  0  0  0  0  0  0
   -0.3780   -2.2214   -4.4425 H   0  0  0  0  0  0  0  0  0  0  0  0
   -0.2666   -1.0018   -0.2644 H   0  0  0  0  0  0  0  0  0  0  0  0
    0.4557   -2.8100   -0.3414 H   0  0  0  0  0  0  0  0  0  0  0  0
   -1.3046   -2.6491   -0.3414 H   0  0  0  0  0  0  0  0  0  0  0  0
   -0.7782    1.2086   -0.7666 C   0  0  0  0  0  0  0  0  0  0  0  0
   -0.1547    0.2223    0.1998 C   0  0  0  0  0  0  0  0  0  0  0  0
    1.1221    0.6469    0.8608 C   0  0  0  0  0  0  0  0  0  0  0  0
    1.7687    2.1191    0.8540 S   0  0  0  0  0  1  0  0  0  0  0  0
   -1.2864   -0.2861    1.5499 S   0  0  0  0  0  0  0  0  0  0  0  0
   -1.0251    2.1441   -0.2649 H   0  0  0  0  0  0  0  0  0  0  0  0
   -0.0810    1.4399   -1.5736 H   0  0  0  0  0  0  0  0  0  0  0  0
   -1.6885    0.7876   -1.1912 H   0  0  0  0  0  0  0  0  0  0  0  0
    1.6094   -0.1575    1.4120 H   0  0  0  0  0  0  0  0  0  0  0  0
   -1.3706    0.9249    2.1194 H   0  0  0  0  0  0  0  0  0  0  0  0
  1  2  3  0
  1  4  1  0
  2  3  1  0
  3  5  1  0
  3  6  1  0
  3  7  1  0
  8  9  1  0
  8 13  1  0
  8 14  1  0
  8 15  1  0
  9 10  2  3
  9 12  1  0
 10 11  1  0
 10 16  1  0
 12 17  1  0
M  RAD  1  11   2
M  END
>  <reaction>  (18) 
rxn_1247

>  <mol_properties>  (18) 
{"1": {"label": "*4", "atom_type": "Ct"}, "2": {"label": "*3", "atom_type": "Cs"}, "4": {"label": "*2", "atom_type": "H0"}, "8": {"label": "*1", "atom_type": "Cs"}, "9": {"label": "*0", "atom_type": "CS"}}

>  <type>  (18) 
unop_14

>  <geom_source>  (18) 
gaussian_log

$$$$
