
     RDKit          3D

 13 12  0  0  0  0  0  0  0  0999 V2000
    2.2975   -0.6134    0.7685 C   0  0  0  0  0  0  0  0  0  0  0  0
    1.1676   -0.5248    0.3802 C   0  0  0  0  0  0  0  0  0  0  0  0
   -0.2109   -0.3926   -0.0948 C   0  0  0  0  0  0  0  0  0  0  0  0
   -0.2501    0.2584   -1.4808 C   0  0  0  0  0  0  0  0  0  0  0  0
   -1.0633    0.3831    0.9141 C   0  0  0  0  0  0  0  0  0  0  0  0
    3.2999   -0.6974    1.1133 H   0  0  0  0  0  0  0  0  0  0  0  0
   -0.6209   -1.4038   -0.1814 H   0  0  0  0  0  0  0  0  0  0  0  0
    0.3402   -0.3102   -2.1992 H   0  0  0  0  0  0  0  0  0  0  0  0
    0.1511    1.2724   -1.4369 H   0  0  0  0  0  0  0  0  0  0  0  0
   -1.2791    0.3109   -1.8407 H   0  0  0  0  0  0  0  0  0  0  0  0
   -0.6861    1.4008    1.0287 H   0  0  0  0  0  0  0  0  0  0  0  0
   -1.0492   -0.0971    1.8924 H   0  0  0  0  0  0  0  0  0  0  0  0
   -2.0971    0.4363    0.5680 H   0  0  0  0  0  0  0  0  0  0  0  0
  1  2  3  0
  1  6  1  0
  2  3  1  0
  3  4  1  0
  3  5  1  0
  3  7  1  0
  4  8  1  0
  4  9  1  0
  4 10  1  0
  5 11  1  0
  5 12  1  0
  5 13  1  0
M  END
>  <reaction>  (1) 
rxn_1333

>  <mol_properties>  (1) 
{"2": {"label": "donator", "atom_type": "Cs"}, "6": {"label": "d_hydrogen", "atom_type": "H0"}}

>  <type>  (1) 
r1h

$$$$

     RDKit          3D

  7  6  0  0  0  0  0  0  0  0999 V2000
    1.8092   -0.3013   -0.2242 S   0  0  0  0  0  0  0  0  0  0  0  0
    0.1552   -0.6967   -0.1137 C   0  0  0  0  0  0  0  0  0  0  0  0
   -0.8921    0.1788    0.1148 C   0  0  0  0  0  0  0  0  0  0  0  0
   -0.7548    1.8245    0.3328 S   0  0  0  0  0  1  0  0  0  0  0  0
    1.6168    1.0210   -0.0187 H   0  0  0  0  0  0  0  0  0  0  0  0
   -0.0550   -1.7522   -0.2412 H   0  0  0  0  0  0  0  0  0  0  0  0
   -1.8791   -0.2740    0.1502 H   0  0  0  0  0  0  0  0  0  0  0  0
  1  2  1  0
  1  5  1  0
  2  3  2  3
  2  6  1  0
  3  4  1  0
  3  7  1  0
M  RAD  1   4   2
M  END
>  <reaction>  (2) 
rxn_1333

>  <mol_properties>  (2) 
{"1": {"label": "acceptor", "atom_type": "Cs"}}

>  <type>  (2) 
r2

$$$$

     RDKit          3D

  8  7  0  0  0  0  0  0  0  0999 V2000
    1.7301   -0.0562    0.5281 S   0  0  0  0  0  0  0  0  0  0  0  0
    0.1858    0.6127   -0.1669 C   0  0  0  0  0  0  0  0  0  0  0  0
   -0.9621   -0.2567    0.2171 C   0  0  0  0  0  0  0  0  0  0  0  0
   -1.8663   -1.1002   -0.8086 S   0  0  0  0  0  0  0  0  0  0  0  0
    1.7025   -1.2092   -0.1540 H   0  0  0  0  0  0  0  0  0  0  0  0
    0.2619    0.7246   -1.2458 H   0  0  0  0  0  0  0  0  0  0  0  0
    0.0809    1.5982    0.2929 H   0  0  0  0  0  0  0  0  0  0  0  0
   -1.1456   -0.3126    1.2907 H   0  0  0  0  0  0  0  0  0  0  0  0
  1  2  1  0
  1  5  1  0
  2  3  1  0
  2  6  1  0
  2  7  1  0
  3  4  2  0
  3  8  1  0
M  END
>  <reaction>  (3) 
rxn_1333

>  <mol_properties>  (3) 
{"0": {"label": "a_hydrogen", "atom_type": "H0"}, "2": {"label": "acceptor", "atom_type": "Cs"}}

>  <type>  (3) 
r2h

$$$$

     RDKit          3D

 20 18  0  0  0  0  0  0  0  0999 V2000
    1.8346    2.2474   -1.8487 C   0  0  0  0  0  0  0  0  0  0  0  0
    0.8889    2.0627   -1.1266 C   0  0  0  0  0  0  0  0  0  0  0  0
   -0.1988    1.7791   -0.2625 C   0  0  0  0  0  3  0  0  0  0  0  0
   -1.5432    1.5582   -0.9065 C   0  0  0  0  0  0  0  0  0  0  0  0
   -0.2045    2.4736    1.0762 C   0  0  0  0  0  0  0  0  0  0  0  0
    2.6610    2.4246   -2.4943 H   0  0  0  0  0  0  0  0  0  0  0  0
    0.1039    0.4381    0.1495 H   0  0  0  0  0  0  0  0  0  0  0  0
   -1.4561    0.9413   -1.7997 H   0  0  0  0  0  0  0  0  0  0  0  0
   -1.9871    2.5175   -1.1914 H   0  0  0  0  0  0  0  0  0  0  0  0
   -2.2216    1.0681   -0.2052 H   0  0  0  0  0  0  0  0  0  0  0  0
   -0.5375    3.5097    0.9642 H   0  0  0  0  0  0  0  0  0  0  0  0
    0.7890    2.4864    1.5243 H   0  0  0  0  0  0  0  0  0  0  0  0
   -0.8974    1.9746    1.7573 H   0  0  0  0  0  0  0  0  0  0  0  0
   -0.0959   -1.7683   -0.9270 S   0  0  0  0  0  0  0  0  0  0  0  0
    0.3245   -0.7794    0.4828 C   0  0  0  0  0  0  0  0  0  0  0  0
   -0.4091   -0.8943    1.7247 C   0  0  0  0  0  0  0  0  0  0  0  0
   -1.9006   -1.5095    1.9431 S   0  0  0  0  0  0  0  0  0  0  0  0
   -1.3401   -2.0472   -0.4950 H   0  0  0  0  0  0  0  0  0  0  0  0
    1.4047   -0.7243    0.6084 H   0  0  0  0  0  0  0  0  0  0  0  0
    0.1038   -0.4415    2.5731 H   0  0  0  0  0  0  0  0  0  0  0  0
  1  2  3  0
  1  6  1  0
  2  3  1  0
  3  4  1  0
  3  5  1  0
  4  8  1  0
  4  9  1  0
  4 10  1  0
  5 11  1  0
  5 12  1  0
  5 13  1  0
  7 15  1  0
 14 15  1  0
 14 18  1  0
 15 16  1  0
 15 19  1  0
 16 17  2  0
 16 20  1  0
M  RAD  1   3   2
M  END
>  <reaction>  (4) 
rxn_1333

>  <mol_properties>  (4) 
{"1": {"label": "*4", "atom_type": "Ct"}, "2": {"label": "*3", "atom_type": "Cs"}, "6": {"label": "*2", "atom_type": "H0"}, "14": {"label": "*1", "atom_type": "Cs"}, "15": {"label": "*0", "atom_type": "CS"}}

>  <type>  (4) 
ts

$$$$

     RDKit          3D

 20 18  0  0  0  0  0  0  0  0999 V2000
   -0.1002    1.8147   -2.6821 C   0  0  0  0  0  0  0  0  0  0  0  0
   -0.1002    1.8147   -1.4840 C   0  0  0  0  0  0  0  0  0  0  0  0
   -0.1002    1.8386   -0.0202 C   0  0  0  0  0  3  0  0  0  0  0  0
   -1.3663    2.5151    0.5141 C   0  0  0  0  0  0  0  0  0  0  0  0
    1.1659    2.5150    0.5141 C   0  0  0  0  0  0  0  0  0  0  0  0
   -0.1002    1.8147   -3.7454 H   0  0  0  0  0  0  0  0  0  0  0  0
   -0.1002    0.5900    0.3877 H   0  0  0  0  0  0  0  0  0  0  0  0
   -2.2634    2.0158    0.1482 H   0  0  0  0  0  0  0  0  0  0  0  0
   -1.4037    3.5586    0.1966 H   0  0  0  0  0  0  0  0  0  0  0  0
   -1.3737    2.4871    1.6052 H   0  0  0  0  0  0  0  0  0  0  0  0
    1.2033    3.5585    0.1966 H   0  0  0  0  0  0  0  0  0  0  0  0
    2.0629    2.0157    0.1482 H   0  0  0  0  0  0  0  0  0  0  0  0
    1.1732    2.4870    1.6052 H   0  0  0  0  0  0  0  0  0  0  0  0
    1.3726   -1.0045    1.8031 S   0  0  0  0  0  0  0  0  0  0  0  0
   -0.1003   -0.6504    0.7929 C   0  0  0  0  0  0  0  0  0  0  0  0
   -0.7316   -1.9260    0.3512 C   0  0  0  0  0  0  0  0  0  0  0  0
   -0.8531   -2.4178   -1.1734 S   0  0  0  0  0  0  0  0  0  0  0  0
    2.0644   -1.6161    0.8321 H   0  0  0  0  0  0  0  0  0  0  0  0
   -0.7723   -0.1116    1.4650 H   0  0  0  0  0  0  0  0  0  0  0  0
   -1.1005   -2.5516    1.1649 H   0  0  0  0  0  0  0  0  0  0  0  0
  1  2  3  0
  1  6  1  0
  2  3  1  0
  3  4  1  0
  3  5  1  0
  4  8  1  0
  4  9  1  0
  4 10  1  0
  5 11  1  0
  5 12  1  0
  5 13  1  0
  7 15  1  0
 14 15  1  0
 14 18  1  0
 15 16  1  0
 15 19  1  0
 16 17  2  0
 16 20  1  0
M  RAD  1   3   2
M  END
>  <reaction>  (5) 
rxn_1333

>  <mol_properties>  (5) 
{"1": {"label": "*4", "atom_type": "Ct"}, "2": {"label": "*3", "atom_type": "Cs"}, "6": {"label": "*2", "atom_type": "H0"}, "14": {"label": "*1", "atom_type": "Cs"}, "15": {"label": "*0", "atom_type": "CS"}}

>  <type>  (5) 
unop_1

>  <geom_source>  (5) 
Heuristics

$$$$

     RDKit          3D

 20 18  0  0  0  0  0  0  0  0999 V2000
    0.4653    1.6164   -2.7774 C   0  0  0  0  0  0  0  0  0  0  0  0
    0.4653    1.6164   -1.5793 C   0  0  0  0  0  0  0  0  0  0  0  0
    0.4653    1.6404   -0.1155 C   0  0  0  0  0  3  0  0  0  0  0  0
   -0.8008    2.3168    0.4188 C   0  0  0  0  0  0  0  0  0  0  0  0
    1.7314    2.3168    0.4188 C   0  0  0  0  0  0  0  0  0  0  0  0
    0.4653    1.6164   -3.8407 H   0  0  0  0  0  0  0  0  0  0  0  0
    0.4652    0.3917    0.2924 H   0  0  0  0  0  0  0  0  0  0  0  0
   -1.6979    1.8175    0.0529 H   0  0  0  0  0  0  0  0  0  0  0  0
   -0.8382    3.3604    0.1013 H   0  0  0  0  0  0  0  0  0  0  0  0
   -0.8082    2.2888    1.5099 H   0  0  0  0  0  0  0  0  0  0  0  0
    1.7688    3.3603    0.1013 H   0  0  0  0  0  0  0  0  0  0  0  0
    2.6284    1.8175    0.0529 H   0  0  0  0  0  0  0  0  0  0  0  0
    1.7387    2.2888    1.5099 H   0  0  0  0  0  0  0  0  0  0  0  0
    1.3156   -1.9242   -0.5006 S   0  0  0  0  0  0  0  0  0  0  0  0
    0.4652   -0.8487    0.6975 C   0  0  0  0  0  0  0  0  0  0  0  0
   -0.7141   -1.5582    1.2690 C   0  0  0  0  0  0  0  0  0  0  0  0
   -2.2452   -1.1130    1.0722 S   0  0  0  0  0  0  0  0  0  0  0  0
    0.2935   -2.0081   -1.3630 H   0  0  0  0  0  0  0  0  0  0  0  0
    1.2075   -0.6648    1.4780 H   0  0  0  0  0  0  0  0  0  0  0  0
   -0.4684   -2.4582    1.8338 H   0  0  0  0  0  0  0  0  0  0  0  0
  1  2  3  0
  1  6  1  0
  2  3  1  0
  3  4  1  0
  3  5  1  0
  4  8  1  0
  4  9  1  0
  4 10  1  0
  5 11  1  0
  5 12  1  0
  5 13  1  0
  7 15  1  0
 14 15  1  0
 14 18  1  0
 15 16  1  0
 15 19  1  0
 16 17  2  0
 16 20  1  0
M  RAD  1   3   2
M  END
>  <reaction>  (6) 
rxn_1333

>  <mol_properties>  (6) 
{"1": {"label": "*4", "atom_type": "Ct"}, "2": {"label": "*3", "atom_type": "Cs"}, "6": {"label": "*2", "atom_type": "H0"}, "14": {"label": "*1", "atom_type": "Cs"}, "15": {"label": "*0", "atom_type": "CS"}}

>  <type>  (6) 
unop_2

>  <geom_source>  (6) 
Heuristics

$$$$

     RDKit          3D

 20 18  0  0  0  0  0  0  0  0999 V2000
   -0.3566    1.7174   -2.7403 C   0  0  0  0  0  0  0  0  0  0  0  0
   -0.3566    1.7174   -1.5423 C   0  0  0  0  0  0  0  0  0  0  0  0
   -0.3566    1.7414   -0.0785 C   0  0  0  0  0  3  0  0  0  0  0  0
   -1.6227    2.4178    0.4559 C   0  0  0  0  0  0  0  0  0  0  0  0
    0.9095    2.4178    0.4559 C   0  0  0  0  0  0  0  0  0  0  0  0
   -0.3566    1.7174   -3.8037 H   0  0  0  0  0  0  0  0  0  0  0  0
   -0.3566    0.4927    0.3294 H   0  0  0  0  0  0  0  0  0  0  0  0
   -2.5198    1.9185    0.0900 H   0  0  0  0  0  0  0  0  0  0  0  0
   -1.6601    3.4614    0.1384 H   0  0  0  0  0  0  0  0  0  0  0  0
   -1.6301    2.3898    1.5470 H   0  0  0  0  0  0  0  0  0  0  0  0
    0.9469    3.4613    0.1384 H   0  0  0  0  0  0  0  0  0  0  0  0
    1.8065    1.9185    0.0900 H   0  0  0  0  0  0  0  0  0  0  0  0
    0.9168    2.3898    1.5470 H   0  0  0  0  0  0  0  0  0  0  0  0
    0.4937   -0.9084    2.3366 S   0  0  0  0  0  0  0  0  0  0  0  0
   -0.3567   -0.7477    0.7346 C   0  0  0  0  0  0  0  0  0  0  0  0
   -0.2621   -2.0285   -0.0211 C   0  0  0  0  0  0  0  0  0  0  0  0
    0.5113   -2.2239   -1.4158 S   0  0  0  0  0  0  0  0  0  0  0  0
    1.7144   -1.1200    1.8262 H   0  0  0  0  0  0  0  0  0  0  0  0
   -1.3975   -0.5409    0.9948 H   0  0  0  0  0  0  0  0  0  0  0  0
   -0.7487   -2.8752    0.4643 H   0  0  0  0  0  0  0  0  0  0  0  0
  1  2  3  0
  1  6  1  0
  2  3  1  0
  3  4  1  0
  3  5  1  0
  4  8  1  0
  4  9  1  0
  4 10  1  0
  5 11  1  0
  5 12  1  0
  5 13  1  0
  7 15  1  0
 14 15  1  0
 14 18  1  0
 15 16  1  0
 15 19  1  0
 16 17  2  0
 16 20  1  0
M  RAD  1   3   2
M  END
>  <reaction>  (7) 
rxn_1333

>  <mol_properties>  (7) 
{"1": {"label": "*4", "atom_type": "Ct"}, "2": {"label": "*3", "atom_type": "Cs"}, "6": {"label": "*2", "atom_type": "H0"}, "14": {"label": "*1", "atom_type": "Cs"}, "15": {"label": "*0", "atom_type": "CS"}}

>  <type>  (7) 
unop_3

>  <geom_source>  (7) 
Heuristics

$$$$

     RDKit          3D

 20 18  0  0  0  0  0  0  0  0999 V2000
    0.3905    0.9842   -3.2301 C   0  0  0  0  0  0  0  0  0  0  0  0
    0.3905    0.9842   -2.0320 C   0  0  0  0  0  0  0  0  0  0  0  0
    0.3905    1.0081   -0.5682 C   0  0  0  0  0  3  0  0  0  0  0  0
   -0.8756    1.6846   -0.0338 C   0  0  0  0  0  0  0  0  0  0  0  0
    1.6567    1.6846   -0.0338 C   0  0  0  0  0  0  0  0  0  0  0  0
    0.3905    0.9842   -4.2934 H   0  0  0  0  0  0  0  0  0  0  0  0
    0.3905   -0.2405   -0.1603 H   0  0  0  0  0  0  0  0  0  0  0  0
   -1.7726    1.1853   -0.3998 H   0  0  0  0  0  0  0  0  0  0  0  0
   -0.9129    2.7281   -0.3514 H   0  0  0  0  0  0  0  0  0  0  0  0
   -0.8829    1.6566    1.0572 H   0  0  0  0  0  0  0  0  0  0  0  0
    1.6940    2.7281   -0.3514 H   0  0  0  0  0  0  0  0  0  0  0  0
    2.5537    1.1852   -0.3998 H   0  0  0  0  0  0  0  0  0  0  0  0
    1.6640    1.6566    1.0572 H   0  0  0  0  0  0  0  0  0  0  0  0
   -1.0824   -2.3631   -0.3616 S   0  0  0  0  0  0  0  0  0  0  0  0
    0.3905   -1.4809    0.2449 C   0  0  0  0  0  0  0  0  0  0  0  0
    0.1181   -0.9039    1.5916 C   0  0  0  0  0  0  0  0  0  0  0  0
    0.0857    0.6651    1.9356 S   0  0  0  0  0  0  0  0  0  0  0  0
   -1.8795   -1.2871   -0.4104 H   0  0  0  0  0  0  0  0  0  0  0  0
    1.1630   -2.2504    0.3151 H   0  0  0  0  0  0  0  0  0  0  0  0
   -0.0964   -1.6436    2.3638 H   0  0  0  0  0  0  0  0  0  0  0  0
  1  2  3  0
  1  6  1  0
  2  3  1  0
  3  4  1  0
  3  5  1  0
  4  8  1  0
  4  9  1  0
  4 10  1  0
  5 11  1  0
  5 12  1  0
  5 13  1  0
  7 15  1  0
 14 15  1  0
 14 18  1  0
 15 16  1  0
 15 19  1  0
 16 17  2  0
 16 20  1  0
M  RAD  1   3   2
M  END
>  <reaction>  (8) 
rxn_1333

>  <mol_properties>  (8) 
{"1": {"label": "*4", "atom_type": "Ct"}, "2": {"label": "*3", "atom_type": "Cs"}, "6": {"label": "*2", "atom_type": "H0"}, "14": {"label": "*1", "atom_type": "Cs"}, "15": {"label": "*0", "atom_type": "CS"}}

>  <type>  (8) 
unop_4

>  <geom_source>  (8) 
Heuristics

$$$$

     RDKit          3D

 20 18  0  0  0  0  0  0  0  0999 V2000
   -0.5757    1.3861   -2.9597 C   0  0  0  0  0  0  0  0  0  0  0  0
   -0.5757    1.3861   -1.7617 C   0  0  0  0  0  0  0  0  0  0  0  0
   -0.5757    1.4101   -0.2979 C   0  0  0  0  0  3  0  0  0  0  0  0
   -1.8418    2.0865    0.2365 C   0  0  0  0  0  0  0  0  0  0  0  0
    0.6905    2.0865    0.2365 C   0  0  0  0  0  0  0  0  0  0  0  0
   -0.5757    1.3861   -4.0231 H   0  0  0  0  0  0  0  0  0  0  0  0
   -0.5757    0.1614    0.1100 H   0  0  0  0  0  0  0  0  0  0  0  0
   -2.7388    1.5872   -0.1294 H   0  0  0  0  0  0  0  0  0  0  0  0
   -1.8791    3.1301   -0.0810 H   0  0  0  0  0  0  0  0  0  0  0  0
   -1.8491    2.0585    1.3276 H   0  0  0  0  0  0  0  0  0  0  0  0
    0.7278    3.1300   -0.0810 H   0  0  0  0  0  0  0  0  0  0  0  0
    1.5875    1.5872   -0.1294 H   0  0  0  0  0  0  0  0  0  0  0  0
    0.6978    2.0585    1.3276 H   0  0  0  0  0  0  0  0  0  0  0  0
   -0.5757   -1.1690    2.3338 S   0  0  0  0  0  0  0  0  0  0  0  0
   -0.5757   -1.0790    0.5152 C   0  0  0  0  0  0  0  0  0  0  0  0
    0.5855   -1.8368   -0.0306 C   0  0  0  0  0  0  0  0  0  0  0  0
    1.8086   -1.1913   -0.8483 S   0  0  0  0  0  0  0  0  0  0  0  0
    0.5883   -0.5279    2.5055 H   0  0  0  0  0  0  0  0  0  0  0  0
   -1.5111   -1.5577    0.2157 H   0  0  0  0  0  0  0  0  0  0  0  0
    0.5715   -2.9045    0.1915 H   0  0  0  0  0  0  0  0  0  0  0  0
  1  2  3  0
  1  6  1  0
  2  3  1  0
  3  4  1  0
  3  5  1  0
  4  8  1  0
  4  9  1  0
  4 10  1  0
  5 11  1  0
  5 12  1  0
  5 13  1  0
  7 15  1  0
 14 15  1  0
 14 18  1  0
 15 16  1  0
 15 19  1  0
 16 17  2  0
 16 20  1  0
M  RAD  1   3   2
M  END
>  <reaction>  (9) 
rxn_1333

>  <mol_properties>  (9) 
{"1": {"label": "*4", "atom_type": "Ct"}, "2": {"label": "*3", "atom_type": "Cs"}, "6": {"label": "*2", "atom_type": "H0"}, "14": {"label": "*1", "atom_type": "Cs"}, "15": {"label": "*0", "atom_type": "CS"}}

>  <type>  (9) 
unop_5

>  <geom_source>  (9) 
Heuristics

$$$$

     RDKit          3D

 20 18  0  0  0  0  0  0  0  0999 V2000
    0.1612    0.8884   -3.3127 C   0  0  0  0  0  0  0  0  0  0  0  0
    0.1612    0.8884   -2.1146 C   0  0  0  0  0  0  0  0  0  0  0  0
    0.1612    0.9123   -0.6508 C   0  0  0  0  0  3  0  0  0  0  0  0
   -1.1049    1.5888   -0.1164 C   0  0  0  0  0  0  0  0  0  0  0  0
    1.4274    1.5888   -0.1164 C   0  0  0  0  0  0  0  0  0  0  0  0
    0.1612    0.8884   -4.3760 H   0  0  0  0  0  0  0  0  0  0  0  0
    0.1612   -0.3363   -0.2429 H   0  0  0  0  0  0  0  0  0  0  0  0
   -2.0019    1.0895   -0.4824 H   0  0  0  0  0  0  0  0  0  0  0  0
   -1.1422    2.6323   -0.4340 H   0  0  0  0  0  0  0  0  0  0  0  0
   -1.1122    1.5608    0.9746 H   0  0  0  0  0  0  0  0  0  0  0  0
    1.4647    2.6323   -0.4340 H   0  0  0  0  0  0  0  0  0  0  0  0
    2.3244    1.0894   -0.4824 H   0  0  0  0  0  0  0  0  0  0  0  0
    1.4347    1.5608    0.9746 H   0  0  0  0  0  0  0  0  0  0  0  0
   -1.5396   -2.1948    0.3642 S   0  0  0  0  0  0  0  0  0  0  0  0
    0.1612   -1.5767    0.1623 C   0  0  0  0  0  0  0  0  0  0  0  0
    0.5888   -0.8553    1.3942 C   0  0  0  0  0  0  0  0  0  0  0  0
    0.9375    0.7110    1.4740 S   0  0  0  0  0  0  0  0  0  0  0  0
   -2.1129   -0.9897    0.4843 H   0  0  0  0  0  0  0  0  0  0  0  0
    0.7665   -2.4758    0.0242 H   0  0  0  0  0  0  0  0  0  0  0  0
    0.6268   -1.4764    2.2898 H   0  0  0  0  0  0  0  0  0  0  0  0
  1  2  3  0
  1  6  1  0
  2  3  1  0
  3  4  1  0
  3  5  1  0
  4  8  1  0
  4  9  1  0
  4 10  1  0
  5 11  1  0
  5 12  1  0
  5 13  1  0
  7 15  1  0
 14 15  1  0
 14 18  1  0
 15 16  1  0
 15 19  1  0
 16 17  2  0
 16 20  1  0
M  RAD  1   3   2
M  END
>  <reaction>  (10) 
rxn_1333

>  <mol_properties>  (10) 
{"1": {"label": "*4", "atom_type": "Ct"}, "2": {"label": "*3", "atom_type": "Cs"}, "6": {"label": "*2", "atom_type": "H0"}, "14": {"label": "*1", "atom_type": "Cs"}, "15": {"label": "*0", "atom_type": "CS"}}

>  <type>  (10) 
unop_6

>  <geom_source>  (10) 
Heuristics

$$$$

     RDKit          3D

 20 18  0  0  0  0  0  0  0  0999 V2000
   -0.1143    0.8818   -3.3219 C   0  0  0  0  0  3  0  0  0  0  0  0
   -0.1143    0.8818   -2.1239 C   0  0  0  0  0  0  0  0  0  0  0  0
   -0.1143    0.9057   -0.6601 C   0  0  0  0  0  3  0  0  0  0  0  0
   -1.3805    1.5822   -0.1257 C   0  0  0  0  0  0  0  0  0  0  0  0
    1.1518    1.5822   -0.1257 C   0  0  0  0  0  0  0  0  0  0  0  0
   -0.1143    0.8818   -4.3853 H   0  0  0  0  0  0  0  0  0  0  0  0
   -0.1144   -0.3429   -0.2522 H   0  0  0  0  0  0  0  0  0  0  0  0
   -2.2775    1.0829   -0.4916 H   0  0  0  0  0  0  0  0  0  0  0  0
   -1.4178    2.6257   -0.4432 H   0  0  0  0  0  0  0  0  0  0  0  0
   -1.3878    1.5542    0.9654 H   0  0  0  0  0  0  0  0  0  0  0  0
    1.1892    2.6257   -0.4432 H   0  0  0  0  0  0  0  0  0  0  0  0
    2.0488    1.0828   -0.4916 H   0  0  0  0  0  0  0  0  0  0  0  0
    1.1591    1.5541    0.9654 H   0  0  0  0  0  0  0  0  0  0  0  0
   -1.5873   -1.9374    1.1633 S   0  0  0  0  0  0  0  0  0  0  0  0
   -0.1144   -1.5833    0.1530 C   0  0  0  0  0  0  0  0  0  0  0  0
    0.9498   -0.9772    1.0020 C   0  0  0  0  0  3  0  0  0  0  0  0
    1.5273    0.5129    0.8367 S   0  0  0  0  0  0  0  0  0  0  0  0
   -1.8451   -0.6627    1.4860 H   0  0  0  0  0  0  0  0  0  0  0  0
    0.2090   -2.5602   -0.2144 H   0  0  0  0  0  0  0  0  0  0  0  0
    1.3135   -1.6255    1.8000 H   0  0  0  0  0  0  0  0  0  0  0  0
  1  2  2  0
  1  6  1  0
  2  3  2  0
  3  4  1  0
  4  8  1  0
  4  9  1  0
  4 10  1  0
  5 17  1  0
  5 11  1  0
  5 12  1  0
  5 13  1  0
  7 15  1  0
 14 15  1  0
 14 18  1  0
 15 16  1  0
 15 19  1  0
 16 17  1  0
 16 20  1  0
M  CHG  2   1   1   3  -1
M  RAD  1  16   2
M  END
>  <reaction>  (11) 
rxn_1333

>  <mol_properties>  (11) 
{"1": {"label": "*4", "atom_type": "Ct"}, "2": {"label": "*3", "atom_type": "Cs"}, "6": {"label": "*2", "atom_type": "H0"}, "14": {"label": "*1", "atom_type": "Cs"}, "15": {"label": "*0", "atom_type": "CS"}}

>  <type>  (11) 
unop_7

>  <geom_source>  (11) 
Heuristics

$$$$

     RDKit          3D

 20 18  0  0  0  0  0  0  0  0999 V2000
    0.0996    1.8132   -2.6784 C   0  0  0  0  0  0  0  0  0  0  0  0
    0.0996    1.8132   -1.4803 C   0  0  0  0  0  0  0  0  0  0  0  0
    0.0996    1.8372   -0.0165 C   0  0  0  0  0  3  0  0  0  0  0  0
   -1.1665    2.5137    0.5179 C   0  0  0  0  0  0  0  0  0  0  0  0
    1.3658    2.5136    0.5179 C   0  0  0  0  0  0  0  0  0  0  0  0
    0.0996    1.8132   -3.7417 H   0  0  0  0  0  0  0  0  0  0  0  0
    0.0996    0.5885    0.3914 H   0  0  0  0  0  0  0  0  0  0  0  0
   -2.0635    2.0144    0.1520 H   0  0  0  0  0  0  0  0  0  0  0  0
   -1.2038    3.5572    0.2004 H   0  0  0  0  0  0  0  0  0  0  0  0
   -1.1738    2.4856    1.6089 H   0  0  0  0  0  0  0  0  0  0  0  0
    1.4031    3.5571    0.2004 H   0  0  0  0  0  0  0  0  0  0  0  0
    2.2628    2.0143    0.1520 H   0  0  0  0  0  0  0  0  0  0  0  0
    1.3731    2.4856    1.6089 H   0  0  0  0  0  0  0  0  0  0  0  0
    1.8003   -1.2700    0.9985 S   0  0  0  0  0  0  0  0  0  0  0  0
    0.0996   -0.6518    0.7966 C   0  0  0  0  0  0  0  0  0  0  0  0
   -0.8541   -1.7959    0.7490 C   0  0  0  0  0  0  0  0  0  0  0  0
   -1.7569   -2.1945   -0.5188 S   0  0  0  0  0  0  0  0  0  0  0  0
    1.8463   -1.9349   -0.1639 H   0  0  0  0  0  0  0  0  0  0  0  0
   -0.0819   -0.0483    1.6891 H   0  0  0  0  0  0  0  0  0  0  0  0
   -0.8858   -2.3944    1.6601 H   0  0  0  0  0  0  0  0  0  0  0  0
  1  2  3  0
  1  6  1  0
  2  3  1  0
  3  4  1  0
  3  5  1  0
  4  8  1  0
  4  9  1  0
  4 10  1  0
  5 11  1  0
  5 12  1  0
  5 13  1  0
  7 15  1  0
 14 15  1  0
 14 18  1  0
 15 16  1  0
 15 19  1  0
 16 17  2  0
 16 20  1  0
M  RAD  1   3   2
M  END
>  <reaction>  (12) 
rxn_1333

>  <mol_properties>  (12) 
{"1": {"label": "*4", "atom_type": "Ct"}, "2": {"label": "*3", "atom_type": "Cs"}, "6": {"label": "*2", "atom_type": "H0"}, "14": {"label": "*1", "atom_type": "Cs"}, "15": {"label": "*0", "atom_type": "CS"}}

>  <type>  (12) 
unop_8

>  <geom_source>  (12) 
Heuristics

$$$$

     RDKit          3D

 20 18  0  0  0  0  0  0  0  0999 V2000
    0.5464    1.1630   -3.0884 C   0  0  0  0  0  0  0  0  0  0  0  0
    0.5464    1.1630   -1.8903 C   0  0  0  0  0  0  0  0  0  0  0  0
    0.5464    1.1870   -0.4265 C   0  0  0  0  0  3  0  0  0  0  0  0
   -0.7197    1.8634    0.1078 C   0  0  0  0  0  0  0  0  0  0  0  0
    1.8125    1.8634    0.1078 C   0  0  0  0  0  0  0  0  0  0  0  0
    0.5464    1.1630   -4.1517 H   0  0  0  0  0  0  0  0  0  0  0  0
    0.5464   -0.0617   -0.0186 H   0  0  0  0  0  0  0  0  0  0  0  0
   -1.6167    1.3641   -0.2581 H   0  0  0  0  0  0  0  0  0  0  0  0
   -0.7570    2.9069   -0.2097 H   0  0  0  0  0  0  0  0  0  0  0  0
   -0.7270    1.8354    1.1989 H   0  0  0  0  0  0  0  0  0  0  0  0
    1.8499    2.9069   -0.2097 H   0  0  0  0  0  0  0  0  0  0  0  0
    2.7096    1.3640   -0.2581 H   0  0  0  0  0  0  0  0  0  0  0  0
    1.8199    1.8354    1.1989 H   0  0  0  0  0  0  0  0  0  0  0  0
   -0.3040   -2.3776   -0.8116 S   0  0  0  0  0  0  0  0  0  0  0  0
    0.5464   -1.3021    0.3866 C   0  0  0  0  0  0  0  0  0  0  0  0
   -0.3149   -1.0970    1.5853 C   0  0  0  0  0  0  0  0  0  0  0  0
   -0.9330    0.3115    2.0493 S   0  0  0  0  0  0  0  0  0  0  0  0
   -1.3274   -1.5447   -1.0452 H   0  0  0  0  0  0  0  0  0  0  0  0
    1.4477   -1.8549    0.6617 H   0  0  0  0  0  0  0  0  0  0  0  0
   -0.5359   -2.0081    2.1425 H   0  0  0  0  0  0  0  0  0  0  0  0
  1  2  3  0
  1  6  1  0
  2  3  1  0
  3  4  1  0
  3  5  1  0
  4  8  1  0
  4  9  1  0
  4 10  1  0
  5 11  1  0
  5 12  1  0
  5 13  1  0
  7 15  1  0
 14 15  1  0
 14 18  1  0
 15 16  1  0
 15 19  1  0
 16 17  2  0
 16 20  1  0
M  RAD  1   3   2
M  END
>  <reaction>  (13) 
rxn_1333

>  <mol_properties>  (13) 
{"1": {"label": "*4", "atom_type": "Ct"}, "2": {"label": "*3", "atom_type": "Cs"}, "6": {"label": "*2", "atom_type": "H0"}, "14": {"label": "*1", "atom_type": "Cs"}, "15": {"label": "*0", "atom_type": "CS"}}

>  <type>  (13) 
unop_9

>  <geom_source>  (13) 
Heuristics

$$$$

     RDKit          3D

 20 18  0  0  0  0  0  0  0  0999 V2000
    0.2864    1.7523   -2.7033 C   0  0  0  0  0  0  0  0  0  0  0  0
    0.2864    1.7523   -1.5052 C   0  0  0  0  0  0  0  0  0  0  0  0
    0.2864    1.7762   -0.0414 C   0  0  0  0  0  3  0  0  0  0  0  0
   -0.9797    2.4527    0.4930 C   0  0  0  0  0  0  0  0  0  0  0  0
    1.5526    2.4527    0.4930 C   0  0  0  0  0  0  0  0  0  0  0  0
    0.2864    1.7523   -3.7666 H   0  0  0  0  0  0  0  0  0  0  0  0
    0.2864    0.5276    0.3665 H   0  0  0  0  0  0  0  0  0  0  0  0
   -1.8767    1.9534    0.1270 H   0  0  0  0  0  0  0  0  0  0  0  0
   -1.0170    3.4962    0.1754 H   0  0  0  0  0  0  0  0  0  0  0  0
   -0.9870    2.4247    1.5840 H   0  0  0  0  0  0  0  0  0  0  0  0
    1.5899    3.4962    0.1754 H   0  0  0  0  0  0  0  0  0  0  0  0
    2.4496    1.9533    0.1270 H   0  0  0  0  0  0  0  0  0  0  0  0
    1.5599    2.4247    1.5840 H   0  0  0  0  0  0  0  0  0  0  0  0
    1.7593   -1.5950    0.1652 S   0  0  0  0  0  0  0  0  0  0  0  0
    0.2864   -0.7128    0.7717 C   0  0  0  0  0  0  0  0  0  0  0  0
   -0.8066   -1.6851    1.0558 C   0  0  0  0  0  0  0  0  0  0  0  0
   -2.2124   -1.7479    0.2805 S   0  0  0  0  0  0  0  0  0  0  0  0
    1.1876   -2.0721   -0.9488 H   0  0  0  0  0  0  0  0  0  0  0  0
    0.6137   -0.2344    1.6978 H   0  0  0  0  0  0  0  0  0  0  0  0
   -0.5757   -2.4060    1.8408 H   0  0  0  0  0  0  0  0  0  0  0  0
  1  2  3  0
  1  6  1  0
  2  3  1  0
  3  4  1  0
  3  5  1  0
  4  8  1  0
  4  9  1  0
  4 10  1  0
  5 11  1  0
  5 12  1  0
  5 13  1  0
  7 15  1  0
 14 15  1  0
 14 18  1  0
 15 16  1  0
 15 19  1  0
 16 17  2  0
 16 20  1  0
M  RAD  1   3   2
M  END
>  <reaction>  (14) 
rxn_1333

>  <mol_properties>  (14) 
{"1": {"label": "*4", "atom_type": "Ct"}, "2": {"label": "*3", "atom_type": "Cs"}, "6": {"label": "*2", "atom_type": "H0"}, "14": {"label": "*1", "atom_type": "Cs"}, "15": {"label": "*0", "atom_type": "CS"}}

>  <type>  (14) 
unop_10

>  <geom_source>  (14) 
Heuristics

$$$$

     RDKit          3D

 20 18  0  0  0  0  0  0  0  0999 V2000
   -0.4181    1.0150   -3.2221 C   0  0  0  0  0  0  0  0  0  0  0  0
   -0.4181    1.0150   -2.0240 C   0  0  0  0  0  0  0  0  0  0  0  0
   -0.4181    1.0390   -0.5602 C   0  0  0  0  0  3  0  0  0  0  0  0
   -1.6842    1.7154   -0.0259 C   0  0  0  0  0  0  0  0  0  0  0  0
    0.8480    1.7154   -0.0259 C   0  0  0  0  0  0  0  0  0  0  0  0
   -0.4181    1.0150   -4.2854 H   0  0  0  0  0  0  0  0  0  0  0  0
   -0.4181   -0.2097   -0.1523 H   0  0  0  0  0  0  0  0  0  0  0  0
   -2.5813    1.2161   -0.3918 H   0  0  0  0  0  0  0  0  0  0  0  0
   -1.7216    2.7590   -0.3434 H   0  0  0  0  0  0  0  0  0  0  0  0
   -1.6916    1.6874    1.0652 H   0  0  0  0  0  0  0  0  0  0  0  0
    0.8854    2.7589   -0.3434 H   0  0  0  0  0  0  0  0  0  0  0  0
    1.7451    1.2161   -0.3918 H   0  0  0  0  0  0  0  0  0  0  0  0
    0.8554    1.6874    1.0652 H   0  0  0  0  0  0  0  0  0  0  0  0
   -1.2685   -1.6108    1.8549 S   0  0  0  0  0  0  0  0  0  0  0  0
   -0.4181   -1.4501    0.2529 C   0  0  0  0  0  0  0  0  0  0  0  0
    1.0501   -1.3141    0.4688 C   0  0  0  0  0  0  0  0  0  0  0  0
    1.9227   -0.0172    0.0977 S   0  0  0  0  0  0  0  0  0  0  0  0
   -0.9227   -0.4022    2.3186 H   0  0  0  0  0  0  0  0  0  0  0  0
   -0.6361   -2.3845   -0.2697 H   0  0  0  0  0  0  0  0  0  0  0  0
    1.5178   -2.1780    0.9426 H   0  0  0  0  0  0  0  0  0  0  0  0
  1  2  3  0
  1  6  1  0
  2  3  1  0
  3  4  1  0
  3  5  1  0
  4  8  1  0
  4  9  1  0
  4 10  1  0
  5 11  1  0
  5 12  1  0
  5 13  1  0
  7 15  1  0
 14 15  1  0
 14 18  1  0
 15 16  1  0
 15 19  1  0
 16 17  2  0
 16 20  1  0
M  RAD  1   3   2
M  END
>  <reaction>  (15) 
rxn_1333

>  <mol_properties>  (15) 
{"1": {"label": "*4", "atom_type": "Ct"}, "2": {"label": "*3", "atom_type": "Cs"}, "6": {"label": "*2", "atom_type": "H0"}, "14": {"label": "*1", "atom_type": "Cs"}, "15": {"label": "*0", "atom_type": "CS"}}

>  <type>  (15) 
unop_11

>  <geom_source>  (15) 
Heuristics

$$$$

     RDKit          3D

 20 18  0  0  0  0  0  0  0  0999 V2000
    0.5757    1.3999   -2.9175 C   0  0  0  0  0  0  0  0  0  0  0  0
    0.5757    1.3999   -1.7194 C   0  0  0  0  0  0  0  0  0  0  0  0
    0.5757    1.4239   -0.2556 C   0  0  0  0  0  3  0  0  0  0  0  0
   -0.6904    2.1003    0.2788 C   0  0  0  0  0  0  0  0  0  0  0  0
    1.8419    2.1003    0.2788 C   0  0  0  0  0  0  0  0  0  0  0  0
    0.5757    1.3999   -3.9808 H   0  0  0  0  0  0  0  0  0  0  0  0
    0.5757    0.1752    0.1523 H   0  0  0  0  0  0  0  0  0  0  0  0
   -1.5874    1.6010   -0.0872 H   0  0  0  0  0  0  0  0  0  0  0  0
   -0.7277    3.1438   -0.0388 H   0  0  0  0  0  0  0  0  0  0  0  0
   -0.6977    2.0723    1.3698 H   0  0  0  0  0  0  0  0  0  0  0  0
    1.8792    3.1438   -0.0388 H   0  0  0  0  0  0  0  0  0  0  0  0
    2.7389    1.6010   -0.0872 H   0  0  0  0  0  0  0  0  0  0  0  0
    1.8492    2.0723    1.3698 H   0  0  0  0  0  0  0  0  0  0  0  0
    0.5757   -2.2114   -0.8573 S   0  0  0  0  0  0  0  0  0  0  0  0
    0.5757   -1.0652    0.5575 C   0  0  0  0  0  0  0  0  0  0  0  0
   -0.5856   -1.3547    1.4454 C   0  0  0  0  0  0  0  0  0  0  0  0
   -1.8086   -0.3509    1.7243 S   0  0  0  0  0  0  0  0  0  0  0  0
   -0.5884   -1.7953   -1.3743 H   0  0  0  0  0  0  0  0  0  0  0  0
    1.5110   -1.2748    1.0819 H   0  0  0  0  0  0  0  0  0  0  0  0
   -0.5715   -2.3476    1.8964 H   0  0  0  0  0  0  0  0  0  0  0  0
  1  2  3  0
  1  6  1  0
  2  3  1  0
  3  4  1  0
  3  5  1  0
  4  8  1  0
  4  9  1  0
  4 10  1  0
  5 11  1  0
  5 12  1  0
  5 13  1  0
  7 15  1  0
 14 15  1  0
 14 18  1  0
 15 16  1  0
 15 19  1  0
 16 17  2  0
 16 20  1  0
M  RAD  1   3   2
M  END
>  <reaction>  (16) 
rxn_1333

>  <mol_properties>  (16) 
{"1": {"label": "*4", "atom_type": "Ct"}, "2": {"label": "*3", "atom_type": "Cs"}, "6": {"label": "*2", "atom_type": "H0"}, "14": {"label": "*1", "atom_type": "Cs"}, "15": {"label": "*0", "atom_type": "CS"}}

>  <type>  (16) 
unop_12

>  <geom_source>  (16) 
Heuristics

$$$$

     RDKit          3D

 20 18  0  0  0  0  0  0  0  0999 V2000
    2.5043    1.4857    0.8733 S   0  0  0  0  0  0  0  0  0  0  0  0
    2.1830   -1.7836    1.7818 S   0  0  0  0  0  1  0  0  0  0  0  0
    1.8069    0.0332    0.0270 C   0  0  0  0  0  0  0  0  0  0  0  0
   -1.0927    0.3980   -1.6221 C   0  0  0  0  0  0  0  0  0  0  0  0
   -1.5568   -1.3686    0.1237 C   0  0  0  0  0  0  0  0  0  0  0  0
   -0.7911   -0.0880   -0.2053 C   0  0  0  0  0  0  0  0  0  0  0  0
    2.4803   -1.2217    0.4934 C   0  0  0  0  0  0  0  0  0  0  0  0
   -1.0956    0.9631    0.7772 C   0  0  0  0  0  0  0  0  0  0  0  0
   -1.3444    1.8248    1.5830 C   0  0  0  0  0  0  0  0  0  0  0  0
    1.9689    0.1498   -1.0653 H   0  0  0  0  0  0  0  0  0  0  0  0
    0.4692   -0.0347    0.2585 H   0  0  0  0  0  0  0  0  0  0  0  0
   -2.1725    0.6371   -1.7356 H   0  0  0  0  0  0  0  0  0  0  0  0
   -0.4941    1.3064   -1.8466 H   0  0  0  0  0  0  0  0  0  0  0  0
   -0.8168   -0.3873   -2.3572 H   0  0  0  0  0  0  0  0  0  0  0  0
   -2.6539   -1.1956    0.0755 H   0  0  0  0  0  0  0  0  0  0  0  0
   -1.2844   -2.1672   -0.5981 H   0  0  0  0  0  0  0  0  0  0  0  0
   -1.2888   -1.7189    1.1432 H   0  0  0  0  0  0  0  0  0  0  0  0
    3.1023   -1.7822   -0.1969 H   0  0  0  0  0  0  0  0  0  0  0  0
    1.6388    2.3685    0.2003 H   0  0  0  0  0  0  0  0  0  0  0  0
   -1.5629    2.5811    2.2902 H   0  0  0  0  0  0  0  0  0  0  0  0
  1  3  1  0
  1 19  1  0
  2  7  1  0
  3  7  2  3
  3 10  1  0
  4  6  1  0
  4 12  1  0
  4 13  1  0
  4 14  1  0
  5  6  1  0
  5 15  1  0
  5 16  1  0
  5 17  1  0
  6  8  1  0
  6 11  1  0
  7 18  1  0
  8  9  3  0
  9 20  1  0
M  RAD  1   2   2
M  END
>  <reaction>  (17) 
rxn_1333

>  <mol_properties>  (17) 
{"1": {"label": "*4", "atom_type": "Ct"}, "2": {"label": "*3", "atom_type": "Cs"}, "6": {"label": "*2", "atom_type": "H0"}, "14": {"label": "*1", "atom_type": "Cs"}, "15": {"label": "*0", "atom_type": "CS"}}

>  <type>  (17) 
unop_13

>  <geom_source>  (17) 
AutoTST

$$$$
