
     RDKit          3D

  9  8  0  0  0  0  0  0  0  0999 V2000
   -0.9895    0.3048    0.1041 C   0  0  0  0  0  0  0  0  0  0  0  0
    0.3761   -0.3562    0.0721 C   0  0  0  0  0  0  0  0  0  0  0  0
    0.3441   -1.6564   -0.4834 O   0  0  0  0  0  0  0  0  0  0  0  0
   -1.6997   -0.3114    0.6572 H   0  0  0  0  0  0  0  0  0  0  0  0
   -0.9320    1.2848    0.5822 H   0  0  0  0  0  0  0  0  0  0  0  0
   -1.3774    0.4507   -0.9077 H   0  0  0  0  0  0  0  0  0  0  0  0
    0.7581   -0.4813    1.0862 H   0  0  0  0  0  0  0  0  0  0  0  0
    1.0900    0.2787   -0.4681 H   0  0  0  0  0  0  0  0  0  0  0  0
    0.0089   -1.5959   -1.3792 H   0  0  0  0  0  0  0  0  0  0  0  0
  1  2  1  0
  1  4  1  0
  1  5  1  0
  1  6  1  0
  2  3  1  0
  2  7  1  0
  2  8  1  0
  3  9  1  0
M  END
>  <reaction>  (1) 
rxn_225

>  <mol_properties>  (1) 
{"2": {"label": "donator", "atom_type": "O2s"}, "8": {"label": "d_hydrogen", "atom_type": "H0"}}

>  <type>  (1) 
r1h

$$$$

     RDKit          3D

  1  0  0  0  0  0  0  0  0  0999 V2000
    0.0000    0.0000    0.0000 O   0  0  0  0  0 15  0  0  0  0  0  0
M  END
>  <reaction>  (2) 
rxn_225

>  <mol_properties>  (2) 
{"0": {"label": "acceptor", "atom_type": "O2s"}}

>  <type>  (2) 
r2

$$$$

     RDKit          3D

  2  1  0  0  0  0  0  0  0  0999 V2000
    0.0000    0.0000    0.4855 O   0  0  0  0  0  1  0  0  0  0  0  0
    0.0000    0.0000   -0.4855 H   0  0  0  0  0  0  0  0  0  0  0  0
  1  2  1  0
M  RAD  1   1   2
M  END
>  <reaction>  (3) 
rxn_225

>  <mol_properties>  (3) 
{"0": {"label": "a_hydrogen", "atom_type": "H0"}, "1": {"label": "acceptor", "atom_type": "O2s"}}

>  <type>  (3) 
r2h

$$$$

     RDKit          3D

 10  8  0  0  0  0  0  0  0  0999 V2000
    0.5133   -0.9818   -1.2598 C   0  0  0  0  0  0  0  0  0  0  0  0
    0.4729   -0.9497    0.2541 C   0  0  0  0  0  0  0  0  0  0  0  0
    0.5145    0.3355    0.7945 O   0  0  0  0  0  0  0  0  0  0  0  0
    1.3864   -0.4461   -1.6338 H   0  0  0  0  0  0  0  0  0  0  0  0
    0.5558   -2.0124   -1.6161 H   0  0  0  0  0  0  0  0  0  0  0  0
   -0.3851   -0.5148   -1.6675 H   0  0  0  0  0  0  0  0  0  0  0  0
    1.3658   -1.4334    0.6737 H   0  0  0  0  0  0  0  0  0  0  0  0
   -0.3894   -1.5011    0.6461 H   0  0  0  0  0  0  0  0  0  0  0  0
   -0.3573    0.9934    0.5242 H   0  0  0  0  0  0  0  0  0  0  0  0
   -1.4418    1.3104    0.1445 O   0  0  0  0  0 15  0  0  0  0  0  0
  1  2  1  0
  1  4  1  0
  1  5  1  0
  1  6  1  0
  2  3  1  0
  2  7  1  0
  2  8  1  0
  3  9  1  0
M  END
>  <reaction>  (4) 
rxn_225

>  <mol_properties>  (4) 
{"1": {"label": "*0", "atom_type": "Cs"}, "2": {"label": "*1", "atom_type": "O2s"}, "8": {"label": "*2", "atom_type": "H0"}, "9": {"label": "*3", "atom_type": "O2s"}}

>  <type>  (4) 
ts

$$$$

     RDKit          3D

 10  8  0  0  0  0  0  0  0  0999 V2000
    0.5015   -0.9715   -1.2371 C   0  0  0  0  0  0  0  0  0  0  0  0
    0.5015   -0.9715    0.2804 C   0  0  0  0  0  0  0  0  0  0  0  0
    0.5015    0.3317    0.8297 O   0  0  0  0  0  0  0  0  0  0  0  0
    1.3576   -0.4139   -1.6194 H   0  0  0  0  0  0  0  0  0  0  0  0
    0.5499   -1.9920   -1.6223 H   0  0  0  0  0  0  0  0  0  0  0  0
   -0.4099   -0.5113   -1.6283 H   0  0  0  0  0  0  0  0  0  0  0  0
    1.4080   -1.4472    0.6573 H   0  0  0  0  0  0  0  0  0  0  0  0
   -0.3507   -1.5512    0.6577 H   0  0  0  0  0  0  0  0  0  0  0  0
   -0.4368    0.8837    0.4588 H   0  0  0  0  0  0  0  0  0  0  0  0
   -1.3874    1.4430    0.0831 O   0  0  0  0  0 15  0  0  0  0  0  0
  1  2  1  0
  1  4  1  0
  1  5  1  0
  1  6  1  0
  2  3  1  0
  2  7  1  0
  2  8  1  0
  3  9  1  0
M  END
>  <reaction>  (5) 
rxn_225

>  <mol_properties>  (5) 
{"1": {"label": "*0", "atom_type": "Cs"}, "2": {"label": "*1", "atom_type": "O2s"}, "8": {"label": "*2", "atom_type": "H0"}, "9": {"label": "*3", "atom_type": "O2s"}}

>  <type>  (5) 
unop_1

>  <geom_source>  (5) 
Heuristics

$$$$

     RDKit          3D

 10  8  0  0  0  0  0  0  0  0999 V2000
    1.0571    0.0325   -0.2479 O   0  0  0  0  0  0  0  0  0  0  0  0
    3.1442   -0.1623   -0.9009 O   0  0  0  0  0 15  0  0  0  0  0  0
   -0.0630   -0.2246    0.5433 C   0  0  0  0  0  0  0  0  0  0  0  0
   -1.3247    0.1886   -0.1981 C   0  0  0  0  0  0  0  0  0  0  0  0
    0.0193    0.3477    1.4912 H   0  0  0  0  0  0  0  0  0  0  0  0
   -0.1042   -1.3091    0.7780 H   0  0  0  0  0  0  0  0  0  0  0  0
   -2.2144   -0.0171    0.4338 H   0  0  0  0  0  0  0  0  0  0  0  0
   -1.2911    1.2742   -0.4305 H   0  0  0  0  0  0  0  0  0  0  0  0
   -1.4148   -0.3852   -1.1448 H   0  0  0  0  0  0  0  0  0  0  0  0
    2.1915    0.2555   -0.3243 H   0  0  0  0  0  0  0  0  0  0  0  0
  1  3  1  0
  1 10  1  0
  3  4  1  0
  3  5  1  0
  3  6  1  0
  4  7  1  0
  4  8  1  0
  4  9  1  0
M  END
>  <reaction>  (6) 
rxn_225

>  <mol_properties>  (6) 
{"1": {"label": "*0", "atom_type": "Cs"}, "2": {"label": "*1", "atom_type": "O2s"}, "8": {"label": "*2", "atom_type": "H0"}, "9": {"label": "*3", "atom_type": "O2s"}}

>  <type>  (6) 
unop_2

>  <geom_source>  (6) 
AutoTST

$$$$

     RDKit          3D

 10  8  0  0  0  0  0  0  0  0999 V2000
    1.2599    0.1044    0.4454 O   0  0  0  0  0  1  0  0  0  0  0  0
    2.4438   -0.9863   -1.0709 O   0  0  0  0  0  1  0  0  0  0  0  0
    0.0180    0.7107    0.2256 C   0  0  0  0  0  0  0  0  0  0  0  0
   -1.0803   -0.3427    0.1747 C   0  0  0  0  0  0  0  0  0  0  0  0
    0.0358    1.2871   -0.7255 H   0  0  0  0  0  0  0  0  0  0  0  0
   -0.1897    1.4162    1.0574 H   0  0  0  0  0  0  0  0  0  0  0  0
   -2.0641    0.1497    0.0248 H   0  0  0  0  0  0  0  0  0  0  0  0
   -0.8981   -1.0444   -0.6666 H   0  0  0  0  0  0  0  0  0  0  0  0
   -1.1043   -0.9131    1.1275 H   0  0  0  0  0  0  0  0  0  0  0  0
    1.5789   -0.3815   -0.5923 H   0  0  0  0  0  0  0  0  0  0  0  0
  1  3  1  0
  2 10  1  0
  3  4  1  0
  3  5  1  0
  3  6  1  0
  4  7  1  0
  4  8  1  0
  4  9  1  0
M  RAD  2   1   2   2   2
M  END
>  <reaction>  (7) 
rxn_225

>  <mol_properties>  (7) 
{"1": {"label": "*0", "atom_type": "Cs"}, "2": {"label": "*1", "atom_type": "O2s"}, "8": {"label": "*2", "atom_type": "H0"}, "9": {"label": "*3", "atom_type": "O2s"}}

>  <type>  (7) 
unop_3

>  <geom_source>  (7) 
gaussian_log

$$$$
