
     RDKit          3D

  4  3  0  0  0  0  0  0  0  0999 V2000
   -0.0057    0.0001   -0.0008 C   0  0  0  0  0  0  0  0  0  0  0  0
    1.1789   -0.0174    0.1563 O   0  0  0  0  0  0  0  0  0  0  0  0
   -0.5891    0.9399    0.0445 H   0  0  0  0  0  0  0  0  0  0  0  0
   -0.5841   -0.9226   -0.2001 H   0  0  0  0  0  0  0  0  0  0  0  0
  1  2  2  0
  1  3  1  0
  1  4  1  0
M  END
>  <reaction>  (1) 
rxn_3210

>  <mol_properties>  (1) 
{"0": {"label": "donator", "atom_type": "CO"}, "2": {"label": "d_hydrogen", "atom_type": "H0"}}

>  <type>  (1) 
r1h

$$$$

     RDKit          3D

  7  6  0  0  0  0  0  0  0  0999 V2000
   -1.3059    0.5497   -0.1304 N   0  0  0  0  0  2  0  0  0  0  0  0
   -0.2700   -0.4288    0.0448 C   0  0  0  0  0  0  0  0  0  0  0  0
    1.1109    0.0669    0.0401 C   0  0  0  0  0  0  0  0  0  0  0  0
    2.1758    0.4925    0.0308 N   0  0  0  0  0  0  0  0  0  0  0  0
   -0.8815    1.4733   -0.2339 H   0  0  0  0  0  0  0  0  0  0  0  0
   -0.3767   -1.1909   -0.7373 H   0  0  0  0  0  0  0  0  0  0  0  0
   -0.4527   -0.9628    0.9858 H   0  0  0  0  0  0  0  0  0  0  0  0
  1  2  1  0
  1  5  1  0
  2  3  1  0
  2  6  1  0
  2  7  1  0
  3  4  3  0
M  RAD  1   1   2
M  END
>  <reaction>  (2) 
rxn_3210

>  <mol_properties>  (2) 
{"0": {"label": "acceptor", "atom_type": "N3s"}}

>  <type>  (2) 
r2

$$$$

     RDKit          3D

  8  7  0  0  0  0  0  0  0  0999 V2000
   -1.0805    0.5317    0.0204 N   0  0  0  0  0  0  0  0  0  0  0  0
   -0.1080   -0.5393    0.0956 C   0  0  0  0  0  0  0  0  0  0  0  0
    1.2945   -0.1247   -0.1005 C   0  0  0  0  0  0  0  0  0  0  0  0
    2.3714    0.2386   -0.2580 N   0  0  0  0  0  0  0  0  0  0  0  0
   -1.0516    0.9857   -0.8822 H   0  0  0  0  0  0  0  0  0  0  0  0
   -0.9009    1.2352    0.7235 H   0  0  0  0  0  0  0  0  0  0  0  0
   -0.3427   -1.2965   -0.6542 H   0  0  0  0  0  0  0  0  0  0  0  0
   -0.1810   -1.0288    1.0680 H   0  0  0  0  0  0  0  0  0  0  0  0
  1  2  1  0
  1  5  1  0
  1  6  1  0
  2  3  1  0
  2  7  1  0
  2  8  1  0
  3  4  3  0
M  END
>  <reaction>  (3) 
rxn_3210

>  <mol_properties>  (3) 
{"0": {"label": "acceptor", "atom_type": "N3s"}, "7": {"label": "a_hydrogen", "atom_type": "H0"}}

>  <type>  (3) 
r2h

$$$$

     RDKit          3D

 11  9  0  0  0  0  0  0  0  0999 V2000
   -0.4896    0.2740    1.6372 N   0  0  0  0  0  2  0  0  0  0  0  0
   -0.4949    1.2388    0.5540 C   0  0  0  0  0  0  0  0  0  0  0  0
    0.7635    1.3356   -0.1980 C   0  0  0  0  0  0  0  0  0  0  0  0
    1.7709    1.3744   -0.7457 N   0  0  0  0  0  0  0  0  0  0  0  0
    0.4506    0.2325    2.0323 H   0  0  0  0  0  0  0  0  0  0  0  0
   -0.7262    2.2293    0.9624 H   0  0  0  0  0  0  0  0  0  0  0  0
   -1.2996    0.9946   -0.1441 H   0  0  0  0  0  0  0  0  0  0  0  0
   -0.5962   -1.8734    0.1297 C   0  0  0  0  0  0  0  0  0  0  0  0
   -1.1150   -1.6912   -0.9177 O   0  0  0  0  0  0  0  0  0  0  0  0
   -0.5547   -0.9519    0.9749 H   0  0  0  0  0  0  0  0  0  0  0  0
   -0.1295   -2.8373    0.4249 H   0  0  0  0  0  0  0  0  0  0  0  0
  1  2  1  0
  1  5  1  0
  2  3  1  0
  2  6  1  0
  2  7  1  0
  3  4  3  0
  8  9  2  0
  8 10  1  0
  8 11  1  0
M  RAD  1   1   2
M  END
>  <reaction>  (4) 
rxn_3210

>  <mol_properties>  (4) 
{"0": {"label": "*3", "atom_type": "N3s"}, "1": {"label": "*4", "atom_type": "Cs"}, "7": {"label": "*1", "atom_type": "CO"}, "8": {"label": "*0", "atom_type": "O2d"}, "9": {"label": "*2", "atom_type": "H0"}}

>  <type>  (4) 
ts

$$$$

     RDKit          3D

 11  9  0  0  0  0  0  0  0  0999 V2000
    1.0078    0.3307    0.4944 N   0  0  0  0  0  0  0  0  0  0  0  0
   -0.1630    0.4143    1.3434 C   0  0  0  0  0  0  0  0  0  0  0  0
   -1.2336    1.2995    0.8458 C   0  0  0  0  0  0  0  0  0  0  0  0
   -2.0415    1.9968    0.4242 N   0  0  0  0  0  0  0  0  0  0  0  0
    1.4353    1.2387    0.3749 H   0  0  0  0  0  0  0  0  0  0  0  0
    0.1306    0.7658    2.3337 H   0  0  0  0  0  0  0  0  0  0  0  0
   -0.5863   -0.5823    1.4779 H   0  0  0  0  0  0  0  0  0  0  0  0
    1.0078   -1.8253   -0.8509 C   0  0  0  0  0  3  0  0  0  0  0  0
    1.0078   -1.8253   -2.0460 O   0  0  0  0  0  0  0  0  0  0  0  0
    1.0078   -0.6983   -0.1476 H   0  0  0  0  0  0  0  0  0  0  0  0
    1.0078   -2.7646   -0.2649 H   0  0  0  0  0  0  0  0  0  0  0  0
  1  2  1  0
  1  5  1  0
  1 10  1  0
  2  3  1  0
  2  6  1  0
  2  7  1  0
  3  4  3  0
  8  9  2  0
  8 11  1  0
M  RAD  1   8   2
M  END
>  <reaction>  (5) 
rxn_3210

>  <mol_properties>  (5) 
{"0": {"label": "*3", "atom_type": "N3s"}, "1": {"label": "*4", "atom_type": "Cs"}, "7": {"label": "*1", "atom_type": "CO"}, "8": {"label": "*0", "atom_type": "O2d"}, "9": {"label": "*2", "atom_type": "H0"}}

>  <type>  (5) 
unop_1

>  <geom_source>  (5) 
Heuristics

$$$$

     RDKit          3D

 11  9  0  0  0  0  0  0  0  0999 V2000
   -0.0294   -0.0249    1.4718 N   0  0  0  0  0  0  0  0  0  0  0  0
   -0.7054    1.0364    0.7540 C   0  0  0  0  0  0  0  0  0  0  0  0
    0.0938    1.6816   -0.3055 C   0  0  0  0  0  0  0  0  0  0  0  0
    0.7481    2.1567   -1.1196 N   0  0  0  0  0  0  0  0  0  0  0  0
    0.8047    0.3190    1.9274 H   0  0  0  0  0  0  0  0  0  0  0  0
   -1.0173    1.8097    1.4577 H   0  0  0  0  0  0  0  0  0  0  0  0
   -1.6151    0.6439    0.2969 H   0  0  0  0  0  0  0  0  0  0  0  0
   -0.0294   -2.1809    0.1264 C   0  0  0  0  0  3  0  0  0  0  0  0
   -0.0294   -2.1809   -1.0687 O   0  0  0  0  0  0  0  0  0  0  0  0
   -0.0294   -1.0539    0.8297 H   0  0  0  0  0  0  0  0  0  0  0  0
   -0.0294   -3.1201    0.7125 H   0  0  0  0  0  0  0  0  0  0  0  0
  1  2  1  0
  1  5  1  0
  1 10  1  0
  2  3  1  0
  2  6  1  0
  2  7  1  0
  3  4  3  0
  8  9  2  0
  8 11  1  0
M  RAD  1   8   2
M  END
>  <reaction>  (6) 
rxn_3210

>  <mol_properties>  (6) 
{"0": {"label": "*3", "atom_type": "N3s"}, "1": {"label": "*4", "atom_type": "Cs"}, "7": {"label": "*1", "atom_type": "CO"}, "8": {"label": "*0", "atom_type": "O2d"}, "9": {"label": "*2", "atom_type": "H0"}}

>  <type>  (6) 
unop_2

>  <geom_source>  (6) 
Heuristics

$$$$

     RDKit          3D

 11  9  0  0  0  0  0  0  0  0999 V2000
    0.9378    0.7022    0.0907 N   0  0  0  0  0  0  0  0  0  0  0  0
    0.2618    0.5239    1.3595 C   0  0  0  0  0  0  0  0  0  0  0  0
   -1.1820    0.8284    1.3464 C   0  0  0  0  0  0  0  0  0  0  0  0
   -2.3013    1.0751    1.2941 N   0  0  0  0  0  0  0  0  0  0  0  0
    0.8612    1.6575   -0.2303 H   0  0  0  0  0  0  0  0  0  0  0  0
    0.7320    1.1567    2.1138 H   0  0  0  0  0  0  0  0  0  0  0  0
    0.3848   -0.5070    1.6950 H   0  0  0  0  0  0  0  0  0  0  0  0
    0.9378   -1.4538   -1.2547 C   0  0  0  0  0  3  0  0  0  0  0  0
    0.9378   -1.4538   -2.4497 O   0  0  0  0  0  0  0  0  0  0  0  0
    0.9378   -0.3268   -0.5514 H   0  0  0  0  0  0  0  0  0  0  0  0
    0.9378   -2.3930   -0.6686 H   0  0  0  0  0  0  0  0  0  0  0  0
  1  2  1  0
  1  5  1  0
  1 10  1  0
  2  3  1  0
  2  6  1  0
  2  7  1  0
  3  4  3  0
  8  9  2  0
  8 11  1  0
M  RAD  1   8   2
M  END
>  <reaction>  (7) 
rxn_3210

>  <mol_properties>  (7) 
{"0": {"label": "*3", "atom_type": "N3s"}, "1": {"label": "*4", "atom_type": "Cs"}, "7": {"label": "*1", "atom_type": "CO"}, "8": {"label": "*0", "atom_type": "O2d"}, "9": {"label": "*2", "atom_type": "H0"}}

>  <type>  (7) 
unop_3

>  <geom_source>  (7) 
Heuristics

$$$$

     RDKit          3D

 11  9  0  0  0  0  0  0  0  0999 V2000
   -1.0598    0.7117    1.0154 N   0  0  0  0  0  0  0  0  0  0  0  0
    0.1111    1.5110    0.7174 C   0  0  0  0  0  0  0  0  0  0  0  0
    1.2861    0.7490    0.2528 C   0  0  0  0  0  0  0  0  0  0  0  0
    2.1766    0.1198   -0.1048 N   0  0  0  0  0  0  0  0  0  0  0  0
   -0.8638    0.0379    1.7428 H   0  0  0  0  0  0  0  0  0  0  0  0
    0.4041    2.0717    1.6064 H   0  0  0  0  0  0  0  0  0  0  0  0
   -0.1368    2.2469   -0.0491 H   0  0  0  0  0  0  0  0  0  0  0  0
   -1.0598   -1.4443   -0.3300 C   0  0  0  0  0  3  0  0  0  0  0  0
   -1.0598   -1.4443   -1.5251 O   0  0  0  0  0  0  0  0  0  0  0  0
   -1.0598   -0.3172    0.3733 H   0  0  0  0  0  0  0  0  0  0  0  0
   -1.0598   -2.3835    0.2561 H   0  0  0  0  0  0  0  0  0  0  0  0
  1  2  1  0
  1  5  1  0
  1 10  1  0
  2  3  1  0
  2  6  1  0
  2  7  1  0
  3  4  3  0
  8  9  2  0
  8 11  1  0
M  RAD  1   8   2
M  END
>  <reaction>  (8) 
rxn_3210

>  <mol_properties>  (8) 
{"0": {"label": "*3", "atom_type": "N3s"}, "1": {"label": "*4", "atom_type": "Cs"}, "7": {"label": "*1", "atom_type": "CO"}, "8": {"label": "*0", "atom_type": "O2d"}, "9": {"label": "*2", "atom_type": "H0"}}

>  <type>  (8) 
unop_4

>  <geom_source>  (8) 
Heuristics

$$$$

     RDKit          3D

 11  9  0  0  0  0  0  0  0  0999 V2000
    0.5028    1.2139   -0.1960 N   0  0  0  0  0  0  0  0  0  0  0  0
    0.5028    0.9396    1.2265 C   0  0  0  0  0  0  0  0  0  0  0  0
   -0.6536    0.1629    1.7130 C   0  0  0  0  0  0  0  0  0  0  0  0
   -1.5682   -0.4422    2.0507 N   0  0  0  0  0  0  0  0  0  0  0  0
   -0.3158    1.7427   -0.4638 H   0  0  0  0  0  0  0  0  0  0  0  0
    0.5317    1.8807    1.7780 H   0  0  0  0  0  0  0  0  0  0  0  0
    1.4097    0.3938    1.4913 H   0  0  0  0  0  0  0  0  0  0  0  0
    0.5028   -0.9421   -1.5413 C   0  0  0  0  0  3  0  0  0  0  0  0
    0.5028   -0.9421   -2.7364 O   0  0  0  0  0  0  0  0  0  0  0  0
    0.5028    0.1849   -0.8380 H   0  0  0  0  0  0  0  0  0  0  0  0
    0.5028   -1.8814   -0.9553 H   0  0  0  0  0  0  0  0  0  0  0  0
  1  2  1  0
  1  5  1  0
  1 10  1  0
  2  3  1  0
  2  6  1  0
  2  7  1  0
  3  4  3  0
  8  9  2  0
  8 11  1  0
M  RAD  1   8   2
M  END
>  <reaction>  (9) 
rxn_3210

>  <mol_properties>  (9) 
{"0": {"label": "*3", "atom_type": "N3s"}, "1": {"label": "*4", "atom_type": "Cs"}, "7": {"label": "*1", "atom_type": "CO"}, "8": {"label": "*0", "atom_type": "O2d"}, "9": {"label": "*2", "atom_type": "H0"}}

>  <type>  (9) 
unop_5

>  <geom_source>  (9) 
Heuristics

$$$$

     RDKit          3D

 11  9  0  0  0  0  0  0  0  0999 V2000
   -1.0821    1.0001    0.6096 N   0  0  0  0  0  0  0  0  0  0  0  0
    0.2698    1.4416    0.8851 C   0  0  0  0  0  0  0  0  0  0  0  0
    1.3084    0.4041    0.7359 C   0  0  0  0  0  0  0  0  0  0  0  0
    2.0850   -0.4310    0.6089 N   0  0  0  0  0  0  0  0  0  0  0  0
   -1.3524    0.2493    1.2300 H   0  0  0  0  0  0  0  0  0  0  0  0
    0.3252    1.8287    1.9037 H   0  0  0  0  0  0  0  0  0  0  0  0
    0.5240    2.2696    0.2215 H   0  0  0  0  0  0  0  0  0  0  0  0
   -1.0821   -1.1559   -0.7358 C   0  0  0  0  0  3  0  0  0  0  0  0
   -1.0821   -1.1559   -1.9308 O   0  0  0  0  0  0  0  0  0  0  0  0
   -1.0821   -0.0288   -0.0325 H   0  0  0  0  0  0  0  0  0  0  0  0
   -1.0821   -2.0951   -0.1497 H   0  0  0  0  0  0  0  0  0  0  0  0
  1  2  1  0
  1  5  1  0
  1 10  1  0
  2  3  1  0
  2  6  1  0
  2  7  1  0
  3  4  3  0
  8  9  2  0
  8 11  1  0
M  RAD  1   8   2
M  END
>  <reaction>  (10) 
rxn_3210

>  <mol_properties>  (10) 
{"0": {"label": "*3", "atom_type": "N3s"}, "1": {"label": "*4", "atom_type": "Cs"}, "7": {"label": "*1", "atom_type": "CO"}, "8": {"label": "*0", "atom_type": "O2d"}, "9": {"label": "*2", "atom_type": "H0"}}

>  <type>  (10) 
unop_6

>  <geom_source>  (10) 
Heuristics

$$$$

     RDKit          3D

 11  9  0  0  0  0  0  0  0  0999 V2000
   -0.8463    1.2718    0.1790 N   0  0  0  0  0  0  0  0  0  0  0  0
    0.3245    1.3554    1.0279 C   0  0  0  0  0  0  0  0  0  0  0  0
    1.0236    0.0761    1.2559 C   0  0  0  0  0  0  0  0  0  0  0  0
    1.5377   -0.9384    1.4080 N   0  0  0  0  0  0  0  0  0  0  0  0
   -1.5367    0.6476    0.5731 H   0  0  0  0  0  0  0  0  0  0  0  0
    0.0402    1.7609    2.0002 H   0  0  0  0  0  0  0  0  0  0  0  0
    1.0391    2.0562    0.5935 H   0  0  0  0  0  0  0  0  0  0  0  0
   -0.8463   -0.8842   -1.1664 C   0  0  0  0  0  3  0  0  0  0  0  0
   -0.8463   -0.8842   -2.3615 O   0  0  0  0  0  0  0  0  0  0  0  0
   -0.8463    0.2428   -0.4631 H   0  0  0  0  0  0  0  0  0  0  0  0
   -0.8463   -1.8234   -0.5803 H   0  0  0  0  0  0  0  0  0  0  0  0
  1  2  1  0
  1  5  1  0
  1 10  1  0
  2  3  1  0
  2  6  1  0
  2  7  1  0
  3  4  3  0
  8  9  2  0
  8 11  1  0
M  RAD  1   8   2
M  END
>  <reaction>  (11) 
rxn_3210

>  <mol_properties>  (11) 
{"0": {"label": "*3", "atom_type": "N3s"}, "1": {"label": "*4", "atom_type": "Cs"}, "7": {"label": "*1", "atom_type": "CO"}, "8": {"label": "*0", "atom_type": "O2d"}, "9": {"label": "*2", "atom_type": "H0"}}

>  <type>  (11) 
unop_7

>  <geom_source>  (11) 
Heuristics

$$$$

     RDKit          3D

 11  9  0  0  0  0  0  0  0  0999 V2000
    0.8430    0.0740    0.9200 N   0  0  0  0  0  0  0  0  0  0  0  0
   -0.5090    0.5155    1.1955 C   0  0  0  0  0  0  0  0  0  0  0  0
   -0.9975    1.6080    0.3324 C   0  0  0  0  0  0  0  0  0  0  0  0
   -1.3391    2.4575   -0.3593 N   0  0  0  0  0  0  0  0  0  0  0  0
    1.5026    0.8311    1.0350 H   0  0  0  0  0  0  0  0  0  0  0  0
   -0.5781    0.8494    2.2320 H   0  0  0  0  0  0  0  0  0  0  0  0
   -1.1946   -0.3270    1.0918 H   0  0  0  0  0  0  0  0  0  0  0  0
    0.8430   -2.0820   -0.4253 C   0  0  0  0  0  3  0  0  0  0  0  0
    0.8430   -2.0820   -1.6204 O   0  0  0  0  0  0  0  0  0  0  0  0
    0.8430   -0.9550    0.2780 H   0  0  0  0  0  0  0  0  0  0  0  0
    0.8430   -3.0213    0.1607 H   0  0  0  0  0  0  0  0  0  0  0  0
  1  2  1  0
  1  5  1  0
  1 10  1  0
  2  3  1  0
  2  6  1  0
  2  7  1  0
  3  4  3  0
  8  9  2  0
  8 11  1  0
M  RAD  1   8   2
M  END
>  <reaction>  (12) 
rxn_3210

>  <mol_properties>  (12) 
{"0": {"label": "*3", "atom_type": "N3s"}, "1": {"label": "*4", "atom_type": "Cs"}, "7": {"label": "*1", "atom_type": "CO"}, "8": {"label": "*0", "atom_type": "O2d"}, "9": {"label": "*2", "atom_type": "H0"}}

>  <type>  (12) 
unop_8

>  <geom_source>  (12) 
Heuristics

$$$$

     RDKit          3D

 11  9  0  0  0  0  0  0  0  0999 V2000
   -0.8526    0.4331    1.3183 N   0  0  0  0  0  0  0  0  0  0  0  0
   -0.1767    1.4944    0.6005 C   0  0  0  0  0  0  0  0  0  0  0  0
    1.0529    1.0862   -0.1060 C   0  0  0  0  0  0  0  0  0  0  0  0
    2.0028    0.7283   -0.6409 N   0  0  0  0  0  0  0  0  0  0  0  0
   -0.2507    0.0313    2.0238 H   0  0  0  0  0  0  0  0  0  0  0  0
    0.0846    2.2939    1.2954 H   0  0  0  0  0  0  0  0  0  0  0  0
   -0.8578    1.9279   -0.1334 H   0  0  0  0  0  0  0  0  0  0  0  0
   -0.8526   -1.7229   -0.0271 C   0  0  0  0  0  3  0  0  0  0  0  0
   -0.8526   -1.7229   -1.2222 O   0  0  0  0  0  0  0  0  0  0  0  0
   -0.8526   -0.5959    0.6762 H   0  0  0  0  0  0  0  0  0  0  0  0
   -0.8526   -2.6622    0.5590 H   0  0  0  0  0  0  0  0  0  0  0  0
  1  2  1  0
  1  5  1  0
  1 10  1  0
  2  3  1  0
  2  6  1  0
  2  7  1  0
  3  4  3  0
  8  9  2  0
  8 11  1  0
M  RAD  1   8   2
M  END
>  <reaction>  (13) 
rxn_3210

>  <mol_properties>  (13) 
{"0": {"label": "*3", "atom_type": "N3s"}, "1": {"label": "*4", "atom_type": "Cs"}, "7": {"label": "*1", "atom_type": "CO"}, "8": {"label": "*0", "atom_type": "O2d"}, "9": {"label": "*2", "atom_type": "H0"}}

>  <type>  (13) 
unop_9

>  <geom_source>  (13) 
Heuristics

$$$$

     RDKit          3D

 11  9  0  0  0  0  0  0  0  0999 V2000
    0.4678   -0.0591    1.2737 N   0  0  0  0  0  0  0  0  0  0  0  0
   -0.7030    0.7403    0.9758 C   0  0  0  0  0  0  0  0  0  0  0  0
   -0.5166    1.7509   -0.0831 C   0  0  0  0  0  0  0  0  0  0  0  0
   -0.3303    2.5237   -0.9106 N   0  0  0  0  0  0  0  0  0  0  0  0
    1.2357    0.5221    1.5806 H   0  0  0  0  0  0  0  0  0  0  0  0
   -1.0301    1.2567    1.8795 H   0  0  0  0  0  0  0  0  0  0  0  0
   -1.5228    0.0860    0.6752 H   0  0  0  0  0  0  0  0  0  0  0  0
    0.4678   -2.2151   -0.0716 C   0  0  0  0  0  3  0  0  0  0  0  0
    0.4678   -2.2151   -1.2667 O   0  0  0  0  0  0  0  0  0  0  0  0
    0.4678   -1.0880    0.6317 H   0  0  0  0  0  0  0  0  0  0  0  0
    0.4678   -3.1543    0.5144 H   0  0  0  0  0  0  0  0  0  0  0  0
  1  2  1  0
  1  5  1  0
  1 10  1  0
  2  3  1  0
  2  6  1  0
  2  7  1  0
  3  4  3  0
  8  9  2  0
  8 11  1  0
M  RAD  1   8   2
M  END
>  <reaction>  (14) 
rxn_3210

>  <mol_properties>  (14) 
{"0": {"label": "*3", "atom_type": "N3s"}, "1": {"label": "*4", "atom_type": "Cs"}, "7": {"label": "*1", "atom_type": "CO"}, "8": {"label": "*0", "atom_type": "O2d"}, "9": {"label": "*2", "atom_type": "H0"}}

>  <type>  (14) 
unop_10

>  <geom_source>  (14) 
Heuristics

$$$$

     RDKit          3D

 11  9  0  0  0  0  0  0  0  0999 V2000
   -0.2880    1.4299   -0.1532 N   0  0  0  0  0  0  0  0  0  0  0  0
    0.3880    1.2516    1.1156 C   0  0  0  0  0  0  0  0  0  0  0  0
    0.3373   -0.1176    1.6635 C   0  0  0  0  0  0  0  0  0  0  0  0
    0.2747   -1.1944    2.0548 N   0  0  0  0  0  0  0  0  0  0  0  0
   -1.2693    1.2004   -0.0771 H   0  0  0  0  0  0  0  0  0  0  0  0
   -0.0449    1.9261    1.8559 H   0  0  0  0  0  0  0  0  0  0  0  0
    1.4370    1.5332    1.0112 H   0  0  0  0  0  0  0  0  0  0  0  0
   -0.2880   -0.7261   -1.4986 C   0  0  0  0  0  3  0  0  0  0  0  0
   -0.2880   -0.7261   -2.6936 O   0  0  0  0  0  0  0  0  0  0  0  0
   -0.2880    0.4010   -0.7953 H   0  0  0  0  0  0  0  0  0  0  0  0
   -0.2880   -1.6653   -0.9125 H   0  0  0  0  0  0  0  0  0  0  0  0
  1  2  1  0
  1  5  1  0
  1 10  1  0
  2  3  1  0
  2  6  1  0
  2  7  1  0
  3  4  3  0
  8  9  2  0
  8 11  1  0
M  RAD  1   8   2
M  END
>  <reaction>  (15) 
rxn_3210

>  <mol_properties>  (15) 
{"0": {"label": "*3", "atom_type": "N3s"}, "1": {"label": "*4", "atom_type": "Cs"}, "7": {"label": "*1", "atom_type": "CO"}, "8": {"label": "*0", "atom_type": "O2d"}, "9": {"label": "*2", "atom_type": "H0"}}

>  <type>  (15) 
unop_11

>  <geom_source>  (15) 
Heuristics

$$$$

     RDKit          3D

 11  9  0  0  0  0  0  0  0  0999 V2000
   -0.5028    0.1680    1.4801 N   0  0  0  0  0  0  0  0  0  0  0  0
   -0.5028    1.3252    0.6086 C   0  0  0  0  0  0  0  0  0  0  0  0
    0.6536    1.4209   -0.3029 C   0  0  0  0  0  0  0  0  0  0  0  0
    1.5682    1.4582   -0.9949 N   0  0  0  0  0  0  0  0  0  0  0  0
    0.3158    0.1599    2.0728 H   0  0  0  0  0  0  0  0  0  0  0  0
   -0.5317    2.2341    1.2115 H   0  0  0  0  0  0  0  0  0  0  0  0
   -1.4097    1.3232    0.0019 H   0  0  0  0  0  0  0  0  0  0  0  0
   -0.5028   -1.9880    0.1347 C   0  0  0  0  0  3  0  0  0  0  0  0
   -0.5028   -1.9880   -1.0604 O   0  0  0  0  0  0  0  0  0  0  0  0
   -0.5028   -0.8609    0.8380 H   0  0  0  0  0  0  0  0  0  0  0  0
   -0.5028   -2.9272    0.7208 H   0  0  0  0  0  0  0  0  0  0  0  0
  1  2  1  0
  1  5  1  0
  1 10  1  0
  2  3  1  0
  2  6  1  0
  2  7  1  0
  3  4  3  0
  8  9  2  0
  8 11  1  0
M  RAD  1   8   2
M  END
>  <reaction>  (16) 
rxn_3210

>  <mol_properties>  (16) 
{"0": {"label": "*3", "atom_type": "N3s"}, "1": {"label": "*4", "atom_type": "Cs"}, "7": {"label": "*1", "atom_type": "CO"}, "8": {"label": "*0", "atom_type": "O2d"}, "9": {"label": "*2", "atom_type": "H0"}}

>  <type>  (16) 
unop_12

>  <geom_source>  (16) 
Heuristics

$$$$

     RDKit          3D

 11  9  0  0  0  0  0  0  0  0999 V2000
   -0.0294   -0.0249    1.4718 N   0  0  0  0  0  0  0  0  0  0  0  0
   -0.7054    1.0364    0.7540 C   0  0  0  0  0  0  0  0  0  0  0  0
    0.0938    1.6816   -0.3055 C   0  0  0  0  0  0  0  0  0  0  0  0
    0.7481    2.1567   -1.1196 N   0  0  0  0  0  0  0  0  0  0  0  0
    0.8047    0.3190    1.9274 H   0  0  0  0  0  0  0  0  0  0  0  0
   -1.0173    1.8097    1.4577 H   0  0  0  0  0  0  0  0  0  0  0  0
   -1.6151    0.6439    0.2969 H   0  0  0  0  0  0  0  0  0  0  0  0
   -0.0294   -2.1809    0.1264 C   0  0  0  0  0  3  0  0  0  0  0  0
   -0.0294   -2.1809   -1.0687 O   0  0  0  0  0  0  0  0  0  0  0  0
   -0.0294   -1.0539    0.8297 H   0  0  0  0  0  0  0  0  0  0  0  0
   -0.0294   -3.1201    0.7125 H   0  0  0  0  0  0  0  0  0  0  0  0
  1  2  1  0
  1  5  1  0
  1 10  1  0
  2  3  1  0
  2  6  1  0
  2  7  1  0
  3  4  3  0
  8  9  2  0
  8 11  1  0
M  RAD  1   8   2
M  END
>  <reaction>  (17) 
rxn_3210

>  <mol_properties>  (17) 
{"0": {"label": "*3", "atom_type": "N3s"}, "1": {"label": "*4", "atom_type": "Cs"}, "7": {"label": "*1", "atom_type": "CO"}, "8": {"label": "*0", "atom_type": "O2d"}, "9": {"label": "*2", "atom_type": "H0"}}

>  <type>  (17) 
unop_13

>  <geom_source>  (17) 
gaussian_log

$$$$
