
     RDKit          3D

 10  9  0  0  0  0  0  0  0  0999 V2000
    2.2738    0.0217   -0.0992 C   0  0  0  0  0  0  0  0  0  0  0  0
    1.1083    0.2960   -0.0695 C   0  0  0  0  0  0  0  0  0  0  0  0
   -0.3173    0.6046   -0.0227 C   0  0  0  0  0  0  0  0  0  0  0  0
   -1.1561   -0.5495    0.5292 C   0  0  0  0  0  0  0  0  0  0  0  0
    3.3097   -0.2166   -0.1277 H   0  0  0  0  0  0  0  0  0  0  0  0
   -0.6542    0.8617   -1.0302 H   0  0  0  0  0  0  0  0  0  0  0  0
   -0.4633    1.4978    0.5900 H   0  0  0  0  0  0  0  0  0  0  0  0
   -0.8485   -0.7997    1.5447 H   0  0  0  0  0  0  0  0  0  0  0  0
   -2.2115   -0.2752    0.5459 H   0  0  0  0  0  0  0  0  0  0  0  0
   -1.0409   -1.4407   -0.0879 H   0  0  0  0  0  0  0  0  0  0  0  0
  1  2  3  0
  1  5  1  0
  2  3  1  0
  3  4  1  0
  3  6  1  0
  3  7  1  0
  4  8  1  0
  4  9  1  0
  4 10  1  0
M  END
>  <reaction>  (1) 
rxn_1292

>  <mol_properties>  (1) 
{"2": {"label": "donator", "atom_type": "Cs"}, "5": {"label": "d_hydrogen", "atom_type": "H0"}}

>  <type>  (1) 
r1h

$$$$

     RDKit          3D

  7  6  0  0  0  0  0  0  0  0999 V2000
   -2.0652    0.3855   -0.2963 S   0  0  0  0  0  0  0  0  0  0  0  0
   -0.7169   -0.5853    0.1792 C   0  0  0  0  0  3  0  0  0  0  0  0
    0.5987   -0.2168    0.0254 C   0  0  0  0  0  0  0  0  0  0  0  0
    1.7547    0.1211   -0.1163 C   0  0  0  0  0  0  0  0  0  0  0  0
   -1.3643    1.4227   -0.7731 H   0  0  0  0  0  0  0  0  0  0  0  0
   -0.9781   -1.5363    0.6220 H   0  0  0  0  0  0  0  0  0  0  0  0
    2.7711    0.4089   -0.2366 H   0  0  0  0  0  0  0  0  0  0  0  0
  1  2  1  0
  1  5  1  0
  2  3  1  0
  2  6  1  0
  3  4  3  0
  4  7  1  0
M  RAD  1   2   2
M  END
>  <reaction>  (2) 
rxn_1292

>  <mol_properties>  (2) 
{"1": {"label": "acceptor", "atom_type": "Cs"}}

>  <type>  (2) 
r2

$$$$

     RDKit          3D

  8  7  0  0  0  0  0  0  0  0999 V2000
   -0.7014    1.0753    1.5530 S   0  0  0  0  0  0  0  0  0  0  0  0
   -0.3105   -0.4583    0.6462 C   0  0  0  0  0  0  0  0  0  0  0  0
    0.0935   -0.2424   -0.7319 C   0  0  0  0  0  0  0  0  0  0  0  0
    0.4431   -0.0604   -1.8621 C   0  0  0  0  0  0  0  0  0  0  0  0
    0.4994    1.6466    1.3970 H   0  0  0  0  0  0  0  0  0  0  0  0
   -1.2277   -1.0477    0.6819 H   0  0  0  0  0  0  0  0  0  0  0  0
    0.4563   -1.0151    1.1841 H   0  0  0  0  0  0  0  0  0  0  0  0
    0.7474    0.1020   -2.8681 H   0  0  0  0  0  0  0  0  0  0  0  0
  1  2  1  0
  1  5  1  0
  2  3  1  0
  2  6  1  0
  2  7  1  0
  3  4  3  0
  4  8  1  0
M  END
>  <reaction>  (3) 
rxn_1292

>  <mol_properties>  (3) 
{"0": {"label": "a_hydrogen", "atom_type": "H0"}, "2": {"label": "acceptor", "atom_type": "Cs"}}

>  <type>  (3) 
r2h

$$$$

     RDKit          3D

 17 15  0  0  0  0  0  0  0  0999 V2000
   -1.2645    0.0632   -2.2581 C   0  0  0  0  0  0  0  0  0  0  0  0
   -1.4303    0.4434   -1.1277 C   0  0  0  0  0  0  0  0  0  0  0  0
   -1.5471    0.8760    0.2207 C   0  0  0  0  0  3  0  0  0  0  0  0
   -1.4532    2.3597    0.4881 C   0  0  0  0  0  0  0  0  0  0  0  0
   -1.1485   -0.2686   -3.2616 H   0  0  0  0  0  0  0  0  0  0  0  0
   -0.4321    0.3669    0.8053 H   0  0  0  0  0  0  0  0  0  0  0  0
   -2.3242    0.3534    0.7764 H   0  0  0  0  0  0  0  0  0  0  0  0
   -2.3040    2.8923    0.0559 H   0  0  0  0  0  0  0  0  0  0  0  0
   -1.4422    2.5536    1.5614 H   0  0  0  0  0  0  0  0  0  0  0  0
   -0.5413    2.7697    0.0515 H   0  0  0  0  0  0  0  0  0  0  0  0
    1.9840    0.6118    0.2229 S   0  0  0  0  0  0  0  0  0  0  0  0
    0.7322   -0.0866    1.2836 C   0  0  0  0  0  0  0  0  0  0  0  0
    0.5945   -1.5037    1.3089 C   0  0  0  0  0  0  0  0  0  0  0  0
    0.4117   -2.6907    1.2831 C   0  0  0  0  0  0  0  0  0  0  0  0
    1.5793   -0.0062   -0.8960 H   0  0  0  0  0  0  0  0  0  0  0  0
    0.7941    0.3776    2.2656 H   0  0  0  0  0  0  0  0  0  0  0  0
    0.2676   -3.7442    1.2708 H   0  0  0  0  0  0  0  0  0  0  0  0
  1  2  3  0
  1  5  1  0
  2  3  1  0
  3  4  1  0
  3  7  1  0
  4  8  1  0
  4  9  1  0
  4 10  1  0
  6 12  1  0
 11 12  1  0
 11 15  1  0
 12 13  1  0
 12 16  1  0
 13 14  3  0
 14 17  1  0
M  RAD  1   3   2
M  END
>  <reaction>  (4) 
rxn_1292

>  <mol_properties>  (4) 
{"1": {"label": "*4", "atom_type": "Ct"}, "2": {"label": "*3", "atom_type": "Cs"}, "5": {"label": "*2", "atom_type": "H0"}, "10": {"label": "*0", "atom_type": "S2s"}, "11": {"label": "*1", "atom_type": "Cs"}}

>  <type>  (4) 
ts

$$$$

     RDKit          3D

 17 15  0  0  0  0  0  0  0  0999 V2000
   -1.6714    0.5641   -2.9301 C   0  0  0  0  0  0  0  0  0  0  0  0
   -1.6714    0.5641   -1.7324 C   0  0  0  0  0  0  0  0  0  0  0  0
   -1.6714    0.5924   -0.2732 C   0  0  0  0  0  3  0  0  0  0  0  0
   -1.6713    2.0138    0.2924 C   0  0  0  0  0  0  0  0  0  0  0  0
   -1.6714    0.5641   -3.9934 H   0  0  0  0  0  0  0  0  0  0  0  0
   -0.6208   -0.0617    0.1608 H   0  0  0  0  0  0  0  0  0  0  0  0
   -2.5469    0.0473    0.0885 H   0  0  0  0  0  0  0  0  0  0  0  0
   -2.5536    2.5616   -0.0391 H   0  0  0  0  0  0  0  0  0  0  0  0
   -1.6713    1.9865    1.3827 H   0  0  0  0  0  0  0  0  0  0  0  0
   -0.7891    2.5616   -0.0391 H   0  0  0  0  0  0  0  0  0  0  0  0
    1.3791    0.5087    1.5562 S   0  0  0  0  0  0  0  0  0  0  0  0
    0.4279   -0.7146    0.5941 C   0  0  0  0  0  0  0  0  0  0  0  0
    1.2185   -1.8368    0.1202 C   0  0  0  0  0  0  0  0  0  0  0  0
    1.8702   -2.7618   -0.2704 C   0  0  0  0  0  0  0  0  0  0  0  0
    1.7945   -0.3421    2.5028 H   0  0  0  0  0  0  0  0  0  0  0  0
   -0.4121   -1.0732    1.1883 H   0  0  0  0  0  0  0  0  0  0  0  0
    2.4492   -3.5836   -0.6174 H   0  0  0  0  0  0  0  0  0  0  0  0
  1  2  3  0
  1  5  1  0
  2  3  1  0
  3  4  1  0
  3  7  1  0
  4  8  1  0
  4  9  1  0
  4 10  1  0
  6 12  1  0
 11 12  1  0
 11 15  1  0
 12 13  1  0
 12 16  1  0
 13 14  3  0
 14 17  1  0
M  RAD  1   3   2
M  END
>  <reaction>  (5) 
rxn_1292

>  <mol_properties>  (5) 
{"1": {"label": "*4", "atom_type": "Ct"}, "2": {"label": "*3", "atom_type": "Cs"}, "5": {"label": "*2", "atom_type": "H0"}, "10": {"label": "*0", "atom_type": "S2s"}, "11": {"label": "*1", "atom_type": "Cs"}}

>  <type>  (5) 
unop_1

>  <geom_source>  (5) 
Heuristics

$$$$

     RDKit          3D

 17 15  0  0  0  0  0  0  0  0999 V2000
   -1.5232    0.8790   -2.6350 C   0  0  0  0  0  0  0  0  0  0  0  0
   -1.5232    0.8790   -1.4373 C   0  0  0  0  0  0  0  0  0  0  0  0
   -1.5232    0.9072    0.0218 C   0  0  0  0  0  3  0  0  0  0  0  0
   -1.5232    2.3286    0.5874 C   0  0  0  0  0  0  0  0  0  0  0  0
   -1.5232    0.8790   -3.6983 H   0  0  0  0  0  0  0  0  0  0  0  0
   -0.4726    0.2531    0.4559 H   0  0  0  0  0  0  0  0  0  0  0  0
   -2.3987    0.3621    0.3836 H   0  0  0  0  0  0  0  0  0  0  0  0
   -2.4054    2.8765    0.2560 H   0  0  0  0  0  0  0  0  0  0  0  0
   -1.5232    2.3013    1.6777 H   0  0  0  0  0  0  0  0  0  0  0  0
   -0.6409    2.8764    0.2560 H   0  0  0  0  0  0  0  0  0  0  0  0
    1.8375   -0.1785   -0.4096 S   0  0  0  0  0  0  0  0  0  0  0  0
    0.5761   -0.3998    0.8891 C   0  0  0  0  0  0  0  0  0  0  0  0
    0.5329   -1.7395    1.4479 C   0  0  0  0  0  0  0  0  0  0  0  0
    0.4974   -2.8438    1.9085 C   0  0  0  0  0  0  0  0  0  0  0  0
    2.8875   -0.5192    0.3480 H   0  0  0  0  0  0  0  0  0  0  0  0
    0.7356    0.3311    1.6814 H   0  0  0  0  0  0  0  0  0  0  0  0
    0.4658   -3.8249    2.3177 H   0  0  0  0  0  0  0  0  0  0  0  0
  1  2  3  0
  1  5  1  0
  2  3  1  0
  3  4  1  0
  3  7  1  0
  4  8  1  0
  4  9  1  0
  4 10  1  0
  6 12  1  0
 11 12  1  0
 11 15  1  0
 12 13  1  0
 12 16  1  0
 13 14  3  0
 14 17  1  0
M  RAD  1   3   2
M  END
>  <reaction>  (6) 
rxn_1292

>  <mol_properties>  (6) 
{"1": {"label": "*4", "atom_type": "Ct"}, "2": {"label": "*3", "atom_type": "Cs"}, "5": {"label": "*2", "atom_type": "H0"}, "10": {"label": "*0", "atom_type": "S2s"}, "11": {"label": "*1", "atom_type": "Cs"}}

>  <type>  (6) 
unop_2

>  <geom_source>  (6) 
Heuristics

$$$$

     RDKit          3D

 17 15  0  0  0  0  0  0  0  0999 V2000
   -1.6408    0.4963   -3.0071 C   0  0  0  0  0  0  0  0  0  0  0  0
   -1.6408    0.4963   -1.8094 C   0  0  0  0  0  0  0  0  0  0  0  0
   -1.6408    0.5245   -0.3503 C   0  0  0  0  0  3  0  0  0  0  0  0
   -1.6407    1.9459    0.2153 C   0  0  0  0  0  0  0  0  0  0  0  0
   -1.6408    0.4963   -4.0704 H   0  0  0  0  0  0  0  0  0  0  0  0
   -0.5902   -0.1296    0.0838 H   0  0  0  0  0  0  0  0  0  0  0  0
   -2.5163   -0.0206    0.0114 H   0  0  0  0  0  0  0  0  0  0  0  0
   -2.5230    2.4937   -0.1161 H   0  0  0  0  0  0  0  0  0  0  0  0
   -1.6407    1.9186    1.3056 H   0  0  0  0  0  0  0  0  0  0  0  0
   -0.7585    2.4937   -0.1161 H   0  0  0  0  0  0  0  0  0  0  0  0
    0.8904    0.0176    2.0983 S   0  0  0  0  0  0  0  0  0  0  0  0
    0.4585   -0.7825    0.5170 C   0  0  0  0  0  0  0  0  0  0  0  0
    1.6043   -1.2709   -0.2297 C   0  0  0  0  0  0  0  0  0  0  0  0
    2.5487   -1.6734   -0.8452 C   0  0  0  0  0  0  0  0  0  0  0  0
    1.5148   -1.0404    2.6306 H   0  0  0  0  0  0  0  0  0  0  0  0
   -0.2436   -1.5957    0.6991 H   0  0  0  0  0  0  0  0  0  0  0  0
    3.3878   -2.0310   -1.3921 H   0  0  0  0  0  0  0  0  0  0  0  0
  1  2  3  0
  1  5  1  0
  2  3  1  0
  3  4  1  0
  3  7  1  0
  4  8  1  0
  4  9  1  0
  4 10  1  0
  6 12  1  0
 11 12  1  0
 11 15  1  0
 12 13  1  0
 12 16  1  0
 13 14  3  0
 14 17  1  0
M  RAD  1   3   2
M  END
>  <reaction>  (7) 
rxn_1292

>  <mol_properties>  (7) 
{"1": {"label": "*4", "atom_type": "Ct"}, "2": {"label": "*3", "atom_type": "Cs"}, "5": {"label": "*2", "atom_type": "H0"}, "10": {"label": "*0", "atom_type": "S2s"}, "11": {"label": "*1", "atom_type": "Cs"}}

>  <type>  (7) 
unop_3

>  <geom_source>  (7) 
Heuristics

$$$$

     RDKit          3D

 17 15  0  0  0  0  0  0  0  0999 V2000
   -0.9719    0.9373   -3.0163 C   0  0  0  0  0  0  0  0  0  0  0  0
   -0.9719    0.9373   -1.8186 C   0  0  0  0  0  0  0  0  0  0  0  0
   -0.9719    0.9655   -0.3595 C   0  0  0  0  0  3  0  0  0  0  0  0
   -0.9718    2.3869    0.2061 C   0  0  0  0  0  0  0  0  0  0  0  0
   -0.9719    0.9373   -4.0796 H   0  0  0  0  0  0  0  0  0  0  0  0
    0.0787    0.3114    0.0746 H   0  0  0  0  0  0  0  0  0  0  0  0
   -1.8474    0.4205    0.0022 H   0  0  0  0  0  0  0  0  0  0  0  0
   -1.8541    2.9348   -0.1253 H   0  0  0  0  0  0  0  0  0  0  0  0
   -0.9718    2.3596    1.2964 H   0  0  0  0  0  0  0  0  0  0  0  0
   -0.0896    2.9348   -0.1253 H   0  0  0  0  0  0  0  0  0  0  0  0
    0.9296   -2.0339   -0.1429 S   0  0  0  0  0  0  0  0  0  0  0  0
    1.1274   -0.3415    0.5078 C   0  0  0  0  0  0  0  0  0  0  0  0
    0.5014   -0.1294    1.8010 C   0  0  0  0  0  0  0  0  0  0  0  0
   -0.0145    0.0454    2.8668 C   0  0  0  0  0  0  0  0  0  0  0  0
    1.5156   -2.6554    0.8880 H   0  0  0  0  0  0  0  0  0  0  0  0
    2.1868   -0.0916    0.5595 H   0  0  0  0  0  0  0  0  0  0  0  0
   -0.4729    0.2007    3.8138 H   0  0  0  0  0  0  0  0  0  0  0  0
  1  2  3  0
  1  5  1  0
  2  3  1  0
  3  4  1  0
  3  7  1  0
  4  8  1  0
  4  9  1  0
  4 10  1  0
  6 12  1  0
 11 12  1  0
 11 15  1  0
 12 13  1  0
 12 16  1  0
 13 14  3  0
 14 17  1  0
M  RAD  1   3   2
M  END
>  <reaction>  (8) 
rxn_1292

>  <mol_properties>  (8) 
{"1": {"label": "*4", "atom_type": "Ct"}, "2": {"label": "*3", "atom_type": "Cs"}, "5": {"label": "*2", "atom_type": "H0"}, "10": {"label": "*0", "atom_type": "S2s"}, "11": {"label": "*1", "atom_type": "Cs"}}

>  <type>  (8) 
unop_4

>  <geom_source>  (8) 
Heuristics

$$$$

     RDKit          3D

 17 15  0  0  0  0  0  0  0  0999 V2000
   -1.5283    0.3699   -3.1192 C   0  0  0  0  0  0  0  0  0  0  0  0
   -1.5283    0.3699   -1.9215 C   0  0  0  0  0  0  0  0  0  0  0  0
   -1.5283    0.3981   -0.4623 C   0  0  0  0  0  3  0  0  0  0  0  0
   -1.5283    1.8195    0.1033 C   0  0  0  0  0  0  0  0  0  0  0  0
   -1.5283    0.3699   -4.1825 H   0  0  0  0  0  0  0  0  0  0  0  0
   -0.4777   -0.2560   -0.0283 H   0  0  0  0  0  0  0  0  0  0  0  0
   -2.4038   -0.1469   -0.1006 H   0  0  0  0  0  0  0  0  0  0  0  0
   -2.4105    2.3674   -0.2282 H   0  0  0  0  0  0  0  0  0  0  0  0
   -1.5283    1.7922    1.1935 H   0  0  0  0  0  0  0  0  0  0  0  0
   -0.6460    2.3674   -0.2282 H   0  0  0  0  0  0  0  0  0  0  0  0
    0.4688   -0.8092    2.2234 S   0  0  0  0  0  0  0  0  0  0  0  0
    0.5710   -0.9089    0.4050 C   0  0  0  0  0  0  0  0  0  0  0  0
    1.7837   -0.3346   -0.1504 C   0  0  0  0  0  0  0  0  0  0  0  0
    2.7833    0.1386   -0.6082 C   0  0  0  0  0  0  0  0  0  0  0  0
    1.5933   -1.4927    2.4698 H   0  0  0  0  0  0  0  0  0  0  0  0
    0.4703   -1.9471    0.0899 H   0  0  0  0  0  0  0  0  0  0  0  0
    3.6714    0.5592   -1.0149 H   0  0  0  0  0  0  0  0  0  0  0  0
  1  2  3  0
  1  5  1  0
  2  3  1  0
  3  4  1  0
  3  7  1  0
  4  8  1  0
  4  9  1  0
  4 10  1  0
  6 12  1  0
 11 12  1  0
 11 15  1  0
 12 13  1  0
 12 16  1  0
 13 14  3  0
 14 17  1  0
M  RAD  1   3   2
M  END
>  <reaction>  (9) 
rxn_1292

>  <mol_properties>  (9) 
{"1": {"label": "*4", "atom_type": "Ct"}, "2": {"label": "*3", "atom_type": "Cs"}, "5": {"label": "*2", "atom_type": "H0"}, "10": {"label": "*0", "atom_type": "S2s"}, "11": {"label": "*1", "atom_type": "Cs"}}

>  <type>  (9) 
unop_5

>  <geom_source>  (9) 
Heuristics

$$$$

     RDKit          3D

 17 15  0  0  0  0  0  0  0  0999 V2000
   -0.9606    0.7575   -3.1866 C   0  0  0  0  0  0  0  0  0  0  0  0
   -0.9606    0.7575   -1.9889 C   0  0  0  0  0  0  0  0  0  0  0  0
   -0.9606    0.7857   -0.5297 C   0  0  0  0  0  3  0  0  0  0  0  0
   -0.9606    2.2071    0.0359 C   0  0  0  0  0  0  0  0  0  0  0  0
   -0.9606    0.7575   -4.2499 H   0  0  0  0  0  0  0  0  0  0  0  0
    0.0900    0.1316   -0.0957 H   0  0  0  0  0  0  0  0  0  0  0  0
   -1.8361    0.2406   -0.1680 H   0  0  0  0  0  0  0  0  0  0  0  0
   -1.8428    2.7550   -0.2956 H   0  0  0  0  0  0  0  0  0  0  0  0
   -0.9606    2.1798    1.1261 H   0  0  0  0  0  0  0  0  0  0  0  0
   -0.0783    2.7549   -0.2956 H   0  0  0  0  0  0  0  0  0  0  0  0
    0.5755   -2.2464    0.5220 S   0  0  0  0  0  0  0  0  0  0  0  0
    1.1387   -0.5213    0.3376 C   0  0  0  0  0  0  0  0  0  0  0  0
    0.8018    0.3331    1.4626 C   0  0  0  0  0  0  0  0  0  0  0  0
    0.5242    1.0373    2.3898 C   0  0  0  0  0  0  0  0  0  0  0  0
    1.2441   -2.4972    1.6546 H   0  0  0  0  0  0  0  0  0  0  0  0
    2.2143   -0.5049    0.1642 H   0  0  0  0  0  0  0  0  0  0  0  0
    0.2776    1.6630    3.2136 H   0  0  0  0  0  0  0  0  0  0  0  0
  1  2  3  0
  1  5  1  0
  2  3  1  0
  3  4  1  0
  3  7  1  0
  4  8  1  0
  4  9  1  0
  4 10  1  0
  6 12  1  0
 11 12  1  0
 11 15  1  0
 12 13  1  0
 12 16  1  0
 13 14  3  0
 14 17  1  0
M  RAD  1   3   2
M  END
>  <reaction>  (10) 
rxn_1292

>  <mol_properties>  (10) 
{"1": {"label": "*4", "atom_type": "Ct"}, "2": {"label": "*3", "atom_type": "Cs"}, "5": {"label": "*2", "atom_type": "H0"}, "10": {"label": "*0", "atom_type": "S2s"}, "11": {"label": "*1", "atom_type": "Cs"}}

>  <type>  (10) 
unop_6

>  <geom_source>  (10) 
Heuristics

$$$$

     RDKit          3D

 17 15  0  0  0  0  0  0  0  0999 V2000
   -1.0644    0.5419   -3.2801 C   0  0  0  0  0  0  0  0  0  0  0  0
   -1.0644    0.5419   -2.0824 C   0  0  0  0  0  0  0  0  0  0  0  0
   -1.0644    0.5702   -0.6232 C   0  0  0  0  0  3  0  0  0  0  0  0
   -1.0644    1.9916   -0.0576 C   0  0  0  0  0  0  0  0  0  0  0  0
   -1.0644    0.5419   -4.3434 H   0  0  0  0  0  0  0  0  0  0  0  0
   -0.0138   -0.0839   -0.1892 H   0  0  0  0  0  0  0  0  0  0  0  0
   -1.9399    0.0251   -0.2615 H   0  0  0  0  0  0  0  0  0  0  0  0
   -1.9466    2.5394   -0.3891 H   0  0  0  0  0  0  0  0  0  0  0  0
   -1.0644    1.9643    1.0327 H   0  0  0  0  0  0  0  0  0  0  0  0
   -0.1821    2.5394   -0.3891 H   0  0  0  0  0  0  0  0  0  0  0  0
    0.3581   -2.0951    1.2561 S   0  0  0  0  0  0  0  0  0  0  0  0
    1.0349   -0.7368    0.2441 C   0  0  0  0  0  0  0  0  0  0  0  0
    1.1520    0.5254    0.9527 C   0  0  0  0  0  0  0  0  0  0  0  0
    1.2485    1.5657    1.5367 C   0  0  0  0  0  0  0  0  0  0  0  0
    1.3022   -2.0540    2.2046 H   0  0  0  0  0  0  0  0  0  0  0  0
    2.0033   -1.0302   -0.1602 H   0  0  0  0  0  0  0  0  0  0  0  0
    1.3343    2.4901    2.0556 H   0  0  0  0  0  0  0  0  0  0  0  0
  1  2  3  0
  1  5  1  0
  2  3  1  0
  3  4  1  0
  3  7  1  0
  4  8  1  0
  4  9  1  0
  4 10  1  0
  6 12  1  0
 11 12  1  0
 11 15  1  0
 12 13  1  0
 12 16  1  0
 13 14  3  0
 14 17  1  0
M  RAD  1   3   2
M  END
>  <reaction>  (11) 
rxn_1292

>  <mol_properties>  (11) 
{"1": {"label": "*4", "atom_type": "Ct"}, "2": {"label": "*3", "atom_type": "Cs"}, "5": {"label": "*2", "atom_type": "H0"}, "10": {"label": "*0", "atom_type": "S2s"}, "11": {"label": "*1", "atom_type": "Cs"}}

>  <type>  (11) 
unop_7

>  <geom_source>  (11) 
Heuristics

$$$$

     RDKit          3D

 17 15  0  0  0  0  0  0  0  0999 V2000
   -1.6829    0.6193   -2.8255 C   0  0  0  0  0  0  0  0  0  0  0  0
   -1.6829    0.6193   -1.6278 C   0  0  0  0  0  0  0  0  0  0  0  0
   -1.6829    0.6475   -0.1686 C   0  0  0  0  0  3  0  0  0  0  0  0
   -1.6829    2.0689    0.3970 C   0  0  0  0  0  0  0  0  0  0  0  0
   -1.6829    0.6193   -3.8888 H   0  0  0  0  0  0  0  0  0  0  0  0
   -0.6323   -0.0066    0.2654 H   0  0  0  0  0  0  0  0  0  0  0  0
   -2.5584    0.1025    0.1931 H   0  0  0  0  0  0  0  0  0  0  0  0
   -2.5651    2.6168    0.0655 H   0  0  0  0  0  0  0  0  0  0  0  0
   -1.6829    2.0416    1.4873 H   0  0  0  0  0  0  0  0  0  0  0  0
   -0.8007    2.6168    0.0655 H   0  0  0  0  0  0  0  0  0  0  0  0
    1.7330    0.5965    0.8255 S   0  0  0  0  0  0  0  0  0  0  0  0
    0.4163   -0.6595    0.6987 C   0  0  0  0  0  0  0  0  0  0  0  0
    0.9079   -2.0231    0.6098 C   0  0  0  0  0  0  0  0  0  0  0  0
    1.3131   -3.1470    0.5366 C   0  0  0  0  0  0  0  0  0  0  0  0
    2.2888    0.1120    1.9431 H   0  0  0  0  0  0  0  0  0  0  0  0
   -0.2644   -0.5615    1.5439 H   0  0  0  0  0  0  0  0  0  0  0  0
    1.6731   -4.1456    0.4715 H   0  0  0  0  0  0  0  0  0  0  0  0
  1  2  3  0
  1  5  1  0
  2  3  1  0
  3  4  1  0
  3  7  1  0
  4  8  1  0
  4  9  1  0
  4 10  1  0
  6 12  1  0
 11 12  1  0
 11 15  1  0
 12 13  1  0
 12 16  1  0
 13 14  3  0
 14 17  1  0
M  RAD  1   3   2
M  END
>  <reaction>  (12) 
rxn_1292

>  <mol_properties>  (12) 
{"1": {"label": "*4", "atom_type": "Ct"}, "2": {"label": "*3", "atom_type": "Cs"}, "5": {"label": "*2", "atom_type": "H0"}, "10": {"label": "*0", "atom_type": "S2s"}, "11": {"label": "*1", "atom_type": "Cs"}}

>  <type>  (12) 
unop_8

>  <geom_source>  (12) 
Heuristics

$$$$

     RDKit          3D

 17 15  0  0  0  0  0  0  0  0999 V2000
   -1.0984    1.0353   -2.8221 C   0  0  0  0  0  0  0  0  0  0  0  0
   -1.0984    1.0353   -1.6244 C   0  0  0  0  0  0  0  0  0  0  0  0
   -1.0984    1.0635   -0.1653 C   0  0  0  0  0  3  0  0  0  0  0  0
   -1.0984    2.4849    0.4003 C   0  0  0  0  0  0  0  0  0  0  0  0
   -1.0984    1.0353   -3.8854 H   0  0  0  0  0  0  0  0  0  0  0  0
   -0.0478    0.4094    0.2688 H   0  0  0  0  0  0  0  0  0  0  0  0
   -1.9739    0.5184    0.1964 H   0  0  0  0  0  0  0  0  0  0  0  0
   -1.9806    3.0328    0.0689 H   0  0  0  0  0  0  0  0  0  0  0  0
   -1.0984    2.4576    1.4906 H   0  0  0  0  0  0  0  0  0  0  0  0
   -0.2162    3.0327    0.0689 H   0  0  0  0  0  0  0  0  0  0  0  0
    1.3224   -1.5127   -0.5679 S   0  0  0  0  0  0  0  0  0  0  0  0
    1.0008   -0.2435    0.7020 C   0  0  0  0  0  0  0  0  0  0  0  0
    0.3383   -0.7519    1.8901 C   0  0  0  0  0  0  0  0  0  0  0  0
   -0.2078   -1.1709    2.8694 C   0  0  0  0  0  0  0  0  0  0  0  0
    2.0668   -2.3099    0.2086 H   0  0  0  0  0  0  0  0  0  0  0  0
    1.9358    0.2449    0.9751 H   0  0  0  0  0  0  0  0  0  0  0  0
   -0.6931   -1.5431    3.7394 H   0  0  0  0  0  0  0  0  0  0  0  0
  1  2  3  0
  1  5  1  0
  2  3  1  0
  3  4  1  0
  3  7  1  0
  4  8  1  0
  4  9  1  0
  4 10  1  0
  6 12  1  0
 11 12  1  0
 11 15  1  0
 12 13  1  0
 12 16  1  0
 13 14  3  0
 14 17  1  0
M  RAD  1   3   2
M  END
>  <reaction>  (13) 
rxn_1292

>  <mol_properties>  (13) 
{"1": {"label": "*4", "atom_type": "Ct"}, "2": {"label": "*3", "atom_type": "Cs"}, "5": {"label": "*2", "atom_type": "H0"}, "10": {"label": "*0", "atom_type": "S2s"}, "11": {"label": "*1", "atom_type": "Cs"}}

>  <type>  (13) 
unop_9

>  <geom_source>  (13) 
Heuristics

$$$$

     RDKit          3D

 17 15  0  0  0  0  0  0  0  0999 V2000
   -1.6469    0.7240   -2.7072 C   0  0  0  0  0  0  0  0  0  0  0  0
   -1.6469    0.7240   -1.5095 C   0  0  0  0  0  0  0  0  0  0  0  0
   -1.6469    0.7523   -0.0503 C   0  0  0  0  0  3  0  0  0  0  0  0
   -1.6469    2.1736    0.5153 C   0  0  0  0  0  0  0  0  0  0  0  0
   -1.6469    0.7240   -3.7705 H   0  0  0  0  0  0  0  0  0  0  0  0
   -0.5963    0.0982    0.3837 H   0  0  0  0  0  0  0  0  0  0  0  0
   -2.5224    0.2072    0.3114 H   0  0  0  0  0  0  0  0  0  0  0  0
   -2.5291    2.7215    0.1838 H   0  0  0  0  0  0  0  0  0  0  0  0
   -1.6469    2.1464    1.6056 H   0  0  0  0  0  0  0  0  0  0  0  0
   -0.7646    2.7215    0.1838 H   0  0  0  0  0  0  0  0  0  0  0  0
    1.8825    0.3344    0.1163 S   0  0  0  0  0  0  0  0  0  0  0  0
    0.4524   -0.5547    0.8170 C   0  0  0  0  0  0  0  0  0  0  0  0
    0.6999   -1.9628    1.0720 C   0  0  0  0  0  0  0  0  0  0  0  0
    0.9040   -3.1234    1.2822 C   0  0  0  0  0  0  0  0  0  0  0  0
    2.7245    0.0722    1.1237 H   0  0  0  0  0  0  0  0  0  0  0  0
    0.1276   -0.0603    1.7320 H   0  0  0  0  0  0  0  0  0  0  0  0
    1.0853   -4.1545    1.4689 H   0  0  0  0  0  0  0  0  0  0  0  0
  1  2  3  0
  1  5  1  0
  2  3  1  0
  3  4  1  0
  3  7  1  0
  4  8  1  0
  4  9  1  0
  4 10  1  0
  6 12  1  0
 11 12  1  0
 11 15  1  0
 12 13  1  0
 12 16  1  0
 13 14  3  0
 14 17  1  0
M  RAD  1   3   2
M  END
>  <reaction>  (14) 
rxn_1292

>  <mol_properties>  (14) 
{"1": {"label": "*4", "atom_type": "Ct"}, "2": {"label": "*3", "atom_type": "Cs"}, "5": {"label": "*2", "atom_type": "H0"}, "10": {"label": "*0", "atom_type": "S2s"}, "11": {"label": "*1", "atom_type": "Cs"}}

>  <type>  (14) 
unop_10

>  <geom_source>  (14) 
Heuristics

$$$$

     RDKit          3D

 17 15  0  0  0  0  0  0  0  0999 V2000
   -1.2783    0.3682   -3.2548 C   0  0  0  0  0  0  0  0  0  0  0  0
   -1.2783    0.3682   -2.0571 C   0  0  0  0  0  0  0  0  0  0  0  0
   -1.2783    0.3964   -0.5979 C   0  0  0  0  0  3  0  0  0  0  0  0
   -1.2783    1.8178   -0.0323 C   0  0  0  0  0  0  0  0  0  0  0  0
   -1.2783    0.3682   -4.3181 H   0  0  0  0  0  0  0  0  0  0  0  0
   -0.2277   -0.2577   -0.1639 H   0  0  0  0  0  0  0  0  0  0  0  0
   -2.1538   -0.1487   -0.2362 H   0  0  0  0  0  0  0  0  0  0  0  0
   -2.1605    2.3656   -0.3638 H   0  0  0  0  0  0  0  0  0  0  0  0
   -1.2783    1.7905    1.0580 H   0  0  0  0  0  0  0  0  0  0  0  0
   -0.3960    2.3656   -0.3638 H   0  0  0  0  0  0  0  0  0  0  0  0
    0.3130   -1.6010    1.8794 S   0  0  0  0  0  0  0  0  0  0  0  0
    0.8210   -0.9106    0.2694 C   0  0  0  0  0  0  0  0  0  0  0  0
    1.5208    0.3582    0.3656 C   0  0  0  0  0  0  0  0  0  0  0  0
    2.0976    1.4040    0.4449 C   0  0  0  0  0  0  0  0  0  0  0  0
    1.5424   -1.6613    2.4061 H   0  0  0  0  0  0  0  0  0  0  0  0
    1.4349   -1.6372   -0.2621 H   0  0  0  0  0  0  0  0  0  0  0  0
    2.6101    2.3332    0.5153 H   0  0  0  0  0  0  0  0  0  0  0  0
  1  2  3  0
  1  5  1  0
  2  3  1  0
  3  4  1  0
  3  7  1  0
  4  8  1  0
  4  9  1  0
  4 10  1  0
  6 12  1  0
 11 12  1  0
 11 15  1  0
 12 13  1  0
 12 16  1  0
 13 14  3  0
 14 17  1  0
M  RAD  1   3   2
M  END
>  <reaction>  (15) 
rxn_1292

>  <mol_properties>  (15) 
{"1": {"label": "*4", "atom_type": "Ct"}, "2": {"label": "*3", "atom_type": "Cs"}, "5": {"label": "*2", "atom_type": "H0"}, "10": {"label": "*0", "atom_type": "S2s"}, "11": {"label": "*1", "atom_type": "Cs"}}

>  <type>  (15) 
unop_11

>  <geom_source>  (15) 
Heuristics

$$$$

     RDKit          3D

 17 15  0  0  0  0  0  0  0  0999 V2000
   -1.3127    1.0125   -2.6727 C   0  0  0  0  0  0  0  0  0  0  0  0
   -1.3127    1.0125   -1.4750 C   0  0  0  0  0  0  0  0  0  0  0  0
   -1.3127    1.0407   -0.0159 C   0  0  0  0  0  3  0  0  0  0  0  0
   -1.3126    2.4621    0.5497 C   0  0  0  0  0  0  0  0  0  0  0  0
   -1.3127    1.0125   -3.7360 H   0  0  0  0  0  0  0  0  0  0  0  0
   -0.2621    0.3866    0.4182 H   0  0  0  0  0  0  0  0  0  0  0  0
   -2.1882    0.4957    0.3458 H   0  0  0  0  0  0  0  0  0  0  0  0
   -2.1949    3.0100    0.2183 H   0  0  0  0  0  0  0  0  0  0  0  0
   -1.3126    2.4348    1.6400 H   0  0  0  0  0  0  0  0  0  0  0  0
   -0.4304    3.0100    0.2183 H   0  0  0  0  0  0  0  0  0  0  0  0
    1.6422   -0.8350   -0.6557 S   0  0  0  0  0  0  0  0  0  0  0  0
    0.7866   -0.2663    0.8514 C   0  0  0  0  0  0  0  0  0  0  0  0
    0.3770   -1.3406    1.7386 C   0  0  0  0  0  0  0  0  0  0  0  0
    0.0394   -2.2260    2.4699 C   0  0  0  0  0  0  0  0  0  0  0  0
    2.6378   -1.4715   -0.0262 H   0  0  0  0  0  0  0  0  0  0  0  0
    1.4206    0.4399    1.3868 H   0  0  0  0  0  0  0  0  0  0  0  0
   -0.2606   -3.0127    3.1196 H   0  0  0  0  0  0  0  0  0  0  0  0
  1  2  3  0
  1  5  1  0
  2  3  1  0
  3  4  1  0
  3  7  1  0
  4  8  1  0
  4  9  1  0
  4 10  1  0
  6 12  1  0
 11 12  1  0
 11 15  1  0
 12 13  1  0
 12 16  1  0
 13 14  3  0
 14 17  1  0
M  RAD  1   3   2
M  END
>  <reaction>  (16) 
rxn_1292

>  <mol_properties>  (16) 
{"1": {"label": "*4", "atom_type": "Ct"}, "2": {"label": "*3", "atom_type": "Cs"}, "5": {"label": "*2", "atom_type": "H0"}, "10": {"label": "*0", "atom_type": "S2s"}, "11": {"label": "*1", "atom_type": "Cs"}}

>  <type>  (16) 
unop_12

>  <geom_source>  (16) 
Heuristics

$$$$

     RDKit          3D

 17 15  0  0  0  0  0  0  0  0999 V2000
    2.5400   -0.9991    1.3936 S   0  0  0  0  0  0  0  0  0  0  0  0
    1.5499   -0.4100   -0.0088 C   0  0  0  0  0  0  0  0  0  0  0  0
   -1.6673   -1.3125   -0.1250 C   0  0  0  0  0  0  0  0  0  0  0  0
   -1.0069   -0.1155    0.5433 C   0  0  0  0  0  3  0  0  0  0  0  0
    2.2373    0.7071   -0.6575 C   0  0  0  0  0  0  0  0  0  0  0  0
   -1.6693    1.1321    0.1476 C   0  0  0  0  0  0  0  0  0  0  0  0
    2.8022    1.6278   -1.1928 C   0  0  0  0  0  0  0  0  0  0  0  0
   -2.2130    2.1579   -0.1772 C   0  0  0  0  0  0  0  0  0  0  0  0
    1.4140   -1.2338   -0.7399 H   0  0  0  0  0  0  0  0  0  0  0  0
    0.3467    0.0012    0.4317 H   0  0  0  0  0  0  0  0  0  0  0  0
   -1.6027   -1.2183   -1.2300 H   0  0  0  0  0  0  0  0  0  0  0  0
   -1.1410   -2.2400    0.1823 H   0  0  0  0  0  0  0  0  0  0  0  0
   -2.7336   -1.3877    0.1791 H   0  0  0  0  0  0  0  0  0  0  0  0
   -1.0526   -0.2241    1.6475 H   0  0  0  0  0  0  0  0  0  0  0  0
    1.5882   -1.9796    1.7311 H   0  0  0  0  0  0  0  0  0  0  0  0
    3.2982    2.4360   -1.6626 H   0  0  0  0  0  0  0  0  0  0  0  0
   -2.6904    3.0583   -0.4624 H   0  0  0  0  0  0  0  0  0  0  0  0
  1  2  1  0
  1 15  1  0
  2  5  1  0
  2  9  1  0
  2 10  1  0
  3  4  1  0
  3 11  1  0
  3 12  1  0
  3 13  1  0
  4  6  1  0
  4 14  1  0
  5  7  3  0
  6  8  3  0
  7 16  1  0
  8 17  1  0
M  RAD  1   4   2
M  END
>  <reaction>  (17) 
rxn_1292

>  <mol_properties>  (17) 
{"1": {"label": "*4", "atom_type": "Ct"}, "2": {"label": "*3", "atom_type": "Cs"}, "5": {"label": "*2", "atom_type": "H0"}, "10": {"label": "*0", "atom_type": "S2s"}, "11": {"label": "*1", "atom_type": "Cs"}}

>  <type>  (17) 
unop_13

>  <geom_source>  (17) 
AutoTST

$$$$
