
     RDKit          3D

  9  8  0  0  0  0  0  0  0  0999 V2000
   -0.8818   -0.3578    0.1297 C   0  0  0  0  0  0  0  0  0  0  0  0
    0.6153   -0.3021   -0.1188 C   0  0  0  0  0  0  0  0  0  0  0  0
    1.5354   -1.7170    0.5545 S   0  0  0  0  0  0  0  0  0  0  0  0
   -1.1018   -0.3317    1.1984 H   0  0  0  0  0  0  0  0  0  0  0  0
   -1.3114   -1.2723   -0.2799 H   0  0  0  0  0  0  0  0  0  0  0  0
   -1.3767    0.4976   -0.3363 H   0  0  0  0  0  0  0  0  0  0  0  0
    1.0467    0.6194    0.2718 H   0  0  0  0  0  0  0  0  0  0  0  0
    0.8295   -0.3275   -1.1882 H   0  0  0  0  0  0  0  0  0  0  0  0
    1.2306   -1.5077    1.8423 H   0  0  0  0  0  0  0  0  0  0  0  0
  1  2  1  0
  1  4  1  0
  1  5  1  0
  1  6  1  0
  2  3  1  0
  2  7  1  0
  2  8  1  0
  3  9  1  0
M  END
>  <reaction>  (1) 
rxn_1865

>  <mol_properties>  (1) 
{"1": {"label": "donator", "atom_type": "Cs"}, "6": {"label": "d_hydrogen", "atom_type": "H0"}}

>  <type>  (1) 
r1h

$$$$

     RDKit          3D

  7  6  0  0  0  0  0  0  0  0999 V2000
   -0.6201    0.0189   -0.0017 C   0  0  0  0  0  0  0  0  0  0  0  0
    0.8589   -0.0553    0.0500 C   0  0  0  0  0  3  0  0  0  0  0  0
   -1.0738   -0.9730   -0.0559 H   0  0  0  0  0  0  0  0  0  0  0  0
   -0.9680    0.5706   -0.8872 H   0  0  0  0  0  0  0  0  0  0  0  0
   -1.0303    0.5369    0.8678 H   0  0  0  0  0  0  0  0  0  0  0  0
    1.3939   -0.8386   -0.4695 H   0  0  0  0  0  0  0  0  0  0  0  0
    1.4394    0.7404    0.4965 H   0  0  0  0  0  0  0  0  0  0  0  0
  1  2  1  0
  1  3  1  0
  1  4  1  0
  1  5  1  0
  2  6  1  0
  2  7  1  0
M  RAD  1   2   2
M  END
>  <reaction>  (2) 
rxn_1865

>  <mol_properties>  (2) 
{"1": {"label": "acceptor", "atom_type": "Cs"}}

>  <type>  (2) 
r2

$$$$

     RDKit          3D

  8  7  0  0  0  0  0  0  0  0999 V2000
    0.7610    0.0250    0.0051 C   0  0  0  0  0  0  0  0  0  0  0  0
   -0.7610   -0.0250   -0.0051 C   0  0  0  0  0  0  0  0  0  0  0  0
    1.1904   -0.9237   -0.3217 H   0  0  0  0  0  0  0  0  0  0  0  0
    1.1359    0.8041   -0.6609 H   0  0  0  0  0  0  0  0  0  0  0  0
    1.1435    0.2336    1.0058 H   0  0  0  0  0  0  0  0  0  0  0  0
   -1.1359   -0.8041    0.6609 H   0  0  0  0  0  0  0  0  0  0  0  0
   -1.1435   -0.2336   -1.0058 H   0  0  0  0  0  0  0  0  0  0  0  0
   -1.1904    0.9237    0.3217 H   0  0  0  0  0  0  0  0  0  0  0  0
  1  2  1  0
  1  3  1  0
  1  4  1  0
  1  5  1  0
  2  6  1  0
  2  7  1  0
  2  8  1  0
M  END
>  <reaction>  (3) 
rxn_1865

>  <mol_properties>  (3) 
{"0": {"label": "a_hydrogen", "atom_type": "H0"}, "2": {"label": "acceptor", "atom_type": "Cs"}}

>  <type>  (3) 
r2h

$$$$

     RDKit          3D

 16 14  0  0  0  0  0  0  0  0999 V2000
   -0.6600   -0.3806   -1.8257 C   0  0  0  0  0  0  0  0  0  0  0  0
   -0.9159   -0.2216   -0.3481 C   0  0  0  0  0  0  0  0  0  0  0  0
   -0.8654    1.4372    0.3055 S   0  0  0  0  0  0  0  0  0  0  0  0
    0.3293   -0.0007   -2.0916 H   0  0  0  0  0  0  0  0  0  0  0  0
   -1.3974    0.1599   -2.4239 H   0  0  0  0  0  0  0  0  0  0  0  0
   -0.6985   -1.4363   -2.1031 H   0  0  0  0  0  0  0  0  0  0  0  0
   -0.0054   -0.9358    0.2625 H   0  0  0  0  0  0  0  0  0  0  0  0
   -1.8533   -0.6676   -0.0170 H   0  0  0  0  0  0  0  0  0  0  0  0
    0.3270    1.7751   -0.2059 H   0  0  0  0  0  0  0  0  0  0  0  0
    2.2361   -0.7270    0.7321 C   0  0  0  0  0  0  0  0  0  0  0  0
    1.0465   -1.6417    0.8197 C   0  0  0  0  0  3  0  0  0  0  0  0
    3.1344   -1.1877    1.1565 H   0  0  0  0  0  0  0  0  0  0  0  0
    2.0576    0.2016    1.2780 H   0  0  0  0  0  0  0  0  0  0  0  0
    2.4654   -0.4710   -0.3051 H   0  0  0  0  0  0  0  0  0  0  0  0
    0.6912   -1.8471    1.8272 H   0  0  0  0  0  0  0  0  0  0  0  0
    1.1042   -2.5428    0.2121 H   0  0  0  0  0  0  0  0  0  0  0  0
  1  2  1  0
  1  4  1  0
  1  5  1  0
  1  6  1  0
  2  3  1  0
  2  7  1  0
  2  8  1  0
  3  9  1  0
 10 11  1  0
 10 12  1  0
 10 13  1  0
 10 14  1  0
 11 15  1  0
 11 16  1  0
M  RAD  1  11   2
M  END
>  <reaction>  (4) 
rxn_1865

>  <mol_properties>  (4) 
{"1": {"label": "*1", "atom_type": "Cs"}, "2": {"label": "*0", "atom_type": "S2s"}, "6": {"label": "*2", "atom_type": "H0"}, "9": {"label": "*4", "atom_type": "Cs"}, "10": {"label": "*3", "atom_type": "Cs"}}

>  <type>  (4) 
ts

$$$$

     RDKit          3D

 16 14  0  0  0  0  0  0  0  0999 V2000
   -0.8123   -0.2970   -1.9835 C   0  0  0  0  0  0  0  0  0  0  0  0
   -0.8123   -0.2970   -0.4649 C   0  0  0  0  0  0  0  0  0  0  0  0
   -0.8123    1.3603    0.2801 S   0  0  0  0  0  0  0  0  0  0  0  0
    0.0943    0.1684   -2.3743 H   0  0  0  0  0  0  0  0  0  0  0  0
   -1.6683    0.2542   -2.3736 H   0  0  0  0  0  0  0  0  0  0  0  0
   -0.8554   -1.3204   -2.3638 H   0  0  0  0  0  0  0  0  0  0  0  0
    0.1996   -0.9764    0.0093 H   0  0  0  0  0  0  0  0  0  0  0  0
   -1.7199   -0.7641   -0.0797 H   0  0  0  0  0  0  0  0  0  0  0  0
    0.3625    1.7620   -0.2234 H   0  0  0  0  0  0  0  0  0  0  0  0
    2.1118   -0.7799    1.3456 C   0  0  0  0  0  0  0  0  0  0  0  0
    1.2130   -1.6567    0.4841 C   0  0  0  0  0  3  0  0  0  0  0  0
    2.4635   -1.3190    2.2270 H   0  0  0  0  0  0  0  0  0  0  0  0
    1.5828    0.1098    1.6917 H   0  0  0  0  0  0  0  0  0  0  0  0
    2.9901   -0.4467    0.7899 H   0  0  0  0  0  0  0  0  0  0  0  0
    0.3347   -1.9899    1.0398 H   0  0  0  0  0  0  0  0  0  0  0  0
    1.7421   -2.5464    0.1380 H   0  0  0  0  0  0  0  0  0  0  0  0
  1  2  1  0
  1  4  1  0
  1  5  1  0
  1  6  1  0
  2  3  1  0
  2  7  1  0
  2  8  1  0
  3  9  1  0
 10 11  1  0
 10 12  1  0
 10 13  1  0
 10 14  1  0
 11 15  1  0
 11 16  1  0
M  RAD  1  11   2
M  END
>  <reaction>  (5) 
rxn_1865

>  <mol_properties>  (5) 
{"1": {"label": "*1", "atom_type": "Cs"}, "2": {"label": "*0", "atom_type": "S2s"}, "6": {"label": "*2", "atom_type": "H0"}, "9": {"label": "*4", "atom_type": "Cs"}, "10": {"label": "*3", "atom_type": "Cs"}}

>  <type>  (5) 
unop_1

>  <geom_source>  (5) 
Heuristics

$$$$

     RDKit          3D

 16 14  0  0  0  0  0  0  0  0999 V2000
   -0.8671   -0.1641   -1.6814 C   0  0  0  0  0  0  0  0  0  0  0  0
   -0.8671   -0.1641   -0.1627 C   0  0  0  0  0  0  0  0  0  0  0  0
   -0.8671    1.4932    0.5823 S   0  0  0  0  0  0  0  0  0  0  0  0
    0.0395    0.3013   -2.0721 H   0  0  0  0  0  0  0  0  0  0  0  0
   -1.7231    0.3871   -2.0715 H   0  0  0  0  0  0  0  0  0  0  0  0
   -0.9102   -1.1875   -2.0617 H   0  0  0  0  0  0  0  0  0  0  0  0
    0.1448   -0.8435    0.3114 H   0  0  0  0  0  0  0  0  0  0  0  0
   -1.7747   -0.6312    0.2224 H   0  0  0  0  0  0  0  0  0  0  0  0
    0.3077    1.8949    0.0787 H   0  0  0  0  0  0  0  0  0  0  0  0
    2.3510   -1.4700   -0.1589 C   0  0  0  0  0  0  0  0  0  0  0  0
    1.1582   -1.5238    0.7863 C   0  0  0  0  0  3  0  0  0  0  0  0
    3.2739   -1.7500    0.3521 H   0  0  0  0  0  0  0  0  0  0  0  0
    2.4895   -0.4663   -0.5647 H   0  0  0  0  0  0  0  0  0  0  0  0
    2.2198   -2.1516   -1.0011 H   0  0  0  0  0  0  0  0  0  0  0  0
    1.2894   -0.8421    1.6285 H   0  0  0  0  0  0  0  0  0  0  0  0
    1.0197   -2.5275    1.1921 H   0  0  0  0  0  0  0  0  0  0  0  0
  1  2  1  0
  1  4  1  0
  1  5  1  0
  1  6  1  0
  2  3  1  0
  2  7  1  0
  2  8  1  0
  3  9  1  0
 10 11  1  0
 10 12  1  0
 10 13  1  0
 10 14  1  0
 11 15  1  0
 11 16  1  0
M  RAD  1  11   2
M  END
>  <reaction>  (6) 
rxn_1865

>  <mol_properties>  (6) 
{"1": {"label": "*1", "atom_type": "Cs"}, "2": {"label": "*0", "atom_type": "S2s"}, "6": {"label": "*2", "atom_type": "H0"}, "9": {"label": "*4", "atom_type": "Cs"}, "10": {"label": "*3", "atom_type": "Cs"}}

>  <type>  (6) 
unop_2

>  <geom_source>  (6) 
Heuristics

$$$$

     RDKit          3D

 16 14  0  0  0  0  0  0  0  0999 V2000
   -0.7398   -0.2405   -2.0605 C   0  0  0  0  0  0  0  0  0  0  0  0
   -0.7398   -0.2405   -0.5418 C   0  0  0  0  0  0  0  0  0  0  0  0
   -0.7398    1.4168    0.2031 S   0  0  0  0  0  0  0  0  0  0  0  0
    0.1669    0.2249   -2.4513 H   0  0  0  0  0  0  0  0  0  0  0  0
   -1.5957    0.3107   -2.4506 H   0  0  0  0  0  0  0  0  0  0  0  0
   -0.7828   -1.2639   -2.4408 H   0  0  0  0  0  0  0  0  0  0  0  0
    0.2721   -0.9199   -0.0677 H   0  0  0  0  0  0  0  0  0  0  0  0
   -1.6474   -0.7076   -0.1567 H   0  0  0  0  0  0  0  0  0  0  0  0
    0.4350    1.8185   -0.3004 H   0  0  0  0  0  0  0  0  0  0  0  0
    1.7385   -1.0497    1.7527 C   0  0  0  0  0  0  0  0  0  0  0  0
    1.2856   -1.6002    0.4071 C   0  0  0  0  0  3  0  0  0  0  0  0
    2.1815   -1.8319    2.3716 H   0  0  0  0  0  0  0  0  0  0  0  0
    0.9012   -0.6235    2.3082 H   0  0  0  0  0  0  0  0  0  0  0  0
    2.4860   -0.2642    1.6278 H   0  0  0  0  0  0  0  0  0  0  0  0
    0.5381   -2.3856    0.5321 H   0  0  0  0  0  0  0  0  0  0  0  0
    2.1229   -2.0264   -0.1483 H   0  0  0  0  0  0  0  0  0  0  0  0
  1  2  1  0
  1  4  1  0
  1  5  1  0
  1  6  1  0
  2  3  1  0
  2  7  1  0
  2  8  1  0
  3  9  1  0
 10 11  1  0
 10 12  1  0
 10 13  1  0
 10 14  1  0
 11 15  1  0
 11 16  1  0
M  RAD  1  11   2
M  END
>  <reaction>  (7) 
rxn_1865

>  <mol_properties>  (7) 
{"1": {"label": "*1", "atom_type": "Cs"}, "2": {"label": "*0", "atom_type": "S2s"}, "6": {"label": "*2", "atom_type": "H0"}, "9": {"label": "*4", "atom_type": "Cs"}, "10": {"label": "*3", "atom_type": "Cs"}}

>  <type>  (7) 
unop_3

>  <geom_source>  (7) 
Heuristics

$$$$

     RDKit          3D

 16 14  0  0  0  0  0  0  0  0999 V2000
   -0.6576    0.0884   -1.7639 C   0  0  0  0  0  0  0  0  0  0  0  0
   -0.6576    0.0884   -0.2452 C   0  0  0  0  0  0  0  0  0  0  0  0
   -0.6576    1.7457    0.4998 S   0  0  0  0  0  0  0  0  0  0  0  0
    0.2490    0.5538   -2.1546 H   0  0  0  0  0  0  0  0  0  0  0  0
   -1.5136    0.6396   -2.1540 H   0  0  0  0  0  0  0  0  0  0  0  0
   -0.7007   -0.9350   -2.1442 H   0  0  0  0  0  0  0  0  0  0  0  0
    0.3543   -0.5910    0.2289 H   0  0  0  0  0  0  0  0  0  0  0  0
   -1.5652   -0.3787    0.1399 H   0  0  0  0  0  0  0  0  0  0  0  0
    0.5172    2.1474   -0.0038 H   0  0  0  0  0  0  0  0  0  0  0  0
    1.3236   -2.7220    0.2427 C   0  0  0  0  0  0  0  0  0  0  0  0
    1.3677   -1.2713    0.7038 C   0  0  0  0  0  3  0  0  0  0  0  0
    1.7521   -3.3889    0.9929 H   0  0  0  0  0  0  0  0  0  0  0  0
    1.8860   -2.8606   -0.6823 H   0  0  0  0  0  0  0  0  0  0  0  0
    0.2984   -3.0477    0.0580 H   0  0  0  0  0  0  0  0  0  0  0  0
    2.3929   -0.9456    0.8884 H   0  0  0  0  0  0  0  0  0  0  0  0
    0.8053   -1.1327    1.6288 H   0  0  0  0  0  0  0  0  0  0  0  0
  1  2  1  0
  1  4  1  0
  1  5  1  0
  1  6  1  0
  2  3  1  0
  2  7  1  0
  2  8  1  0
  3  9  1  0
 10 11  1  0
 10 12  1  0
 10 13  1  0
 10 14  1  0
 11 15  1  0
 11 16  1  0
M  RAD  1  11   2
M  END
>  <reaction>  (8) 
rxn_1865

>  <mol_properties>  (8) 
{"1": {"label": "*1", "atom_type": "Cs"}, "2": {"label": "*0", "atom_type": "S2s"}, "6": {"label": "*2", "atom_type": "H0"}, "9": {"label": "*4", "atom_type": "Cs"}, "10": {"label": "*3", "atom_type": "Cs"}}

>  <type>  (8) 
unop_4

>  <geom_source>  (8) 
Heuristics

$$$$

     RDKit          3D

 16 14  0  0  0  0  0  0  0  0999 V2000
   -0.6695   -0.1520   -2.0873 C   0  0  0  0  0  0  0  0  0  0  0  0
   -0.6695   -0.1520   -0.5686 C   0  0  0  0  0  0  0  0  0  0  0  0
   -0.6695    1.5053    0.1764 S   0  0  0  0  0  0  0  0  0  0  0  0
    0.2371    0.3134   -2.4780 H   0  0  0  0  0  0  0  0  0  0  0  0
   -1.5255    0.3992   -2.4774 H   0  0  0  0  0  0  0  0  0  0  0  0
   -0.7126   -1.1754   -2.4676 H   0  0  0  0  0  0  0  0  0  0  0  0
    0.3424   -0.8314   -0.0945 H   0  0  0  0  0  0  0  0  0  0  0  0
   -1.5771   -0.6191   -0.1835 H   0  0  0  0  0  0  0  0  0  0  0  0
    0.5053    1.9070   -0.3272 H   0  0  0  0  0  0  0  0  0  0  0  0
    1.3560   -1.5119    1.9032 C   0  0  0  0  0  0  0  0  0  0  0  0
    1.3558   -1.5117    0.3804 C   0  0  0  0  0  3  0  0  0  0  0  0
    2.2005   -2.0788    2.2989 H   0  0  0  0  0  0  0  0  0  0  0  0
    0.4429   -1.9598    2.2991 H   0  0  0  0  0  0  0  0  0  0  0  0
    1.4248   -0.4971    2.2991 H   0  0  0  0  0  0  0  0  0  0  0  0
    1.2870   -2.5265   -0.0156 H   0  0  0  0  0  0  0  0  0  0  0  0
    2.2690   -1.0638   -0.0156 H   0  0  0  0  0  0  0  0  0  0  0  0
  1  2  1  0
  1  4  1  0
  1  5  1  0
  1  6  1  0
  2  3  1  0
  2  7  1  0
  2  8  1  0
  3  9  1  0
 10 11  1  0
 10 12  1  0
 10 13  1  0
 10 14  1  0
 11 15  1  0
 11 16  1  0
M  RAD  1  11   2
M  END
>  <reaction>  (9) 
rxn_1865

>  <mol_properties>  (9) 
{"1": {"label": "*1", "atom_type": "Cs"}, "2": {"label": "*0", "atom_type": "S2s"}, "6": {"label": "*2", "atom_type": "H0"}, "9": {"label": "*4", "atom_type": "Cs"}, "10": {"label": "*3", "atom_type": "Cs"}}

>  <type>  (9) 
unop_5

>  <geom_source>  (9) 
Heuristics

$$$$

     RDKit          3D

 16 14  0  0  0  0  0  0  0  0999 V2000
   -0.6050    0.0878   -1.8748 C   0  0  0  0  0  0  0  0  0  0  0  0
   -0.6050    0.0878   -0.3562 C   0  0  0  0  0  0  0  0  0  0  0  0
   -0.6050    1.7451    0.3888 S   0  0  0  0  0  0  0  0  0  0  0  0
    0.3017    0.5532   -2.2656 H   0  0  0  0  0  0  0  0  0  0  0  0
   -1.4609    0.6390   -2.2650 H   0  0  0  0  0  0  0  0  0  0  0  0
   -0.6481   -0.9356   -2.2551 H   0  0  0  0  0  0  0  0  0  0  0  0
    0.4069   -0.5916    0.1179 H   0  0  0  0  0  0  0  0  0  0  0  0
   -1.5126   -0.3793    0.0290 H   0  0  0  0  0  0  0  0  0  0  0  0
    0.5698    2.1468   -0.1147 H   0  0  0  0  0  0  0  0  0  0  0  0
    1.0567   -2.7370    0.7930 C   0  0  0  0  0  0  0  0  0  0  0  0
    1.4203   -1.2719    0.5928 C   0  0  0  0  0  3  0  0  0  0  0  0
    1.4945   -3.1316    1.7116 H   0  0  0  0  0  0  0  0  0  0  0  0
    1.4165   -3.3509   -0.0346 H   0  0  0  0  0  0  0  0  0  0  0  0
   -0.0245   -2.8712    0.8582 H   0  0  0  0  0  0  0  0  0  0  0  0
    2.5015   -1.1377    0.5276 H   0  0  0  0  0  0  0  0  0  0  0  0
    1.0606   -0.6581    1.4204 H   0  0  0  0  0  0  0  0  0  0  0  0
  1  2  1  0
  1  4  1  0
  1  5  1  0
  1  6  1  0
  2  3  1  0
  2  7  1  0
  2  8  1  0
  3  9  1  0
 10 11  1  0
 10 12  1  0
 10 13  1  0
 10 14  1  0
 11 15  1  0
 11 16  1  0
M  RAD  1  11   2
M  END
>  <reaction>  (10) 
rxn_1865

>  <mol_properties>  (10) 
{"1": {"label": "*1", "atom_type": "Cs"}, "2": {"label": "*0", "atom_type": "S2s"}, "6": {"label": "*2", "atom_type": "H0"}, "9": {"label": "*4", "atom_type": "Cs"}, "10": {"label": "*3", "atom_type": "Cs"}}

>  <type>  (10) 
unop_6

>  <geom_source>  (10) 
Heuristics

$$$$

     RDKit          3D

 16 14  0  0  0  0  0  0  0  0999 V2000
   -0.5894    0.0350   -1.9835 C   0  0  0  0  0  0  0  0  0  0  0  0
   -0.5894    0.0350   -0.4649 C   0  0  0  0  0  0  0  0  0  0  0  0
   -0.5894    1.6924    0.2801 S   0  0  0  0  0  0  0  0  0  0  0  0
    0.3173    0.5005   -2.3743 H   0  0  0  0  0  0  0  0  0  0  0  0
   -1.4453    0.5862   -2.3736 H   0  0  0  0  0  0  0  0  0  0  0  0
   -0.6325   -0.9883   -2.3638 H   0  0  0  0  0  0  0  0  0  0  0  0
    0.4225   -0.6443    0.0093 H   0  0  0  0  0  0  0  0  0  0  0  0
   -1.4970   -0.4320   -0.0797 H   0  0  0  0  0  0  0  0  0  0  0  0
    0.5854    2.0941   -0.2234 H   0  0  0  0  0  0  0  0  0  0  0  0
    0.9647   -2.4885    1.3456 C   0  0  0  0  0  0  0  0  0  0  0  0
    1.4359   -1.3247    0.4841 C   0  0  0  0  0  3  0  0  0  0  0  0
    1.5968   -2.6099    2.2270 H   0  0  0  0  0  0  0  0  0  0  0  0
    0.9889   -3.4276    0.7899 H   0  0  0  0  0  0  0  0  0  0  0  0
   -0.0590   -2.3357    1.6917 H   0  0  0  0  0  0  0  0  0  0  0  0
    2.4597   -1.4774    0.1380 H   0  0  0  0  0  0  0  0  0  0  0  0
    1.4118   -0.3856    1.0398 H   0  0  0  0  0  0  0  0  0  0  0  0
  1  2  1  0
  1  4  1  0
  1  5  1  0
  1  6  1  0
  2  3  1  0
  2  7  1  0
  2  8  1  0
  3  9  1  0
 10 11  1  0
 10 12  1  0
 10 13  1  0
 10 14  1  0
 11 15  1  0
 11 16  1  0
M  RAD  1  11   2
M  END
>  <reaction>  (11) 
rxn_1865

>  <mol_properties>  (11) 
{"1": {"label": "*1", "atom_type": "Cs"}, "2": {"label": "*0", "atom_type": "S2s"}, "6": {"label": "*2", "atom_type": "H0"}, "9": {"label": "*4", "atom_type": "Cs"}, "10": {"label": "*3", "atom_type": "Cs"}}

>  <type>  (11) 
unop_7

>  <geom_source>  (11) 
Heuristics

$$$$

     RDKit          3D

 16 14  0  0  0  0  0  0  0  0999 V2000
   -0.8670   -0.3026   -1.8748 C   0  0  0  0  0  0  0  0  0  0  0  0
   -0.8670   -0.3026   -0.3562 C   0  0  0  0  0  0  0  0  0  0  0  0
   -0.8670    1.3548    0.3888 S   0  0  0  0  0  0  0  0  0  0  0  0
    0.0396    0.1629   -2.2656 H   0  0  0  0  0  0  0  0  0  0  0  0
   -1.7230    0.2486   -2.2650 H   0  0  0  0  0  0  0  0  0  0  0  0
   -0.9101   -1.3259   -2.2551 H   0  0  0  0  0  0  0  0  0  0  0  0
    0.1449   -0.9819    0.1179 H   0  0  0  0  0  0  0  0  0  0  0  0
   -1.7746   -0.7696    0.0290 H   0  0  0  0  0  0  0  0  0  0  0  0
    0.3078    1.7565   -0.1147 H   0  0  0  0  0  0  0  0  0  0  0  0
    2.3766   -0.7709    0.7930 C   0  0  0  0  0  0  0  0  0  0  0  0
    1.1583   -1.6623    0.5928 C   0  0  0  0  0  3  0  0  0  0  0  0
    2.9076   -1.0268    1.7116 H   0  0  0  0  0  0  0  0  0  0  0  0
    2.0915    0.2806    0.8582 H   0  0  0  0  0  0  0  0  0  0  0  0
    3.0810   -0.8715   -0.0346 H   0  0  0  0  0  0  0  0  0  0  0  0
    0.4539   -1.5617    1.4204 H   0  0  0  0  0  0  0  0  0  0  0  0
    1.4435   -2.7138    0.5276 H   0  0  0  0  0  0  0  0  0  0  0  0
  1  2  1  0
  1  4  1  0
  1  5  1  0
  1  6  1  0
  2  3  1  0
  2  7  1  0
  2  8  1  0
  3  9  1  0
 10 11  1  0
 10 12  1  0
 10 13  1  0
 10 14  1  0
 11 15  1  0
 11 16  1  0
M  RAD  1  11   2
M  END
>  <reaction>  (12) 
rxn_1865

>  <mol_properties>  (12) 
{"1": {"label": "*1", "atom_type": "Cs"}, "2": {"label": "*0", "atom_type": "S2s"}, "6": {"label": "*2", "atom_type": "H0"}, "9": {"label": "*4", "atom_type": "Cs"}, "10": {"label": "*3", "atom_type": "Cs"}}

>  <type>  (12) 
unop_8

>  <geom_source>  (12) 
Heuristics

$$$$

     RDKit          3D

 16 14  0  0  0  0  0  0  0  0999 V2000
   -0.7332    0.0355   -1.6814 C   0  0  0  0  0  0  0  0  0  0  0  0
   -0.7332    0.0355   -0.1627 C   0  0  0  0  0  0  0  0  0  0  0  0
   -0.7332    1.6928    0.5823 S   0  0  0  0  0  0  0  0  0  0  0  0
    0.1735    0.5009   -2.0721 H   0  0  0  0  0  0  0  0  0  0  0  0
   -1.5891    0.5867   -2.0715 H   0  0  0  0  0  0  0  0  0  0  0  0
   -0.7762   -0.9879   -2.0617 H   0  0  0  0  0  0  0  0  0  0  0  0
    0.2788   -0.6439    0.3114 H   0  0  0  0  0  0  0  0  0  0  0  0
   -1.6408   -0.4316    0.2224 H   0  0  0  0  0  0  0  0  0  0  0  0
    0.4416    2.0945    0.0787 H   0  0  0  0  0  0  0  0  0  0  0  0
    1.6940   -2.4486   -0.1589 C   0  0  0  0  0  0  0  0  0  0  0  0
    1.2922   -1.3242    0.7863 C   0  0  0  0  0  3  0  0  0  0  0  0
    2.3026   -3.1968    0.3521 H   0  0  0  0  0  0  0  0  0  0  0  0
    2.2752   -2.0691   -1.0011 H   0  0  0  0  0  0  0  0  0  0  0  0
    0.8175   -2.9568   -0.5647 H   0  0  0  0  0  0  0  0  0  0  0  0
    2.1687   -0.8160    1.1921 H   0  0  0  0  0  0  0  0  0  0  0  0
    0.7109   -1.7038    1.6285 H   0  0  0  0  0  0  0  0  0  0  0  0
  1  2  1  0
  1  4  1  0
  1  5  1  0
  1  6  1  0
  2  3  1  0
  2  7  1  0
  2  8  1  0
  3  9  1  0
 10 11  1  0
 10 12  1  0
 10 13  1  0
 10 14  1  0
 11 15  1  0
 11 16  1  0
M  RAD  1  11   2
M  END
>  <reaction>  (13) 
rxn_1865

>  <mol_properties>  (13) 
{"1": {"label": "*1", "atom_type": "Cs"}, "2": {"label": "*0", "atom_type": "S2s"}, "6": {"label": "*2", "atom_type": "H0"}, "9": {"label": "*4", "atom_type": "Cs"}, "10": {"label": "*3", "atom_type": "Cs"}}

>  <type>  (13) 
unop_9

>  <geom_source>  (13) 
Heuristics

$$$$

     RDKit          3D

 16 14  0  0  0  0  0  0  0  0999 V2000
   -0.8875   -0.2541   -1.7639 C   0  0  0  0  0  0  0  0  0  0  0  0
   -0.8875   -0.2541   -0.2452 C   0  0  0  0  0  0  0  0  0  0  0  0
   -0.8875    1.4033    0.4998 S   0  0  0  0  0  0  0  0  0  0  0  0
    0.0191    0.2113   -2.1546 H   0  0  0  0  0  0  0  0  0  0  0  0
   -1.7435    0.2971   -2.1540 H   0  0  0  0  0  0  0  0  0  0  0  0
   -0.9306   -1.2775   -2.1442 H   0  0  0  0  0  0  0  0  0  0  0  0
    0.1244   -0.9334    0.2289 H   0  0  0  0  0  0  0  0  0  0  0  0
   -1.7951   -0.7211    0.1399 H   0  0  0  0  0  0  0  0  0  0  0  0
    0.2873    1.8049   -0.0038 H   0  0  0  0  0  0  0  0  0  0  0  0
    2.4637   -1.0237    0.2427 C   0  0  0  0  0  0  0  0  0  0  0  0
    1.1378   -1.6138    0.7038 C   0  0  0  0  0  3  0  0  0  0  0  0
    3.2433   -1.1677    0.9929 H   0  0  0  0  0  0  0  0  0  0  0  0
    2.3770    0.0485    0.0580 H   0  0  0  0  0  0  0  0  0  0  0  0
    2.8050   -1.4917   -0.6823 H   0  0  0  0  0  0  0  0  0  0  0  0
    0.7965   -1.1458    1.6288 H   0  0  0  0  0  0  0  0  0  0  0  0
    1.2245   -2.6860    0.8884 H   0  0  0  0  0  0  0  0  0  0  0  0
  1  2  1  0
  1  4  1  0
  1  5  1  0
  1  6  1  0
  2  3  1  0
  2  7  1  0
  2  8  1  0
  3  9  1  0
 10 11  1  0
 10 12  1  0
 10 13  1  0
 10 14  1  0
 11 15  1  0
 11 16  1  0
M  RAD  1  11   2
M  END
>  <reaction>  (14) 
rxn_1865

>  <mol_properties>  (14) 
{"1": {"label": "*1", "atom_type": "Cs"}, "2": {"label": "*0", "atom_type": "S2s"}, "6": {"label": "*2", "atom_type": "H0"}, "9": {"label": "*4", "atom_type": "Cs"}, "10": {"label": "*3", "atom_type": "Cs"}}

>  <type>  (14) 
unop_10

>  <geom_source>  (14) 
Heuristics

$$$$

     RDKit          3D

 16 14  0  0  0  0  0  0  0  0999 V2000
   -0.6142   -0.0535   -2.0605 C   0  0  0  0  0  0  0  0  0  0  0  0
   -0.6142   -0.0535   -0.5418 C   0  0  0  0  0  0  0  0  0  0  0  0
   -0.6142    1.6038    0.2031 S   0  0  0  0  0  0  0  0  0  0  0  0
    0.2924    0.4119   -2.4513 H   0  0  0  0  0  0  0  0  0  0  0  0
   -1.4702    0.4977   -2.4506 H   0  0  0  0  0  0  0  0  0  0  0  0
   -0.6573   -1.0769   -2.4408 H   0  0  0  0  0  0  0  0  0  0  0  0
    0.3977   -0.7329   -0.0677 H   0  0  0  0  0  0  0  0  0  0  0  0
   -1.5218   -0.5206   -0.1567 H   0  0  0  0  0  0  0  0  0  0  0  0
    0.5606    2.0055   -0.3004 H   0  0  0  0  0  0  0  0  0  0  0  0
    1.0730   -2.0409    1.7527 C   0  0  0  0  0  0  0  0  0  0  0  0
    1.4111   -1.4132    0.4071 C   0  0  0  0  0  3  0  0  0  0  0  0
    1.9648   -2.1547    2.3716 H   0  0  0  0  0  0  0  0  0  0  0  0
    0.6291   -3.0301    1.6278 H   0  0  0  0  0  0  0  0  0  0  0  0
    0.3616   -1.4273    2.3082 H   0  0  0  0  0  0  0  0  0  0  0  0
    2.1226   -2.0268   -0.1483 H   0  0  0  0  0  0  0  0  0  0  0  0
    1.8550   -0.4240    0.5321 H   0  0  0  0  0  0  0  0  0  0  0  0
  1  2  1  0
  1  4  1  0
  1  5  1  0
  1  6  1  0
  2  3  1  0
  2  7  1  0
  2  8  1  0
  3  9  1  0
 10 11  1  0
 10 12  1  0
 10 13  1  0
 10 14  1  0
 11 15  1  0
 11 16  1  0
M  RAD  1  11   2
M  END
>  <reaction>  (15) 
rxn_1865

>  <mol_properties>  (15) 
{"1": {"label": "*1", "atom_type": "Cs"}, "2": {"label": "*0", "atom_type": "S2s"}, "6": {"label": "*2", "atom_type": "H0"}, "9": {"label": "*4", "atom_type": "Cs"}, "10": {"label": "*3", "atom_type": "Cs"}}

>  <type>  (15) 
unop_11

>  <geom_source>  (15) 
Heuristics

$$$$

     RDKit          3D

 16 14  0  0  0  0  0  0  0  0999 V2000
   -0.8105   -0.0574   -1.6509 C   0  0  0  0  0  0  0  0  0  0  0  0
   -0.8105   -0.0574   -0.1322 C   0  0  0  0  0  0  0  0  0  0  0  0
   -0.8105    1.5999    0.6128 S   0  0  0  0  0  0  0  0  0  0  0  0
    0.0962    0.4080   -2.0416 H   0  0  0  0  0  0  0  0  0  0  0  0
   -1.6664    0.4938   -2.0410 H   0  0  0  0  0  0  0  0  0  0  0  0
   -0.8535   -1.0808   -2.0311 H   0  0  0  0  0  0  0  0  0  0  0  0
    0.2014   -0.7368    0.3419 H   0  0  0  0  0  0  0  0  0  0  0  0
   -1.7181   -0.5245    0.2529 H   0  0  0  0  0  0  0  0  0  0  0  0
    0.3643    2.0016    0.1093 H   0  0  0  0  0  0  0  0  0  0  0  0
    2.0694   -1.9908   -0.3055 C   0  0  0  0  0  0  0  0  0  0  0  0
    1.2149   -1.4171    0.8168 C   0  0  0  0  0  3  0  0  0  0  0  0
    2.9139   -2.5577    0.0902 H   0  0  0  0  0  0  0  0  0  0  0  0
    2.4713   -1.1997   -0.9410 H   0  0  0  0  0  0  0  0  0  0  0  0
    1.4894   -2.6623   -0.9410 H   0  0  0  0  0  0  0  0  0  0  0  0
    1.7949   -0.7456    1.4523 H   0  0  0  0  0  0  0  0  0  0  0  0
    0.8129   -2.2082    1.4523 H   0  0  0  0  0  0  0  0  0  0  0  0
  1  2  1  0
  1  4  1  0
  1  5  1  0
  1  6  1  0
  2  3  1  0
  2  7  1  0
  2  8  1  0
  3  9  1  0
 10 11  1  0
 10 12  1  0
 10 13  1  0
 10 14  1  0
 11 15  1  0
 11 16  1  0
M  RAD  1  11   2
M  END
>  <reaction>  (16) 
rxn_1865

>  <mol_properties>  (16) 
{"1": {"label": "*1", "atom_type": "Cs"}, "2": {"label": "*0", "atom_type": "S2s"}, "6": {"label": "*2", "atom_type": "H0"}, "9": {"label": "*4", "atom_type": "Cs"}, "10": {"label": "*3", "atom_type": "Cs"}}

>  <type>  (16) 
unop_12

>  <geom_source>  (16) 
Heuristics

$$$$

     RDKit          3D

 16 14  0  0  0  0  0  0  0  0999 V2000
   -1.8098    0.8986   -1.6323 S   0  0  0  0  0  0  0  0  0  0  0  0
    1.2393    0.5834    0.3614 C   0  0  0  0  0  0  0  0  0  0  0  0
    2.2490   -0.4203   -0.1666 C   0  0  0  0  0  0  0  0  0  0  0  0
   -1.8525   -1.0155    0.3352 C   0  0  0  0  0  0  0  0  0  0  0  0
   -1.3376    0.3844    0.0460 C   0  0  0  0  0  3  0  0  0  0  0  0
    1.4064    1.5724   -0.1151 H   0  0  0  0  0  0  0  0  0  0  0  0
    1.3493    0.6856    1.4616 H   0  0  0  0  0  0  0  0  0  0  0  0
    0.0660    0.1867    0.0957 H   0  0  0  0  0  0  0  0  0  0  0  0
    3.2791   -0.0761    0.0643 H   0  0  0  0  0  0  0  0  0  0  0  0
    2.0789   -1.4086    0.3096 H   0  0  0  0  0  0  0  0  0  0  0  0
    2.1360   -0.5223   -1.2662 H   0  0  0  0  0  0  0  0  0  0  0  0
   -2.9609   -1.0389    0.2672 H   0  0  0  0  0  0  0  0  0  0  0  0
   -1.4211   -1.7351   -0.3919 H   0  0  0  0  0  0  0  0  0  0  0  0
   -1.5468   -1.3160    1.3589 H   0  0  0  0  0  0  0  0  0  0  0  0
   -1.7539    1.1013    0.7850 H   0  0  0  0  0  0  0  0  0  0  0  0
   -1.1215    2.1204   -1.5127 H   0  0  0  0  0  0  0  0  0  0  0  0
  1  5  1  0
  1 16  1  0
  2  3  1  0
  2  6  1  0
  2  7  1  0
  2  8  1  0
  3  9  1  0
  3 10  1  0
  3 11  1  0
  4  5  1  0
  4 12  1  0
  4 13  1  0
  4 14  1  0
  5 15  1  0
M  RAD  1   5   2
M  END
>  <reaction>  (17) 
rxn_1865

>  <mol_properties>  (17) 
{"1": {"label": "*1", "atom_type": "Cs"}, "2": {"label": "*0", "atom_type": "S2s"}, "6": {"label": "*2", "atom_type": "H0"}, "9": {"label": "*4", "atom_type": "Cs"}, "10": {"label": "*3", "atom_type": "Cs"}}

>  <type>  (17) 
unop_13

>  <geom_source>  (17) 
AutoTST

$$$$
