
     RDKit          3D

  7  6  0  0  0  0  0  0  0  0999 V2000
    1.6964   -0.0938    0.0583 C   0  0  0  0  0  0  0  0  0  0  0  0
    0.5019   -0.0278    0.0173 C   0  0  0  0  0  0  0  0  0  0  0  0
   -0.9505    0.0525   -0.0327 C   0  0  0  0  0  0  0  0  0  0  0  0
    2.7574   -0.1524    0.0947 H   0  0  0  0  0  0  0  0  0  0  0  0
   -1.2692    0.9972   -0.4754 H   0  0  0  0  0  0  0  0  0  0  0  0
   -1.3749   -0.0147    0.9700 H   0  0  0  0  0  0  0  0  0  0  0  0
   -1.3610   -0.7611   -0.6323 H   0  0  0  0  0  0  0  0  0  0  0  0
  1  2  3  0
  1  4  1  0
  2  3  1  0
  3  5  1  0
  3  6  1  0
  3  7  1  0
M  END
>  <reaction>  (1) 
rxn_1245

>  <mol_properties>  (1) 
{"2": {"label": "donator", "atom_type": "Cs"}, "4": {"label": "d_hydrogen", "atom_type": "H0"}}

>  <type>  (1) 
r1h

$$$$

     RDKit          3D

 12 11  0  0  0  0  0  0  0  0999 V2000
   -0.9951    0.1196   -0.8321 C   0  0  0  0  0  0  0  0  0  0  0  0
   -0.3760    0.2571    0.5231 C   0  0  0  0  0  3  0  0  0  0  0  0
    0.9330   -0.1537    0.7810 C   0  0  0  0  0  0  0  0  0  0  0  0
    1.5987   -0.1880    1.9734 C   0  0  0  0  0  0  0  0  0  0  0  0
   -1.4483    0.9449    1.7152 S   0  0  0  0  0  0  0  0  0  0  0  0
   -1.9164   -0.4696   -0.7936 H   0  0  0  0  0  0  0  0  0  0  0  0
   -1.2565    1.0958   -1.2506 H   0  0  0  0  0  0  0  0  0  0  0  0
   -0.3088   -0.3780   -1.5170 H   0  0  0  0  0  0  0  0  0  0  0  0
    1.4783   -0.4898   -0.0971 H   0  0  0  0  0  0  0  0  0  0  0  0
    2.6278   -0.5153    2.0142 H   0  0  0  0  0  0  0  0  0  0  0  0
    1.1316    0.0690    2.9151 H   0  0  0  0  0  0  0  0  0  0  0  0
   -0.5306    1.3052    2.6211 H   0  0  0  0  0  0  0  0  0  0  0  0
  1  2  1  0
  1  6  1  0
  1  7  1  0
  1  8  1  0
  2  3  1  0
  2  5  1  0
  3  4  2  3
  3  9  1  0
  4 10  1  0
  4 11  1  0
  5 12  1  0
M  RAD  1   2   2
M  END
>  <reaction>  (2) 
rxn_1245

>  <mol_properties>  (2) 
{"1": {"label": "acceptor", "atom_type": "Cs"}}

>  <type>  (2) 
r2

$$$$

     RDKit          3D

 13 12  0  0  0  0  0  0  0  0999 V2000
   -1.1828    0.8269   -0.1645 C   0  0  0  0  0  0  0  0  0  0  0  0
   -0.4827   -0.4584   -0.5736 C   0  0  1  0  0  0  0  0  0  0  0  0
   -0.9759   -1.7030    0.1030 C   0  0  0  0  0  0  0  0  0  0  0  0
   -2.0084   -1.7831    0.9287 C   0  0  0  0  0  0  0  0  0  0  0  0
   -0.4908   -0.7025   -2.3913 S   0  0  0  0  0  0  0  0  0  0  0  0
   -1.0941    0.9860    0.9125 H   0  0  0  0  0  0  0  0  0  0  0  0
   -0.7405    1.6784   -0.6793 H   0  0  0  0  0  0  0  0  0  0  0  0
   -2.2437    0.7943   -0.4195 H   0  0  0  0  0  0  0  0  0  0  0  0
    0.5870   -0.3637   -0.3637 H   0  0  0  0  0  0  0  0  0  0  0  0
   -0.4209   -2.6026   -0.1443 H   0  0  0  0  0  0  0  0  0  0  0  0
   -2.2982   -2.7315    1.3623 H   0  0  0  0  0  0  0  0  0  0  0  0
   -2.5999   -0.9190    1.2055 H   0  0  0  0  0  0  0  0  0  0  0  0
   -1.8040   -0.9489   -2.4971 H   0  0  0  0  0  0  0  0  0  0  0  0
  1  2  1  0
  1  6  1  0
  1  7  1  0
  1  8  1  0
  2  3  1  0
  2  5  1  0
  2  9  1  1
  3  4  2  3
  3 10  1  0
  4 11  1  0
  4 12  1  0
  5 13  1  0
M  END
>  <reaction>  (3) 
rxn_1245

>  <mol_properties>  (3) 
{"0": {"label": "a_hydrogen", "atom_type": "H0"}, "2": {"label": "acceptor", "atom_type": "Cs"}}

>  <type>  (3) 
r2h

$$$$

     RDKit          3D

 19 17  0  0  0  0  0  0  0  0999 V2000
    1.1418   -1.7600   -2.6222 C   0  0  0  0  0  0  0  0  0  0  0  0
    0.3685   -1.8265   -1.7012 C   0  0  0  0  0  0  0  0  0  0  0  0
   -0.5131   -1.8305   -0.5962 C   0  0  0  0  0  3  0  0  0  0  0  0
    1.8191   -1.7264   -3.4412 H   0  0  0  0  0  0  0  0  0  0  0  0
   -0.2879   -0.6320    0.0604 H   0  0  0  0  0  0  0  0  0  0  0  0
   -0.2834   -2.5445    0.1900 H   0  0  0  0  0  0  0  0  0  0  0  0
   -1.5716   -1.7680   -0.8342 H   0  0  0  0  0  0  0  0  0  0  0  0
   -0.3307    1.4640   -0.6190 C   0  0  0  0  0  0  0  0  0  0  0  0
   -0.0676    0.5642    0.5629 C   0  0  1  0  0  0  0  0  0  0  0  0
    1.3049    0.4819    1.0759 C   0  0  0  0  0  0  0  0  0  0  0  0
    2.3797    1.0212    0.5024 C   0  0  0  0  0  0  0  0  0  0  0  0
   -1.3343    0.5847    1.8478 S   0  0  0  0  0  0  0  0  0  0  0  0
   -0.1381    2.5099   -0.3639 H   0  0  0  0  0  0  0  0  0  0  0  0
    0.3118    1.1901   -1.4588 H   0  0  0  0  0  0  0  0  0  0  0  0
   -1.3681    1.3784   -0.9391 H   0  0  0  0  0  0  0  0  0  0  0  0
    1.4256   -0.0979    1.9855 H   0  0  0  0  0  0  0  0  0  0  0  0
    3.3626    0.8862    0.9343 H   0  0  0  0  0  0  0  0  0  0  0  0
    2.3188    1.6113   -0.4033 H   0  0  0  0  0  0  0  0  0  0  0  0
   -0.9550    1.7257    2.4441 H   0  0  0  0  0  0  0  0  0  0  0  0
  1  2  3  0
  1  4  1  0
  2  3  1  0
  3  6  1  0
  3  7  1  0
  9  5  1  6
  8  9  1  0
  8 13  1  0
  8 14  1  0
  8 15  1  0
  9 10  1  0
  9 12  1  0
 10 11  2  3
 10 16  1  0
 11 17  1  0
 11 18  1  0
 12 19  1  0
M  RAD  1   3   2
M  END
>  <reaction>  (4) 
rxn_1245

>  <mol_properties>  (4) 
{"1": {"label": "*4", "atom_type": "Ct"}, "2": {"label": "*3", "atom_type": "Cs"}, "4": {"label": "*2", "atom_type": "H0"}, "8": {"label": "*1", "atom_type": "Cs"}, "11": {"label": "*0", "atom_type": "S2s"}}

>  <type>  (4) 
ts

$$$$

     RDKit          3D

 19 17  0  0  0  0  0  0  0  0999 V2000
   -0.4438   -1.8191   -3.1364 C   0  0  0  0  0  0  0  0  0  0  0  0
   -0.4438   -1.8191   -1.9394 C   0  0  0  0  0  0  0  0  0  0  0  0
   -0.4438   -1.8191   -0.4840 C   0  0  0  0  0  0  0  0  0  0  0  0
   -0.4438   -1.8191   -4.1997 H   0  0  0  0  0  0  0  0  0  0  0  0
   -0.3324   -0.5995   -0.0215 H   0  0  0  0  0  0  0  0  0  0  0  0
    0.3899   -2.4077   -0.0986 H   0  0  0  0  0  0  0  0  0  0  0  0
   -1.3704   -2.2468   -0.0986 H   0  0  0  0  0  0  0  0  0  0  0  0
   -1.4407    0.9454    1.2892 C   0  0  0  0  0  0  0  0  0  0  0  0
   -0.2206    0.6238    0.4423 C   0  0  0  0  0  3  0  0  0  0  0  0
    0.5484    1.8117   -0.0552 C   0  0  0  0  0  0  0  0  0  0  0  0
    0.3144    3.0772    0.2578 C   0  0  0  0  0  0  0  0  0  0  0  0
    0.9208   -0.5378    1.2860 S   0  0  0  0  0  0  0  0  0  0  0  0
   -1.1572    1.4733    2.2016 H   0  0  0  0  0  0  0  0  0  0  0  0
   -2.1391    1.5742    0.7325 H   0  0  0  0  0  0  0  0  0  0  0  0
   -1.9525    0.0286    1.5779 H   0  0  0  0  0  0  0  0  0  0  0  0
    1.3748    1.5710   -0.7168 H   0  0  0  0  0  0  0  0  0  0  0  0
    0.9323    3.8702   -0.1433 H   0  0  0  0  0  0  0  0  0  0  0  0
   -0.4926    3.3734    0.9167 H   0  0  0  0  0  0  0  0  0  0  0  0
    1.3392    0.3262    2.2214 H   0  0  0  0  0  0  0  0  0  0  0  0
  1  2  3  0
  1  4  1  0
  2  3  1  0
  3  5  1  0
  3  6  1  0
  3  7  1  0
  8  9  1  0
  8 13  1  0
  8 14  1  0
  8 15  1  0
  9 10  1  0
  9 12  1  0
 10 11  2  3
 10 16  1  0
 11 17  1  0
 11 18  1  0
 12 19  1  0
M  RAD  1   9   2
M  END
>  <reaction>  (5) 
rxn_1245

>  <mol_properties>  (5) 
{"1": {"label": "*4", "atom_type": "Ct"}, "2": {"label": "*3", "atom_type": "Cs"}, "4": {"label": "*2", "atom_type": "H0"}, "8": {"label": "*1", "atom_type": "Cs"}, "11": {"label": "*0", "atom_type": "S2s"}}

>  <type>  (5) 
unop_1

>  <geom_source>  (5) 
Heuristics

$$$$

     RDKit          3D

 19 17  0  0  0  0  0  0  0  0999 V2000
   -0.1102   -1.9039   -3.2215 C   0  0  0  0  0  0  0  0  0  0  0  0
   -0.1102   -1.9039   -2.0245 C   0  0  0  0  0  0  0  0  0  0  0  0
   -0.1102   -1.9039   -0.5691 C   0  0  0  0  0  0  0  0  0  0  0  0
   -0.1102   -1.9039   -4.2848 H   0  0  0  0  0  0  0  0  0  0  0  0
    0.0013   -0.6844   -0.1066 H   0  0  0  0  0  0  0  0  0  0  0  0
    0.7235   -2.4925   -0.1837 H   0  0  0  0  0  0  0  0  0  0  0  0
   -1.0368   -2.3316   -0.1837 H   0  0  0  0  0  0  0  0  0  0  0  0
   -0.5202    1.5031   -0.6321 C   0  0  0  0  0  0  0  0  0  0  0  0
    0.1131    0.5390    0.3572 C   0  0  0  0  0  3  0  0  0  0  0  0
    1.3928    1.0081    0.9835 C   0  0  0  0  0  0  0  0  0  0  0  0
    1.9459    2.2009    0.8240 C   0  0  0  0  0  0  0  0  0  0  0  0
   -1.0604    0.0236    1.6692 S   0  0  0  0  0  0  0  0  0  0  0  0
   -0.7963    2.4402   -0.1451 H   0  0  0  0  0  0  0  0  0  0  0  0
    0.1742    1.7307   -1.4440 H   0  0  0  0  0  0  0  0  0  0  0  0
   -1.4230    1.0683   -1.0583 H   0  0  0  0  0  0  0  0  0  0  0  0
    1.8715    0.2818    1.6330 H   0  0  0  0  0  0  0  0  0  0  0  0
    2.8698    2.4546    1.3275 H   0  0  0  0  0  0  0  0  0  0  0  0
    1.5089    2.9647    0.1924 H   0  0  0  0  0  0  0  0  0  0  0  0
   -1.1100    1.2097    2.2914 H   0  0  0  0  0  0  0  0  0  0  0  0
  1  2  3  0
  1  4  1  0
  2  3  1  0
  3  5  1  0
  3  6  1  0
  3  7  1  0
  8  9  1  0
  8 13  1  0
  8 14  1  0
  8 15  1  0
  9 10  1  0
  9 12  1  0
 10 11  2  3
 10 16  1  0
 11 17  1  0
 11 18  1  0
 12 19  1  0
M  RAD  1   9   2
M  END
>  <reaction>  (6) 
rxn_1245

>  <mol_properties>  (6) 
{"1": {"label": "*4", "atom_type": "Ct"}, "2": {"label": "*3", "atom_type": "Cs"}, "4": {"label": "*2", "atom_type": "H0"}, "8": {"label": "*1", "atom_type": "Cs"}, "11": {"label": "*0", "atom_type": "S2s"}}

>  <type>  (6) 
unop_2

>  <geom_source>  (6) 
Heuristics

$$$$

     RDKit          3D

 19 17  0  0  0  0  0  0  0  0999 V2000
   -0.4634   -1.9371   -2.9595 C   0  0  0  0  0  0  0  0  0  0  0  0
   -0.4634   -1.9371   -1.7625 C   0  0  0  0  0  0  0  0  0  0  0  0
   -0.4634   -1.9371   -0.3071 C   0  0  0  0  0  0  0  0  0  0  0  0
   -0.4634   -1.9371   -4.0228 H   0  0  0  0  0  0  0  0  0  0  0  0
   -0.3519   -0.7175    0.1554 H   0  0  0  0  0  0  0  0  0  0  0  0
    0.3704   -2.5256    0.0783 H   0  0  0  0  0  0  0  0  0  0  0  0
   -1.3899   -2.3648    0.0783 H   0  0  0  0  0  0  0  0  0  0  0  0
   -0.9534    0.5945    1.9581 C   0  0  0  0  0  0  0  0  0  0  0  0
   -0.2401    0.5059    0.6192 C   0  0  0  0  0  3  0  0  0  0  0  0
   -0.2358    1.7674   -0.1923 C   0  0  0  0  0  0  0  0  0  0  0  0
   -0.7026    2.9444    0.1963 C   0  0  0  0  0  0  0  0  0  0  0  0
    1.4750   -0.1215    0.7890 S   0  0  0  0  0  0  0  0  0  0  0  0
   -0.4715    1.3237    2.6121 H   0  0  0  0  0  0  0  0  0  0  0  0
   -1.9945    0.8945    1.8190 H   0  0  0  0  0  0  0  0  0  0  0  0
   -0.9341   -0.3710    2.4612 H   0  0  0  0  0  0  0  0  0  0  0  0
    0.2139    1.6713   -1.1756 H   0  0  0  0  0  0  0  0  0  0  0  0
   -0.6461    3.8055   -0.4570 H   0  0  0  0  0  0  0  0  0  0  0  0
   -1.1562    3.0980    1.1678 H   0  0  0  0  0  0  0  0  0  0  0  0
    1.9665    0.9673    1.3966 H   0  0  0  0  0  0  0  0  0  0  0  0
  1  2  3  0
  1  4  1  0
  2  3  1  0
  3  5  1  0
  3  6  1  0
  3  7  1  0
  8  9  1  0
  8 13  1  0
  8 14  1  0
  8 15  1  0
  9 10  1  0
  9 12  1  0
 10 11  2  3
 10 16  1  0
 11 17  1  0
 11 18  1  0
 12 19  1  0
M  RAD  1   9   2
M  END
>  <reaction>  (7) 
rxn_1245

>  <mol_properties>  (7) 
{"1": {"label": "*4", "atom_type": "Ct"}, "2": {"label": "*3", "atom_type": "Cs"}, "4": {"label": "*2", "atom_type": "H0"}, "8": {"label": "*1", "atom_type": "Cs"}, "11": {"label": "*0", "atom_type": "S2s"}}

>  <type>  (7) 
unop_3

>  <geom_source>  (7) 
Heuristics

$$$$

     RDKit          3D

 19 17  0  0  0  0  0  0  0  0999 V2000
   -0.1050   -1.9086   -3.2176 C   0  0  0  0  0  0  0  0  0  0  0  0
   -0.1050   -1.9086   -2.0206 C   0  0  0  0  0  0  0  0  0  0  0  0
   -0.1050   -1.9086   -0.5652 C   0  0  0  0  0  0  0  0  0  0  0  0
   -0.1050   -1.9086   -4.2809 H   0  0  0  0  0  0  0  0  0  0  0  0
    0.0064   -0.6891   -0.1028 H   0  0  0  0  0  0  0  0  0  0  0  0
    0.7287   -2.4972   -0.1798 H   0  0  0  0  0  0  0  0  0  0  0  0
   -1.0316   -2.3363   -0.1798 H   0  0  0  0  0  0  0  0  0  0  0  0
    1.4227    1.1348   -0.1362 C   0  0  0  0  0  0  0  0  0  0  0  0
    0.1183    0.5343    0.3611 C   0  0  0  0  0  3  0  0  0  0  0  0
    0.2037   -0.1975    1.6676 C   0  0  0  0  0  0  0  0  0  0  0  0
    1.2709   -0.2743    2.4484 C   0  0  0  0  0  0  0  0  0  0  0  0
   -1.2298    1.7756    0.4389 S   0  0  0  0  0  0  0  0  0  0  0  0
    1.7991    1.8867    0.5598 H   0  0  0  0  0  0  0  0  0  0  0  0
    2.1840    0.3594   -0.2476 H   0  0  0  0  0  0  0  0  0  0  0  0
    1.2732    1.6165   -1.1012 H   0  0  0  0  0  0  0  0  0  0  0  0
   -0.7175   -0.6819    1.9760 H   0  0  0  0  0  0  0  0  0  0  0  0
    1.2348   -0.8186    3.3833 H   0  0  0  0  0  0  0  0  0  0  0  0
    2.2134    0.1939    2.1924 H   0  0  0  0  0  0  0  0  0  0  0  0
   -0.7270    2.4689    1.4699 H   0  0  0  0  0  0  0  0  0  0  0  0
  1  2  3  0
  1  4  1  0
  2  3  1  0
  3  5  1  0
  3  6  1  0
  3  7  1  0
  8  9  1  0
  8 13  1  0
  8 14  1  0
  8 15  1  0
  9 10  1  0
  9 12  1  0
 10 11  2  3
 10 16  1  0
 11 17  1  0
 11 18  1  0
 12 19  1  0
M  RAD  1   9   2
M  END
>  <reaction>  (8) 
rxn_1245

>  <mol_properties>  (8) 
{"1": {"label": "*4", "atom_type": "Ct"}, "2": {"label": "*3", "atom_type": "Cs"}, "4": {"label": "*2", "atom_type": "H0"}, "8": {"label": "*1", "atom_type": "Cs"}, "11": {"label": "*0", "atom_type": "S2s"}}

>  <type>  (8) 
unop_4

>  <geom_source>  (8) 
Heuristics

$$$$

     RDKit          3D

 19 17  0  0  0  0  0  0  0  0999 V2000
   -0.2413   -2.0766   -2.8316 C   0  0  0  0  0  0  0  0  0  0  0  0
   -0.2413   -2.0766   -1.6346 C   0  0  0  0  0  0  0  0  0  0  0  0
   -0.2413   -2.0766   -0.1791 C   0  0  0  0  0  0  0  0  0  0  0  0
   -0.2413   -2.0766   -3.8949 H   0  0  0  0  0  0  0  0  0  0  0  0
   -0.1299   -0.8571    0.2833 H   0  0  0  0  0  0  0  0  0  0  0  0
    0.5924   -2.6652    0.2062 H   0  0  0  0  0  0  0  0  0  0  0  0
   -1.1679   -2.5043    0.2062 H   0  0  0  0  0  0  0  0  0  0  0  0
   -0.0221    0.3218    2.2662 C   0  0  0  0  0  0  0  0  0  0  0  0
   -0.0180    0.3663    0.7471 C   0  0  0  0  0  3  0  0  0  0  0  0
   -1.1024    1.1951    0.1249 C   0  0  0  0  0  0  0  0  0  0  0  0
   -1.9757    1.9493    0.7750 C   0  0  0  0  0  0  0  0  0  0  0  0
    1.6096    0.8780    0.0741 S   0  0  0  0  0  0  0  0  0  0  0  0
    0.1348    1.3162    2.6884 H   0  0  0  0  0  0  0  0  0  0  0  0
   -0.9760   -0.0608    2.6361 H   0  0  0  0  0  0  0  0  0  0  0  0
    0.7757   -0.3252    2.6273 H   0  0  0  0  0  0  0  0  0  0  0  0
   -1.1318    1.1611   -0.9598 H   0  0  0  0  0  0  0  0  0  0  0  0
   -2.7191    2.5239    0.2377 H   0  0  0  0  0  0  0  0  0  0  0  0
   -1.9883    2.0243    1.8554 H   0  0  0  0  0  0  0  0  0  0  0  0
    1.5378    2.1535    0.4796 H   0  0  0  0  0  0  0  0  0  0  0  0
  1  2  3  0
  1  4  1  0
  2  3  1  0
  3  5  1  0
  3  6  1  0
  3  7  1  0
  8  9  1  0
  8 13  1  0
  8 14  1  0
  8 15  1  0
  9 10  1  0
  9 12  1  0
 10 11  2  3
 10 16  1  0
 11 17  1  0
 11 18  1  0
 12 19  1  0
M  RAD  1   9   2
M  END
>  <reaction>  (9) 
rxn_1245

>  <mol_properties>  (9) 
{"1": {"label": "*4", "atom_type": "Ct"}, "2": {"label": "*3", "atom_type": "Cs"}, "4": {"label": "*2", "atom_type": "H0"}, "8": {"label": "*1", "atom_type": "Cs"}, "11": {"label": "*0", "atom_type": "S2s"}}

>  <type>  (9) 
unop_5

>  <geom_source>  (9) 
Heuristics

$$$$

     RDKit          3D

 19 17  0  0  0  0  0  0  0  0999 V2000
   -0.0033   -1.9038   -3.1901 C   0  0  0  0  0  0  0  0  0  0  0  0
   -0.0033   -1.9038   -1.9931 C   0  0  0  0  0  0  0  0  0  0  0  0
   -0.0033   -1.9038   -0.5376 C   0  0  0  0  0  0  0  0  0  0  0  0
   -0.0033   -1.9038   -4.2534 H   0  0  0  0  0  0  0  0  0  0  0  0
    0.1081   -0.6843   -0.0752 H   0  0  0  0  0  0  0  0  0  0  0  0
    0.8304   -2.4924   -0.1523 H   0  0  0  0  0  0  0  0  0  0  0  0
   -0.9299   -2.3315   -0.1523 H   0  0  0  0  0  0  0  0  0  0  0  0
    1.6929    0.8693    0.5635 C   0  0  0  0  0  0  0  0  0  0  0  0
    0.2199    0.5391    0.3887 C   0  0  0  0  0  3  0  0  0  0  0  0
   -0.4047   -0.2312    1.5140 C   0  0  0  0  0  0  0  0  0  0  0  0
    0.1811   -0.5501    2.6584 C   0  0  0  0  0  0  0  0  0  0  0  0
   -0.7861    2.0306    0.0320 S   0  0  0  0  0  0  0  0  0  0  0  0
    1.8515    1.5066    1.4354 H   0  0  0  0  0  0  0  0  0  0  0  0
    2.2777   -0.0438    0.6957 H   0  0  0  0  0  0  0  0  0  0  0  0
    2.0678    1.3987   -0.3111 H   0  0  0  0  0  0  0  0  0  0  0  0
   -1.4368   -0.5221    1.3451 H   0  0  0  0  0  0  0  0  0  0  0  0
   -0.3551   -1.1012    3.4201 H   0  0  0  0  0  0  0  0  0  0  0  0
    1.2062   -0.2809    2.8815 H   0  0  0  0  0  0  0  0  0  0  0  0
   -0.6731    2.5749    1.2516 H   0  0  0  0  0  0  0  0  0  0  0  0
  1  2  3  0
  1  4  1  0
  2  3  1  0
  3  5  1  0
  3  6  1  0
  3  7  1  0
  8  9  1  0
  8 13  1  0
  8 14  1  0
  8 15  1  0
  9 10  1  0
  9 12  1  0
 10 11  2  3
 10 16  1  0
 11 17  1  0
 11 18  1  0
 12 19  1  0
M  RAD  1   9   2
M  END
>  <reaction>  (10) 
rxn_1245

>  <mol_properties>  (10) 
{"1": {"label": "*4", "atom_type": "Ct"}, "2": {"label": "*3", "atom_type": "Cs"}, "4": {"label": "*2", "atom_type": "H0"}, "8": {"label": "*1", "atom_type": "Cs"}, "11": {"label": "*0", "atom_type": "S2s"}}

>  <type>  (10) 
unop_6

>  <geom_source>  (10) 
Heuristics

$$$$

     RDKit          3D

 19 17  0  0  0  0  0  0  0  0999 V2000
    0.0772   -1.9521   -3.0832 C   0  0  0  0  0  0  0  0  0  0  0  0
    0.0772   -1.9521   -1.8862 C   0  0  0  0  0  0  0  0  0  0  0  0
    0.0772   -1.9521   -0.4308 C   0  0  0  0  0  0  0  0  0  0  0  0
    0.0772   -1.9521   -4.1465 H   0  0  0  0  0  0  0  0  0  0  0  0
    0.1886   -0.7325    0.0316 H   0  0  0  0  0  0  0  0  0  0  0  0
    0.9109   -2.5406   -0.0454 H   0  0  0  0  0  0  0  0  0  0  0  0
   -0.8494   -2.3798   -0.0454 H   0  0  0  0  0  0  0  0  0  0  0  0
    1.5587    0.5859    1.3424 C   0  0  0  0  0  0  0  0  0  0  0  0
    0.3004    0.4909    0.4955 C   0  0  0  0  0  3  0  0  0  0  0  0
   -0.9056   -0.0626    1.1949 C   0  0  0  0  0  0  0  0  0  0  0  0
   -0.9863   -0.3721    2.4802 C   0  0  0  0  0  0  0  0  0  0  0  0
   -0.1263    2.0914   -0.2919 S   0  0  0  0  0  0  0  0  0  0  0  0
    1.4134    1.2624    2.1867 H   0  0  0  0  0  0  0  0  0  0  0  0
    1.8327   -0.3964    1.7338 H   0  0  0  0  0  0  0  0  0  0  0  0
    2.3871    0.9663    0.7469 H   0  0  0  0  0  0  0  0  0  0  0  0
   -1.7769   -0.1917    0.5605 H   0  0  0  0  0  0  0  0  0  0  0  0
   -1.9065   -0.7571    2.9002 H   0  0  0  0  0  0  0  0  0  0  0  0
   -0.1501   -0.2583    3.1592 H   0  0  0  0  0  0  0  0  0  0  0  0
   -0.4891    2.7148    0.8378 H   0  0  0  0  0  0  0  0  0  0  0  0
  1  2  3  0
  1  4  1  0
  2  3  1  0
  3  5  1  0
  3  6  1  0
  3  7  1  0
  8  9  1  0
  8 13  1  0
  8 14  1  0
  8 15  1  0
  9 10  1  0
  9 12  1  0
 10 11  2  3
 10 16  1  0
 11 17  1  0
 11 18  1  0
 12 19  1  0
M  RAD  1   9   2
M  END
>  <reaction>  (11) 
rxn_1245

>  <mol_properties>  (11) 
{"1": {"label": "*4", "atom_type": "Ct"}, "2": {"label": "*3", "atom_type": "Cs"}, "4": {"label": "*2", "atom_type": "H0"}, "8": {"label": "*1", "atom_type": "Cs"}, "11": {"label": "*0", "atom_type": "S2s"}}

>  <type>  (11) 
unop_7

>  <geom_source>  (11) 
Heuristics

$$$$

     RDKit          3D

 19 17  0  0  0  0  0  0  0  0999 V2000
   -0.3132   -1.7900   -3.2434 C   0  0  0  0  0  0  0  0  0  0  0  0
   -0.3132   -1.7900   -2.0463 C   0  0  0  0  0  0  0  0  0  0  0  0
   -0.3132   -1.7900   -0.5909 C   0  0  0  0  0  0  0  0  0  0  0  0
   -0.3132   -1.7900   -4.3066 H   0  0  0  0  0  0  0  0  0  0  0  0
   -0.2017   -0.5704   -0.1285 H   0  0  0  0  0  0  0  0  0  0  0  0
    0.5205   -2.3786   -0.2055 H   0  0  0  0  0  0  0  0  0  0  0  0
   -1.2398   -2.2177   -0.2055 H   0  0  0  0  0  0  0  0  0  0  0  0
   -1.4787    1.2447    0.5102 C   0  0  0  0  0  0  0  0  0  0  0  0
   -0.0899    0.6529    0.3354 C   0  0  0  0  0  3  0  0  0  0  0  0
    1.0292    1.6489    0.2614 C   0  0  0  0  0  0  0  0  0  0  0  0
    0.9188    2.9578    0.4316 C   0  0  0  0  0  0  0  0  0  0  0  0
    0.2915   -0.6065    1.6131 S   0  0  0  0  0  0  0  0  0  0  0  0
   -1.5558    1.7940    1.4503 H   0  0  0  0  0  0  0  0  0  0  0  0
   -1.7087    1.9314   -0.3076 H   0  0  0  0  0  0  0  0  0  0  0  0
   -2.2275    0.4543    0.5215 H   0  0  0  0  0  0  0  0  0  0  0  0
    2.0061    1.2181    0.0653 H   0  0  0  0  0  0  0  0  0  0  0  0
    1.7885    3.5993    0.3705 H   0  0  0  0  0  0  0  0  0  0  0  0
   -0.0297    3.4397    0.6346 H   0  0  0  0  0  0  0  0  0  0  0  0
    0.3836    0.2523    2.6380 H   0  0  0  0  0  0  0  0  0  0  0  0
  1  2  3  0
  1  4  1  0
  2  3  1  0
  3  5  1  0
  3  6  1  0
  3  7  1  0
  8  9  1  0
  8 13  1  0
  8 14  1  0
  8 15  1  0
  9 10  1  0
  9 12  1  0
 10 11  2  3
 10 16  1  0
 11 17  1  0
 11 18  1  0
 12 19  1  0
M  RAD  1   9   2
M  END
>  <reaction>  (12) 
rxn_1245

>  <mol_properties>  (12) 
{"1": {"label": "*4", "atom_type": "Ct"}, "2": {"label": "*3", "atom_type": "Cs"}, "4": {"label": "*2", "atom_type": "H0"}, "8": {"label": "*1", "atom_type": "Cs"}, "11": {"label": "*0", "atom_type": "S2s"}}

>  <type>  (12) 
unop_8

>  <geom_source>  (12) 
Heuristics

$$$$

     RDKit          3D

 19 17  0  0  0  0  0  0  0  0999 V2000
   -0.1513   -1.9427   -3.1950 C   0  0  0  0  0  0  0  0  0  0  0  0
   -0.1513   -1.9427   -1.9980 C   0  0  0  0  0  0  0  0  0  0  0  0
   -0.1513   -1.9427   -0.5426 C   0  0  0  0  0  0  0  0  0  0  0  0
   -0.1513   -1.9427   -4.2583 H   0  0  0  0  0  0  0  0  0  0  0  0
   -0.0399   -0.7231   -0.0802 H   0  0  0  0  0  0  0  0  0  0  0  0
    0.6824   -2.5313   -0.1572 H   0  0  0  0  0  0  0  0  0  0  0  0
   -1.0779   -2.3704   -0.1572 H   0  0  0  0  0  0  0  0  0  0  0  0
    0.8695    1.3336   -0.6056 C   0  0  0  0  0  0  0  0  0  0  0  0
    0.0719    0.5002    0.3837 C   0  0  0  0  0  3  0  0  0  0  0  0
    0.8218    0.0605    1.6061 C   0  0  0  0  0  0  0  0  0  0  0  0
    2.0564    0.4136    1.9309 C   0  0  0  0  0  0  0  0  0  0  0  0
   -1.4884    1.3246    0.8832 S   0  0  0  0  0  0  0  0  0  0  0  0
    1.2015    2.2696   -0.1525 H   0  0  0  0  0  0  0  0  0  0  0  0
    1.7514    0.7858   -0.9453 H   0  0  0  0  0  0  0  0  0  0  0  0
    0.2577    1.5793   -1.4722 H   0  0  0  0  0  0  0  0  0  0  0  0
    0.2630   -0.5926    2.2691 H   0  0  0  0  0  0  0  0  0  0  0  0
    2.5133    0.0532    2.8435 H   0  0  0  0  0  0  0  0  0  0  0  0
    2.6569    1.0664    1.3093 H   0  0  0  0  0  0  0  0  0  0  0  0
   -0.9125    2.2982    1.6022 H   0  0  0  0  0  0  0  0  0  0  0  0
  1  2  3  0
  1  4  1  0
  2  3  1  0
  3  5  1  0
  3  6  1  0
  3  7  1  0
  8  9  1  0
  8 13  1  0
  8 14  1  0
  8 15  1  0
  9 10  1  0
  9 12  1  0
 10 11  2  3
 10 16  1  0
 11 17  1  0
 11 18  1  0
 12 19  1  0
M  RAD  1   9   2
M  END
>  <reaction>  (13) 
rxn_1245

>  <mol_properties>  (13) 
{"1": {"label": "*4", "atom_type": "Ct"}, "2": {"label": "*3", "atom_type": "Cs"}, "4": {"label": "*2", "atom_type": "H0"}, "8": {"label": "*1", "atom_type": "Cs"}, "11": {"label": "*0", "atom_type": "S2s"}}

>  <type>  (13) 
unop_9

>  <geom_source>  (13) 
Heuristics

$$$$

     RDKit          3D

 19 17  0  0  0  0  0  0  0  0999 V2000
   -0.1776   -1.8304   -3.2622 C   0  0  0  0  0  0  0  0  0  0  0  0
   -0.1776   -1.8304   -2.0652 C   0  0  0  0  0  0  0  0  0  0  0  0
   -0.1776   -1.8304   -0.6098 C   0  0  0  0  0  0  0  0  0  0  0  0
   -0.1776   -1.8304   -4.3255 H   0  0  0  0  0  0  0  0  0  0  0  0
   -0.0661   -0.6109   -0.1473 H   0  0  0  0  0  0  0  0  0  0  0  0
    0.6561   -2.4190   -0.2244 H   0  0  0  0  0  0  0  0  0  0  0  0
   -1.1042   -2.2581   -0.2244 H   0  0  0  0  0  0  0  0  0  0  0  0
   -1.1283    1.4395   -0.1808 C   0  0  0  0  0  0  0  0  0  0  0  0
    0.0457    0.6125    0.3165 C   0  0  0  0  0  3  0  0  0  0  0  0
    1.2948    1.3857    0.6195 C   0  0  0  0  0  0  0  0  0  0  0  0
    1.4221    2.7036    0.5851 C   0  0  0  0  0  0  0  0  0  0  0  0
   -0.4012   -0.4244    1.7619 S   0  0  0  0  0  0  0  0  0  0  0  0
   -1.4456    2.1631    0.5723 H   0  0  0  0  0  0  0  0  0  0  0  0
   -0.8564    1.9852   -1.0871 H   0  0  0  0  0  0  0  0  0  0  0  0
   -1.9768    0.7948   -0.4045 H   0  0  0  0  0  0  0  0  0  0  0  0
    2.1462    0.7758    0.9052 H   0  0  0  0  0  0  0  0  0  0  0  0
    2.3646    3.1754    0.8315 H   0  0  0  0  0  0  0  0  0  0  0  0
    0.6046    3.3597    0.3123 H   0  0  0  0  0  0  0  0  0  0  0  0
   -0.5320    0.5884    2.6300 H   0  0  0  0  0  0  0  0  0  0  0  0
  1  2  3  0
  1  4  1  0
  2  3  1  0
  3  5  1  0
  3  6  1  0
  3  7  1  0
  8  9  1  0
  8 13  1  0
  8 14  1  0
  8 15  1  0
  9 10  1  0
  9 12  1  0
 10 11  2  3
 10 16  1  0
 11 17  1  0
 11 18  1  0
 12 19  1  0
M  RAD  1   9   2
M  END
>  <reaction>  (14) 
rxn_1245

>  <mol_properties>  (14) 
{"1": {"label": "*4", "atom_type": "Ct"}, "2": {"label": "*3", "atom_type": "Cs"}, "4": {"label": "*2", "atom_type": "H0"}, "8": {"label": "*1", "atom_type": "Cs"}, "11": {"label": "*0", "atom_type": "S2s"}}

>  <type>  (14) 
unop_10

>  <geom_source>  (14) 
Heuristics

$$$$

     RDKit          3D

 19 17  0  0  0  0  0  0  0  0999 V2000
    0.0280   -2.0450   -2.9203 C   0  0  0  0  0  0  0  0  0  0  0  0
    0.0280   -2.0450   -1.7232 C   0  0  0  0  0  0  0  0  0  0  0  0
    0.0280   -2.0450   -0.2678 C   0  0  0  0  0  0  0  0  0  0  0  0
    0.0280   -2.0450   -3.9836 H   0  0  0  0  0  0  0  0  0  0  0  0
    0.1395   -0.8254    0.1946 H   0  0  0  0  0  0  0  0  0  0  0  0
    0.8617   -2.6336    0.1175 H   0  0  0  0  0  0  0  0  0  0  0  0
   -0.8986   -2.4727    0.1175 H   0  0  0  0  0  0  0  0  0  0  0  0
    0.9689    0.3558    1.9974 C   0  0  0  0  0  0  0  0  0  0  0  0
    0.2513    0.3979    0.6585 C   0  0  0  0  0  3  0  0  0  0  0  0
   -1.2468    0.3782    0.7305 C   0  0  0  0  0  0  0  0  0  0  0  0
   -1.9736    0.4267    1.8367 C   0  0  0  0  0  0  0  0  0  0  0  0
    0.7983    1.8104   -0.3757 S   0  0  0  0  0  0  0  0  0  0  0  0
    0.7252    1.2320    2.6011 H   0  0  0  0  0  0  0  0  0  0  0  0
    0.6826   -0.5369    2.5581 H   0  0  0  0  0  0  0  0  0  0  0  0
    2.0473    0.3414    1.8478 H   0  0  0  0  0  0  0  0  0  0  0  0
   -1.7456    0.3366   -0.2328 H   0  0  0  0  0  0  0  0  0  0  0  0
   -3.0549    0.4185    1.7895 H   0  0  0  0  0  0  0  0  0  0  0  0
   -1.5286    0.4743    2.8231 H   0  0  0  0  0  0  0  0  0  0  0  0
    0.2326    2.7656    0.3753 H   0  0  0  0  0  0  0  0  0  0  0  0
  1  2  3  0
  1  4  1  0
  2  3  1  0
  3  5  1  0
  3  6  1  0
  3  7  1  0
  8  9  1  0
  8 13  1  0
  8 14  1  0
  8 15  1  0
  9 10  1  0
  9 12  1  0
 10 11  2  3
 10 16  1  0
 11 17  1  0
 11 18  1  0
 12 19  1  0
M  RAD  1   9   2
M  END
>  <reaction>  (15) 
rxn_1245

>  <mol_properties>  (15) 
{"1": {"label": "*4", "atom_type": "Ct"}, "2": {"label": "*3", "atom_type": "Cs"}, "4": {"label": "*2", "atom_type": "H0"}, "8": {"label": "*1", "atom_type": "Cs"}, "11": {"label": "*0", "atom_type": "S2s"}}

>  <type>  (15) 
unop_11

>  <geom_source>  (15) 
Heuristics

$$$$

     RDKit          3D

 19 17  0  0  0  0  0  0  0  0999 V2000
   -0.1270   -1.9532   -3.1848 C   0  0  0  0  0  0  0  0  0  0  0  0
   -0.1270   -1.9532   -1.9877 C   0  0  0  0  0  0  0  0  0  0  0  0
   -0.1270   -1.9532   -0.5323 C   0  0  0  0  0  0  0  0  0  0  0  0
   -0.1270   -1.9532   -4.2480 H   0  0  0  0  0  0  0  0  0  0  0  0
   -0.0155   -0.7336   -0.0699 H   0  0  0  0  0  0  0  0  0  0  0  0
    0.7067   -2.5417   -0.1469 H   0  0  0  0  0  0  0  0  0  0  0  0
   -1.0536   -2.3809   -0.1469 H   0  0  0  0  0  0  0  0  0  0  0  0
    0.1846    1.4562   -0.7754 C   0  0  0  0  0  0  0  0  0  0  0  0
    0.0963    0.4898    0.3940 C   0  0  0  0  0  3  0  0  0  0  0  0
    1.2589    0.5181    1.3413 C   0  0  0  0  0  0  0  0  0  0  0  0
    2.2784    1.3625    1.2973 C   0  0  0  0  0  0  0  0  0  0  0  0
   -1.4670    0.6816    1.3338 S   0  0  0  0  0  0  0  0  0  0  0  0
    0.2132    2.4908   -0.4283 H   0  0  0  0  0  0  0  0  0  0  0  0
    1.0862    1.2668   -1.3623 H   0  0  0  0  0  0  0  0  0  0  0  0
   -0.6826    1.3443   -1.4244 H   0  0  0  0  0  0  0  0  0  0  0  0
    1.2173   -0.2255    2.1310 H   0  0  0  0  0  0  0  0  0  0  0  0
    3.0698    1.3137    2.0340 H   0  0  0  0  0  0  0  0  0  0  0  0
    2.3677    2.1268    0.5351 H   0  0  0  0  0  0  0  0  0  0  0  0
   -1.1696    1.8757    1.8648 H   0  0  0  0  0  0  0  0  0  0  0  0
  1  2  3  0
  1  4  1  0
  2  3  1  0
  3  5  1  0
  3  6  1  0
  3  7  1  0
  8  9  1  0
  8 13  1  0
  8 14  1  0
  8 15  1  0
  9 10  1  0
  9 12  1  0
 10 11  2  3
 10 16  1  0
 11 17  1  0
 11 18  1  0
 12 19  1  0
M  RAD  1   9   2
M  END
>  <reaction>  (16) 
rxn_1245

>  <mol_properties>  (16) 
{"1": {"label": "*4", "atom_type": "Ct"}, "2": {"label": "*3", "atom_type": "Cs"}, "4": {"label": "*2", "atom_type": "H0"}, "8": {"label": "*1", "atom_type": "Cs"}, "11": {"label": "*0", "atom_type": "S2s"}}

>  <type>  (16) 
unop_12

>  <geom_source>  (16) 
Heuristics

$$$$

     RDKit          3D

 19 17  0  0  0  0  0  0  0  0999 V2000
   -0.0970    2.2215   -0.3587 S   0  0  0  0  0  0  0  0  0  0  0  0
   -0.7124    0.5434    0.0010 C   0  0  0  0  0  3  0  0  0  0  0  0
   -1.0562    0.4254    1.4856 C   0  0  0  0  0  0  0  0  0  0  0  0
   -1.9167    0.2502   -0.8542 C   0  0  0  0  0  0  0  0  0  0  0  0
   -2.3801   -0.9945   -0.9980 C   0  0  0  0  0  0  0  0  0  0  0  0
    1.5243   -0.6049   -0.7020 C   0  0  0  0  0  0  0  0  0  0  0  0
    2.7889   -0.4094    0.0074 C   0  0  0  0  0  0  0  0  0  0  0  0
    3.8306   -0.2482    0.5920 C   0  0  0  0  0  0  0  0  0  0  0  0
    0.2725   -0.3406   -0.3004 H   0  0  0  0  0  0  0  0  0  0  0  0
   -1.8602    1.1426    1.7578 H   0  0  0  0  0  0  0  0  0  0  0  0
   -1.3945   -0.6055    1.7219 H   0  0  0  0  0  0  0  0  0  0  0  0
   -0.1571    0.6412    2.1003 H   0  0  0  0  0  0  0  0  0  0  0  0
   -2.4091    1.0558   -1.3918 H   0  0  0  0  0  0  0  0  0  0  0  0
   -3.2417   -1.1835   -1.6299 H   0  0  0  0  0  0  0  0  0  0  0  0
   -1.9053   -1.8301   -0.4926 H   0  0  0  0  0  0  0  0  0  0  0  0
    1.6458   -0.3081   -1.7641 H   0  0  0  0  0  0  0  0  0  0  0  0
    1.2307   -1.6734   -0.6479 H   0  0  0  0  0  0  0  0  0  0  0  0
    1.0923    2.0249    0.3687 H   0  0  0  0  0  0  0  0  0  0  0  0
    4.7453   -0.1067    1.1052 H   0  0  0  0  0  0  0  0  0  0  0  0
  1  2  1  0
  1 18  1  0
  2  3  1  0
  2  4  1  0
  3 10  1  0
  3 11  1  0
  3 12  1  0
  4  5  2  3
  4 13  1  0
  5 14  1  0
  5 15  1  0
  6  7  1  0
  6  9  1  0
  6 16  1  0
  6 17  1  0
  7  8  3  0
  8 19  1  0
M  RAD  1   2   2
M  END
>  <reaction>  (17) 
rxn_1245

>  <mol_properties>  (17) 
{"1": {"label": "*4", "atom_type": "Ct"}, "2": {"label": "*3", "atom_type": "Cs"}, "4": {"label": "*2", "atom_type": "H0"}, "8": {"label": "*1", "atom_type": "Cs"}, "11": {"label": "*0", "atom_type": "S2s"}}

>  <type>  (17) 
unop_13

>  <geom_source>  (17) 
AutoTST

$$$$
