
     RDKit          3D

  9  8  0  0  0  0  0  0  0  0999 V2000
    1.1303   -0.2933   -0.7510 C   0  0  0  0  0  0  0  0  0  0  0  0
    0.2866    0.4560   -0.0588 C   0  0  0  0  0  0  0  0  0  0  0  0
   -0.9719   -0.0331    0.5823 C   0  0  0  0  0  0  0  0  0  0  0  0
    2.0274    0.1230   -1.1916 H   0  0  0  0  0  0  0  0  0  0  0  0
    0.9532   -1.3530   -0.9023 H   0  0  0  0  0  0  0  0  0  0  0  0
    0.5065    1.5132    0.0659 H   0  0  0  0  0  0  0  0  0  0  0  0
   -0.9526    0.1426    1.6610 H   0  0  0  0  0  0  0  0  0  0  0  0
   -1.1182   -1.1002    0.4106 H   0  0  0  0  0  0  0  0  0  0  0  0
   -1.8412    0.5010    0.1901 H   0  0  0  0  0  0  0  0  0  0  0  0
  1  2  2  3
  1  4  1  0
  1  5  1  0
  2  3  1  0
  2  6  1  0
  3  7  1  0
  3  8  1  0
  3  9  1  0
M  END
>  <reaction>  (1) 
rxn_1023

>  <mol_properties>  (1) 
{"2": {"label": "donator", "atom_type": "Cs"}, "6": {"label": "d_hydrogen", "atom_type": "H0"}}

>  <type>  (1) 
r1h

$$$$

     RDKit          3D

 12 11  0  0  0  0  0  0  0  0999 V2000
    2.7049    0.9350   -0.4404 S   0  0  0  0  0  1  0  0  0  0  0  0
    1.0313    1.0813   -0.4080 C   0  0  0  0  0  0  0  0  0  0  0  0
    0.1364    0.1019   -0.0473 C   0  0  0  0  0  0  0  0  0  0  0  0
    0.5360   -1.2679    0.3784 C   0  0  0  0  0  0  0  0  0  0  0  0
   -1.3304    0.3842   -0.0689 C   0  0  0  0  0  0  0  0  0  0  0  0
    0.6069    2.0398   -0.6990 H   0  0  0  0  0  0  0  0  0  0  0  0
    0.1578   -1.4699    1.3849 H   0  0  0  0  0  0  0  0  0  0  0  0
    0.0783   -2.0109   -0.2814 H   0  0  0  0  0  0  0  0  0  0  0  0
    1.6154   -1.3973    0.3689 H   0  0  0  0  0  0  0  0  0  0  0  0
   -1.8406   -0.3126   -0.7406 H   0  0  0  0  0  0  0  0  0  0  0  0
   -1.5514    1.4016   -0.3887 H   0  0  0  0  0  0  0  0  0  0  0  0
   -1.7610    0.2281    0.9247 H   0  0  0  0  0  0  0  0  0  0  0  0
  1  2  1  0
  2  3  2  3
  2  6  1  0
  3  4  1  0
  3  5  1  0
  4  7  1  0
  4  8  1  0
  4  9  1  0
  5 10  1  0
  5 11  1  0
  5 12  1  0
M  RAD  1   1   2
M  END
>  <reaction>  (2) 
rxn_1023

>  <mol_properties>  (2) 
{"2": {"label": "acceptor", "atom_type": "Cs"}}

>  <type>  (2) 
r2

$$$$

     RDKit          3D

 13 12  0  0  0  0  0  0  0  0999 V2000
    2.7452   -1.1134   -0.3601 S   0  0  0  0  0  0  0  0  0  0  0  0
    1.4120   -0.4899    0.2856 C   0  0  0  0  0  0  0  0  0  0  0  0
    0.1714   -0.0257   -0.4180 C   0  0  0  0  0  0  0  0  0  0  0  0
   -0.0717    1.4493   -0.0658 C   0  0  0  0  0  0  0  0  0  0  0  0
    0.1609   -0.2576   -1.9191 C   0  0  0  0  0  0  0  0  0  0  0  0
    1.3665   -0.3550    1.3690 H   0  0  0  0  0  0  0  0  0  0  0  0
   -0.6453   -0.6023    0.0382 H   0  0  0  0  0  0  0  0  0  0  0  0
    0.7161    2.0755   -0.4895 H   0  0  0  0  0  0  0  0  0  0  0  0
   -0.0915    1.6095    1.0136 H   0  0  0  0  0  0  0  0  0  0  0  0
   -1.0268    1.7797   -0.4755 H   0  0  0  0  0  0  0  0  0  0  0  0
    0.3131   -1.3093   -2.1616 H   0  0  0  0  0  0  0  0  0  0  0  0
    0.9567    0.3095   -2.4051 H   0  0  0  0  0  0  0  0  0  0  0  0
   -0.7945    0.0619   -2.3384 H   0  0  0  0  0  0  0  0  0  0  0  0
  1  2  2  0
  2  3  1  0
  2  6  1  0
  3  4  1  0
  3  5  1  0
  3  7  1  0
  4  8  1  0
  4  9  1  0
  4 10  1  0
  5 11  1  0
  5 12  1  0
  5 13  1  0
M  END
>  <reaction>  (3) 
rxn_1023

>  <mol_properties>  (3) 
{"2": {"label": "acceptor", "atom_type": "Cs"}, "12": {"label": "a_hydrogen", "atom_type": "H0"}}

>  <type>  (3) 
r2h

$$$$

     RDKit          3D

 21 19  0  0  0  0  0  0  0  0999 V2000
   -1.3222   -1.6047    0.0128 S   0  0  0  0  0  0  0  0  0  0  0  0
   -0.9745   -0.0244   -0.1920 C   0  0  0  0  0  0  0  0  0  0  0  0
   -0.1185    0.7970    0.6364 C   0  0  0  0  0  0  0  0  0  0  0  0
   -0.3077    2.2943    0.4904 C   0  0  0  0  0  0  0  0  0  0  0  0
    0.1703    0.3331    2.0458 C   0  0  0  0  0  0  0  0  0  0  0  0
   -1.3594    0.4779   -1.0808 H   0  0  0  0  0  0  0  0  0  0  0  0
   -1.1803    2.6294    1.0576 H   0  0  0  0  0  0  0  0  0  0  0  0
    0.5612    2.8326    0.8738 H   0  0  0  0  0  0  0  0  0  0  0  0
   -0.4534    2.5795   -0.5529 H   0  0  0  0  0  0  0  0  0  0  0  0
    0.9876    0.9143    2.4767 H   0  0  0  0  0  0  0  0  0  0  0  0
    0.4325   -0.7236    2.0669 H   0  0  0  0  0  0  0  0  0  0  0  0
   -0.7119    0.4676    2.6771 H   0  0  0  0  0  0  0  0  0  0  0  0
    1.7169   -0.6347   -2.6556 C   0  0  0  0  0  0  0  0  0  0  0  0
    2.1208   -0.7308   -1.3765 C   0  0  0  0  0  0  0  0  0  0  0  0
    2.3065    0.3929   -0.5090 C   0  0  0  0  0  3  0  0  0  0  0  0
    1.5373   -1.5140   -3.2589 H   0  0  0  0  0  0  0  0  0  0  0  0
    1.5643    0.3306   -3.1258 H   0  0  0  0  0  0  0  0  0  0  0  0
    2.2453   -1.7176   -0.9427 H   0  0  0  0  0  0  0  0  0  0  0  0
    0.9985    0.5809    0.0436 H   0  0  0  0  0  0  0  0  0  0  0  0
    2.4218    1.3704   -0.9699 H   0  0  0  0  0  0  0  0  0  0  0  0
    2.8737    0.2499    0.4044 H   0  0  0  0  0  0  0  0  0  0  0  0
  1  2  2  0
  2  3  1  0
  2  6  1  0
  3  4  1  0
  3  5  1  0
  3 19  1  0
  4  7  1  0
  4  8  1  0
  4  9  1  0
  5 10  1  0
  5 11  1  0
  5 12  1  0
 13 14  2  3
 13 16  1  0
 13 17  1  0
 14 15  1  0
 14 18  1  0
 15 20  1  0
 15 21  1  0
M  RAD  1  15   2
M  END
>  <reaction>  (4) 
rxn_1023

>  <mol_properties>  (4) 
{"1": {"label": "*0", "atom_type": "CS"}, "2": {"label": "*1", "atom_type": "Cs"}, "13": {"label": "*4", "atom_type": "Cd"}, "14": {"label": "*3", "atom_type": "Cs"}, "18": {"label": "*2", "atom_type": "H0"}}

>  <type>  (4) 
ts

$$$$

     RDKit          3D

 21 19  0  0  0  0  0  0  0  0999 V2000
    0.1862    1.1605    2.4774 S   0  0  0  0  0  1  0  0  0  0  0  0
   -0.2628   -0.1098    1.6010 C   0  0  0  0  0  0  0  0  0  0  0  0
   -0.8160   -0.1246    0.2070 C   0  0  0  0  0  0  0  0  0  0  0  0
   -2.1887   -0.8132    0.2294 C   0  0  0  0  0  0  0  0  0  0  0  0
   -0.8752    1.2320   -0.4738 C   0  0  0  0  0  0  0  0  0  0  0  0
   -0.1867   -1.1062    2.0428 H   0  0  0  0  0  0  0  0  0  0  0  0
   -2.9073   -0.2090    0.7869 H   0  0  0  0  0  0  0  0  0  0  0  0
   -2.5630   -0.9355   -0.7876 H   0  0  0  0  0  0  0  0  0  0  0  0
   -2.1390   -1.7995    0.6940 H   0  0  0  0  0  0  0  0  0  0  0  0
   -1.2406    1.1199   -1.4959 H   0  0  0  0  0  0  0  0  0  0  0  0
    0.1058    1.7059   -0.5050 H   0  0  0  0  0  0  0  0  0  0  0  0
   -1.5480    1.9053    0.0601 H   0  0  0  0  0  0  0  0  0  0  0  0
    1.2961   -1.3880   -3.5444 C   0  0  0  0  0  0  0  0  0  0  0  0
    1.2961   -1.3880   -2.2206 C   0  0  0  0  0  0  0  0  0  0  0  0
    1.2961   -0.1658   -1.3601 C   0  0  0  0  0  0  0  0  0  0  0  0
    1.2961   -2.3107   -4.1109 H   0  0  0  0  0  0  0  0  0  0  0  0
    1.2961   -0.4624   -4.1104 H   0  0  0  0  0  0  0  0  0  0  0  0
    1.2961   -2.3406   -1.6971 H   0  0  0  0  0  0  0  0  0  0  0  0
    0.2429   -0.1453   -0.5787 H   0  0  0  0  0  0  0  0  0  0  0  0
    1.2961    0.7446   -1.9607 H   0  0  0  0  0  0  0  0  0  0  0  0
    2.1738   -0.1487   -0.7089 H   0  0  0  0  0  0  0  0  0  0  0  0
  1  2  1  0
  2  3  2  3
  2  6  1  0
  3  4  1  0
  3  5  1  0
  4  7  1  0
  4  8  1  0
  4  9  1  0
  5 10  1  0
  5 11  1  0
  5 12  1  0
 13 14  2  3
 13 16  1  0
 13 17  1  0
 14 15  1  0
 14 18  1  0
 15 19  1  0
 15 20  1  0
 15 21  1  0
M  RAD  1   1   2
M  END
>  <reaction>  (5) 
rxn_1023

>  <mol_properties>  (5) 
{"1": {"label": "*0", "atom_type": "CS"}, "2": {"label": "*1", "atom_type": "Cs"}, "13": {"label": "*4", "atom_type": "Cd"}, "14": {"label": "*3", "atom_type": "Cs"}, "18": {"label": "*2", "atom_type": "H0"}}

>  <type>  (5) 
unop_1

>  <geom_source>  (5) 
Heuristics

$$$$

     RDKit          3D

 21 19  0  0  0  0  0  0  0  0999 V2000
   -0.6315   -1.4877    1.9148 S   0  0  0  0  0  1  0  0  0  0  0  0
   -0.8892   -0.6301    0.5802 C   0  0  0  0  0  0  0  0  0  0  0  0
   -0.5659    0.8128    0.3293 C   0  0  0  0  0  0  0  0  0  0  0  0
   -1.8595    1.5484   -0.0507 C   0  0  0  0  0  0  0  0  0  0  0  0
    0.1701    1.5109    1.4600 C   0  0  0  0  0  0  0  0  0  0  0  0
   -1.3725   -1.1156   -0.2711 H   0  0  0  0  0  0  0  0  0  0  0  0
   -2.5422    1.5801    0.8009 H   0  0  0  0  0  0  0  0  0  0  0  0
   -1.6345    2.5740   -0.3452 H   0  0  0  0  0  0  0  0  0  0  0  0
   -2.3728    1.0612   -0.8816 H   0  0  0  0  0  0  0  0  0  0  0  0
    0.4079    2.5363    1.1721 H   0  0  0  0  0  0  0  0  0  0  0  0
    1.0973    0.9958    1.7106 H   0  0  0  0  0  0  0  0  0  0  0  0
   -0.4430    1.5404    2.3623 H   0  0  0  0  0  0  0  0  0  0  0  0
    1.5463   -0.4505   -3.4221 C   0  0  0  0  0  0  0  0  0  0  0  0
    1.5463   -0.4505   -2.0983 C   0  0  0  0  0  0  0  0  0  0  0  0
    1.5463    0.7716   -1.2378 C   0  0  0  0  0  0  0  0  0  0  0  0
    1.5463   -1.3733   -3.9886 H   0  0  0  0  0  0  0  0  0  0  0  0
    1.5463    0.4751   -3.9881 H   0  0  0  0  0  0  0  0  0  0  0  0
    1.5463   -1.4032   -1.5748 H   0  0  0  0  0  0  0  0  0  0  0  0
    0.4930    0.7922   -0.4564 H   0  0  0  0  0  0  0  0  0  0  0  0
    1.5463    1.6821   -1.8384 H   0  0  0  0  0  0  0  0  0  0  0  0
    2.4240    0.7888   -0.5866 H   0  0  0  0  0  0  0  0  0  0  0  0
  1  2  1  0
  2  3  2  3
  2  6  1  0
  3  4  1  0
  3  5  1  0
  4  7  1  0
  4  8  1  0
  4  9  1  0
  5 10  1  0
  5 11  1  0
  5 12  1  0
 13 14  2  3
 13 16  1  0
 13 17  1  0
 14 15  1  0
 14 18  1  0
 15 19  1  0
 15 20  1  0
 15 21  1  0
M  RAD  1   1   2
M  END
>  <reaction>  (6) 
rxn_1023

>  <mol_properties>  (6) 
{"1": {"label": "*0", "atom_type": "CS"}, "2": {"label": "*1", "atom_type": "Cs"}, "13": {"label": "*4", "atom_type": "Cd"}, "14": {"label": "*3", "atom_type": "Cs"}, "18": {"label": "*2", "atom_type": "H0"}}

>  <type>  (6) 
unop_2

>  <geom_source>  (6) 
Heuristics

$$$$

     RDKit          3D

 21 19  0  0  0  0  0  0  0  0999 V2000
   -0.3855    1.9593    1.9791 S   0  0  0  0  0  1  0  0  0  0  0  0
   -0.1529    0.4118    1.6127 C   0  0  0  0  0  0  0  0  0  0  0  0
   -0.5970   -0.3264    0.3850 C   0  0  0  0  0  0  0  0  0  0  0  0
   -1.4760   -1.5107    0.8135 C   0  0  0  0  0  0  0  0  0  0  0  0
   -1.2779    0.5313   -0.6677 C   0  0  0  0  0  0  0  0  0  0  0  0
    0.3775   -0.2232    2.3265 H   0  0  0  0  0  0  0  0  0  0  0  0
   -2.4094   -1.1515    1.2515 H   0  0  0  0  0  0  0  0  0  0  0  0
   -1.7211   -2.1276   -0.0518 H   0  0  0  0  0  0  0  0  0  0  0  0
   -0.9743   -2.1416    1.5492 H   0  0  0  0  0  0  0  0  0  0  0  0
   -1.5200   -0.0749   -1.5421 H   0  0  0  0  0  0  0  0  0  0  0  0
   -0.6407    1.3576   -0.9825 H   0  0  0  0  0  0  0  0  0  0  0  0
   -2.2034    0.9602   -0.2796 H   0  0  0  0  0  0  0  0  0  0  0  0
    1.5152   -1.5898   -3.3664 C   0  0  0  0  0  0  0  0  0  0  0  0
    1.5152   -1.5898   -2.0427 C   0  0  0  0  0  0  0  0  0  0  0  0
    1.5152   -0.3676   -1.1822 C   0  0  0  0  0  0  0  0  0  0  0  0
    1.5152   -2.5125   -3.9329 H   0  0  0  0  0  0  0  0  0  0  0  0
    1.5152   -0.6642   -3.9324 H   0  0  0  0  0  0  0  0  0  0  0  0
    1.5152   -2.5424   -1.5191 H   0  0  0  0  0  0  0  0  0  0  0  0
    0.4620   -0.3471   -0.4007 H   0  0  0  0  0  0  0  0  0  0  0  0
    1.5152    0.5428   -1.7827 H   0  0  0  0  0  0  0  0  0  0  0  0
    2.3929   -0.3505   -0.5309 H   0  0  0  0  0  0  0  0  0  0  0  0
  1  2  1  0
  2  3  2  3
  2  6  1  0
  3  4  1  0
  3  5  1  0
  4  7  1  0
  4  8  1  0
  4  9  1  0
  5 10  1  0
  5 11  1  0
  5 12  1  0
 13 14  2  3
 13 16  1  0
 13 17  1  0
 14 15  1  0
 14 18  1  0
 15 19  1  0
 15 20  1  0
 15 21  1  0
M  RAD  1   1   2
M  END
>  <reaction>  (7) 
rxn_1023

>  <mol_properties>  (7) 
{"1": {"label": "*0", "atom_type": "CS"}, "2": {"label": "*1", "atom_type": "Cs"}, "13": {"label": "*4", "atom_type": "Cd"}, "14": {"label": "*3", "atom_type": "Cs"}, "18": {"label": "*2", "atom_type": "H0"}}

>  <type>  (7) 
unop_3

>  <geom_source>  (7) 
Heuristics

$$$$

     RDKit          3D

 21 19  0  0  0  0  0  0  0  0999 V2000
   -2.6110   -0.2181    0.2665 S   0  0  0  0  0  1  0  0  0  0  0  0
   -1.1147    0.2928   -0.0217 C   0  0  0  0  0  0  0  0  0  0  0  0
    0.0593    0.2956    0.9117 C   0  0  0  0  0  0  0  0  0  0  0  0
    0.5771    1.7351    1.0473 C   0  0  0  0  0  0  0  0  0  0  0  0
   -0.1970   -0.3429    2.2660 C   0  0  0  0  0  0  0  0  0  0  0  0
   -0.8829    0.7128   -1.0035 H   0  0  0  0  0  0  0  0  0  0  0  0
   -0.1610    2.3575    1.5574 H   0  0  0  0  0  0  0  0  0  0  0  0
    1.4970    1.7487    1.6328 H   0  0  0  0  0  0  0  0  0  0  0  0
    0.7871    2.1829    0.0744 H   0  0  0  0  0  0  0  0  0  0  0  0
    0.7201   -0.3423    2.8573 H   0  0  0  0  0  0  0  0  0  0  0  0
   -0.5442   -1.3709    2.1633 H   0  0  0  0  0  0  0  0  0  0  0  0
   -0.9614    0.2081    2.8166 H   0  0  0  0  0  0  0  0  0  0  0  0
    2.1714   -0.9678   -2.8397 C   0  0  0  0  0  0  0  0  0  0  0  0
    2.1714   -0.9678   -1.5159 C   0  0  0  0  0  0  0  0  0  0  0  0
    2.1714    0.2544   -0.6554 C   0  0  0  0  0  0  0  0  0  0  0  0
    2.1714   -1.8905   -3.4061 H   0  0  0  0  0  0  0  0  0  0  0  0
    2.1714   -0.0422   -3.4057 H   0  0  0  0  0  0  0  0  0  0  0  0
    2.1714   -1.9204   -0.9924 H   0  0  0  0  0  0  0  0  0  0  0  0
    1.1182    0.2749    0.1261 H   0  0  0  0  0  0  0  0  0  0  0  0
    2.1714    1.1648   -1.2560 H   0  0  0  0  0  0  0  0  0  0  0  0
    3.0491    0.2715   -0.0042 H   0  0  0  0  0  0  0  0  0  0  0  0
  1  2  1  0
  2  3  2  3
  2  6  1  0
  3  4  1  0
  3  5  1  0
  4  7  1  0
  4  8  1  0
  4  9  1  0
  5 10  1  0
  5 11  1  0
  5 12  1  0
 13 14  2  3
 13 16  1  0
 13 17  1  0
 14 15  1  0
 14 18  1  0
 15 19  1  0
 15 20  1  0
 15 21  1  0
M  RAD  1   1   2
M  END
>  <reaction>  (8) 
rxn_1023

>  <mol_properties>  (8) 
{"1": {"label": "*0", "atom_type": "CS"}, "2": {"label": "*1", "atom_type": "Cs"}, "13": {"label": "*4", "atom_type": "Cd"}, "14": {"label": "*3", "atom_type": "Cs"}, "18": {"label": "*2", "atom_type": "H0"}}

>  <type>  (8) 
unop_4

>  <geom_source>  (8) 
Heuristics

$$$$

     RDKit          3D

 21 19  0  0  0  0  0  0  0  0999 V2000
   -1.2588    2.1628    1.4231 S   0  0  0  0  0  1  0  0  0  0  0  0
   -0.2102    0.9506    1.3043 C   0  0  0  0  0  0  0  0  0  0  0  0
   -0.3429   -0.3147    0.5101 C   0  0  0  0  0  0  0  0  0  0  0  0
   -0.2146   -1.5110    1.4647 C   0  0  0  0  0  0  0  0  0  0  0  0
   -1.5944   -0.4062   -0.3459 C   0  0  0  0  0  0  0  0  0  0  0  0
    0.7237    1.0067    1.8688 H   0  0  0  0  0  0  0  0  0  0  0  0
   -1.0653   -1.5439    2.1483 H   0  0  0  0  0  0  0  0  0  0  0  0
   -0.1971   -2.4424    0.8977 H   0  0  0  0  0  0  0  0  0  0  0  0
    0.6991   -1.4580    2.0592 H   0  0  0  0  0  0  0  0  0  0  0  0
   -1.5829   -1.3313   -0.9244 H   0  0  0  0  0  0  0  0  0  0  0  0
   -1.6686    0.4346   -1.0354 H   0  0  0  0  0  0  0  0  0  0  0  0
   -2.4913   -0.4006    0.2760 H   0  0  0  0  0  0  0  0  0  0  0  0
    1.7693   -1.5781   -3.2413 C   0  0  0  0  0  0  0  0  0  0  0  0
    1.7693   -1.5781   -1.9176 C   0  0  0  0  0  0  0  0  0  0  0  0
    1.7693   -0.3559   -1.0571 C   0  0  0  0  0  0  0  0  0  0  0  0
    1.7693   -2.5008   -3.8078 H   0  0  0  0  0  0  0  0  0  0  0  0
    1.7693   -0.6525   -3.8073 H   0  0  0  0  0  0  0  0  0  0  0  0
    1.7693   -2.5307   -1.3940 H   0  0  0  0  0  0  0  0  0  0  0  0
    0.7161   -0.3354   -0.2756 H   0  0  0  0  0  0  0  0  0  0  0  0
    1.7693    0.5545   -1.6577 H   0  0  0  0  0  0  0  0  0  0  0  0
    2.6470   -0.3388   -0.4058 H   0  0  0  0  0  0  0  0  0  0  0  0
  1  2  1  0
  2  3  2  3
  2  6  1  0
  3  4  1  0
  3  5  1  0
  4  7  1  0
  4  8  1  0
  4  9  1  0
  5 10  1  0
  5 11  1  0
  5 12  1  0
 13 14  2  3
 13 16  1  0
 13 17  1  0
 14 15  1  0
 14 18  1  0
 15 19  1  0
 15 20  1  0
 15 21  1  0
M  RAD  1   1   2
M  END
>  <reaction>  (9) 
rxn_1023

>  <mol_properties>  (9) 
{"1": {"label": "*0", "atom_type": "CS"}, "2": {"label": "*1", "atom_type": "Cs"}, "13": {"label": "*4", "atom_type": "Cd"}, "14": {"label": "*3", "atom_type": "Cs"}, "18": {"label": "*2", "atom_type": "H0"}}

>  <type>  (9) 
unop_5

>  <geom_source>  (9) 
Heuristics

$$$$

     RDKit          3D

 21 19  0  0  0  0  0  0  0  0999 V2000
   -2.6294    0.7200    0.2998 S   0  0  0  0  0  1  0  0  0  0  0  0
   -1.0391    0.7206    0.0673 C   0  0  0  0  0  0  0  0  0  0  0  0
    0.0127   -0.0023    0.8551 C   0  0  0  0  0  0  0  0  0  0  0  0
    1.0165    1.0265    1.3962 C   0  0  0  0  0  0  0  0  0  0  0  0
   -0.5179   -0.9066    1.9543 C   0  0  0  0  0  0  0  0  0  0  0  0
   -0.6274    1.3220   -0.7468 H   0  0  0  0  0  0  0  0  0  0  0  0
    0.5374    1.6720    2.1350 H   0  0  0  0  0  0  0  0  0  0  0  0
    1.8512    0.5172    1.8792 H   0  0  0  0  0  0  0  0  0  0  0  0
    1.4178    1.6572    0.6010 H   0  0  0  0  0  0  0  0  0  0  0  0
    0.3091   -1.4280    2.4388 H   0  0  0  0  0  0  0  0  0  0  0  0
   -1.2135   -1.6475    1.5605 H   0  0  0  0  0  0  0  0  0  0  0  0
   -1.0496   -0.3270    2.7109 H   0  0  0  0  0  0  0  0  0  0  0  0
    2.1248   -1.2657   -2.8963 C   0  0  0  0  0  0  0  0  0  0  0  0
    2.1248   -1.2657   -1.5725 C   0  0  0  0  0  0  0  0  0  0  0  0
    2.1248   -0.0435   -0.7120 C   0  0  0  0  0  0  0  0  0  0  0  0
    2.1248   -2.1884   -3.4628 H   0  0  0  0  0  0  0  0  0  0  0  0
    2.1248   -0.3401   -3.4623 H   0  0  0  0  0  0  0  0  0  0  0  0
    2.1249   -2.2183   -1.0490 H   0  0  0  0  0  0  0  0  0  0  0  0
    1.0716   -0.0229    0.0694 H   0  0  0  0  0  0  0  0  0  0  0  0
    2.1248    0.8670   -1.3126 H   0  0  0  0  0  0  0  0  0  0  0  0
    3.0026   -0.0264   -0.0608 H   0  0  0  0  0  0  0  0  0  0  0  0
  1  2  1  0
  2  3  2  3
  2  6  1  0
  3  4  1  0
  3  5  1  0
  4  7  1  0
  4  8  1  0
  4  9  1  0
  5 10  1  0
  5 11  1  0
  5 12  1  0
 13 14  2  3
 13 16  1  0
 13 17  1  0
 14 15  1  0
 14 18  1  0
 15 19  1  0
 15 20  1  0
 15 21  1  0
M  RAD  1   1   2
M  END
>  <reaction>  (10) 
rxn_1023

>  <mol_properties>  (10) 
{"1": {"label": "*0", "atom_type": "CS"}, "2": {"label": "*1", "atom_type": "Cs"}, "13": {"label": "*4", "atom_type": "Cd"}, "14": {"label": "*3", "atom_type": "Cs"}, "18": {"label": "*2", "atom_type": "H0"}}

>  <type>  (10) 
unop_6

>  <geom_source>  (10) 
Heuristics

$$$$

     RDKit          3D

 21 19  0  0  0  0  0  0  0  0999 V2000
   -2.3673    1.4492    0.6217 S   0  0  0  0  0  1  0  0  0  0  0  0
   -0.8297    1.0758    0.3399 C   0  0  0  0  0  0  0  0  0  0  0  0
   -0.0988   -0.1807    0.7093 C   0  0  0  0  0  0  0  0  0  0  0  0
    1.1085    0.1908    1.5831 C   0  0  0  0  0  0  0  0  0  0  0  0
   -0.9562   -1.2544    1.3569 C   0  0  0  0  0  0  0  0  0  0  0  0
   -0.1963    1.8065   -0.1689 H   0  0  0  0  0  0  0  0  0  0  0  0
    0.7739    0.5878    2.5436 H   0  0  0  0  0  0  0  0  0  0  0  0
    1.7189   -0.6926    1.7737 H   0  0  0  0  0  0  0  0  0  0  0  0
    1.7387    0.9422    1.1040 H   0  0  0  0  0  0  0  0  0  0  0  0
   -0.3567   -2.1467    1.5442 H   0  0  0  0  0  0  0  0  0  0  0  0
   -1.7992   -1.5283    0.7226 H   0  0  0  0  0  0  0  0  0  0  0  0
   -1.3613   -0.9062    2.3086 H   0  0  0  0  0  0  0  0  0  0  0  0
    2.0134   -1.4441   -3.0421 C   0  0  0  0  0  0  0  0  0  0  0  0
    2.0134   -1.4441   -1.7183 C   0  0  0  0  0  0  0  0  0  0  0  0
    2.0134   -0.2219   -0.8578 C   0  0  0  0  0  0  0  0  0  0  0  0
    2.0134   -2.3668   -3.6086 H   0  0  0  0  0  0  0  0  0  0  0  0
    2.0134   -0.5185   -3.6081 H   0  0  0  0  0  0  0  0  0  0  0  0
    2.0134   -2.3967   -1.1948 H   0  0  0  0  0  0  0  0  0  0  0  0
    0.9602   -0.2013   -0.0764 H   0  0  0  0  0  0  0  0  0  0  0  0
    2.0134    0.6886   -1.4584 H   0  0  0  0  0  0  0  0  0  0  0  0
    2.8911   -0.2048   -0.2066 H   0  0  0  0  0  0  0  0  0  0  0  0
  1  2  1  0
  2  3  2  3
  2  6  1  0
  3  4  1  0
  3  5  1  0
  4  7  1  0
  4  8  1  0
  4  9  1  0
  5 10  1  0
  5 11  1  0
  5 12  1  0
 13 14  2  3
 13 16  1  0
 13 17  1  0
 14 15  1  0
 14 18  1  0
 15 19  1  0
 15 20  1  0
 15 21  1  0
M  RAD  1   1   2
M  END
>  <reaction>  (11) 
rxn_1023

>  <mol_properties>  (11) 
{"1": {"label": "*0", "atom_type": "CS"}, "2": {"label": "*1", "atom_type": "Cs"}, "13": {"label": "*4", "atom_type": "Cd"}, "14": {"label": "*3", "atom_type": "Cs"}, "18": {"label": "*2", "atom_type": "H0"}}

>  <type>  (11) 
unop_7

>  <geom_source>  (11) 
Heuristics

$$$$

     RDKit          3D

 21 19  0  0  0  0  0  0  0  0999 V2000
    0.3035    0.1160    2.6374 S   0  0  0  0  0  1  0  0  0  0  0  0
   -0.4575   -0.4942    1.3600 C   0  0  0  0  0  0  0  0  0  0  0  0
   -0.8885    0.2165    0.1117 C   0  0  0  0  0  0  0  0  0  0  0  0
   -2.4056    0.0443   -0.0541 C   0  0  0  0  0  0  0  0  0  0  0  0
   -0.4728    1.6752    0.0283 C   0  0  0  0  0  0  0  0  0  0  0  0
   -0.7278   -1.5529    1.3658 H   0  0  0  0  0  0  0  0  0  0  0  0
   -2.9366    0.5718    0.7409 H   0  0  0  0  0  0  0  0  0  0  0  0
   -2.7272    0.4573   -1.0108 H   0  0  0  0  0  0  0  0  0  0  0  0
   -2.6995   -1.0064   -0.0218 H   0  0  0  0  0  0  0  0  0  0  0  0
   -0.7824    2.0963   -0.9295 H   0  0  0  0  0  0  0  0  0  0  0  0
    0.6068    1.7886    0.1257 H   0  0  0  0  0  0  0  0  0  0  0  0
   -0.9371    2.2573    0.8262 H   0  0  0  0  0  0  0  0  0  0  0  0
    1.2237   -1.0468   -3.6397 C   0  0  0  0  0  0  0  0  0  0  0  0
    1.2237   -1.0468   -2.3160 C   0  0  0  0  0  0  0  0  0  0  0  0
    1.2237    0.1753   -1.4555 C   0  0  0  0  0  0  0  0  0  0  0  0
    1.2237   -1.9696   -4.2062 H   0  0  0  0  0  0  0  0  0  0  0  0
    1.2237   -0.1212   -4.2057 H   0  0  0  0  0  0  0  0  0  0  0  0
    1.2237   -1.9995   -1.7925 H   0  0  0  0  0  0  0  0  0  0  0  0
    0.1704    0.1959   -0.6740 H   0  0  0  0  0  0  0  0  0  0  0  0
    1.2237    1.0858   -2.0561 H   0  0  0  0  0  0  0  0  0  0  0  0
    2.1014    0.1925   -0.8043 H   0  0  0  0  0  0  0  0  0  0  0  0
  1  2  1  0
  2  3  2  3
  2  6  1  0
  3  4  1  0
  3  5  1  0
  4  7  1  0
  4  8  1  0
  4  9  1  0
  5 10  1  0
  5 11  1  0
  5 12  1  0
 13 14  2  3
 13 16  1  0
 13 17  1  0
 14 15  1  0
 14 18  1  0
 15 19  1  0
 15 20  1  0
 15 21  1  0
M  RAD  1   1   2
M  END
>  <reaction>  (12) 
rxn_1023

>  <mol_properties>  (12) 
{"1": {"label": "*0", "atom_type": "CS"}, "2": {"label": "*1", "atom_type": "Cs"}, "13": {"label": "*4", "atom_type": "Cd"}, "14": {"label": "*3", "atom_type": "Cs"}, "18": {"label": "*2", "atom_type": "H0"}}

>  <type>  (12) 
unop_8

>  <geom_source>  (12) 
Heuristics

$$$$

     RDKit          3D

 21 19  0  0  0  0  0  0  0  0999 V2000
   -2.2103   -1.1061    0.6137 S   0  0  0  0  0  1  0  0  0  0  0  0
   -1.0912   -0.1000    0.0493 C   0  0  0  0  0  0  0  0  0  0  0  0
   -0.0265    0.6260    0.8166 C   0  0  0  0  0  0  0  0  0  0  0  0
   -0.1887    2.1344    0.5768 C   0  0  0  0  0  0  0  0  0  0  0  0
    0.0371    0.2926    2.2972 C   0  0  0  0  0  0  0  0  0  0  0  0
   -1.0772    0.1236   -1.0201 H   0  0  0  0  0  0  0  0  0  0  0  0
   -1.1190    2.4917    1.0231 H   0  0  0  0  0  0  0  0  0  0  0  0
    0.6391    2.6775    1.0340 H   0  0  0  0  0  0  0  0  0  0  0  0
   -0.2063    2.3752   -0.4876 H   0  0  0  0  0  0  0  0  0  0  0  0
    0.8681    0.8247    2.7631 H   0  0  0  0  0  0  0  0  0  0  0  0
    0.1732   -0.7764    2.4600 H   0  0  0  0  0  0  0  0  0  0  0  0
   -0.8853    0.5864    2.8012 H   0  0  0  0  0  0  0  0  0  0  0  0
    2.0857   -0.6373   -2.9348 C   0  0  0  0  0  0  0  0  0  0  0  0
    2.0857   -0.6373   -1.6111 C   0  0  0  0  0  0  0  0  0  0  0  0
    2.0857    0.5849   -0.7506 C   0  0  0  0  0  0  0  0  0  0  0  0
    2.0857   -1.5601   -3.5013 H   0  0  0  0  0  0  0  0  0  0  0  0
    2.0857    0.2883   -3.5008 H   0  0  0  0  0  0  0  0  0  0  0  0
    2.0857   -1.5900   -1.0876 H   0  0  0  0  0  0  0  0  0  0  0  0
    1.0324    0.6054    0.0309 H   0  0  0  0  0  0  0  0  0  0  0  0
    2.0857    1.4953   -1.3512 H   0  0  0  0  0  0  0  0  0  0  0  0
    2.9634    0.6020   -0.0994 H   0  0  0  0  0  0  0  0  0  0  0  0
  1  2  1  0
  2  3  2  3
  2  6  1  0
  3  4  1  0
  3  5  1  0
  4  7  1  0
  4  8  1  0
  4  9  1  0
  5 10  1  0
  5 11  1  0
  5 12  1  0
 13 14  2  3
 13 16  1  0
 13 17  1  0
 14 15  1  0
 14 18  1  0
 15 19  1  0
 15 20  1  0
 15 21  1  0
M  RAD  1   1   2
M  END
>  <reaction>  (13) 
rxn_1023

>  <mol_properties>  (13) 
{"1": {"label": "*0", "atom_type": "CS"}, "2": {"label": "*1", "atom_type": "Cs"}, "13": {"label": "*4", "atom_type": "Cd"}, "14": {"label": "*3", "atom_type": "Cs"}, "18": {"label": "*2", "atom_type": "H0"}}

>  <type>  (13) 
unop_9

>  <geom_source>  (13) 
Heuristics

$$$$

     RDKit          3D

 21 19  0  0  0  0  0  0  0  0999 V2000
    0.0061   -0.8499    2.4228 S   0  0  0  0  0  1  0  0  0  0  0  0
   -0.6884   -0.6745    0.9840 C   0  0  0  0  0  0  0  0  0  0  0  0
   -0.7986    0.5699    0.1541 C   0  0  0  0  0  0  0  0  0  0  0  0
   -2.2840    0.8507   -0.1173 C   0  0  0  0  0  0  0  0  0  0  0  0
   -0.0883    1.7857    0.7240 C   0  0  0  0  0  0  0  0  0  0  0  0
   -1.1662   -1.5418    0.5221 H   0  0  0  0  0  0  0  0  0  0  0  0
   -2.7965    1.1121    0.8107 H   0  0  0  0  0  0  0  0  0  0  0  0
   -2.3866    1.6867   -0.8101 H   0  0  0  0  0  0  0  0  0  0  0  0
   -2.7865   -0.0148   -0.5526 H   0  0  0  0  0  0  0  0  0  0  0  0
   -0.1776    2.6263    0.0340 H   0  0  0  0  0  0  0  0  0  0  0  0
    0.9695    1.5863    0.8946 H   0  0  0  0  0  0  0  0  0  0  0  0
   -0.5255    2.0778    1.6803 H   0  0  0  0  0  0  0  0  0  0  0  0
    1.3136   -0.6935   -3.5973 C   0  0  0  0  0  0  0  0  0  0  0  0
    1.3136   -0.6935   -2.2736 C   0  0  0  0  0  0  0  0  0  0  0  0
    1.3136    0.5287   -1.4131 C   0  0  0  0  0  0  0  0  0  0  0  0
    1.3136   -1.6162   -4.1638 H   0  0  0  0  0  0  0  0  0  0  0  0
    1.3136    0.2321   -4.1633 H   0  0  0  0  0  0  0  0  0  0  0  0
    1.3136   -1.6461   -1.7501 H   0  0  0  0  0  0  0  0  0  0  0  0
    0.2603    0.5492   -0.6316 H   0  0  0  0  0  0  0  0  0  0  0  0
    1.3136    1.4391   -2.0137 H   0  0  0  0  0  0  0  0  0  0  0  0
    2.1913    0.5458   -0.7619 H   0  0  0  0  0  0  0  0  0  0  0  0
  1  2  1  0
  2  3  2  3
  2  6  1  0
  3  4  1  0
  3  5  1  0
  4  7  1  0
  4  8  1  0
  4  9  1  0
  5 10  1  0
  5 11  1  0
  5 12  1  0
 13 14  2  3
 13 16  1  0
 13 17  1  0
 14 15  1  0
 14 18  1  0
 15 19  1  0
 15 20  1  0
 15 21  1  0
M  RAD  1   1   2
M  END
>  <reaction>  (14) 
rxn_1023

>  <mol_properties>  (14) 
{"1": {"label": "*0", "atom_type": "CS"}, "2": {"label": "*1", "atom_type": "Cs"}, "13": {"label": "*4", "atom_type": "Cd"}, "14": {"label": "*3", "atom_type": "Cs"}, "18": {"label": "*2", "atom_type": "H0"}}

>  <type>  (14) 
unop_10

>  <geom_source>  (14) 
Heuristics

$$$$

     RDKit          3D

 21 19  0  0  0  0  0  0  0  0999 V2000
   -1.9332    1.9029    1.0296 S   0  0  0  0  0  1  0  0  0  0  0  0
   -0.5055    1.2066    0.7849 C   0  0  0  0  0  0  0  0  0  0  0  0
   -0.2081   -0.2484    0.5752 C   0  0  0  0  0  0  0  0  0  0  0  0
    0.7828   -0.7089    1.6545 C   0  0  0  0  0  0  0  0  0  0  0  0
   -1.4293   -1.1492    0.5077 C   0  0  0  0  0  0  0  0  0  0  0  0
    0.3900    1.8327    0.7779 H   0  0  0  0  0  0  0  0  0  0  0  0
    0.3119   -0.6800    2.6392 H   0  0  0  0  0  0  0  0  0  0  0  0
    1.1003   -1.7337    1.4588 H   0  0  0  0  0  0  0  0  0  0  0  0
    1.6725   -0.0773    1.6830 H   0  0  0  0  0  0  0  0  0  0  0  0
   -1.1233   -2.1765    0.3035 H   0  0  0  0  0  0  0  0  0  0  0  0
   -2.1184   -0.8294   -0.2739 H   0  0  0  0  0  0  0  0  0  0  0  0
   -1.9753   -1.1343    1.4526 H   0  0  0  0  0  0  0  0  0  0  0  0
    1.9041   -1.5118   -3.1762 C   0  0  0  0  0  0  0  0  0  0  0  0
    1.9041   -1.5118   -1.8524 C   0  0  0  0  0  0  0  0  0  0  0  0
    1.9041   -0.2896   -0.9919 C   0  0  0  0  0  0  0  0  0  0  0  0
    1.9041   -2.4345   -3.7427 H   0  0  0  0  0  0  0  0  0  0  0  0
    1.9041   -0.5862   -3.7422 H   0  0  0  0  0  0  0  0  0  0  0  0
    1.9041   -2.4644   -1.3289 H   0  0  0  0  0  0  0  0  0  0  0  0
    0.8509   -0.2690   -0.2105 H   0  0  0  0  0  0  0  0  0  0  0  0
    1.9041    0.6209   -1.5925 H   0  0  0  0  0  0  0  0  0  0  0  0
    2.7818   -0.2725   -0.3407 H   0  0  0  0  0  0  0  0  0  0  0  0
  1  2  1  0
  2  3  2  3
  2  6  1  0
  3  4  1  0
  3  5  1  0
  4  7  1  0
  4  8  1  0
  4  9  1  0
  5 10  1  0
  5 11  1  0
  5 12  1  0
 13 14  2  3
 13 16  1  0
 13 17  1  0
 14 15  1  0
 14 18  1  0
 15 19  1  0
 15 20  1  0
 15 21  1  0
M  RAD  1   1   2
M  END
>  <reaction>  (15) 
rxn_1023

>  <mol_properties>  (15) 
{"1": {"label": "*0", "atom_type": "CS"}, "2": {"label": "*1", "atom_type": "Cs"}, "13": {"label": "*4", "atom_type": "Cd"}, "14": {"label": "*3", "atom_type": "Cs"}, "18": {"label": "*2", "atom_type": "H0"}}

>  <type>  (15) 
unop_11

>  <geom_source>  (15) 
Heuristics

$$$$

     RDKit          3D

 21 19  0  0  0  0  0  0  0  0999 V2000
   -1.4649   -1.5978    1.2442 S   0  0  0  0  0  1  0  0  0  0  0  0
   -1.0171   -0.4148    0.2526 C   0  0  0  0  0  0  0  0  0  0  0  0
   -0.2638    0.8384    0.5864 C   0  0  0  0  0  0  0  0  0  0  0  0
   -1.1099    2.0487    0.1644 C   0  0  0  0  0  0  0  0  0  0  0  0
    0.1951    0.9453    2.0305 C   0  0  0  0  0  0  0  0  0  0  0  0
   -1.2881   -0.4838   -0.8037 H   0  0  0  0  0  0  0  0  0  0  0  0
   -2.0096    2.1157    0.7795 H   0  0  0  0  0  0  0  0  0  0  0  0
   -0.5389    2.9686    0.2948 H   0  0  0  0  0  0  0  0  0  0  0  0
   -1.4155    1.9839   -0.8814 H   0  0  0  0  0  0  0  0  0  0  0  0
    0.7752    1.8589    2.1700 H   0  0  0  0  0  0  0  0  0  0  0  0
    0.8122    0.0939    2.3172 H   0  0  0  0  0  0  0  0  0  0  0  0
   -0.6598    0.9738    2.7083 H   0  0  0  0  0  0  0  0  0  0  0  0
    1.8484   -0.4250   -3.1650 C   0  0  0  0  0  0  0  0  0  0  0  0
    1.8484   -0.4250   -1.8413 C   0  0  0  0  0  0  0  0  0  0  0  0
    1.8484    0.7972   -0.9808 C   0  0  0  0  0  0  0  0  0  0  0  0
    1.8484   -1.3477   -3.7315 H   0  0  0  0  0  0  0  0  0  0  0  0
    1.8484    0.5006   -3.7310 H   0  0  0  0  0  0  0  0  0  0  0  0
    1.8484   -1.3776   -1.3178 H   0  0  0  0  0  0  0  0  0  0  0  0
    0.7952    0.8177   -0.1993 H   0  0  0  0  0  0  0  0  0  0  0  0
    1.8484    1.7076   -1.5814 H   0  0  0  0  0  0  0  0  0  0  0  0
    2.7261    0.8143   -0.3296 H   0  0  0  0  0  0  0  0  0  0  0  0
  1  2  1  0
  2  3  2  3
  2  6  1  0
  3  4  1  0
  3  5  1  0
  4  7  1  0
  4  8  1  0
  4  9  1  0
  5 10  1  0
  5 11  1  0
  5 12  1  0
 13 14  2  3
 13 16  1  0
 13 17  1  0
 14 15  1  0
 14 18  1  0
 15 19  1  0
 15 20  1  0
 15 21  1  0
M  RAD  1   1   2
M  END
>  <reaction>  (16) 
rxn_1023

>  <mol_properties>  (16) 
{"1": {"label": "*0", "atom_type": "CS"}, "2": {"label": "*1", "atom_type": "Cs"}, "13": {"label": "*4", "atom_type": "Cd"}, "14": {"label": "*3", "atom_type": "Cs"}, "18": {"label": "*2", "atom_type": "H0"}}

>  <type>  (16) 
unop_12

>  <geom_source>  (16) 
Heuristics

$$$$

     RDKit          3D

 21 19  0  0  0  0  0  0  0  0999 V2000
   -2.4841    1.0583   -2.1558 S   0  0  0  0  0  0  0  0  0  0  0  0
   -1.0506    0.0725   -0.2360 C   0  0  0  0  0  0  0  0  0  0  0  0
   -1.8050   -1.2539   -0.0851 C   0  0  0  0  0  0  0  0  0  0  0  0
   -1.4609    1.0719    0.8522 C   0  0  0  0  0  0  0  0  0  0  0  0
    2.4763   -0.5179    0.5537 C   0  0  0  0  0  0  0  0  0  0  0  0
   -1.2075    0.6553   -1.6244 C   0  0  0  0  0  0  0  0  0  0  0  0
    1.4513   -0.6228   -0.5296 C   0  0  0  0  0  0  0  0  0  0  0  0
    2.8381    0.6706    1.0392 C   0  0  0  0  0  3  0  0  0  0  0  0
    0.2367   -0.1876   -0.0631 H   0  0  0  0  0  0  0  0  0  0  0  0
   -2.9024   -1.0985   -0.1628 H   0  0  0  0  0  0  0  0  0  0  0  0
   -1.5782   -1.7072    0.9030 H   0  0  0  0  0  0  0  0  0  0  0  0
   -1.4831   -1.9653   -0.8752 H   0  0  0  0  0  0  0  0  0  0  0  0
   -2.5489    1.2918    0.8006 H   0  0  0  0  0  0  0  0  0  0  0  0
   -0.8938    2.0192    0.7307 H   0  0  0  0  0  0  0  0  0  0  0  0
   -1.2288    0.6549    1.8550 H   0  0  0  0  0  0  0  0  0  0  0  0
    2.9222   -1.4215    0.9588 H   0  0  0  0  0  0  0  0  0  0  0  0
   -0.3238    0.7736   -2.2424 H   0  0  0  0  0  0  0  0  0  0  0  0
    2.4010    1.5874    0.6544 H   0  0  0  0  0  0  0  0  0  0  0  0
    3.5789    0.7316    1.8298 H   0  0  0  0  0  0  0  0  0  0  0  0
    1.8188   -0.1223   -1.4502 H   0  0  0  0  0  0  0  0  0  0  0  0
    1.2437   -1.6902   -0.7529 H   0  0  0  0  0  0  0  0  0  0  0  0
  1  6  2  0
  2  3  1  0
  2  4  1  0
  2  6  1  0
  2  9  1  0
  3 10  1  0
  3 11  1  0
  3 12  1  0
  4 13  1  0
  4 14  1  0
  4 15  1  0
  5  7  2  3
  5  8  1  0
  5 16  1  0
  6 17  1  0
  7 20  1  0
  7 21  1  0
  8 18  1  0
  8 19  1  0
M  RAD  1   8   2
M  END
>  <reaction>  (17) 
rxn_1023

>  <mol_properties>  (17) 
{"1": {"label": "*0", "atom_type": "CS"}, "2": {"label": "*1", "atom_type": "Cs"}, "13": {"label": "*4", "atom_type": "Cd"}, "14": {"label": "*3", "atom_type": "Cs"}, "18": {"label": "*2", "atom_type": "H0"}}

>  <type>  (17) 
unop_13

>  <geom_source>  (17) 
AutoTST

$$$$

     RDKit          3D

 21 19  0  0  0  0  0  0  0  0999 V2000
   -0.6315   -1.4877    1.9148 S   0  0  0  0  0  1  0  0  0  0  0  0
   -0.8892   -0.6301    0.5802 C   0  0  0  0  0  0  0  0  0  0  0  0
   -0.5659    0.8128    0.3293 C   0  0  0  0  0  0  0  0  0  0  0  0
   -1.8595    1.5484   -0.0507 C   0  0  0  0  0  0  0  0  0  0  0  0
    0.1701    1.5109    1.4600 C   0  0  0  0  0  0  0  0  0  0  0  0
   -1.3725   -1.1156   -0.2711 H   0  0  0  0  0  0  0  0  0  0  0  0
   -2.5422    1.5801    0.8009 H   0  0  0  0  0  0  0  0  0  0  0  0
   -1.6345    2.5740   -0.3452 H   0  0  0  0  0  0  0  0  0  0  0  0
   -2.3728    1.0612   -0.8816 H   0  0  0  0  0  0  0  0  0  0  0  0
    0.4079    2.5363    1.1721 H   0  0  0  0  0  0  0  0  0  0  0  0
    1.0973    0.9958    1.7106 H   0  0  0  0  0  0  0  0  0  0  0  0
   -0.4430    1.5404    2.3623 H   0  0  0  0  0  0  0  0  0  0  0  0
    1.5463   -0.4505   -3.4221 C   0  0  0  0  0  0  0  0  0  0  0  0
    1.5463   -0.4505   -2.0983 C   0  0  0  0  0  0  0  0  0  0  0  0
    1.5463    0.7716   -1.2378 C   0  0  0  0  0  0  0  0  0  0  0  0
    1.5463   -1.3733   -3.9886 H   0  0  0  0  0  0  0  0  0  0  0  0
    1.5463    0.4750   -3.9881 H   0  0  0  0  0  0  0  0  0  0  0  0
    1.5463   -1.4032   -1.5748 H   0  0  0  0  0  0  0  0  0  0  0  0
    0.4930    0.7922   -0.4564 H   0  0  0  0  0  0  0  0  0  0  0  0
    1.5463    1.6821   -1.8384 H   0  0  0  0  0  0  0  0  0  0  0  0
    2.4240    0.7887   -0.5866 H   0  0  0  0  0  0  0  0  0  0  0  0
  1  2  1  0
  2  3  2  3
  2  6  1  0
  3  4  1  0
  3  5  1  0
  4  7  1  0
  4  8  1  0
  4  9  1  0
  5 10  1  0
  5 11  1  0
  5 12  1  0
 13 14  2  3
 13 16  1  0
 13 17  1  0
 14 15  1  0
 14 18  1  0
 15 19  1  0
 15 20  1  0
 15 21  1  0
M  RAD  1   1   2
M  END
>  <reaction>  (18) 
rxn_1023

>  <mol_properties>  (18) 
{"1": {"label": "*0", "atom_type": "CS"}, "2": {"label": "*1", "atom_type": "Cs"}, "13": {"label": "*4", "atom_type": "Cd"}, "14": {"label": "*3", "atom_type": "Cs"}, "18": {"label": "*2", "atom_type": "H0"}}

>  <type>  (18) 
unop_14

>  <geom_source>  (18) 
gaussian_log

$$$$
