
     RDKit          3D

  9  8  0  0  0  0  0  0  0  0999 V2000
   -0.8818   -0.3578    0.1297 C   0  0  0  0  0  0  0  0  0  0  0  0
    0.6153   -0.3021   -0.1188 C   0  0  0  0  0  0  0  0  0  0  0  0
    1.5354   -1.7170    0.5545 S   0  0  0  0  0  0  0  0  0  0  0  0
   -1.1018   -0.3317    1.1984 H   0  0  0  0  0  0  0  0  0  0  0  0
   -1.3114   -1.2723   -0.2799 H   0  0  0  0  0  0  0  0  0  0  0  0
   -1.3767    0.4976   -0.3363 H   0  0  0  0  0  0  0  0  0  0  0  0
    1.0467    0.6194    0.2718 H   0  0  0  0  0  0  0  0  0  0  0  0
    0.8295   -0.3275   -1.1882 H   0  0  0  0  0  0  0  0  0  0  0  0
    1.2306   -1.5077    1.8423 H   0  0  0  0  0  0  0  0  0  0  0  0
  1  2  1  0
  1  4  1  0
  1  5  1  0
  1  6  1  0
  2  3  1  0
  2  7  1  0
  2  8  1  0
  3  9  1  0
M  END
>  <reaction>  (1) 
rxn_1876

>  <mol_properties>  (1) 
{"1": {"label": "donator", "atom_type": "Cs"}, "6": {"label": "d_hydrogen", "atom_type": "H0"}}

>  <type>  (1) 
r1h

$$$$

     RDKit          3D

  8  7  0  0  0  0  0  0  0  0999 V2000
   -2.2129    0.4855    0.7390 C   0  0  0  0  0  0  0  0  0  0  0  0
   -1.2226    0.0526    0.1974 C   0  0  0  0  0  0  0  0  0  0  0  0
   -0.1006   -0.4575   -0.4419 C   0  0  0  0  0  3  0  0  0  0  0  0
    1.1960   -0.1737   -0.0342 C   0  0  0  0  0  0  0  0  0  0  0  0
    2.3329    0.0603    0.3036 C   0  0  0  0  0  0  0  0  0  0  0  0
   -3.0803    0.8696    1.2198 H   0  0  0  0  0  0  0  0  0  0  0  0
   -0.2433   -1.1067   -1.2980 H   0  0  0  0  0  0  0  0  0  0  0  0
    3.3308    0.2700    0.6058 H   0  0  0  0  0  0  0  0  0  0  0  0
  1  2  3  0
  1  6  1  0
  2  3  1  0
  3  4  1  0
  3  7  1  0
  4  5  3  0
  5  8  1  0
M  RAD  1   3   2
M  END
>  <reaction>  (2) 
rxn_1876

>  <mol_properties>  (2) 
{"2": {"label": "acceptor", "atom_type": "Cs"}}

>  <type>  (2) 
r2

$$$$

     RDKit          3D

  9  8  0  0  0  0  0  0  0  0999 V2000
   -2.1022   -0.6873    0.3932 C   0  0  0  0  0  0  0  0  0  0  0  0
   -1.2072   -0.1086   -0.1482 C   0  0  0  0  0  0  0  0  0  0  0  0
   -0.1242    0.6105   -0.8193 C   0  0  0  0  0  0  0  0  0  0  0  0
    1.2067    0.1106   -0.4741 C   0  0  0  0  0  0  0  0  0  0  0  0
    2.3005   -0.2875   -0.2012 C   0  0  0  0  0  0  0  0  0  0  0  0
   -2.8942   -1.2059    0.8778 H   0  0  0  0  0  0  0  0  0  0  0  0
   -0.1862    1.6723   -0.5649 H   0  0  0  0  0  0  0  0  0  0  0  0
   -0.2641    0.5418   -1.9017 H   0  0  0  0  0  0  0  0  0  0  0  0
    3.2709   -0.6459    0.0455 H   0  0  0  0  0  0  0  0  0  0  0  0
  1  2  3  0
  1  6  1  0
  2  3  1  0
  3  4  1  0
  3  7  1  0
  3  8  1  0
  4  5  3  0
  5  9  1  0
M  END
>  <reaction>  (3) 
rxn_1876

>  <mol_properties>  (3) 
{"2": {"label": "acceptor", "atom_type": "Cs"}, "8": {"label": "a_hydrogen", "atom_type": "H0"}}

>  <type>  (3) 
r2h

$$$$

     RDKit          3D

 17 15  0  0  0  0  0  0  0  0999 V2000
    0.1483   -2.0412    2.5303 C   0  0  0  0  0  0  0  0  0  0  0  0
    0.5071   -1.6623    1.4501 C   0  0  0  0  0  0  0  0  0  0  0  0
    0.8621   -1.2023    0.1387 C   0  0  0  0  0  0  0  0  0  0  0  0
    1.7537   -0.0798    0.0606 C   0  0  0  0  0  0  0  0  0  0  0  0
    2.4462    0.8949   -0.0485 C   0  0  0  0  0  0  0  0  0  0  0  0
   -0.1526   -2.3753    3.4938 H   0  0  0  0  0  0  0  0  0  0  0  0
    1.1324   -2.0087   -0.5427 H   0  0  0  0  0  0  0  0  0  0  0  0
    3.0880    1.7394   -0.1244 H   0  0  0  0  0  0  0  0  0  0  0  0
   -0.8531    0.1870   -2.3671 C   0  0  0  0  0  0  0  0  0  0  0  0
   -1.3446   -0.1126   -0.9784 C   0  0  0  0  0  3  0  0  0  0  0  0
   -1.7423    1.2265    0.0890 S   0  0  0  0  0  0  0  0  0  0  0  0
    0.0408    0.8137   -2.3334 H   0  0  0  0  0  0  0  0  0  0  0  0
   -1.6126    0.7107   -2.9537 H   0  0  0  0  0  0  0  0  0  0  0  0
   -0.5980   -0.7383   -2.8872 H   0  0  0  0  0  0  0  0  0  0  0  0
   -0.2542   -0.7496   -0.3808 H   0  0  0  0  0  0  0  0  0  0  0  0
   -2.1251   -0.8678   -0.9084 H   0  0  0  0  0  0  0  0  0  0  0  0
   -0.6518    1.9628   -0.1725 H   0  0  0  0  0  0  0  0  0  0  0  0
  1  2  3  0
  1  6  1  0
  2  3  1  0
  3  4  1  0
  3  7  1  0
  3 15  1  0
  4  5  3  0
  5  8  1  0
  9 10  1  0
  9 12  1  0
  9 13  1  0
  9 14  1  0
 10 11  1  0
 10 16  1  0
 11 17  1  0
M  RAD  1  10   2
M  END
>  <reaction>  (4) 
rxn_1876

>  <mol_properties>  (4) 
{"1": {"label": "*0", "atom_type": "Ct"}, "2": {"label": "*1", "atom_type": "Cs"}, "9": {"label": "*3", "atom_type": "Cs"}, "10": {"label": "*4", "atom_type": "S2s"}, "14": {"label": "*2", "atom_type": "H0"}}

>  <type>  (4) 
ts

$$$$

     RDKit          3D

 17 15  0  0  0  0  0  0  0  0999 V2000
    2.0680    0.5963    1.8360 C   0  0  0  0  0  0  0  0  0  0  0  0
    1.3890   -0.1257    1.1674 C   0  0  0  0  0  0  0  0  0  0  0  0
    0.5581   -1.0092    0.3493 C   0  0  0  0  0  3  0  0  0  0  0  0
    1.2544   -2.2180   -0.0916 C   0  0  0  0  0  0  0  0  0  0  0  0
    1.8234   -3.2058   -0.4519 C   0  0  0  0  0  0  0  0  0  0  0  0
    2.6719    1.2386    2.4307 H   0  0  0  0  0  0  0  0  0  0  0  0
   -0.3313   -1.2943    0.9181 H   0  0  0  0  0  0  0  0  0  0  0  0
    2.3295   -4.0845   -0.7724 H   0  0  0  0  0  0  0  0  0  0  0  0
   -1.4692    0.3518   -2.1193 C   0  0  0  0  0  0  0  0  0  0  0  0
   -1.4692    0.3518   -0.6006 C   0  0  0  0  0  0  0  0  0  0  0  0
   -1.4692    2.0092    0.1444 S   0  0  0  0  0  0  0  0  0  0  0  0
   -0.5625    0.8172   -2.5100 H   0  0  0  0  0  0  0  0  0  0  0  0
   -2.3252    0.9030   -2.5094 H   0  0  0  0  0  0  0  0  0  0  0  0
   -1.5123   -0.6716   -2.4996 H   0  0  0  0  0  0  0  0  0  0  0  0
   -0.4573   -0.3275   -0.1265 H   0  0  0  0  0  0  0  0  0  0  0  0
   -2.3768   -0.1152   -0.2155 H   0  0  0  0  0  0  0  0  0  0  0  0
   -0.2944    2.4108   -0.3592 H   0  0  0  0  0  0  0  0  0  0  0  0
  1  2  3  0
  1  6  1  0
  2  3  1  0
  3  4  1  0
  3  7  1  0
  4  5  3  0
  5  8  1  0
  9 10  1  0
  9 12  1  0
  9 13  1  0
  9 14  1  0
 10 11  1  0
 10 15  1  0
 10 16  1  0
 11 17  1  0
M  RAD  1   3   2
M  END
>  <reaction>  (5) 
rxn_1876

>  <mol_properties>  (5) 
{"1": {"label": "*0", "atom_type": "Ct"}, "2": {"label": "*1", "atom_type": "Cs"}, "9": {"label": "*3", "atom_type": "Cs"}, "10": {"label": "*4", "atom_type": "S2s"}, "14": {"label": "*2", "atom_type": "H0"}}

>  <type>  (5) 
unop_1

>  <geom_source>  (5) 
Heuristics

$$$$

     RDKit          3D

 17 15  0  0  0  0  0  0  0  0999 V2000
    2.7453   -0.6012   -1.1533 C   0  0  0  0  0  0  0  0  0  0  0  0
    1.8325   -0.6683   -0.3843 C   0  0  0  0  0  0  0  0  0  0  0  0
    0.7153   -0.7505    0.5567 C   0  0  0  0  0  3  0  0  0  0  0  0
    0.5562   -2.0758    1.1556 C   0  0  0  0  0  0  0  0  0  0  0  0
    0.4262   -3.1588    1.6450 C   0  0  0  0  0  0  0  0  0  0  0  0
    3.5574   -0.5414   -1.8374 H   0  0  0  0  0  0  0  0  0  0  0  0
    0.8595   -0.0125    1.3508 H   0  0  0  0  0  0  0  0  0  0  0  0
    0.3105   -4.1222    2.0803 H   0  0  0  0  0  0  0  0  0  0  0  0
   -1.3120    0.6105   -1.9118 C   0  0  0  0  0  0  0  0  0  0  0  0
   -1.3120    0.6105   -0.3932 C   0  0  0  0  0  0  0  0  0  0  0  0
   -1.3120    2.2679    0.3518 S   0  0  0  0  0  0  0  0  0  0  0  0
   -0.4053    1.0760   -2.3026 H   0  0  0  0  0  0  0  0  0  0  0  0
   -2.1679    1.1617   -2.3019 H   0  0  0  0  0  0  0  0  0  0  0  0
   -1.3551   -0.4128   -2.2921 H   0  0  0  0  0  0  0  0  0  0  0  0
   -0.3001   -0.0688    0.0810 H   0  0  0  0  0  0  0  0  0  0  0  0
   -2.2196    0.1435   -0.0080 H   0  0  0  0  0  0  0  0  0  0  0  0
   -0.1372    2.6696   -0.1517 H   0  0  0  0  0  0  0  0  0  0  0  0
  1  2  3  0
  1  6  1  0
  2  3  1  0
  3  4  1  0
  3  7  1  0
  4  5  3  0
  5  8  1  0
  9 10  1  0
  9 12  1  0
  9 13  1  0
  9 14  1  0
 10 11  1  0
 10 15  1  0
 10 16  1  0
 11 17  1  0
M  RAD  1   3   2
M  END
>  <reaction>  (6) 
rxn_1876

>  <mol_properties>  (6) 
{"1": {"label": "*0", "atom_type": "Ct"}, "2": {"label": "*1", "atom_type": "Cs"}, "9": {"label": "*3", "atom_type": "Cs"}, "10": {"label": "*4", "atom_type": "S2s"}, "14": {"label": "*2", "atom_type": "H0"}}

>  <type>  (6) 
unop_2

>  <geom_source>  (6) 
Heuristics

$$$$

     RDKit          3D

 17 15  0  0  0  0  0  0  0  0999 V2000
    1.2834   -0.0625    2.6455 C   0  0  0  0  0  0  0  0  0  0  0  0
    0.9592   -0.5249    1.5917 C   0  0  0  0  0  0  0  0  0  0  0  0
    0.5625   -1.0908    0.3022 C   0  0  0  0  0  3  0  0  0  0  0  0
    1.6746   -1.6884   -0.4370 C   0  0  0  0  0  0  0  0  0  0  0  0
    2.5833   -2.1767   -1.0411 C   0  0  0  0  0  0  0  0  0  0  0  0
    1.5718    0.3488    3.5828 H   0  0  0  0  0  0  0  0  0  0  0  0
   -0.2092   -1.8484    0.4646 H   0  0  0  0  0  0  0  0  0  0  0  0
    3.3918   -2.6111   -1.5785 H   0  0  0  0  0  0  0  0  0  0  0  0
   -1.4648    0.2703   -2.1663 C   0  0  0  0  0  0  0  0  0  0  0  0
   -1.4648    0.2703   -0.6477 C   0  0  0  0  0  0  0  0  0  0  0  0
   -1.4648    1.9276    0.0973 S   0  0  0  0  0  0  0  0  0  0  0  0
   -0.5582    0.7357   -2.5571 H   0  0  0  0  0  0  0  0  0  0  0  0
   -2.3208    0.8215   -2.5564 H   0  0  0  0  0  0  0  0  0  0  0  0
   -1.5079   -0.7531   -2.5466 H   0  0  0  0  0  0  0  0  0  0  0  0
   -0.4529   -0.4091   -0.1735 H   0  0  0  0  0  0  0  0  0  0  0  0
   -2.3724   -0.1968   -0.2625 H   0  0  0  0  0  0  0  0  0  0  0  0
   -0.2900    2.3293   -0.4062 H   0  0  0  0  0  0  0  0  0  0  0  0
  1  2  3  0
  1  6  1  0
  2  3  1  0
  3  4  1  0
  3  7  1  0
  4  5  3  0
  5  8  1  0
  9 10  1  0
  9 12  1  0
  9 13  1  0
  9 14  1  0
 10 11  1  0
 10 15  1  0
 10 16  1  0
 11 17  1  0
M  RAD  1   3   2
M  END
>  <reaction>  (7) 
rxn_1876

>  <mol_properties>  (7) 
{"1": {"label": "*0", "atom_type": "Ct"}, "2": {"label": "*1", "atom_type": "Cs"}, "9": {"label": "*3", "atom_type": "Cs"}, "10": {"label": "*4", "atom_type": "S2s"}, "14": {"label": "*2", "atom_type": "H0"}}

>  <type>  (7) 
unop_3

>  <geom_source>  (7) 
Heuristics

$$$$

     RDKit          3D

 17 15  0  0  0  0  0  0  0  0999 V2000
    1.0524   -3.2845   -0.6246 C   0  0  0  0  0  0  0  0  0  0  0  0
    1.1237   -2.1545   -0.2408 C   0  0  0  0  0  0  0  0  0  0  0  0
    1.2109   -0.7717    0.2289 C   0  0  0  0  0  3  0  0  0  0  0  0
    0.5272   -0.5463    1.5026 C   0  0  0  0  0  0  0  0  0  0  0  0
   -0.0315   -0.3622    2.5433 C   0  0  0  0  0  0  0  0  0  0  0  0
    0.9890   -4.2897   -0.9660 H   0  0  0  0  0  0  0  0  0  0  0  0
    2.2633   -0.4931    0.3320 H   0  0  0  0  0  0  0  0  0  0  0  0
   -0.5284   -0.1983    3.4692 H   0  0  0  0  0  0  0  0  0  0  0  0
   -0.8164    0.5893   -2.2396 C   0  0  0  0  0  0  0  0  0  0  0  0
   -0.8164    0.5893   -0.7210 C   0  0  0  0  0  0  0  0  0  0  0  0
   -0.8164    2.2467    0.0240 S   0  0  0  0  0  0  0  0  0  0  0  0
    0.0902    1.0547   -2.6304 H   0  0  0  0  0  0  0  0  0  0  0  0
   -1.6724    1.1405   -2.6297 H   0  0  0  0  0  0  0  0  0  0  0  0
   -0.8595   -0.4341   -2.6199 H   0  0  0  0  0  0  0  0  0  0  0  0
    0.1955   -0.0900   -0.2468 H   0  0  0  0  0  0  0  0  0  0  0  0
   -1.7240    0.1223   -0.3358 H   0  0  0  0  0  0  0  0  0  0  0  0
    0.3584    2.6484   -0.4795 H   0  0  0  0  0  0  0  0  0  0  0  0
  1  2  3  0
  1  6  1  0
  2  3  1  0
  3  4  1  0
  3  7  1  0
  4  5  3  0
  5  8  1  0
  9 10  1  0
  9 12  1  0
  9 13  1  0
  9 14  1  0
 10 11  1  0
 10 15  1  0
 10 16  1  0
 11 17  1  0
M  RAD  1   3   2
M  END
>  <reaction>  (8) 
rxn_1876

>  <mol_properties>  (8) 
{"1": {"label": "*0", "atom_type": "Ct"}, "2": {"label": "*1", "atom_type": "Cs"}, "9": {"label": "*3", "atom_type": "Cs"}, "10": {"label": "*4", "atom_type": "S2s"}, "14": {"label": "*2", "atom_type": "H0"}}

>  <type>  (8) 
unop_4

>  <geom_source>  (8) 
Heuristics

$$$$

     RDKit          3D

 17 15  0  0  0  0  0  0  0  0999 V2000
    0.5675   -1.2091    2.8593 C   0  0  0  0  0  0  0  0  0  0  0  0
    0.6036   -1.2333    1.6646 C   0  0  0  0  0  0  0  0  0  0  0  0
    0.6477   -1.2629    0.2025 C   0  0  0  0  0  3  0  0  0  0  0  0
    1.8899   -0.7250   -0.3524 C   0  0  0  0  0  0  0  0  0  0  0  0
    2.9050   -0.2854   -0.8059 C   0  0  0  0  0  0  0  0  0  0  0  0
    0.5355   -1.1875    3.9221 H   0  0  0  0  0  0  0  0  0  0  0  0
    0.5179   -2.2933   -0.1399 H   0  0  0  0  0  0  0  0  0  0  0  0
    3.8079    0.1056   -1.2093 H   0  0  0  0  0  0  0  0  0  0  0  0
   -1.3796    0.0981   -2.2660 C   0  0  0  0  0  0  0  0  0  0  0  0
   -1.3796    0.0981   -0.7474 C   0  0  0  0  0  0  0  0  0  0  0  0
   -1.3796    1.7555   -0.0024 S   0  0  0  0  0  0  0  0  0  0  0  0
   -0.4730    0.5636   -2.6568 H   0  0  0  0  0  0  0  0  0  0  0  0
   -2.2356    0.6493   -2.6561 H   0  0  0  0  0  0  0  0  0  0  0  0
   -1.4227   -0.9252   -2.6463 H   0  0  0  0  0  0  0  0  0  0  0  0
   -0.3677   -0.5812   -0.2732 H   0  0  0  0  0  0  0  0  0  0  0  0
   -2.2872   -0.3689   -0.3622 H   0  0  0  0  0  0  0  0  0  0  0  0
   -0.2048    2.1572   -0.5059 H   0  0  0  0  0  0  0  0  0  0  0  0
  1  2  3  0
  1  6  1  0
  2  3  1  0
  3  4  1  0
  3  7  1  0
  4  5  3  0
  5  8  1  0
  9 10  1  0
  9 12  1  0
  9 13  1  0
  9 14  1  0
 10 11  1  0
 10 15  1  0
 10 16  1  0
 11 17  1  0
M  RAD  1   3   2
M  END
>  <reaction>  (9) 
rxn_1876

>  <mol_properties>  (9) 
{"1": {"label": "*0", "atom_type": "Ct"}, "2": {"label": "*1", "atom_type": "Cs"}, "9": {"label": "*3", "atom_type": "Cs"}, "10": {"label": "*4", "atom_type": "S2s"}, "14": {"label": "*2", "atom_type": "H0"}}

>  <type>  (9) 
unop_5

>  <geom_source>  (9) 
Heuristics

$$$$

     RDKit          3D

 17 15  0  0  0  0  0  0  0  0999 V2000
    0.4920   -3.4886    0.4055 C   0  0  0  0  0  0  0  0  0  0  0  0
    0.8176   -2.3471    0.2632 C   0  0  0  0  0  0  0  0  0  0  0  0
    1.2160   -0.9502    0.0889 C   0  0  0  0  0  3  0  0  0  0  0  0
    0.8251   -0.0907    1.2064 C   0  0  0  0  0  0  0  0  0  0  0  0
    0.5056    0.6117    2.1196 C   0  0  0  0  0  0  0  0  0  0  0  0
    0.2024   -4.5040    0.5322 H   0  0  0  0  0  0  0  0  0  0  0  0
    2.3006   -0.8996   -0.0408 H   0  0  0  0  0  0  0  0  0  0  0  0
    0.2214    1.2365    2.9319 H   0  0  0  0  0  0  0  0  0  0  0  0
   -0.8113    0.4108   -2.3796 C   0  0  0  0  0  0  0  0  0  0  0  0
   -0.8113    0.4108   -0.8610 C   0  0  0  0  0  0  0  0  0  0  0  0
   -0.8113    2.0682   -0.1160 S   0  0  0  0  0  0  0  0  0  0  0  0
    0.0953    0.8762   -2.7704 H   0  0  0  0  0  0  0  0  0  0  0  0
   -1.6673    0.9620   -2.7697 H   0  0  0  0  0  0  0  0  0  0  0  0
   -0.8544   -0.6126   -2.7599 H   0  0  0  0  0  0  0  0  0  0  0  0
    0.2006   -0.2685   -0.3868 H   0  0  0  0  0  0  0  0  0  0  0  0
   -1.7189   -0.0563   -0.4758 H   0  0  0  0  0  0  0  0  0  0  0  0
    0.3635    2.4698   -0.6195 H   0  0  0  0  0  0  0  0  0  0  0  0
  1  2  3  0
  1  6  1  0
  2  3  1  0
  3  4  1  0
  3  7  1  0
  4  5  3  0
  5  8  1  0
  9 10  1  0
  9 12  1  0
  9 13  1  0
  9 14  1  0
 10 11  1  0
 10 15  1  0
 10 16  1  0
 11 17  1  0
M  RAD  1   3   2
M  END
>  <reaction>  (10) 
rxn_1876

>  <mol_properties>  (10) 
{"1": {"label": "*0", "atom_type": "Ct"}, "2": {"label": "*1", "atom_type": "Cs"}, "9": {"label": "*3", "atom_type": "Cs"}, "10": {"label": "*4", "atom_type": "S2s"}, "14": {"label": "*2", "atom_type": "H0"}}

>  <type>  (10) 
unop_6

>  <geom_source>  (10) 
Heuristics

$$$$

     RDKit          3D

 17 15  0  0  0  0  0  0  0  0999 V2000
    0.1979   -3.1582    1.5058 C   0  0  0  0  0  0  0  0  0  0  0  0
    0.6091   -2.2564    0.8373 C   0  0  0  0  0  0  0  0  0  0  0  0
    1.1123   -1.1528    0.0192 C   0  0  0  0  0  3  0  0  0  0  0  0
    1.1852    0.1184    0.7395 C   0  0  0  0  0  0  0  0  0  0  0  0
    1.2448    1.1572    1.3282 C   0  0  0  0  0  0  0  0  0  0  0  0
   -0.1678   -3.9604    2.1005 H   0  0  0  0  0  0  0  0  0  0  0  0
    2.1061   -1.4094   -0.3581 H   0  0  0  0  0  0  0  0  0  0  0  0
    1.2978    2.0814    1.8519 H   0  0  0  0  0  0  0  0  0  0  0  0
   -0.9150    0.2082   -2.4494 C   0  0  0  0  0  0  0  0  0  0  0  0
   -0.9150    0.2082   -0.9308 C   0  0  0  0  0  0  0  0  0  0  0  0
   -0.9150    1.8656   -0.1858 S   0  0  0  0  0  0  0  0  0  0  0  0
   -0.0084    0.6736   -2.8402 H   0  0  0  0  0  0  0  0  0  0  0  0
   -1.7710    0.7594   -2.8395 H   0  0  0  0  0  0  0  0  0  0  0  0
   -0.9581   -0.8152   -2.8297 H   0  0  0  0  0  0  0  0  0  0  0  0
    0.0969   -0.4711   -0.4566 H   0  0  0  0  0  0  0  0  0  0  0  0
   -1.8226   -0.2588   -0.5456 H   0  0  0  0  0  0  0  0  0  0  0  0
    0.2598    2.2672   -0.6893 H   0  0  0  0  0  0  0  0  0  0  0  0
  1  2  3  0
  1  6  1  0
  2  3  1  0
  3  4  1  0
  3  7  1  0
  4  5  3  0
  5  8  1  0
  9 10  1  0
  9 12  1  0
  9 13  1  0
  9 14  1  0
 10 11  1  0
 10 15  1  0
 10 16  1  0
 11 17  1  0
M  RAD  1   3   2
M  END
>  <reaction>  (11) 
rxn_1876

>  <mol_properties>  (11) 
{"1": {"label": "*0", "atom_type": "Ct"}, "2": {"label": "*1", "atom_type": "Cs"}, "9": {"label": "*3", "atom_type": "Cs"}, "10": {"label": "*4", "atom_type": "S2s"}, "14": {"label": "*2", "atom_type": "H0"}}

>  <type>  (11) 
unop_7

>  <geom_source>  (11) 
Heuristics

$$$$

     RDKit          3D

 17 15  0  0  0  0  0  0  0  0999 V2000
    2.6353    0.6739    0.7360 C   0  0  0  0  0  0  0  0  0  0  0  0
    1.7021   -0.0596    0.5936 C   0  0  0  0  0  0  0  0  0  0  0  0
    0.5600   -0.9573    0.4194 C   0  0  0  0  0  3  0  0  0  0  0  0
    0.9336   -2.3710    0.3744 C   0  0  0  0  0  0  0  0  0  0  0  0
    1.2389   -3.5263    0.3376 C   0  0  0  0  0  0  0  0  0  0  0  0
    3.4654    1.3264    0.8627 H   0  0  0  0  0  0  0  0  0  0  0  0
   -0.1492   -0.7990    1.2367 H   0  0  0  0  0  0  0  0  0  0  0  0
    1.5105   -4.5540    0.3049 H   0  0  0  0  0  0  0  0  0  0  0  0
   -1.4673    0.4038   -2.0491 C   0  0  0  0  0  0  0  0  0  0  0  0
   -1.4673    0.4038   -0.5305 C   0  0  0  0  0  0  0  0  0  0  0  0
   -1.4673    2.0611    0.2145 S   0  0  0  0  0  0  0  0  0  0  0  0
   -0.5607    0.8692   -2.4399 H   0  0  0  0  0  0  0  0  0  0  0  0
   -2.3233    0.9550   -2.4392 H   0  0  0  0  0  0  0  0  0  0  0  0
   -1.5104   -0.6196   -2.4294 H   0  0  0  0  0  0  0  0  0  0  0  0
   -0.4554   -0.2756   -0.0563 H   0  0  0  0  0  0  0  0  0  0  0  0
   -2.3749   -0.0633   -0.1453 H   0  0  0  0  0  0  0  0  0  0  0  0
   -0.2925    2.4628   -0.2890 H   0  0  0  0  0  0  0  0  0  0  0  0
  1  2  3  0
  1  6  1  0
  2  3  1  0
  3  4  1  0
  3  7  1  0
  4  5  3  0
  5  8  1  0
  9 10  1  0
  9 12  1  0
  9 13  1  0
  9 14  1  0
 10 11  1  0
 10 15  1  0
 10 16  1  0
 11 17  1  0
M  RAD  1   3   2
M  END
>  <reaction>  (12) 
rxn_1876

>  <mol_properties>  (12) 
{"1": {"label": "*0", "atom_type": "Ct"}, "2": {"label": "*1", "atom_type": "Cs"}, "9": {"label": "*3", "atom_type": "Cs"}, "10": {"label": "*4", "atom_type": "S2s"}, "14": {"label": "*2", "atom_type": "H0"}}

>  <type>  (12) 
unop_8

>  <geom_source>  (12) 
Heuristics

$$$$

     RDKit          3D

 17 15  0  0  0  0  0  0  0  0999 V2000
    1.7289   -2.5969   -1.3174 C   0  0  0  0  0  0  0  0  0  0  0  0
    1.4454   -1.7265   -0.5484 C   0  0  0  0  0  0  0  0  0  0  0  0
    1.0984   -0.6614    0.3927 C   0  0  0  0  0  3  0  0  0  0  0  0
    0.3710   -1.1392    1.5687 C   0  0  0  0  0  0  0  0  0  0  0  0
   -0.2234   -1.5296    2.5297 C   0  0  0  0  0  0  0  0  0  0  0  0
    1.9811   -3.3711   -2.0015 H   0  0  0  0  0  0  0  0  0  0  0  0
    2.0127   -0.1564    0.7165 H   0  0  0  0  0  0  0  0  0  0  0  0
   -0.7521   -1.8768    3.3845 H   0  0  0  0  0  0  0  0  0  0  0  0
   -0.9289    0.6996   -2.0759 C   0  0  0  0  0  0  0  0  0  0  0  0
   -0.9289    0.6996   -0.5573 C   0  0  0  0  0  0  0  0  0  0  0  0
   -0.9289    2.3569    0.1877 S   0  0  0  0  0  0  0  0  0  0  0  0
   -0.0222    1.1650   -2.4667 H   0  0  0  0  0  0  0  0  0  0  0  0
   -1.7848    1.2508   -2.4660 H   0  0  0  0  0  0  0  0  0  0  0  0
   -0.9719   -0.3238   -2.4562 H   0  0  0  0  0  0  0  0  0  0  0  0
    0.0830    0.0202   -0.0831 H   0  0  0  0  0  0  0  0  0  0  0  0
   -1.8365    0.2325   -0.1721 H   0  0  0  0  0  0  0  0  0  0  0  0
    0.2459    2.7586   -0.3158 H   0  0  0  0  0  0  0  0  0  0  0  0
  1  2  3  0
  1  6  1  0
  2  3  1  0
  3  4  1  0
  3  7  1  0
  4  5  3  0
  5  8  1  0
  9 10  1  0
  9 12  1  0
  9 13  1  0
  9 14  1  0
 10 11  1  0
 10 15  1  0
 10 16  1  0
 11 17  1  0
M  RAD  1   3   2
M  END
>  <reaction>  (13) 
rxn_1876

>  <mol_properties>  (13) 
{"1": {"label": "*0", "atom_type": "Ct"}, "2": {"label": "*1", "atom_type": "Cs"}, "9": {"label": "*3", "atom_type": "Cs"}, "10": {"label": "*4", "atom_type": "S2s"}, "14": {"label": "*2", "atom_type": "H0"}}

>  <type>  (13) 
unop_9

>  <geom_source>  (13) 
Heuristics

$$$$

     RDKit          3D

 17 15  0  0  0  0  0  0  0  0999 V2000
    2.8651    0.2269   -0.3482 C   0  0  0  0  0  0  0  0  0  0  0  0
    1.8463   -0.2670    0.0356 C   0  0  0  0  0  0  0  0  0  0  0  0
    0.5995   -0.8713    0.5053 C   0  0  0  0  0  3  0  0  0  0  0  0
    0.7225   -2.2976    0.8068 C   0  0  0  0  0  0  0  0  0  0  0  0
    0.8230   -3.4631    1.0533 C   0  0  0  0  0  0  0  0  0  0  0  0
    3.7715    0.6661   -0.6896 H   0  0  0  0  0  0  0  0  0  0  0  0
    0.2591   -0.3430    1.4002 H   0  0  0  0  0  0  0  0  0  0  0  0
    0.9124   -4.4999    1.2725 H   0  0  0  0  0  0  0  0  0  0  0  0
   -1.4278    0.4897   -1.9633 C   0  0  0  0  0  0  0  0  0  0  0  0
   -1.4278    0.4897   -0.4446 C   0  0  0  0  0  0  0  0  0  0  0  0
   -1.4278    2.1471    0.3004 S   0  0  0  0  0  0  0  0  0  0  0  0
   -0.5212    0.9552   -2.3540 H   0  0  0  0  0  0  0  0  0  0  0  0
   -2.2838    1.0409   -2.3534 H   0  0  0  0  0  0  0  0  0  0  0  0
   -1.4709   -0.5336   -2.3436 H   0  0  0  0  0  0  0  0  0  0  0  0
   -0.4159   -0.1896    0.0295 H   0  0  0  0  0  0  0  0  0  0  0  0
   -2.3355    0.0227   -0.0595 H   0  0  0  0  0  0  0  0  0  0  0  0
   -0.2530    2.5488   -0.2032 H   0  0  0  0  0  0  0  0  0  0  0  0
  1  2  3  0
  1  6  1  0
  2  3  1  0
  3  4  1  0
  3  7  1  0
  4  5  3  0
  5  8  1  0
  9 10  1  0
  9 12  1  0
  9 13  1  0
  9 14  1  0
 10 11  1  0
 10 15  1  0
 10 16  1  0
 11 17  1  0
M  RAD  1   3   2
M  END
>  <reaction>  (14) 
rxn_1876

>  <mol_properties>  (14) 
{"1": {"label": "*0", "atom_type": "Ct"}, "2": {"label": "*1", "atom_type": "Cs"}, "9": {"label": "*3", "atom_type": "Cs"}, "10": {"label": "*4", "atom_type": "S2s"}, "14": {"label": "*2", "atom_type": "H0"}}

>  <type>  (14) 
unop_10

>  <geom_source>  (14) 
Heuristics

$$$$

     RDKit          3D

 17 15  0  0  0  0  0  0  0  0999 V2000
    0.2206   -2.3622    2.4013 C   0  0  0  0  0  0  0  0  0  0  0  0
    0.5258   -1.8871    1.3476 C   0  0  0  0  0  0  0  0  0  0  0  0
    0.8993   -1.3057    0.0581 C   0  0  0  0  0  3  0  0  0  0  0  0
    1.5845   -0.0187    0.1776 C   0  0  0  0  0  0  0  0  0  0  0  0
    2.1445    1.0331    0.2752 C   0  0  0  0  0  0  0  0  0  0  0  0
   -0.0509   -2.7849    3.3387 H   0  0  0  0  0  0  0  0  0  0  0  0
    1.5436   -2.0072   -0.4791 H   0  0  0  0  0  0  0  0  0  0  0  0
    2.6426    1.9687    0.3620 H   0  0  0  0  0  0  0  0  0  0  0  0
   -1.1280    0.0553   -2.4104 C   0  0  0  0  0  0  0  0  0  0  0  0
   -1.1280    0.0553   -0.8918 C   0  0  0  0  0  0  0  0  0  0  0  0
   -1.1280    1.7127   -0.1468 S   0  0  0  0  0  0  0  0  0  0  0  0
   -0.2214    0.5207   -2.8012 H   0  0  0  0  0  0  0  0  0  0  0  0
   -1.9840    0.6065   -2.8005 H   0  0  0  0  0  0  0  0  0  0  0  0
   -1.1711   -0.9680   -2.7907 H   0  0  0  0  0  0  0  0  0  0  0  0
   -0.1161   -0.6240   -0.4176 H   0  0  0  0  0  0  0  0  0  0  0  0
   -2.0356   -0.4117   -0.5066 H   0  0  0  0  0  0  0  0  0  0  0  0
    0.0468    2.1144   -0.6503 H   0  0  0  0  0  0  0  0  0  0  0  0
  1  2  3  0
  1  6  1  0
  2  3  1  0
  3  4  1  0
  3  7  1  0
  4  5  3  0
  5  8  1  0
  9 10  1  0
  9 12  1  0
  9 13  1  0
  9 14  1  0
 10 11  1  0
 10 15  1  0
 10 16  1  0
 11 17  1  0
M  RAD  1   3   2
M  END
>  <reaction>  (15) 
rxn_1876

>  <mol_properties>  (15) 
{"1": {"label": "*0", "atom_type": "Ct"}, "2": {"label": "*1", "atom_type": "Cs"}, "9": {"label": "*3", "atom_type": "Cs"}, "10": {"label": "*4", "atom_type": "S2s"}, "14": {"label": "*2", "atom_type": "H0"}}

>  <type>  (15) 
unop_11

>  <geom_source>  (15) 
Heuristics

$$$$

     RDKit          3D

 17 15  0  0  0  0  0  0  0  0999 V2000
    2.3376   -1.6173   -1.5034 C   0  0  0  0  0  0  0  0  0  0  0  0
    1.6939   -1.1852   -0.5934 C   0  0  0  0  0  0  0  0  0  0  0  0
    0.9061   -0.6563    0.5202 C   0  0  0  0  0  3  0  0  0  0  0  0
    0.4076   -1.6935    1.4236 C   0  0  0  0  0  0  0  0  0  0  0  0
    0.0002   -2.5410    2.1618 C   0  0  0  0  0  0  0  0  0  0  0  0
    2.9102   -2.0018   -2.3129 H   0  0  0  0  0  0  0  0  0  0  0  0
    1.5167    0.0513    1.0879 H   0  0  0  0  0  0  0  0  0  0  0  0
   -0.3622   -3.2949    2.8185 H   0  0  0  0  0  0  0  0  0  0  0  0
   -1.1212    0.7047   -1.9484 C   0  0  0  0  0  0  0  0  0  0  0  0
   -1.1212    0.7047   -0.4297 C   0  0  0  0  0  0  0  0  0  0  0  0
   -1.1212    2.3621    0.3152 S   0  0  0  0  0  0  0  0  0  0  0  0
   -0.2146    1.1701   -2.3392 H   0  0  0  0  0  0  0  0  0  0  0  0
   -1.9772    1.2559   -2.3385 H   0  0  0  0  0  0  0  0  0  0  0  0
   -1.1643   -0.3187   -2.3287 H   0  0  0  0  0  0  0  0  0  0  0  0
   -0.1093    0.0254    0.0444 H   0  0  0  0  0  0  0  0  0  0  0  0
   -2.0288    0.2376   -0.0446 H   0  0  0  0  0  0  0  0  0  0  0  0
    0.0536    2.7637   -0.1883 H   0  0  0  0  0  0  0  0  0  0  0  0
  1  2  3  0
  1  6  1  0
  2  3  1  0
  3  4  1  0
  3  7  1  0
  4  5  3  0
  5  8  1  0
  9 10  1  0
  9 12  1  0
  9 13  1  0
  9 14  1  0
 10 11  1  0
 10 15  1  0
 10 16  1  0
 11 17  1  0
M  RAD  1   3   2
M  END
>  <reaction>  (16) 
rxn_1876

>  <mol_properties>  (16) 
{"1": {"label": "*0", "atom_type": "Ct"}, "2": {"label": "*1", "atom_type": "Cs"}, "9": {"label": "*3", "atom_type": "Cs"}, "10": {"label": "*4", "atom_type": "S2s"}, "14": {"label": "*2", "atom_type": "H0"}}

>  <type>  (16) 
unop_12

>  <geom_source>  (16) 
Heuristics

$$$$

     RDKit          3D

 17 15  0  0  0  0  0  0  0  0999 V2000
   -2.1686   -1.5215    1.1159 S   0  0  0  0  0  0  0  0  0  0  0  0
    1.0029    0.1048   -0.3268 C   0  0  0  0  0  3  0  0  0  0  0  0
   -2.1407    0.1765   -1.0410 C   0  0  0  0  0  0  0  0  0  0  0  0
   -1.5271   -0.0100    0.3364 C   0  0  0  0  0  0  0  0  0  0  0  0
    1.8526   -1.0583   -0.0635 C   0  0  0  0  0  0  0  0  0  0  0  0
    1.6737    1.3216    0.1349 C   0  0  0  0  0  0  0  0  0  0  0  0
    2.5506   -2.0173    0.1528 C   0  0  0  0  0  0  0  0  0  0  0  0
    2.2243    2.3247    0.5147 C   0  0  0  0  0  0  0  0  0  0  0  0
    0.8084    0.1810   -1.4165 H   0  0  0  0  0  0  0  0  0  0  0  0
   -0.1740   -0.0386    0.3316 H   0  0  0  0  0  0  0  0  0  0  0  0
   -1.7306    1.0975   -1.5051 H   0  0  0  0  0  0  0  0  0  0  0  0
   -1.8905   -0.6908   -1.6873 H   0  0  0  0  0  0  0  0  0  0  0  0
   -3.2443    0.2727   -0.9603 H   0  0  0  0  0  0  0  0  0  0  0  0
   -1.7611    0.8664    0.9771 H   0  0  0  0  0  0  0  0  0  0  0  0
   -1.3468   -1.3551    2.2464 H   0  0  0  0  0  0  0  0  0  0  0  0
    3.1635   -2.8589    0.3427 H   0  0  0  0  0  0  0  0  0  0  0  0
    2.7078    3.2051    0.8482 H   0  0  0  0  0  0  0  0  0  0  0  0
  1  4  1  0
  1 15  1  0
  2  5  1  0
  2  6  1  0
  2  9  1  0
  3  4  1  0
  3 11  1  0
  3 12  1  0
  3 13  1  0
  4 10  1  0
  4 14  1  0
  5  7  3  0
  6  8  3  0
  7 16  1  0
  8 17  1  0
M  RAD  1   2   2
M  END
>  <reaction>  (17) 
rxn_1876

>  <mol_properties>  (17) 
{"1": {"label": "*0", "atom_type": "Ct"}, "2": {"label": "*1", "atom_type": "Cs"}, "9": {"label": "*3", "atom_type": "Cs"}, "10": {"label": "*4", "atom_type": "S2s"}, "14": {"label": "*2", "atom_type": "H0"}}

>  <type>  (17) 
unop_13

>  <geom_source>  (17) 
AutoTST

$$$$
