
     RDKit          3D

 18 18  0  0  0  0  0  0  0  0999 V2000
   -2.4852    0.3210   -0.3966 C   0  0  0  0  0  0  0  0  0  0  0  0
   -1.5917   -0.2708    0.6941 C   0  0  0  0  0  0  0  0  0  0  0  0
   -0.1292   -0.1692    0.3493 C   0  0  0  0  0  0  0  0  0  0  0  0
    0.6099    0.9558    0.7015 C   0  0  0  0  0  0  0  0  0  0  0  0
    1.9447    1.0728    0.3458 C   0  0  0  0  0  0  0  0  0  0  0  0
    2.5646    0.0613   -0.3720 C   0  0  0  0  0  0  0  0  0  0  0  0
    1.8399   -1.0657   -0.7287 C   0  0  0  0  0  0  0  0  0  0  0  0
    0.5055   -1.1769   -0.3700 C   0  0  0  0  0  0  0  0  0  0  0  0
   -2.3325   -0.1971   -1.3452 H   0  0  0  0  0  0  0  0  0  0  0  0
   -2.2554    1.3763   -0.5546 H   0  0  0  0  0  0  0  0  0  0  0  0
   -3.5397    0.2376   -0.1280 H   0  0  0  0  0  0  0  0  0  0  0  0
   -1.7801    0.2462    1.6380 H   0  0  0  0  0  0  0  0  0  0  0  0
   -1.8568   -1.3190    0.8516 H   0  0  0  0  0  0  0  0  0  0  0  0
    0.1327    1.7497    1.2656 H   0  0  0  0  0  0  0  0  0  0  0  0
    2.5033    1.9550    0.6330 H   0  0  0  0  0  0  0  0  0  0  0  0
    3.6077    0.1491   -0.6484 H   0  0  0  0  0  0  0  0  0  0  0  0
    2.3163   -1.8632   -1.2854 H   0  0  0  0  0  0  0  0  0  0  0  0
   -0.0540   -2.0629   -0.6500 H   0  0  0  0  0  0  0  0  0  0  0  0
  1  2  1  0
  1  9  1  0
  1 10  1  0
  1 11  1  0
  2  3  1  0
  2 12  1  0
  2 13  1  0
  3  4  2  0
  3  8  1  0
  4  5  1  0
  4 14  1  0
  5  6  2  0
  5 15  1  0
  6  7  1  0
  6 16  1  0
  7  8  2  0
  7 17  1  0
  8 18  1  0
M  END
>  <reaction>  (1) 
rxn_1492

>  <mol_properties>  (1) 
{"1": {"label": "donator", "atom_type": "Cs"}, "11": {"label": "d_hydrogen", "atom_type": "H0"}}

>  <type>  (1) 
r1h

$$$$

     RDKit          3D

 14 14  0  0  0  0  0  0  0  0999 V2000
    2.3111    0.1295    0.0255 C   0  0  0  0  0  0  0  0  0  0  0  0
    0.9132    0.0511    0.0101 C   0  0  0  0  0  0  0  0  0  0  0  0
    0.2446   -1.1981    0.0389 C   0  0  0  0  0  3  0  0  0  0  0  0
   -1.1306   -1.2689    0.0235 C   0  0  0  0  0  0  0  0  0  0  0  0
   -1.8967   -0.1062   -0.0209 C   0  0  0  0  0  0  0  0  0  0  0  0
   -1.2644    1.1347   -0.0499 C   0  0  0  0  0  0  0  0  0  0  0  0
    0.1101    1.2180   -0.0350 C   0  0  0  0  0  0  0  0  0  0  0  0
    2.9188   -0.7647    0.0599 H   0  0  0  0  0  0  0  0  0  0  0  0
    2.8158    1.0859    0.0034 H   0  0  0  0  0  0  0  0  0  0  0  0
    0.8353   -2.1058    0.0735 H   0  0  0  0  0  0  0  0  0  0  0  0
   -1.6191   -2.2351    0.0461 H   0  0  0  0  0  0  0  0  0  0  0  0
   -2.9772   -0.1668   -0.0328 H   0  0  0  0  0  0  0  0  0  0  0  0
   -1.8572    2.0404   -0.0845 H   0  0  0  0  0  0  0  0  0  0  0  0
    0.5964    2.1860   -0.0577 H   0  0  0  0  0  0  0  0  0  0  0  0
  1  2  2  3
  1  8  1  0
  1  9  1  0
  2  3  1  0
  2  7  1  0
  3  4  1  0
  3 10  1  0
  4  5  2  0
  4 11  1  0
  5  6  1  0
  5 12  1  0
  6  7  2  0
  6 13  1  0
  7 14  1  0
M  RAD  1   3   2
M  END
>  <reaction>  (2) 
rxn_1492

>  <mol_properties>  (2) 
{"0": {"label": "acceptor", "atom_type": "Cs"}}

>  <type>  (2) 
r2

$$$$

     RDKit          3D

 15 15  0  0  0  0  0  0  0  0999 V2000
    2.2031   -0.2111   -0.1693 C   0  0  0  0  0  0  0  0  0  0  0  0
    0.7140   -0.0314   -0.0623 C   0  0  0  0  0  0  0  0  0  0  0  0
   -0.0114    0.5491   -1.0982 C   0  0  0  0  0  0  0  0  0  0  0  0
   -1.3882    0.6886   -1.0150 C   0  0  0  0  0  0  0  0  0  0  0  0
   -2.0661    0.2493    0.1118 C   0  0  0  0  0  0  0  0  0  0  0  0
   -1.3551   -0.3278    1.1528 C   0  0  0  0  0  0  0  0  0  0  0  0
    0.0216   -0.4648    1.0642 C   0  0  0  0  0  0  0  0  0  0  0  0
    2.6776   -0.1836    0.8122 H   0  0  0  0  0  0  0  0  0  0  0  0
    2.4446   -1.1749   -0.6249 H   0  0  0  0  0  0  0  0  0  0  0  0
    2.6532    0.5664   -0.7875 H   0  0  0  0  0  0  0  0  0  0  0  0
    0.5104    0.8989   -1.9819 H   0  0  0  0  0  0  0  0  0  0  0  0
   -1.9328    1.1452   -1.8322 H   0  0  0  0  0  0  0  0  0  0  0  0
   -3.1409    0.3597    0.1800 H   0  0  0  0  0  0  0  0  0  0  0  0
   -1.8736   -0.6702    2.0398 H   0  0  0  0  0  0  0  0  0  0  0  0
    0.5695   -0.9141    1.8849 H   0  0  0  0  0  0  0  0  0  0  0  0
  1  2  1  0
  1  8  1  0
  1  9  1  0
  1 10  1  0
  2  3  2  0
  2  7  1  0
  3  4  1  0
  3 11  1  0
  4  5  2  0
  4 12  1  0
  5  6  1  0
  5 13  1  0
  6  7  2  0
  6 14  1  0
  7 15  1  0
M  END
>  <reaction>  (3) 
rxn_1492

>  <mol_properties>  (3) 
{"0": {"label": "acceptor", "atom_type": "Cs"}, "14": {"label": "a_hydrogen", "atom_type": "H0"}}

>  <type>  (3) 
r2h

$$$$

     RDKit          3D

 32 32  0  0  0  0  0  0  0  0999 V2000
    0.4122   -1.8854    1.4709 C   0  0  0  0  0  0  0  0  0  0  0  0
   -0.7052   -1.5766    0.5905 C   0  0  0  0  0  0  0  0  0  0  0  0
   -0.8250   -2.1895   -0.6625 C   0  0  0  0  0  3  0  0  0  0  0  0
   -1.8203   -1.8139   -1.5470 C   0  0  0  0  0  0  0  0  0  0  0  0
   -2.7205   -0.8148   -1.2031 C   0  0  0  0  0  0  0  0  0  0  0  0
   -2.6206   -0.2023    0.0391 C   0  0  0  0  0  0  0  0  0  0  0  0
   -1.6274   -0.5775    0.9233 C   0  0  0  0  0  0  0  0  0  0  0  0
    0.8977   -2.8456    1.3178 H   0  0  0  0  0  0  0  0  0  0  0  0
    0.2869   -1.6245    2.5182 H   0  0  0  0  0  0  0  0  0  0  0  0
   -0.1224   -2.9677   -0.9393 H   0  0  0  0  0  0  0  0  0  0  0  0
   -1.8952   -2.3020   -2.5110 H   0  0  0  0  0  0  0  0  0  0  0  0
   -3.4964   -0.5176   -1.8970 H   0  0  0  0  0  0  0  0  0  0  0  0
   -3.3155    0.5810    0.3144 H   0  0  0  0  0  0  0  0  0  0  0  0
   -1.5429   -0.0793    1.8816 H   0  0  0  0  0  0  0  0  0  0  0  0
    2.8661   -0.9303   -0.5818 C   0  0  0  0  0  0  0  0  0  0  0  0
    2.2118   -0.1234    0.5103 C   0  0  0  0  0  0  0  0  0  0  0  0
    1.3166    0.9852    0.1571 C   0  0  0  0  0  0  0  0  0  0  0  0
    0.7052    1.0821   -1.0958 C   0  0  0  0  0  0  0  0  0  0  0  0
   -0.2161    2.0798   -1.3629 C   0  0  0  0  0  0  0  0  0  0  0  0
   -0.5510    3.0064   -0.3871 C   0  0  0  0  0  0  0  0  0  0  0  0
    0.0535    2.9307    0.8608 C   0  0  0  0  0  0  0  0  0  0  0  0
    0.9738    1.9342    1.1273 C   0  0  0  0  0  0  0  0  0  0  0  0
    3.4893   -0.3047   -1.2275 H   0  0  0  0  0  0  0  0  0  0  0  0
    2.1224   -1.4197   -1.2149 H   0  0  0  0  0  0  0  0  0  0  0  0
    3.4986   -1.7094   -0.1550 H   0  0  0  0  0  0  0  0  0  0  0  0
    1.3825   -0.9987    1.0776 H   0  0  0  0  0  0  0  0  0  0  0  0
    2.8770    0.1162    1.3390 H   0  0  0  0  0  0  0  0  0  0  0  0
    0.9373    0.3594   -1.8666 H   0  0  0  0  0  0  0  0  0  0  0  0
   -0.6838    2.1272   -2.3383 H   0  0  0  0  0  0  0  0  0  0  0  0
   -1.2746    3.7837   -0.5971 H   0  0  0  0  0  0  0  0  0  0  0  0
   -0.1952    3.6530    1.6286 H   0  0  0  0  0  0  0  0  0  0  0  0
    1.4369    1.8772    2.1063 H   0  0  0  0  0  0  0  0  0  0  0  0
  1  2  2  3
  1  8  1  0
  1  9  1  0
  2  3  1  0
  2  7  1  0
  3  4  1  0
  3 10  1  0
  4  5  2  0
  4 11  1  0
  5  6  1  0
  5 12  1  0
  6  7  2  0
  6 13  1  0
  7 14  1  0
 15 16  1  0
 15 23  1  0
 15 24  1  0
 15 25  1  0
 16 17  1  0
 16 26  1  0
 16 27  1  0
 17 18  2  0
 17 22  1  0
 18 19  1  0
 18 28  1  0
 19 20  2  0
 19 29  1  0
 20 21  1  0
 20 30  1  0
 21 22  2  0
 21 31  1  0
 22 32  1  0
M  RAD  1   3   2
M  END
>  <reaction>  (4) 
rxn_1492

>  <mol_properties>  (4) 
{"0": {"label": "*3", "atom_type": "Cd"}, "1": {"label": "*4", "atom_type": "Cd"}, "15": {"label": "*1", "atom_type": "Cs"}, "16": {"label": "*0", "atom_type": "Cd"}, "25": {"label": "*2", "atom_type": "H0"}}

>  <type>  (4) 
ts

$$$$

     RDKit          3D

 32 32  0  0  0  0  0  0  0  0999 V2000
   -1.4180   -0.8611   -0.4735 C   0  0  0  0  0  0  0  0  0  0  0  0
   -1.0213   -2.0419    0.3689 C   0  0  0  0  0  0  0  0  0  0  0  0
   -1.2693   -2.0579    1.7380 C   0  0  0  0  0  0  0  0  0  0  0  0
   -0.9321   -3.1575    2.5121 C   0  0  0  0  0  0  0  0  0  0  0  0
   -0.3366   -4.2647    1.9274 C   0  0  0  0  0  0  0  0  0  0  0  0
   -0.0807   -4.2606    0.5647 C   0  0  0  0  0  0  0  0  0  0  0  0
   -0.4201   -3.1583   -0.2044 C   0  0  0  0  0  0  0  0  0  0  0  0
   -1.3873    0.0648    0.1018 H   0  0  0  0  0  0  0  0  0  0  0  0
   -2.4367   -0.9804   -0.8513 H   0  0  0  0  0  0  0  0  0  0  0  0
   -1.7313   -1.1952    2.2048 H   0  0  0  0  0  0  0  0  0  0  0  0
   -1.1323   -3.1477    3.5763 H   0  0  0  0  0  0  0  0  0  0  0  0
   -0.0700   -5.1234    2.5304 H   0  0  0  0  0  0  0  0  0  0  0  0
    0.3883   -5.1181    0.0982 H   0  0  0  0  0  0  0  0  0  0  0  0
   -0.2128   -3.1629   -1.2686 H   0  0  0  0  0  0  0  0  0  0  0  0
    0.6839    0.4377   -2.8733 C   0  0  0  0  0  0  0  0  0  0  0  0
    0.6839    0.4377   -1.3441 C   0  0  0  0  0  0  0  0  0  0  0  0
    0.6839    1.8319   -0.7747 C   0  0  0  0  0  0  0  0  0  0  0  0
   -0.5106    2.5009   -0.5270 C   0  0  0  0  0  3  0  0  0  0  0  0
   -0.5139    3.8011   -0.0461 C   0  0  0  0  0  0  0  0  0  0  0  0
    0.6839    4.4564    0.1957 C   0  0  0  0  0  0  0  0  0  0  0  0
    1.8817    3.8011   -0.0461 C   0  0  0  0  0  0  0  0  0  0  0  0
    1.8784    2.5009   -0.5270 C   0  0  0  0  0  0  0  0  0  0  0  0
    1.5652    0.9527   -3.2601 H   0  0  0  0  0  0  0  0  0  0  0  0
   -0.1974    0.9527   -3.2601 H   0  0  0  0  0  0  0  0  0  0  0  0
    0.6839   -0.5808   -3.2656 H   0  0  0  0  0  0  0  0  0  0  0  0
   -0.3681   -0.2124   -0.9084 H   0  0  0  0  0  0  0  0  0  0  0  0
    1.5605   -0.1040   -0.9810 H   0  0  0  0  0  0  0  0  0  0  0  0
   -1.4515    1.9937   -0.7107 H   0  0  0  0  0  0  0  0  0  0  0  0
   -1.4547    4.3028    0.1438 H   0  0  0  0  0  0  0  0  0  0  0  0
    0.6839    5.4708    0.5741 H   0  0  0  0  0  0  0  0  0  0  0  0
    2.8225    4.3028    0.1438 H   0  0  0  0  0  0  0  0  0  0  0  0
    2.8193    1.9937   -0.7107 H   0  0  0  0  0  0  0  0  0  0  0  0
  1  2  1  0
  1  8  1  0
  1  9  1  0
  1 26  1  0
  2  3  2  0
  2  7  1  0
  3  4  1  0
  3 10  1  0
  4  5  2  0
  4 11  1  0
  5  6  1  0
  5 12  1  0
  6  7  2  0
  6 13  1  0
  7 14  1  0
 15 16  1  0
 15 23  1  0
 15 24  1  0
 15 25  1  0
 16 17  2  3
 16 27  1  0
 17 18  1  0
 17 22  1  0
 18 19  1  0
 18 28  1  0
 19 20  2  0
 19 29  1  0
 20 21  1  0
 20 30  1  0
 21 22  2  0
 21 31  1  0
 22 32  1  0
M  RAD  1  18   2
M  END
>  <reaction>  (5) 
rxn_1492

>  <mol_properties>  (5) 
{"0": {"label": "*3", "atom_type": "Cd"}, "1": {"label": "*4", "atom_type": "Cd"}, "15": {"label": "*1", "atom_type": "Cs"}, "16": {"label": "*0", "atom_type": "Cd"}, "25": {"label": "*2", "atom_type": "H0"}}

>  <type>  (5) 
unop_1

>  <geom_source>  (5) 
Heuristics

$$$$

     RDKit          3D

 32 32  0  0  0  0  0  0  0  0999 V2000
   -0.8012   -0.9431    0.8971 C   0  0  0  0  0  0  0  0  0  0  0  0
   -1.2149   -2.0220   -0.0652 C   0  0  0  0  0  0  0  0  0  0  0  0
   -1.5045   -3.3068    0.3840 C   0  0  0  0  0  0  0  0  0  0  0  0
   -1.9153   -4.2956   -0.4966 C   0  0  0  0  0  0  0  0  0  0  0  0
   -2.0426   -4.0153   -1.8485 C   0  0  0  0  0  0  0  0  0  0  0  0
   -1.7540   -2.7401   -2.3100 C   0  0  0  0  0  0  0  0  0  0  0  0
   -1.3436   -1.7553   -1.4248 C   0  0  0  0  0  0  0  0  0  0  0  0
   -0.2707   -1.3584    1.7547 H   0  0  0  0  0  0  0  0  0  0  0  0
   -1.6752   -0.4085    1.2779 H   0  0  0  0  0  0  0  0  0  0  0  0
   -1.4043   -3.5365    1.4389 H   0  0  0  0  0  0  0  0  0  0  0  0
   -2.1335   -5.2894   -0.1257 H   0  0  0  0  0  0  0  0  0  0  0  0
   -2.3607   -4.7865   -2.5384 H   0  0  0  0  0  0  0  0  0  0  0  0
   -1.8454   -2.5111   -3.3646 H   0  0  0  0  0  0  0  0  0  0  0  0
   -1.1167   -0.7620   -1.7956 H   0  0  0  0  0  0  0  0  0  0  0  0
    1.3007    0.3557   -1.5027 C   0  0  0  0  0  0  0  0  0  0  0  0
    1.3007    0.3557    0.0264 C   0  0  0  0  0  0  0  0  0  0  0  0
    1.3007    1.7500    0.5958 C   0  0  0  0  0  0  0  0  0  0  0  0
    0.1062    2.4189    0.8436 C   0  0  0  0  0  3  0  0  0  0  0  0
    0.1029    3.7191    1.3245 C   0  0  0  0  0  0  0  0  0  0  0  0
    1.3007    4.3745    1.5663 C   0  0  0  0  0  0  0  0  0  0  0  0
    2.4985    3.7191    1.3245 C   0  0  0  0  0  0  0  0  0  0  0  0
    2.4953    2.4189    0.8436 C   0  0  0  0  0  0  0  0  0  0  0  0
    2.1820    0.8707   -1.8895 H   0  0  0  0  0  0  0  0  0  0  0  0
    0.4195    0.8707   -1.8895 H   0  0  0  0  0  0  0  0  0  0  0  0
    1.3007   -0.6627   -1.8950 H   0  0  0  0  0  0  0  0  0  0  0  0
    0.2488   -0.2943    0.4622 H   0  0  0  0  0  0  0  0  0  0  0  0
    2.1774   -0.1860    0.3895 H   0  0  0  0  0  0  0  0  0  0  0  0
   -0.8347    1.9117    0.6598 H   0  0  0  0  0  0  0  0  0  0  0  0
   -0.8379    4.2208    1.5144 H   0  0  0  0  0  0  0  0  0  0  0  0
    1.3007    5.3888    1.9447 H   0  0  0  0  0  0  0  0  0  0  0  0
    3.4393    4.2208    1.5144 H   0  0  0  0  0  0  0  0  0  0  0  0
    3.4362    1.9117    0.6598 H   0  0  0  0  0  0  0  0  0  0  0  0
  1  2  1  0
  1  8  1  0
  1  9  1  0
  1 26  1  0
  2  3  2  0
  2  7  1  0
  3  4  1  0
  3 10  1  0
  4  5  2  0
  4 11  1  0
  5  6  1  0
  5 12  1  0
  6  7  2  0
  6 13  1  0
  7 14  1  0
 15 16  1  0
 15 23  1  0
 15 24  1  0
 15 25  1  0
 16 17  2  3
 16 27  1  0
 17 18  1  0
 17 22  1  0
 18 19  1  0
 18 28  1  0
 19 20  2  0
 19 29  1  0
 20 21  1  0
 20 30  1  0
 21 22  2  0
 21 31  1  0
 22 32  1  0
M  RAD  1  18   2
M  END
>  <reaction>  (6) 
rxn_1492

>  <mol_properties>  (6) 
{"0": {"label": "*3", "atom_type": "Cd"}, "1": {"label": "*4", "atom_type": "Cd"}, "15": {"label": "*1", "atom_type": "Cs"}, "16": {"label": "*0", "atom_type": "Cd"}, "25": {"label": "*2", "atom_type": "H0"}}

>  <type>  (6) 
unop_2

>  <geom_source>  (6) 
Heuristics

$$$$

     RDKit          3D

 32 32  0  0  0  0  0  0  0  0999 V2000
   -1.3251   -1.2572   -0.8388 C   0  0  0  0  0  0  0  0  0  0  0  0
   -1.0529   -1.9122    0.4871 C   0  0  0  0  0  0  0  0  0  0  0  0
   -1.8329   -1.6195    1.6017 C   0  0  0  0  0  0  0  0  0  0  0  0
   -1.6035   -2.2443    2.8178 C   0  0  0  0  0  0  0  0  0  0  0  0
   -0.5841   -3.1759    2.9410 C   0  0  0  0  0  0  0  0  0  0  0  0
    0.2028   -3.4744    1.8392 C   0  0  0  0  0  0  0  0  0  0  0  0
   -0.0311   -2.8466    0.6255 C   0  0  0  0  0  0  0  0  0  0  0  0
   -1.7470   -0.2599   -0.7094 H   0  0  0  0  0  0  0  0  0  0  0  0
   -2.0402   -1.8443   -1.4207 H   0  0  0  0  0  0  0  0  0  0  0  0
   -2.6301   -0.8896    1.5160 H   0  0  0  0  0  0  0  0  0  0  0  0
   -2.2214   -1.9998    3.6730 H   0  0  0  0  0  0  0  0  0  0  0  0
   -0.4016   -3.6631    3.8904 H   0  0  0  0  0  0  0  0  0  0  0  0
    1.0049   -4.1971    1.9251 H   0  0  0  0  0  0  0  0  0  0  0  0
    0.5919   -3.0839   -0.2296 H   0  0  0  0  0  0  0  0  0  0  0  0
    0.7768    0.0416   -3.2386 C   0  0  0  0  0  0  0  0  0  0  0  0
    0.7768    0.0416   -1.7095 C   0  0  0  0  0  0  0  0  0  0  0  0
    0.7768    1.4359   -1.1401 C   0  0  0  0  0  0  0  0  0  0  0  0
   -0.4177    2.1049   -0.8923 C   0  0  0  0  0  3  0  0  0  0  0  0
   -0.4210    3.4051   -0.4114 C   0  0  0  0  0  0  0  0  0  0  0  0
    0.7768    4.0604   -0.1696 C   0  0  0  0  0  0  0  0  0  0  0  0
    1.9746    3.4051   -0.4114 C   0  0  0  0  0  0  0  0  0  0  0  0
    1.9713    2.1049   -0.8923 C   0  0  0  0  0  0  0  0  0  0  0  0
    1.6581    0.5567   -3.6254 H   0  0  0  0  0  0  0  0  0  0  0  0
   -0.1045    0.5567   -3.6254 H   0  0  0  0  0  0  0  0  0  0  0  0
    0.7768   -0.9768   -3.6309 H   0  0  0  0  0  0  0  0  0  0  0  0
   -0.2752   -0.6084   -1.2737 H   0  0  0  0  0  0  0  0  0  0  0  0
    1.6534   -0.5000   -1.3463 H   0  0  0  0  0  0  0  0  0  0  0  0
   -1.3586    1.5977   -1.0761 H   0  0  0  0  0  0  0  0  0  0  0  0
   -1.3618    3.9068   -0.2215 H   0  0  0  0  0  0  0  0  0  0  0  0
    0.7768    5.0748    0.2088 H   0  0  0  0  0  0  0  0  0  0  0  0
    2.9154    3.9068   -0.2215 H   0  0  0  0  0  0  0  0  0  0  0  0
    2.9122    1.5977   -1.0761 H   0  0  0  0  0  0  0  0  0  0  0  0
  1  2  1  0
  1  8  1  0
  1  9  1  0
  1 26  1  0
  2  3  2  0
  2  7  1  0
  3  4  1  0
  3 10  1  0
  4  5  2  0
  4 11  1  0
  5  6  1  0
  5 12  1  0
  6  7  2  0
  6 13  1  0
  7 14  1  0
 15 16  1  0
 15 23  1  0
 15 24  1  0
 15 25  1  0
 16 17  2  3
 16 27  1  0
 17 18  1  0
 17 22  1  0
 18 19  1  0
 18 28  1  0
 19 20  2  0
 19 29  1  0
 20 21  1  0
 20 30  1  0
 21 22  2  0
 21 31  1  0
 22 32  1  0
M  RAD  1  18   2
M  END
>  <reaction>  (7) 
rxn_1492

>  <mol_properties>  (7) 
{"0": {"label": "*3", "atom_type": "Cd"}, "1": {"label": "*4", "atom_type": "Cd"}, "15": {"label": "*1", "atom_type": "Cs"}, "16": {"label": "*0", "atom_type": "Cd"}, "25": {"label": "*2", "atom_type": "H0"}}

>  <type>  (7) 
unop_3

>  <geom_source>  (7) 
Heuristics

$$$$

     RDKit          3D

 32 32  0  0  0  0  0  0  0  0999 V2000
   -0.1571   -2.2558    0.5205 C   0  0  0  0  0  0  0  0  0  0  0  0
   -1.4317   -1.6175    0.0418 C   0  0  0  0  0  0  0  0  0  0  0  0
   -2.6706   -2.1136    0.4358 C   0  0  0  0  0  0  0  0  0  0  0  0
   -3.8469   -1.5089    0.0204 C   0  0  0  0  0  0  0  0  0  0  0  0
   -3.8040   -0.3931   -0.8014 C   0  0  0  0  0  0  0  0  0  0  0  0
   -2.5763    0.1096   -1.2043 C   0  0  0  0  0  0  0  0  0  0  0  0
   -1.4032   -0.4992   -0.7858 C   0  0  0  0  0  0  0  0  0  0  0  0
   -0.2906   -3.3234    0.6986 H   0  0  0  0  0  0  0  0  0  0  0  0
    0.1727   -1.8041    1.4596 H   0  0  0  0  0  0  0  0  0  0  0  0
   -2.7142   -2.9879    1.0755 H   0  0  0  0  0  0  0  0  0  0  0  0
   -4.8003   -1.9130    0.3374 H   0  0  0  0  0  0  0  0  0  0  0  0
   -4.7214    0.0792   -1.1291 H   0  0  0  0  0  0  0  0  0  0  0  0
   -2.5309    0.9778   -1.8500 H   0  0  0  0  0  0  0  0  0  0  0  0
   -0.4478   -0.1011   -1.1090 H   0  0  0  0  0  0  0  0  0  0  0  0
    1.9448   -0.9570   -1.8793 C   0  0  0  0  0  0  0  0  0  0  0  0
    1.9448   -0.9570   -0.3502 C   0  0  0  0  0  0  0  0  0  0  0  0
    1.9448    0.4372    0.2192 C   0  0  0  0  0  0  0  0  0  0  0  0
    0.7503    1.1062    0.4670 C   0  0  0  0  0  3  0  0  0  0  0  0
    0.7470    2.4064    0.9479 C   0  0  0  0  0  0  0  0  0  0  0  0
    1.9448    3.0618    1.1897 C   0  0  0  0  0  0  0  0  0  0  0  0
    3.1426    2.4064    0.9479 C   0  0  0  0  0  0  0  0  0  0  0  0
    3.1394    1.1062    0.4670 C   0  0  0  0  0  0  0  0  0  0  0  0
    2.8261   -0.4420   -2.2661 H   0  0  0  0  0  0  0  0  0  0  0  0
    1.0636   -0.4420   -2.2661 H   0  0  0  0  0  0  0  0  0  0  0  0
    1.9448   -1.9755   -2.2716 H   0  0  0  0  0  0  0  0  0  0  0  0
    0.8929   -1.6071    0.0856 H   0  0  0  0  0  0  0  0  0  0  0  0
    2.8215   -1.4987    0.0130 H   0  0  0  0  0  0  0  0  0  0  0  0
   -0.1906    0.5990    0.2832 H   0  0  0  0  0  0  0  0  0  0  0  0
   -0.1938    2.9081    1.1378 H   0  0  0  0  0  0  0  0  0  0  0  0
    1.9448    4.0761    1.5681 H   0  0  0  0  0  0  0  0  0  0  0  0
    4.0834    2.9081    1.1378 H   0  0  0  0  0  0  0  0  0  0  0  0
    4.0803    0.5990    0.2832 H   0  0  0  0  0  0  0  0  0  0  0  0
  1  2  1  0
  1  8  1  0
  1  9  1  0
  1 26  1  0
  2  3  2  0
  2  7  1  0
  3  4  1  0
  3 10  1  0
  4  5  2  0
  4 11  1  0
  5  6  1  0
  5 12  1  0
  6  7  2  0
  6 13  1  0
  7 14  1  0
 15 16  1  0
 15 23  1  0
 15 24  1  0
 15 25  1  0
 16 17  2  3
 16 27  1  0
 17 18  1  0
 17 22  1  0
 18 19  1  0
 18 28  1  0
 19 20  2  0
 19 29  1  0
 20 21  1  0
 20 30  1  0
 21 22  2  0
 21 31  1  0
 22 32  1  0
M  RAD  1  18   2
M  END
>  <reaction>  (8) 
rxn_1492

>  <mol_properties>  (8) 
{"0": {"label": "*3", "atom_type": "Cd"}, "1": {"label": "*4", "atom_type": "Cd"}, "15": {"label": "*1", "atom_type": "Cs"}, "16": {"label": "*0", "atom_type": "Cd"}, "25": {"label": "*2", "atom_type": "H0"}}

>  <type>  (8) 
unop_4

>  <geom_source>  (8) 
Heuristics

$$$$

     RDKit          3D

 32 32  0  0  0  0  0  0  0  0999 V2000
   -1.0935   -1.7297   -0.9747 C   0  0  0  0  0  0  0  0  0  0  0  0
   -1.1364   -1.7562    0.5282 C   0  0  0  0  0  0  0  0  0  0  0  0
   -2.3492   -1.8262    1.2068 C   0  0  0  0  0  0  0  0  0  0  0  0
   -2.3906   -1.8812    2.5914 C   0  0  0  0  0  0  0  0  0  0  0  0
   -1.2140   -1.8655    3.3247 C   0  0  0  0  0  0  0  0  0  0  0  0
    0.0013   -1.7925    2.6612 C   0  0  0  0  0  0  0  0  0  0  0  0
    0.0366   -1.7377    1.2764 C   0  0  0  0  0  0  0  0  0  0  0  0
   -1.9835   -1.2546   -1.3887 H   0  0  0  0  0  0  0  0  0  0  0  0
   -1.0441   -2.7443   -1.3782 H   0  0  0  0  0  0  0  0  0  0  0  0
   -3.2748   -1.8354    0.6421 H   0  0  0  0  0  0  0  0  0  0  0  0
   -3.3457   -1.9333    3.0992 H   0  0  0  0  0  0  0  0  0  0  0  0
   -1.2441   -1.9057    4.4061 H   0  0  0  0  0  0  0  0  0  0  0  0
    0.9264   -1.7748    3.2240 H   0  0  0  0  0  0  0  0  0  0  0  0
    0.9917   -1.6771    0.7666 H   0  0  0  0  0  0  0  0  0  0  0  0
    1.0084   -0.4309   -3.3745 C   0  0  0  0  0  0  0  0  0  0  0  0
    1.0084   -0.4309   -1.8454 C   0  0  0  0  0  0  0  0  0  0  0  0
    1.0084    0.9634   -1.2760 C   0  0  0  0  0  0  0  0  0  0  0  0
   -0.1861    1.6323   -1.0282 C   0  0  0  0  0  3  0  0  0  0  0  0
   -0.1894    2.9325   -0.5473 C   0  0  0  0  0  0  0  0  0  0  0  0
    1.0084    3.5879   -0.3055 C   0  0  0  0  0  0  0  0  0  0  0  0
    2.2062    2.9325   -0.5473 C   0  0  0  0  0  0  0  0  0  0  0  0
    2.2029    1.6323   -1.0282 C   0  0  0  0  0  0  0  0  0  0  0  0
    1.8897    0.0841   -3.7613 H   0  0  0  0  0  0  0  0  0  0  0  0
    0.1271    0.0841   -3.7613 H   0  0  0  0  0  0  0  0  0  0  0  0
    1.0084   -1.4493   -3.7668 H   0  0  0  0  0  0  0  0  0  0  0  0
   -0.0436   -1.0809   -1.4096 H   0  0  0  0  0  0  0  0  0  0  0  0
    1.8850   -0.9726   -1.4823 H   0  0  0  0  0  0  0  0  0  0  0  0
   -1.1270    1.1251   -1.2120 H   0  0  0  0  0  0  0  0  0  0  0  0
   -1.1302    3.4342   -0.3574 H   0  0  0  0  0  0  0  0  0  0  0  0
    1.0084    4.6022    0.0728 H   0  0  0  0  0  0  0  0  0  0  0  0
    3.1470    3.4342   -0.3574 H   0  0  0  0  0  0  0  0  0  0  0  0
    3.1438    1.1251   -1.2120 H   0  0  0  0  0  0  0  0  0  0  0  0
  1  2  1  0
  1  8  1  0
  1  9  1  0
  1 26  1  0
  2  3  2  0
  2  7  1  0
  3  4  1  0
  3 10  1  0
  4  5  2  0
  4 11  1  0
  5  6  1  0
  5 12  1  0
  6  7  2  0
  6 13  1  0
  7 14  1  0
 15 16  1  0
 15 23  1  0
 15 24  1  0
 15 25  1  0
 16 17  2  3
 16 27  1  0
 17 18  1  0
 17 22  1  0
 18 19  1  0
 18 28  1  0
 19 20  2  0
 19 29  1  0
 20 21  1  0
 20 30  1  0
 21 22  2  0
 21 31  1  0
 22 32  1  0
M  RAD  1  18   2
M  END
>  <reaction>  (9) 
rxn_1492

>  <mol_properties>  (9) 
{"0": {"label": "*3", "atom_type": "Cd"}, "1": {"label": "*4", "atom_type": "Cd"}, "15": {"label": "*1", "atom_type": "Cs"}, "16": {"label": "*0", "atom_type": "Cd"}, "25": {"label": "*2", "atom_type": "H0"}}

>  <type>  (9) 
unop_5

>  <geom_source>  (9) 
Heuristics

$$$$

     RDKit          3D

 32 30  0  0  0  0  0  0  0  0999 V2000
   -0.2382   -2.4661    0.0165 C   0  0  0  0  0  0  0  0  0  0  0  0
   -1.4134   -1.5458    0.1984 C   0  0  0  0  0  2  0  0  0  0  0  0
   -2.5636   -1.9769    0.8521 C   0  0  0  0  0  0  0  0  0  0  0  0
   -3.6369   -1.1216    1.0478 C   0  0  0  0  0  0  0  0  0  0  0  0
   -3.5785    0.1856    0.5894 C   0  0  0  0  0  0  0  0  0  0  0  0
   -2.4397    0.6272   -0.0667 C   0  0  0  0  0  3  0  0  0  0  0  0
   -1.3694   -0.2325   -0.2596 C   0  0  0  0  0  1  0  0  0  0  0  0
   -0.5569   -3.5062   -0.0597 H   0  0  0  0  0  0  0  0  0  0  0  0
    0.4456   -2.3927    0.8661 H   0  0  0  0  0  0  0  0  0  0  0  0
   -2.6199   -2.9985    1.2110 H   0  0  0  0  0  0  0  0  0  0  0  0
   -4.5232   -1.4788    1.5575 H   0  0  0  0  0  0  0  0  0  0  0  0
   -4.4165    0.8545    0.7388 H   0  0  0  0  0  0  0  0  0  0  0  0
   -2.3850    1.6448   -0.4333 H   0  0  0  0  0  0  0  0  0  0  0  0
   -0.4845    0.1209   -0.7771 H   0  0  0  0  0  0  0  0  0  0  0  0
    1.8638   -1.1673   -2.3833 C   0  0  0  0  0  0  0  0  0  0  0  0
    1.8638   -1.1673   -0.8541 C   0  0  0  0  0  0  0  0  0  0  0  0
    1.8638    0.2269   -0.2847 C   0  0  0  0  0  0  0  0  0  0  0  0
    0.6692    0.8959   -0.0370 C   0  0  0  0  0  3  0  0  0  0  0  0
    0.6660    2.1961    0.4439 C   0  0  0  0  0  0  0  0  0  0  0  0
    1.8638    2.8515    0.6857 C   0  0  0  0  0  0  0  0  0  0  0  0
    3.0616    2.1961    0.4439 C   0  0  0  0  0  0  0  0  0  0  0  0
    3.0583    0.8959   -0.0370 C   0  0  0  0  0  0  0  0  0  0  0  0
    2.7451   -0.6523   -2.7701 H   0  0  0  0  0  0  0  0  0  0  0  0
    0.9825   -0.6523   -2.7701 H   0  0  0  0  0  0  0  0  0  0  0  0
    1.8638   -2.1858   -2.7756 H   0  0  0  0  0  0  0  0  0  0  0  0
    0.8118   -1.8173   -0.4184 H   0  0  0  0  0  0  0  0  0  0  0  0
    2.7404   -1.7090   -0.4910 H   0  0  0  0  0  0  0  0  0  0  0  0
   -0.2716    0.3887   -0.2207 H   0  0  0  0  0  0  0  0  0  0  0  0
   -0.2748    2.6978    0.6338 H   0  0  0  0  0  0  0  0  0  0  0  0
    1.8638    3.8658    1.0641 H   0  0  0  0  0  0  0  0  0  0  0  0
    4.0024    2.6978    0.6338 H   0  0  0  0  0  0  0  0  0  0  0  0
    3.9992    0.3887   -0.2207 H   0  0  0  0  0  0  0  0  0  0  0  0
  1  2  1  0
  1  8  1  0
  1  9  1  0
  1 26  1  0
  2  3  1  0
  3  4  2  3
  3 10  1  0
  4  5  1  0
  4 11  1  0
  5  6  2  3
  5 12  1  0
  6 13  1  0
  7 14  1  0
 15 16  1  0
 15 23  1  0
 15 24  1  0
 15 25  1  0
 16 17  2  3
 16 27  1  0
 17 18  1  0
 17 22  1  0
 18 19  1  0
 18 28  1  0
 19 20  2  0
 19 29  1  0
 20 21  1  0
 20 30  1  0
 21 22  2  0
 21 31  1  0
 22 32  1  0
M  CHG  2   2   1   6  -1
M  RAD  3   2   2   7   2  18   2
M  END
>  <reaction>  (10) 
rxn_1492

>  <mol_properties>  (10) 
{"0": {"label": "*3", "atom_type": "Cd"}, "1": {"label": "*4", "atom_type": "Cd"}, "15": {"label": "*1", "atom_type": "Cs"}, "16": {"label": "*0", "atom_type": "Cd"}, "25": {"label": "*2", "atom_type": "H0"}}

>  <type>  (10) 
unop_6

>  <geom_source>  (10) 
Heuristics

$$$$

     RDKit          3D

 32 29  0  0  0  0  0  0  0  0999 V2000
   -0.4673   -2.4312   -0.4843 C   0  0  0  0  0  0  0  0  0  0  0  0
   -1.3459   -1.5482    0.3580 C   0  0  0  0  0  0  0  0  0  0  0  0
   -2.3907   -2.0840    1.1047 C   0  0  0  0  0  0  0  0  0  0  0  0
   -3.1834   -1.2765    1.9057 C   0  0  0  0  0  0  0  0  0  0  0  0
   -2.9444    0.0876    1.9727 C   0  0  0  0  0  0  0  0  0  0  0  0
   -1.9088    0.6350    1.2311 C   0  0  0  0  0  0  0  0  0  0  0  0
   -1.1193   -0.1772    0.4319 C   0  0  0  0  0  3  0  0  0  0  0  0
   -1.0129   -3.3025   -0.8482 H   0  0  0  0  0  0  0  0  0  0  0  0
    0.3849   -2.7949    0.0954 H   0  0  0  0  0  0  0  0  0  0  0  0
   -2.5875   -3.1491    1.0560 H   0  0  0  0  0  0  0  0  0  0  0  0
   -3.9926   -1.7143    2.4770 H   0  0  0  0  0  0  0  0  0  0  0  0
   -3.5639    0.7204    2.5955 H   0  0  0  0  0  0  0  0  0  0  0  0
   -1.7160    1.7000    1.2721 H   0  0  0  0  0  0  0  0  0  0  0  0
   -0.3139    0.2606   -0.1473 H   0  0  0  0  0  0  0  0  0  0  0  0
    1.6346   -1.1324   -2.8841 C   0  0  0  0  0  0  0  0  0  0  0  0
    1.6346   -1.1324   -1.3550 C   0  0  0  0  0  0  0  0  0  0  0  0
    1.6346    0.2618   -0.7856 C   0  0  0  0  0  0  0  0  0  0  0  0
    0.4401    0.9308   -0.5378 C   0  0  0  0  0  1  0  0  0  0  0  0
    0.4368    2.2310   -0.0569 C   0  0  0  0  0  2  0  0  0  0  0  0
    1.6346    2.8863    0.1849 C   0  0  0  0  0  0  0  0  0  0  0  0
    2.8324    2.2310   -0.0569 C   0  0  0  0  0  0  0  0  0  0  0  0
    2.8291    0.9308   -0.5378 C   0  0  0  0  0  0  0  0  0  0  0  0
    2.5159   -0.6174   -3.2709 H   0  0  0  0  0  0  0  0  0  0  0  0
    0.7533   -0.6174   -3.2709 H   0  0  0  0  0  0  0  0  0  0  0  0
    1.6346   -2.1509   -3.2764 H   0  0  0  0  0  0  0  0  0  0  0  0
    0.5826   -1.7825   -0.9192 H   0  0  0  0  0  0  0  0  0  0  0  0
    2.5112   -1.6741   -0.9919 H   0  0  0  0  0  0  0  0  0  0  0  0
   -0.5008    0.4236   -0.7216 H   0  0  0  0  0 15  0  0  0  0  0  0
   -0.5040    2.7327    0.1330 H   0  0  0  0  0  0  0  0  0  0  0  0
    1.6346    3.9007    0.5632 H   0  0  0  0  0  0  0  0  0  0  0  0
    3.7732    2.7327    0.1330 H   0  0  0  0  0  0  0  0  0  0  0  0
    3.7700    0.4236   -0.7216 H   0  0  0  0  0  0  0  0  0  0  0  0
  1  2  1  0
  1  8  1  0
  1  9  1  0
  1 26  1  0
  2  3  2  0
  2  7  1  0
  3  4  1  0
  3 10  1  0
  4  5  2  0
  4 11  1  0
  5  6  1  0
  5 12  1  0
  6  7  2  0
  6 13  1  0
 14 18  1  0
 15 16  1  0
 15 23  1  0
 15 24  1  0
 15 25  1  0
 16 17  2  0
 16 27  1  0
 17 22  2  0
 19 20  1  0
 19 29  1  0
 20 21  2  3
 20 30  1  0
 21 22  1  0
 21 31  1  0
 22 32  1  0
M  RAD  3   7   2  18   2  19   3
M  END
>  <reaction>  (11) 
rxn_1492

>  <mol_properties>  (11) 
{"0": {"label": "*3", "atom_type": "Cd"}, "1": {"label": "*4", "atom_type": "Cd"}, "15": {"label": "*1", "atom_type": "Cs"}, "16": {"label": "*0", "atom_type": "Cd"}, "25": {"label": "*2", "atom_type": "H0"}}

>  <type>  (11) 
unop_7

>  <geom_source>  (11) 
Heuristics

$$$$

     RDKit          3D

 32 32  0  0  0  0  0  0  0  0999 V2000
   -1.3425   -0.6477    0.0273 C   0  0  0  0  0  0  0  0  0  0  0  0
   -1.0451   -2.1105    0.2091 C   0  0  0  0  0  0  0  0  0  0  0  0
   -1.0045   -2.6785    1.4787 C   0  0  0  0  0  0  0  0  0  0  0  0
   -0.7605   -4.0327    1.6478 C   0  0  0  0  0  0  0  0  0  0  0  0
   -0.5503   -4.8457    0.5445 C   0  0  0  0  0  0  0  0  0  0  0  0
   -0.5846   -4.2920   -0.7261 C   0  0  0  0  0  0  0  0  0  0  0  0
   -0.8291   -2.9372   -0.8892 C   0  0  0  0  0  0  0  0  0  0  0  0
   -0.9958   -0.0634    0.8803 H   0  0  0  0  0  0  0  0  0  0  0  0
   -2.4182   -0.4810   -0.0707 H   0  0  0  0  0  0  0  0  0  0  0  0
   -1.1641   -2.0501    2.3478 H   0  0  0  0  0  0  0  0  0  0  0  0
   -0.7312   -4.4535    2.6453 H   0  0  0  0  0  0  0  0  0  0  0  0
   -0.3569   -5.9029    0.6743 H   0  0  0  0  0  0  0  0  0  0  0  0
   -0.4170   -4.9166   -1.5948 H   0  0  0  0  0  0  0  0  0  0  0  0
   -0.8504   -2.5126   -1.8867 H   0  0  0  0  0  0  0  0  0  0  0  0
    0.7595    0.6511   -2.3725 C   0  0  0  0  0  0  0  0  0  0  0  0
    0.7595    0.6511   -0.8434 C   0  0  0  0  0  0  0  0  0  0  0  0
    0.7595    2.0453   -0.2740 C   0  0  0  0  0  0  0  0  0  0  0  0
   -0.4351    2.7143   -0.0263 C   0  0  0  0  0  3  0  0  0  0  0  0
   -0.4383    4.0145    0.4547 C   0  0  0  0  0  0  0  0  0  0  0  0
    0.7595    4.6699    0.6965 C   0  0  0  0  0  0  0  0  0  0  0  0
    1.9573    4.0145    0.4547 C   0  0  0  0  0  0  0  0  0  0  0  0
    1.9540    2.7143   -0.0263 C   0  0  0  0  0  0  0  0  0  0  0  0
    1.6407    1.1661   -2.7594 H   0  0  0  0  0  0  0  0  0  0  0  0
   -0.1218    1.1661   -2.7594 H   0  0  0  0  0  0  0  0  0  0  0  0
    0.7595   -0.3674   -2.7648 H   0  0  0  0  0  0  0  0  0  0  0  0
   -0.2925    0.0010   -0.4077 H   0  0  0  0  0  0  0  0  0  0  0  0
    1.6361    0.1094   -0.4803 H   0  0  0  0  0  0  0  0  0  0  0  0
   -1.3760    2.2071   -0.2100 H   0  0  0  0  0  0  0  0  0  0  0  0
   -1.3791    4.5162    0.6446 H   0  0  0  0  0  0  0  0  0  0  0  0
    0.7595    5.6842    1.0748 H   0  0  0  0  0  0  0  0  0  0  0  0
    2.8980    4.5162    0.6446 H   0  0  0  0  0  0  0  0  0  0  0  0
    2.8949    2.2071   -0.2100 H   0  0  0  0  0  0  0  0  0  0  0  0
  1  2  1  0
  1  8  1  0
  1  9  1  0
  1 26  1  0
  2  3  2  0
  2  7  1  0
  3  4  1  0
  3 10  1  0
  4  5  2  0
  4 11  1  0
  5  6  1  0
  5 12  1  0
  6  7  2  0
  6 13  1  0
  7 14  1  0
 15 16  1  0
 15 23  1  0
 15 24  1  0
 15 25  1  0
 16 17  2  3
 16 27  1  0
 17 18  1  0
 17 22  1  0
 18 19  1  0
 18 28  1  0
 19 20  2  0
 19 29  1  0
 20 21  1  0
 20 30  1  0
 21 22  2  0
 21 31  1  0
 22 32  1  0
M  RAD  1  18   2
M  END
>  <reaction>  (12) 
rxn_1492

>  <mol_properties>  (12) 
{"0": {"label": "*3", "atom_type": "Cd"}, "1": {"label": "*4", "atom_type": "Cd"}, "15": {"label": "*1", "atom_type": "Cs"}, "16": {"label": "*0", "atom_type": "Cd"}, "25": {"label": "*2", "atom_type": "H0"}}

>  <type>  (12) 
unop_8

>  <geom_source>  (12) 
Heuristics

$$$$

     RDKit          3D

 32 32  0  0  0  0  0  0  0  0999 V2000
   -0.2462   -1.8566    0.8919 C   0  0  0  0  0  0  0  0  0  0  0  0
   -1.3962   -1.7439   -0.0704 C   0  0  0  0  0  0  0  0  0  0  0  0
   -2.5314   -2.5349    0.0779 C   0  0  0  0  0  0  0  0  0  0  0  0
   -3.6056   -2.4120   -0.7898 C   0  0  0  0  0  0  0  0  0  0  0  0
   -3.5621   -1.4925   -1.8266 C   0  0  0  0  0  0  0  0  0  0  0  0
   -2.4356   -0.7005   -1.9878 C   0  0  0  0  0  0  0  0  0  0  0  0
   -1.3642   -0.8277   -1.1172 C   0  0  0  0  0  0  0  0  0  0  0  0
   -0.1639   -2.8664    1.2954 H   0  0  0  0  0  0  0  0  0  0  0  0
   -0.3796   -1.1747    1.7356 H   0  0  0  0  0  0  0  0  0  0  0  0
   -2.5732   -3.2593    0.8835 H   0  0  0  0  0  0  0  0  0  0  0  0
   -4.4785   -3.0393   -0.6572 H   0  0  0  0  0  0  0  0  0  0  0  0
   -4.3987   -1.3967   -2.5069 H   0  0  0  0  0  0  0  0  0  0  0  0
   -2.3886    0.0177   -2.7970 H   0  0  0  0  0  0  0  0  0  0  0  0
   -0.4861   -0.2064   -1.2534 H   0  0  0  0  0  0  0  0  0  0  0  0
    1.8558   -0.5578   -1.5079 C   0  0  0  0  0  0  0  0  0  0  0  0
    1.8558   -0.5578    0.0212 C   0  0  0  0  0  0  0  0  0  0  0  0
    1.8558    0.8365    0.5906 C   0  0  0  0  0  0  0  0  0  0  0  0
    0.6612    1.5054    0.8383 C   0  0  0  0  0  3  0  0  0  0  0  0
    0.6580    2.8056    1.3193 C   0  0  0  0  0  0  0  0  0  0  0  0
    1.8558    3.4610    1.5611 C   0  0  0  0  0  0  0  0  0  0  0  0
    3.0536    2.8056    1.3193 C   0  0  0  0  0  0  0  0  0  0  0  0
    3.0503    1.5054    0.8383 C   0  0  0  0  0  0  0  0  0  0  0  0
    2.7370   -0.0427   -1.8948 H   0  0  0  0  0  0  0  0  0  0  0  0
    0.9745   -0.0427   -1.8948 H   0  0  0  0  0  0  0  0  0  0  0  0
    1.8558   -1.5762   -1.9003 H   0  0  0  0  0  0  0  0  0  0  0  0
    0.8038   -1.2078    0.4569 H   0  0  0  0  0  0  0  0  0  0  0  0
    2.7324   -1.0995    0.3843 H   0  0  0  0  0  0  0  0  0  0  0  0
   -0.2796    0.9983    0.6546 H   0  0  0  0  0  0  0  0  0  0  0  0
   -0.2828    3.3073    1.5092 H   0  0  0  0  0  0  0  0  0  0  0  0
    1.8558    4.4753    1.9394 H   0  0  0  0  0  0  0  0  0  0  0  0
    3.9944    3.3073    1.5092 H   0  0  0  0  0  0  0  0  0  0  0  0
    3.9912    0.9983    0.6546 H   0  0  0  0  0  0  0  0  0  0  0  0
  1  2  1  0
  1  8  1  0
  1  9  1  0
  1 26  1  0
  2  3  2  0
  2  7  1  0
  3  4  1  0
  3 10  1  0
  4  5  2  0
  4 11  1  0
  5  6  1  0
  5 12  1  0
  6  7  2  0
  6 13  1  0
  7 14  1  0
 15 16  1  0
 15 23  1  0
 15 24  1  0
 15 25  1  0
 16 17  2  3
 16 27  1  0
 17 18  1  0
 17 22  1  0
 18 19  1  0
 18 28  1  0
 19 20  2  0
 19 29  1  0
 20 21  1  0
 20 30  1  0
 21 22  2  0
 21 31  1  0
 22 32  1  0
M  RAD  1  18   2
M  END
>  <reaction>  (13) 
rxn_1492

>  <mol_properties>  (13) 
{"0": {"label": "*3", "atom_type": "Cd"}, "1": {"label": "*4", "atom_type": "Cd"}, "15": {"label": "*1", "atom_type": "Cs"}, "16": {"label": "*0", "atom_type": "Cd"}, "25": {"label": "*2", "atom_type": "H0"}}

>  <type>  (13) 
unop_9

>  <geom_source>  (13) 
Heuristics

$$$$

     RDKit          3D

 32 32  0  0  0  0  0  0  0  0999 V2000
   -1.1167   -0.6770    0.5294 C   0  0  0  0  0  0  0  0  0  0  0  0
   -1.1160   -2.1025    0.0507 C   0  0  0  0  0  0  0  0  0  0  0  0
   -1.0911   -3.1595    0.9553 C   0  0  0  0  0  0  0  0  0  0  0  0
   -1.1209   -4.4746    0.5178 C   0  0  0  0  0  0  0  0  0  0  0  0
   -1.1747   -4.7565   -0.8386 C   0  0  0  0  0  0  0  0  0  0  0  0
   -1.1964   -3.7127   -1.7510 C   0  0  0  0  0  0  0  0  0  0  0  0
   -1.1665   -2.3995   -1.3078 C   0  0  0  0  0  0  0  0  0  0  0  0
   -0.5879   -0.5767    1.4779 H   0  0  0  0  0  0  0  0  0  0  0  0
   -2.1387   -0.3210    0.6829 H   0  0  0  0  0  0  0  0  0  0  0  0
   -1.0455   -2.9490    2.0180 H   0  0  0  0  0  0  0  0  0  0  0  0
   -1.0987   -5.2820    1.2393 H   0  0  0  0  0  0  0  0  0  0  0  0
   -1.1953   -5.7828   -1.1826 H   0  0  0  0  0  0  0  0  0  0  0  0
   -1.2336   -3.9212   -2.8131 H   0  0  0  0  0  0  0  0  0  0  0  0
   -1.1802   -1.5900   -2.0290 H   0  0  0  0  0  0  0  0  0  0  0  0
    0.9852    0.6218   -1.8704 C   0  0  0  0  0  0  0  0  0  0  0  0
    0.9852    0.6218   -0.3413 C   0  0  0  0  0  0  0  0  0  0  0  0
    0.9852    2.0161    0.2281 C   0  0  0  0  0  0  0  0  0  0  0  0
   -0.2093    2.6851    0.4759 C   0  0  0  0  0  3  0  0  0  0  0  0
   -0.2126    3.9853    0.9568 C   0  0  0  0  0  0  0  0  0  0  0  0
    0.9852    4.6406    1.1986 C   0  0  0  0  0  0  0  0  0  0  0  0
    2.1830    3.9853    0.9568 C   0  0  0  0  0  0  0  0  0  0  0  0
    2.1797    2.6851    0.4759 C   0  0  0  0  0  0  0  0  0  0  0  0
    1.8665    1.1369   -2.2572 H   0  0  0  0  0  0  0  0  0  0  0  0
    0.1039    1.1369   -2.2572 H   0  0  0  0  0  0  0  0  0  0  0  0
    0.9852   -0.3966   -2.2627 H   0  0  0  0  0  0  0  0  0  0  0  0
   -0.0667   -0.0282    0.0945 H   0  0  0  0  0  0  0  0  0  0  0  0
    1.8619    0.0802    0.0218 H   0  0  0  0  0  0  0  0  0  0  0  0
   -1.1502    2.1779    0.2921 H   0  0  0  0  0  0  0  0  0  0  0  0
   -1.1534    4.4870    1.1467 H   0  0  0  0  0  0  0  0  0  0  0  0
    0.9852    5.6550    1.5770 H   0  0  0  0  0  0  0  0  0  0  0  0
    3.1238    4.4870    1.1467 H   0  0  0  0  0  0  0  0  0  0  0  0
    3.1206    2.1779    0.2921 H   0  0  0  0  0  0  0  0  0  0  0  0
  1  2  1  0
  1  8  1  0
  1  9  1  0
  1 26  1  0
  2  3  2  0
  2  7  1  0
  3  4  1  0
  3 10  1  0
  4  5  2  0
  4 11  1  0
  5  6  1  0
  5 12  1  0
  6  7  2  0
  6 13  1  0
  7 14  1  0
 15 16  1  0
 15 23  1  0
 15 24  1  0
 15 25  1  0
 16 17  2  3
 16 27  1  0
 17 18  1  0
 17 22  1  0
 18 19  1  0
 18 28  1  0
 19 20  2  0
 19 29  1  0
 20 21  1  0
 20 30  1  0
 21 22  2  0
 21 31  1  0
 22 32  1  0
M  RAD  1  18   2
M  END
>  <reaction>  (14) 
rxn_1492

>  <mol_properties>  (14) 
{"0": {"label": "*3", "atom_type": "Cd"}, "1": {"label": "*4", "atom_type": "Cd"}, "15": {"label": "*1", "atom_type": "Cs"}, "16": {"label": "*0", "atom_type": "Cd"}, "25": {"label": "*2", "atom_type": "H0"}}

>  <type>  (14) 
unop_10

>  <geom_source>  (14) 
Heuristics

$$$$

     RDKit          3D

 32 32  0  0  0  0  0  0  0  0999 V2000
   -0.7817   -2.1605   -0.8470 C   0  0  0  0  0  0  0  0  0  0  0  0
   -1.2457   -1.6240    0.4789 C   0  0  0  0  0  0  0  0  0  0  0  0
   -2.3508   -2.1714    1.1235 C   0  0  0  0  0  0  0  0  0  0  0  0
   -2.7629   -1.6990    2.3599 C   0  0  0  0  0  0  0  0  0  0  0  0
   -2.0743   -0.6648    2.9753 C   0  0  0  0  0  0  0  0  0  0  0  0
   -0.9735   -0.1079    2.3425 C   0  0  0  0  0  0  0  0  0  0  0  0
   -0.5659   -0.5843    1.1060 C   0  0  0  0  0  0  0  0  0  0  0  0
   -1.6144   -2.5599   -1.4268 H   0  0  0  0  0  0  0  0  0  0  0  0
   -0.0607   -2.9698   -0.7058 H   0  0  0  0  0  0  0  0  0  0  0  0
   -2.8978   -2.9781    0.6485 H   0  0  0  0  0  0  0  0  0  0  0  0
   -3.6270   -2.1383    2.8428 H   0  0  0  0  0  0  0  0  0  0  0  0
   -2.3959   -0.2925    3.9396 H   0  0  0  0  0  0  0  0  0  0  0  0
   -0.4310    0.7036    2.8116 H   0  0  0  0  0  0  0  0  0  0  0  0
    0.2939   -0.1401    0.6173 H   0  0  0  0  0  0  0  0  0  0  0  0
    1.3203   -0.8617   -3.2468 C   0  0  0  0  0  0  0  0  0  0  0  0
    1.3203   -0.8617   -1.7177 C   0  0  0  0  0  0  0  0  0  0  0  0
    1.3203    0.5326   -1.1483 C   0  0  0  0  0  0  0  0  0  0  0  0
    0.1257    1.2015   -0.9005 C   0  0  0  0  0  3  0  0  0  0  0  0
    0.1225    2.5017   -0.4196 C   0  0  0  0  0  0  0  0  0  0  0  0
    1.3203    3.1571   -0.1778 C   0  0  0  0  0  0  0  0  0  0  0  0
    2.5181    2.5017   -0.4196 C   0  0  0  0  0  0  0  0  0  0  0  0
    2.5148    1.2015   -0.9005 C   0  0  0  0  0  0  0  0  0  0  0  0
    2.2015   -0.3467   -3.6336 H   0  0  0  0  0  0  0  0  0  0  0  0
    0.4390   -0.3467   -3.6336 H   0  0  0  0  0  0  0  0  0  0  0  0
    1.3203   -1.8801   -3.6391 H   0  0  0  0  0  0  0  0  0  0  0  0
    0.2683   -1.5117   -1.2819 H   0  0  0  0  0  0  0  0  0  0  0  0
    2.1969   -1.4034   -1.3545 H   0  0  0  0  0  0  0  0  0  0  0  0
   -0.8152    0.6943   -1.0843 H   0  0  0  0  0  0  0  0  0  0  0  0
   -0.8183    3.0034   -0.2297 H   0  0  0  0  0  0  0  0  0  0  0  0
    1.3203    4.1714    0.2006 H   0  0  0  0  0  0  0  0  0  0  0  0
    3.4589    3.0034   -0.2297 H   0  0  0  0  0  0  0  0  0  0  0  0
    3.4557    0.6943   -1.0843 H   0  0  0  0  0  0  0  0  0  0  0  0
  1  2  1  0
  1  8  1  0
  1  9  1  0
  1 26  1  0
  2  3  2  0
  2  7  1  0
  3  4  1  0
  3 10  1  0
  4  5  2  0
  4 11  1  0
  5  6  1  0
  5 12  1  0
  6  7  2  0
  6 13  1  0
  7 14  1  0
 15 16  1  0
 15 23  1  0
 15 24  1  0
 15 25  1  0
 16 17  2  3
 16 27  1  0
 17 18  1  0
 17 22  1  0
 18 19  1  0
 18 28  1  0
 19 20  2  0
 19 29  1  0
 20 21  1  0
 20 30  1  0
 21 22  2  0
 21 31  1  0
 22 32  1  0
M  RAD  1  18   2
M  END
>  <reaction>  (15) 
rxn_1492

>  <mol_properties>  (15) 
{"0": {"label": "*3", "atom_type": "Cd"}, "1": {"label": "*4", "atom_type": "Cd"}, "15": {"label": "*1", "atom_type": "Cs"}, "16": {"label": "*0", "atom_type": "Cd"}, "25": {"label": "*2", "atom_type": "H0"}}

>  <type>  (15) 
unop_11

>  <geom_source>  (15) 
Heuristics

$$$$

     RDKit          3D

 32 32  0  0  0  0  0  0  0  0999 V2000
   -0.4819   -1.3755    1.0300 C   0  0  0  0  0  0  0  0  0  0  0  0
   -1.3169   -1.8914   -0.1092 C   0  0  0  0  0  0  0  0  0  0  0  0
   -2.0832   -3.0443    0.0320 C   0  0  0  0  0  0  0  0  0  0  0  0
   -2.8773   -3.5056   -1.0065 C   0  0  0  0  0  0  0  0  0  0  0  0
   -2.9176   -2.8192   -2.2105 C   0  0  0  0  0  0  0  0  0  0  0  0
   -2.1563   -1.6708   -2.3658 C   0  0  0  0  0  0  0  0  0  0  0  0
   -1.3640   -1.2142   -1.3239 C   0  0  0  0  0  0  0  0  0  0  0  0
   -0.1390   -2.1887    1.6706 H   0  0  0  0  0  0  0  0  0  0  0  0
   -1.0597   -0.6874    1.6524 H   0  0  0  0  0  0  0  0  0  0  0  0
   -2.0554   -3.5899    0.9686 H   0  0  0  0  0  0  0  0  0  0  0  0
   -3.4641   -4.4063   -0.8756 H   0  0  0  0  0  0  0  0  0  0  0  0
   -3.5350   -3.1790   -3.0237 H   0  0  0  0  0  0  0  0  0  0  0  0
   -2.1763   -1.1293   -3.3035 H   0  0  0  0  0  0  0  0  0  0  0  0
   -0.7693   -0.3172   -1.4560 H   0  0  0  0  0  0  0  0  0  0  0  0
    1.6200   -0.0767   -1.3698 C   0  0  0  0  0  0  0  0  0  0  0  0
    1.6200   -0.0767    0.1594 C   0  0  0  0  0  0  0  0  0  0  0  0
    1.6200    1.3176    0.7288 C   0  0  0  0  0  0  0  0  0  0  0  0
    0.4255    1.9865    0.9765 C   0  0  0  0  0  3  0  0  0  0  0  0
    0.4222    3.2867    1.4574 C   0  0  0  0  0  0  0  0  0  0  0  0
    1.6200    3.9421    1.6992 C   0  0  0  0  0  0  0  0  0  0  0  0
    2.8178    3.2867    1.4574 C   0  0  0  0  0  0  0  0  0  0  0  0
    2.8145    1.9865    0.9765 C   0  0  0  0  0  0  0  0  0  0  0  0
    2.5013    0.4384   -1.7566 H   0  0  0  0  0  0  0  0  0  0  0  0
    0.7387    0.4384   -1.7566 H   0  0  0  0  0  0  0  0  0  0  0  0
    1.6200   -1.0951   -1.7621 H   0  0  0  0  0  0  0  0  0  0  0  0
    0.5680   -0.7267    0.5951 H   0  0  0  0  0  0  0  0  0  0  0  0
    2.4966   -0.6184    0.5225 H   0  0  0  0  0  0  0  0  0  0  0  0
   -0.5154    1.4793    0.7928 H   0  0  0  0  0  0  0  0  0  0  0  0
   -0.5186    3.7884    1.6473 H   0  0  0  0  0  0  0  0  0  0  0  0
    1.6200    4.9564    2.0776 H   0  0  0  0  0  0  0  0  0  0  0  0
    3.7586    3.7884    1.6473 H   0  0  0  0  0  0  0  0  0  0  0  0
    3.7554    1.4793    0.7928 H   0  0  0  0  0  0  0  0  0  0  0  0
  1  2  1  0
  1  8  1  0
  1  9  1  0
  1 26  1  0
  2  3  2  0
  2  7  1  0
  3  4  1  0
  3 10  1  0
  4  5  2  0
  4 11  1  0
  5  6  1  0
  5 12  1  0
  6  7  2  0
  6 13  1  0
  7 14  1  0
 15 16  1  0
 15 23  1  0
 15 24  1  0
 15 25  1  0
 16 17  2  3
 16 27  1  0
 17 18  1  0
 17 22  1  0
 18 19  1  0
 18 28  1  0
 19 20  2  0
 19 29  1  0
 20 21  1  0
 20 30  1  0
 21 22  2  0
 21 31  1  0
 22 32  1  0
M  RAD  1  18   2
M  END
>  <reaction>  (16) 
rxn_1492

>  <mol_properties>  (16) 
{"0": {"label": "*3", "atom_type": "Cd"}, "1": {"label": "*4", "atom_type": "Cd"}, "15": {"label": "*1", "atom_type": "Cs"}, "16": {"label": "*0", "atom_type": "Cd"}, "25": {"label": "*2", "atom_type": "H0"}}

>  <type>  (16) 
unop_12

>  <geom_source>  (16) 
Heuristics

$$$$

     RDKit          3D

 32 32  0  0  0  0  0  0  0  0999 V2000
    1.1458   -1.1995    0.2256 C   0  0  0  0  0  0  0  0  0  0  0  0
   -1.4391   -1.9174   -1.5949 C   0  0  0  0  0  0  0  0  0  0  0  0
    2.3399   -0.2957    0.1667 C   0  0  0  0  0  0  0  0  0  0  0  0
   -2.1029    0.0522   -0.2129 C   0  0  0  0  0  0  0  0  0  0  0  0
   -1.0354   -0.5414   -1.0817 C   0  0  0  0  0  0  0  0  0  0  0  0
    3.3989   -0.4616    1.0739 C   0  0  0  0  0  0  0  0  0  0  0  0
    2.4380    0.6801   -0.8378 C   0  0  0  0  0  0  0  0  0  0  0  0
   -2.0009   -0.0531    1.1813 C   0  0  0  0  0  3  0  0  0  0  0  0
   -3.2202    0.6852   -0.7813 C   0  0  0  0  0  0  0  0  0  0  0  0
    4.5283    0.3596    0.9943 C   0  0  0  0  0  0  0  0  0  0  0  0
    4.6123    1.3410    0.0025 C   0  0  0  0  0  0  0  0  0  0  0  0
    3.5691    1.4994   -0.9142 C   0  0  0  0  0  0  0  0  0  0  0  0
   -3.0013    0.4801    2.0008 C   0  0  0  0  0  0  0  0  0  0  0  0
   -4.1088    1.1156    1.4311 C   0  0  0  0  0  0  0  0  0  0  0  0
   -4.2186    1.2172    0.0410 C   0  0  0  0  0  0  0  0  0  0  0  0
    0.9296   -1.4932    1.2749 H   0  0  0  0  0  0  0  0  0  0  0  0
    1.3436   -2.1126   -0.3737 H   0  0  0  0  0  0  0  0  0  0  0  0
    0.1033   -0.6039   -0.2457 H   0  0  0  0  0  0  0  0  0  0  0  0
   -2.3469   -1.8423   -2.2309 H   0  0  0  0  0  0  0  0  0  0  0  0
   -1.6402   -2.5992   -0.7416 H   0  0  0  0  0  0  0  0  0  0  0  0
   -0.6107   -2.3404   -2.2001 H   0  0  0  0  0  0  0  0  0  0  0  0
   -0.7965    0.1354   -1.9305 H   0  0  0  0  0  0  0  0  0  0  0  0
    3.3498   -1.2244    1.8411 H   0  0  0  0  0  0  0  0  0  0  0  0
    5.3399    0.2326    1.6990 H   0  0  0  0  0  0  0  0  0  0  0  0
    5.4875    1.9748   -0.0588 H   0  0  0  0  0  0  0  0  0  0  0  0
    3.6385    2.2545   -1.6866 H   0  0  0  0  0  0  0  0  0  0  0  0
    1.6414    0.8069   -1.5604 H   0  0  0  0  0  0  0  0  0  0  0  0
   -1.1489   -0.5474    1.6317 H   0  0  0  0  0  0  0  0  0  0  0  0
   -2.9188    0.3992    3.0769 H   0  0  0  0  0  0  0  0  0  0  0  0
   -3.3165    0.7647   -1.8571 H   0  0  0  0  0  0  0  0  0  0  0  0
   -4.8824    1.5271    2.0664 H   0  0  0  0  0  0  0  0  0  0  0  0
   -5.0779    1.7064   -0.3991 H   0  0  0  0  0  0  0  0  0  0  0  0
  1  3  1  0
  1 16  1  0
  1 17  1  0
  1 18  1  0
  2  5  1  0
  2 19  1  0
  2 20  1  0
  2 21  1  0
  3  6  2  0
  3  7  1  0
  4  5  2  3
  4  8  1  0
  4  9  1  0
  5 22  1  0
  6 10  1  0
  6 23  1  0
  7 12  2  0
  7 27  1  0
  8 13  1  0
  8 28  1  0
  9 15  2  0
  9 30  1  0
 10 11  2  0
 10 24  1  0
 11 12  1  0
 11 25  1  0
 12 26  1  0
 13 14  2  0
 13 29  1  0
 14 15  1  0
 14 31  1  0
 15 32  1  0
M  RAD  1   8   2
M  END
>  <reaction>  (17) 
rxn_1492

>  <mol_properties>  (17) 
{"0": {"label": "*3", "atom_type": "Cd"}, "1": {"label": "*4", "atom_type": "Cd"}, "15": {"label": "*1", "atom_type": "Cs"}, "16": {"label": "*0", "atom_type": "Cd"}, "25": {"label": "*2", "atom_type": "H0"}}

>  <type>  (17) 
unop_13

>  <geom_source>  (17) 
AutoTST

$$$$
