
     RDKit          3D

  7  6  0  0  0  0  0  0  0  0999 V2000
   -0.6782    0.0507    0.0301 C   0  0  0  0  0  0  0  0  0  0  0  0
    0.8092    0.0996    0.0213 C   0  0  0  0  0  0  0  0  0  0  0  0
    1.7473    0.7521    1.1507 S   0  0  0  0  0  0  0  0  0  0  0  0
   -1.0667    0.5456   -0.8653 H   0  0  0  0  0  0  0  0  0  0  0  0
   -1.0112   -0.9904   -0.0239 H   0  0  0  0  0  0  0  0  0  0  0  0
   -1.0920    0.5225    0.9188 H   0  0  0  0  0  0  0  0  0  0  0  0
    1.2740   -0.3620   -0.8520 H   0  0  0  0  0  0  0  0  0  0  0  0
  1  2  1  0
  1  4  1  0
  1  5  1  0
  1  6  1  0
  2  3  2  0
  2  7  1  0
M  END
>  <reaction>  (1) 
rxn_1969

>  <mol_properties>  (1) 
{"0": {"label": "donator", "atom_type": "Cs"}, "3": {"label": "d_hydrogen", "atom_type": "H0"}}

>  <type>  (1) 
r1h

$$$$

     RDKit          3D

  5  4  0  0  0  0  0  0  0  0999 V2000
    0.0397    0.7134    0.0000 C   0  0  0  0  0  3  0  0  0  0  0  0
    0.0458   -0.5870    0.0000 C   0  0  0  0  0  0  0  0  0  0  0  0
   -0.6871    1.5118    0.0000 H   0  0  0  0  0  0  0  0  0  0  0  0
   -0.8806   -1.1637    0.0000 H   0  0  0  0  0  0  0  0  0  0  0  0
    0.9690   -1.1600    0.0000 H   0  0  0  0  0  0  0  0  0  0  0  0
  1  2  2  3
  1  3  1  0
  2  4  1  0
  2  5  1  0
M  RAD  1   1   2
M  END
>  <reaction>  (2) 
rxn_1969

>  <mol_properties>  (2) 
{"0": {"label": "acceptor", "atom_type": "Cd"}}

>  <type>  (2) 
r2

$$$$

     RDKit          3D

  6  5  0  0  0  0  0  0  0  0999 V2000
    0.6594    0.0438   -0.0050 C   0  0  0  0  0  0  0  0  0  0  0  0
   -0.6594   -0.0438    0.0050 C   0  0  0  0  0  0  0  0  0  0  0  0
    1.1706    0.8681   -0.4881 H   0  0  0  0  0  0  0  0  0  0  0  0
    1.2824   -0.7051    0.4696 H   0  0  0  0  0  0  0  0  0  0  0  0
   -1.2824    0.7051   -0.4696 H   0  0  0  0  0  0  0  0  0  0  0  0
   -1.1706   -0.8681    0.4881 H   0  0  0  0  0  0  0  0  0  0  0  0
  1  2  2  3
  1  3  1  0
  1  4  1  0
  2  5  1  0
  2  6  1  0
M  END
>  <reaction>  (3) 
rxn_1969

>  <mol_properties>  (3) 
{"0": {"label": "acceptor", "atom_type": "Cd"}, "5": {"label": "a_hydrogen", "atom_type": "H0"}}

>  <type>  (3) 
r2h

$$$$

     RDKit          3D

 12 10  0  0  0  0  0  0  0  0999 V2000
   -1.3109    0.7543    2.2281 C   0  0  0  0  0  3  0  0  0  0  0  0
   -2.1271   -0.1899    1.8461 C   0  0  0  0  0  0  0  0  0  0  0  0
   -1.3376    1.4832    3.0265 H   0  0  0  0  0  0  0  0  0  0  0  0
   -3.0644   -0.3817    2.3650 H   0  0  0  0  0  0  0  0  0  0  0  0
   -1.9056   -0.8205    0.9888 H   0  0  0  0  0  0  0  0  0  0  0  0
    0.8566    0.8086    0.5454 C   0  0  0  0  0  0  0  0  0  0  0  0
    0.7689   -0.4545   -0.1741 C   0  0  0  0  0  0  0  0  0  0  0  0
    0.1071   -0.6703   -1.6383 S   0  0  0  0  0  0  0  0  0  0  0  0
   -0.0669    0.8149    1.3333 H   0  0  0  0  0  0  0  0  0  0  0  0
    1.7310    0.8917    1.1907 H   0  0  0  0  0  0  0  0  0  0  0  0
    0.6974    1.6870   -0.0753 H   0  0  0  0  0  0  0  0  0  0  0  0
    1.1539   -1.3226    0.3628 H   0  0  0  0  0  0  0  0  0  0  0  0
  1  2  2  3
  1  3  1  0
  2  4  1  0
  2  5  1  0
  6  7  1  0
  6  9  1  0
  6 10  1  0
  6 11  1  0
  7  8  2  0
  7 12  1  0
M  RAD  1   1   2
M  END
>  <reaction>  (4) 
rxn_1969

>  <mol_properties>  (4) 
{"0": {"label": "*3", "atom_type": "Cd"}, "1": {"label": "*4", "atom_type": "Cd"}, "5": {"label": "*1", "atom_type": "Cs"}, "6": {"label": "*0", "atom_type": "CS"}, "8": {"label": "*2", "atom_type": "H0"}}

>  <type>  (4) 
ts

$$$$

     RDKit          3D

 12 10  0  0  0  0  0  0  0  0999 V2000
   -1.4528    0.5723    1.8896 C   0  0  0  0  0  0  0  0  0  0  0  0
   -1.3338    0.5503    3.2058 C   0  0  0  0  0  0  0  0  0  0  0  0
   -2.1568    1.2301    1.3936 H   0  0  0  0  0  0  0  0  0  0  0  0
   -1.9354    1.1890    3.8417 H   0  0  0  0  0  0  0  0  0  0  0  0
   -0.6299   -0.1075    3.7019 H   0  0  0  0  0  0  0  0  0  0  0  0
    0.6395    0.6366    0.3248 C   0  0  0  0  0  0  0  0  0  0  0  0
    0.6395   -0.5619   -0.5574 C   0  0  0  0  0  0  0  0  0  0  0  0
    0.6395   -0.5619   -2.1641 S   0  0  0  0  0  1  0  0  0  0  0  0
   -0.4118    0.6043    1.1111 H   0  0  0  0  0  0  0  0  0  0  0  0
    1.5157    0.6097    0.9800 H   0  0  0  0  0  0  0  0  0  0  0  0
    0.6395    1.5604   -0.2499 H   0  0  0  0  0  0  0  0  0  0  0  0
    0.6396   -1.5163   -0.0275 H   0  0  0  0  0  0  0  0  0  0  0  0
  1  2  2  3
  1  3  1  0
  1  9  1  0
  2  4  1  0
  2  5  1  0
  6  7  2  3
  6 10  1  0
  6 11  1  0
  7  8  1  0
  7 12  1  0
M  RAD  1   8   2
M  END
>  <reaction>  (5) 
rxn_1969

>  <mol_properties>  (5) 
{"0": {"label": "*3", "atom_type": "Cd"}, "1": {"label": "*4", "atom_type": "Cd"}, "5": {"label": "*1", "atom_type": "Cs"}, "6": {"label": "*0", "atom_type": "CS"}, "8": {"label": "*2", "atom_type": "H0"}}

>  <type>  (5) 
unop_1

>  <geom_source>  (5) 
Heuristics

$$$$

     RDKit          3D

 12 10  0  0  0  0  0  0  0  0999 V2000
   -1.3466    0.7607    2.0356 C   0  0  0  0  0  0  0  0  0  0  0  0
   -1.8825   -0.3813    2.4301 C   0  0  0  0  0  0  0  0  0  0  0  0
   -1.5543    1.6929    2.5476 H   0  0  0  0  0  0  0  0  0  0  0  0
   -2.5511   -0.4313    3.2814 H   0  0  0  0  0  0  0  0  0  0  0  0
   -1.6748   -1.3135    1.9181 H   0  0  0  0  0  0  0  0  0  0  0  0
    0.7458    0.8249    0.4707 C   0  0  0  0  0  0  0  0  0  0  0  0
    0.7458   -0.3736   -0.4115 C   0  0  0  0  0  0  0  0  0  0  0  0
    0.7458   -0.3736   -2.0181 S   0  0  0  0  0  1  0  0  0  0  0  0
   -0.3056    0.7926    1.2570 H   0  0  0  0  0  0  0  0  0  0  0  0
    1.6220    0.7980    1.1260 H   0  0  0  0  0  0  0  0  0  0  0  0
    0.7458    1.7487   -0.1039 H   0  0  0  0  0  0  0  0  0  0  0  0
    0.7458   -1.3280    0.1185 H   0  0  0  0  0  0  0  0  0  0  0  0
  1  2  2  3
  1  3  1  0
  1  9  1  0
  2  4  1  0
  2  5  1  0
  6  7  2  3
  6 10  1  0
  6 11  1  0
  7  8  1  0
  7 12  1  0
M  RAD  1   8   2
M  END
>  <reaction>  (6) 
rxn_1969

>  <mol_properties>  (6) 
{"0": {"label": "*3", "atom_type": "Cd"}, "1": {"label": "*4", "atom_type": "Cd"}, "5": {"label": "*1", "atom_type": "Cs"}, "6": {"label": "*0", "atom_type": "CS"}, "8": {"label": "*2", "atom_type": "H0"}}

>  <type>  (6) 
unop_2

>  <geom_source>  (6) 
Heuristics

$$$$

     RDKit          3D

 12 10  0  0  0  0  0  0  0  0999 V2000
   -1.4337    0.4831    1.9101 C   0  0  0  0  0  0  0  0  0  0  0  0
   -1.4146    1.0242    3.1158 C   0  0  0  0  0  0  0  0  0  0  0  0
   -2.3135    0.5315    1.2793 H   0  0  0  0  0  0  0  0  0  0  0  0
   -2.2779    1.5379    3.5221 H   0  0  0  0  0  0  0  0  0  0  0  0
   -0.5348    0.9758    3.7466 H   0  0  0  0  0  0  0  0  0  0  0  0
    0.6587    0.5473    0.3452 C   0  0  0  0  0  0  0  0  0  0  0  0
    0.6587   -0.6511   -0.5370 C   0  0  0  0  0  0  0  0  0  0  0  0
    0.6587   -0.6511   -2.1436 S   0  0  0  0  0  1  0  0  0  0  0  0
   -0.3927    0.5151    1.1315 H   0  0  0  0  0  0  0  0  0  0  0  0
    1.5348    0.5204    1.0005 H   0  0  0  0  0  0  0  0  0  0  0  0
    0.6586    1.4711   -0.2294 H   0  0  0  0  0  0  0  0  0  0  0  0
    0.6587   -1.6056   -0.0070 H   0  0  0  0  0  0  0  0  0  0  0  0
  1  2  2  3
  1  3  1  0
  1  9  1  0
  2  4  1  0
  2  5  1  0
  6  7  2  3
  6 10  1  0
  6 11  1  0
  7  8  1  0
  7 12  1  0
M  RAD  1   8   2
M  END
>  <reaction>  (7) 
rxn_1969

>  <mol_properties>  (7) 
{"0": {"label": "*3", "atom_type": "Cd"}, "1": {"label": "*4", "atom_type": "Cd"}, "5": {"label": "*1", "atom_type": "Cs"}, "6": {"label": "*0", "atom_type": "CS"}, "8": {"label": "*2", "atom_type": "H0"}}

>  <type>  (7) 
unop_3

>  <geom_source>  (7) 
Heuristics

$$$$

     RDKit          3D

 12 10  0  0  0  0  0  0  0  0999 V2000
   -1.2331    0.5727    2.1812 C   0  0  0  0  0  0  0  0  0  0  0  0
   -2.4622    0.5607    1.6952 C   0  0  0  0  0  0  0  0  0  0  0  0
   -0.9995    1.0527    3.1242 H   0  0  0  0  0  0  0  0  0  0  0  0
   -3.2856    1.0303    2.2202 H   0  0  0  0  0  0  0  0  0  0  0  0
   -2.6959    0.0807    0.7522 H   0  0  0  0  0  0  0  0  0  0  0  0
    0.8592    0.6369    0.6163 C   0  0  0  0  0  0  0  0  0  0  0  0
    0.8592   -0.5616   -0.2659 C   0  0  0  0  0  0  0  0  0  0  0  0
    0.8592   -0.5616   -1.8725 S   0  0  0  0  0  1  0  0  0  0  0  0
   -0.1921    0.6046    1.4026 H   0  0  0  0  0  0  0  0  0  0  0  0
    1.7354    0.6100    1.2715 H   0  0  0  0  0  0  0  0  0  0  0  0
    0.8592    1.5607    0.0416 H   0  0  0  0  0  0  0  0  0  0  0  0
    0.8592   -1.5160    0.2641 H   0  0  0  0  0  0  0  0  0  0  0  0
  1  2  2  3
  1  3  1  0
  1  9  1  0
  2  4  1  0
  2  5  1  0
  6  7  2  3
  6 10  1  0
  6 11  1  0
  7  8  1  0
  7 12  1  0
M  RAD  1   8   2
M  END
>  <reaction>  (8) 
rxn_1969

>  <mol_properties>  (8) 
{"0": {"label": "*3", "atom_type": "Cd"}, "1": {"label": "*4", "atom_type": "Cd"}, "5": {"label": "*1", "atom_type": "Cs"}, "6": {"label": "*0", "atom_type": "CS"}, "8": {"label": "*2", "atom_type": "H0"}}

>  <type>  (8) 
unop_4

>  <geom_source>  (8) 
Heuristics

$$$$

     RDKit          3D

 12 10  0  0  0  0  0  0  0  0999 V2000
   -1.3928    0.4227    1.9592 C   0  0  0  0  0  0  0  0  0  0  0  0
   -1.6274    1.3774    2.8427 C   0  0  0  0  0  0  0  0  0  0  0  0
   -2.0586   -0.4250    1.8481 H   0  0  0  0  0  0  0  0  0  0  0  0
   -2.4949    1.3508    3.4915 H   0  0  0  0  0  0  0  0  0  0  0  0
   -0.9616    2.2251    2.9537 H   0  0  0  0  0  0  0  0  0  0  0  0
    0.6996    0.4870    0.3943 C   0  0  0  0  0  0  0  0  0  0  0  0
    0.6996   -0.7115   -0.4879 C   0  0  0  0  0  0  0  0  0  0  0  0
    0.6996   -0.7115   -2.0945 S   0  0  0  0  0  1  0  0  0  0  0  0
   -0.3518    0.4547    1.1806 H   0  0  0  0  0  0  0  0  0  0  0  0
    1.5757    0.4601    1.0496 H   0  0  0  0  0  0  0  0  0  0  0  0
    0.6996    1.4108   -0.1803 H   0  0  0  0  0  0  0  0  0  0  0  0
    0.6996   -1.6659    0.0421 H   0  0  0  0  0  0  0  0  0  0  0  0
  1  2  2  3
  1  3  1  0
  1  9  1  0
  2  4  1  0
  2  5  1  0
  6  7  2  3
  6 10  1  0
  6 11  1  0
  7  8  1  0
  7 12  1  0
M  RAD  1   8   2
M  END
>  <reaction>  (9) 
rxn_1969

>  <mol_properties>  (9) 
{"0": {"label": "*3", "atom_type": "Cd"}, "1": {"label": "*4", "atom_type": "Cd"}, "5": {"label": "*1", "atom_type": "Cs"}, "6": {"label": "*0", "atom_type": "CS"}, "8": {"label": "*2", "atom_type": "H0"}}

>  <type>  (9) 
unop_5

>  <geom_source>  (9) 
Heuristics

$$$$

     RDKit          3D

 12 10  0  0  0  0  0  0  0  0999 V2000
   -1.2488    0.4810    2.1580 C   0  0  0  0  0  0  0  0  0  0  0  0
   -2.3971    1.0308    1.8031 C   0  0  0  0  0  0  0  0  0  0  0  0
   -0.8562    0.5833    3.1628 H   0  0  0  0  0  0  0  0  0  0  0  0
   -2.9922    1.6060    2.5026 H   0  0  0  0  0  0  0  0  0  0  0  0
   -2.7898    0.9284    0.7983 H   0  0  0  0  0  0  0  0  0  0  0  0
    0.8436    0.5452    0.5932 C   0  0  0  0  0  0  0  0  0  0  0  0
    0.8436   -0.6533   -0.2890 C   0  0  0  0  0  0  0  0  0  0  0  0
    0.8436   -0.6533   -1.8957 S   0  0  0  0  0  1  0  0  0  0  0  0
   -0.2078    0.5129    1.3795 H   0  0  0  0  0  0  0  0  0  0  0  0
    1.7197    0.5183    1.2484 H   0  0  0  0  0  0  0  0  0  0  0  0
    0.8436    1.4690    0.0185 H   0  0  0  0  0  0  0  0  0  0  0  0
    0.8436   -1.6077    0.2409 H   0  0  0  0  0  0  0  0  0  0  0  0
  1  2  2  3
  1  3  1  0
  1  9  1  0
  2  4  1  0
  2  5  1  0
  6  7  2  3
  6 10  1  0
  6 11  1  0
  7  8  1  0
  7 12  1  0
M  RAD  1   8   2
M  END
>  <reaction>  (10) 
rxn_1969

>  <mol_properties>  (10) 
{"0": {"label": "*3", "atom_type": "Cd"}, "1": {"label": "*4", "atom_type": "Cd"}, "5": {"label": "*1", "atom_type": "Cs"}, "6": {"label": "*0", "atom_type": "CS"}, "8": {"label": "*2", "atom_type": "H0"}}

>  <type>  (10) 
unop_6

>  <geom_source>  (10) 
Heuristics

$$$$

     RDKit          3D

 12 10  0  0  0  0  0  0  0  0999 V2000
   -1.2898    0.4166    2.1012 C   0  0  0  0  0  0  0  0  0  0  0  0
   -2.1984    1.3763    2.0836 C   0  0  0  0  0  0  0  0  0  0  0  0
   -0.8950    0.0246    3.0311 H   0  0  0  0  0  0  0  0  0  0  0  0
   -2.5851    1.8098    2.9984 H   0  0  0  0  0  0  0  0  0  0  0  0
   -2.5932    1.7683    1.1537 H   0  0  0  0  0  0  0  0  0  0  0  0
    0.8026    0.4808    0.5364 C   0  0  0  0  0  0  0  0  0  0  0  0
    0.8026   -0.7176   -0.3458 C   0  0  0  0  0  0  0  0  0  0  0  0
    0.8026   -0.7176   -1.9525 S   0  0  0  0  0  1  0  0  0  0  0  0
   -0.2488    0.4486    1.3227 H   0  0  0  0  0  0  0  0  0  0  0  0
    1.6787    0.4540    1.1916 H   0  0  0  0  0  0  0  0  0  0  0  0
    0.8025    1.4046   -0.0383 H   0  0  0  0  0  0  0  0  0  0  0  0
    0.8026   -1.6721    0.1841 H   0  0  0  0  0  0  0  0  0  0  0  0
  1  2  2  3
  1  3  1  0
  1  9  1  0
  2  4  1  0
  2  5  1  0
  6  7  2  3
  6 10  1  0
  6 11  1  0
  7  8  1  0
  7 12  1  0
M  RAD  1   8   2
M  END
>  <reaction>  (11) 
rxn_1969

>  <mol_properties>  (11) 
{"0": {"label": "*3", "atom_type": "Cd"}, "1": {"label": "*4", "atom_type": "Cd"}, "5": {"label": "*1", "atom_type": "Cs"}, "6": {"label": "*0", "atom_type": "CS"}, "8": {"label": "*2", "atom_type": "H0"}}

>  <type>  (11) 
unop_7

>  <geom_source>  (11) 
Heuristics

$$$$

     RDKit          3D

 12 10  0  0  0  0  0  0  0  0999 V2000
   -1.4414    0.6650    1.9080 C   0  0  0  0  0  0  0  0  0  0  0  0
   -1.4031    0.0811    3.0932 C   0  0  0  0  0  0  0  0  0  0  0  0
   -1.9378    1.6167    1.7590 H   0  0  0  0  0  0  0  0  0  0  0  0
   -1.8666    0.5306    3.9635 H   0  0  0  0  0  0  0  0  0  0  0  0
   -0.9068   -0.8705    3.2422 H   0  0  0  0  0  0  0  0  0  0  0  0
    0.6510    0.7292    0.3432 C   0  0  0  0  0  0  0  0  0  0  0  0
    0.6510   -0.4692   -0.5390 C   0  0  0  0  0  0  0  0  0  0  0  0
    0.6510   -0.4692   -2.1457 S   0  0  0  0  0  1  0  0  0  0  0  0
   -0.4004    0.6970    1.1295 H   0  0  0  0  0  0  0  0  0  0  0  0
    1.5271    0.7024    0.9984 H   0  0  0  0  0  0  0  0  0  0  0  0
    0.6509    1.6530   -0.2315 H   0  0  0  0  0  0  0  0  0  0  0  0
    0.6510   -1.4237   -0.0091 H   0  0  0  0  0  0  0  0  0  0  0  0
  1  2  2  3
  1  3  1  0
  1  9  1  0
  2  4  1  0
  2  5  1  0
  6  7  2  3
  6 10  1  0
  6 11  1  0
  7  8  1  0
  7 12  1  0
M  RAD  1   8   2
M  END
>  <reaction>  (12) 
rxn_1969

>  <mol_properties>  (12) 
{"0": {"label": "*3", "atom_type": "Cd"}, "1": {"label": "*4", "atom_type": "Cd"}, "5": {"label": "*1", "atom_type": "Cs"}, "6": {"label": "*0", "atom_type": "CS"}, "8": {"label": "*2", "atom_type": "H0"}}

>  <type>  (12) 
unop_8

>  <geom_source>  (12) 
Heuristics

$$$$

     RDKit          3D

 12 10  0  0  0  0  0  0  0  0999 V2000
   -1.2479    0.6664    2.1637 C   0  0  0  0  0  0  0  0  0  0  0  0
   -2.3771    0.0913    1.7881 C   0  0  0  0  0  0  0  0  0  0  0  0
   -1.2144    1.3682    2.9887 H   0  0  0  0  0  0  0  0  0  0  0  0
   -3.3148    0.2983    2.2901 H   0  0  0  0  0  0  0  0  0  0  0  0
   -2.4106   -0.6105    0.9631 H   0  0  0  0  0  0  0  0  0  0  0  0
    0.8445    0.7306    0.5988 C   0  0  0  0  0  0  0  0  0  0  0  0
    0.8445   -0.4678   -0.2834 C   0  0  0  0  0  0  0  0  0  0  0  0
    0.8445   -0.4678   -1.8901 S   0  0  0  0  0  1  0  0  0  0  0  0
   -0.2069    0.6984    1.3851 H   0  0  0  0  0  0  0  0  0  0  0  0
    1.7206    0.7038    1.2540 H   0  0  0  0  0  0  0  0  0  0  0  0
    0.8445    1.6544    0.0241 H   0  0  0  0  0  0  0  0  0  0  0  0
    0.8445   -1.4222    0.2465 H   0  0  0  0  0  0  0  0  0  0  0  0
  1  2  2  3
  1  3  1  0
  1  9  1  0
  2  4  1  0
  2  5  1  0
  6  7  2  3
  6 10  1  0
  6 11  1  0
  7  8  1  0
  7 12  1  0
M  RAD  1   8   2
M  END
>  <reaction>  (13) 
rxn_1969

>  <mol_properties>  (13) 
{"0": {"label": "*3", "atom_type": "Cd"}, "1": {"label": "*4", "atom_type": "Cd"}, "5": {"label": "*1", "atom_type": "Cs"}, "6": {"label": "*0", "atom_type": "CS"}, "8": {"label": "*2", "atom_type": "H0"}}

>  <type>  (13) 
unop_9

>  <geom_source>  (13) 
Heuristics

$$$$

     RDKit          3D

 12 10  0  0  0  0  0  0  0  0999 V2000
   -1.4025    0.7344    1.9614 C   0  0  0  0  0  0  0  0  0  0  0  0
   -1.6039   -0.2594    2.8092 C   0  0  0  0  0  0  0  0  0  0  0  0
   -1.7242    1.7451    2.1835 H   0  0  0  0  0  0  0  0  0  0  0  0
   -2.0989   -0.1035    3.7605 H   0  0  0  0  0  0  0  0  0  0  0  0
   -1.2821   -1.2700    2.5871 H   0  0  0  0  0  0  0  0  0  0  0  0
    0.6899    0.7987    0.3966 C   0  0  0  0  0  0  0  0  0  0  0  0
    0.6899   -0.3998   -0.4856 C   0  0  0  0  0  0  0  0  0  0  0  0
    0.6899   -0.3998   -2.0923 S   0  0  0  0  0  1  0  0  0  0  0  0
   -0.3614    0.7664    1.1829 H   0  0  0  0  0  0  0  0  0  0  0  0
    1.5661    0.7718    1.0518 H   0  0  0  0  0  0  0  0  0  0  0  0
    0.6899    1.7225   -0.1781 H   0  0  0  0  0  0  0  0  0  0  0  0
    0.6899   -1.3542    0.0443 H   0  0  0  0  0  0  0  0  0  0  0  0
  1  2  2  3
  1  3  1  0
  1  9  1  0
  2  4  1  0
  2  5  1  0
  6  7  2  3
  6 10  1  0
  6 11  1  0
  7  8  1  0
  7 12  1  0
M  RAD  1   8   2
M  END
>  <reaction>  (14) 
rxn_1969

>  <mol_properties>  (14) 
{"0": {"label": "*3", "atom_type": "Cd"}, "1": {"label": "*4", "atom_type": "Cd"}, "5": {"label": "*1", "atom_type": "Cs"}, "6": {"label": "*0", "atom_type": "CS"}, "8": {"label": "*2", "atom_type": "H0"}}

>  <type>  (14) 
unop_10

>  <geom_source>  (14) 
Heuristics

$$$$

     RDKit          3D

 12 10  0  0  0  0  0  0  0  0999 V2000
   -1.3435    0.3969    2.0272 C   0  0  0  0  0  0  0  0  0  0  0  0
   -1.9176    1.5048    2.4629 C   0  0  0  0  0  0  0  0  0  0  0  0
   -1.2533   -0.4815    2.6554 H   0  0  0  0  0  0  0  0  0  0  0  0
   -2.3212    1.5793    3.4658 H   0  0  0  0  0  0  0  0  0  0  0  0
   -2.0079    2.3832    1.8347 H   0  0  0  0  0  0  0  0  0  0  0  0
    0.7489    0.4611    0.4624 C   0  0  0  0  0  0  0  0  0  0  0  0
    0.7489   -0.7373   -0.4198 C   0  0  0  0  0  0  0  0  0  0  0  0
    0.7489   -0.7373   -2.0265 S   0  0  0  0  0  1  0  0  0  0  0  0
   -0.3025    0.4288    1.2486 H   0  0  0  0  0  0  0  0  0  0  0  0
    1.6250    0.4342    1.1176 H   0  0  0  0  0  0  0  0  0  0  0  0
    0.7489    1.3849   -0.1123 H   0  0  0  0  0  0  0  0  0  0  0  0
    0.7489   -1.6918    0.1101 H   0  0  0  0  0  0  0  0  0  0  0  0
  1  2  2  3
  1  3  1  0
  1  9  1  0
  2  4  1  0
  2  5  1  0
  6  7  2  3
  6 10  1  0
  6 11  1  0
  7  8  1  0
  7 12  1  0
M  RAD  1   8   2
M  END
>  <reaction>  (15) 
rxn_1969

>  <mol_properties>  (15) 
{"0": {"label": "*3", "atom_type": "Cd"}, "1": {"label": "*4", "atom_type": "Cd"}, "5": {"label": "*1", "atom_type": "Cs"}, "6": {"label": "*0", "atom_type": "CS"}, "8": {"label": "*2", "atom_type": "H0"}}

>  <type>  (15) 
unop_11

>  <geom_source>  (15) 
Heuristics

$$$$

     RDKit          3D

 12 10  0  0  0  0  0  0  0  0999 V2000
   -1.2896    0.7357    2.1100 C   0  0  0  0  0  0  0  0  0  0  0  0
   -2.1651   -0.2530    2.0568 C   0  0  0  0  0  0  0  0  0  0  0  0
   -1.4041    1.5595    2.8047 H   0  0  0  0  0  0  0  0  0  0  0  0
   -3.0326   -0.2797    2.7056 H   0  0  0  0  0  0  0  0  0  0  0  0
   -2.0505   -1.0768    1.3621 H   0  0  0  0  0  0  0  0  0  0  0  0
    0.8028    0.8000    0.5452 C   0  0  0  0  0  0  0  0  0  0  0  0
    0.8028   -0.3985   -0.3370 C   0  0  0  0  0  0  0  0  0  0  0  0
    0.8028   -0.3985   -1.9437 S   0  0  0  0  0  1  0  0  0  0  0  0
   -0.2486    0.7677    1.3315 H   0  0  0  0  0  0  0  0  0  0  0  0
    1.6789    0.7731    1.2004 H   0  0  0  0  0  0  0  0  0  0  0  0
    0.8028    1.7238   -0.0295 H   0  0  0  0  0  0  0  0  0  0  0  0
    0.8028   -1.3529    0.1929 H   0  0  0  0  0  0  0  0  0  0  0  0
  1  2  2  3
  1  3  1  0
  1  9  1  0
  2  4  1  0
  2  5  1  0
  6  7  2  3
  6 10  1  0
  6 11  1  0
  7  8  1  0
  7 12  1  0
M  RAD  1   8   2
M  END
>  <reaction>  (16) 
rxn_1969

>  <mol_properties>  (16) 
{"0": {"label": "*3", "atom_type": "Cd"}, "1": {"label": "*4", "atom_type": "Cd"}, "5": {"label": "*1", "atom_type": "Cs"}, "6": {"label": "*0", "atom_type": "CS"}, "8": {"label": "*2", "atom_type": "H0"}}

>  <type>  (16) 
unop_12

>  <geom_source>  (16) 
Heuristics

$$$$

     RDKit          3D

 12 10  0  0  0  0  0  0  0  0999 V2000
   -3.2920    0.6377    0.3377 S   0  0  0  0  0  1  0  0  0  0  0  0
   -1.1241   -0.5840   -0.2102 C   0  0  0  0  0  0  0  0  0  0  0  0
    2.0723    0.5222    0.4017 C   0  0  0  0  0  0  0  0  0  0  0  0
    1.4714   -0.5155   -0.1750 C   0  0  0  0  0  0  0  0  0  0  0  0
   -1.9527    0.6597   -0.1793 C   0  0  0  0  0  0  0  0  0  0  0  0
    1.5249    1.4437    0.5688 H   0  0  0  0  0  0  0  0  0  0  0  0
    3.1112    0.4526    0.7074 H   0  0  0  0  0  0  0  0  0  0  0  0
    2.0160   -1.4388   -0.3437 H   0  0  0  0  0  0  0  0  0  0  0  0
    0.2765   -0.4317   -0.5252 H   0  0  0  0  0  0  0  0  0  0  0  0
   -1.5360    1.5888   -0.5520 H   0  0  0  0  0  0  0  0  0  0  0  0
   -1.6018   -1.3586   -0.8475 H   0  0  0  0  0  0  0  0  0  0  0  0
   -0.9656   -0.9762    0.8172 H   0  0  0  0  0  0  0  0  0  0  0  0
  1  5  1  0
  2  5  2  3
  2 11  1  0
  2 12  1  0
  3  4  2  3
  3  6  1  0
  3  7  1  0
  4  8  1  0
  4  9  1  0
  5 10  1  0
M  RAD  1   1   2
M  END
>  <reaction>  (17) 
rxn_1969

>  <mol_properties>  (17) 
{"0": {"label": "*3", "atom_type": "Cd"}, "1": {"label": "*4", "atom_type": "Cd"}, "5": {"label": "*1", "atom_type": "Cs"}, "6": {"label": "*0", "atom_type": "CS"}, "8": {"label": "*2", "atom_type": "H0"}}

>  <type>  (17) 
unop_13

>  <geom_source>  (17) 
AutoTST

$$$$
