
     RDKit          3D

  9  8  0  0  0  0  0  0  0  0999 V2000
    1.1303   -0.2933   -0.7510 C   0  0  0  0  0  0  0  0  0  0  0  0
    0.2866    0.4560   -0.0588 C   0  0  0  0  0  0  0  0  0  0  0  0
   -0.9719   -0.0331    0.5823 C   0  0  0  0  0  0  0  0  0  0  0  0
    2.0274    0.1230   -1.1916 H   0  0  0  0  0  0  0  0  0  0  0  0
    0.9532   -1.3530   -0.9023 H   0  0  0  0  0  0  0  0  0  0  0  0
    0.5065    1.5132    0.0659 H   0  0  0  0  0  0  0  0  0  0  0  0
   -0.9526    0.1426    1.6610 H   0  0  0  0  0  0  0  0  0  0  0  0
   -1.1182   -1.1002    0.4106 H   0  0  0  0  0  0  0  0  0  0  0  0
   -1.8412    0.5010    0.1901 H   0  0  0  0  0  0  0  0  0  0  0  0
  1  2  2  3
  1  4  1  0
  1  5  1  0
  2  3  1  0
  2  6  1  0
  3  7  1  0
  3  8  1  0
  3  9  1  0
M  END
>  <reaction>  (1) 
rxn_1014

>  <mol_properties>  (1) 
{"2": {"label": "donator", "atom_type": "Cs"}, "6": {"label": "d_hydrogen", "atom_type": "H0"}}

>  <type>  (1) 
r1h

$$$$

     RDKit          3D

  9  8  0  0  0  0  0  0  0  0999 V2000
    1.8963   -0.1405   -0.2150 C   0  0  0  0  0  0  0  0  0  0  0  0
    0.6340    0.1486   -0.2254 C   0  0  0  0  0  3  0  0  0  0  0  0
   -0.6770    0.4501   -0.2373 C   0  0  0  0  0  0  0  0  0  0  0  0
   -1.6600   -0.2303    0.4662 C   0  0  0  0  0  0  0  0  0  0  0  0
    2.3274   -0.8354   -0.9313 H   0  0  0  0  0  0  0  0  0  0  0  0
    2.5751    0.2988    0.5117 H   0  0  0  0  0  0  0  0  0  0  0  0
   -0.9723    1.2966   -0.8520 H   0  0  0  0  0  0  0  0  0  0  0  0
   -2.6934    0.0777    0.4015 H   0  0  0  0  0  0  0  0  0  0  0  0
   -1.4140   -1.0782    1.0904 H   0  0  0  0  0  0  0  0  0  0  0  0
  1  2  2  3
  1  5  1  0
  1  6  1  0
  2  3  1  0
  3  4  2  3
  3  7  1  0
  4  8  1  0
  4  9  1  0
M  RAD  1   2   2
M  END
>  <reaction>  (2) 
rxn_1014

>  <mol_properties>  (2) 
{"1": {"label": "acceptor", "atom_type": "Cd"}}

>  <type>  (2) 
r2

$$$$

     RDKit          3D

 10  9  0  0  0  0  0  0  0  0999 V2000
    1.8334    0.0847   -0.1062 C   0  0  0  0  0  0  0  0  0  0  0  0
    0.5993   -0.4071   -0.0750 C   0  0  0  0  0  0  0  0  0  0  0  0
   -0.5993    0.4071    0.0750 C   0  0  0  0  0  0  0  0  0  0  0  0
   -1.8334   -0.0847    0.1062 C   0  0  0  0  0  0  0  0  0  0  0  0
    2.0179    1.1498   -0.0189 H   0  0  0  0  0  0  0  0  0  0  0  0
    2.6972   -0.5572   -0.2194 H   0  0  0  0  0  0  0  0  0  0  0  0
    0.4465   -1.4793   -0.1649 H   0  0  0  0  0  0  0  0  0  0  0  0
   -0.4465    1.4793    0.1649 H   0  0  0  0  0  0  0  0  0  0  0  0
   -2.0179   -1.1498    0.0189 H   0  0  0  0  0  0  0  0  0  0  0  0
   -2.6972    0.5572    0.2194 H   0  0  0  0  0  0  0  0  0  0  0  0
  1  2  2  3
  1  5  1  0
  1  6  1  0
  2  3  1  0
  2  7  1  0
  3  4  2  3
  3  8  1  0
  4  9  1  0
  4 10  1  0
M  END
>  <reaction>  (3) 
rxn_1014

>  <mol_properties>  (3) 
{"1": {"label": "acceptor", "atom_type": "Cd"}, "9": {"label": "a_hydrogen", "atom_type": "H0"}}

>  <type>  (3) 
r2h

$$$$

     RDKit          3D

 18 16  0  0  0  0  0  0  0  0999 V2000
   -1.8946    0.4034   -0.0881 C   0  0  0  0  0  0  0  0  0  0  0  0
   -0.8704    0.3303    0.7359 C   0  0  0  0  0  3  0  0  0  0  0  0
   -0.7563    0.5882    2.1517 C   0  0  0  0  0  0  0  0  0  0  0  0
    0.3740    0.5001    2.8458 C   0  0  0  0  0  0  0  0  0  0  0  0
   -1.7865    0.1694   -1.1422 H   0  0  0  0  0  0  0  0  0  0  0  0
   -2.8837    0.7040    0.2544 H   0  0  0  0  0  0  0  0  0  0  0  0
   -1.6770    0.8736    2.6614 H   0  0  0  0  0  0  0  0  0  0  0  0
    0.3999    0.7071    3.9074 H   0  0  0  0  0  0  0  0  0  0  0  0
    1.3060    0.2194    2.3700 H   0  0  0  0  0  0  0  0  0  0  0  0
    0.8436   -0.1515   -3.0373 C   0  0  0  0  0  0  0  0  0  0  0  0
    0.8586   -0.8862   -1.9265 C   0  0  0  0  0  0  0  0  0  0  0  0
    1.3479   -0.4277   -0.6216 C   0  0  0  0  0  0  0  0  0  0  0  0
    0.4398   -0.5368   -3.9647 H   0  0  0  0  0  0  0  0  0  0  0  0
    1.2427    0.8569   -3.0524 H   0  0  0  0  0  0  0  0  0  0  0  0
    0.4446   -1.8902   -1.9606 H   0  0  0  0  0  0  0  0  0  0  0  0
    0.3552   -0.0935    0.0600 H   0  0  0  0  0  0  0  0  0  0  0  0
    1.9555    0.4753   -0.6622 H   0  0  0  0  0  0  0  0  0  0  0  0
    1.8161   -1.2032   -0.0173 H   0  0  0  0  0  0  0  0  0  0  0  0
  1  2  2  3
  1  5  1  0
  1  6  1  0
  2  3  1  0
  3  4  2  3
  3  7  1  0
  4  8  1  0
  4  9  1  0
 10 11  2  3
 10 13  1  0
 10 14  1  0
 11 12  1  0
 11 15  1  0
 12 16  1  0
 12 17  1  0
 12 18  1  0
M  RAD  1   2   2
M  END
>  <reaction>  (4) 
rxn_1014

>  <mol_properties>  (4) 
{"1": {"label": "*3", "atom_type": "Cd"}, "2": {"label": "*4", "atom_type": "Cd"}, "10": {"label": "*0", "atom_type": "Cd"}, "11": {"label": "*1", "atom_type": "Cs"}, "15": {"label": "*2", "atom_type": "H0"}}

>  <type>  (4) 
ts

$$$$

     RDKit          3D

 18 16  0  0  0  0  0  0  0  0999 V2000
   -1.9183    1.0967    0.1140 C   0  0  0  0  0  0  0  0  0  0  0  0
   -0.9937    0.3532    0.7127 C   0  0  0  0  0  0  0  0  0  0  0  0
   -0.7357    0.3713    2.1464 C   0  0  0  0  0  0  0  0  0  0  0  0
    0.1888   -0.3722    2.7451 C   0  0  0  0  0  0  0  0  0  0  0  0
   -2.0769    1.0521   -0.9555 H   0  0  0  0  0  0  0  0  0  0  0  0
   -2.5476    1.7759    0.6786 H   0  0  0  0  0  0  0  0  0  0  0  0
   -1.3510    1.0427    2.7392 H   0  0  0  0  0  0  0  0  0  0  0  0
    0.3474   -0.3275    3.8145 H   0  0  0  0  0  0  0  0  0  0  0  0
    0.8181   -1.0513    2.1805 H   0  0  0  0  0  0  0  0  0  0  0  0
    1.1066   -0.9099   -3.0299 C   0  0  0  0  0  0  0  0  0  0  0  0
    1.1066   -0.9099   -1.7062 C   0  0  0  0  0  0  0  0  0  0  0  0
    1.1066    0.3123   -0.8457 C   0  0  0  0  0  3  0  0  0  0  0  0
    1.1066   -1.8326   -3.5964 H   0  0  0  0  0  0  0  0  0  0  0  0
    1.1066    0.0157   -3.5960 H   0  0  0  0  0  0  0  0  0  0  0  0
    1.1066   -1.8626   -1.1827 H   0  0  0  0  0  0  0  0  0  0  0  0
    0.0534    0.3328   -0.0642 H   0  0  0  0  0  0  0  0  0  0  0  0
    1.1066    1.2227   -1.4463 H   0  0  0  0  0  0  0  0  0  0  0  0
    1.9843    0.3294   -0.1945 H   0  0  0  0  0  0  0  0  0  0  0  0
  1  2  2  3
  1  5  1  0
  1  6  1  0
  2  3  1  0
  2 16  1  0
  3  4  2  3
  3  7  1  0
  4  8  1  0
  4  9  1  0
 10 11  2  3
 10 13  1  0
 10 14  1  0
 11 12  1  0
 11 15  1  0
 12 17  1  0
 12 18  1  0
M  RAD  1  12   2
M  END
>  <reaction>  (5) 
rxn_1014

>  <mol_properties>  (5) 
{"1": {"label": "*3", "atom_type": "Cd"}, "2": {"label": "*4", "atom_type": "Cd"}, "10": {"label": "*0", "atom_type": "Cd"}, "11": {"label": "*1", "atom_type": "Cs"}, "15": {"label": "*2", "atom_type": "H0"}}

>  <type>  (5) 
unop_1

>  <geom_source>  (5) 
Heuristics

$$$$

     RDKit          3D

 18 16  0  0  0  0  0  0  0  0999 V2000
   -1.0464    1.8769    1.6200 C   0  0  0  0  0  0  0  0  0  0  0  0
   -0.7689    0.7335    1.0024 C   0  0  0  0  0  0  0  0  0  0  0  0
   -1.3003   -0.5613    1.4066 C   0  0  0  0  0  0  0  0  0  0  0  0
   -1.0227   -1.7048    0.7890 C   0  0  0  0  0  0  0  0  0  0  0  0
   -0.6293    2.8178    1.2859 H   0  0  0  0  0  0  0  0  0  0  0  0
   -1.7027    1.9064    2.4829 H   0  0  0  0  0  0  0  0  0  0  0  0
   -1.9616   -0.5640    2.2689 H   0  0  0  0  0  0  0  0  0  0  0  0
   -1.4399   -2.6457    1.1231 H   0  0  0  0  0  0  0  0  0  0  0  0
   -0.3665   -1.7342   -0.0739 H   0  0  0  0  0  0  0  0  0  0  0  0
    1.3315   -0.5296   -2.7402 C   0  0  0  0  0  0  0  0  0  0  0  0
    1.3315   -0.5296   -1.4165 C   0  0  0  0  0  0  0  0  0  0  0  0
    1.3315    0.6925   -0.5559 C   0  0  0  0  0  3  0  0  0  0  0  0
    1.3315   -1.4524   -3.3067 H   0  0  0  0  0  0  0  0  0  0  0  0
    1.3315    0.3960   -3.3062 H   0  0  0  0  0  0  0  0  0  0  0  0
    1.3315   -1.4823   -0.8929 H   0  0  0  0  0  0  0  0  0  0  0  0
    0.2782    0.7131    0.2255 H   0  0  0  0  0  0  0  0  0  0  0  0
    1.3315    1.6030   -1.1565 H   0  0  0  0  0  0  0  0  0  0  0  0
    2.2092    0.7096    0.0953 H   0  0  0  0  0  0  0  0  0  0  0  0
  1  2  2  3
  1  5  1  0
  1  6  1  0
  2  3  1  0
  2 16  1  0
  3  4  2  3
  3  7  1  0
  4  8  1  0
  4  9  1  0
 10 11  2  3
 10 13  1  0
 10 14  1  0
 11 12  1  0
 11 15  1  0
 12 17  1  0
 12 18  1  0
M  RAD  1  12   2
M  END
>  <reaction>  (6) 
rxn_1014

>  <mol_properties>  (6) 
{"1": {"label": "*3", "atom_type": "Cd"}, "2": {"label": "*4", "atom_type": "Cd"}, "10": {"label": "*0", "atom_type": "Cd"}, "11": {"label": "*1", "atom_type": "Cs"}, "15": {"label": "*2", "atom_type": "H0"}}

>  <type>  (6) 
unop_2

>  <geom_source>  (6) 
Heuristics

$$$$

     RDKit          3D

 18 16  0  0  0  0  0  0  0  0999 V2000
   -2.0990    0.1440    0.0683 C   0  0  0  0  0  0  0  0  0  0  0  0
   -0.9630    0.1699    0.7573 C   0  0  0  0  0  0  0  0  0  0  0  0
   -0.8033    0.8394    2.0413 C   0  0  0  0  0  0  0  0  0  0  0  0
    0.3327    0.8653    2.7303 C   0  0  0  0  0  0  0  0  0  0  0  0
   -2.1737   -0.3660   -0.8832 H   0  0  0  0  0  0  0  0  0  0  0  0
   -2.9930    0.6346    0.4371 H   0  0  0  0  0  0  0  0  0  0  0  0
   -1.6826    1.3405    2.4371 H   0  0  0  0  0  0  0  0  0  0  0  0
    0.4074    1.3752    3.6818 H   0  0  0  0  0  0  0  0  0  0  0  0
    1.2267    0.3746    2.3615 H   0  0  0  0  0  0  0  0  0  0  0  0
    1.1374   -1.0932   -2.9853 C   0  0  0  0  0  0  0  0  0  0  0  0
    1.1374   -1.0932   -1.6616 C   0  0  0  0  0  0  0  0  0  0  0  0
    1.1374    0.1289   -0.8010 C   0  0  0  0  0  3  0  0  0  0  0  0
    1.1374   -2.0160   -3.5518 H   0  0  0  0  0  0  0  0  0  0  0  0
    1.1374   -0.1677   -3.5513 H   0  0  0  0  0  0  0  0  0  0  0  0
    1.1374   -2.0459   -1.1380 H   0  0  0  0  0  0  0  0  0  0  0  0
    0.0841    0.1495   -0.0196 H   0  0  0  0  0  0  0  0  0  0  0  0
    1.1374    1.0394   -1.4016 H   0  0  0  0  0  0  0  0  0  0  0  0
    2.0151    0.1460   -0.1498 H   0  0  0  0  0  0  0  0  0  0  0  0
  1  2  2  3
  1  5  1  0
  1  6  1  0
  2  3  1  0
  2 16  1  0
  3  4  2  3
  3  7  1  0
  4  8  1  0
  4  9  1  0
 10 11  2  3
 10 13  1  0
 10 14  1  0
 11 12  1  0
 11 15  1  0
 12 17  1  0
 12 18  1  0
M  RAD  1  12   2
M  END
>  <reaction>  (7) 
rxn_1014

>  <mol_properties>  (7) 
{"1": {"label": "*3", "atom_type": "Cd"}, "2": {"label": "*4", "atom_type": "Cd"}, "10": {"label": "*0", "atom_type": "Cd"}, "11": {"label": "*1", "atom_type": "Cs"}, "15": {"label": "*2", "atom_type": "H0"}}

>  <type>  (7) 
unop_3

>  <geom_source>  (7) 
Heuristics

$$$$

     RDKit          3D

 18 16  0  0  0  0  0  0  0  0999 V2000
   -0.3071    0.9560    2.4716 C   0  0  0  0  0  0  0  0  0  0  0  0
   -0.5497    0.3592    1.3093 C   0  0  0  0  0  0  0  0  0  0  0  0
   -1.8472    0.3614    0.6468 C   0  0  0  0  0  0  0  0  0  0  0  0
   -2.0898   -0.2353   -0.5155 C   0  0  0  0  0  0  0  0  0  0  0  0
    0.6732    0.9295    2.9291 H   0  0  0  0  0  0  0  0  0  0  0  0
   -1.0858    1.4916    3.0034 H   0  0  0  0  0  0  0  0  0  0  0  0
   -2.6483    0.8906    1.1559 H   0  0  0  0  0  0  0  0  0  0  0  0
   -3.0701   -0.2089   -0.9729 H   0  0  0  0  0  0  0  0  0  0  0  0
   -1.3110   -0.7709   -1.0472 H   0  0  0  0  0  0  0  0  0  0  0  0
    1.5507   -0.9039   -2.4333 C   0  0  0  0  0  0  0  0  0  0  0  0
    1.5507   -0.9039   -1.1096 C   0  0  0  0  0  0  0  0  0  0  0  0
    1.5507    0.3183   -0.2491 C   0  0  0  0  0  3  0  0  0  0  0  0
    1.5507   -1.8266   -2.9998 H   0  0  0  0  0  0  0  0  0  0  0  0
    1.5507    0.0217   -2.9993 H   0  0  0  0  0  0  0  0  0  0  0  0
    1.5507   -1.8565   -0.5861 H   0  0  0  0  0  0  0  0  0  0  0  0
    0.4974    0.3388    0.5324 H   0  0  0  0  0  0  0  0  0  0  0  0
    1.5507    1.2287   -0.8497 H   0  0  0  0  0  0  0  0  0  0  0  0
    2.4284    0.3354    0.4021 H   0  0  0  0  0  0  0  0  0  0  0  0
  1  2  2  3
  1  5  1  0
  1  6  1  0
  2  3  1  0
  2 16  1  0
  3  4  2  3
  3  7  1  0
  4  8  1  0
  4  9  1  0
 10 11  2  3
 10 13  1  0
 10 14  1  0
 11 12  1  0
 11 15  1  0
 12 17  1  0
 12 18  1  0
M  RAD  1  12   2
M  END
>  <reaction>  (8) 
rxn_1014

>  <mol_properties>  (8) 
{"1": {"label": "*3", "atom_type": "Cd"}, "2": {"label": "*4", "atom_type": "Cd"}, "10": {"label": "*0", "atom_type": "Cd"}, "11": {"label": "*1", "atom_type": "Cs"}, "15": {"label": "*2", "atom_type": "H0"}}

>  <type>  (8) 
unop_4

>  <geom_source>  (8) 
Heuristics

$$$$

     RDKit          3D

 18 16  0  0  0  0  0  0  0  0999 V2000
   -1.7636   -0.9537    0.8068 C   0  0  0  0  0  0  0  0  0  0  0  0
   -0.8833    0.0401    0.8656 C   0  0  0  0  0  0  0  0  0  0  0  0
   -1.0041    1.1843    1.7592 C   0  0  0  0  0  0  0  0  0  0  0  0
   -0.1239    2.1782    1.8179 C   0  0  0  0  0  0  0  0  0  0  0  0
   -1.6349   -1.7859    0.1272 H   0  0  0  0  0  0  0  0  0  0  0  0
   -2.6439   -0.9649    1.4400 H   0  0  0  0  0  0  0  0  0  0  0  0
   -1.8767    1.2014    2.4066 H   0  0  0  0  0  0  0  0  0  0  0  0
   -0.2526    3.0104    2.4976 H   0  0  0  0  0  0  0  0  0  0  0  0
    0.7564    2.1894    1.1847 H   0  0  0  0  0  0  0  0  0  0  0  0
    1.2170   -1.2230   -2.8770 C   0  0  0  0  0  0  0  0  0  0  0  0
    1.2170   -1.2230   -1.5533 C   0  0  0  0  0  0  0  0  0  0  0  0
    1.2170   -0.0009   -0.6928 C   0  0  0  0  0  3  0  0  0  0  0  0
    1.2170   -2.1458   -3.4435 H   0  0  0  0  0  0  0  0  0  0  0  0
    1.2170   -0.2974   -3.4430 H   0  0  0  0  0  0  0  0  0  0  0  0
    1.2170   -2.1757   -1.0298 H   0  0  0  0  0  0  0  0  0  0  0  0
    0.1638    0.0197    0.0887 H   0  0  0  0  0  0  0  0  0  0  0  0
    1.2170    0.9096   -1.2934 H   0  0  0  0  0  0  0  0  0  0  0  0
    2.0947    0.0163   -0.0415 H   0  0  0  0  0  0  0  0  0  0  0  0
  1  2  2  3
  1  5  1  0
  1  6  1  0
  2  3  1  0
  2 16  1  0
  3  4  2  3
  3  7  1  0
  4  8  1  0
  4  9  1  0
 10 11  2  3
 10 13  1  0
 10 14  1  0
 11 12  1  0
 11 15  1  0
 12 17  1  0
 12 18  1  0
M  RAD  1  12   2
M  END
>  <reaction>  (9) 
rxn_1014

>  <mol_properties>  (9) 
{"1": {"label": "*3", "atom_type": "Cd"}, "2": {"label": "*4", "atom_type": "Cd"}, "10": {"label": "*0", "atom_type": "Cd"}, "11": {"label": "*1", "atom_type": "Cs"}, "15": {"label": "*2", "atom_type": "H0"}}

>  <type>  (9) 
unop_5

>  <geom_source>  (9) 
Heuristics

$$$$

     RDKit          3D

 18 16  0  0  0  0  0  0  0  0999 V2000
   -0.1700    0.2880    2.5277 C   0  0  0  0  0  0  0  0  0  0  0  0
   -0.5835    0.1726    1.2700 C   0  0  0  0  0  0  0  0  0  0  0  0
   -1.7709    0.8283    0.7387 C   0  0  0  0  0  0  0  0  0  0  0  0
   -2.1843    0.7129   -0.5189 C   0  0  0  0  0  0  0  0  0  0  0  0
    0.7192   -0.2173    2.8811 H   0  0  0  0  0  0  0  0  0  0  0  0
   -0.7114    0.8946    3.2454 H   0  0  0  0  0  0  0  0  0  0  0  0
   -2.3349    1.4436    1.4346 H   0  0  0  0  0  0  0  0  0  0  0  0
   -3.0736    1.2182   -0.8723 H   0  0  0  0  0  0  0  0  0  0  0  0
   -1.6429    0.1063   -1.2366 H   0  0  0  0  0  0  0  0  0  0  0  0
    1.5169   -1.0905   -2.4726 C   0  0  0  0  0  0  0  0  0  0  0  0
    1.5169   -1.0905   -1.1488 C   0  0  0  0  0  0  0  0  0  0  0  0
    1.5169    0.1316   -0.2883 C   0  0  0  0  0  3  0  0  0  0  0  0
    1.5169   -2.0133   -3.0391 H   0  0  0  0  0  0  0  0  0  0  0  0
    1.5169   -0.1649   -3.0386 H   0  0  0  0  0  0  0  0  0  0  0  0
    1.5169   -2.0432   -0.6253 H   0  0  0  0  0  0  0  0  0  0  0  0
    0.4636    0.1522    0.4931 H   0  0  0  0  0  0  0  0  0  0  0  0
    1.5169    1.0421   -0.8889 H   0  0  0  0  0  0  0  0  0  0  0  0
    2.3946    0.1488    0.3629 H   0  0  0  0  0  0  0  0  0  0  0  0
  1  2  2  3
  1  5  1  0
  1  6  1  0
  2  3  1  0
  2 16  1  0
  3  4  2  3
  3  7  1  0
  4  8  1  0
  4  9  1  0
 10 11  2  3
 10 13  1  0
 10 14  1  0
 11 12  1  0
 11 15  1  0
 12 17  1  0
 12 18  1  0
M  RAD  1  12   2
M  END
>  <reaction>  (10) 
rxn_1014

>  <mol_properties>  (10) 
{"1": {"label": "*3", "atom_type": "Cd"}, "2": {"label": "*4", "atom_type": "Cd"}, "10": {"label": "*0", "atom_type": "Cd"}, "11": {"label": "*1", "atom_type": "Cs"}, "15": {"label": "*2", "atom_type": "H0"}}

>  <type>  (10) 
unop_6

>  <geom_source>  (10) 
Heuristics

$$$$

     RDKit          3D

 18 16  0  0  0  0  0  0  0  0999 V2000
   -0.3014   -0.4666    2.3343 C   0  0  0  0  0  0  0  0  0  0  0  0
   -0.6675    0.0378    1.1606 C   0  0  0  0  0  0  0  0  0  0  0  0
   -1.5661    1.1741    1.0061 C   0  0  0  0  0  0  0  0  0  0  0  0
   -1.9322    1.6785   -0.1675 C   0  0  0  0  0  0  0  0  0  0  0  0
    0.3692   -1.3130    2.4035 H   0  0  0  0  0  0  0  0  0  0  0  0
   -0.6634   -0.0459    3.2660 H   0  0  0  0  0  0  0  0  0  0  0  0
   -1.9456    1.6176    1.9227 H   0  0  0  0  0  0  0  0  0  0  0  0
   -2.6028    2.5249   -0.2368 H   0  0  0  0  0  0  0  0  0  0  0  0
   -1.5702    1.2578   -1.0992 H   0  0  0  0  0  0  0  0  0  0  0  0
    1.4328   -1.2253   -2.5820 C   0  0  0  0  0  0  0  0  0  0  0  0
    1.4328   -1.2253   -1.2583 C   0  0  0  0  0  0  0  0  0  0  0  0
    1.4328   -0.0031   -0.3977 C   0  0  0  0  0  3  0  0  0  0  0  0
    1.4328   -2.1480   -3.1485 H   0  0  0  0  0  0  0  0  0  0  0  0
    1.4328   -0.2997   -3.1480 H   0  0  0  0  0  0  0  0  0  0  0  0
    1.4328   -2.1779   -0.7347 H   0  0  0  0  0  0  0  0  0  0  0  0
    0.3796    0.0174    0.3837 H   0  0  0  0  0  0  0  0  0  0  0  0
    1.4328    0.9073   -0.9983 H   0  0  0  0  0  0  0  0  0  0  0  0
    2.3105    0.0140    0.2535 H   0  0  0  0  0  0  0  0  0  0  0  0
  1  2  2  3
  1  5  1  0
  1  6  1  0
  2  3  1  0
  2 16  1  0
  3  4  2  3
  3  7  1  0
  4  8  1  0
  4  9  1  0
 10 11  2  3
 10 13  1  0
 10 14  1  0
 11 12  1  0
 11 15  1  0
 12 17  1  0
 12 18  1  0
M  RAD  1  12   2
M  END
>  <reaction>  (11) 
rxn_1014

>  <mol_properties>  (11) 
{"1": {"label": "*3", "atom_type": "Cd"}, "2": {"label": "*4", "atom_type": "Cd"}, "10": {"label": "*0", "atom_type": "Cd"}, "11": {"label": "*1", "atom_type": "Cs"}, "15": {"label": "*2", "atom_type": "H0"}}

>  <type>  (11) 
unop_7

>  <geom_source>  (11) 
Heuristics

$$$$

     RDKit          3D

 18 16  0  0  0  0  0  0  0  0999 V2000
   -1.6128    1.6829    0.5465 C   0  0  0  0  0  0  0  0  0  0  0  0
   -0.9641    0.5406    0.7473 C   0  0  0  0  0  0  0  0  0  0  0  0
   -0.8161   -0.0948    2.0499 C   0  0  0  0  0  0  0  0  0  0  0  0
   -0.1675   -1.2371    2.2507 C   0  0  0  0  0  0  0  0  0  0  0  0
   -1.6988    2.1206   -0.4394 H   0  0  0  0  0  0  0  0  0  0  0  0
   -2.0797    2.2175    1.3665 H   0  0  0  0  0  0  0  0  0  0  0  0
   -1.2737    0.4176    2.8918 H   0  0  0  0  0  0  0  0  0  0  0  0
   -0.0814   -1.6748    3.2365 H   0  0  0  0  0  0  0  0  0  0  0  0
    0.2994   -1.7716    1.4307 H   0  0  0  0  0  0  0  0  0  0  0  0
    1.1362   -0.7225   -2.9953 C   0  0  0  0  0  0  0  0  0  0  0  0
    1.1362   -0.7225   -1.6716 C   0  0  0  0  0  0  0  0  0  0  0  0
    1.1362    0.4997   -0.8110 C   0  0  0  0  0  3  0  0  0  0  0  0
    1.1362   -1.6452   -3.5618 H   0  0  0  0  0  0  0  0  0  0  0  0
    1.1362    0.2031   -3.5613 H   0  0  0  0  0  0  0  0  0  0  0  0
    1.1362   -1.6751   -1.1480 H   0  0  0  0  0  0  0  0  0  0  0  0
    0.0830    0.5202   -0.0296 H   0  0  0  0  0  0  0  0  0  0  0  0
    1.1362    1.4101   -1.4116 H   0  0  0  0  0  0  0  0  0  0  0  0
    2.0139    0.5168   -0.1598 H   0  0  0  0  0  0  0  0  0  0  0  0
  1  2  2  3
  1  5  1  0
  1  6  1  0
  2  3  1  0
  2 16  1  0
  3  4  2  3
  3  7  1  0
  4  8  1  0
  4  9  1  0
 10 11  2  3
 10 13  1  0
 10 14  1  0
 11 12  1  0
 11 15  1  0
 12 17  1  0
 12 18  1  0
M  RAD  1  12   2
M  END
>  <reaction>  (12) 
rxn_1014

>  <mol_properties>  (12) 
{"1": {"label": "*3", "atom_type": "Cd"}, "2": {"label": "*4", "atom_type": "Cd"}, "10": {"label": "*0", "atom_type": "Cd"}, "11": {"label": "*1", "atom_type": "Cs"}, "15": {"label": "*2", "atom_type": "H0"}}

>  <type>  (12) 
unop_8

>  <geom_source>  (12) 
Heuristics

$$$$

     RDKit          3D

 18 16  0  0  0  0  0  0  0  0999 V2000
   -0.5737    1.4198    2.2692 C   0  0  0  0  0  0  0  0  0  0  0  0
   -0.5762    0.5472    1.2670 C   0  0  0  0  0  0  0  0  0  0  0  0
   -1.7753   -0.1020    0.7543 C   0  0  0  0  0  0  0  0  0  0  0  0
   -1.7778   -0.9747   -0.2479 C   0  0  0  0  0  0  0  0  0  0  0  0
    0.3415    1.8792    2.6190 H   0  0  0  0  0  0  0  0  0  0  0  0
   -1.4918    1.7025    2.7725 H   0  0  0  0  0  0  0  0  0  0  0  0
   -2.7117    0.1612    1.2389 H   0  0  0  0  0  0  0  0  0  0  0  0
   -2.6930   -1.4341   -0.5977 H   0  0  0  0  0  0  0  0  0  0  0  0
   -0.8598   -1.2573   -0.7512 H   0  0  0  0  0  0  0  0  0  0  0  0
    1.5242   -0.7159   -2.4756 C   0  0  0  0  0  0  0  0  0  0  0  0
    1.5242   -0.7159   -1.1519 C   0  0  0  0  0  0  0  0  0  0  0  0
    1.5242    0.5062   -0.2914 C   0  0  0  0  0  3  0  0  0  0  0  0
    1.5242   -1.6387   -3.0421 H   0  0  0  0  0  0  0  0  0  0  0  0
    1.5242    0.2097   -3.0416 H   0  0  0  0  0  0  0  0  0  0  0  0
    1.5242   -1.6686   -0.6283 H   0  0  0  0  0  0  0  0  0  0  0  0
    0.4709    0.5268    0.4901 H   0  0  0  0  0  0  0  0  0  0  0  0
    1.5242    1.4167   -0.8920 H   0  0  0  0  0  0  0  0  0  0  0  0
    2.4019    0.5234    0.3599 H   0  0  0  0  0  0  0  0  0  0  0  0
  1  2  2  3
  1  5  1  0
  1  6  1  0
  2  3  1  0
  2 16  1  0
  3  4  2  3
  3  7  1  0
  4  8  1  0
  4  9  1  0
 10 11  2  3
 10 13  1  0
 10 14  1  0
 11 12  1  0
 11 15  1  0
 12 17  1  0
 12 18  1  0
M  RAD  1  12   2
M  END
>  <reaction>  (13) 
rxn_1014

>  <mol_properties>  (13) 
{"1": {"label": "*3", "atom_type": "Cd"}, "2": {"label": "*4", "atom_type": "Cd"}, "10": {"label": "*0", "atom_type": "Cd"}, "11": {"label": "*1", "atom_type": "Cs"}, "15": {"label": "*2", "atom_type": "H0"}}

>  <type>  (13) 
unop_9

>  <geom_source>  (13) 
Heuristics

$$$$

     RDKit          3D

 18 16  0  0  0  0  0  0  0  0999 V2000
   -1.2997    1.9157    1.1085 C   0  0  0  0  0  0  0  0  0  0  0  0
   -0.8818    0.6803    0.8533 C   0  0  0  0  0  0  0  0  0  0  0  0
   -1.0227   -0.4357    1.7790 C   0  0  0  0  0  0  0  0  0  0  0  0
   -0.6048   -1.6710    1.5237 C   0  0  0  0  0  0  0  0  0  0  0  0
   -1.1748    2.7163    0.3914 H   0  0  0  0  0  0  0  0  0  0  0  0
   -1.7819    2.1646    2.0475 H   0  0  0  0  0  0  0  0  0  0  0  0
   -1.5025   -0.2171    2.7292 H   0  0  0  0  0  0  0  0  0  0  0  0
   -0.7297   -2.4716    2.2409 H   0  0  0  0  0  0  0  0  0  0  0  0
   -0.1226   -1.9200    0.5848 H   0  0  0  0  0  0  0  0  0  0  0  0
    1.2186   -0.5828   -2.8894 C   0  0  0  0  0  0  0  0  0  0  0  0
    1.2186   -0.5828   -1.5656 C   0  0  0  0  0  0  0  0  0  0  0  0
    1.2186    0.6394   -0.7051 C   0  0  0  0  0  3  0  0  0  0  0  0
    1.2186   -1.5055   -3.4559 H   0  0  0  0  0  0  0  0  0  0  0  0
    1.2186    0.3428   -3.4554 H   0  0  0  0  0  0  0  0  0  0  0  0
    1.2186   -1.5354   -1.0421 H   0  0  0  0  0  0  0  0  0  0  0  0
    0.1653    0.6599    0.0764 H   0  0  0  0  0  0  0  0  0  0  0  0
    1.2186    1.5498   -1.3057 H   0  0  0  0  0  0  0  0  0  0  0  0
    2.0963    0.6565   -0.0539 H   0  0  0  0  0  0  0  0  0  0  0  0
  1  2  2  3
  1  5  1  0
  1  6  1  0
  2  3  1  0
  2 16  1  0
  3  4  2  3
  3  7  1  0
  4  8  1  0
  4  9  1  0
 10 11  2  3
 10 13  1  0
 10 14  1  0
 11 12  1  0
 11 15  1  0
 12 17  1  0
 12 18  1  0
M  RAD  1  12   2
M  END
>  <reaction>  (14) 
rxn_1014

>  <mol_properties>  (14) 
{"1": {"label": "*3", "atom_type": "Cd"}, "2": {"label": "*4", "atom_type": "Cd"}, "10": {"label": "*0", "atom_type": "Cd"}, "11": {"label": "*1", "atom_type": "Cs"}, "15": {"label": "*2", "atom_type": "H0"}}

>  <type>  (14) 
unop_10

>  <geom_source>  (14) 
Heuristics

$$$$

     RDKit          3D

 18 16  0  0  0  0  0  0  0  0999 V2000
   -0.8369   -1.0763    1.8014 C   0  0  0  0  0  0  0  0  0  0  0  0
   -0.7778   -0.0092    1.0117 C   0  0  0  0  0  0  0  0  0  0  0  0
   -1.2858    1.3059    1.3787 C   0  0  0  0  0  0  0  0  0  0  0  0
   -1.2267    2.3730    0.5889 C   0  0  0  0  0  0  0  0  0  0  0  0
   -0.4466   -2.0358    1.4885 H   0  0  0  0  0  0  0  0  0  0  0  0
   -1.2797   -1.0219    2.7899 H   0  0  0  0  0  0  0  0  0  0  0  0
   -1.7357    1.3919    2.3641 H   0  0  0  0  0  0  0  0  0  0  0  0
   -1.6170    3.3326    0.9019 H   0  0  0  0  0  0  0  0  0  0  0  0
   -0.7839    2.3186   -0.3995 H   0  0  0  0  0  0  0  0  0  0  0  0
    1.3226   -1.2723   -2.7310 C   0  0  0  0  0  0  0  0  0  0  0  0
    1.3226   -1.2723   -1.4072 C   0  0  0  0  0  0  0  0  0  0  0  0
    1.3226   -0.0501   -0.5467 C   0  0  0  0  0  3  0  0  0  0  0  0
    1.3226   -2.1951   -3.2974 H   0  0  0  0  0  0  0  0  0  0  0  0
    1.3226   -0.3467   -3.2970 H   0  0  0  0  0  0  0  0  0  0  0  0
    1.3226   -2.2250   -0.8837 H   0  0  0  0  0  0  0  0  0  0  0  0
    0.2694   -0.0296    0.2348 H   0  0  0  0  0  0  0  0  0  0  0  0
    1.3226    0.8603   -1.1473 H   0  0  0  0  0  0  0  0  0  0  0  0
    2.2003   -0.0330    0.1045 H   0  0  0  0  0  0  0  0  0  0  0  0
  1  2  2  3
  1  5  1  0
  1  6  1  0
  2  3  1  0
  2 16  1  0
  3  4  2  3
  3  7  1  0
  4  8  1  0
  4  9  1  0
 10 11  2  3
 10 13  1  0
 10 14  1  0
 11 12  1  0
 11 15  1  0
 12 17  1  0
 12 18  1  0
M  RAD  1  12   2
M  END
>  <reaction>  (15) 
rxn_1014

>  <mol_properties>  (15) 
{"1": {"label": "*3", "atom_type": "Cd"}, "2": {"label": "*4", "atom_type": "Cd"}, "10": {"label": "*0", "atom_type": "Cd"}, "11": {"label": "*1", "atom_type": "Cs"}, "15": {"label": "*2", "atom_type": "H0"}}

>  <type>  (15) 
unop_11

>  <geom_source>  (15) 
Heuristics

$$$$

     RDKit          3D

 18 16  0  0  0  0  0  0  0  0999 V2000
   -0.8302    1.6991    1.9950 C   0  0  0  0  0  0  0  0  0  0  0  0
   -0.6566    0.6847    1.1543 C   0  0  0  0  0  0  0  0  0  0  0  0
   -1.5753   -0.4392    1.0320 C   0  0  0  0  0  0  0  0  0  0  0  0
   -1.4016   -1.4536    0.1913 C   0  0  0  0  0  0  0  0  0  0  0  0
   -0.1218    2.5150    2.0535 H   0  0  0  0  0  0  0  0  0  0  0  0
   -1.6908    1.7442    2.6534 H   0  0  0  0  0  0  0  0  0  0  0  0
   -2.4479   -0.4222    1.6794 H   0  0  0  0  0  0  0  0  0  0  0  0
   -2.1101   -2.2695    0.1328 H   0  0  0  0  0  0  0  0  0  0  0  0
   -0.5411   -1.4988   -0.4671 H   0  0  0  0  0  0  0  0  0  0  0  0
    1.4438   -0.5784   -2.5883 C   0  0  0  0  0  0  0  0  0  0  0  0
    1.4438   -0.5784   -1.2645 C   0  0  0  0  0  0  0  0  0  0  0  0
    1.4438    0.6438   -0.4040 C   0  0  0  0  0  3  0  0  0  0  0  0
    1.4438   -1.5011   -3.1548 H   0  0  0  0  0  0  0  0  0  0  0  0
    1.4438    0.3472   -3.1543 H   0  0  0  0  0  0  0  0  0  0  0  0
    1.4438   -1.5310   -0.7410 H   0  0  0  0  0  0  0  0  0  0  0  0
    0.3905    0.6643    0.3774 H   0  0  0  0  0  0  0  0  0  0  0  0
    1.4438    1.5542   -1.0046 H   0  0  0  0  0  0  0  0  0  0  0  0
    2.3215    0.6609    0.2472 H   0  0  0  0  0  0  0  0  0  0  0  0
  1  2  2  3
  1  5  1  0
  1  6  1  0
  2  3  1  0
  2 16  1  0
  3  4  2  3
  3  7  1  0
  4  8  1  0
  4  9  1  0
 10 11  2  3
 10 13  1  0
 10 14  1  0
 11 12  1  0
 11 15  1  0
 12 17  1  0
 12 18  1  0
M  RAD  1  12   2
M  END
>  <reaction>  (16) 
rxn_1014

>  <mol_properties>  (16) 
{"1": {"label": "*3", "atom_type": "Cd"}, "2": {"label": "*4", "atom_type": "Cd"}, "10": {"label": "*0", "atom_type": "Cd"}, "11": {"label": "*1", "atom_type": "Cs"}, "15": {"label": "*2", "atom_type": "H0"}}

>  <type>  (16) 
unop_12

>  <geom_source>  (16) 
Heuristics

$$$$

     RDKit          3D

 18 16  0  0  0  0  0  0  0  0999 V2000
    1.6750    0.8256   -0.3148 C   0  0  0  0  0  0  0  0  0  0  0  0
    0.9907   -0.2107    0.4896 C   0  0  0  0  0  0  0  0  0  0  0  0
   -1.8090   -0.3099   -0.8750 C   0  0  0  0  0  0  0  0  0  0  0  0
   -1.5866   -0.2681    0.6030 C   0  0  0  0  0  0  0  0  0  0  0  0
    2.9387    1.2173   -0.1423 C   0  0  0  0  0  0  0  0  0  0  0  0
    1.5459   -0.8907    1.4936 C   0  0  0  0  0  0  0  0  0  0  0  0
   -3.0392   -0.2718   -1.3916 C   0  0  0  0  0  3  0  0  0  0  0  0
    1.0998    1.2975   -1.1014 H   0  0  0  0  0  0  0  0  0  0  0  0
   -0.1714   -0.4574    0.2074 H   0  0  0  0  0  0  0  0  0  0  0  0
   -0.9499   -0.3724   -1.5350 H   0  0  0  0  0  0  0  0  0  0  0  0
    3.5817    0.7995    0.6177 H   0  0  0  0  0  0  0  0  0  0  0  0
    3.3509    1.9855   -0.7836 H   0  0  0  0  0  0  0  0  0  0  0  0
    2.5665   -0.7376    1.8107 H   0  0  0  0  0  0  0  0  0  0  0  0
    0.9588   -1.6307    2.0212 H   0  0  0  0  0  0  0  0  0  0  0  0
   -3.1777   -0.3032   -2.4674 H   0  0  0  0  0  0  0  0  0  0  0  0
   -3.9124   -0.2093   -0.7489 H   0  0  0  0  0  0  0  0  0  0  0  0
   -1.9893    0.6761    1.0265 H   0  0  0  0  0  0  0  0  0  0  0  0
   -2.0724   -1.1398    1.0903 H   0  0  0  0  0  0  0  0  0  0  0  0
  1  5  2  3
  1  2  1  0
  1  8  1  0
  2  6  2  3
  2  9  1  0
  3  4  2  3
  3  7  1  0
  3 10  1  0
  4 17  1  0
  4 18  1  0
  5 11  1  0
  5 12  1  0
  6 13  1  0
  6 14  1  0
  7 15  1  0
  7 16  1  0
M  RAD  1   7   2
M  END
>  <reaction>  (17) 
rxn_1014

>  <mol_properties>  (17) 
{"1": {"label": "*3", "atom_type": "Cd"}, "2": {"label": "*4", "atom_type": "Cd"}, "10": {"label": "*0", "atom_type": "Cd"}, "11": {"label": "*1", "atom_type": "Cs"}, "15": {"label": "*2", "atom_type": "H0"}}

>  <type>  (17) 
unop_13

>  <geom_source>  (17) 
AutoTST

$$$$
