
     RDKit          3D

  7  6  0  0  0  0  0  0  0  0999 V2000
    1.2985   -0.0065   -0.2721 C   0  0  0  0  0  0  0  0  0  0  0  0
    0.0000    0.0000   -0.2926 C   0  0  0  0  0  0  0  0  0  0  0  0
   -1.2985    0.0065   -0.3130 C   0  0  0  0  0  0  0  0  0  0  0  0
    1.8444   -0.7551    0.2895 H   0  0  0  0  0  0  0  0  0  0  0  0
    1.8693    0.7364   -0.8162 H   0  0  0  0  0  0  0  0  0  0  0  0
   -1.8658    0.5623    0.4239 H   0  0  0  0  0  0  0  0  0  0  0  0
   -1.8479   -0.5437   -1.0675 H   0  0  0  0  0  0  0  0  0  0  0  0
  1  2  2  0
  1  4  1  0
  1  5  1  0
  2  3  2  0
  3  6  1  0
  3  7  1  0
M  END
>  <reaction>  (1) 
rxn_1798

>  <mol_properties>  (1) 
{"0": {"label": "donator", "atom_type": "Cd"}, "3": {"label": "d_hydrogen", "atom_type": "H0"}}

>  <type>  (1) 
r1h

$$$$

     RDKit          3D

  7  6  0  0  0  0  0  0  0  0999 V2000
    1.3002    0.7433    2.1279 C   0  0  0  0  0  0  0  0  0  0  0  0
    0.5758    0.3292    1.2319 C   0  0  0  0  0  0  0  0  0  0  0  0
   -0.2057   -0.1176    0.2652 C   0  0  0  0  0  3  0  0  0  0  0  0
   -0.9747   -0.5572   -0.6858 C   0  0  0  0  0  0  0  0  0  0  0  0
    1.9293    1.1030    2.9059 H   0  0  0  0  0  0  0  0  0  0  0  0
   -1.9977   -0.8727   -0.4932 H   0  0  0  0  0  0  0  0  0  0  0  0
   -0.6274   -0.6280   -1.7143 H   0  0  0  0  0  0  0  0  0  0  0  0
  1  2  3  0
  1  5  1  0
  2  3  1  0
  3  4  2  3
  4  6  1  0
  4  7  1  0
M  RAD  1   3   2
M  END
>  <reaction>  (2) 
rxn_1798

>  <mol_properties>  (2) 
{"2": {"label": "acceptor", "atom_type": "Cd"}}

>  <type>  (2) 
r2

$$$$

     RDKit          3D

  8  7  0  0  0  0  0  0  0  0999 V2000
    1.9029    0.9046   -0.2050 C   0  0  0  0  0  0  0  0  0  0  0  0
    0.8517    0.4283    0.1217 C   0  0  0  0  0  0  0  0  0  0  0  0
   -0.3908   -0.1311    0.5404 C   0  0  0  0  0  0  0  0  0  0  0  0
   -1.2847   -0.6576   -0.2899 C   0  0  0  0  0  0  0  0  0  0  0  0
    2.8335    1.3255   -0.5014 H   0  0  0  0  0  0  0  0  0  0  0  0
   -0.5867   -0.1096    1.6074 H   0  0  0  0  0  0  0  0  0  0  0  0
   -2.2126   -1.0686    0.0850 H   0  0  0  0  0  0  0  0  0  0  0  0
   -1.1134   -0.6914   -1.3582 H   0  0  0  0  0  0  0  0  0  0  0  0
  1  2  3  0
  1  5  1  0
  2  3  1  0
  3  4  2  3
  3  6  1  0
  4  7  1  0
  4  8  1  0
M  END
>  <reaction>  (3) 
rxn_1798

>  <mol_properties>  (3) 
{"2": {"label": "acceptor", "atom_type": "Cd"}, "7": {"label": "a_hydrogen", "atom_type": "H0"}}

>  <type>  (3) 
r2h

$$$$

     RDKit          3D

 14 12  0  0  0  0  0  0  0  0999 V2000
    0.5919   -1.4905    3.0100 C   0  0  0  0  0  0  0  0  0  0  0  0
    0.0429   -1.0487    2.0330 C   0  0  0  0  0  0  0  0  0  0  0  0
   -0.4806   -0.4936    0.8683 C   0  0  0  0  0  3  0  0  0  0  0  0
   -1.6826   -0.4463    0.3315 C   0  0  0  0  0  0  0  0  0  0  0  0
    1.0539   -1.8901    3.8806 H   0  0  0  0  0  0  0  0  0  0  0  0
   -2.5425   -0.9064    0.8079 H   0  0  0  0  0  0  0  0  0  0  0  0
   -1.8409    0.0621   -0.6137 H   0  0  0  0  0  0  0  0  0  0  0  0
    1.1979    0.7907   -0.7339 C   0  0  0  0  0  0  0  0  0  0  0  0
    0.6380    1.2673   -1.7758 C   0  0  0  0  0  0  0  0  0  0  0  0
   -0.0183    1.7234   -2.8182 C   0  0  0  0  0  0  0  0  0  0  0  0
    0.4330    0.1481    0.0960 H   0  0  0  0  0  0  0  0  0  0  0  0
    2.2233    0.8210   -0.3990 H   0  0  0  0  0  0  0  0  0  0  0  0
   -0.4580    2.7131   -2.8098 H   0  0  0  0  0  0  0  0  0  0  0  0
   -0.1143    1.1297   -3.7189 H   0  0  0  0  0  0  0  0  0  0  0  0
  1  2  3  0
  1  5  1  0
  2  3  1  0
  3  4  2  3
  4  6  1  0
  4  7  1  0
  8  9  2  0
  8 11  1  0
  8 12  1  0
  9 10  2  0
 10 13  1  0
 10 14  1  0
M  RAD  1   3   2
M  END
>  <reaction>  (4) 
rxn_1798

>  <mol_properties>  (4) 
{"1": {"label": "*4", "atom_type": "Ct"}, "2": {"label": "*3", "atom_type": "Cd"}, "7": {"label": "*1", "atom_type": "Cd"}, "8": {"label": "*0", "atom_type": "Cdd"}, "10": {"label": "*2", "atom_type": "H0"}}

>  <type>  (4) 
ts

$$$$

     RDKit          3D

 14 12  0  0  0  0  0  0  0  0999 V2000
    0.7314   -2.0608    2.3436 C   0  0  0  0  0  0  0  0  0  0  0  0
    0.0658   -1.3639    1.6297 C   0  0  0  0  0  0  0  0  0  0  0  0
   -0.7032   -0.5380    0.7586 C   0  0  0  0  0  3  0  0  0  0  0  0
   -1.8815   -0.0149    1.0806 C   0  0  0  0  0  0  0  0  0  0  0  0
    1.3216   -2.6788    2.9767 H   0  0  0  0  0  0  0  0  0  0  0  0
   -2.3338   -0.1922    2.0479 H   0  0  0  0  0  0  0  0  0  0  0  0
   -2.4214    0.6058    0.3779 H   0  0  0  0  0  0  0  0  0  0  0  0
    0.6250    1.2531   -0.5826 C   0  0  0  0  0  0  0  0  0  0  0  0
    0.6250    1.2531   -1.8812 C   0  0  0  0  0  0  0  0  0  0  0  0
    0.6250    1.2531   -3.1799 C   0  0  0  0  0  0  0  0  0  0  0  0
   -0.0386    0.3582    0.0875 H   0  0  0  0  0  0  0  0  0  0  0  0
    1.1781    1.9989   -0.0241 H   0  0  0  0  0  0  0  0  0  0  0  0
   -0.1207    1.8062   -3.7383 H   0  0  0  0  0  0  0  0  0  0  0  0
    1.3708    0.7001   -3.7383 H   0  0  0  0  0  0  0  0  0  0  0  0
  1  2  3  0
  1  5  1  0
  2  3  1  0
  3  4  2  3
  4  6  1  0
  4  7  1  0
  8  9  2  0
  8 11  1  0
  8 12  1  0
  9 10  2  0
 10 13  1  0
 10 14  1  0
M  RAD  1   3   2
M  END
>  <reaction>  (5) 
rxn_1798

>  <mol_properties>  (5) 
{"1": {"label": "*4", "atom_type": "Ct"}, "2": {"label": "*3", "atom_type": "Cd"}, "7": {"label": "*1", "atom_type": "Cd"}, "8": {"label": "*0", "atom_type": "Cdd"}, "10": {"label": "*2", "atom_type": "H0"}}

>  <type>  (5) 
unop_1

>  <geom_source>  (5) 
Heuristics

$$$$

     RDKit          3D

 14 12  0  0  0  0  0  0  0  0999 V2000
   -0.7566   -2.6389    0.0231 C   0  0  0  0  0  0  0  0  0  0  0  0
   -0.6408   -1.5806    0.5755 C   0  0  0  0  0  0  0  0  0  0  0  0
   -0.4957   -0.3095    1.2042 C   0  0  0  0  0  3  0  0  0  0  0  0
   -0.6765   -0.0996    2.5038 C   0  0  0  0  0  0  0  0  0  0  0  0
   -0.8593   -3.5772   -0.4667 H   0  0  0  0  0  0  0  0  0  0  0  0
   -0.9513   -0.9041    3.1739 H   0  0  0  0  0  0  0  0  0  0  0  0
   -0.5525    0.8885    2.9268 H   0  0  0  0  0  0  0  0  0  0  0  0
    0.8325    1.4817   -0.1370 C   0  0  0  0  0  0  0  0  0  0  0  0
    0.8325    1.4817   -1.4356 C   0  0  0  0  0  0  0  0  0  0  0  0
    0.8325    1.4817   -2.7343 C   0  0  0  0  0  0  0  0  0  0  0  0
    0.1689    0.5868    0.5331 H   0  0  0  0  0  0  0  0  0  0  0  0
    1.3855    2.2275    0.4214 H   0  0  0  0  0  0  0  0  0  0  0  0
    0.0868    2.0347   -3.2927 H   0  0  0  0  0  0  0  0  0  0  0  0
    1.5783    0.9287   -3.2927 H   0  0  0  0  0  0  0  0  0  0  0  0
  1  2  3  0
  1  5  1  0
  2  3  1  0
  3  4  2  3
  4  6  1  0
  4  7  1  0
  8  9  2  0
  8 11  1  0
  8 12  1  0
  9 10  2  0
 10 13  1  0
 10 14  1  0
M  RAD  1   3   2
M  END
>  <reaction>  (6) 
rxn_1798

>  <mol_properties>  (6) 
{"1": {"label": "*4", "atom_type": "Ct"}, "2": {"label": "*3", "atom_type": "Cd"}, "7": {"label": "*1", "atom_type": "Cd"}, "8": {"label": "*0", "atom_type": "Cdd"}, "10": {"label": "*2", "atom_type": "H0"}}

>  <type>  (6) 
unop_2

>  <geom_source>  (6) 
Heuristics

$$$$

     RDKit          3D

 14 12  0  0  0  0  0  0  0  0999 V2000
    0.4213   -1.2903    3.0282 C   0  0  0  0  0  0  0  0  0  0  0  0
   -0.0544   -0.9982    1.9667 C   0  0  0  0  0  0  0  0  0  0  0  0
   -0.5906   -0.6458    0.6937 C   0  0  0  0  0  3  0  0  0  0  0  0
   -1.8892   -0.6376    0.4122 C   0  0  0  0  0  0  0  0  0  0  0  0
    0.8432   -1.5494    3.9694 H   0  0  0  0  0  0  0  0  0  0  0  0
   -2.6306   -0.9053    1.1540 H   0  0  0  0  0  0  0  0  0  0  0  0
   -2.2395   -0.3610   -0.5734 H   0  0  0  0  0  0  0  0  0  0  0  0
    0.7376    1.1454   -0.6475 C   0  0  0  0  0  0  0  0  0  0  0  0
    0.7376    1.1454   -1.9462 C   0  0  0  0  0  0  0  0  0  0  0  0
    0.7376    1.1454   -3.2448 C   0  0  0  0  0  0  0  0  0  0  0  0
    0.0740    0.2505    0.0226 H   0  0  0  0  0  0  0  0  0  0  0  0
    1.2906    1.8911   -0.0891 H   0  0  0  0  0  0  0  0  0  0  0  0
   -0.0082    1.6984   -3.8032 H   0  0  0  0  0  0  0  0  0  0  0  0
    1.4833    0.5924   -3.8032 H   0  0  0  0  0  0  0  0  0  0  0  0
  1  2  3  0
  1  5  1  0
  2  3  1  0
  3  4  2  3
  4  6  1  0
  4  7  1  0
  8  9  2  0
  8 11  1  0
  8 12  1  0
  9 10  2  0
 10 13  1  0
 10 14  1  0
M  RAD  1   3   2
M  END
>  <reaction>  (7) 
rxn_1798

>  <mol_properties>  (7) 
{"1": {"label": "*4", "atom_type": "Ct"}, "2": {"label": "*3", "atom_type": "Cd"}, "7": {"label": "*1", "atom_type": "Cd"}, "8": {"label": "*0", "atom_type": "Cdd"}, "10": {"label": "*2", "atom_type": "H0"}}

>  <type>  (7) 
unop_3

>  <geom_source>  (7) 
Heuristics

$$$$

     RDKit          3D

 14 12  0  0  0  0  0  0  0  0999 V2000
   -2.6962   -0.7791    0.6224 C   0  0  0  0  0  0  0  0  0  0  0  0
   -1.5166   -0.7579    0.8385 C   0  0  0  0  0  0  0  0  0  0  0  0
   -0.1097   -0.7234    1.0653 C   0  0  0  0  0  3  0  0  0  0  0  0
    0.4625   -1.0281    2.2253 C   0  0  0  0  0  0  0  0  0  0  0  0
   -3.7421   -0.7979    0.4308 H   0  0  0  0  0  0  0  0  0  0  0  0
   -0.1244   -1.3272    3.0842 H   0  0  0  0  0  0  0  0  0  0  0  0
    1.5374   -0.9842    2.3399 H   0  0  0  0  0  0  0  0  0  0  0  0
    1.2185    1.0678   -0.2759 C   0  0  0  0  0  0  0  0  0  0  0  0
    1.2185    1.0678   -1.5746 C   0  0  0  0  0  0  0  0  0  0  0  0
    1.2185    1.0678   -2.8732 C   0  0  0  0  0  0  0  0  0  0  0  0
    0.5549    0.1729    0.3942 H   0  0  0  0  0  0  0  0  0  0  0  0
    1.7715    1.8136    0.2825 H   0  0  0  0  0  0  0  0  0  0  0  0
    0.4728    1.6208   -3.4316 H   0  0  0  0  0  0  0  0  0  0  0  0
    1.9643    0.5148   -3.4316 H   0  0  0  0  0  0  0  0  0  0  0  0
  1  2  3  0
  1  5  1  0
  2  3  1  0
  3  4  2  3
  4  6  1  0
  4  7  1  0
  8  9  2  0
  8 11  1  0
  8 12  1  0
  9 10  2  0
 10 13  1  0
 10 14  1  0
M  RAD  1   3   2
M  END
>  <reaction>  (8) 
rxn_1798

>  <mol_properties>  (8) 
{"1": {"label": "*4", "atom_type": "Ct"}, "2": {"label": "*3", "atom_type": "Cd"}, "7": {"label": "*1", "atom_type": "Cd"}, "8": {"label": "*0", "atom_type": "Cdd"}, "10": {"label": "*2", "atom_type": "H0"}}

>  <type>  (8) 
unop_4

>  <geom_source>  (8) 
Heuristics

$$$$

     RDKit          3D

 14 12  0  0  0  0  0  0  0  0999 V2000
   -0.3493   -0.4710    3.3045 C   0  0  0  0  0  0  0  0  0  0  0  0
   -0.4277   -0.5768    2.1123 C   0  0  0  0  0  0  0  0  0  0  0  0
   -0.5020   -0.6770    0.6923 C   0  0  0  0  0  3  0  0  0  0  0  0
   -1.1948   -1.6113    0.0498 C   0  0  0  0  0  0  0  0  0  0  0  0
   -0.2798   -0.3773    4.3615 H   0  0  0  0  0  0  0  0  0  0  0  0
   -1.7556   -2.3675    0.5840 H   0  0  0  0  0  0  0  0  0  0  0  0
   -1.2152   -1.6387   -1.0316 H   0  0  0  0  0  0  0  0  0  0  0  0
    0.8262    1.1142   -0.6489 C   0  0  0  0  0  0  0  0  0  0  0  0
    0.8262    1.1142   -1.9476 C   0  0  0  0  0  0  0  0  0  0  0  0
    0.8262    1.1142   -3.2462 C   0  0  0  0  0  0  0  0  0  0  0  0
    0.1626    0.2192    0.0212 H   0  0  0  0  0  0  0  0  0  0  0  0
    1.3792    1.8599   -0.0905 H   0  0  0  0  0  0  0  0  0  0  0  0
    0.0804    1.6672   -3.8047 H   0  0  0  0  0  0  0  0  0  0  0  0
    1.5720    0.5611   -3.8047 H   0  0  0  0  0  0  0  0  0  0  0  0
  1  2  3  0
  1  5  1  0
  2  3  1  0
  3  4  2  3
  4  6  1  0
  4  7  1  0
  8  9  2  0
  8 11  1  0
  8 12  1  0
  9 10  2  0
 10 13  1  0
 10 14  1  0
M  RAD  1   3   2
M  END
>  <reaction>  (9) 
rxn_1798

>  <mol_properties>  (9) 
{"1": {"label": "*4", "atom_type": "Ct"}, "2": {"label": "*3", "atom_type": "Cd"}, "7": {"label": "*1", "atom_type": "Cd"}, "8": {"label": "*0", "atom_type": "Cdd"}, "10": {"label": "*2", "atom_type": "H0"}}

>  <type>  (9) 
unop_5

>  <geom_source>  (9) 
Heuristics

$$$$

     RDKit          3D

 14 12  0  0  0  0  0  0  0  0999 V2000
   -2.6601   -0.1977    1.4659 C   0  0  0  0  0  0  0  0  0  0  0  0
   -1.5229   -0.4885    1.2192 C   0  0  0  0  0  0  0  0  0  0  0  0
   -0.1747   -0.8214    0.8971 C   0  0  0  0  0  3  0  0  0  0  0  0
    0.6574   -1.4355    1.7314 C   0  0  0  0  0  0  0  0  0  0  0  0
   -3.6684    0.0601    1.6846 H   0  0  0  0  0  0  0  0  0  0  0  0
    0.3486   -1.7242    2.7279 H   0  0  0  0  0  0  0  0  0  0  0  0
    1.6718   -1.6636    1.4322 H   0  0  0  0  0  0  0  0  0  0  0  0
    1.1535    0.9698   -0.4441 C   0  0  0  0  0  0  0  0  0  0  0  0
    1.1535    0.9698   -1.7428 C   0  0  0  0  0  0  0  0  0  0  0  0
    1.1535    0.9698   -3.0415 C   0  0  0  0  0  0  0  0  0  0  0  0
    0.4899    0.0748    0.2260 H   0  0  0  0  0  0  0  0  0  0  0  0
    1.7065    1.7155    0.1143 H   0  0  0  0  0  0  0  0  0  0  0  0
    0.4077    1.5228   -3.5999 H   0  0  0  0  0  0  0  0  0  0  0  0
    1.8992    0.4167   -3.5999 H   0  0  0  0  0  0  0  0  0  0  0  0
  1  2  3  0
  1  5  1  0
  2  3  1  0
  3  4  2  3
  4  6  1  0
  4  7  1  0
  8  9  2  0
  8 11  1  0
  8 12  1  0
  9 10  2  0
 10 13  1  0
 10 14  1  0
M  RAD  1   3   2
M  END
>  <reaction>  (10) 
rxn_1798

>  <mol_properties>  (10) 
{"1": {"label": "*4", "atom_type": "Ct"}, "2": {"label": "*3", "atom_type": "Cd"}, "7": {"label": "*1", "atom_type": "Cd"}, "8": {"label": "*0", "atom_type": "Cdd"}, "10": {"label": "*2", "atom_type": "H0"}}

>  <type>  (10) 
unop_6

>  <geom_source>  (10) 
Heuristics

$$$$

     RDKit          3D

 14 12  0  0  0  0  0  0  0  0999 V2000
   -2.1844    0.1014    2.3436 C   0  0  0  0  0  0  0  0  0  0  0  0
   -1.3242   -0.3332    1.6297 C   0  0  0  0  0  0  0  0  0  0  0  0
   -0.3106   -0.8291    0.7586 C   0  0  0  0  0  3  0  0  0  0  0  0
    0.5322   -1.8047    1.0806 C   0  0  0  0  0  0  0  0  0  0  0  0
   -2.9472    0.4867    2.9767 H   0  0  0  0  0  0  0  0  0  0  0  0
    0.4939   -2.2891    2.0479 H   0  0  0  0  0  0  0  0  0  0  0  0
    1.2829   -2.1411    0.3779 H   0  0  0  0  0  0  0  0  0  0  0  0
    1.0176    0.9620   -0.5826 C   0  0  0  0  0  0  0  0  0  0  0  0
    1.0176    0.9620   -1.8812 C   0  0  0  0  0  0  0  0  0  0  0  0
    1.0176    0.9620   -3.1799 C   0  0  0  0  0  0  0  0  0  0  0  0
    0.3540    0.0671    0.0875 H   0  0  0  0  0  0  0  0  0  0  0  0
    1.5706    1.7078   -0.0241 H   0  0  0  0  0  0  0  0  0  0  0  0
    0.2718    1.5151   -3.7383 H   0  0  0  0  0  0  0  0  0  0  0  0
    1.7634    0.4090   -3.7383 H   0  0  0  0  0  0  0  0  0  0  0  0
  1  2  3  0
  1  5  1  0
  2  3  1  0
  3  4  2  3
  4  6  1  0
  4  7  1  0
  8  9  2  0
  8 11  1  0
  8 12  1  0
  9 10  2  0
 10 13  1  0
 10 14  1  0
M  RAD  1   3   2
M  END
>  <reaction>  (11) 
rxn_1798

>  <mol_properties>  (11) 
{"1": {"label": "*4", "atom_type": "Ct"}, "2": {"label": "*3", "atom_type": "Cd"}, "7": {"label": "*1", "atom_type": "Cd"}, "8": {"label": "*0", "atom_type": "Cdd"}, "10": {"label": "*2", "atom_type": "H0"}}

>  <type>  (11) 
unop_7

>  <geom_source>  (11) 
Heuristics

$$$$

     RDKit          3D

 14 12  0  0  0  0  0  0  0  0999 V2000
    0.5834   -2.6028    1.4659 C   0  0  0  0  0  0  0  0  0  0  0  0
   -0.0251   -1.5991    1.2192 C   0  0  0  0  0  0  0  0  0  0  0  0
   -0.7352   -0.4058    0.8971 C   0  0  0  0  0  3  0  0  0  0  0  0
   -1.5646    0.2122    1.7314 C   0  0  0  0  0  0  0  0  0  0  0  0
    1.1229   -3.4928    1.6846 H   0  0  0  0  0  0  0  0  0  0  0  0
   -1.7511   -0.1671    2.7279 H   0  0  0  0  0  0  0  0  0  0  0  0
   -2.0774    1.1166    1.4322 H   0  0  0  0  0  0  0  0  0  0  0  0
    0.5930    1.3854   -0.4441 C   0  0  0  0  0  0  0  0  0  0  0  0
    0.5930    1.3854   -1.7428 C   0  0  0  0  0  0  0  0  0  0  0  0
    0.5930    1.3854   -3.0415 C   0  0  0  0  0  0  0  0  0  0  0  0
   -0.0706    0.4905    0.2260 H   0  0  0  0  0  0  0  0  0  0  0  0
    1.1460    2.1312    0.1143 H   0  0  0  0  0  0  0  0  0  0  0  0
   -0.1528    1.9384   -3.5999 H   0  0  0  0  0  0  0  0  0  0  0  0
    1.3387    0.8324   -3.5999 H   0  0  0  0  0  0  0  0  0  0  0  0
  1  2  3  0
  1  5  1  0
  2  3  1  0
  3  4  2  3
  4  6  1  0
  4  7  1  0
  8  9  2  0
  8 11  1  0
  8 12  1  0
  9 10  2  0
 10 13  1  0
 10 14  1  0
M  RAD  1   3   2
M  END
>  <reaction>  (12) 
rxn_1798

>  <mol_properties>  (12) 
{"1": {"label": "*4", "atom_type": "Ct"}, "2": {"label": "*3", "atom_type": "Cd"}, "7": {"label": "*1", "atom_type": "Cd"}, "8": {"label": "*0", "atom_type": "Cdd"}, "10": {"label": "*2", "atom_type": "H0"}}

>  <type>  (12) 
unop_8

>  <geom_source>  (12) 
Heuristics

$$$$

     RDKit          3D

 14 12  0  0  0  0  0  0  0  0999 V2000
   -2.3054   -1.4904    0.0231 C   0  0  0  0  0  0  0  0  0  0  0  0
   -1.3264   -1.0722    0.5755 C   0  0  0  0  0  0  0  0  0  0  0  0
   -0.1522   -0.5642    1.2042 C   0  0  0  0  0  3  0  0  0  0  0  0
    0.1012   -0.6763    2.5038 C   0  0  0  0  0  0  0  0  0  0  0  0
   -3.1735   -1.8612   -0.4667 H   0  0  0  0  0  0  0  0  0  0  0  0
   -0.5888   -1.1728    3.1739 H   0  0  0  0  0  0  0  0  0  0  0  0
    1.0106   -0.2706    2.9268 H   0  0  0  0  0  0  0  0  0  0  0  0
    1.1760    1.2270   -0.1370 C   0  0  0  0  0  0  0  0  0  0  0  0
    1.1760    1.2270   -1.4356 C   0  0  0  0  0  0  0  0  0  0  0  0
    1.1760    1.2270   -2.7343 C   0  0  0  0  0  0  0  0  0  0  0  0
    0.5124    0.3321    0.5331 H   0  0  0  0  0  0  0  0  0  0  0  0
    1.7290    1.9727    0.4214 H   0  0  0  0  0  0  0  0  0  0  0  0
    0.4303    1.7800   -3.2927 H   0  0  0  0  0  0  0  0  0  0  0  0
    1.9218    0.6740   -3.2927 H   0  0  0  0  0  0  0  0  0  0  0  0
  1  2  3  0
  1  5  1  0
  2  3  1  0
  3  4  2  3
  4  6  1  0
  4  7  1  0
  8  9  2  0
  8 11  1  0
  8 12  1  0
  9 10  2  0
 10 13  1  0
 10 14  1  0
M  RAD  1   3   2
M  END
>  <reaction>  (13) 
rxn_1798

>  <mol_properties>  (13) 
{"1": {"label": "*4", "atom_type": "Ct"}, "2": {"label": "*3", "atom_type": "Cd"}, "7": {"label": "*1", "atom_type": "Cd"}, "8": {"label": "*0", "atom_type": "Cdd"}, "10": {"label": "*2", "atom_type": "H0"}}

>  <type>  (13) 
unop_9

>  <geom_source>  (13) 
Heuristics

$$$$

     RDKit          3D

 14 12  0  0  0  0  0  0  0  0999 V2000
    0.0375   -2.8063    0.6224 C   0  0  0  0  0  0  0  0  0  0  0  0
   -0.2847   -1.6714    0.8385 C   0  0  0  0  0  0  0  0  0  0  0  0
   -0.6603   -0.3150    1.0653 C   0  0  0  0  0  3  0  0  0  0  0  0
   -1.1181    0.1440    2.2253 C   0  0  0  0  0  0  0  0  0  0  0  0
    0.3233   -3.8125    0.4308 H   0  0  0  0  0  0  0  0  0  0  0  0
   -1.2339   -0.5045    3.0842 H   0  0  0  0  0  0  0  0  0  0  0  0
   -1.3883    1.1853    2.3399 H   0  0  0  0  0  0  0  0  0  0  0  0
    0.6679    1.4761   -0.2759 C   0  0  0  0  0  0  0  0  0  0  0  0
    0.6679    1.4761   -1.5746 C   0  0  0  0  0  0  0  0  0  0  0  0
    0.6679    1.4761   -2.8732 C   0  0  0  0  0  0  0  0  0  0  0  0
    0.0043    0.5812    0.3942 H   0  0  0  0  0  0  0  0  0  0  0  0
    1.2209    2.2219    0.2825 H   0  0  0  0  0  0  0  0  0  0  0  0
   -0.0779    2.0291   -3.4316 H   0  0  0  0  0  0  0  0  0  0  0  0
    1.4136    0.9231   -3.4316 H   0  0  0  0  0  0  0  0  0  0  0  0
  1  2  3  0
  1  5  1  0
  2  3  1  0
  3  4  2  3
  4  6  1  0
  4  7  1  0
  8  9  2  0
  8 11  1  0
  8 12  1  0
  9 10  2  0
 10 13  1  0
 10 14  1  0
M  RAD  1   3   2
M  END
>  <reaction>  (14) 
rxn_1798

>  <mol_properties>  (14) 
{"1": {"label": "*4", "atom_type": "Ct"}, "2": {"label": "*3", "atom_type": "Cd"}, "7": {"label": "*1", "atom_type": "Cd"}, "8": {"label": "*0", "atom_type": "Cdd"}, "10": {"label": "*2", "atom_type": "H0"}}

>  <type>  (14) 
unop_10

>  <geom_source>  (14) 
Heuristics

$$$$

     RDKit          3D

 14 12  0  0  0  0  0  0  0  0999 V2000
   -1.3571    0.0284    3.0282 C   0  0  0  0  0  0  0  0  0  0  0  0
   -0.9393   -0.3420    1.9667 C   0  0  0  0  0  0  0  0  0  0  0  0
   -0.4464   -0.7527    0.6937 C   0  0  0  0  0  3  0  0  0  0  0  0
   -0.0615   -1.9930    0.4122 C   0  0  0  0  0  0  0  0  0  0  0  0
   -1.7275    0.3568    3.9694 H   0  0  0  0  0  0  0  0  0  0  0  0
   -0.1023   -2.7802    1.1540 H   0  0  0  0  0  0  0  0  0  0  0  0
    0.3050   -2.2478   -0.5734 H   0  0  0  0  0  0  0  0  0  0  0  0
    0.8818    1.0384   -0.6475 C   0  0  0  0  0  0  0  0  0  0  0  0
    0.8818    1.0384   -1.9462 C   0  0  0  0  0  0  0  0  0  0  0  0
    0.8818    1.0384   -3.2448 C   0  0  0  0  0  0  0  0  0  0  0  0
    0.2182    0.1435    0.0226 H   0  0  0  0  0  0  0  0  0  0  0  0
    1.4348    1.7842   -0.0891 H   0  0  0  0  0  0  0  0  0  0  0  0
    0.1360    1.5914   -3.8032 H   0  0  0  0  0  0  0  0  0  0  0  0
    1.6276    0.4854   -3.8032 H   0  0  0  0  0  0  0  0  0  0  0  0
  1  2  3  0
  1  5  1  0
  2  3  1  0
  3  4  2  3
  4  6  1  0
  4  7  1  0
  8  9  2  0
  8 11  1  0
  8 12  1  0
  9 10  2  0
 10 13  1  0
 10 14  1  0
M  RAD  1   3   2
M  END
>  <reaction>  (15) 
rxn_1798

>  <mol_properties>  (15) 
{"1": {"label": "*4", "atom_type": "Ct"}, "2": {"label": "*3", "atom_type": "Cd"}, "7": {"label": "*1", "atom_type": "Cd"}, "8": {"label": "*0", "atom_type": "Cdd"}, "10": {"label": "*2", "atom_type": "H0"}}

>  <type>  (15) 
unop_11

>  <geom_source>  (15) 
Heuristics

$$$$

     RDKit          3D

 14 12  0  0  0  0  0  0  0  0999 V2000
   -1.6020   -2.1604   -0.1922 C   0  0  0  0  0  0  0  0  0  0  0  0
   -1.0115   -1.3640    0.4828 C   0  0  0  0  0  0  0  0  0  0  0  0
   -0.2991   -0.4034    1.2586 C   0  0  0  0  0  3  0  0  0  0  0  0
   -0.2858   -0.3854    2.5872 C   0  0  0  0  0  0  0  0  0  0  0  0
   -2.1256   -2.8665   -0.7907 H   0  0  0  0  0  0  0  0  0  0  0  0
   -0.8297   -1.1189    3.1684 H   0  0  0  0  0  0  0  0  0  0  0  0
    0.2737    0.3691    3.1242 H   0  0  0  0  0  0  0  0  0  0  0  0
    1.0291    1.3878   -0.0826 C   0  0  0  0  0  0  0  0  0  0  0  0
    1.0291    1.3878   -1.3813 C   0  0  0  0  0  0  0  0  0  0  0  0
    1.0291    1.3878   -2.6799 C   0  0  0  0  0  0  0  0  0  0  0  0
    0.3655    0.4928    0.5875 H   0  0  0  0  0  0  0  0  0  0  0  0
    1.5821    2.1335    0.4758 H   0  0  0  0  0  0  0  0  0  0  0  0
    0.2833    1.9408   -3.2384 H   0  0  0  0  0  0  0  0  0  0  0  0
    1.7748    0.8347   -3.2384 H   0  0  0  0  0  0  0  0  0  0  0  0
  1  2  3  0
  1  5  1  0
  2  3  1  0
  3  4  2  3
  4  6  1  0
  4  7  1  0
  8  9  2  0
  8 11  1  0
  8 12  1  0
  9 10  2  0
 10 13  1  0
 10 14  1  0
M  RAD  1   3   2
M  END
>  <reaction>  (16) 
rxn_1798

>  <mol_properties>  (16) 
{"1": {"label": "*4", "atom_type": "Ct"}, "2": {"label": "*3", "atom_type": "Cd"}, "7": {"label": "*1", "atom_type": "Cd"}, "8": {"label": "*0", "atom_type": "Cdd"}, "10": {"label": "*2", "atom_type": "H0"}}

>  <type>  (16) 
unop_12

>  <geom_source>  (16) 
Heuristics

$$$$

     RDKit          3D

 14 12  0  0  0  0  0  0  0  0999 V2000
   -1.1466   -0.3339   -0.1424 C   0  0  0  0  0  0  0  0  0  0  0  0
   -1.8829   -1.2428    0.4857 C   0  0  0  0  0  0  0  0  0  0  0  0
    2.9262    0.8321    0.8495 C   0  0  0  0  0  3  0  0  0  0  0  0
   -1.7631    0.6963   -0.9340 C   0  0  0  0  0  0  0  0  0  0  0  0
    2.1489    0.0033    0.2127 C   0  0  0  0  0  0  0  0  0  0  0  0
    1.3716   -0.8255   -0.4241 C   0  0  0  0  0  0  0  0  0  0  0  0
   -2.2787    1.5604   -1.5979 C   0  0  0  0  0  0  0  0  0  0  0  0
    0.1644   -0.3727   -0.0416 H   0  0  0  0  0  0  0  0  0  0  0  0
   -1.4005   -2.0098    1.0765 H   0  0  0  0  0  0  0  0  0  0  0  0
   -2.9643   -1.2325    0.4188 H   0  0  0  0  0  0  0  0  0  0  0  0
    3.4509    1.6067    0.3071 H   0  0  0  0  0  0  0  0  0  0  0  0
    3.0472    0.7453    1.9206 H   0  0  0  0  0  0  0  0  0  0  0  0
   -2.7316    2.3188   -2.1807 H   0  0  0  0  0  0  0  0  0  0  0  0
    1.0585   -1.7457    0.0499 H   0  0  0  0  0  0  0  0  0  0  0  0
  1  2  2  3
  1  4  1  0
  1  8  1  0
  2  9  1  0
  2 10  1  0
  3  5  1  0
  3 11  1  0
  3 12  1  0
  4  7  3  0
  5  6  3  0
  6 14  1  0
  7 13  1  0
M  RAD  1   3   2
M  END
>  <reaction>  (17) 
rxn_1798

>  <mol_properties>  (17) 
{"1": {"label": "*4", "atom_type": "Ct"}, "2": {"label": "*3", "atom_type": "Cd"}, "7": {"label": "*1", "atom_type": "Cd"}, "8": {"label": "*0", "atom_type": "Cdd"}, "10": {"label": "*2", "atom_type": "H0"}}

>  <type>  (17) 
unop_13

>  <geom_source>  (17) 
AutoTST

$$$$
