
     RDKit          3D

  8  7  0  0  0  0  0  0  0  0999 V2000
    0.7610    0.0250    0.0051 C   0  0  0  0  0  0  0  0  0  0  0  0
   -0.7610   -0.0250   -0.0051 C   0  0  0  0  0  0  0  0  0  0  0  0
    1.1904   -0.9237   -0.3217 H   0  0  0  0  0  0  0  0  0  0  0  0
    1.1359    0.8041   -0.6609 H   0  0  0  0  0  0  0  0  0  0  0  0
    1.1435    0.2336    1.0058 H   0  0  0  0  0  0  0  0  0  0  0  0
   -1.1435   -0.2336   -1.0058 H   0  0  0  0  0  0  0  0  0  0  0  0
   -1.1904    0.9237    0.3216 H   0  0  0  0  0  0  0  0  0  0  0  0
   -1.1359   -0.8041    0.6609 H   0  0  0  0  0  0  0  0  0  0  0  0
  1  2  1  0
  1  3  1  0
  1  4  1  0
  1  5  1  0
  2  6  1  0
  2  7  1  0
  2  8  1  0
M  END
>  <reaction>  (1) 
rxn_324

>  <mol_properties>  (1) 
{"1": {"label": "donator", "atom_type": "Cs"}, "5": {"label": "d_hydrogen", "atom_type": "H0"}}

>  <type>  (1) 
r1h

$$$$

     RDKit          3D

 11 11  0  0  0  0  0  0  0  0999 V2000
    0.1524   -1.5397    0.0698 C   0  0  0  0  0  3  0  0  0  0  0  0
   -1.1218   -1.0406    0.0516 C   0  0  0  0  0  0  0  0  0  0  0  0
   -1.2464    0.3470   -0.0114 C   0  0  0  0  0  0  0  0  0  0  0  0
   -0.1137    1.1487   -0.0521 C   0  0  0  0  0  0  0  0  0  0  0  0
    1.1542    0.5837   -0.0308 C   0  0  0  0  0  0  0  0  0  0  0  0
    1.3041   -0.8014    0.0319 C   0  0  0  0  0  0  0  0  0  0  0  0
   -1.9955   -1.6793    0.0840 H   0  0  0  0  0  0  0  0  0  0  0  0
   -2.2319    0.7966   -0.0284 H   0  0  0  0  0  0  0  0  0  0  0  0
   -0.2203    2.2248   -0.1009 H   0  0  0  0  0  0  0  0  0  0  0  0
    2.0325    1.2173   -0.0630 H   0  0  0  0  0  0  0  0  0  0  0  0
    2.2862   -1.2570    0.0492 H   0  0  0  0  0  0  0  0  0  0  0  0
  1  2  2  0
  1  6  1  0
  2  3  1  0
  2  7  1  0
  3  4  2  0
  3  8  1  0
  4  5  1  0
  4  9  1  0
  5  6  2  0
  5 10  1  0
  6 11  1  0
M  RAD  1   1   2
M  END
>  <reaction>  (2) 
rxn_324

>  <mol_properties>  (2) 
{"0": {"label": "acceptor", "atom_type": "Cd"}}

>  <type>  (2) 
r2

$$$$

     RDKit          3D

 12 12  0  0  0  0  0  0  0  0999 V2000
   -1.2385    0.6248   -0.0199 C   0  0  0  0  0  0  0  0  0  0  0  0
   -0.0779    1.3848   -0.0298 C   0  0  0  0  0  0  0  0  0  0  0  0
    1.1605    0.7600   -0.0100 C   0  0  0  0  0  0  0  0  0  0  0  0
    1.2385   -0.6248    0.0199 C   0  0  0  0  0  0  0  0  0  0  0  0
    0.0779   -1.3848    0.0298 C   0  0  0  0  0  0  0  0  0  0  0  0
   -1.1606   -0.7600    0.0100 C   0  0  0  0  0  0  0  0  0  0  0  0
   -2.2052    1.1125   -0.0354 H   0  0  0  0  0  0  0  0  0  0  0  0
   -0.1387    2.4657   -0.0531 H   0  0  0  0  0  0  0  0  0  0  0  0
    2.0664    1.3532   -0.0177 H   0  0  0  0  0  0  0  0  0  0  0  0
    2.2052   -1.1125    0.0354 H   0  0  0  0  0  0  0  0  0  0  0  0
    0.1387   -2.4657    0.0531 H   0  0  0  0  0  0  0  0  0  0  0  0
   -2.0664   -1.3532    0.0177 H   0  0  0  0  0  0  0  0  0  0  0  0
  1  2  2  0
  1  6  1  0
  1  7  1  0
  2  3  1  0
  2  8  1  0
  3  4  2  0
  3  9  1  0
  4  5  1  0
  4 10  1  0
  5  6  2  0
  5 11  1  0
  6 12  1  0
M  END
>  <reaction>  (3) 
rxn_324

>  <mol_properties>  (3) 
{"0": {"label": "acceptor", "atom_type": "Cd"}, "11": {"label": "a_hydrogen", "atom_type": "H0"}}

>  <type>  (3) 
r2h

$$$$

     RDKit          3D

 19 18  0  0  0  0  0  0  0  0999 V2000
   -0.0008   -0.2902    0.1571 C   0  0  0  0  0  3  0  0  0  0  0  0
    0.0270    0.7338   -0.7643 C   0  0  0  0  0  0  0  0  0  0  0  0
    0.0501    2.0451   -0.3008 C   0  0  0  0  0  0  0  0  0  0  0  0
    0.0450    2.2989    1.0637 C   0  0  0  0  0  0  0  0  0  0  0  0
    0.0169    1.2492    1.9717 C   0  0  0  0  0  0  0  0  0  0  0  0
   -0.0064   -0.0647    1.5164 C   0  0  0  0  0  0  0  0  0  0  0  0
    0.0307    0.5265   -1.8282 H   0  0  0  0  0  0  0  0  0  0  0  0
    0.0721    2.8679   -1.0053 H   0  0  0  0  0  0  0  0  0  0  0  0
    0.0631    3.3206    1.4217 H   0  0  0  0  0  0  0  0  0  0  0  0
    0.0130    1.4532    3.0357 H   0  0  0  0  0  0  0  0  0  0  0  0
   -0.0284   -0.8897    2.2189 H   0  0  0  0  0  0  0  0  0  0  0  0
   -0.0284   -2.5948   -2.3381 C   0  0  0  0  0  0  0  0  0  0  0  0
   -0.0437   -2.7754   -0.8407 C   0  0  0  0  0  0  0  0  0  0  0  0
   -0.8977   -2.0272   -2.6760 H   0  0  0  0  0  0  0  0  0  0  0  0
    0.8682   -2.0631   -2.6624 H   0  0  0  0  0  0  0  0  0  0  0  0
   -0.0440   -3.5575   -2.8570 H   0  0  0  0  0  0  0  0  0  0  0  0
   -0.0241   -1.6163   -0.3190 H   0  0  0  0  0  0  0  0  0  0  0  0
    0.8414   -3.2676   -0.4397 H   0  0  0  0  0  0  0  0  0  0  0  0
   -0.9541   -3.2311   -0.4535 H   0  0  0  0  0  0  0  0  0  0  0  0
  1  2  2  0
  1  6  1  0
  2  3  1  0
  2  7  1  0
  3  4  2  0
  3  8  1  0
  4  5  1  0
  4  9  1  0
  5  6  2  0
  5 10  1  0
  6 11  1  0
 12 13  1  0
 12 14  1  0
 12 15  1  0
 12 16  1  0
 13 17  1  0
 13 18  1  0
 13 19  1  0
M  RAD  1   1   2
M  END
>  <reaction>  (4) 
rxn_324

>  <mol_properties>  (4) 
{"0": {"label": "*3", "atom_type": "Cd"}, "1": {"label": "*4", "atom_type": "Cd"}, "11": {"label": "*0", "atom_type": "Cs"}, "12": {"label": "*1", "atom_type": "Cs"}, "16": {"label": "*2", "atom_type": "H0"}}

>  <type>  (4) 
ts

$$$$

     RDKit          3D

 19 18  0  0  0  0  0  0  0  0999 V2000
   -0.2003    0.1535   -0.3733 C   0  0  0  0  0  0  0  0  0  0  0  0
   -1.2408    0.5821    0.4381 C   0  0  0  0  0  0  0  0  0  0  0  0
   -0.9687    1.2976    1.5950 C   0  0  0  0  0  0  0  0  0  0  0  0
    0.3439    1.5847    1.9406 C   0  0  0  0  0  0  0  0  0  0  0  0
    1.3843    1.1562    1.1292 C   0  0  0  0  0  0  0  0  0  0  0  0
    1.1123    0.4406   -0.0278 C   0  0  0  0  0  0  0  0  0  0  0  0
   -2.2653    0.3580    0.1684 H   0  0  0  0  0  0  0  0  0  0  0  0
   -1.7808    1.6321    2.2284 H   0  0  0  0  0  0  0  0  0  0  0  0
    0.5563    2.1433    2.8436 H   0  0  0  0  0  0  0  0  0  0  0  0
    2.4088    1.3802    1.3989 H   0  0  0  0  0  0  0  0  0  0  0  0
    1.9244    0.1061   -0.6611 H   0  0  0  0  0  0  0  0  0  0  0  0
   -0.2003   -2.2779   -2.8424 C   0  0  0  0  0  0  0  0  0  0  0  0
   -0.2003   -2.2779   -1.3196 C   0  0  0  0  0  3  0  0  0  0  0  0
   -1.0811   -1.7694   -3.2382 H   0  0  0  0  0  0  0  0  0  0  0  0
    0.6805   -1.7694   -3.2382 H   0  0  0  0  0  0  0  0  0  0  0  0
   -0.2003   -3.2951   -3.2382 H   0  0  0  0  0  0  0  0  0  0  0  0
   -0.2003   -1.0574   -0.8446 H   0  0  0  0  0  0  0  0  0  0  0  0
    0.6805   -2.7865   -0.9237 H   0  0  0  0  0  0  0  0  0  0  0  0
   -1.0811   -2.7865   -0.9237 H   0  0  0  0  0  0  0  0  0  0  0  0
  1  2  2  0
  1  6  1  0
  1 17  1  0
  2  3  1  0
  2  7  1  0
  3  4  2  0
  3  8  1  0
  4  5  1  0
  4  9  1  0
  5  6  2  0
  5 10  1  0
  6 11  1  0
 12 13  1  0
 12 14  1  0
 12 15  1  0
 12 16  1  0
 13 18  1  0
 13 19  1  0
M  RAD  1  13   2
M  END
>  <reaction>  (5) 
rxn_324

>  <mol_properties>  (5) 
{"0": {"label": "*3", "atom_type": "Cd"}, "1": {"label": "*4", "atom_type": "Cd"}, "11": {"label": "*0", "atom_type": "Cs"}, "12": {"label": "*1", "atom_type": "Cs"}, "16": {"label": "*2", "atom_type": "H0"}}

>  <type>  (5) 
unop_1

>  <geom_source>  (5) 
Heuristics

$$$$

     RDKit          3D

 19 18  0  0  0  0  0  0  0  0999 V2000
    0.2446   -0.1949    0.0124 C   0  0  0  0  0  0  0  0  0  0  0  0
   -0.3561    0.8288   -0.7056 C   0  0  0  0  0  0  0  0  0  0  0  0
   -0.6884    2.0178   -0.0726 C   0  0  0  0  0  0  0  0  0  0  0  0
   -0.4199    2.1829    1.2784 C   0  0  0  0  0  0  0  0  0  0  0  0
    0.1808    1.1591    1.9964 C   0  0  0  0  0  0  0  0  0  0  0  0
    0.5131   -0.0298    1.3635 C   0  0  0  0  0  0  0  0  0  0  0  0
   -0.5657    0.6999   -1.7602 H   0  0  0  0  0  0  0  0  0  0  0  0
   -1.1573    2.8169   -0.6331 H   0  0  0  0  0  0  0  0  0  0  0  0
   -0.6792    3.1110    1.7724 H   0  0  0  0  0  0  0  0  0  0  0  0
    0.3904    1.2881    3.0509 H   0  0  0  0  0  0  0  0  0  0  0  0
    0.9820   -0.8289    1.9239 H   0  0  0  0  0  0  0  0  0  0  0  0
    0.2446   -2.6264   -2.4566 C   0  0  0  0  0  0  0  0  0  0  0  0
    0.2446   -2.6264   -0.9339 C   0  0  0  0  0  3  0  0  0  0  0  0
   -0.6363   -2.1178   -2.8525 H   0  0  0  0  0  0  0  0  0  0  0  0
    1.1254   -2.1178   -2.8525 H   0  0  0  0  0  0  0  0  0  0  0  0
    0.2446   -3.6435   -2.8525 H   0  0  0  0  0  0  0  0  0  0  0  0
    0.2446   -1.4059   -0.4588 H   0  0  0  0  0  0  0  0  0  0  0  0
    1.1254   -3.1350   -0.5380 H   0  0  0  0  0  0  0  0  0  0  0  0
   -0.6363   -3.1350   -0.5380 H   0  0  0  0  0  0  0  0  0  0  0  0
  1  2  2  0
  1  6  1  0
  1 17  1  0
  2  3  1  0
  2  7  1  0
  3  4  2  0
  3  8  1  0
  4  5  1  0
  4  9  1  0
  5  6  2  0
  5 10  1  0
  6 11  1  0
 12 13  1  0
 12 14  1  0
 12 15  1  0
 12 16  1  0
 13 18  1  0
 13 19  1  0
M  RAD  1  13   2
M  END
>  <reaction>  (6) 
rxn_324

>  <mol_properties>  (6) 
{"0": {"label": "*3", "atom_type": "Cd"}, "1": {"label": "*4", "atom_type": "Cd"}, "11": {"label": "*0", "atom_type": "Cs"}, "12": {"label": "*1", "atom_type": "Cs"}, "16": {"label": "*2", "atom_type": "H0"}}

>  <type>  (6) 
unop_2

>  <geom_source>  (6) 
Heuristics

$$$$

     RDKit          3D

 19 18  0  0  0  0  0  0  0  0999 V2000
   -0.4066   -0.0161   -0.1482 C   0  0  0  0  0  0  0  0  0  0  0  0
   -1.0073    0.2529    1.0730 C   0  0  0  0  0  0  0  0  0  0  0  0
   -0.4550    1.1989    1.9242 C   0  0  0  0  0  0  0  0  0  0  0  0
    0.6980    1.8759    1.5542 C   0  0  0  0  0  0  0  0  0  0  0  0
    1.2987    1.6069    0.3330 C   0  0  0  0  0  0  0  0  0  0  0  0
    0.7464    0.6609   -0.5182 C   0  0  0  0  0  0  0  0  0  0  0  0
   -1.9073   -0.2755    1.3617 H   0  0  0  0  0  0  0  0  0  0  0  0
   -0.9239    1.4090    2.8774 H   0  0  0  0  0  0  0  0  0  0  0  0
    1.1291    2.6143    2.2187 H   0  0  0  0  0  0  0  0  0  0  0  0
    2.1987    2.1352    0.0443 H   0  0  0  0  0  0  0  0  0  0  0  0
    1.2153    0.4509   -1.4714 H   0  0  0  0  0  0  0  0  0  0  0  0
   -0.4066   -2.4476   -2.6173 C   0  0  0  0  0  0  0  0  0  0  0  0
   -0.4066   -2.4476   -1.0945 C   0  0  0  0  0  3  0  0  0  0  0  0
   -1.2874   -1.9390   -3.0132 H   0  0  0  0  0  0  0  0  0  0  0  0
    0.4743   -1.9390   -3.0132 H   0  0  0  0  0  0  0  0  0  0  0  0
   -0.4066   -3.4647   -3.0132 H   0  0  0  0  0  0  0  0  0  0  0  0
   -0.4066   -1.2270   -0.6195 H   0  0  0  0  0  0  0  0  0  0  0  0
    0.4743   -2.9561   -0.6987 H   0  0  0  0  0  0  0  0  0  0  0  0
   -1.2874   -2.9561   -0.6987 H   0  0  0  0  0  0  0  0  0  0  0  0
  1  2  2  0
  1  6  1  0
  1 17  1  0
  2  3  1  0
  2  7  1  0
  3  4  2  0
  3  8  1  0
  4  5  1  0
  4  9  1  0
  5  6  2  0
  5 10  1  0
  6 11  1  0
 12 13  1  0
 12 14  1  0
 12 15  1  0
 12 16  1  0
 13 18  1  0
 13 19  1  0
M  RAD  1  13   2
M  END
>  <reaction>  (7) 
rxn_324

>  <mol_properties>  (7) 
{"0": {"label": "*3", "atom_type": "Cd"}, "1": {"label": "*4", "atom_type": "Cd"}, "11": {"label": "*0", "atom_type": "Cs"}, "12": {"label": "*1", "atom_type": "Cs"}, "16": {"label": "*2", "atom_type": "H0"}}

>  <type>  (7) 
unop_3

>  <geom_source>  (7) 
Heuristics

$$$$

     RDKit          3D

 19 18  0  0  0  0  0  0  0  0999 V2000
   -0.2945   -0.0259   -0.1979 C   0  0  0  0  0  0  0  0  0  0  0  0
    0.7459    0.8383   -0.5062 C   0  0  0  0  0  0  0  0  0  0  0  0
    1.1460    1.7977    0.4126 C   0  0  0  0  0  0  0  0  0  0  0  0
    0.5057    1.8928    1.6395 C   0  0  0  0  0  0  0  0  0  0  0  0
   -0.5348    1.0285    1.9478 C   0  0  0  0  0  0  0  0  0  0  0  0
   -0.9349    0.0692    1.0290 C   0  0  0  0  0  0  0  0  0  0  0  0
    1.2458    0.7641   -1.4639 H   0  0  0  0  0  0  0  0  0  0  0  0
    1.9582    2.4723    0.1720 H   0  0  0  0  0  0  0  0  0  0  0  0
    0.8179    2.6417    2.3567 H   0  0  0  0  0  0  0  0  0  0  0  0
   -1.0347    1.1028    2.9055 H   0  0  0  0  0  0  0  0  0  0  0  0
   -1.7471   -0.6055    1.2696 H   0  0  0  0  0  0  0  0  0  0  0  0
   -0.2945   -2.4574   -2.6670 C   0  0  0  0  0  0  0  0  0  0  0  0
   -0.2945   -2.4574   -1.1442 C   0  0  0  0  0  3  0  0  0  0  0  0
   -1.1754   -1.9489   -3.0629 H   0  0  0  0  0  0  0  0  0  0  0  0
    0.5863   -1.9489   -3.0629 H   0  0  0  0  0  0  0  0  0  0  0  0
   -0.2945   -3.4745   -3.0629 H   0  0  0  0  0  0  0  0  0  0  0  0
   -0.2945   -1.2369   -0.6692 H   0  0  0  0  0  0  0  0  0  0  0  0
    0.5863   -2.9660   -0.7484 H   0  0  0  0  0  0  0  0  0  0  0  0
   -1.1754   -2.9660   -0.7484 H   0  0  0  0  0  0  0  0  0  0  0  0
  1  2  2  0
  1  6  1  0
  1 17  1  0
  2  3  1  0
  2  7  1  0
  3  4  2  0
  3  8  1  0
  4  5  1  0
  4  9  1  0
  5  6  2  0
  5 10  1  0
  6 11  1  0
 12 13  1  0
 12 14  1  0
 12 15  1  0
 12 16  1  0
 13 18  1  0
 13 19  1  0
M  RAD  1  13   2
M  END
>  <reaction>  (8) 
rxn_324

>  <mol_properties>  (8) 
{"0": {"label": "*3", "atom_type": "Cd"}, "1": {"label": "*4", "atom_type": "Cd"}, "11": {"label": "*0", "atom_type": "Cs"}, "12": {"label": "*1", "atom_type": "Cs"}, "16": {"label": "*2", "atom_type": "H0"}}

>  <type>  (8) 
unop_4

>  <geom_source>  (8) 
Heuristics

$$$$

     RDKit          3D

 19 18  0  0  0  0  0  0  0  0999 V2000
   -0.0000   -0.2714    0.1080 C   0  0  0  0  0  0  0  0  0  0  0  0
   -0.0000   -0.0608    1.4792 C   0  0  0  0  0  0  0  0  0  0  0  0
   -0.0000    1.2321    1.9823 C   0  0  0  0  0  0  0  0  0  0  0  0
    0.0000    2.3143    1.1143 C   0  0  0  0  0  0  0  0  0  0  0  0
    0.0000    2.1036   -0.2569 C   0  0  0  0  0  0  0  0  0  0  0  0
    0.0000    0.8107   -0.7601 C   0  0  0  0  0  0  0  0  0  0  0  0
   -0.0000   -0.9054    2.1568 H   0  0  0  0  0  0  0  0  0  0  0  0
   -0.0000    1.3965    3.0526 H   0  0  0  0  0  0  0  0  0  0  0  0
    0.0000    3.3234    1.5071 H   0  0  0  0  0  0  0  0  0  0  0  0
    0.0000    2.9482   -0.9344 H   0  0  0  0  0  0  0  0  0  0  0  0
    0.0000    0.6463   -1.8304 H   0  0  0  0  0  0  0  0  0  0  0  0
   -0.0000   -2.7029   -2.3611 C   0  0  0  0  0  0  0  0  0  0  0  0
   -0.0000   -2.7029   -0.8383 C   0  0  0  0  0  3  0  0  0  0  0  0
   -0.8808   -2.1943   -2.7569 H   0  0  0  0  0  0  0  0  0  0  0  0
    0.8808   -2.1943   -2.7569 H   0  0  0  0  0  0  0  0  0  0  0  0
   -0.0000   -3.7200   -2.7569 H   0  0  0  0  0  0  0  0  0  0  0  0
   -0.0000   -1.4824   -0.3633 H   0  0  0  0  0  0  0  0  0  0  0  0
    0.8808   -3.2114   -0.4424 H   0  0  0  0  0  0  0  0  0  0  0  0
   -0.8808   -3.2114   -0.4424 H   0  0  0  0  0  0  0  0  0  0  0  0
  1  2  2  0
  1  6  1  0
  1 17  1  0
  2  3  1  0
  2  7  1  0
  3  4  2  0
  3  8  1  0
  4  5  1  0
  4  9  1  0
  5  6  2  0
  5 10  1  0
  6 11  1  0
 12 13  1  0
 12 14  1  0
 12 15  1  0
 12 16  1  0
 13 18  1  0
 13 19  1  0
M  RAD  1  13   2
M  END
>  <reaction>  (9) 
rxn_324

>  <mol_properties>  (9) 
{"0": {"label": "*3", "atom_type": "Cd"}, "1": {"label": "*4", "atom_type": "Cd"}, "11": {"label": "*0", "atom_type": "Cs"}, "12": {"label": "*1", "atom_type": "Cs"}, "16": {"label": "*2", "atom_type": "H0"}}

>  <type>  (9) 
unop_5

>  <geom_source>  (9) 
Heuristics

$$$$

     RDKit          3D

 19 18  0  0  0  0  0  0  0  0999 V2000
   -0.1117    0.1219   -0.3693 C   0  0  0  0  0  0  0  0  0  0  0  0
    1.0898    0.7683   -0.1178 C   0  0  0  0  0  0  0  0  0  0  0  0
    1.2414    1.5269    1.0338 C   0  0  0  0  0  0  0  0  0  0  0  0
    0.1917    1.6390    1.9338 C   0  0  0  0  0  0  0  0  0  0  0  0
   -1.0097    0.9926    1.6822 C   0  0  0  0  0  0  0  0  0  0  0  0
   -1.1614    0.2340    0.5306 C   0  0  0  0  0  0  0  0  0  0  0  0
    1.9092    0.6808   -0.8203 H   0  0  0  0  0  0  0  0  0  0  0  0
    2.1792    2.0314    1.2302 H   0  0  0  0  0  0  0  0  0  0  0  0
    0.3101    2.2311    2.8327 H   0  0  0  0  0  0  0  0  0  0  0  0
   -1.8291    1.0802    2.3847 H   0  0  0  0  0  0  0  0  0  0  0  0
   -2.0992   -0.2705    0.3343 H   0  0  0  0  0  0  0  0  0  0  0  0
   -0.1117   -2.3096   -2.8384 C   0  0  0  0  0  0  0  0  0  0  0  0
   -0.1117   -2.3096   -1.3156 C   0  0  0  0  0  3  0  0  0  0  0  0
   -0.9925   -1.8010   -3.2343 H   0  0  0  0  0  0  0  0  0  0  0  0
    0.7692   -1.8010   -3.2343 H   0  0  0  0  0  0  0  0  0  0  0  0
   -0.1117   -3.3267   -3.2343 H   0  0  0  0  0  0  0  0  0  0  0  0
   -0.1117   -1.0890   -0.8406 H   0  0  0  0  0  0  0  0  0  0  0  0
    0.7692   -2.8181   -0.9198 H   0  0  0  0  0  0  0  0  0  0  0  0
   -0.9925   -2.8181   -0.9198 H   0  0  0  0  0  0  0  0  0  0  0  0
  1  2  2  0
  1  6  1  0
  1 17  1  0
  2  3  1  0
  2  7  1  0
  3  4  2  0
  3  8  1  0
  4  5  1  0
  4  9  1  0
  5  6  2  0
  5 10  1  0
  6 11  1  0
 12 13  1  0
 12 14  1  0
 12 15  1  0
 12 16  1  0
 13 18  1  0
 13 19  1  0
M  RAD  1  13   2
M  END
>  <reaction>  (10) 
rxn_324

>  <mol_properties>  (10) 
{"0": {"label": "*3", "atom_type": "Cd"}, "1": {"label": "*4", "atom_type": "Cd"}, "11": {"label": "*0", "atom_type": "Cs"}, "12": {"label": "*1", "atom_type": "Cs"}, "16": {"label": "*2", "atom_type": "H0"}}

>  <type>  (10) 
unop_6

>  <geom_source>  (10) 
Heuristics

$$$$

     RDKit          3D

 19 18  0  0  0  0  0  0  0  0999 V2000
    0.2003    0.1535   -0.3733 C   0  0  0  0  0  0  0  0  0  0  0  0
    1.2408    0.5821    0.4381 C   0  0  0  0  0  0  0  0  0  0  0  0
    0.9687    1.2976    1.5950 C   0  0  0  0  0  0  0  0  0  0  0  0
   -0.3439    1.5847    1.9406 C   0  0  0  0  0  0  0  0  0  0  0  0
   -1.3843    1.1562    1.1292 C   0  0  0  0  0  0  0  0  0  0  0  0
   -1.1123    0.4406   -0.0278 C   0  0  0  0  0  0  0  0  0  0  0  0
    2.2653    0.3580    0.1684 H   0  0  0  0  0  0  0  0  0  0  0  0
    1.7808    1.6321    2.2284 H   0  0  0  0  0  0  0  0  0  0  0  0
   -0.5563    2.1433    2.8436 H   0  0  0  0  0  0  0  0  0  0  0  0
   -2.4088    1.3802    1.3989 H   0  0  0  0  0  0  0  0  0  0  0  0
   -1.9244    0.1061   -0.6611 H   0  0  0  0  0  0  0  0  0  0  0  0
    0.2003   -2.2779   -2.8424 C   0  0  0  0  0  0  0  0  0  0  0  0
    0.2003   -2.2779   -1.3196 C   0  0  0  0  0  3  0  0  0  0  0  0
   -0.6805   -1.7694   -3.2382 H   0  0  0  0  0  0  0  0  0  0  0  0
    1.0811   -1.7694   -3.2382 H   0  0  0  0  0  0  0  0  0  0  0  0
    0.2003   -3.2951   -3.2382 H   0  0  0  0  0  0  0  0  0  0  0  0
    0.2003   -1.0574   -0.8446 H   0  0  0  0  0  0  0  0  0  0  0  0
    1.0811   -2.7865   -0.9237 H   0  0  0  0  0  0  0  0  0  0  0  0
   -0.6805   -2.7865   -0.9237 H   0  0  0  0  0  0  0  0  0  0  0  0
  1  2  2  0
  1  6  1  0
  1 17  1  0
  2  3  1  0
  2  7  1  0
  3  4  2  0
  3  8  1  0
  4  5  1  0
  4  9  1  0
  5  6  2  0
  5 10  1  0
  6 11  1  0
 12 13  1  0
 12 14  1  0
 12 15  1  0
 12 16  1  0
 13 18  1  0
 13 19  1  0
M  RAD  1  13   2
M  END
>  <reaction>  (11) 
rxn_324

>  <mol_properties>  (11) 
{"0": {"label": "*3", "atom_type": "Cd"}, "1": {"label": "*4", "atom_type": "Cd"}, "11": {"label": "*0", "atom_type": "Cs"}, "12": {"label": "*1", "atom_type": "Cs"}, "16": {"label": "*2", "atom_type": "H0"}}

>  <type>  (11) 
unop_7

>  <geom_source>  (11) 
Heuristics

$$$$

     RDKit          3D

 19 18  0  0  0  0  0  0  0  0999 V2000
    0.1117    0.1219   -0.3693 C   0  0  0  0  0  0  0  0  0  0  0  0
   -1.0898    0.7683   -0.1178 C   0  0  0  0  0  0  0  0  0  0  0  0
   -1.2414    1.5269    1.0338 C   0  0  0  0  0  0  0  0  0  0  0  0
   -0.1917    1.6390    1.9338 C   0  0  0  0  0  0  0  0  0  0  0  0
    1.0097    0.9926    1.6822 C   0  0  0  0  0  0  0  0  0  0  0  0
    1.1614    0.2340    0.5306 C   0  0  0  0  0  0  0  0  0  0  0  0
   -1.9092    0.6808   -0.8203 H   0  0  0  0  0  0  0  0  0  0  0  0
   -2.1792    2.0314    1.2302 H   0  0  0  0  0  0  0  0  0  0  0  0
   -0.3101    2.2311    2.8327 H   0  0  0  0  0  0  0  0  0  0  0  0
    1.8291    1.0802    2.3847 H   0  0  0  0  0  0  0  0  0  0  0  0
    2.0992   -0.2705    0.3343 H   0  0  0  0  0  0  0  0  0  0  0  0
    0.1117   -2.3096   -2.8384 C   0  0  0  0  0  0  0  0  0  0  0  0
    0.1117   -2.3096   -1.3156 C   0  0  0  0  0  3  0  0  0  0  0  0
   -0.7692   -1.8010   -3.2343 H   0  0  0  0  0  0  0  0  0  0  0  0
    0.9925   -1.8010   -3.2343 H   0  0  0  0  0  0  0  0  0  0  0  0
    0.1117   -3.3267   -3.2343 H   0  0  0  0  0  0  0  0  0  0  0  0
    0.1117   -1.0890   -0.8406 H   0  0  0  0  0  0  0  0  0  0  0  0
    0.9925   -2.8181   -0.9198 H   0  0  0  0  0  0  0  0  0  0  0  0
   -0.7692   -2.8181   -0.9198 H   0  0  0  0  0  0  0  0  0  0  0  0
  1  2  2  0
  1  6  1  0
  1 17  1  0
  2  3  1  0
  2  7  1  0
  3  4  2  0
  3  8  1  0
  4  5  1  0
  4  9  1  0
  5  6  2  0
  5 10  1  0
  6 11  1  0
 12 13  1  0
 12 14  1  0
 12 15  1  0
 12 16  1  0
 13 18  1  0
 13 19  1  0
M  RAD  1  13   2
M  END
>  <reaction>  (12) 
rxn_324

>  <mol_properties>  (12) 
{"0": {"label": "*3", "atom_type": "Cd"}, "1": {"label": "*4", "atom_type": "Cd"}, "11": {"label": "*0", "atom_type": "Cs"}, "12": {"label": "*1", "atom_type": "Cs"}, "16": {"label": "*2", "atom_type": "H0"}}

>  <type>  (12) 
unop_8

>  <geom_source>  (12) 
Heuristics

$$$$

     RDKit          3D

 19 18  0  0  0  0  0  0  0  0999 V2000
   -0.2446   -0.1949    0.0124 C   0  0  0  0  0  0  0  0  0  0  0  0
    0.3561    0.8288   -0.7056 C   0  0  0  0  0  0  0  0  0  0  0  0
    0.6884    2.0178   -0.0726 C   0  0  0  0  0  0  0  0  0  0  0  0
    0.4199    2.1829    1.2784 C   0  0  0  0  0  0  0  0  0  0  0  0
   -0.1808    1.1591    1.9964 C   0  0  0  0  0  0  0  0  0  0  0  0
   -0.5131   -0.0298    1.3635 C   0  0  0  0  0  0  0  0  0  0  0  0
    0.5657    0.6999   -1.7602 H   0  0  0  0  0  0  0  0  0  0  0  0
    1.1573    2.8169   -0.6331 H   0  0  0  0  0  0  0  0  0  0  0  0
    0.6792    3.1110    1.7724 H   0  0  0  0  0  0  0  0  0  0  0  0
   -0.3904    1.2881    3.0509 H   0  0  0  0  0  0  0  0  0  0  0  0
   -0.9820   -0.8289    1.9239 H   0  0  0  0  0  0  0  0  0  0  0  0
   -0.2446   -2.6264   -2.4566 C   0  0  0  0  0  0  0  0  0  0  0  0
   -0.2446   -2.6264   -0.9339 C   0  0  0  0  0  3  0  0  0  0  0  0
   -1.1254   -2.1178   -2.8525 H   0  0  0  0  0  0  0  0  0  0  0  0
    0.6363   -2.1178   -2.8525 H   0  0  0  0  0  0  0  0  0  0  0  0
   -0.2446   -3.6435   -2.8525 H   0  0  0  0  0  0  0  0  0  0  0  0
   -0.2446   -1.4059   -0.4588 H   0  0  0  0  0  0  0  0  0  0  0  0
    0.6363   -3.1350   -0.5380 H   0  0  0  0  0  0  0  0  0  0  0  0
   -1.1254   -3.1350   -0.5380 H   0  0  0  0  0  0  0  0  0  0  0  0
  1  2  2  0
  1  6  1  0
  1 17  1  0
  2  3  1  0
  2  7  1  0
  3  4  2  0
  3  8  1  0
  4  5  1  0
  4  9  1  0
  5  6  2  0
  5 10  1  0
  6 11  1  0
 12 13  1  0
 12 14  1  0
 12 15  1  0
 12 16  1  0
 13 18  1  0
 13 19  1  0
M  RAD  1  13   2
M  END
>  <reaction>  (13) 
rxn_324

>  <mol_properties>  (13) 
{"0": {"label": "*3", "atom_type": "Cd"}, "1": {"label": "*4", "atom_type": "Cd"}, "11": {"label": "*0", "atom_type": "Cs"}, "12": {"label": "*1", "atom_type": "Cs"}, "16": {"label": "*2", "atom_type": "H0"}}

>  <type>  (13) 
unop_9

>  <geom_source>  (13) 
Heuristics

$$$$

     RDKit          3D

 19 18  0  0  0  0  0  0  0  0999 V2000
    0.2945   -0.0259   -0.1979 C   0  0  0  0  0  0  0  0  0  0  0  0
   -0.7459    0.8383   -0.5062 C   0  0  0  0  0  0  0  0  0  0  0  0
   -1.1460    1.7977    0.4126 C   0  0  0  0  0  0  0  0  0  0  0  0
   -0.5057    1.8928    1.6395 C   0  0  0  0  0  0  0  0  0  0  0  0
    0.5348    1.0285    1.9478 C   0  0  0  0  0  0  0  0  0  0  0  0
    0.9349    0.0692    1.0290 C   0  0  0  0  0  0  0  0  0  0  0  0
   -1.2458    0.7641   -1.4639 H   0  0  0  0  0  0  0  0  0  0  0  0
   -1.9582    2.4723    0.1720 H   0  0  0  0  0  0  0  0  0  0  0  0
   -0.8180    2.6417    2.3567 H   0  0  0  0  0  0  0  0  0  0  0  0
    1.0347    1.1028    2.9055 H   0  0  0  0  0  0  0  0  0  0  0  0
    1.7471   -0.6055    1.2696 H   0  0  0  0  0  0  0  0  0  0  0  0
    0.2945   -2.4574   -2.6670 C   0  0  0  0  0  0  0  0  0  0  0  0
    0.2945   -2.4574   -1.1442 C   0  0  0  0  0  3  0  0  0  0  0  0
   -0.5863   -1.9489   -3.0629 H   0  0  0  0  0  0  0  0  0  0  0  0
    1.1754   -1.9489   -3.0629 H   0  0  0  0  0  0  0  0  0  0  0  0
    0.2945   -3.4745   -3.0629 H   0  0  0  0  0  0  0  0  0  0  0  0
    0.2945   -1.2369   -0.6692 H   0  0  0  0  0  0  0  0  0  0  0  0
    1.1754   -2.9660   -0.7484 H   0  0  0  0  0  0  0  0  0  0  0  0
   -0.5863   -2.9660   -0.7484 H   0  0  0  0  0  0  0  0  0  0  0  0
  1  2  2  0
  1  6  1  0
  1 17  1  0
  2  3  1  0
  2  7  1  0
  3  4  2  0
  3  8  1  0
  4  5  1  0
  4  9  1  0
  5  6  2  0
  5 10  1  0
  6 11  1  0
 12 13  1  0
 12 14  1  0
 12 15  1  0
 12 16  1  0
 13 18  1  0
 13 19  1  0
M  RAD  1  13   2
M  END
>  <reaction>  (14) 
rxn_324

>  <mol_properties>  (14) 
{"0": {"label": "*3", "atom_type": "Cd"}, "1": {"label": "*4", "atom_type": "Cd"}, "11": {"label": "*0", "atom_type": "Cs"}, "12": {"label": "*1", "atom_type": "Cs"}, "16": {"label": "*2", "atom_type": "H0"}}

>  <type>  (14) 
unop_10

>  <geom_source>  (14) 
Heuristics

$$$$

     RDKit          3D

 19 18  0  0  0  0  0  0  0  0999 V2000
    0.4066   -0.0161   -0.1482 C   0  0  0  0  0  0  0  0  0  0  0  0
    1.0073    0.2529    1.0730 C   0  0  0  0  0  0  0  0  0  0  0  0
    0.4550    1.1989    1.9242 C   0  0  0  0  0  0  0  0  0  0  0  0
   -0.6980    1.8759    1.5542 C   0  0  0  0  0  0  0  0  0  0  0  0
   -1.2987    1.6069    0.3330 C   0  0  0  0  0  0  0  0  0  0  0  0
   -0.7464    0.6609   -0.5182 C   0  0  0  0  0  0  0  0  0  0  0  0
    1.9073   -0.2755    1.3617 H   0  0  0  0  0  0  0  0  0  0  0  0
    0.9239    1.4090    2.8774 H   0  0  0  0  0  0  0  0  0  0  0  0
   -1.1291    2.6143    2.2187 H   0  0  0  0  0  0  0  0  0  0  0  0
   -2.1987    2.1353    0.0443 H   0  0  0  0  0  0  0  0  0  0  0  0
   -1.2153    0.4509   -1.4714 H   0  0  0  0  0  0  0  0  0  0  0  0
    0.4066   -2.4476   -2.6173 C   0  0  0  0  0  0  0  0  0  0  0  0
    0.4066   -2.4476   -1.0945 C   0  0  0  0  0  3  0  0  0  0  0  0
   -0.4743   -1.9390   -3.0132 H   0  0  0  0  0  0  0  0  0  0  0  0
    1.2874   -1.9390   -3.0132 H   0  0  0  0  0  0  0  0  0  0  0  0
    0.4066   -3.4647   -3.0132 H   0  0  0  0  0  0  0  0  0  0  0  0
    0.4066   -1.2270   -0.6195 H   0  0  0  0  0  0  0  0  0  0  0  0
    1.2874   -2.9561   -0.6987 H   0  0  0  0  0  0  0  0  0  0  0  0
   -0.4743   -2.9561   -0.6987 H   0  0  0  0  0  0  0  0  0  0  0  0
  1  2  2  0
  1  6  1  0
  1 17  1  0
  2  3  1  0
  2  7  1  0
  3  4  2  0
  3  8  1  0
  4  5  1  0
  4  9  1  0
  5  6  2  0
  5 10  1  0
  6 11  1  0
 12 13  1  0
 12 14  1  0
 12 15  1  0
 12 16  1  0
 13 18  1  0
 13 19  1  0
M  RAD  1  13   2
M  END
>  <reaction>  (15) 
rxn_324

>  <mol_properties>  (15) 
{"0": {"label": "*3", "atom_type": "Cd"}, "1": {"label": "*4", "atom_type": "Cd"}, "11": {"label": "*0", "atom_type": "Cs"}, "12": {"label": "*1", "atom_type": "Cs"}, "16": {"label": "*2", "atom_type": "H0"}}

>  <type>  (15) 
unop_11

>  <geom_source>  (15) 
Heuristics

$$$$

     RDKit          3D

 19 18  0  0  0  0  0  0  0  0999 V2000
    0.0000   -0.2714    0.1080 C   0  0  0  0  0  0  0  0  0  0  0  0
    0.0000    0.8107   -0.7601 C   0  0  0  0  0  0  0  0  0  0  0  0
    0.0000    2.1036   -0.2569 C   0  0  0  0  0  0  0  0  0  0  0  0
   -0.0000    2.3143    1.1143 C   0  0  0  0  0  0  0  0  0  0  0  0
   -0.0000    1.2321    1.9823 C   0  0  0  0  0  0  0  0  0  0  0  0
   -0.0000   -0.0608    1.4792 C   0  0  0  0  0  0  0  0  0  0  0  0
    0.0000    0.6463   -1.8304 H   0  0  0  0  0  0  0  0  0  0  0  0
    0.0000    2.9482   -0.9344 H   0  0  0  0  0  0  0  0  0  0  0  0
   -0.0000    3.3234    1.5071 H   0  0  0  0  0  0  0  0  0  0  0  0
   -0.0000    1.3965    3.0526 H   0  0  0  0  0  0  0  0  0  0  0  0
   -0.0000   -0.9054    2.1568 H   0  0  0  0  0  0  0  0  0  0  0  0
    0.0000   -2.7029   -2.3611 C   0  0  0  0  0  0  0  0  0  0  0  0
    0.0000   -2.7029   -0.8383 C   0  0  0  0  0  3  0  0  0  0  0  0
   -0.8808   -2.1943   -2.7569 H   0  0  0  0  0  0  0  0  0  0  0  0
    0.8808   -2.1943   -2.7569 H   0  0  0  0  0  0  0  0  0  0  0  0
   -0.0000   -3.7200   -2.7569 H   0  0  0  0  0  0  0  0  0  0  0  0
    0.0000   -1.4824   -0.3633 H   0  0  0  0  0  0  0  0  0  0  0  0
    0.8808   -3.2114   -0.4424 H   0  0  0  0  0  0  0  0  0  0  0  0
   -0.8808   -3.2114   -0.4424 H   0  0  0  0  0  0  0  0  0  0  0  0
  1  2  2  0
  1  6  1  0
  1 17  1  0
  2  3  1  0
  2  7  1  0
  3  4  2  0
  3  8  1  0
  4  5  1  0
  4  9  1  0
  5  6  2  0
  5 10  1  0
  6 11  1  0
 12 13  1  0
 12 14  1  0
 12 15  1  0
 12 16  1  0
 13 18  1  0
 13 19  1  0
M  RAD  1  13   2
M  END
>  <reaction>  (16) 
rxn_324

>  <mol_properties>  (16) 
{"0": {"label": "*3", "atom_type": "Cd"}, "1": {"label": "*4", "atom_type": "Cd"}, "11": {"label": "*0", "atom_type": "Cs"}, "12": {"label": "*1", "atom_type": "Cs"}, "16": {"label": "*2", "atom_type": "H0"}}

>  <type>  (16) 
unop_12

>  <geom_source>  (16) 
Heuristics

$$$$

     RDKit          3D

 19 18  0  0  0  0  0  0  0  0999 V2000
    2.4315    0.8672    0.0766 C   0  0  0  0  0  0  0  0  0  0  0  0
   -2.8168    0.2911   -0.2746 C   0  0  0  0  0  0  0  0  0  0  0  0
   -2.1084   -0.2885   -1.3328 C   0  0  0  0  0  0  0  0  0  0  0  0
   -2.2118    0.4294    0.9794 C   0  0  0  0  0  0  0  0  0  0  0  0
   -0.7952   -0.7296   -1.1367 C   0  0  0  0  0  0  0  0  0  0  0  0
   -0.8987   -0.0119    1.1749 C   0  0  0  0  0  0  0  0  0  0  0  0
   -0.1908   -0.5912    0.1169 C   0  0  0  0  0  0  0  0  0  0  0  0
    2.3686   -0.6421    0.2203 C   0  0  0  0  0  3  0  0  0  0  0  0
    3.4900    1.1990    0.0277 H   0  0  0  0  0  0  0  0  0  0  0  0
    1.9070    1.1747   -0.8520 H   0  0  0  0  0  0  0  0  0  0  0  0
    1.9369    1.3448    0.9479 H   0  0  0  0  0  0  0  0  0  0  0  0
   -2.5762   -0.3956   -2.3029 H   0  0  0  0  0  0  0  0  0  0  0  0
   -3.8327    0.6324   -0.4260 H   0  0  0  0  0  0  0  0  0  0  0  0
   -2.7597    0.8777    1.7982 H   0  0  0  0  0  0  0  0  0  0  0  0
   -0.2460   -1.1781   -1.9541 H   0  0  0  0  0  0  0  0  0  0  0  0
   -0.4294    0.0944    2.1441 H   0  0  0  0  0  0  0  0  0  0  0  0
    0.9938   -0.9892    0.2935 H   0  0  0  0  0  0  0  0  0  0  0  0
    2.8540   -1.1276   -0.6524 H   0  0  0  0  0  0  0  0  0  0  0  0
    2.8839   -0.9570    1.1521 H   0  0  0  0  0  0  0  0  0  0  0  0
  1  8  1  0
  1  9  1  0
  1 10  1  0
  1 11  1  0
  2  3  2  0
  2  4  1  0
  2 13  1  0
  3  5  1  0
  3 12  1  0
  4  6  2  0
  4 14  1  0
  5  7  2  0
  5 15  1  0
  6  7  1  0
  6 16  1  0
  7 17  1  0
  8 18  1  0
  8 19  1  0
M  RAD  1   8   2
M  END
>  <reaction>  (17) 
rxn_324

>  <mol_properties>  (17) 
{"0": {"label": "*3", "atom_type": "Cd"}, "1": {"label": "*4", "atom_type": "Cd"}, "11": {"label": "*0", "atom_type": "Cs"}, "12": {"label": "*1", "atom_type": "Cs"}, "16": {"label": "*2", "atom_type": "H0"}}

>  <type>  (17) 
unop_13

>  <geom_source>  (17) 
AutoTST

$$$$
