
     RDKit          3D

  5  4  0  0  0  0  0  0  0  0999 V2000
    0.0000    0.0000    0.0000 C   0  0  0  0  0  0  0  0  0  0  0  0
   -0.6486   -0.7720   -0.4113 H   0  0  0  0  0  0  0  0  0  0  0  0
   -0.3482    0.9787   -0.3267 H   0  0  0  0  0  0  0  0  0  0  0  0
   -0.0223   -0.0487    1.0876 H   0  0  0  0  0  0  0  0  0  0  0  0
    1.0191   -0.1580   -0.3496 H   0  0  0  0  0  0  0  0  0  0  0  0
  1  2  1  0
  1  3  1  0
  1  4  1  0
  1  5  1  0
M  END
>  <reaction>  (1) 
rxn_865

>  <mol_properties>  (1) 
{"0": {"label": "donator", "atom_type": "Cs"}, "1": {"label": "d_hydrogen", "atom_type": "H0"}}

>  <type>  (1) 
r1h

$$$$

     RDKit          3D

  4  3  0  0  0  0  0  0  0  0999 V2000
   -0.7528   -0.8706   -0.3839 S   0  0  0  0  0  0  0  0  0  0  0  0
    0.7502   -0.2564   -0.0649 C   0  0  0  0  0  3  0  0  0  0  0  0
    1.5655    0.9691    0.4633 S   0  0  0  0  0  0  0  0  0  0  0  0
   -1.5629    0.1579   -0.0146 H   0  0  0  0  0  0  0  0  0  0  0  0
  1  2  1  0
  1  4  1  0
  2  3  2  0
M  RAD  1   2   2
M  END
>  <reaction>  (2) 
rxn_865

>  <mol_properties>  (2) 
{"1": {"label": "acceptor", "atom_type": "CS"}}

>  <type>  (2) 
r2

$$$$

     RDKit          3D

  5  4  0  0  0  0  0  0  0  0999 V2000
    1.2280   -0.4626    0.1225 S   0  0  0  0  0  0  0  0  0  0  0  0
   -0.4732   -0.2566   -0.0746 C   0  0  0  0  0  0  0  0  0  0  0  0
   -1.3314    1.1074   -0.0947 S   0  0  0  0  0  0  0  0  0  0  0  0
    1.5289    0.8405    0.2416 H   0  0  0  0  0  0  0  0  0  0  0  0
   -0.9523   -1.2286   -0.1949 H   0  0  0  0  0  0  0  0  0  0  0  0
  1  2  1  0
  1  4  1  0
  2  3  2  0
  2  5  1  0
M  END
>  <reaction>  (3) 
rxn_865

>  <mol_properties>  (3) 
{"1": {"label": "acceptor", "atom_type": "CS"}, "4": {"label": "a_hydrogen", "atom_type": "H0"}}

>  <type>  (3) 
r2h

$$$$

     RDKit          3D

  9  7  0  0  0  0  0  0  0  0999 V2000
   -1.1778    0.5396    0.4954 S   0  0  0  0  0  0  0  0  0  0  0  0
    0.3491   -0.1663    0.1775 C   0  0  0  0  0  0  0  0  0  0  0  0
    1.8399    0.3237    0.4729 S   0  0  0  0  0  0  0  0  0  0  0  0
   -0.7484    1.6685    1.0880 H   0  0  0  0  0  0  0  0  0  0  0  0
   -0.0794   -2.5418   -1.0553 C   0  0  0  0  0  3  0  0  0  0  0  0
    0.1352   -1.2843   -0.4031 H   0  0  0  0  0  0  0  0  0  0  0  0
   -0.6077   -2.2853   -1.9677 H   0  0  0  0  0  0  0  0  0  0  0  0
    0.9444   -2.8727   -1.1955 H   0  0  0  0  0  0  0  0  0  0  0  0
   -0.6552   -3.1210   -0.3409 H   0  0  0  0  0  0  0  0  0  0  0  0
  1  2  1  0
  1  4  1  0
  2  3  2  0
  2  6  1  0
  5  7  1  0
  5  8  1  0
  5  9  1  0
M  RAD  1   5   2
M  END
>  <reaction>  (4) 
rxn_865

>  <mol_properties>  (4) 
{"0": {"label": "*0", "atom_type": "S2s"}, "1": {"label": "*1", "atom_type": "CS"}, "4": {"label": "*3", "atom_type": "Cs"}, "5": {"label": "*2", "atom_type": "H0"}, "6": {"label": "*4", "atom_type": "H0"}}

>  <type>  (4) 
ts

$$$$

     RDKit          3D

  9  7  0  0  0  0  0  0  0  0999 V2000
   -1.4312    0.4168    0.6785 S   0  0  0  0  0  0  0  0  0  0  0  0
   -0.0262    0.1350   -0.2816 C   0  0  0  0  0  3  0  0  0  0  0  0
    1.4804    0.6576   -0.0476 S   0  0  0  0  0  0  0  0  0  0  0  0
   -0.8317    1.1733    1.6118 H   0  0  0  0  0  0  0  0  0  0  0  0
   -0.0262   -2.3305   -1.1533 C   0  0  0  0  0  0  0  0  0  0  0  0
   -0.0262   -1.0985   -0.7177 H   0  0  0  0  0  0  0  0  0  0  0  0
    0.8629   -2.8438   -0.7903 H   0  0  0  0  0  0  0  0  0  0  0  0
   -0.9153   -2.8438   -0.7903 H   0  0  0  0  0  0  0  0  0  0  0  0
   -0.0262   -2.3305   -2.2422 H   0  0  0  0  0  0  0  0  0  0  0  0
  1  2  1  0
  1  4  1  0
  2  3  2  0
  5  6  1  0
  5  7  1  0
  5  8  1  0
  5  9  1  0
M  RAD  1   2   2
M  END
>  <reaction>  (5) 
rxn_865

>  <mol_properties>  (5) 
{"0": {"label": "*0", "atom_type": "S2s"}, "1": {"label": "*1", "atom_type": "CS"}, "4": {"label": "*3", "atom_type": "Cs"}, "5": {"label": "*2", "atom_type": "H0"}, "6": {"label": "*4", "atom_type": "H0"}}

>  <type>  (5) 
unop_1

>  <geom_source>  (5) 
Heuristics

$$$$

     RDKit          3D

  9  7  0  0  0  0  0  0  0  0999 V2000
   -0.6379    0.9752   -1.1218 S   0  0  0  0  0  0  0  0  0  0  0  0
    0.1733   -0.0453    0.0077 C   0  0  0  0  0  3  0  0  0  0  0  0
    0.5129    0.2314    1.5587 S   0  0  0  0  0  0  0  0  0  0  0  0
   -0.8554    1.9971   -0.2785 H   0  0  0  0  0  0  0  0  0  0  0  0
    0.1733   -2.5109   -0.8640 C   0  0  0  0  0  0  0  0  0  0  0  0
    0.1733   -1.2789   -0.4285 H   0  0  0  0  0  0  0  0  0  0  0  0
    1.0624   -3.0242   -0.5011 H   0  0  0  0  0  0  0  0  0  0  0  0
   -0.7158   -3.0242   -0.5011 H   0  0  0  0  0  0  0  0  0  0  0  0
    0.1733   -2.5109   -1.9530 H   0  0  0  0  0  0  0  0  0  0  0  0
  1  2  1  0
  1  4  1  0
  2  3  2  0
  5  6  1  0
  5  7  1  0
  5  8  1  0
  5  9  1  0
M  RAD  1   2   2
M  END
>  <reaction>  (6) 
rxn_865

>  <mol_properties>  (6) 
{"0": {"label": "*0", "atom_type": "S2s"}, "1": {"label": "*1", "atom_type": "CS"}, "4": {"label": "*3", "atom_type": "Cs"}, "5": {"label": "*2", "atom_type": "H0"}, "6": {"label": "*4", "atom_type": "H0"}}

>  <type>  (6) 
unop_2

>  <geom_source>  (6) 
Heuristics

$$$$

     RDKit          3D

  9  7  0  0  0  0  0  0  0  0999 V2000
   -0.9349    0.1414    1.3221 S   0  0  0  0  0  0  0  0  0  0  0  0
   -0.1237    0.0576   -0.1978 C   0  0  0  0  0  3  0  0  0  0  0  0
    1.0517    0.9999   -0.7705 S   0  0  0  0  0  0  0  0  0  0  0  0
   -0.2640    1.2030    1.7972 H   0  0  0  0  0  0  0  0  0  0  0  0
   -0.1237   -2.4079   -1.0695 C   0  0  0  0  0  0  0  0  0  0  0  0
   -0.1237   -1.1760   -0.6340 H   0  0  0  0  0  0  0  0  0  0  0  0
    0.7654   -2.9213   -0.7066 H   0  0  0  0  0  0  0  0  0  0  0  0
   -1.0128   -2.9213   -0.7066 H   0  0  0  0  0  0  0  0  0  0  0  0
   -0.1237   -2.4079   -2.1585 H   0  0  0  0  0  0  0  0  0  0  0  0
  1  2  1  0
  1  4  1  0
  2  3  2  0
  5  6  1  0
  5  7  1  0
  5  8  1  0
  5  9  1  0
M  RAD  1   2   2
M  END
>  <reaction>  (7) 
rxn_865

>  <mol_properties>  (7) 
{"0": {"label": "*0", "atom_type": "S2s"}, "1": {"label": "*1", "atom_type": "CS"}, "4": {"label": "*3", "atom_type": "Cs"}, "5": {"label": "*2", "atom_type": "H0"}, "6": {"label": "*4", "atom_type": "H0"}}

>  <type>  (7) 
unop_3

>  <geom_source>  (7) 
Heuristics

$$$$

     RDKit          3D

  9  7  0  0  0  0  0  0  0  0999 V2000
    1.1829    0.8716   -0.7034 S   0  0  0  0  0  0  0  0  0  0  0  0
   -0.2221    0.0490   -0.1339 C   0  0  0  0  0  3  0  0  0  0  0  0
   -1.0300    0.2620    1.2444 S   0  0  0  0  0  0  0  0  0  0  0  0
    1.3262    1.6847    0.3554 H   0  0  0  0  0  0  0  0  0  0  0  0
   -0.2221   -2.4165   -1.0055 C   0  0  0  0  0  0  0  0  0  0  0  0
   -0.2221   -1.1845   -0.5700 H   0  0  0  0  0  0  0  0  0  0  0  0
    0.6670   -2.9298   -0.6426 H   0  0  0  0  0  0  0  0  0  0  0  0
   -1.1112   -2.9298   -0.6426 H   0  0  0  0  0  0  0  0  0  0  0  0
   -0.2221   -2.4165   -2.0945 H   0  0  0  0  0  0  0  0  0  0  0  0
  1  2  1  0
  1  4  1  0
  2  3  2  0
  5  6  1  0
  5  7  1  0
  5  8  1  0
  5  9  1  0
M  RAD  1   2   2
M  END
>  <reaction>  (8) 
rxn_865

>  <mol_properties>  (8) 
{"0": {"label": "*0", "atom_type": "S2s"}, "1": {"label": "*1", "atom_type": "CS"}, "4": {"label": "*3", "atom_type": "Cs"}, "5": {"label": "*2", "atom_type": "H0"}, "6": {"label": "*4", "atom_type": "H0"}}

>  <type>  (8) 
unop_4

>  <geom_source>  (8) 
Heuristics

$$$$

     RDKit          3D

  9  7  0  0  0  0  0  0  0  0999 V2000
   -0.0000   -0.0134    1.6117 S   0  0  0  0  0  0  0  0  0  0  0  0
   -0.0000   -0.0248   -0.1132 C   0  0  0  0  0  3  0  0  0  0  0  0
    0.0000    1.2232   -1.1330 S   0  0  0  0  0  0  0  0  0  0  0  0
    0.0000    1.3213    1.7576 H   0  0  0  0  0  0  0  0  0  0  0  0
   -0.0000   -2.4903   -0.9849 C   0  0  0  0  0  0  0  0  0  0  0  0
   -0.0000   -1.2583   -0.5493 H   0  0  0  0  0  0  0  0  0  0  0  0
    0.8891   -3.0036   -0.6219 H   0  0  0  0  0  0  0  0  0  0  0  0
   -0.8891   -3.0036   -0.6219 H   0  0  0  0  0  0  0  0  0  0  0  0
   -0.0000   -2.4903   -2.0738 H   0  0  0  0  0  0  0  0  0  0  0  0
  1  2  1  0
  1  4  1  0
  2  3  2  0
  5  6  1  0
  5  7  1  0
  5  8  1  0
  5  9  1  0
M  RAD  1   2   2
M  END
>  <reaction>  (9) 
rxn_865

>  <mol_properties>  (9) 
{"0": {"label": "*0", "atom_type": "S2s"}, "1": {"label": "*1", "atom_type": "CS"}, "4": {"label": "*3", "atom_type": "Cs"}, "5": {"label": "*2", "atom_type": "H0"}, "6": {"label": "*4", "atom_type": "H0"}}

>  <type>  (9) 
unop_5

>  <geom_source>  (9) 
Heuristics

$$$$

     RDKit          3D

  9  7  0  0  0  0  0  0  0  0999 V2000
    1.4901    0.6769   -0.0589 S   0  0  0  0  0  0  0  0  0  0  0  0
   -0.1324    0.1247   -0.2542 C   0  0  0  0  0  3  0  0  0  0  0  0
   -1.4145    0.4006    0.6826 S   0  0  0  0  0  0  0  0  0  0  0  0
    1.2841    1.3640    1.0761 H   0  0  0  0  0  0  0  0  0  0  0  0
   -0.1324   -2.3408   -1.1259 C   0  0  0  0  0  0  0  0  0  0  0  0
   -0.1324   -1.1089   -0.6903 H   0  0  0  0  0  0  0  0  0  0  0  0
    0.7567   -2.8542   -0.7629 H   0  0  0  0  0  0  0  0  0  0  0  0
   -1.0215   -2.8542   -0.7629 H   0  0  0  0  0  0  0  0  0  0  0  0
   -0.1324   -2.3408   -2.2148 H   0  0  0  0  0  0  0  0  0  0  0  0
  1  2  1  0
  1  4  1  0
  2  3  2  0
  5  6  1  0
  5  7  1  0
  5  8  1  0
  5  9  1  0
M  RAD  1   2   2
M  END
>  <reaction>  (10) 
rxn_865

>  <mol_properties>  (10) 
{"0": {"label": "*0", "atom_type": "S2s"}, "1": {"label": "*1", "atom_type": "CS"}, "4": {"label": "*3", "atom_type": "Cs"}, "5": {"label": "*2", "atom_type": "H0"}, "6": {"label": "*4", "atom_type": "H0"}}

>  <type>  (10) 
unop_6

>  <geom_source>  (10) 
Heuristics

$$$$

     RDKit          3D

  9  7  0  0  0  0  0  0  0  0999 V2000
    1.4312    0.4168    0.6785 S   0  0  0  0  0  0  0  0  0  0  0  0
    0.0262    0.1350   -0.2816 C   0  0  0  0  0  3  0  0  0  0  0  0
   -1.4804    0.6576   -0.0476 S   0  0  0  0  0  0  0  0  0  0  0  0
    0.8317    1.1733    1.6118 H   0  0  0  0  0  0  0  0  0  0  0  0
    0.0262   -2.3305   -1.1533 C   0  0  0  0  0  0  0  0  0  0  0  0
    0.0262   -1.0985   -0.7177 H   0  0  0  0  0  0  0  0  0  0  0  0
    0.9153   -2.8438   -0.7903 H   0  0  0  0  0  0  0  0  0  0  0  0
   -0.8629   -2.8438   -0.7903 H   0  0  0  0  0  0  0  0  0  0  0  0
    0.0262   -2.3305   -2.2422 H   0  0  0  0  0  0  0  0  0  0  0  0
  1  2  1  0
  1  4  1  0
  2  3  2  0
  5  6  1  0
  5  7  1  0
  5  8  1  0
  5  9  1  0
M  RAD  1   2   2
M  END
>  <reaction>  (11) 
rxn_865

>  <mol_properties>  (11) 
{"0": {"label": "*0", "atom_type": "S2s"}, "1": {"label": "*1", "atom_type": "CS"}, "4": {"label": "*3", "atom_type": "Cs"}, "5": {"label": "*2", "atom_type": "H0"}, "6": {"label": "*4", "atom_type": "H0"}}

>  <type>  (11) 
unop_7

>  <geom_source>  (11) 
Heuristics

$$$$

     RDKit          3D

  9  7  0  0  0  0  0  0  0  0999 V2000
   -1.4901    0.6769   -0.0589 S   0  0  0  0  0  0  0  0  0  0  0  0
    0.1324    0.1247   -0.2542 C   0  0  0  0  0  3  0  0  0  0  0  0
    1.4145    0.4006    0.6826 S   0  0  0  0  0  0  0  0  0  0  0  0
   -1.2841    1.3640    1.0761 H   0  0  0  0  0  0  0  0  0  0  0  0
    0.1324   -2.3408   -1.1259 C   0  0  0  0  0  0  0  0  0  0  0  0
    0.1324   -1.1089   -0.6903 H   0  0  0  0  0  0  0  0  0  0  0  0
    1.0215   -2.8542   -0.7629 H   0  0  0  0  0  0  0  0  0  0  0  0
   -0.7567   -2.8542   -0.7629 H   0  0  0  0  0  0  0  0  0  0  0  0
    0.1324   -2.3408   -2.2148 H   0  0  0  0  0  0  0  0  0  0  0  0
  1  2  1  0
  1  4  1  0
  2  3  2  0
  5  6  1  0
  5  7  1  0
  5  8  1  0
  5  9  1  0
M  RAD  1   2   2
M  END
>  <reaction>  (12) 
rxn_865

>  <mol_properties>  (12) 
{"0": {"label": "*0", "atom_type": "S2s"}, "1": {"label": "*1", "atom_type": "CS"}, "4": {"label": "*3", "atom_type": "Cs"}, "5": {"label": "*2", "atom_type": "H0"}, "6": {"label": "*4", "atom_type": "H0"}}

>  <type>  (12) 
unop_8

>  <geom_source>  (12) 
Heuristics

$$$$

     RDKit          3D

  9  7  0  0  0  0  0  0  0  0999 V2000
    0.6379    0.9752   -1.1218 S   0  0  0  0  0  0  0  0  0  0  0  0
   -0.1733   -0.0453    0.0077 C   0  0  0  0  0  3  0  0  0  0  0  0
   -0.5129    0.2314    1.5587 S   0  0  0  0  0  0  0  0  0  0  0  0
    0.8554    1.9971   -0.2785 H   0  0  0  0  0  0  0  0  0  0  0  0
   -0.1733   -2.5109   -0.8640 C   0  0  0  0  0  0  0  0  0  0  0  0
   -0.1733   -1.2789   -0.4285 H   0  0  0  0  0  0  0  0  0  0  0  0
    0.7158   -3.0242   -0.5011 H   0  0  0  0  0  0  0  0  0  0  0  0
   -1.0624   -3.0242   -0.5011 H   0  0  0  0  0  0  0  0  0  0  0  0
   -0.1733   -2.5109   -1.9530 H   0  0  0  0  0  0  0  0  0  0  0  0
  1  2  1  0
  1  4  1  0
  2  3  2  0
  5  6  1  0
  5  7  1  0
  5  8  1  0
  5  9  1  0
M  RAD  1   2   2
M  END
>  <reaction>  (13) 
rxn_865

>  <mol_properties>  (13) 
{"0": {"label": "*0", "atom_type": "S2s"}, "1": {"label": "*1", "atom_type": "CS"}, "4": {"label": "*3", "atom_type": "Cs"}, "5": {"label": "*2", "atom_type": "H0"}, "6": {"label": "*4", "atom_type": "H0"}}

>  <type>  (13) 
unop_9

>  <geom_source>  (13) 
Heuristics

$$$$

     RDKit          3D

  9  7  0  0  0  0  0  0  0  0999 V2000
   -1.1829    0.8716   -0.7034 S   0  0  0  0  0  0  0  0  0  0  0  0
    0.2221    0.0490   -0.1339 C   0  0  0  0  0  3  0  0  0  0  0  0
    1.0300    0.2620    1.2444 S   0  0  0  0  0  0  0  0  0  0  0  0
   -1.3262    1.6847    0.3554 H   0  0  0  0  0  0  0  0  0  0  0  0
    0.2221   -2.4165   -1.0055 C   0  0  0  0  0  0  0  0  0  0  0  0
    0.2221   -1.1845   -0.5700 H   0  0  0  0  0  0  0  0  0  0  0  0
    1.1112   -2.9298   -0.6426 H   0  0  0  0  0  0  0  0  0  0  0  0
   -0.6670   -2.9298   -0.6426 H   0  0  0  0  0  0  0  0  0  0  0  0
    0.2221   -2.4165   -2.0945 H   0  0  0  0  0  0  0  0  0  0  0  0
  1  2  1  0
  1  4  1  0
  2  3  2  0
  5  6  1  0
  5  7  1  0
  5  8  1  0
  5  9  1  0
M  RAD  1   2   2
M  END
>  <reaction>  (14) 
rxn_865

>  <mol_properties>  (14) 
{"0": {"label": "*0", "atom_type": "S2s"}, "1": {"label": "*1", "atom_type": "CS"}, "4": {"label": "*3", "atom_type": "Cs"}, "5": {"label": "*2", "atom_type": "H0"}, "6": {"label": "*4", "atom_type": "H0"}}

>  <type>  (14) 
unop_10

>  <geom_source>  (14) 
Heuristics

$$$$

     RDKit          3D

  9  7  0  0  0  0  0  0  0  0999 V2000
    0.9349    0.1414    1.3221 S   0  0  0  0  0  0  0  0  0  0  0  0
    0.1237    0.0576   -0.1978 C   0  0  0  0  0  3  0  0  0  0  0  0
   -1.0517    0.9999   -0.7705 S   0  0  0  0  0  0  0  0  0  0  0  0
    0.2640    1.2030    1.7972 H   0  0  0  0  0  0  0  0  0  0  0  0
    0.1237   -2.4079   -1.0695 C   0  0  0  0  0  0  0  0  0  0  0  0
    0.1237   -1.1760   -0.6340 H   0  0  0  0  0  0  0  0  0  0  0  0
    1.0128   -2.9213   -0.7066 H   0  0  0  0  0  0  0  0  0  0  0  0
   -0.7654   -2.9213   -0.7066 H   0  0  0  0  0  0  0  0  0  0  0  0
    0.1237   -2.4079   -2.1585 H   0  0  0  0  0  0  0  0  0  0  0  0
  1  2  1  0
  1  4  1  0
  2  3  2  0
  5  6  1  0
  5  7  1  0
  5  8  1  0
  5  9  1  0
M  RAD  1   2   2
M  END
>  <reaction>  (15) 
rxn_865

>  <mol_properties>  (15) 
{"0": {"label": "*0", "atom_type": "S2s"}, "1": {"label": "*1", "atom_type": "CS"}, "4": {"label": "*3", "atom_type": "Cs"}, "5": {"label": "*2", "atom_type": "H0"}, "6": {"label": "*4", "atom_type": "H0"}}

>  <type>  (15) 
unop_11

>  <geom_source>  (15) 
Heuristics

$$$$

     RDKit          3D

  9  7  0  0  0  0  0  0  0  0999 V2000
    0.0000    1.0026   -1.2619 S   0  0  0  0  0  0  0  0  0  0  0  0
    0.0000   -0.0904    0.0725 C   0  0  0  0  0  3  0  0  0  0  0  0
   -0.0000    0.2392    1.6501 S   0  0  0  0  0  0  0  0  0  0  0  0
   -0.0000    2.1324   -0.5365 H   0  0  0  0  0  0  0  0  0  0  0  0
    0.0000   -2.5559   -0.7992 C   0  0  0  0  0  0  0  0  0  0  0  0
    0.0000   -1.3239   -0.3636 H   0  0  0  0  0  0  0  0  0  0  0  0
    0.8891   -3.0693   -0.4362 H   0  0  0  0  0  0  0  0  0  0  0  0
   -0.8891   -3.0693   -0.4362 H   0  0  0  0  0  0  0  0  0  0  0  0
    0.0000   -2.5559   -1.8881 H   0  0  0  0  0  0  0  0  0  0  0  0
  1  2  1  0
  1  4  1  0
  2  3  2  0
  5  6  1  0
  5  7  1  0
  5  8  1  0
  5  9  1  0
M  RAD  1   2   2
M  END
>  <reaction>  (16) 
rxn_865

>  <mol_properties>  (16) 
{"0": {"label": "*0", "atom_type": "S2s"}, "1": {"label": "*1", "atom_type": "CS"}, "4": {"label": "*3", "atom_type": "Cs"}, "5": {"label": "*2", "atom_type": "H0"}, "6": {"label": "*4", "atom_type": "H0"}}

>  <type>  (16) 
unop_12

>  <geom_source>  (16) 
Heuristics

$$$$

     RDKit          3D

  9  7  0  0  0  0  0  0  0  0999 V2000
    2.3543   -0.2777    0.5058 S   0  0  0  0  0  0  0  0  0  0  0  0
    1.2347    1.8756   -0.8846 S   0  0  0  0  0  0  0  0  0  0  0  0
    0.9904    0.7438   -0.0400 C   0  0  0  0  0  3  0  0  0  0  0  0
   -1.3738   -0.2964    0.1905 C   0  0  0  0  0  0  0  0  0  0  0  0
   -0.3080    0.4450    0.3651 H   0  0  0  0  0  0  0  0  0  0  0  0
   -2.1325    0.3464    0.6822 H   0  0  0  0  0  0  0  0  0  0  0  0
   -1.6199   -0.4013   -0.8862 H   0  0  0  0  0  0  0  0  0  0  0  0
   -1.3715   -1.2975    0.6685 H   0  0  0  0  0  0  0  0  0  0  0  0
    2.2262   -1.1378   -0.6012 H   0  0  0  0  0  0  0  0  0  0  0  0
  1  3  1  0
  1  9  1  0
  2  3  2  0
  4  5  1  0
  4  6  1  0
  4  7  1  0
  4  8  1  0
M  RAD  1   3   2
M  END
>  <reaction>  (17) 
rxn_865

>  <mol_properties>  (17) 
{"0": {"label": "*0", "atom_type": "S2s"}, "1": {"label": "*1", "atom_type": "CS"}, "4": {"label": "*3", "atom_type": "Cs"}, "5": {"label": "*2", "atom_type": "H0"}, "6": {"label": "*4", "atom_type": "H0"}}

>  <type>  (17) 
unop_13

>  <geom_source>  (17) 
AutoTST

$$$$
