
     RDKit          3D

 12 11  0  0  0  0  0  0  0  0999 V2000
    1.9877    0.1011    0.4814 C   0  0  0  0  0  0  0  0  0  0  0  0
    0.8179    0.5502    0.0525 C   0  0  0  0  0  0  0  0  0  0  0  0
   -0.2939   -0.2692   -0.5320 C   0  0  0  0  0  0  0  0  0  0  0  0
   -0.0292   -1.7631   -0.6328 C   0  0  0  0  0  0  0  0  0  0  0  0
    2.2522   -0.9490    0.4436 H   0  0  0  0  0  0  0  0  0  0  0  0
    2.7295    0.7757    0.8896 H   0  0  0  0  0  0  0  0  0  0  0  0
    0.6162    1.6164    0.1190 H   0  0  0  0  0  0  0  0  0  0  0  0
   -0.5268    0.1319   -1.5245 H   0  0  0  0  0  0  0  0  0  0  0  0
   -1.1959   -0.0938    0.0644 H   0  0  0  0  0  0  0  0  0  0  0  0
    0.1590   -2.1992    0.3502 H   0  0  0  0  0  0  0  0  0  0  0  0
    0.8382   -1.9701   -1.2626 H   0  0  0  0  0  0  0  0  0  0  0  0
   -0.8879   -2.2759   -1.0672 H   0  0  0  0  0  0  0  0  0  0  0  0
  1  2  2  3
  1  5  1  0
  1  6  1  0
  2  3  1  0
  2  7  1  0
  3  4  1  0
  3  8  1  0
  3  9  1  0
  4 10  1  0
  4 11  1  0
  4 12  1  0
M  END
>  <reaction>  (1) 
rxn_1054

>  <mol_properties>  (1) 
{"2": {"label": "donator", "atom_type": "Cs"}, "7": {"label": "d_hydrogen", "atom_type": "H0"}}

>  <type>  (1) 
r1h

$$$$

     RDKit          3D

  5  4  0  0  0  0  0  0  0  0999 V2000
    0.0397    0.7134    0.0000 C   0  0  0  0  0  3  0  0  0  0  0  0
    0.0458   -0.5870    0.0000 C   0  0  0  0  0  0  0  0  0  0  0  0
   -0.6871    1.5118    0.0000 H   0  0  0  0  0  0  0  0  0  0  0  0
   -0.8806   -1.1637    0.0000 H   0  0  0  0  0  0  0  0  0  0  0  0
    0.9690   -1.1600    0.0000 H   0  0  0  0  0  0  0  0  0  0  0  0
  1  2  2  3
  1  3  1  0
  2  4  1  0
  2  5  1  0
M  RAD  1   1   2
M  END
>  <reaction>  (2) 
rxn_1054

>  <mol_properties>  (2) 
{"0": {"label": "acceptor", "atom_type": "Cd"}}

>  <type>  (2) 
r2

$$$$

     RDKit          3D

  6  5  0  0  0  0  0  0  0  0999 V2000
    0.6594    0.0438   -0.0050 C   0  0  0  0  0  0  0  0  0  0  0  0
   -0.6594   -0.0438    0.0050 C   0  0  0  0  0  0  0  0  0  0  0  0
    1.1706    0.8681   -0.4881 H   0  0  0  0  0  0  0  0  0  0  0  0
    1.2824   -0.7051    0.4696 H   0  0  0  0  0  0  0  0  0  0  0  0
   -1.2824    0.7051   -0.4696 H   0  0  0  0  0  0  0  0  0  0  0  0
   -1.1706   -0.8681    0.4881 H   0  0  0  0  0  0  0  0  0  0  0  0
  1  2  2  3
  1  3  1  0
  1  4  1  0
  2  5  1  0
  2  6  1  0
M  END
>  <reaction>  (3) 
rxn_1054

>  <mol_properties>  (3) 
{"0": {"label": "acceptor", "atom_type": "Cd"}, "5": {"label": "a_hydrogen", "atom_type": "H0"}}

>  <type>  (3) 
r2h

$$$$

     RDKit          3D

 17 15  0  0  0  0  0  0  0  0999 V2000
    1.1776    0.1753    1.7957 C   0  0  0  0  0  3  0  0  0  0  0  0
    2.0405   -0.6373    1.2393 C   0  0  0  0  0  0  0  0  0  0  0  0
    1.2437    0.7518    2.7102 H   0  0  0  0  0  0  0  0  0  0  0  0
    3.0133   -0.8421    1.6825 H   0  0  0  0  0  0  0  0  0  0  0  0
    1.8130   -1.1421    0.3037 H   0  0  0  0  0  0  0  0  0  0  0  0
   -0.5732   -0.9647   -1.8740 C   0  0  0  0  0  0  0  0  0  0  0  0
   -0.9596   -0.8423   -0.6067 C   0  0  0  0  0  0  0  0  0  0  0  0
   -0.9972    0.4074    0.1774 C   0  0  0  0  0  0  0  0  0  0  0  0
   -0.7667    1.7078   -0.5577 C   0  0  0  0  0  0  0  0  0  0  0  0
   -0.2721   -0.1107   -2.4690 H   0  0  0  0  0  0  0  0  0  0  0  0
   -0.5570   -1.9307   -2.3622 H   0  0  0  0  0  0  0  0  0  0  0  0
   -1.2529   -1.7386   -0.0667 H   0  0  0  0  0  0  0  0  0  0  0  0
   -0.0845    0.3121    0.9945 H   0  0  0  0  0  0  0  0  0  0  0  0
   -1.8749    0.4416    0.8262 H   0  0  0  0  0  0  0  0  0  0  0  0
   -1.5267    1.8699   -1.3266 H   0  0  0  0  0  0  0  0  0  0  0  0
    0.2107    1.7172   -1.0440 H   0  0  0  0  0  0  0  0  0  0  0  0
   -0.8000    2.5506    0.1334 H   0  0  0  0  0  0  0  0  0  0  0  0
  1  2  2  3
  1  3  1  0
  2  4  1  0
  2  5  1  0
  6  7  2  3
  6 10  1  0
  6 11  1  0
  7  8  1  0
  7 12  1  0
  8  9  1  0
  8 13  1  0
  8 14  1  0
  9 15  1  0
  9 16  1  0
  9 17  1  0
M  RAD  1   1   2
M  END
>  <reaction>  (4) 
rxn_1054

>  <mol_properties>  (4) 
{"0": {"label": "*3", "atom_type": "Cd"}, "1": {"label": "*4", "atom_type": "Cd"}, "6": {"label": "*0", "atom_type": "Cd"}, "7": {"label": "*1", "atom_type": "Cs"}, "12": {"label": "*2", "atom_type": "H0"}}

>  <type>  (4) 
ts

$$$$

     RDKit          3D

 17 15  0  0  0  0  0  0  0  0999 V2000
    1.2347   -0.1217    1.6939 C   0  0  0  0  0  0  0  0  0  0  0  0
    2.1753    0.8069    1.7013 C   0  0  0  0  0  0  0  0  0  0  0  0
    0.8182   -0.5162    2.6131 H   0  0  0  0  0  0  0  0  0  0  0  0
    2.5676    1.2110    2.6270 H   0  0  0  0  0  0  0  0  0  0  0  0
    2.5918    1.2013    0.7820 H   0  0  0  0  0  0  0  0  0  0  0  0
   -0.8405   -1.1640   -2.1068 C   0  0  0  0  0  0  0  0  0  0  0  0
   -0.8405   -1.1640   -0.7825 C   0  0  0  0  0  0  0  0  0  0  0  0
   -0.8405    0.0405    0.1110 C   0  0  0  0  0  3  0  0  0  0  0  0
   -0.8405    1.3863   -0.5967 C   0  0  0  0  0  0  0  0  0  0  0  0
   -0.8405   -0.2471   -2.6842 H   0  0  0  0  0  0  0  0  0  0  0  0
   -0.8405   -2.0913   -2.6655 H   0  0  0  0  0  0  0  0  0  0  0  0
   -0.8405   -2.1197   -0.2643 H   0  0  0  0  0  0  0  0  0  0  0  0
    0.2028   -0.0411    0.9068 H   0  0  0  0  0  0  0  0  0  0  0  0
   -1.7099   -0.0275    0.7741 H   0  0  0  0  0  0  0  0  0  0  0  0
   -1.7229    1.5013   -1.2291 H   0  0  0  0  0  0  0  0  0  0  0  0
    0.0420    1.5013   -1.2291 H   0  0  0  0  0  0  0  0  0  0  0  0
   -0.8405    2.2006    0.1286 H   0  0  0  0  0  0  0  0  0  0  0  0
  1  2  2  3
  1  3  1  0
  1 13  1  0
  2  4  1  0
  2  5  1  0
  6  7  2  3
  6 10  1  0
  6 11  1  0
  7  8  1  0
  7 12  1  0
  8  9  1  0
  8 14  1  0
  9 15  1  0
  9 16  1  0
  9 17  1  0
M  RAD  1   8   2
M  END
>  <reaction>  (5) 
rxn_1054

>  <mol_properties>  (5) 
{"0": {"label": "*3", "atom_type": "Cd"}, "1": {"label": "*4", "atom_type": "Cd"}, "6": {"label": "*0", "atom_type": "Cd"}, "7": {"label": "*1", "atom_type": "Cs"}, "12": {"label": "*2", "atom_type": "H0"}}

>  <type>  (5) 
unop_1

>  <geom_source>  (5) 
Heuristics

$$$$

     RDKit          3D

 17 15  0  0  0  0  0  0  0  0999 V2000
    1.1990    0.1401    1.7635 C   0  0  0  0  0  0  0  0  0  0  0  0
    2.3117   -0.4663    1.3878 C   0  0  0  0  0  0  0  0  0  0  0  0
    1.1814    0.8281    2.6004 H   0  0  0  0  0  0  0  0  0  0  0  0
    3.2511   -0.2998    1.9018 H   0  0  0  0  0  0  0  0  0  0  0  0
    2.3294   -1.1544    0.5509 H   0  0  0  0  0  0  0  0  0  0  0  0
   -0.8762   -0.9022   -2.0372 C   0  0  0  0  0  0  0  0  0  0  0  0
   -0.8762   -0.9022   -0.7128 C   0  0  0  0  0  0  0  0  0  0  0  0
   -0.8762    0.3023    0.1806 C   0  0  0  0  0  3  0  0  0  0  0  0
   -0.8762    1.6481   -0.5271 C   0  0  0  0  0  0  0  0  0  0  0  0
   -0.8762    0.0147   -2.6146 H   0  0  0  0  0  0  0  0  0  0  0  0
   -0.8762   -1.8295   -2.5959 H   0  0  0  0  0  0  0  0  0  0  0  0
   -0.8762   -1.8579   -0.1947 H   0  0  0  0  0  0  0  0  0  0  0  0
    0.1671    0.2208    0.9764 H   0  0  0  0  0  0  0  0  0  0  0  0
   -1.7455    0.2344    0.8437 H   0  0  0  0  0  0  0  0  0  0  0  0
   -1.7586    1.7631   -1.1595 H   0  0  0  0  0  0  0  0  0  0  0  0
    0.0063    1.7631   -1.1595 H   0  0  0  0  0  0  0  0  0  0  0  0
   -0.8762    2.4624    0.1982 H   0  0  0  0  0  0  0  0  0  0  0  0
  1  2  2  3
  1  3  1  0
  1 13  1  0
  2  4  1  0
  2  5  1  0
  6  7  2  3
  6 10  1  0
  6 11  1  0
  7  8  1  0
  7 12  1  0
  8  9  1  0
  8 14  1  0
  9 15  1  0
  9 16  1  0
  9 17  1  0
M  RAD  1   8   2
M  END
>  <reaction>  (6) 
rxn_1054

>  <mol_properties>  (6) 
{"0": {"label": "*3", "atom_type": "Cd"}, "1": {"label": "*4", "atom_type": "Cd"}, "6": {"label": "*0", "atom_type": "Cd"}, "7": {"label": "*1", "atom_type": "Cs"}, "12": {"label": "*2", "atom_type": "H0"}}

>  <type>  (6) 
unop_2

>  <geom_source>  (6) 
Heuristics

$$$$

     RDKit          3D

 17 15  0  0  0  0  0  0  0  0999 V2000
    1.2909   -0.1429    1.6165 C   0  0  0  0  0  0  0  0  0  0  0  0
    1.8979    0.9372    2.0768 C   0  0  0  0  0  0  0  0  0  0  0  0
    1.1652   -1.0285    2.2282 H   0  0  0  0  0  0  0  0  0  0  0  0
    2.2943    0.9806    3.0844 H   0  0  0  0  0  0  0  0  0  0  0  0
    2.0236    1.8228    1.4651 H   0  0  0  0  0  0  0  0  0  0  0  0
   -0.7843   -1.1852   -2.1842 C   0  0  0  0  0  0  0  0  0  0  0  0
   -0.7843   -1.1852   -0.8598 C   0  0  0  0  0  0  0  0  0  0  0  0
   -0.7843    0.0193    0.0336 C   0  0  0  0  0  3  0  0  0  0  0  0
   -0.7843    1.3651   -0.6741 C   0  0  0  0  0  0  0  0  0  0  0  0
   -0.7843   -0.2683   -2.7616 H   0  0  0  0  0  0  0  0  0  0  0  0
   -0.7843   -2.1125   -2.7429 H   0  0  0  0  0  0  0  0  0  0  0  0
   -0.7843   -2.1409   -0.3417 H   0  0  0  0  0  0  0  0  0  0  0  0
    0.2590   -0.0622    0.8294 H   0  0  0  0  0  0  0  0  0  0  0  0
   -1.6536   -0.0486    0.6967 H   0  0  0  0  0  0  0  0  0  0  0  0
   -1.6667    1.4801   -1.3065 H   0  0  0  0  0  0  0  0  0  0  0  0
    0.0982    1.4801   -1.3065 H   0  0  0  0  0  0  0  0  0  0  0  0
   -0.7843    2.1794    0.0512 H   0  0  0  0  0  0  0  0  0  0  0  0
  1  2  2  3
  1  3  1  0
  1 13  1  0
  2  4  1  0
  2  5  1  0
  6  7  2  3
  6 10  1  0
  6 11  1  0
  7  8  1  0
  7 12  1  0
  8  9  1  0
  8 14  1  0
  9 15  1  0
  9 16  1  0
  9 17  1  0
M  RAD  1   8   2
M  END
>  <reaction>  (7) 
rxn_1054

>  <mol_properties>  (7) 
{"0": {"label": "*3", "atom_type": "Cd"}, "1": {"label": "*4", "atom_type": "Cd"}, "6": {"label": "*0", "atom_type": "Cd"}, "7": {"label": "*1", "atom_type": "Cs"}, "12": {"label": "*2", "atom_type": "H0"}}

>  <type>  (7) 
unop_3

>  <geom_source>  (7) 
Heuristics

$$$$

     RDKit          3D

 17 15  0  0  0  0  0  0  0  0999 V2000
    1.3652    0.2095    1.5544 C   0  0  0  0  0  0  0  0  0  0  0  0
    1.5250   -0.8051    2.3862 C   0  0  0  0  0  0  0  0  0  0  0  0
    1.7187    1.2046    1.7972 H   0  0  0  0  0  0  0  0  0  0  0  0
    2.0159   -0.6826    3.3445 H   0  0  0  0  0  0  0  0  0  0  0  0
    1.1716   -1.8003    2.1434 H   0  0  0  0  0  0  0  0  0  0  0  0
   -0.7100   -0.8328   -2.2463 C   0  0  0  0  0  0  0  0  0  0  0  0
   -0.7100   -0.8328   -0.9219 C   0  0  0  0  0  0  0  0  0  0  0  0
   -0.7100    0.3717   -0.0285 C   0  0  0  0  0  3  0  0  0  0  0  0
   -0.7100    1.7175   -0.7362 C   0  0  0  0  0  0  0  0  0  0  0  0
   -0.7100    0.0841   -2.8237 H   0  0  0  0  0  0  0  0  0  0  0  0
   -0.7100   -1.7601   -2.8049 H   0  0  0  0  0  0  0  0  0  0  0  0
   -0.7100   -1.7885   -0.4037 H   0  0  0  0  0  0  0  0  0  0  0  0
    0.3333    0.2902    0.7673 H   0  0  0  0  0  0  0  0  0  0  0  0
   -1.5794    0.3038    0.6347 H   0  0  0  0  0  0  0  0  0  0  0  0
   -1.5924    1.8325   -1.3686 H   0  0  0  0  0  0  0  0  0  0  0  0
    0.1725    1.8325   -1.3686 H   0  0  0  0  0  0  0  0  0  0  0  0
   -0.7100    2.5318   -0.0109 H   0  0  0  0  0  0  0  0  0  0  0  0
  1  2  2  3
  1  3  1  0
  1 13  1  0
  2  4  1  0
  2  5  1  0
  6  7  2  3
  6 10  1  0
  6 11  1  0
  7  8  1  0
  7 12  1  0
  8  9  1  0
  8 14  1  0
  9 15  1  0
  9 16  1  0
  9 17  1  0
M  RAD  1   8   2
M  END
>  <reaction>  (8) 
rxn_1054

>  <mol_properties>  (8) 
{"0": {"label": "*3", "atom_type": "Cd"}, "1": {"label": "*4", "atom_type": "Cd"}, "6": {"label": "*0", "atom_type": "Cd"}, "7": {"label": "*1", "atom_type": "Cs"}, "12": {"label": "*2", "atom_type": "H0"}}

>  <type>  (8) 
unop_4

>  <geom_source>  (8) 
Heuristics

$$$$

     RDKit          3D

 17 15  0  0  0  0  0  0  0  0999 V2000
    1.3441   -0.1164    1.5462 C   0  0  0  0  0  0  0  0  0  0  0  0
    1.6023    0.8143    2.4484 C   0  0  0  0  0  0  0  0  0  0  0  0
    1.9820   -0.9841    1.4261 H   0  0  0  0  0  0  0  0  0  0  0  0
    2.4623    0.7471    3.1044 H   0  0  0  0  0  0  0  0  0  0  0  0
    0.9645    1.6820    2.5686 H   0  0  0  0  0  0  0  0  0  0  0  0
   -0.7310   -1.1586   -2.2545 C   0  0  0  0  0  0  0  0  0  0  0  0
   -0.7310   -1.1586   -0.9301 C   0  0  0  0  0  0  0  0  0  0  0  0
   -0.7310    0.0459   -0.0367 C   0  0  0  0  0  3  0  0  0  0  0  0
   -0.7310    1.3916   -0.7444 C   0  0  0  0  0  0  0  0  0  0  0  0
   -0.7310   -0.2417   -2.8319 H   0  0  0  0  0  0  0  0  0  0  0  0
   -0.7310   -2.0860   -2.8132 H   0  0  0  0  0  0  0  0  0  0  0  0
   -0.7310   -2.1143   -0.4119 H   0  0  0  0  0  0  0  0  0  0  0  0
    0.3122   -0.0357    0.7591 H   0  0  0  0  0  0  0  0  0  0  0  0
   -1.6004   -0.0221    0.6265 H   0  0  0  0  0  0  0  0  0  0  0  0
   -1.6135    1.5066   -1.3768 H   0  0  0  0  0  0  0  0  0  0  0  0
    0.1514    1.5066   -1.3768 H   0  0  0  0  0  0  0  0  0  0  0  0
   -0.7310    2.2060   -0.0191 H   0  0  0  0  0  0  0  0  0  0  0  0
  1  2  2  3
  1  3  1  0
  1 13  1  0
  2  4  1  0
  2  5  1  0
  6  7  2  3
  6 10  1  0
  6 11  1  0
  7  8  1  0
  7 12  1  0
  8  9  1  0
  8 14  1  0
  9 15  1  0
  9 16  1  0
  9 17  1  0
M  RAD  1   8   2
M  END
>  <reaction>  (9) 
rxn_1054

>  <mol_properties>  (9) 
{"0": {"label": "*3", "atom_type": "Cd"}, "1": {"label": "*4", "atom_type": "Cd"}, "6": {"label": "*0", "atom_type": "Cd"}, "7": {"label": "*1", "atom_type": "Cs"}, "12": {"label": "*2", "atom_type": "H0"}}

>  <type>  (9) 
unop_5

>  <geom_source>  (9) 
Heuristics

$$$$

     RDKit          3D

 17 15  0  0  0  0  0  0  0  0999 V2000
    1.4041    0.1364    1.4976 C   0  0  0  0  0  0  0  0  0  0  0  0
    1.3349   -0.4663    2.6718 C   0  0  0  0  0  0  0  0  0  0  0  0
    1.9336    1.0732    1.3698 H   0  0  0  0  0  0  0  0  0  0  0  0
    1.8050   -0.0480    3.5540 H   0  0  0  0  0  0  0  0  0  0  0  0
    0.8054   -1.4031    2.7995 H   0  0  0  0  0  0  0  0  0  0  0  0
   -0.6711   -0.9058   -2.3031 C   0  0  0  0  0  0  0  0  0  0  0  0
   -0.6711   -0.9058   -0.9788 C   0  0  0  0  0  0  0  0  0  0  0  0
   -0.6711    0.2987   -0.0853 C   0  0  0  0  0  3  0  0  0  0  0  0
   -0.6711    1.6444   -0.7930 C   0  0  0  0  0  0  0  0  0  0  0  0
   -0.6711    0.0111   -2.8805 H   0  0  0  0  0  0  0  0  0  0  0  0
   -0.6711   -1.8332   -2.8618 H   0  0  0  0  0  0  0  0  0  0  0  0
   -0.6711   -1.8616   -0.4606 H   0  0  0  0  0  0  0  0  0  0  0  0
    0.3722    0.2171    0.7105 H   0  0  0  0  0  0  0  0  0  0  0  0
   -1.5405    0.2307    0.5778 H   0  0  0  0  0  0  0  0  0  0  0  0
   -1.5535    1.7594   -1.4254 H   0  0  0  0  0  0  0  0  0  0  0  0
    0.2114    1.7594   -1.4254 H   0  0  0  0  0  0  0  0  0  0  0  0
   -0.6711    2.4588   -0.0677 H   0  0  0  0  0  0  0  0  0  0  0  0
  1  2  2  3
  1  3  1  0
  1 13  1  0
  2  4  1  0
  2  5  1  0
  6  7  2  3
  6 10  1  0
  6 11  1  0
  7  8  1  0
  7 12  1  0
  8  9  1  0
  8 14  1  0
  9 15  1  0
  9 16  1  0
  9 17  1  0
M  RAD  1   8   2
M  END
>  <reaction>  (10) 
rxn_1054

>  <mol_properties>  (10) 
{"0": {"label": "*3", "atom_type": "Cd"}, "1": {"label": "*4", "atom_type": "Cd"}, "6": {"label": "*0", "atom_type": "Cd"}, "7": {"label": "*1", "atom_type": "Cs"}, "12": {"label": "*2", "atom_type": "H0"}}

>  <type>  (10) 
unop_6

>  <geom_source>  (10) 
Heuristics

$$$$

     RDKit          3D

 17 15  0  0  0  0  0  0  0  0999 V2000
    1.4130    0.0393    1.4767 C   0  0  0  0  0  0  0  0  0  0  0  0
    1.2808   -0.0016    2.7912 C   0  0  0  0  0  0  0  0  0  0  0  0
    2.1433    0.6814    0.9986 H   0  0  0  0  0  0  0  0  0  0  0  0
    1.8974    0.6053    3.4436 H   0  0  0  0  0  0  0  0  0  0  0  0
    0.5504   -0.6436    3.2693 H   0  0  0  0  0  0  0  0  0  0  0  0
   -0.6622   -1.0029   -2.3240 C   0  0  0  0  0  0  0  0  0  0  0  0
   -0.6622   -1.0029   -0.9996 C   0  0  0  0  0  0  0  0  0  0  0  0
   -0.6622    0.2016   -0.1062 C   0  0  0  0  0  3  0  0  0  0  0  0
   -0.6622    1.5473   -0.8139 C   0  0  0  0  0  0  0  0  0  0  0  0
   -0.6622   -0.0860   -2.9014 H   0  0  0  0  0  0  0  0  0  0  0  0
   -0.6622   -1.9302   -2.8826 H   0  0  0  0  0  0  0  0  0  0  0  0
   -0.6622   -1.9586   -0.4814 H   0  0  0  0  0  0  0  0  0  0  0  0
    0.3810    0.1200    0.6896 H   0  0  0  0  0  0  0  0  0  0  0  0
   -1.5316    0.1336    0.5570 H   0  0  0  0  0  0  0  0  0  0  0  0
   -1.5447    1.6624   -1.4463 H   0  0  0  0  0  0  0  0  0  0  0  0
    0.2202    1.6624   -1.4463 H   0  0  0  0  0  0  0  0  0  0  0  0
   -0.6622    2.3617   -0.0886 H   0  0  0  0  0  0  0  0  0  0  0  0
  1  2  2  3
  1  3  1  0
  1 13  1  0
  2  4  1  0
  2  5  1  0
  6  7  2  3
  6 10  1  0
  6 11  1  0
  7  8  1  0
  7 12  1  0
  8  9  1  0
  8 14  1  0
  9 15  1  0
  9 16  1  0
  9 17  1  0
M  RAD  1   8   2
M  END
>  <reaction>  (11) 
rxn_1054

>  <mol_properties>  (11) 
{"0": {"label": "*3", "atom_type": "Cd"}, "1": {"label": "*4", "atom_type": "Cd"}, "6": {"label": "*0", "atom_type": "Cd"}, "7": {"label": "*1", "atom_type": "Cs"}, "12": {"label": "*2", "atom_type": "H0"}}

>  <type>  (11) 
unop_7

>  <geom_source>  (11) 
Heuristics

$$$$

     RDKit          3D

 17 15  0  0  0  0  0  0  0  0999 V2000
    1.1935   -0.0539    1.7542 C   0  0  0  0  0  0  0  0  0  0  0  0
    2.3630    0.4628    1.4192 C   0  0  0  0  0  0  0  0  0  0  0  0
    0.7950    0.0442    2.7571 H   0  0  0  0  0  0  0  0  0  0  0  0
    2.9704    1.0053    2.1340 H   0  0  0  0  0  0  0  0  0  0  0  0
    2.7615    0.3647    0.4163 H   0  0  0  0  0  0  0  0  0  0  0  0
   -0.8817   -1.0962   -2.0465 C   0  0  0  0  0  0  0  0  0  0  0  0
   -0.8817   -1.0962   -0.7221 C   0  0  0  0  0  0  0  0  0  0  0  0
   -0.8817    0.1083    0.1713 C   0  0  0  0  0  3  0  0  0  0  0  0
   -0.8817    1.4541   -0.5364 C   0  0  0  0  0  0  0  0  0  0  0  0
   -0.8817   -0.1793   -2.6239 H   0  0  0  0  0  0  0  0  0  0  0  0
   -0.8817   -2.0235   -2.6052 H   0  0  0  0  0  0  0  0  0  0  0  0
   -0.8817   -2.0519   -0.2040 H   0  0  0  0  0  0  0  0  0  0  0  0
    0.1616    0.0267    0.9671 H   0  0  0  0  0  0  0  0  0  0  0  0
   -1.7511    0.0403    0.8344 H   0  0  0  0  0  0  0  0  0  0  0  0
   -1.7642    1.5691   -1.1688 H   0  0  0  0  0  0  0  0  0  0  0  0
    0.0007    1.5691   -1.1688 H   0  0  0  0  0  0  0  0  0  0  0  0
   -0.8817    2.2684    0.1889 H   0  0  0  0  0  0  0  0  0  0  0  0
  1  2  2  3
  1  3  1  0
  1 13  1  0
  2  4  1  0
  2  5  1  0
  6  7  2  3
  6 10  1  0
  6 11  1  0
  7  8  1  0
  7 12  1  0
  8  9  1  0
  8 14  1  0
  9 15  1  0
  9 16  1  0
  9 17  1  0
M  RAD  1   8   2
M  END
>  <reaction>  (12) 
rxn_1054

>  <mol_properties>  (12) 
{"0": {"label": "*3", "atom_type": "Cd"}, "1": {"label": "*4", "atom_type": "Cd"}, "6": {"label": "*0", "atom_type": "Cd"}, "7": {"label": "*1", "atom_type": "Cs"}, "12": {"label": "*2", "atom_type": "H0"}}

>  <type>  (12) 
unop_8

>  <geom_source>  (12) 
Heuristics

$$$$

     RDKit          3D

 17 15  0  0  0  0  0  0  0  0999 V2000
    1.3069    0.2376    1.6320 C   0  0  0  0  0  0  0  0  0  0  0  0
    1.8003   -0.9286    2.0110 C   0  0  0  0  0  0  0  0  0  0  0  0
    1.5410    1.1532    2.1622 H   0  0  0  0  0  0  0  0  0  0  0  0
    2.4588   -1.0160    2.8672 H   0  0  0  0  0  0  0  0  0  0  0  0
    1.5662   -1.8442    1.4808 H   0  0  0  0  0  0  0  0  0  0  0  0
   -0.7683   -0.8047   -2.1686 C   0  0  0  0  0  0  0  0  0  0  0  0
   -0.7683   -0.8047   -0.8443 C   0  0  0  0  0  0  0  0  0  0  0  0
   -0.7683    0.3998    0.0492 C   0  0  0  0  0  3  0  0  0  0  0  0
   -0.7683    1.7456   -0.6585 C   0  0  0  0  0  0  0  0  0  0  0  0
   -0.7683    0.1122   -2.7461 H   0  0  0  0  0  0  0  0  0  0  0  0
   -0.7683   -1.7320   -2.7273 H   0  0  0  0  0  0  0  0  0  0  0  0
   -0.7683   -1.7604   -0.3261 H   0  0  0  0  0  0  0  0  0  0  0  0
    0.2750    0.3183    0.8449 H   0  0  0  0  0  0  0  0  0  0  0  0
   -1.6377    0.3319    0.7123 H   0  0  0  0  0  0  0  0  0  0  0  0
   -1.6507    1.8606   -1.2910 H   0  0  0  0  0  0  0  0  0  0  0  0
    0.1142    1.8606   -1.2910 H   0  0  0  0  0  0  0  0  0  0  0  0
   -0.7683    2.5599    0.0668 H   0  0  0  0  0  0  0  0  0  0  0  0
  1  2  2  3
  1  3  1  0
  1 13  1  0
  2  4  1  0
  2  5  1  0
  6  7  2  3
  6 10  1  0
  6 11  1  0
  7  8  1  0
  7 12  1  0
  8  9  1  0
  8 14  1  0
  9 15  1  0
  9 16  1  0
  9 17  1  0
M  RAD  1   8   2
M  END
>  <reaction>  (13) 
rxn_1054

>  <mol_properties>  (13) 
{"0": {"label": "*3", "atom_type": "Cd"}, "1": {"label": "*4", "atom_type": "Cd"}, "6": {"label": "*0", "atom_type": "Cd"}, "7": {"label": "*1", "atom_type": "Cs"}, "12": {"label": "*2", "atom_type": "H0"}}

>  <type>  (13) 
unop_9

>  <geom_source>  (13) 
Heuristics

$$$$

     RDKit          3D

 17 15  0  0  0  0  0  0  0  0999 V2000
    1.1801    0.0422    1.7799 C   0  0  0  0  0  0  0  0  0  0  0  0
    2.4126   -0.0030    1.3048 C   0  0  0  0  0  0  0  0  0  0  0  0
    0.9538    0.5133    2.7292 H   0  0  0  0  0  0  0  0  0  0  0  0
    3.2464    0.4294    1.8453 H   0  0  0  0  0  0  0  0  0  0  0  0
    2.6390   -0.4741    0.3555 H   0  0  0  0  0  0  0  0  0  0  0  0
   -0.8951   -1.0001   -2.0207 C   0  0  0  0  0  0  0  0  0  0  0  0
   -0.8951   -1.0001   -0.6964 C   0  0  0  0  0  0  0  0  0  0  0  0
   -0.8951    0.2044    0.1971 C   0  0  0  0  0  3  0  0  0  0  0  0
   -0.8951    1.5502   -0.5106 C   0  0  0  0  0  0  0  0  0  0  0  0
   -0.8951   -0.0832   -2.5982 H   0  0  0  0  0  0  0  0  0  0  0  0
   -0.8951   -1.9274   -2.5794 H   0  0  0  0  0  0  0  0  0  0  0  0
   -0.8951   -1.9558   -0.1782 H   0  0  0  0  0  0  0  0  0  0  0  0
    0.1482    0.1229    0.9928 H   0  0  0  0  0  0  0  0  0  0  0  0
   -1.7645    0.1365    0.8602 H   0  0  0  0  0  0  0  0  0  0  0  0
   -1.7775    1.6652   -1.1430 H   0  0  0  0  0  0  0  0  0  0  0  0
   -0.0126    1.6652   -1.1430 H   0  0  0  0  0  0  0  0  0  0  0  0
   -0.8951    2.3645    0.2147 H   0  0  0  0  0  0  0  0  0  0  0  0
  1  2  2  3
  1  3  1  0
  1 13  1  0
  2  4  1  0
  2  5  1  0
  6  7  2  3
  6 10  1  0
  6 11  1  0
  7  8  1  0
  7 12  1  0
  8  9  1  0
  8 14  1  0
  9 15  1  0
  9 16  1  0
  9 17  1  0
M  RAD  1   8   2
M  END
>  <reaction>  (14) 
rxn_1054

>  <mol_properties>  (14) 
{"0": {"label": "*3", "atom_type": "Cd"}, "1": {"label": "*4", "atom_type": "Cd"}, "6": {"label": "*0", "atom_type": "Cd"}, "7": {"label": "*1", "atom_type": "Cs"}, "12": {"label": "*2", "atom_type": "H0"}}

>  <type>  (14) 
unop_10

>  <geom_source>  (14) 
Heuristics

$$$$

     RDKit          3D

 17 15  0  0  0  0  0  0  0  0999 V2000
    1.3896   -0.0538    1.4963 C   0  0  0  0  0  0  0  0  0  0  0  0
    1.3772    0.4666    2.7112 C   0  0  0  0  0  0  0  0  0  0  0  0
    2.2764   -0.0242    0.8743 H   0  0  0  0  0  0  0  0  0  0  0  0
    2.2534    0.9437    3.1341 H   0  0  0  0  0  0  0  0  0  0  0  0
    0.4904    0.4371    3.3332 H   0  0  0  0  0  0  0  0  0  0  0  0
   -0.6856   -1.0960   -2.3044 C   0  0  0  0  0  0  0  0  0  0  0  0
   -0.6856   -1.0960   -0.9800 C   0  0  0  0  0  0  0  0  0  0  0  0
   -0.6856    0.1085   -0.0866 C   0  0  0  0  0  3  0  0  0  0  0  0
   -0.6856    1.4542   -0.7943 C   0  0  0  0  0  0  0  0  0  0  0  0
   -0.6856   -0.1791   -2.8818 H   0  0  0  0  0  0  0  0  0  0  0  0
   -0.6856   -2.0233   -2.8631 H   0  0  0  0  0  0  0  0  0  0  0  0
   -0.6856   -2.0517   -0.4619 H   0  0  0  0  0  0  0  0  0  0  0  0
    0.3577    0.0269    0.7092 H   0  0  0  0  0  0  0  0  0  0  0  0
   -1.5550    0.0405    0.5765 H   0  0  0  0  0  0  0  0  0  0  0  0
   -1.5680    1.5693   -1.4267 H   0  0  0  0  0  0  0  0  0  0  0  0
    0.1968    1.5693   -1.4267 H   0  0  0  0  0  0  0  0  0  0  0  0
   -0.6856    2.2686   -0.0690 H   0  0  0  0  0  0  0  0  0  0  0  0
  1  2  2  3
  1  3  1  0
  1 13  1  0
  2  4  1  0
  2  5  1  0
  6  7  2  3
  6 10  1  0
  6 11  1  0
  7  8  1  0
  7 12  1  0
  8  9  1  0
  8 14  1  0
  9 15  1  0
  9 16  1  0
  9 17  1  0
M  RAD  1   8   2
M  END
>  <reaction>  (15) 
rxn_1054

>  <mol_properties>  (15) 
{"0": {"label": "*3", "atom_type": "Cd"}, "1": {"label": "*4", "atom_type": "Cd"}, "6": {"label": "*0", "atom_type": "Cd"}, "7": {"label": "*1", "atom_type": "Cs"}, "12": {"label": "*2", "atom_type": "H0"}}

>  <type>  (15) 
unop_11

>  <geom_source>  (15) 
Heuristics

$$$$

     RDKit          3D

 17 15  0  0  0  0  0  0  0  0999 V2000
    1.2456    0.2121    1.7090 C   0  0  0  0  0  0  0  0  0  0  0  0
    2.0878   -0.8046    1.6460 C   0  0  0  0  0  0  0  0  0  0  0  0
    1.3813    1.0194    2.4191 H   0  0  0  0  0  0  0  0  0  0  0  0
    2.9477   -0.8718    2.3019 H   0  0  0  0  0  0  0  0  0  0  0  0
    1.9522   -1.6118    0.9359 H   0  0  0  0  0  0  0  0  0  0  0  0
   -0.8296   -0.8301   -2.0916 C   0  0  0  0  0  0  0  0  0  0  0  0
   -0.8296   -0.8301   -0.7673 C   0  0  0  0  0  0  0  0  0  0  0  0
   -0.8296    0.3744    0.1262 C   0  0  0  0  0  3  0  0  0  0  0  0
   -0.8296    1.7201   -0.5815 C   0  0  0  0  0  0  0  0  0  0  0  0
   -0.8296    0.0868   -2.6691 H   0  0  0  0  0  0  0  0  0  0  0  0
   -0.8296   -1.7574   -2.6503 H   0  0  0  0  0  0  0  0  0  0  0  0
   -0.8296   -1.7858   -0.2491 H   0  0  0  0  0  0  0  0  0  0  0  0
    0.2137    0.2928    0.9219 H   0  0  0  0  0  0  0  0  0  0  0  0
   -1.6989    0.3064    0.7893 H   0  0  0  0  0  0  0  0  0  0  0  0
   -1.7120    1.8352   -1.2140 H   0  0  0  0  0  0  0  0  0  0  0  0
    0.0529    1.8352   -1.2140 H   0  0  0  0  0  0  0  0  0  0  0  0
   -0.8296    2.5345    0.1438 H   0  0  0  0  0  0  0  0  0  0  0  0
  1  2  2  3
  1  3  1  0
  1 13  1  0
  2  4  1  0
  2  5  1  0
  6  7  2  3
  6 10  1  0
  6 11  1  0
  7  8  1  0
  7 12  1  0
  8  9  1  0
  8 14  1  0
  9 15  1  0
  9 16  1  0
  9 17  1  0
M  RAD  1   8   2
M  END
>  <reaction>  (16) 
rxn_1054

>  <mol_properties>  (16) 
{"0": {"label": "*3", "atom_type": "Cd"}, "1": {"label": "*4", "atom_type": "Cd"}, "6": {"label": "*0", "atom_type": "Cd"}, "7": {"label": "*1", "atom_type": "Cs"}, "12": {"label": "*2", "atom_type": "H0"}}

>  <type>  (16) 
unop_12

>  <geom_source>  (16) 
Heuristics

$$$$

     RDKit          3D

 17 15  0  0  0  0  0  0  0  0999 V2000
   -1.3060   -1.2817    0.6203 C   0  0  0  0  0  0  0  0  0  0  0  0
   -0.5585   -0.3228   -0.2991 C   0  0  0  0  0  3  0  0  0  0  0  0
   -1.4290    0.8250   -0.7191 C   0  0  0  0  0  0  0  0  0  0  0  0
   -1.7302    1.8117    0.1280 C   0  0  0  0  0  0  0  0  0  0  0  0
    3.0759   -0.2770    0.3284 C   0  0  0  0  0  0  0  0  0  0  0  0
    2.0181   -0.0214   -0.4375 C   0  0  0  0  0  0  0  0  0  0  0  0
   -1.6171   -0.7614    1.5505 H   0  0  0  0  0  0  0  0  0  0  0  0
   -0.6364   -2.1232    0.8947 H   0  0  0  0  0  0  0  0  0  0  0  0
   -2.2028   -1.6892    0.1063 H   0  0  0  0  0  0  0  0  0  0  0  0
   -0.2105   -0.8738   -1.1990 H   0  0  0  0  0  0  0  0  0  0  0  0
   -1.7855    0.8744   -1.7437 H   0  0  0  0  0  0  0  0  0  0  0  0
    4.0782   -0.2046   -0.0811 H   0  0  0  0  0  0  0  0  0  0  0  0
    2.9409   -0.5594    1.3672 H   0  0  0  0  0  0  0  0  0  0  0  0
    2.1508    0.2612   -1.4768 H   0  0  0  0  0  0  0  0  0  0  0  0
    0.9229   -0.1012    0.0126 H   0  0  0  0  0  0  0  0  0  0  0  0
   -2.3451    2.6424   -0.2026 H   0  0  0  0  0  0  0  0  0  0  0  0
   -1.3655    1.8008    1.1508 H   0  0  0  0  0  0  0  0  0  0  0  0
  1  2  1  0
  1  7  1  0
  1  8  1  0
  1  9  1  0
  2  3  1  0
  2 10  1  0
  3  4  2  3
  3 11  1  0
  4 16  1  0
  4 17  1  0
  5  6  2  3
  5 12  1  0
  5 13  1  0
  6 14  1  0
  6 15  1  0
M  RAD  1   2   2
M  END
>  <reaction>  (17) 
rxn_1054

>  <mol_properties>  (17) 
{"0": {"label": "*3", "atom_type": "Cd"}, "1": {"label": "*4", "atom_type": "Cd"}, "6": {"label": "*0", "atom_type": "Cd"}, "7": {"label": "*1", "atom_type": "Cs"}, "12": {"label": "*2", "atom_type": "H0"}}

>  <type>  (17) 
unop_13

>  <geom_source>  (17) 
AutoTST

$$$$
