
     RDKit          3D

  7  6  0  0  0  0  0  0  0  0999 V2000
    1.2985   -0.0065   -0.2721 C   0  0  0  0  0  0  0  0  0  0  0  0
    0.0000    0.0000   -0.2926 C   0  0  0  0  0  0  0  0  0  0  0  0
   -1.2985    0.0065   -0.3130 C   0  0  0  0  0  0  0  0  0  0  0  0
    1.8444   -0.7551    0.2895 H   0  0  0  0  0  0  0  0  0  0  0  0
    1.8693    0.7364   -0.8162 H   0  0  0  0  0  0  0  0  0  0  0  0
   -1.8658    0.5623    0.4239 H   0  0  0  0  0  0  0  0  0  0  0  0
   -1.8479   -0.5437   -1.0675 H   0  0  0  0  0  0  0  0  0  0  0  0
  1  2  2  0
  1  4  1  0
  1  5  1  0
  2  3  2  0
  3  6  1  0
  3  7  1  0
M  END
>  <reaction>  (1) 
rxn_1836

>  <mol_properties>  (1) 
{"0": {"label": "donator", "atom_type": "Cd"}, "3": {"label": "d_hydrogen", "atom_type": "H0"}}

>  <type>  (1) 
r1h

$$$$

     RDKit          3D

  4  3  0  0  0  0  0  0  0  0999 V2000
   -0.7528   -0.8706   -0.3839 S   0  0  0  0  0  0  0  0  0  0  0  0
    0.7502   -0.2564   -0.0649 C   0  0  0  0  0  3  0  0  0  0  0  0
    1.5655    0.9691    0.4633 S   0  0  0  0  0  0  0  0  0  0  0  0
   -1.5629    0.1579   -0.0146 H   0  0  0  0  0  0  0  0  0  0  0  0
  1  2  1  0
  1  4  1  0
  2  3  2  0
M  RAD  1   2   2
M  END
>  <reaction>  (2) 
rxn_1836

>  <mol_properties>  (2) 
{"1": {"label": "acceptor", "atom_type": "CS"}}

>  <type>  (2) 
r2

$$$$

     RDKit          3D

  5  4  0  0  0  0  0  0  0  0999 V2000
    1.2280   -0.4626    0.1225 S   0  0  0  0  0  0  0  0  0  0  0  0
   -0.4732   -0.2566   -0.0746 C   0  0  0  0  0  0  0  0  0  0  0  0
   -1.3314    1.1074   -0.0947 S   0  0  0  0  0  0  0  0  0  0  0  0
    1.5289    0.8405    0.2416 H   0  0  0  0  0  0  0  0  0  0  0  0
   -0.9523   -1.2286   -0.1949 H   0  0  0  0  0  0  0  0  0  0  0  0
  1  2  1  0
  1  4  1  0
  2  3  2  0
  2  5  1  0
M  END
>  <reaction>  (3) 
rxn_1836

>  <mol_properties>  (3) 
{"1": {"label": "acceptor", "atom_type": "CS"}, "4": {"label": "a_hydrogen", "atom_type": "H0"}}

>  <type>  (3) 
r2h

$$$$

     RDKit          3D

 11  9  0  0  0  0  0  0  0  0999 V2000
    0.4138   -0.8328    1.9826 S   0  0  0  0  0  0  0  0  0  0  0  0
   -0.0956   -0.4618    0.4015 C   0  0  0  0  0  0  0  0  0  0  0  0
   -1.3244   -0.9107   -0.5011 S   0  0  0  0  0  0  0  0  0  0  0  0
   -0.5707   -1.6852    2.3268 H   0  0  0  0  0  0  0  0  0  0  0  0
    1.5332    1.2655   -0.8543 C   0  0  0  0  0  0  0  0  0  0  0  0
    1.0340    1.4455   -2.0061 C   0  0  0  0  0  0  0  0  0  0  0  0
    0.4093    1.5401   -3.1642 C   0  0  0  0  0  3  0  0  0  0  0  0
    0.7679    0.3955   -0.1377 H   0  0  0  0  0  0  0  0  0  0  0  0
    2.4035    1.6423   -0.3427 H   0  0  0  0  0  0  0  0  0  0  0  0
   -0.3475    2.2970   -3.3268 H   0  0  0  0  0  0  0  0  0  0  0  0
    0.6539    0.8755   -3.9830 H   0  0  0  0  0  0  0  0  0  0  0  0
  1  2  1  0
  1  4  1  0
  2  3  2  0
  2  8  1  0
  5  6  3  0
  5  9  1  0
  6  7  1  0
  7 10  1  0
  7 11  1  0
M  RAD  1   7   2
M  END
>  <reaction>  (4) 
rxn_1836

>  <mol_properties>  (4) 
{"0": {"label": "*0", "atom_type": "S2s"}, "1": {"label": "*1", "atom_type": "CS"}, "4": {"label": "*3", "atom_type": "Ct"}, "5": {"label": "*4", "atom_type": "Ct"}, "7": {"label": "*2", "atom_type": "H0"}}

>  <type>  (4) 
ts

$$$$

     RDKit          3D

 11  9  0  0  0  0  0  0  0  0999 V2000
    0.7334   -1.4048    1.5190 S   0  0  0  0  0  0  0  0  0  0  0  0
   -0.3453   -0.5006    0.5220 C   0  0  0  0  0  3  0  0  0  0  0  0
   -1.8325    0.0231    0.8559 S   0  0  0  0  0  0  0  0  0  0  0  0
   -0.0783   -1.4929    2.5850 H   0  0  0  0  0  0  0  0  0  0  0  0
    0.9861    1.2949   -0.8225 C   0  0  0  0  0  0  0  0  0  0  0  0
    0.9861    1.2949   -2.1212 C   0  0  0  0  0  0  0  0  0  0  0  0
    0.9861    1.2949   -3.4198 C   0  0  0  0  0  0  0  0  0  0  0  0
    0.3225    0.4000   -0.1524 H   0  0  0  0  0  0  0  0  0  0  0  0
    1.5391    2.0407   -0.2641 H   0  0  0  0  0  0  0  0  0  0  0  0
    0.2404    1.8479   -3.9782 H   0  0  0  0  0  0  0  0  0  0  0  0
    1.7319    0.7419   -3.9782 H   0  0  0  0  0  0  0  0  0  0  0  0
  1  2  1  0
  1  4  1  0
  2  3  2  0
  5  6  2  0
  5  8  1  0
  5  9  1  0
  6  7  2  0
  7 10  1  0
  7 11  1  0
M  RAD  1   2   2
M  END
>  <reaction>  (5) 
rxn_1836

>  <mol_properties>  (5) 
{"0": {"label": "*0", "atom_type": "S2s"}, "1": {"label": "*1", "atom_type": "CS"}, "4": {"label": "*3", "atom_type": "Ct"}, "5": {"label": "*4", "atom_type": "Ct"}, "7": {"label": "*2", "atom_type": "H0"}}

>  <type>  (5) 
unop_1

>  <geom_source>  (5) 
Heuristics

$$$$

     RDKit          3D

 11  9  0  0  0  0  0  0  0  0999 V2000
   -0.4403   -1.7244   -0.1837 S   0  0  0  0  0  0  0  0  0  0  0  0
   -0.3616   -0.2563    0.7185 C   0  0  0  0  0  3  0  0  0  0  0  0
   -0.6108   -0.0223    2.2935 S   0  0  0  0  0  0  0  0  0  0  0  0
   -0.7613   -2.5225    0.8472 H   0  0  0  0  0  0  0  0  0  0  0  0
    0.9698    1.5392   -0.6260 C   0  0  0  0  0  0  0  0  0  0  0  0
    0.9698    1.5392   -1.9246 C   0  0  0  0  0  0  0  0  0  0  0  0
    0.9698    1.5392   -3.2233 C   0  0  0  0  0  0  0  0  0  0  0  0
    0.3062    0.6442    0.0442 H   0  0  0  0  0  0  0  0  0  0  0  0
    1.5228    2.2849   -0.0675 H   0  0  0  0  0  0  0  0  0  0  0  0
    0.2241    2.0922   -3.7817 H   0  0  0  0  0  0  0  0  0  0  0  0
    1.7156    0.9862   -3.7817 H   0  0  0  0  0  0  0  0  0  0  0  0
  1  2  1  0
  1  4  1  0
  2  3  2  0
  5  6  2  0
  5  8  1  0
  5  9  1  0
  6  7  2  0
  7 10  1  0
  7 11  1  0
M  RAD  1   2   2
M  END
>  <reaction>  (6) 
rxn_1836

>  <mol_properties>  (6) 
{"0": {"label": "*0", "atom_type": "S2s"}, "1": {"label": "*1", "atom_type": "CS"}, "4": {"label": "*3", "atom_type": "Ct"}, "5": {"label": "*4", "atom_type": "Ct"}, "7": {"label": "*2", "atom_type": "H0"}}

>  <type>  (6) 
unop_2

>  <geom_source>  (6) 
Heuristics

$$$$

     RDKit          3D

 11  9  0  0  0  0  0  0  0  0999 V2000
    0.5448   -0.7923    2.0808 S   0  0  0  0  0  0  0  0  0  0  0  0
   -0.2392   -0.4876    0.5749 C   0  0  0  0  0  3  0  0  0  0  0  0
   -1.8016   -0.6213    0.2026 S   0  0  0  0  0  0  0  0  0  0  0  0
   -0.5569   -1.1516    2.7589 H   0  0  0  0  0  0  0  0  0  0  0  0
    1.0922    1.3079   -0.7696 C   0  0  0  0  0  0  0  0  0  0  0  0
    1.0922    1.3079   -2.0683 C   0  0  0  0  0  0  0  0  0  0  0  0
    1.0922    1.3079   -3.3669 C   0  0  0  0  0  0  0  0  0  0  0  0
    0.4286    0.4130   -0.0995 H   0  0  0  0  0  0  0  0  0  0  0  0
    1.6453    2.0536   -0.2112 H   0  0  0  0  0  0  0  0  0  0  0  0
    0.3465    1.8609   -3.9254 H   0  0  0  0  0  0  0  0  0  0  0  0
    1.8380    0.7549   -3.9254 H   0  0  0  0  0  0  0  0  0  0  0  0
  1  2  1  0
  1  4  1  0
  2  3  2  0
  5  6  2  0
  5  8  1  0
  5  9  1  0
  6  7  2  0
  7 10  1  0
  7 11  1  0
M  RAD  1   2   2
M  END
>  <reaction>  (7) 
rxn_1836

>  <mol_properties>  (7) 
{"0": {"label": "*0", "atom_type": "S2s"}, "1": {"label": "*1", "atom_type": "CS"}, "4": {"label": "*3", "atom_type": "Ct"}, "5": {"label": "*4", "atom_type": "Ct"}, "7": {"label": "*2", "atom_type": "H0"}}

>  <type>  (7) 
unop_3

>  <geom_source>  (7) 
Heuristics

$$$$

     RDKit          3D

 11  9  0  0  0  0  0  0  0  0999 V2000
   -1.8429   -0.4228    0.2301 S   0  0  0  0  0  0  0  0  0  0  0  0
   -0.1663   -0.5207    0.6233 C   0  0  0  0  0  3  0  0  0  0  0  0
    0.5227   -0.9478    2.0163 S   0  0  0  0  0  0  0  0  0  0  0  0
   -2.3061   -0.8070    1.4303 H   0  0  0  0  0  0  0  0  0  0  0  0
    1.1651    1.2748   -0.7211 C   0  0  0  0  0  0  0  0  0  0  0  0
    1.1651    1.2748   -2.0198 C   0  0  0  0  0  0  0  0  0  0  0  0
    1.1651    1.2748   -3.3185 C   0  0  0  0  0  0  0  0  0  0  0  0
    0.5015    0.3799   -0.0510 H   0  0  0  0  0  0  0  0  0  0  0  0
    1.7181    2.0206   -0.1627 H   0  0  0  0  0  0  0  0  0  0  0  0
    0.4194    1.8278   -3.8769 H   0  0  0  0  0  0  0  0  0  0  0  0
    1.9109    0.7218   -3.8769 H   0  0  0  0  0  0  0  0  0  0  0  0
  1  2  1  0
  1  4  1  0
  2  3  2  0
  5  6  2  0
  5  8  1  0
  5  9  1  0
  6  7  2  0
  7 10  1  0
  7 11  1  0
M  RAD  1   2   2
M  END
>  <reaction>  (8) 
rxn_1836

>  <mol_properties>  (8) 
{"0": {"label": "*0", "atom_type": "S2s"}, "1": {"label": "*1", "atom_type": "CS"}, "4": {"label": "*3", "atom_type": "Ct"}, "5": {"label": "*4", "atom_type": "Ct"}, "7": {"label": "*2", "atom_type": "H0"}}

>  <type>  (8) 
unop_4

>  <geom_source>  (8) 
Heuristics

$$$$

     RDKit          3D

 11  9  0  0  0  0  0  0  0  0999 V2000
   -0.0728   -0.0982    2.3199 S   0  0  0  0  0  0  0  0  0  0  0  0
   -0.2719   -0.3667    0.6277 C   0  0  0  0  0  3  0  0  0  0  0  0
   -1.1219   -1.5129   -0.1215 S   0  0  0  0  0  0  0  0  0  0  0  0
   -0.8343   -1.1251    2.7302 H   0  0  0  0  0  0  0  0  0  0  0  0
    1.0595    1.4288   -0.7168 C   0  0  0  0  0  0  0  0  0  0  0  0
    1.0595    1.4288   -2.0155 C   0  0  0  0  0  0  0  0  0  0  0  0
    1.0595    1.4288   -3.3141 C   0  0  0  0  0  0  0  0  0  0  0  0
    0.3959    0.5339   -0.0467 H   0  0  0  0  0  0  0  0  0  0  0  0
    1.6125    2.1745   -0.1584 H   0  0  0  0  0  0  0  0  0  0  0  0
    0.3137    1.9818   -3.8726 H   0  0  0  0  0  0  0  0  0  0  0  0
    1.8053    0.8758   -3.8726 H   0  0  0  0  0  0  0  0  0  0  0  0
  1  2  1  0
  1  4  1  0
  2  3  2  0
  5  6  2  0
  5  8  1  0
  5  9  1  0
  6  7  2  0
  7 10  1  0
  7 11  1  0
M  RAD  1   2   2
M  END
>  <reaction>  (9) 
rxn_1836

>  <mol_properties>  (9) 
{"0": {"label": "*0", "atom_type": "S2s"}, "1": {"label": "*1", "atom_type": "CS"}, "4": {"label": "*3", "atom_type": "Ct"}, "5": {"label": "*4", "atom_type": "Ct"}, "7": {"label": "*2", "atom_type": "H0"}}

>  <type>  (9) 
unop_5

>  <geom_source>  (9) 
Heuristics

$$$$

     RDKit          3D

 11  9  0  0  0  0  0  0  0  0999 V2000
   -1.8723    0.0223    0.8436 S   0  0  0  0  0  0  0  0  0  0  0  0
   -0.2701   -0.5409    0.5417 C   0  0  0  0  0  3  0  0  0  0  0  0
    0.7105   -1.3710    1.5148 S   0  0  0  0  0  0  0  0  0  0  0  0
   -1.9724   -0.4584    2.0932 H   0  0  0  0  0  0  0  0  0  0  0  0
    1.0613    1.2546   -0.8028 C   0  0  0  0  0  0  0  0  0  0  0  0
    1.0613    1.2546   -2.1014 C   0  0  0  0  0  0  0  0  0  0  0  0
    1.0613    1.2546   -3.4001 C   0  0  0  0  0  0  0  0  0  0  0  0
    0.3977    0.3597   -0.1327 H   0  0  0  0  0  0  0  0  0  0  0  0
    1.6143    2.0004   -0.2443 H   0  0  0  0  0  0  0  0  0  0  0  0
    0.3156    1.8076   -3.9585 H   0  0  0  0  0  0  0  0  0  0  0  0
    1.8071    0.7016   -3.9585 H   0  0  0  0  0  0  0  0  0  0  0  0
  1  2  1  0
  1  4  1  0
  2  3  2  0
  5  6  2  0
  5  8  1  0
  5  9  1  0
  6  7  2  0
  7 10  1  0
  7 11  1  0
M  RAD  1   2   2
M  END
>  <reaction>  (10) 
rxn_1836

>  <mol_properties>  (10) 
{"0": {"label": "*0", "atom_type": "S2s"}, "1": {"label": "*1", "atom_type": "CS"}, "4": {"label": "*3", "atom_type": "Ct"}, "5": {"label": "*4", "atom_type": "Ct"}, "7": {"label": "*2", "atom_type": "H0"}}

>  <type>  (10) 
unop_6

>  <geom_source>  (10) 
Heuristics

$$$$

     RDKit          3D

 11  9  0  0  0  0  0  0  0  0999 V2000
   -1.5572    0.2938    1.5190 S   0  0  0  0  0  0  0  0  0  0  0  0
   -0.3787   -0.4758    0.5220 C   0  0  0  0  0  3  0  0  0  0  0  0
    0.5543   -1.7468    0.8559 S   0  0  0  0  0  0  0  0  0  0  0  0
   -1.4058   -0.5085    2.5850 H   0  0  0  0  0  0  0  0  0  0  0  0
    0.9527    1.3197   -0.8225 C   0  0  0  0  0  0  0  0  0  0  0  0
    0.9527    1.3197   -2.1212 C   0  0  0  0  0  0  0  0  0  0  0  0
    0.9527    1.3197   -3.4198 C   0  0  0  0  0  0  0  0  0  0  0  0
    0.2891    0.4248   -0.1524 H   0  0  0  0  0  0  0  0  0  0  0  0
    1.5057    2.0655   -0.2641 H   0  0  0  0  0  0  0  0  0  0  0  0
    0.2069    1.8727   -3.9782 H   0  0  0  0  0  0  0  0  0  0  0  0
    1.6985    0.7667   -3.9782 H   0  0  0  0  0  0  0  0  0  0  0  0
  1  2  1  0
  1  4  1  0
  2  3  2  0
  5  6  2  0
  5  8  1  0
  5  9  1  0
  6  7  2  0
  7 10  1  0
  7 11  1  0
M  RAD  1   2   2
M  END
>  <reaction>  (11) 
rxn_1836

>  <mol_properties>  (11) 
{"0": {"label": "*0", "atom_type": "S2s"}, "1": {"label": "*1", "atom_type": "CS"}, "4": {"label": "*3", "atom_type": "Ct"}, "5": {"label": "*4", "atom_type": "Ct"}, "7": {"label": "*2", "atom_type": "H0"}}

>  <type>  (11) 
unop_7

>  <geom_source>  (11) 
Heuristics

$$$$

     RDKit          3D

 11  9  0  0  0  0  0  0  0  0999 V2000
    0.5651   -1.7851    0.8436 S   0  0  0  0  0  0  0  0  0  0  0  0
   -0.4391   -0.4156    0.5417 C   0  0  0  0  0  3  0  0  0  0  0  0
   -1.5182    0.2817    1.5148 S   0  0  0  0  0  0  0  0  0  0  0  0
    0.1342   -2.0206    2.0932 H   0  0  0  0  0  0  0  0  0  0  0  0
    0.8923    1.3799   -0.8028 C   0  0  0  0  0  0  0  0  0  0  0  0
    0.8923    1.3799   -2.1014 C   0  0  0  0  0  0  0  0  0  0  0  0
    0.8923    1.3799   -3.4001 C   0  0  0  0  0  0  0  0  0  0  0  0
    0.2287    0.4850   -0.1327 H   0  0  0  0  0  0  0  0  0  0  0  0
    1.4453    2.1257   -0.2443 H   0  0  0  0  0  0  0  0  0  0  0  0
    0.1465    1.9330   -3.9585 H   0  0  0  0  0  0  0  0  0  0  0  0
    1.6381    0.8269   -3.9585 H   0  0  0  0  0  0  0  0  0  0  0  0
  1  2  1  0
  1  4  1  0
  2  3  2  0
  5  6  2  0
  5  8  1  0
  5  9  1  0
  6  7  2  0
  7 10  1  0
  7 11  1  0
M  RAD  1   2   2
M  END
>  <reaction>  (12) 
rxn_1836

>  <mol_properties>  (12) 
{"0": {"label": "*0", "atom_type": "S2s"}, "1": {"label": "*1", "atom_type": "CS"}, "4": {"label": "*3", "atom_type": "Ct"}, "5": {"label": "*4", "atom_type": "Ct"}, "7": {"label": "*2", "atom_type": "H0"}}

>  <type>  (12) 
unop_8

>  <geom_source>  (12) 
Heuristics

$$$$

     RDKit          3D

 11  9  0  0  0  0  0  0  0  0999 V2000
   -1.5222   -0.9221   -0.1837 S   0  0  0  0  0  0  0  0  0  0  0  0
   -0.1403   -0.4205    0.7185 C   0  0  0  0  0  3  0  0  0  0  0  0
    0.1560   -0.5909    2.2935 S   0  0  0  0  0  0  0  0  0  0  0  0
   -2.1927   -1.4611    0.8472 H   0  0  0  0  0  0  0  0  0  0  0  0
    1.1912    1.3750   -0.6260 C   0  0  0  0  0  0  0  0  0  0  0  0
    1.1912    1.3750   -1.9246 C   0  0  0  0  0  0  0  0  0  0  0  0
    1.1912    1.3750   -3.2233 C   0  0  0  0  0  0  0  0  0  0  0  0
    0.5275    0.4801    0.0442 H   0  0  0  0  0  0  0  0  0  0  0  0
    1.7442    2.1208   -0.0675 H   0  0  0  0  0  0  0  0  0  0  0  0
    0.4454    1.9281   -3.7817 H   0  0  0  0  0  0  0  0  0  0  0  0
    1.9369    0.8220   -3.7817 H   0  0  0  0  0  0  0  0  0  0  0  0
  1  2  1  0
  1  4  1  0
  2  3  2  0
  5  6  2  0
  5  8  1  0
  5  9  1  0
  6  7  2  0
  7 10  1  0
  7 11  1  0
M  RAD  1   2   2
M  END
>  <reaction>  (13) 
rxn_1836

>  <mol_properties>  (13) 
{"0": {"label": "*0", "atom_type": "S2s"}, "1": {"label": "*1", "atom_type": "CS"}, "4": {"label": "*3", "atom_type": "Ct"}, "5": {"label": "*4", "atom_type": "Ct"}, "7": {"label": "*2", "atom_type": "H0"}}

>  <type>  (13) 
unop_9

>  <geom_source>  (13) 
Heuristics

$$$$

     RDKit          3D

 11  9  0  0  0  0  0  0  0  0999 V2000
    0.1307   -1.8863    0.2301 S   0  0  0  0  0  0  0  0  0  0  0  0
   -0.4500   -0.3104    0.6233 C   0  0  0  0  0  3  0  0  0  0  0  0
   -1.0587    0.2249    2.0163 S   0  0  0  0  0  0  0  0  0  0  0  0
   -0.1024   -2.4411    1.4303 H   0  0  0  0  0  0  0  0  0  0  0  0
    0.8815    1.4851   -0.7211 C   0  0  0  0  0  0  0  0  0  0  0  0
    0.8815    1.4851   -2.0198 C   0  0  0  0  0  0  0  0  0  0  0  0
    0.8815    1.4851   -3.3185 C   0  0  0  0  0  0  0  0  0  0  0  0
    0.2179    0.5902   -0.0510 H   0  0  0  0  0  0  0  0  0  0  0  0
    1.4345    2.2309   -0.1627 H   0  0  0  0  0  0  0  0  0  0  0  0
    0.1357    2.0381   -3.8769 H   0  0  0  0  0  0  0  0  0  0  0  0
    1.6272    0.9321   -3.8769 H   0  0  0  0  0  0  0  0  0  0  0  0
  1  2  1  0
  1  4  1  0
  2  3  2  0
  5  6  2  0
  5  8  1  0
  5  9  1  0
  6  7  2  0
  7 10  1  0
  7 11  1  0
M  RAD  1   2   2
M  END
>  <reaction>  (14) 
rxn_1836

>  <mol_properties>  (14) 
{"0": {"label": "*0", "atom_type": "S2s"}, "1": {"label": "*1", "atom_type": "CS"}, "4": {"label": "*3", "atom_type": "Ct"}, "5": {"label": "*4", "atom_type": "Ct"}, "7": {"label": "*2", "atom_type": "H0"}}

>  <type>  (14) 
unop_10

>  <geom_source>  (14) 
Heuristics

$$$$

     RDKit          3D

 11  9  0  0  0  0  0  0  0  0999 V2000
   -0.9163    0.2912    2.0808 S   0  0  0  0  0  0  0  0  0  0  0  0
   -0.3971   -0.3705    0.5749 C   0  0  0  0  0  3  0  0  0  0  0  0
   -0.0713   -1.9044    0.2026 S   0  0  0  0  0  0  0  0  0  0  0  0
   -0.9402   -0.8673    2.7589 H   0  0  0  0  0  0  0  0  0  0  0  0
    0.9343    1.4250   -0.7696 C   0  0  0  0  0  0  0  0  0  0  0  0
    0.9343    1.4250   -2.0683 C   0  0  0  0  0  0  0  0  0  0  0  0
    0.9343    1.4250   -3.3669 C   0  0  0  0  0  0  0  0  0  0  0  0
    0.2707    0.5301   -0.0995 H   0  0  0  0  0  0  0  0  0  0  0  0
    1.4873    2.1708   -0.2112 H   0  0  0  0  0  0  0  0  0  0  0  0
    0.1885    1.9780   -3.9254 H   0  0  0  0  0  0  0  0  0  0  0  0
    1.6801    0.8720   -3.9254 H   0  0  0  0  0  0  0  0  0  0  0  0
  1  2  1  0
  1  4  1  0
  2  3  2  0
  5  6  2  0
  5  8  1  0
  5  9  1  0
  6  7  2  0
  7 10  1  0
  7 11  1  0
M  RAD  1   2   2
M  END
>  <reaction>  (15) 
rxn_1836

>  <mol_properties>  (15) 
{"0": {"label": "*0", "atom_type": "S2s"}, "1": {"label": "*1", "atom_type": "CS"}, "4": {"label": "*3", "atom_type": "Ct"}, "5": {"label": "*4", "atom_type": "Ct"}, "7": {"label": "*2", "atom_type": "H0"}}

>  <type>  (15) 
unop_11

>  <geom_source>  (15) 
Heuristics

$$$$

     RDKit          3D

 11  9  0  0  0  0  0  0  0  0999 V2000
   -1.0209   -1.3768   -0.3266 S   0  0  0  0  0  0  0  0  0  0  0  0
   -0.2239   -0.3019    0.7618 C   0  0  0  0  0  3  0  0  0  0  0  0
   -0.2280   -0.3075    2.3735 S   0  0  0  0  0  0  0  0  0  0  0  0
   -1.5937   -2.1492    0.6104 H   0  0  0  0  0  0  0  0  0  0  0  0
    1.1075    1.4936   -0.5827 C   0  0  0  0  0  0  0  0  0  0  0  0
    1.1075    1.4936   -1.8813 C   0  0  0  0  0  0  0  0  0  0  0  0
    1.1075    1.4936   -3.1800 C   0  0  0  0  0  0  0  0  0  0  0  0
    0.4439    0.5987    0.0875 H   0  0  0  0  0  0  0  0  0  0  0  0
    1.6606    2.2393   -0.0242 H   0  0  0  0  0  0  0  0  0  0  0  0
    0.3618    2.0466   -3.7384 H   0  0  0  0  0  0  0  0  0  0  0  0
    1.8533    0.9406   -3.7384 H   0  0  0  0  0  0  0  0  0  0  0  0
  1  2  1  0
  1  4  1  0
  2  3  2  0
  5  6  2  0
  5  8  1  0
  5  9  1  0
  6  7  2  0
  7 10  1  0
  7 11  1  0
M  RAD  1   2   2
M  END
>  <reaction>  (16) 
rxn_1836

>  <mol_properties>  (16) 
{"0": {"label": "*0", "atom_type": "S2s"}, "1": {"label": "*1", "atom_type": "CS"}, "4": {"label": "*3", "atom_type": "Ct"}, "5": {"label": "*4", "atom_type": "Ct"}, "7": {"label": "*2", "atom_type": "H0"}}

>  <type>  (16) 
unop_12

>  <geom_source>  (16) 
Heuristics

$$$$

     RDKit          3D

 11  9  0  0  0  0  0  0  0  0999 V2000
    2.8001    0.9761   -0.3713 S   0  0  0  0  0  0  0  0  0  0  0  0
    2.3780   -1.6826   -1.1306 S   0  0  0  0  0  0  0  0  0  0  0  0
   -2.4416    0.3895   -0.0979 C   0  0  0  0  0  0  0  0  0  0  0  0
    1.9286   -0.5859   -0.3248 C   0  0  0  0  0  3  0  0  0  0  0  0
   -1.3131    0.1193    0.4939 C   0  0  0  0  0  0  0  0  0  0  0  0
   -0.1847   -0.1509    1.0857 C   0  0  0  0  0  0  0  0  0  0  0  0
    0.8403   -0.7361    0.4873 H   0  0  0  0  0  0  0  0  0  0  0  0
   -2.4714    1.1135   -0.9006 H   0  0  0  0  0  0  0  0  0  0  0  0
   -3.3486   -0.1103    0.2136 H   0  0  0  0  0  0  0  0  0  0  0  0
    1.9824    1.4654   -1.4073 H   0  0  0  0  0  0  0  0  0  0  0  0
   -0.1700   -0.7980    1.9521 H   0  0  0  0  0  0  0  0  0  0  0  0
  1  4  1  0
  1 10  1  0
  2  4  2  0
  3  5  2  0
  3  8  1  0
  3  9  1  0
  5  6  2  0
  6  7  1  0
  6 11  1  0
M  RAD  1   4   2
M  END
>  <reaction>  (17) 
rxn_1836

>  <mol_properties>  (17) 
{"0": {"label": "*0", "atom_type": "S2s"}, "1": {"label": "*1", "atom_type": "CS"}, "4": {"label": "*3", "atom_type": "Ct"}, "5": {"label": "*4", "atom_type": "Ct"}, "7": {"label": "*2", "atom_type": "H0"}}

>  <type>  (17) 
unop_13

>  <geom_source>  (17) 
AutoTST

$$$$
