
     RDKit          3D

  7  6  0  0  0  0  0  0  0  0999 V2000
    1.2985   -0.0065   -0.2721 C   0  0  0  0  0  0  0  0  0  0  0  0
    0.0000    0.0000   -0.2926 C   0  0  0  0  0  0  0  0  0  0  0  0
   -1.2985    0.0065   -0.3130 C   0  0  0  0  0  0  0  0  0  0  0  0
    1.8444   -0.7551    0.2895 H   0  0  0  0  0  0  0  0  0  0  0  0
    1.8693    0.7364   -0.8162 H   0  0  0  0  0  0  0  0  0  0  0  0
   -1.8658    0.5623    0.4239 H   0  0  0  0  0  0  0  0  0  0  0  0
   -1.8479   -0.5437   -1.0675 H   0  0  0  0  0  0  0  0  0  0  0  0
  1  2  2  0
  1  4  1  0
  1  5  1  0
  2  3  2  0
  3  6  1  0
  3  7  1  0
M  END
>  <reaction>  (1) 
rxn_1795

>  <mol_properties>  (1) 
{"0": {"label": "donator", "atom_type": "Cd"}, "3": {"label": "d_hydrogen", "atom_type": "H0"}}

>  <type>  (1) 
r1h

$$$$

     RDKit          3D

 11 11  0  0  0  0  0  0  0  0999 V2000
    0.1524   -1.5397    0.0698 C   0  0  0  0  0  3  0  0  0  0  0  0
   -1.1218   -1.0406    0.0516 C   0  0  0  0  0  0  0  0  0  0  0  0
   -1.2464    0.3470   -0.0114 C   0  0  0  0  0  0  0  0  0  0  0  0
   -0.1137    1.1487   -0.0521 C   0  0  0  0  0  0  0  0  0  0  0  0
    1.1542    0.5837   -0.0308 C   0  0  0  0  0  0  0  0  0  0  0  0
    1.3041   -0.8014    0.0319 C   0  0  0  0  0  0  0  0  0  0  0  0
   -1.9955   -1.6793    0.0840 H   0  0  0  0  0  0  0  0  0  0  0  0
   -2.2319    0.7966   -0.0284 H   0  0  0  0  0  0  0  0  0  0  0  0
   -0.2203    2.2248   -0.1009 H   0  0  0  0  0  0  0  0  0  0  0  0
    2.0325    1.2173   -0.0630 H   0  0  0  0  0  0  0  0  0  0  0  0
    2.2862   -1.2570    0.0492 H   0  0  0  0  0  0  0  0  0  0  0  0
  1  2  2  0
  1  6  1  0
  2  3  1  0
  2  7  1  0
  3  4  2  0
  3  8  1  0
  4  5  1  0
  4  9  1  0
  5  6  2  0
  5 10  1  0
  6 11  1  0
M  RAD  1   1   2
M  END
>  <reaction>  (2) 
rxn_1795

>  <mol_properties>  (2) 
{"0": {"label": "acceptor", "atom_type": "Cd"}}

>  <type>  (2) 
r2

$$$$

     RDKit          3D

 12 12  0  0  0  0  0  0  0  0999 V2000
   -1.2385    0.6248   -0.0199 C   0  0  0  0  0  0  0  0  0  0  0  0
   -0.0779    1.3848   -0.0298 C   0  0  0  0  0  0  0  0  0  0  0  0
    1.1605    0.7600   -0.0100 C   0  0  0  0  0  0  0  0  0  0  0  0
    1.2385   -0.6248    0.0199 C   0  0  0  0  0  0  0  0  0  0  0  0
    0.0779   -1.3848    0.0298 C   0  0  0  0  0  0  0  0  0  0  0  0
   -1.1606   -0.7600    0.0100 C   0  0  0  0  0  0  0  0  0  0  0  0
   -2.2052    1.1125   -0.0354 H   0  0  0  0  0  0  0  0  0  0  0  0
   -0.1387    2.4657   -0.0531 H   0  0  0  0  0  0  0  0  0  0  0  0
    2.0664    1.3532   -0.0177 H   0  0  0  0  0  0  0  0  0  0  0  0
    2.2052   -1.1125    0.0354 H   0  0  0  0  0  0  0  0  0  0  0  0
    0.1387   -2.4657    0.0531 H   0  0  0  0  0  0  0  0  0  0  0  0
   -2.0664   -1.3532    0.0177 H   0  0  0  0  0  0  0  0  0  0  0  0
  1  2  2  0
  1  6  1  0
  1  7  1  0
  2  3  1  0
  2  8  1  0
  3  4  2  0
  3  9  1  0
  4  5  1  0
  4 10  1  0
  5  6  2  0
  5 11  1  0
  6 12  1  0
M  END
>  <reaction>  (3) 
rxn_1795

>  <mol_properties>  (3) 
{"0": {"label": "a_hydrogen", "atom_type": "H0"}, "1": {"label": "acceptor", "atom_type": "Cd"}}

>  <type>  (3) 
r2h

$$$$

     RDKit          3D

 18 17  0  0  0  0  0  0  0  0999 V2000
    1.4241    1.9204   -0.8917 C   0  0  0  0  0  0  0  0  0  0  0  0
    1.3284    1.7915   -2.1641 C   0  0  0  0  0  0  0  0  0  0  0  0
    1.1840    1.5967   -3.4499 C   0  0  0  0  0  0  0  0  0  0  0  0
    0.8135    1.0970   -0.1872 H   0  0  0  0  0  0  0  0  0  0  0  0
    1.9775    2.6667   -0.3398 H   0  0  0  0  0  0  0  0  0  0  0  0
    0.3825    2.0751   -3.9995 H   0  0  0  0  0  0  0  0  0  0  0  0
    1.8745    0.9687   -3.9996 H   0  0  0  0  0  0  0  0  0  0  0  0
    0.0706    0.0952    0.5149 C   0  0  0  0  0  3  0  0  0  0  0  0
   -0.5965   -0.8044   -0.2813 C   0  0  0  0  0  0  0  0  0  0  0  0
   -1.3364   -1.8022    0.3452 C   0  0  0  0  0  0  0  0  0  0  0  0
   -1.3832   -1.8654    1.7313 C   0  0  0  0  0  0  0  0  0  0  0  0
   -0.6958   -0.9383    2.5024 C   0  0  0  0  0  0  0  0  0  0  0  0
    0.0483    0.0652    1.8891 C   0  0  0  0  0  0  0  0  0  0  0  0
   -0.5468   -0.7375   -1.3618 H   0  0  0  0  0  0  0  0  0  0  0  0
   -1.8754   -2.5291   -0.2500 H   0  0  0  0  0  0  0  0  0  0  0  0
   -1.9603   -2.6435    2.2146 H   0  0  0  0  0  0  0  0  0  0  0  0
   -0.7373   -0.9942    3.5834 H   0  0  0  0  0  0  0  0  0  0  0  0
    0.5889    0.7942    2.4803 H   0  0  0  0  0  0  0  0  0  0  0  0
  1  2  2  0
  1  4  1  0
  1  5  1  0
  2  3  2  0
  3  6  1  0
  3  7  1  0
  8  9  2  0
  8 13  1  0
  9 10  1  0
  9 14  1  0
 10 11  2  0
 10 15  1  0
 11 12  1  0
 11 16  1  0
 12 13  2  0
 12 17  1  0
 13 18  1  0
M  RAD  1   8   2
M  END
>  <reaction>  (4) 
rxn_1795

>  <mol_properties>  (4) 
{"0": {"label": "*1", "atom_type": "Cd"}, "1": {"label": "*0", "atom_type": "Cdd"}, "3": {"label": "*2", "atom_type": "H0"}, "7": {"label": "*3", "atom_type": "Cd"}, "8": {"label": "*4", "atom_type": "Cd"}}

>  <type>  (4) 
ts

$$$$

     RDKit          3D

 18 17  0  0  0  0  0  0  0  0999 V2000
    1.2255    1.3450   -1.2881 C   0  0  0  0  0  0  0  0  0  0  0  0
    1.2255    1.3450   -2.5867 C   0  0  0  0  0  0  0  0  0  0  0  0
    1.2255    1.3450   -3.8854 C   0  0  0  0  0  3  0  0  0  0  0  0
    0.5619    0.4501   -0.6180 H   0  0  0  0  0  0  0  0  0  0  0  0
    1.7785    2.0908   -0.7296 H   0  0  0  0  0  0  0  0  0  0  0  0
    0.4797    1.8980   -4.4438 H   0  0  0  0  0  0  0  0  0  0  0  0
    1.9712    0.7920   -4.4438 H   0  0  0  0  0  0  0  0  0  0  0  0
   -0.1014   -0.4443    0.0518 C   0  0  0  0  0  0  0  0  0  0  0  0
    0.5647   -1.2928    0.9241 C   0  0  0  0  0  0  0  0  0  0  0  0
    0.0429   -1.5397    2.1856 C   0  0  0  0  0  0  0  0  0  0  0  0
   -1.1450   -0.9381    2.5748 C   0  0  0  0  0  0  0  0  0  0  0  0
   -1.8111   -0.0896    1.7025 C   0  0  0  0  0  0  0  0  0  0  0  0
   -1.2893    0.1573    0.4410 C   0  0  0  0  0  0  0  0  0  0  0  0
    1.4920   -1.7624    0.6203 H   0  0  0  0  0  0  0  0  0  0  0  0
    0.5629   -2.2020    2.8665 H   0  0  0  0  0  0  0  0  0  0  0  0
   -1.5523   -1.1308    3.5594 H   0  0  0  0  0  0  0  0  0  0  0  0
   -2.7383    0.3800    2.0062 H   0  0  0  0  0  0  0  0  0  0  0  0
   -1.8093    0.8196   -0.2399 H   0  0  0  0  0  0  0  0  0  0  0  0
  1  2  3  0
  1  5  1  0
  2  3  1  0
  3  6  1  0
  3  7  1  0
  4  8  1  0
  8  9  2  0
  8 13  1  0
  9 10  1  0
  9 14  1  0
 10 11  2  0
 10 15  1  0
 11 12  1  0
 11 16  1  0
 12 13  2  0
 12 17  1  0
 13 18  1  0
M  RAD  1   3   2
M  END
>  <reaction>  (5) 
rxn_1795

>  <mol_properties>  (5) 
{"0": {"label": "*1", "atom_type": "Cd"}, "1": {"label": "*0", "atom_type": "Cdd"}, "3": {"label": "*2", "atom_type": "H0"}, "7": {"label": "*3", "atom_type": "Cd"}, "8": {"label": "*4", "atom_type": "Cd"}}

>  <type>  (5) 
unop_1

>  <geom_source>  (5) 
Heuristics

$$$$

     RDKit          3D

 18 17  0  0  0  0  0  0  0  0999 V2000
    1.1213    1.8878   -0.9944 C   0  0  0  0  0  0  0  0  0  0  0  0
    1.1213    1.8878   -2.2930 C   0  0  0  0  0  0  0  0  0  0  0  0
    1.1213    1.8878   -3.5917 C   0  0  0  0  0  3  0  0  0  0  0  0
    0.4577    0.9929   -0.3243 H   0  0  0  0  0  0  0  0  0  0  0  0
    1.6743    2.6335   -0.4360 H   0  0  0  0  0  0  0  0  0  0  0  0
    0.3756    2.4408   -4.1501 H   0  0  0  0  0  0  0  0  0  0  0  0
    1.8671    1.3348   -4.1501 H   0  0  0  0  0  0  0  0  0  0  0  0
   -0.2055    0.0984    0.3455 C   0  0  0  0  0  0  0  0  0  0  0  0
   -0.3965   -1.1676   -0.1886 C   0  0  0  0  0  0  0  0  0  0  0  0
   -0.7636   -2.2205    0.6367 C   0  0  0  0  0  0  0  0  0  0  0  0
   -0.9398   -2.0074    1.9962 C   0  0  0  0  0  0  0  0  0  0  0  0
   -0.7489   -0.7413    2.5303 C   0  0  0  0  0  0  0  0  0  0  0  0
   -0.3817    0.3116    1.7049 C   0  0  0  0  0  0  0  0  0  0  0  0
   -0.2590   -1.3340   -1.2498 H   0  0  0  0  0  0  0  0  0  0  0  0
   -0.9127   -3.2087    0.2199 H   0  0  0  0  0  0  0  0  0  0  0  0
   -1.2264   -2.8292    2.6404 H   0  0  0  0  0  0  0  0  0  0  0  0
   -0.8864   -0.5749    3.5914 H   0  0  0  0  0  0  0  0  0  0  0  0
   -0.2327    1.2998    2.1218 H   0  0  0  0  0  0  0  0  0  0  0  0
  1  2  3  0
  1  5  1  0
  2  3  1  0
  3  6  1  0
  3  7  1  0
  4  8  1  0
  8  9  2  0
  8 13  1  0
  9 10  1  0
  9 14  1  0
 10 11  2  0
 10 15  1  0
 11 12  1  0
 11 16  1  0
 12 13  2  0
 12 17  1  0
 13 18  1  0
M  RAD  1   3   2
M  END
>  <reaction>  (6) 
rxn_1795

>  <mol_properties>  (6) 
{"0": {"label": "*1", "atom_type": "Cd"}, "1": {"label": "*0", "atom_type": "Cdd"}, "3": {"label": "*2", "atom_type": "H0"}, "7": {"label": "*3", "atom_type": "Cd"}, "8": {"label": "*4", "atom_type": "Cd"}}

>  <type>  (6) 
unop_2

>  <geom_source>  (6) 
Heuristics

$$$$

     RDKit          3D

 18 17  0  0  0  0  0  0  0  0999 V2000
    1.4889    1.3835   -1.1115 C   0  0  0  0  0  0  0  0  0  0  0  0
    1.4889    1.3835   -2.4102 C   0  0  0  0  0  0  0  0  0  0  0  0
    1.4889    1.3835   -3.7088 C   0  0  0  0  0  3  0  0  0  0  0  0
    0.8253    0.4886   -0.4414 H   0  0  0  0  0  0  0  0  0  0  0  0
    2.0419    2.1292   -0.5531 H   0  0  0  0  0  0  0  0  0  0  0  0
    0.7432    1.9365   -4.2673 H   0  0  0  0  0  0  0  0  0  0  0  0
    2.2347    0.8305   -4.2673 H   0  0  0  0  0  0  0  0  0  0  0  0
    0.1620   -0.4059    0.2284 C   0  0  0  0  0  0  0  0  0  0  0  0
    0.6100   -0.8104    1.4775 C   0  0  0  0  0  0  0  0  0  0  0  0
   -0.3031   -1.1143    2.4768 C   0  0  0  0  0  0  0  0  0  0  0  0
   -1.6640   -1.0138    2.2269 C   0  0  0  0  0  0  0  0  0  0  0  0
   -2.1118   -0.6093    0.9778 C   0  0  0  0  0  0  0  0  0  0  0  0
   -1.1989   -0.3054   -0.0215 C   0  0  0  0  0  0  0  0  0  0  0  0
    1.6722   -0.8888    1.6725 H   0  0  0  0  0  0  0  0  0  0  0  0
    0.0465   -1.4301    3.4518 H   0  0  0  0  0  0  0  0  0  0  0  0
   -2.3766   -1.2511    3.0070 H   0  0  0  0  0  0  0  0  0  0  0  0
   -3.1741   -0.5309    0.7828 H   0  0  0  0  0  0  0  0  0  0  0  0
   -1.5485    0.0104   -0.9965 H   0  0  0  0  0  0  0  0  0  0  0  0
  1  2  3  0
  1  5  1  0
  2  3  1  0
  3  6  1  0
  3  7  1  0
  4  8  1  0
  8  9  2  0
  8 13  1  0
  9 10  1  0
  9 14  1  0
 10 11  2  0
 10 15  1  0
 11 12  1  0
 11 16  1  0
 12 13  2  0
 12 17  1  0
 13 18  1  0
M  RAD  1   3   2
M  END
>  <reaction>  (7) 
rxn_1795

>  <mol_properties>  (7) 
{"0": {"label": "*1", "atom_type": "Cd"}, "1": {"label": "*0", "atom_type": "Cdd"}, "3": {"label": "*2", "atom_type": "H0"}, "7": {"label": "*3", "atom_type": "Cd"}, "8": {"label": "*4", "atom_type": "Cd"}}

>  <type>  (7) 
unop_3

>  <geom_source>  (7) 
Heuristics

$$$$

     RDKit          3D

 18 17  0  0  0  0  0  0  0  0999 V2000
    1.4073    1.4455   -1.1578 C   0  0  0  0  0  0  0  0  0  0  0  0
    1.4073    1.4455   -2.4565 C   0  0  0  0  0  0  0  0  0  0  0  0
    1.4073    1.4455   -3.7552 C   0  0  0  0  0  3  0  0  0  0  0  0
    0.7437    0.5506   -0.4877 H   0  0  0  0  0  0  0  0  0  0  0  0
    1.9603    2.1912   -0.5994 H   0  0  0  0  0  0  0  0  0  0  0  0
    0.6615    1.9985   -4.3136 H   0  0  0  0  0  0  0  0  0  0  0  0
    2.1530    0.8925   -4.3136 H   0  0  0  0  0  0  0  0  0  0  0  0
    0.0804   -0.3439    0.1820 C   0  0  0  0  0  0  0  0  0  0  0  0
   -1.2938   -0.4503    0.0248 C   0  0  0  0  0  0  0  0  0  0  0  0
   -2.0856   -0.8463    1.0929 C   0  0  0  0  0  0  0  0  0  0  0  0
   -1.5032   -1.1360    2.3182 C   0  0  0  0  0  0  0  0  0  0  0  0
   -0.1289   -1.0296    2.4754 C   0  0  0  0  0  0  0  0  0  0  0  0
    0.6629   -0.6335    1.4074 C   0  0  0  0  0  0  0  0  0  0  0  0
   -1.7485   -0.2242   -0.9317 H   0  0  0  0  0  0  0  0  0  0  0  0
   -3.1583   -0.9294    0.9701 H   0  0  0  0  0  0  0  0  0  0  0  0
   -2.1212   -1.4451    3.1519 H   0  0  0  0  0  0  0  0  0  0  0  0
    0.3257   -1.2557    3.4319 H   0  0  0  0  0  0  0  0  0  0  0  0
    1.7356   -0.5505    1.5301 H   0  0  0  0  0  0  0  0  0  0  0  0
  1  2  3  0
  1  5  1  0
  2  3  1  0
  3  6  1  0
  3  7  1  0
  4  8  1  0
  8  9  2  0
  8 13  1  0
  9 10  1  0
  9 14  1  0
 10 11  2  0
 10 15  1  0
 11 12  1  0
 11 16  1  0
 12 13  2  0
 12 17  1  0
 13 18  1  0
M  RAD  1   3   2
M  END
>  <reaction>  (8) 
rxn_1795

>  <mol_properties>  (8) 
{"0": {"label": "*1", "atom_type": "Cd"}, "1": {"label": "*0", "atom_type": "Cdd"}, "3": {"label": "*2", "atom_type": "H0"}, "7": {"label": "*3", "atom_type": "Cd"}, "8": {"label": "*4", "atom_type": "Cd"}}

>  <type>  (8) 
unop_4

>  <geom_source>  (8) 
Heuristics

$$$$

     RDKit          3D

 18 17  0  0  0  0  0  0  0  0999 V2000
    1.3509    1.8218   -0.9201 C   0  0  0  0  0  0  0  0  0  0  0  0
    1.3509    1.8218   -2.2188 C   0  0  0  0  0  0  0  0  0  0  0  0
    1.3509    1.8218   -3.5174 C   0  0  0  0  0  3  0  0  0  0  0  0
    0.6873    0.9269   -0.2500 H   0  0  0  0  0  0  0  0  0  0  0  0
    1.9040    2.5676   -0.3617 H   0  0  0  0  0  0  0  0  0  0  0  0
    0.6052    2.3748   -4.0758 H   0  0  0  0  0  0  0  0  0  0  0  0
    2.0967    1.2688   -4.0759 H   0  0  0  0  0  0  0  0  0  0  0  0
    0.0241    0.0325    0.4198 C   0  0  0  0  0  0  0  0  0  0  0  0
    0.0389    0.0524    1.8068 C   0  0  0  0  0  0  0  0  0  0  0  0
   -0.6692   -0.9025    2.5219 C   0  0  0  0  0  0  0  0  0  0  0  0
   -1.3922   -1.8774    1.8498 C   0  0  0  0  0  0  0  0  0  0  0  0
   -1.4069   -1.8973    0.4628 C   0  0  0  0  0  0  0  0  0  0  0  0
   -0.6988   -0.9424   -0.2523 C   0  0  0  0  0  0  0  0  0  0  0  0
    0.6031    0.8134    2.3314 H   0  0  0  0  0  0  0  0  0  0  0  0
   -0.6577   -0.8869    3.6045 H   0  0  0  0  0  0  0  0  0  0  0  0
   -1.9449   -2.6228    2.4080 H   0  0  0  0  0  0  0  0  0  0  0  0
   -1.9712   -2.6583   -0.0618 H   0  0  0  0  0  0  0  0  0  0  0  0
   -0.7104   -0.9580   -1.3350 H   0  0  0  0  0  0  0  0  0  0  0  0
  1  2  3  0
  1  5  1  0
  2  3  1  0
  3  6  1  0
  3  7  1  0
  4  8  1  0
  8  9  2  0
  8 13  1  0
  9 10  1  0
  9 14  1  0
 10 11  2  0
 10 15  1  0
 11 12  1  0
 11 16  1  0
 12 13  2  0
 12 17  1  0
 13 18  1  0
M  RAD  1   3   2
M  END
>  <reaction>  (9) 
rxn_1795

>  <mol_properties>  (9) 
{"0": {"label": "*1", "atom_type": "Cd"}, "1": {"label": "*0", "atom_type": "Cdd"}, "3": {"label": "*2", "atom_type": "H0"}, "7": {"label": "*3", "atom_type": "Cd"}, "8": {"label": "*4", "atom_type": "Cd"}}

>  <type>  (9) 
unop_5

>  <geom_source>  (9) 
Heuristics

$$$$

     RDKit          3D

 18 17  0  0  0  0  0  0  0  0999 V2000
    1.1777    1.4167   -1.2894 C   0  0  0  0  0  0  0  0  0  0  0  0
    1.1777    1.4167   -2.5881 C   0  0  0  0  0  0  0  0  0  0  0  0
    1.1777    1.4167   -3.8868 C   0  0  0  0  0  3  0  0  0  0  0  0
    0.5141    0.5218   -0.6193 H   0  0  0  0  0  0  0  0  0  0  0  0
    1.7307    2.1625   -0.7310 H   0  0  0  0  0  0  0  0  0  0  0  0
    0.4319    1.9697   -4.4452 H   0  0  0  0  0  0  0  0  0  0  0  0
    1.9235    0.8637   -4.4452 H   0  0  0  0  0  0  0  0  0  0  0  0
   -0.1492   -0.3726    0.0504 C   0  0  0  0  0  0  0  0  0  0  0  0
   -1.4683   -0.1345    0.4079 C   0  0  0  0  0  0  0  0  0  0  0  0
   -1.9191   -0.4878    1.6715 C   0  0  0  0  0  0  0  0  0  0  0  0
   -1.0509   -1.0793    2.5775 C   0  0  0  0  0  0  0  0  0  0  0  0
    0.2682   -1.3175    2.2199 C   0  0  0  0  0  0  0  0  0  0  0  0
    0.7191   -0.9642    0.9564 C   0  0  0  0  0  0  0  0  0  0  0  0
   -2.1460    0.3273   -0.2992 H   0  0  0  0  0  0  0  0  0  0  0  0
   -2.9487   -0.3019    1.9505 H   0  0  0  0  0  0  0  0  0  0  0  0
   -1.4028   -1.3551    3.5637 H   0  0  0  0  0  0  0  0  0  0  0  0
    0.9460   -1.7792    2.9271 H   0  0  0  0  0  0  0  0  0  0  0  0
    1.7487   -1.1501    0.6773 H   0  0  0  0  0  0  0  0  0  0  0  0
  1  2  3  0
  1  5  1  0
  2  3  1  0
  3  6  1  0
  3  7  1  0
  4  8  1  0
  8  9  2  0
  8 13  1  0
  9 10  1  0
  9 14  1  0
 10 11  2  0
 10 15  1  0
 11 12  1  0
 11 16  1  0
 12 13  2  0
 12 17  1  0
 13 18  1  0
M  RAD  1   3   2
M  END
>  <reaction>  (10) 
rxn_1795

>  <mol_properties>  (10) 
{"0": {"label": "*1", "atom_type": "Cd"}, "1": {"label": "*0", "atom_type": "Cdd"}, "3": {"label": "*2", "atom_type": "H0"}, "7": {"label": "*3", "atom_type": "Cd"}, "8": {"label": "*4", "atom_type": "Cd"}}

>  <type>  (10) 
unop_6

>  <geom_source>  (10) 
Heuristics

$$$$

     RDKit          3D

 18 17  0  0  0  0  0  0  0  0999 V2000
    0.9311    1.5633   -1.2881 C   0  0  0  0  0  0  0  0  0  0  0  0
    0.9311    1.5633   -2.5867 C   0  0  0  0  0  0  0  0  0  0  0  0
    0.9311    1.5633   -3.8854 C   0  0  0  0  0  3  0  0  0  0  0  0
    0.2675    0.6684   -0.6180 H   0  0  0  0  0  0  0  0  0  0  0  0
    1.4842    2.3091   -0.7296 H   0  0  0  0  0  0  0  0  0  0  0  0
    0.1854    2.1163   -4.4438 H   0  0  0  0  0  0  0  0  0  0  0  0
    1.6769    1.0103   -4.4438 H   0  0  0  0  0  0  0  0  0  0  0  0
   -0.3957   -0.2261    0.0518 C   0  0  0  0  0  0  0  0  0  0  0  0
   -1.4011    0.1649    0.9241 C   0  0  0  0  0  0  0  0  0  0  0  0
   -1.4858   -0.4061    2.1856 C   0  0  0  0  0  0  0  0  0  0  0  0
   -0.5651   -1.3681    2.5748 C   0  0  0  0  0  0  0  0  0  0  0  0
    0.4403   -1.7591    1.7025 C   0  0  0  0  0  0  0  0  0  0  0  0
    0.5250   -1.1881    0.4410 C   0  0  0  0  0  0  0  0  0  0  0  0
   -2.1198    0.9158    0.6203 H   0  0  0  0  0  0  0  0  0  0  0  0
   -2.2705   -0.1009    2.8665 H   0  0  0  0  0  0  0  0  0  0  0  0
   -0.6312   -1.8138    3.5594 H   0  0  0  0  0  0  0  0  0  0  0  0
    1.1589   -2.5100    2.0062 H   0  0  0  0  0  0  0  0  0  0  0  0
    1.3097   -1.4933   -0.2399 H   0  0  0  0  0  0  0  0  0  0  0  0
  1  2  3  0
  1  5  1  0
  2  3  1  0
  3  6  1  0
  3  7  1  0
  4  8  1  0
  8  9  2  0
  8 13  1  0
  9 10  1  0
  9 14  1  0
 10 11  2  0
 10 15  1  0
 11 12  1  0
 11 16  1  0
 12 13  2  0
 12 17  1  0
 13 18  1  0
M  RAD  1   3   2
M  END
>  <reaction>  (11) 
rxn_1795

>  <mol_properties>  (11) 
{"0": {"label": "*1", "atom_type": "Cd"}, "1": {"label": "*0", "atom_type": "Cdd"}, "3": {"label": "*2", "atom_type": "H0"}, "7": {"label": "*3", "atom_type": "Cd"}, "8": {"label": "*4", "atom_type": "Cd"}}

>  <type>  (11) 
unop_7

>  <geom_source>  (11) 
Heuristics

$$$$

     RDKit          3D

 18 17  0  0  0  0  0  0  0  0999 V2000
    1.0136    1.5384   -1.2894 C   0  0  0  0  0  0  0  0  0  0  0  0
    1.0136    1.5384   -2.5881 C   0  0  0  0  0  0  0  0  0  0  0  0
    1.0136    1.5384   -3.8868 C   0  0  0  0  0  3  0  0  0  0  0  0
    0.3500    0.6435   -0.6193 H   0  0  0  0  0  0  0  0  0  0  0  0
    1.5666    2.2841   -0.7310 H   0  0  0  0  0  0  0  0  0  0  0  0
    0.2679    2.0914   -4.4452 H   0  0  0  0  0  0  0  0  0  0  0  0
    1.7594    0.9854   -4.4452 H   0  0  0  0  0  0  0  0  0  0  0  0
   -0.3133   -0.2510    0.0504 C   0  0  0  0  0  0  0  0  0  0  0  0
    0.2978   -1.4440    0.4079 C   0  0  0  0  0  0  0  0  0  0  0  0
    0.0906   -1.9781    1.6715 C   0  0  0  0  0  0  0  0  0  0  0  0
   -0.7276   -1.3190    2.5775 C   0  0  0  0  0  0  0  0  0  0  0  0
   -1.3386   -0.1259    2.2199 C   0  0  0  0  0  0  0  0  0  0  0  0
   -1.1314    0.4081    0.9564 C   0  0  0  0  0  0  0  0  0  0  0  0
    0.9364   -1.9585   -0.2992 H   0  0  0  0  0  0  0  0  0  0  0  0
    0.5675   -2.9093    1.9505 H   0  0  0  0  0  0  0  0  0  0  0  0
   -0.8893   -1.7359    3.5637 H   0  0  0  0  0  0  0  0  0  0  0  0
   -1.9772    0.3885    2.9271 H   0  0  0  0  0  0  0  0  0  0  0  0
   -1.6084    1.3394    0.6773 H   0  0  0  0  0  0  0  0  0  0  0  0
  1  2  3  0
  1  5  1  0
  2  3  1  0
  3  6  1  0
  3  7  1  0
  4  8  1  0
  8  9  2  0
  8 13  1  0
  9 10  1  0
  9 14  1  0
 10 11  2  0
 10 15  1  0
 11 12  1  0
 11 16  1  0
 12 13  2  0
 12 17  1  0
 13 18  1  0
M  RAD  1   3   2
M  END
>  <reaction>  (12) 
rxn_1795

>  <mol_properties>  (12) 
{"0": {"label": "*1", "atom_type": "Cd"}, "1": {"label": "*0", "atom_type": "Cdd"}, "3": {"label": "*2", "atom_type": "H0"}, "7": {"label": "*3", "atom_type": "Cd"}, "8": {"label": "*4", "atom_type": "Cd"}}

>  <type>  (12) 
unop_8

>  <geom_source>  (12) 
Heuristics

$$$$

     RDKit          3D

 18 17  0  0  0  0  0  0  0  0999 V2000
    1.4807    1.6213   -0.9944 C   0  0  0  0  0  0  0  0  0  0  0  0
    1.4807    1.6213   -2.2930 C   0  0  0  0  0  0  0  0  0  0  0  0
    1.4807    1.6213   -3.5917 C   0  0  0  0  0  3  0  0  0  0  0  0
    0.8171    0.7263   -0.3243 H   0  0  0  0  0  0  0  0  0  0  0  0
    2.0338    2.3670   -0.4360 H   0  0  0  0  0  0  0  0  0  0  0  0
    0.7350    2.1743   -4.1501 H   0  0  0  0  0  0  0  0  0  0  0  0
    2.2265    1.0683   -4.1501 H   0  0  0  0  0  0  0  0  0  0  0  0
    0.1539   -0.1681    0.3455 C   0  0  0  0  0  0  0  0  0  0  0  0
   -1.0021   -0.7185   -0.1886 C   0  0  0  0  0  0  0  0  0  0  0  0
   -1.9030   -1.3756    0.6367 C   0  0  0  0  0  0  0  0  0  0  0  0
   -1.6479   -1.4823    1.9962 C   0  0  0  0  0  0  0  0  0  0  0  0
   -0.4919   -0.9319    2.5303 C   0  0  0  0  0  0  0  0  0  0  0  0
    0.4090   -0.2748    1.7049 C   0  0  0  0  0  0  0  0  0  0  0  0
   -1.2013   -0.6352   -1.2498 H   0  0  0  0  0  0  0  0  0  0  0  0
   -2.8053   -1.8052    0.2199 H   0  0  0  0  0  0  0  0  0  0  0  0
   -2.3511   -1.9952    2.6404 H   0  0  0  0  0  0  0  0  0  0  0  0
   -0.2927   -1.0151    3.5914 H   0  0  0  0  0  0  0  0  0  0  0  0
    1.3114    0.1549    2.1218 H   0  0  0  0  0  0  0  0  0  0  0  0
  1  2  3  0
  1  5  1  0
  2  3  1  0
  3  6  1  0
  3  7  1  0
  4  8  1  0
  8  9  2  0
  8 13  1  0
  9 10  1  0
  9 14  1  0
 10 11  2  0
 10 15  1  0
 11 12  1  0
 11 16  1  0
 12 13  2  0
 12 17  1  0
 13 18  1  0
M  RAD  1   3   2
M  END
>  <reaction>  (13) 
rxn_1795

>  <mol_properties>  (13) 
{"0": {"label": "*1", "atom_type": "Cd"}, "1": {"label": "*0", "atom_type": "Cdd"}, "3": {"label": "*2", "atom_type": "H0"}, "7": {"label": "*3", "atom_type": "Cd"}, "8": {"label": "*4", "atom_type": "Cd"}}

>  <type>  (13) 
unop_9

>  <geom_source>  (13) 
Heuristics

$$$$

     RDKit          3D

 18 17  0  0  0  0  0  0  0  0999 V2000
    0.9745    1.7664   -1.1578 C   0  0  0  0  0  0  0  0  0  0  0  0
    0.9745    1.7664   -2.4565 C   0  0  0  0  0  0  0  0  0  0  0  0
    0.9745    1.7664   -3.7552 C   0  0  0  0  0  3  0  0  0  0  0  0
    0.3109    0.8715   -0.4877 H   0  0  0  0  0  0  0  0  0  0  0  0
    1.5275    2.5122   -0.5994 H   0  0  0  0  0  0  0  0  0  0  0  0
    0.2287    2.3194   -4.3136 H   0  0  0  0  0  0  0  0  0  0  0  0
    1.7202    1.2134   -4.3136 H   0  0  0  0  0  0  0  0  0  0  0  0
   -0.3524   -0.0229    0.1820 C   0  0  0  0  0  0  0  0  0  0  0  0
   -0.0551   -1.3688    0.0248 C   0  0  0  0  0  0  0  0  0  0  0  0
   -0.2042   -2.2415    1.0929 C   0  0  0  0  0  0  0  0  0  0  0  0
   -0.6505   -1.7683    2.3182 C   0  0  0  0  0  0  0  0  0  0  0  0
   -0.9478   -0.4224    2.4754 C   0  0  0  0  0  0  0  0  0  0  0  0
   -0.7987    0.4503    1.4074 C   0  0  0  0  0  0  0  0  0  0  0  0
    0.2933   -1.7382   -0.9317 H   0  0  0  0  0  0  0  0  0  0  0  0
    0.0279   -3.2920    0.9701 H   0  0  0  0  0  0  0  0  0  0  0  0
   -0.7668   -2.4495    3.1519 H   0  0  0  0  0  0  0  0  0  0  0  0
   -1.2961   -0.0530    3.4319 H   0  0  0  0  0  0  0  0  0  0  0  0
   -1.0308    1.5009    1.5301 H   0  0  0  0  0  0  0  0  0  0  0  0
  1  2  3  0
  1  5  1  0
  2  3  1  0
  3  6  1  0
  3  7  1  0
  4  8  1  0
  8  9  2  0
  8 13  1  0
  9 10  1  0
  9 14  1  0
 10 11  2  0
 10 15  1  0
 11 12  1  0
 11 16  1  0
 12 13  2  0
 12 17  1  0
 13 18  1  0
M  RAD  1   3   2
M  END
>  <reaction>  (14) 
rxn_1795

>  <mol_properties>  (14) 
{"0": {"label": "*1", "atom_type": "Cd"}, "1": {"label": "*0", "atom_type": "Cdd"}, "3": {"label": "*2", "atom_type": "H0"}, "7": {"label": "*3", "atom_type": "Cd"}, "8": {"label": "*4", "atom_type": "Cd"}}

>  <type>  (14) 
unop_10

>  <geom_source>  (14) 
Heuristics

$$$$

     RDKit          3D

 18 17  0  0  0  0  0  0  0  0999 V2000
    0.8914    1.8265   -1.1115 C   0  0  0  0  0  0  0  0  0  0  0  0
    0.8914    1.8265   -2.4102 C   0  0  0  0  0  0  0  0  0  0  0  0
    0.8914    1.8265   -3.7088 C   0  0  0  0  0  3  0  0  0  0  0  0
    0.2278    0.9316   -0.4414 H   0  0  0  0  0  0  0  0  0  0  0  0
    1.4444    2.5723   -0.5531 H   0  0  0  0  0  0  0  0  0  0  0  0
    0.1457    2.3795   -4.2673 H   0  0  0  0  0  0  0  0  0  0  0  0
    1.6372    1.2735   -4.2673 H   0  0  0  0  0  0  0  0  0  0  0  0
   -0.4354    0.0372    0.2284 C   0  0  0  0  0  0  0  0  0  0  0  0
   -0.9526    0.3483    1.4775 C   0  0  0  0  0  0  0  0  0  0  0  0
   -0.9783   -0.6136    2.4768 C   0  0  0  0  0  0  0  0  0  0  0  0
   -0.4869   -1.8867    2.2269 C   0  0  0  0  0  0  0  0  0  0  0  0
    0.0303   -2.1978    0.9778 C   0  0  0  0  0  0  0  0  0  0  0  0
    0.0560   -1.2359   -0.0215 C   0  0  0  0  0  0  0  0  0  0  0  0
   -1.3362    1.3420    1.6725 H   0  0  0  0  0  0  0  0  0  0  0  0
   -1.3819   -0.3708    3.4518 H   0  0  0  0  0  0  0  0  0  0  0  0
   -0.5070   -2.6375    3.0070 H   0  0  0  0  0  0  0  0  0  0  0  0
    0.4138   -3.1915    0.7828 H   0  0  0  0  0  0  0  0  0  0  0  0
    0.4596   -1.4787   -0.9965 H   0  0  0  0  0  0  0  0  0  0  0  0
  1  2  3  0
  1  5  1  0
  2  3  1  0
  3  6  1  0
  3  7  1  0
  4  8  1  0
  8  9  2  0
  8 13  1  0
  9 10  1  0
  9 14  1  0
 10 11  2  0
 10 15  1  0
 11 12  1  0
 11 16  1  0
 12 13  2  0
 12 17  1  0
 13 18  1  0
M  RAD  1   3   2
M  END
>  <reaction>  (15) 
rxn_1795

>  <mol_properties>  (15) 
{"0": {"label": "*1", "atom_type": "Cd"}, "1": {"label": "*0", "atom_type": "Cdd"}, "3": {"label": "*2", "atom_type": "H0"}, "7": {"label": "*3", "atom_type": "Cd"}, "8": {"label": "*4", "atom_type": "Cd"}}

>  <type>  (15) 
unop_11

>  <geom_source>  (15) 
Heuristics

$$$$

     RDKit          3D

 18 17  0  0  0  0  0  0  0  0999 V2000
    1.3509    1.8218   -0.9201 C   0  0  0  0  0  0  0  0  0  0  0  0
    1.3509    1.8218   -2.2188 C   0  0  0  0  0  0  0  0  0  0  0  0
    1.3509    1.8218   -3.5174 C   0  0  0  0  0  3  0  0  0  0  0  0
    0.6873    0.9269   -0.2500 H   0  0  0  0  0  0  0  0  0  0  0  0
    1.9040    2.5676   -0.3617 H   0  0  0  0  0  0  0  0  0  0  0  0
    0.6052    2.3748   -4.0758 H   0  0  0  0  0  0  0  0  0  0  0  0
    2.0967    1.2688   -4.0759 H   0  0  0  0  0  0  0  0  0  0  0  0
    0.0241    0.0325    0.4198 C   0  0  0  0  0  0  0  0  0  0  0  0
   -0.6988   -0.9424   -0.2523 C   0  0  0  0  0  0  0  0  0  0  0  0
   -1.4069   -1.8973    0.4628 C   0  0  0  0  0  0  0  0  0  0  0  0
   -1.3922   -1.8774    1.8498 C   0  0  0  0  0  0  0  0  0  0  0  0
   -0.6692   -0.9025    2.5219 C   0  0  0  0  0  0  0  0  0  0  0  0
    0.0389    0.0524    1.8068 C   0  0  0  0  0  0  0  0  0  0  0  0
   -0.7104   -0.9580   -1.3350 H   0  0  0  0  0  0  0  0  0  0  0  0
   -1.9712   -2.6583   -0.0618 H   0  0  0  0  0  0  0  0  0  0  0  0
   -1.9449   -2.6228    2.4080 H   0  0  0  0  0  0  0  0  0  0  0  0
   -0.6577   -0.8869    3.6045 H   0  0  0  0  0  0  0  0  0  0  0  0
    0.6031    0.8134    2.3314 H   0  0  0  0  0  0  0  0  0  0  0  0
  1  2  3  0
  1  5  1  0
  2  3  1  0
  3  6  1  0
  3  7  1  0
  4  8  1  0
  8  9  2  0
  8 13  1  0
  9 10  1  0
  9 14  1  0
 10 11  2  0
 10 15  1  0
 11 12  1  0
 11 16  1  0
 12 13  2  0
 12 17  1  0
 13 18  1  0
M  RAD  1   3   2
M  END
>  <reaction>  (16) 
rxn_1795

>  <mol_properties>  (16) 
{"0": {"label": "*1", "atom_type": "Cd"}, "1": {"label": "*0", "atom_type": "Cdd"}, "3": {"label": "*2", "atom_type": "H0"}, "7": {"label": "*3", "atom_type": "Cd"}, "8": {"label": "*4", "atom_type": "Cd"}}

>  <type>  (16) 
unop_12

>  <geom_source>  (16) 
Heuristics

$$$$

     RDKit          3D

 18 17  0  0  0  0  0  0  0  0999 V2000
   -1.0271   -1.4253    0.5799 C   0  0  0  0  0  0  0  0  0  0  0  0
   -2.2982   -1.0436    1.0226 C   0  0  0  0  0  0  0  0  0  0  0  0
   -0.2879   -0.5708   -0.2443 C   0  0  0  0  0  0  0  0  0  0  0  0
   -2.8296    0.1930    0.6407 C   0  0  0  0  0  0  0  0  0  0  0  0
   -0.8188    0.6654   -0.6263 C   0  0  0  0  0  0  0  0  0  0  0  0
   -2.0899    1.0476   -0.1839 C   0  0  0  0  0  0  0  0  0  0  0  0
    3.4364    1.3303   -0.3308 C   0  0  0  0  0  3  0  0  0  0  0  0
    2.8271    0.1795   -0.2980 C   0  0  0  0  0  0  0  0  0  0  0  0
    2.2179   -0.9713   -0.2653 C   0  0  0  0  0  0  0  0  0  0  0  0
   -0.6146   -2.3812    0.8744 H   0  0  0  0  0  0  0  0  0  0  0  0
   -2.8703   -1.7048    1.6605 H   0  0  0  0  0  0  0  0  0  0  0  0
    0.8664   -0.9177   -0.6462 H   0  0  0  0  0  0  0  0  0  0  0  0
   -3.8130    0.4885    0.9830 H   0  0  0  0  0  0  0  0  0  0  0  0
   -0.2454    1.3251   -1.2641 H   0  0  0  0  0  0  0  0  0  0  0  0
   -2.5008    2.0043   -0.4796 H   0  0  0  0  0  0  0  0  0  0  0  0
    4.2685    1.4826   -1.0045 H   0  0  0  0  0  0  0  0  0  0  0  0
    3.1104    2.1334    0.3160 H   0  0  0  0  0  0  0  0  0  0  0  0
    2.6688   -1.8352   -0.7342 H   0  0  0  0  0  0  0  0  0  0  0  0
  1  2  2  0
  1  3  1  0
  1 10  1  0
  2  4  1  0
  2 11  1  0
  3  5  2  0
  3 12  1  0
  4  6  2  0
  4 13  1  0
  5  6  1  0
  5 14  1  0
  6 15  1  0
  7  8  1  0
  7 16  1  0
  7 17  1  0
  8  9  3  0
  9 18  1  0
M  RAD  1   7   2
M  END
>  <reaction>  (17) 
rxn_1795

>  <mol_properties>  (17) 
{"0": {"label": "*1", "atom_type": "Cd"}, "1": {"label": "*0", "atom_type": "Cdd"}, "3": {"label": "*2", "atom_type": "H0"}, "7": {"label": "*3", "atom_type": "Cd"}, "8": {"label": "*4", "atom_type": "Cd"}}

>  <type>  (17) 
unop_13

>  <geom_source>  (17) 
AutoTST

$$$$
