
     RDKit          3D

  6  5  0  0  0  0  0  0  0  0999 V2000
   -0.3669    0.0060    0.0609 C   0  0  0  0  0  0  0  0  0  0  0  0
    0.9818   -0.0507    0.4695 O   0  0  0  0  0  0  0  0  0  0  0  0
   -0.6066    0.9462   -0.4488 H   0  0  0  0  0  0  0  0  0  0  0  0
   -0.5221   -0.8115   -0.6420 H   0  0  0  0  0  0  0  0  0  0  0  0
   -1.0602   -0.1268    0.8992 H   0  0  0  0  0  0  0  0  0  0  0  0
    1.1451    0.6595    1.0897 H   0  0  0  0  0  0  0  0  0  0  0  0
  1  2  1  0
  1  3  1  0
  1  4  1  0
  1  5  1  0
  2  6  1  0
M  END
>  <reaction>  (1) 
rxn_191

>  <mol_properties>  (1) 
{"0": {"label": "donator", "atom_type": "Cs"}, "2": {"label": "d_hydrogen", "atom_type": "H0"}}

>  <type>  (1) 
r1h

$$$$

     RDKit          3D

  1  0  0  0  0  0  0  0  0  0999 V2000
    0.0000    0.0000    0.0000 H   0  0  0  0  0 15  0  0  0  0  0  0
M  END
>  <reaction>  (2) 
rxn_191

>  <mol_properties>  (2) 
{"0": {"label": "acceptor", "atom_type": "H0"}}

>  <type>  (2) 
r2

$$$$

     RDKit          3D

  2  1  0  0  0  0  0  0  0  0999 V2000
    0.0000    0.0000    0.3721 H   0  0  0  0  0  0  0  0  0  0  0  0
    0.0000    0.0000   -0.3721 H   0  0  0  0  0  0  0  0  0  0  0  0
  1  2  1  0
M  END
>  <reaction>  (3) 
rxn_191

>  <mol_properties>  (3) 
{"0": {"label": "a_hydrogen", "atom_type": "H0"}, "1": {"label": "acceptor", "atom_type": "H0"}}

>  <type>  (3) 
r2h

$$$$

     RDKit          3D

  7  5  0  0  0  0  0  0  0  0999 V2000
   -0.0282   -0.1040    0.6458 C   0  0  0  0  0  0  0  0  0  0  0  0
   -0.0467   -0.0241   -0.7303 O   0  0  0  0  0  0  0  0  0  0  0  0
   -0.0367    1.0589    1.1646 H   0  0  0  0  0  0  0  0  0  0  0  0
   -0.9490   -0.5634    0.9971 H   0  0  0  0  0  0  0  0  0  0  0  0
    0.8624   -0.5774    1.0683 H   0  0  0  0  0  0  0  0  0  0  0  0
    0.8045    0.2830   -1.0451 H   0  0  0  0  0  0  0  0  0  0  0  0
   -0.0293    2.0083    1.5446 H   0  0  0  0  0 15  0  0  0  0  0  0
  1  2  1  0
  1  3  1  0
  1  4  1  0
  1  5  1  0
  2  6  1  0
M  END
>  <reaction>  (4) 
rxn_191

>  <mol_properties>  (4) 
{"0": {"label": "*3", "atom_type": "Cs"}, "1": {"label": "*4", "atom_type": "O2s"}, "2": {"label": "*2", "atom_type": "H0"}, "6": {"label": "*1", "atom_type": "H0"}}

>  <type>  (4) 
ts

$$$$

     RDKit          3D

  7  5  0  0  0  0  0  0  0  0999 V2000
   -0.0224   -0.0807    0.6722 C   0  0  0  0  0  0  0  0  0  0  0  0
   -0.0224   -0.0807   -0.7381 O   0  0  0  0  0  0  0  0  0  0  0  0
   -0.0224    1.1366    1.1700 H   0  0  0  0  0  0  0  0  0  0  0  0
   -0.9369   -0.5790    0.9914 H   0  0  0  0  0  0  0  0  0  0  0  0
    0.8300   -0.6307    1.0870 H   0  0  0  0  0  0  0  0  0  0  0  0
    0.7735    0.3529   -1.0454 H   0  0  0  0  0  0  0  0  0  0  0  0
   -0.0224    1.9632    1.5079 H   0  0  0  0  0 15  0  0  0  0  0  0
  1  2  1  0
  1  3  1  0
  1  4  1  0
  1  5  1  0
  2  6  1  0
M  END
>  <reaction>  (5) 
rxn_191

>  <mol_properties>  (5) 
{"0": {"label": "*3", "atom_type": "Cs"}, "1": {"label": "*4", "atom_type": "O2s"}, "2": {"label": "*2", "atom_type": "H0"}, "6": {"label": "*1", "atom_type": "H0"}}

>  <type>  (5) 
unop_1

>  <geom_source>  (5) 
Heuristics

$$$$

     RDKit          3D

  7  5  0  0  0  0  0  0  0  0999 V2000
   -1.2495   -0.2661   -0.3650 O   0  0  0  0  0  0  0  0  0  0  0  0
   -0.0643    0.4048   -0.0654 C   0  0  0  0  0  0  0  0  0  0  0  0
    0.0679    1.2530   -0.7682 H   0  0  0  0  0  0  0  0  0  0  0  0
   -0.1080    0.7923    0.9740 H   0  0  0  0  0  0  0  0  0  0  0  0
   -1.0650   -1.2136   -0.1422 H   0  0  0  0  0  0  0  0  0  0  0  0
    1.5817   -0.9248    0.4662 H   0  0  0  0  0 15  0  0  0  0  0  0
    0.8370   -0.0455   -0.0993 H   0  0  0  0  0  0  0  0  0  0  0  0
  1  2  1  0
  1  5  1  0
  2  3  1  0
  2  4  1  0
  2  7  1  0
M  END
>  <reaction>  (6) 
rxn_191

>  <mol_properties>  (6) 
{"0": {"label": "*3", "atom_type": "Cs"}, "1": {"label": "*4", "atom_type": "O2s"}, "2": {"label": "*2", "atom_type": "H0"}, "6": {"label": "*1", "atom_type": "H0"}}

>  <type>  (6) 
unop_2

>  <geom_source>  (6) 
AutoTST

$$$$
