
     RDKit          3D

  2  1  0  0  0  0  0  0  0  0999 V2000
    0.0000    0.0000    0.3721 H   0  0  0  0  0  0  0  0  0  0  0  0
    0.0000    0.0000   -0.3721 H   0  0  0  0  0  0  0  0  0  0  0  0
  1  2  1  0
M  END
>  <reaction>  (1) 
rxn_799

>  <mol_properties>  (1) 
{"0": {"label": "d_hydrogen", "atom_type": "H0"}, "1": {"label": "donator", "atom_type": "H0"}}

>  <type>  (1) 
r1h

$$$$

     RDKit          3D

 14 14  0  0  0  0  0  0  0  0999 V2000
    2.3111    0.1295    0.0255 C   0  0  0  0  0  0  0  0  0  0  0  0
    0.9132    0.0511    0.0101 C   0  0  0  0  0  0  0  0  0  0  0  0
    0.2446   -1.1981    0.0389 C   0  0  0  0  0  3  0  0  0  0  0  0
   -1.1306   -1.2689    0.0235 C   0  0  0  0  0  0  0  0  0  0  0  0
   -1.8967   -0.1062   -0.0209 C   0  0  0  0  0  0  0  0  0  0  0  0
   -1.2644    1.1347   -0.0499 C   0  0  0  0  0  0  0  0  0  0  0  0
    0.1101    1.2180   -0.0350 C   0  0  0  0  0  0  0  0  0  0  0  0
    2.9188   -0.7647    0.0599 H   0  0  0  0  0  0  0  0  0  0  0  0
    2.8158    1.0859    0.0034 H   0  0  0  0  0  0  0  0  0  0  0  0
    0.8353   -2.1058    0.0735 H   0  0  0  0  0  0  0  0  0  0  0  0
   -1.6191   -2.2351    0.0461 H   0  0  0  0  0  0  0  0  0  0  0  0
   -2.9772   -0.1668   -0.0328 H   0  0  0  0  0  0  0  0  0  0  0  0
   -1.8572    2.0404   -0.0845 H   0  0  0  0  0  0  0  0  0  0  0  0
    0.5964    2.1860   -0.0577 H   0  0  0  0  0  0  0  0  0  0  0  0
  1  2  2  3
  1  8  1  0
  1  9  1  0
  2  3  1  0
  2  7  1  0
  3  4  1  0
  3 10  1  0
  4  5  2  0
  4 11  1  0
  5  6  1  0
  5 12  1  0
  6  7  2  0
  6 13  1  0
  7 14  1  0
M  RAD  1   3   2
M  END
>  <reaction>  (2) 
rxn_799

>  <mol_properties>  (2) 
{"0": {"label": "acceptor", "atom_type": "Cs"}}

>  <type>  (2) 
r2

$$$$

     RDKit          3D

 15 15  0  0  0  0  0  0  0  0999 V2000
    2.2031   -0.2111   -0.1693 C   0  0  0  0  0  0  0  0  0  0  0  0
    0.7140   -0.0314   -0.0623 C   0  0  0  0  0  0  0  0  0  0  0  0
   -0.0114    0.5491   -1.0982 C   0  0  0  0  0  0  0  0  0  0  0  0
   -1.3882    0.6886   -1.0150 C   0  0  0  0  0  0  0  0  0  0  0  0
   -2.0661    0.2493    0.1118 C   0  0  0  0  0  0  0  0  0  0  0  0
   -1.3551   -0.3278    1.1528 C   0  0  0  0  0  0  0  0  0  0  0  0
    0.0216   -0.4648    1.0642 C   0  0  0  0  0  0  0  0  0  0  0  0
    2.6776   -0.1836    0.8122 H   0  0  0  0  0  0  0  0  0  0  0  0
    2.4446   -1.1749   -0.6249 H   0  0  0  0  0  0  0  0  0  0  0  0
    2.6532    0.5664   -0.7875 H   0  0  0  0  0  0  0  0  0  0  0  0
    0.5104    0.8989   -1.9819 H   0  0  0  0  0  0  0  0  0  0  0  0
   -1.9328    1.1452   -1.8322 H   0  0  0  0  0  0  0  0  0  0  0  0
   -3.1409    0.3597    0.1800 H   0  0  0  0  0  0  0  0  0  0  0  0
   -1.8736   -0.6702    2.0398 H   0  0  0  0  0  0  0  0  0  0  0  0
    0.5695   -0.9141    1.8849 H   0  0  0  0  0  0  0  0  0  0  0  0
  1  2  1  0
  1  8  1  0
  1  9  1  0
  1 10  1  0
  2  3  2  0
  2  7  1  0
  3  4  1  0
  3 11  1  0
  4  5  2  0
  4 12  1  0
  5  6  1  0
  5 13  1  0
  6  7  2  0
  6 14  1  0
  7 15  1  0
M  END
>  <reaction>  (3) 
rxn_799

>  <mol_properties>  (3) 
{"0": {"label": "acceptor", "atom_type": "Cs"}, "7": {"label": "a_hydrogen", "atom_type": "H0"}}

>  <type>  (3) 
r2h

$$$$

     RDKit          3D

 16 15  0  0  0  0  0  0  0  0999 V2000
    2.0105    0.0930    0.0747 C   0  0  0  0  0  0  0  0  0  0  0  0
    0.5510   -0.0213   -0.1098 C   0  0  0  0  0  0  0  0  0  0  0  0
   -0.1222   -1.1962    0.2264 C   0  0  0  0  0  0  0  0  0  0  0  0
   -0.1964    1.0575   -0.5833 C   0  0  0  0  0  0  0  0  0  0  0  0
   -1.4964   -1.2924    0.0878 C   0  0  0  0  0  0  0  0  0  0  0  0
   -2.2265   -0.2125   -0.3873 C   0  0  0  0  0  0  0  0  0  0  0  0
   -1.5707    0.9633   -0.7227 C   0  0  0  0  0  0  0  0  0  0  0  0
    2.2350    0.5137    1.2249 H   0  0  0  0  0  0  0  0  0  0  0  0
    2.4908    0.8396   -0.5542 H   0  0  0  0  0  0  0  0  0  0  0  0
    2.5466   -0.8535    0.0541 H   0  0  0  0  0  0  0  0  0  0  0  0
    0.4423   -2.0438    0.5979 H   0  0  0  0  0  0  0  0  0  0  0  0
   -2.0004   -2.2141    0.3501 H   0  0  0  0  0  0  0  0  0  0  0  0
   -3.3008   -0.2873   -0.4972 H   0  0  0  0  0  0  0  0  0  0  0  0
   -2.1329    1.8101   -1.0958 H   0  0  0  0  0  0  0  0  0  0  0  0
    0.3098    1.9789   -0.8474 H   0  0  0  0  0  0  0  0  0  0  0  0
    2.4602    0.8649    2.1818 H   0  0  0  0  0 15  0  0  0  0  0  0
  1  2  1  0
  1  8  1  0
  1  9  1  0
  1 10  1  0
  2  3  2  0
  2  4  1  0
  3  5  1  0
  3 11  1  0
  4  7  2  0
  4 15  1  0
  5  6  2  0
  5 12  1  0
  6  7  1  0
  6 13  1  0
  7 14  1  0
M  END
>  <reaction>  (4) 
rxn_799

>  <mol_properties>  (4) 
{"0": {"label": "*3", "atom_type": "Cs"}, "1": {"label": "*4", "atom_type": "Cd"}, "7": {"label": "*2", "atom_type": "H0"}, "15": {"label": "*1", "atom_type": "H0"}}

>  <type>  (4) 
ts

$$$$

     RDKit          3D

 16 15  0  0  0  0  0  0  0  0999 V2000
   -0.0213   -2.2511   -3.0676 H   0  0  0  0  0 15  0  0  0  0  0  0
   -0.0213   -2.2511   -2.1746 H   0  0  0  0  0  0  0  0  0  0  0  0
   -0.0213   -2.2511   -0.8660 C   0  0  0  0  0  0  0  0  0  0  0  0
   -0.0213   -0.8504   -0.3189 C   0  0  0  0  0  0  0  0  0  0  0  0
   -0.5993   -0.5655    0.9144 C   0  0  0  0  0  0  0  0  0  0  0  0
   -0.5743    0.7191    1.4351 C   0  0  0  0  0  0  0  0  0  0  0  0
    0.0308    1.7461    0.7269 C   0  0  0  0  0  0  0  0  0  0  0  0
    0.6075    1.4767   -0.5048 C   0  0  0  0  0  0  0  0  0  0  0  0
    0.5795    0.1902   -1.0206 C   0  0  0  0  0  0  0  0  0  0  0  0
   -0.8934   -2.8102   -0.5250 H   0  0  0  0  0  0  0  0  0  0  0  0
    0.8678   -2.7949   -0.5367 H   0  0  0  0  0  0  0  0  0  0  0  0
   -1.0780   -1.3614    1.4739 H   0  0  0  0  0  0  0  0  0  0  0  0
   -1.0320    0.9189    2.3960 H   0  0  0  0  0  0  0  0  0  0  0  0
    0.0492    2.7505    1.1304 H   0  0  0  0  0  0  0  0  0  0  0  0
    1.0788    2.2721   -1.0688 H   0  0  0  0  0  0  0  0  0  0  0  0
    1.0300   -0.0100   -1.9863 H   0  0  0  0  0  0  0  0  0  0  0  0
  2  3  1  0
  3  4  1  0
  3 10  1  0
  3 11  1  0
  4  5  2  0
  4  9  1  0
  5  6  1  0
  5 12  1  0
  6  7  2  0
  6 13  1  0
  7  8  1  0
  7 14  1  0
  8  9  2  0
  8 15  1  0
  9 16  1  0
M  END
>  <reaction>  (5) 
rxn_799

>  <mol_properties>  (5) 
{"0": {"label": "*3", "atom_type": "Cs"}, "1": {"label": "*4", "atom_type": "Cd"}, "7": {"label": "*2", "atom_type": "H0"}, "15": {"label": "*1", "atom_type": "H0"}}

>  <type>  (5) 
unop_1

>  <geom_source>  (5) 
Heuristics

$$$$

     RDKit          3D

 16 15  0  0  0  0  0  0  0  0999 V2000
    1.9172   -0.6348   -0.0606 C   0  0  0  0  0  0  0  0  0  0  0  0
    0.4751   -0.2235   -0.0018 C   0  0  0  0  0  0  0  0  0  0  0  0
    0.0046    0.8299   -0.8038 C   0  0  0  0  0  0  0  0  0  0  0  0
   -0.4303   -0.9331    0.8041 C   0  0  0  0  0  0  0  0  0  0  0  0
   -1.3474    1.1867   -0.7751 C   0  0  0  0  0  0  0  0  0  0  0  0
   -1.7816   -0.5730    0.8298 C   0  0  0  0  0  0  0  0  0  0  0  0
   -2.2393    0.4875    0.0429 C   0  0  0  0  0  0  0  0  0  0  0  0
    2.2387   -1.0758    0.9070 H   0  0  0  0  0  0  0  0  0  0  0  0
    2.0533   -1.3881   -0.8645 H   0  0  0  0  0  0  0  0  0  0  0  0
    2.4950    0.1434   -0.2475 H   0  0  0  0  0  0  0  0  0  0  0  0
    0.6839    1.3736   -1.4488 H   0  0  0  0  0  0  0  0  0  0  0  0
   -0.0906   -1.7629    1.4115 H   0  0  0  0  0  0  0  0  0  0  0  0
   -1.7042    2.0029   -1.3900 H   0  0  0  0  0  0  0  0  0  0  0  0
   -2.4746   -1.1188    1.4570 H   0  0  0  0  0  0  0  0  0  0  0  0
   -3.2855    0.7640    0.0629 H   0  0  0  0  0  0  0  0  0  0  0  0
    3.4856    0.9219    0.0769 H   0  0  0  0  0 15  0  0  0  0  0  0
  1  2  1  0
  1  8  1  0
  1  9  1  0
  1 10  1  0
  2  3  2  0
  2  4  1  0
  3  5  1  0
  3 11  1  0
  4  6  2  0
  4 12  1  0
  5  7  2  0
  5 13  1  0
  6  7  1  0
  6 14  1  0
  7 15  1  0
M  END
>  <reaction>  (6) 
rxn_799

>  <mol_properties>  (6) 
{"0": {"label": "*3", "atom_type": "Cs"}, "1": {"label": "*4", "atom_type": "Cd"}, "7": {"label": "*2", "atom_type": "H0"}, "15": {"label": "*1", "atom_type": "H0"}}

>  <type>  (6) 
unop_2

>  <geom_source>  (6) 
AutoTST

$$$$
