
     RDKit          3D

 15 14  0  0  0  0  0  0  0  0999 V2000
    2.1256    0.4849   -0.6284 C   0  0  0  0  0  0  0  0  0  0  0  0
    1.1128    0.2141    0.1794 C   0  0  0  0  0  0  0  0  0  0  0  0
   -0.3017   -0.0425   -0.2513 C   0  0  0  0  0  0  0  0  0  0  0  0
   -1.2427    1.0075    0.3423 C   0  0  0  0  0  0  0  0  0  0  0  0
   -0.7381   -1.4526    0.1504 C   0  0  0  0  0  0  0  0  0  0  0  0
    3.1243    0.6602   -0.2486 H   0  0  0  0  0  0  0  0  0  0  0  0
    1.9908    0.5411   -1.7036 H   0  0  0  0  0  0  0  0  0  0  0  0
    1.2888    0.1665    1.2533 H   0  0  0  0  0  0  0  0  0  0  0  0
   -0.3426    0.0343   -1.3424 H   0  0  0  0  0  0  0  0  0  0  0  0
   -0.9570    2.0133    0.0315 H   0  0  0  0  0  0  0  0  0  0  0  0
   -1.2189    0.9728    1.4350 H   0  0  0  0  0  0  0  0  0  0  0  0
   -2.2723    0.8287    0.0254 H   0  0  0  0  0  0  0  0  0  0  0  0
   -0.6964   -1.5744    1.2363 H   0  0  0  0  0  0  0  0  0  0  0  0
   -0.0911   -2.2079   -0.2978 H   0  0  0  0  0  0  0  0  0  0  0  0
   -1.7646   -1.6461   -0.1677 H   0  0  0  0  0  0  0  0  0  0  0  0
  1  2  2  3
  1  6  1  0
  1  7  1  0
  2  3  1  0
  2  8  1  0
  3  4  1  0
  3  5  1  0
  3  9  1  0
  4 10  1  0
  4 11  1  0
  4 12  1  0
  5 13  1  0
  5 14  1  0
  5 15  1  0
M  END
>  <reaction>  (1) 
rxn_1089

>  <mol_properties>  (1) 
{"2": {"label": "donator", "atom_type": "Cs"}, "8": {"label": "d_hydrogen", "atom_type": "H0"}}

>  <type>  (1) 
r1h

$$$$

     RDKit          3D

 15 14  0  0  0  0  0  0  0  0999 V2000
    2.4381    0.5770   -0.2356 C   0  0  0  0  0  0  0  0  0  0  0  0
    1.4430   -0.3367   -0.1409 C   0  0  0  0  0  0  0  0  0  0  0  0
    0.0521   -0.0957   -0.0045 C   0  0  0  0  0  3  0  0  0  0  0  0
   -0.5167    1.2867    0.0548 C   0  0  0  0  0  0  0  0  0  0  0  0
   -0.8226   -1.2147    0.0778 C   0  0  0  0  0  0  0  0  0  0  0  0
   -2.1666   -1.1669    0.2092 C   0  0  0  0  0  0  0  0  0  0  0  0
    3.4666    0.2585   -0.3369 H   0  0  0  0  0  0  0  0  0  0  0  0
    2.2594    1.6438   -0.2152 H   0  0  0  0  0  0  0  0  0  0  0  0
    1.7306   -1.3845   -0.1719 H   0  0  0  0  0  0  0  0  0  0  0  0
   -1.2300    1.4469   -0.7583 H   0  0  0  0  0  0  0  0  0  0  0  0
    0.2481    2.0557   -0.0178 H   0  0  0  0  0  0  0  0  0  0  0  0
   -1.0592    1.4421    0.9914 H   0  0  0  0  0  0  0  0  0  0  0  0
   -0.3519   -2.1929    0.0292 H   0  0  0  0  0  0  0  0  0  0  0  0
   -2.7080   -0.2310    0.2646 H   0  0  0  0  0  0  0  0  0  0  0  0
   -2.7513   -2.0751    0.2638 H   0  0  0  0  0  0  0  0  0  0  0  0
  1  2  2  3
  1  7  1  0
  1  8  1  0
  2  3  1  0
  2  9  1  0
  3  4  1  0
  3  5  1  0
  4 10  1  0
  4 11  1  0
  4 12  1  0
  5  6  2  3
  5 13  1  0
  6 14  1  0
  6 15  1  0
M  RAD  1   3   2
M  END
>  <reaction>  (2) 
rxn_1089

>  <mol_properties>  (2) 
{"2": {"label": "acceptor", "atom_type": "Cs"}}

>  <type>  (2) 
r2

$$$$

     RDKit          3D

 16 15  0  0  0  0  0  0  0  0999 V2000
    1.7961   -0.3807    1.6176 C   0  0  0  0  0  0  0  0  0  0  0  0
    0.8562   -0.8708    0.8256 C   0  0  0  0  0  0  0  0  0  0  0  0
    0.0895   -0.0826   -0.2048 C   0  0  0  0  0  0  0  0  0  0  0  0
   -1.4061   -0.1111    0.0982 C   0  0  0  0  0  0  0  0  0  0  0  0
    0.4476   -0.5902   -1.5797 C   0  0  0  0  0  0  0  0  0  0  0  0
   -0.3793   -1.1113   -2.4728 C   0  0  0  0  0  0  0  0  0  0  0  0
    2.3110   -1.0032    2.3386 H   0  0  0  0  0  0  0  0  0  0  0  0
    2.0846    0.6643    1.5737 H   0  0  0  0  0  0  0  0  0  0  0  0
    0.5921   -1.9241    0.8925 H   0  0  0  0  0  0  0  0  0  0  0  0
    0.4358    0.9557   -0.1462 H   0  0  0  0  0  0  0  0  0  0  0  0
   -1.5968    0.3080    1.0865 H   0  0  0  0  0  0  0  0  0  0  0  0
   -1.9674    0.4693   -0.6359 H   0  0  0  0  0  0  0  0  0  0  0  0
   -1.7902   -1.1338    0.0883 H   0  0  0  0  0  0  0  0  0  0  0  0
    1.5049   -0.5197   -1.8214 H   0  0  0  0  0  0  0  0  0  0  0  0
   -1.4421   -1.2131   -2.2889 H   0  0  0  0  0  0  0  0  0  0  0  0
   -0.0162   -1.4558   -3.4328 H   0  0  0  0  0  0  0  0  0  0  0  0
  1  2  2  3
  1  7  1  0
  1  8  1  0
  2  3  1  0
  2  9  1  0
  3  4  1  0
  3  5  1  0
  3 10  1  0
  4 11  1  0
  4 12  1  0
  4 13  1  0
  5  6  2  3
  5 14  1  0
  6 15  1  0
  6 16  1  0
M  END
>  <reaction>  (3) 
rxn_1089

>  <mol_properties>  (3) 
{"2": {"label": "acceptor", "atom_type": "Cs"}, "15": {"label": "a_hydrogen", "atom_type": "H0"}}

>  <type>  (3) 
r2h

$$$$

     RDKit          3D

 30 28  0  0  0  0  0  0  0  0999 V2000
    2.1604    0.7986   -1.7867 C   0  0  0  0  0  0  0  0  0  0  0  0
    1.6237    1.1823   -0.6295 C   0  0  0  0  0  0  0  0  0  0  0  0
    0.1917    1.1988   -0.2863 C   0  0  0  0  0  0  0  0  0  0  0  0
   -0.7878    1.0815   -1.4300 C   0  0  0  0  0  0  0  0  0  0  0  0
   -0.1526    2.1150    0.8133 C   0  0  0  0  0  0  0  0  0  0  0  0
   -1.3237    2.7136    1.0274 C   0  0  0  0  0  0  0  0  0  0  0  0
    3.2340    0.7895   -1.9226 H   0  0  0  0  0  0  0  0  0  0  0  0
    1.5578    0.4962   -2.6338 H   0  0  0  0  0  0  0  0  0  0  0  0
    2.2947    1.4748    0.1747 H   0  0  0  0  0  0  0  0  0  0  0  0
   -1.8081    0.9734   -1.0624 H   0  0  0  0  0  0  0  0  0  0  0  0
   -0.5689    0.2024   -2.0369 H   0  0  0  0  0  0  0  0  0  0  0  0
   -0.7474    1.9646   -2.0731 H   0  0  0  0  0  0  0  0  0  0  0  0
    0.6461    2.2881    1.5310 H   0  0  0  0  0  0  0  0  0  0  0  0
   -2.1652    2.6038    0.3549 H   0  0  0  0  0  0  0  0  0  0  0  0
   -1.4690    3.3512    1.8896 H   0  0  0  0  0  0  0  0  0  0  0  0
   -0.4949   -2.7855   -1.1307 C   0  0  0  0  0  0  0  0  0  0  0  0
    0.3001   -2.1257   -0.2773 C   0  0  0  0  0  0  0  0  0  0  0  0
   -0.1180   -1.2565    0.8080 C   0  0  0  0  0  3  0  0  0  0  0  0
    0.8415   -1.1364    1.9667 C   0  0  0  0  0  0  0  0  0  0  0  0
   -1.5763   -1.2164    1.1823 C   0  0  0  0  0  0  0  0  0  0  0  0
   -0.0757   -3.3837   -1.9289 H   0  0  0  0  0  0  0  0  0  0  0  0
   -1.5749   -2.7593   -1.0547 H   0  0  0  0  0  0  0  0  0  0  0  0
    1.3752   -2.2086   -0.4148 H   0  0  0  0  0  0  0  0  0  0  0  0
    0.0659    0.0121    0.2575 H   0  0  0  0  0  0  0  0  0  0  0  0
    1.8727   -1.0539    1.6175 H   0  0  0  0  0  0  0  0  0  0  0  0
    0.7782   -2.0122    2.6209 H   0  0  0  0  0  0  0  0  0  0  0  0
    0.6118   -0.2561    2.5717 H   0  0  0  0  0  0  0  0  0  0  0  0
   -1.8711   -2.1359    1.6997 H   0  0  0  0  0  0  0  0  0  0  0  0
   -2.2184   -1.1073    0.3076 H   0  0  0  0  0  0  0  0  0  0  0  0
   -1.7747   -0.3755    1.8488 H   0  0  0  0  0  0  0  0  0  0  0  0
  1  2  2  3
  1  7  1  0
  1  8  1  0
  2  3  1  0
  2  9  1  0
  3  4  1  0
  3  5  1  0
  3 24  1  0
  4 10  1  0
  4 11  1  0
  4 12  1  0
  5  6  2  3
  5 13  1  0
  6 14  1  0
  6 15  1  0
 16 17  2  3
 16 21  1  0
 16 22  1  0
 17 18  1  0
 17 23  1  0
 18 19  1  0
 18 20  1  0
 19 25  1  0
 19 26  1  0
 19 27  1  0
 20 28  1  0
 20 29  1  0
 20 30  1  0
M  RAD  1  18   2
M  END
>  <reaction>  (4) 
rxn_1089

>  <mol_properties>  (4) 
{"1": {"label": "*0", "atom_type": "Cd"}, "2": {"label": "*1", "atom_type": "Cs"}, "16": {"label": "*4", "atom_type": "Cd"}, "17": {"label": "*3", "atom_type": "Cs"}, "23": {"label": "*2", "atom_type": "H0"}}

>  <type>  (4) 
ts

$$$$

     RDKit          3D

 30 28  0  0  0  0  0  0  0  0999 V2000
   -1.6177    1.8902    1.1356 C   0  0  0  0  0  0  0  0  0  0  0  0
   -0.6678    2.0690    0.2319 C   0  0  0  0  0  0  0  0  0  0  0  0
    0.0514    0.9675   -0.5031 C   0  0  0  0  0  3  0  0  0  0  0  0
    1.5505    1.0218   -0.2221 C   0  0  0  0  0  0  0  0  0  0  0  0
   -0.3022    1.0404   -1.9680 C   0  0  0  0  0  0  0  0  0  0  0  0
    0.5348    1.2224   -2.9776 C   0  0  0  0  0  0  0  0  0  0  0  0
   -2.0963    2.7274    1.6279 H   0  0  0  0  0  0  0  0  0  0  0  0
   -1.9511    0.8968    1.4170 H   0  0  0  0  0  0  0  0  0  0  0  0
   -0.3582    3.0785   -0.0302 H   0  0  0  0  0  0  0  0  0  0  0  0
    2.0772    0.2184   -0.7398 H   0  0  0  0  0  0  0  0  0  0  0  0
    1.7357    0.9208    0.8476 H   0  0  0  0  0  0  0  0  0  0  0  0
    1.9778    1.9731   -0.5477 H   0  0  0  0  0  0  0  0  0  0  0  0
   -1.3645    0.9457   -2.1772 H   0  0  0  0  0  0  0  0  0  0  0  0
    1.6032    1.3287   -2.8330 H   0  0  0  0  0  0  0  0  0  0  0  0
    0.1746    1.2690   -3.9975 H   0  0  0  0  0  0  0  0  0  0  0  0
    0.0514   -2.3682   -1.1366 C   0  0  0  0  0  0  0  0  0  0  0  0
    0.0514   -2.3682    0.1869 C   0  0  0  0  0  0  0  0  0  0  0  0
    0.0514   -1.1468    1.0589 C   0  0  0  0  0  0  0  0  0  0  0  0
    1.3107   -1.1064    1.9266 C   0  0  0  0  0  0  0  0  0  0  0  0
   -1.2079   -1.1064    1.9266 C   0  0  0  0  0  0  0  0  0  0  0  0
    0.0514   -3.2899   -1.7049 H   0  0  0  0  0  0  0  0  0  0  0  0
    0.0514   -1.4416   -1.7012 H   0  0  0  0  0  0  0  0  0  0  0  0
    0.0514   -3.3195    0.7174 H   0  0  0  0  0  0  0  0  0  0  0  0
    0.0514   -0.0904    0.2785 H   0  0  0  0  0  0  0  0  0  0  0  0
    2.2122   -1.1005    1.3124 H   0  0  0  0  0  0  0  0  0  0  0  0
    1.3553   -1.9802    2.5824 H   0  0  0  0  0  0  0  0  0  0  0  0
    1.3182   -0.2152    2.5575 H   0  0  0  0  0  0  0  0  0  0  0  0
   -1.2525   -1.9802    2.5824 H   0  0  0  0  0  0  0  0  0  0  0  0
   -2.1095   -1.1005    1.3124 H   0  0  0  0  0  0  0  0  0  0  0  0
   -1.2155   -0.2152    2.5575 H   0  0  0  0  0  0  0  0  0  0  0  0
  1  2  2  3
  1  7  1  0
  1  8  1  0
  2  3  1  0
  2  9  1  0
  3  4  1  0
  3  5  1  0
  4 10  1  0
  4 11  1  0
  4 12  1  0
  5  6  2  3
  5 13  1  0
  6 14  1  0
  6 15  1  0
 16 17  2  3
 16 21  1  0
 16 22  1  0
 17 18  1  0
 17 23  1  0
 18 19  1  0
 18 20  1  0
 18 24  1  0
 19 25  1  0
 19 26  1  0
 19 27  1  0
 20 28  1  0
 20 29  1  0
 20 30  1  0
M  RAD  1   3   2
M  END
>  <reaction>  (5) 
rxn_1089

>  <mol_properties>  (5) 
{"1": {"label": "*0", "atom_type": "Cd"}, "2": {"label": "*1", "atom_type": "Cs"}, "16": {"label": "*4", "atom_type": "Cd"}, "17": {"label": "*3", "atom_type": "Cs"}, "23": {"label": "*2", "atom_type": "H0"}}

>  <type>  (5) 
unop_1

>  <geom_source>  (5) 
Heuristics

$$$$

     RDKit          3D

 30 28  0  0  0  0  0  0  0  0999 V2000
   -1.7641   -0.1677   -1.7260 C   0  0  0  0  0  0  0  0  0  0  0  0
   -1.1967    0.9446   -1.2880 C   0  0  0  0  0  0  0  0  0  0  0  0
    0.0489    1.0106   -0.4426 C   0  0  0  0  0  3  0  0  0  0  0  0
   -0.2407    1.6939    0.8910 C   0  0  0  0  0  0  0  0  0  0  0  0
    1.1514    1.6623   -1.2402 C   0  0  0  0  0  0  0  0  0  0  0  0
    1.8019    2.7738   -0.9328 C   0  0  0  0  0  0  0  0  0  0  0  0
   -2.6610   -0.1457   -2.3322 H   0  0  0  0  0  0  0  0  0  0  0  0
   -1.3510   -1.1434   -1.4924 H   0  0  0  0  0  0  0  0  0  0  0  0
   -1.6344    1.9076   -1.5425 H   0  0  0  0  0  0  0  0  0  0  0  0
    0.6536    1.7332    1.5153 H   0  0  0  0  0  0  0  0  0  0  0  0
   -1.0139    1.1480    1.4322 H   0  0  0  0  0  0  0  0  0  0  0  0
   -0.5952    2.7162    0.7407 H   0  0  0  0  0  0  0  0  0  0  0  0
    1.3998    1.1471   -2.1644 H   0  0  0  0  0  0  0  0  0  0  0  0
    1.5963    3.3347   -0.0291 H   0  0  0  0  0  0  0  0  0  0  0  0
    2.5749    3.1639   -1.5828 H   0  0  0  0  0  0  0  0  0  0  0  0
    0.0489   -2.3251   -1.0762 C   0  0  0  0  0  0  0  0  0  0  0  0
    0.0489   -2.3251    0.2473 C   0  0  0  0  0  0  0  0  0  0  0  0
    0.0489   -1.1037    1.1194 C   0  0  0  0  0  0  0  0  0  0  0  0
    1.3082   -1.0633    1.9870 C   0  0  0  0  0  0  0  0  0  0  0  0
   -1.2104   -1.0633    1.9870 C   0  0  0  0  0  0  0  0  0  0  0  0
    0.0489   -3.2468   -1.6444 H   0  0  0  0  0  0  0  0  0  0  0  0
    0.0489   -1.3985   -1.6407 H   0  0  0  0  0  0  0  0  0  0  0  0
    0.0489   -3.2764    0.7779 H   0  0  0  0  0  0  0  0  0  0  0  0
    0.0489   -0.0473    0.3389 H   0  0  0  0  0  0  0  0  0  0  0  0
    2.2098   -1.0574    1.3729 H   0  0  0  0  0  0  0  0  0  0  0  0
    1.3528   -1.9371    2.6428 H   0  0  0  0  0  0  0  0  0  0  0  0
    1.3158   -0.1721    2.6180 H   0  0  0  0  0  0  0  0  0  0  0  0
   -1.2549   -1.9371    2.6428 H   0  0  0  0  0  0  0  0  0  0  0  0
   -2.1119   -1.0574    1.3729 H   0  0  0  0  0  0  0  0  0  0  0  0
   -1.2179   -0.1721    2.6180 H   0  0  0  0  0  0  0  0  0  0  0  0
  1  2  2  3
  1  7  1  0
  1  8  1  0
  2  3  1  0
  2  9  1  0
  3  4  1  0
  3  5  1  0
  4 10  1  0
  4 11  1  0
  4 12  1  0
  5  6  2  3
  5 13  1  0
  6 14  1  0
  6 15  1  0
 16 17  2  3
 16 21  1  0
 16 22  1  0
 17 18  1  0
 17 23  1  0
 18 19  1  0
 18 20  1  0
 18 24  1  0
 19 25  1  0
 19 26  1  0
 19 27  1  0
 20 28  1  0
 20 29  1  0
 20 30  1  0
M  RAD  1   3   2
M  END
>  <reaction>  (6) 
rxn_1089

>  <mol_properties>  (6) 
{"1": {"label": "*0", "atom_type": "Cd"}, "2": {"label": "*1", "atom_type": "Cs"}, "16": {"label": "*4", "atom_type": "Cd"}, "17": {"label": "*3", "atom_type": "Cs"}, "23": {"label": "*2", "atom_type": "H0"}}

>  <type>  (6) 
unop_2

>  <geom_source>  (6) 
Heuristics

$$$$

     RDKit          3D

 30 28  0  0  0  0  0  0  0  0999 V2000
    0.0881    2.1696    1.6656 C   0  0  0  0  0  0  0  0  0  0  0  0
    0.1196    2.1916    0.3430 C   0  0  0  0  0  0  0  0  0  0  0  0
    0.1196    0.9756   -0.5470 C   0  0  0  0  0  3  0  0  0  0  0  0
    1.3781    0.9393   -1.4096 C   0  0  0  0  0  0  0  0  0  0  0  0
   -1.1666    0.9420   -1.3350 C   0  0  0  0  0  0  0  0  0  0  0  0
   -1.2898    0.9663   -2.6531 C   0  0  0  0  0  0  0  0  0  0  0  0
    0.0893    3.0825    2.2478 H   0  0  0  0  0  0  0  0  0  0  0  0
    0.0608    1.2346    2.2154 H   0  0  0  0  0  0  0  0  0  0  0  0
    0.1435    3.1461   -0.1785 H   0  0  0  0  0  0  0  0  0  0  0  0
    1.3926    0.0539   -2.0474 H   0  0  0  0  0  0  0  0  0  0  0  0
    2.2661    0.9220   -0.7773 H   0  0  0  0  0  0  0  0  0  0  0  0
    1.4410    1.8212   -2.0514 H   0  0  0  0  0  0  0  0  0  0  0  0
   -2.0650    0.9110   -0.7242 H   0  0  0  0  0  0  0  0  0  0  0  0
   -0.4329    1.0025   -3.3149 H   0  0  0  0  0  0  0  0  0  0  0  0
   -2.2659    0.9476   -3.1210 H   0  0  0  0  0  0  0  0  0  0  0  0
    0.1196   -2.3601   -1.1805 C   0  0  0  0  0  0  0  0  0  0  0  0
    0.1196   -2.3601    0.1430 C   0  0  0  0  0  0  0  0  0  0  0  0
    0.1196   -1.1388    1.0150 C   0  0  0  0  0  0  0  0  0  0  0  0
    1.3789   -1.0983    1.8826 C   0  0  0  0  0  0  0  0  0  0  0  0
   -1.1397   -1.0983    1.8826 C   0  0  0  0  0  0  0  0  0  0  0  0
    0.1196   -3.2819   -1.7488 H   0  0  0  0  0  0  0  0  0  0  0  0
    0.1196   -1.4336   -1.7451 H   0  0  0  0  0  0  0  0  0  0  0  0
    0.1196   -3.3115    0.6735 H   0  0  0  0  0  0  0  0  0  0  0  0
    0.1196   -0.0824    0.2345 H   0  0  0  0  0  0  0  0  0  0  0  0
    2.2804   -1.0924    1.2685 H   0  0  0  0  0  0  0  0  0  0  0  0
    1.4234   -1.9722    2.5384 H   0  0  0  0  0  0  0  0  0  0  0  0
    1.3864   -0.2071    2.5136 H   0  0  0  0  0  0  0  0  0  0  0  0
   -1.1843   -1.9722    2.5384 H   0  0  0  0  0  0  0  0  0  0  0  0
   -2.0413   -1.0924    1.2685 H   0  0  0  0  0  0  0  0  0  0  0  0
   -1.1473   -0.2071    2.5136 H   0  0  0  0  0  0  0  0  0  0  0  0
  1  2  2  3
  1  7  1  0
  1  8  1  0
  2  3  1  0
  2  9  1  0
  3  4  1  0
  3  5  1  0
  4 10  1  0
  4 11  1  0
  4 12  1  0
  5  6  2  3
  5 13  1  0
  6 14  1  0
  6 15  1  0
 16 17  2  3
 16 21  1  0
 16 22  1  0
 17 18  1  0
 17 23  1  0
 18 19  1  0
 18 20  1  0
 18 24  1  0
 19 25  1  0
 19 26  1  0
 19 27  1  0
 20 28  1  0
 20 29  1  0
 20 30  1  0
M  RAD  1   3   2
M  END
>  <reaction>  (7) 
rxn_1089

>  <mol_properties>  (7) 
{"1": {"label": "*0", "atom_type": "Cd"}, "2": {"label": "*1", "atom_type": "Cs"}, "16": {"label": "*4", "atom_type": "Cd"}, "17": {"label": "*3", "atom_type": "Cs"}, "23": {"label": "*2", "atom_type": "H0"}}

>  <type>  (7) 
unop_3

>  <geom_source>  (7) 
Heuristics

$$$$

     RDKit          3D

 30 28  0  0  0  0  0  0  0  0999 V2000
    0.7801   -0.5709   -2.1908 C   0  0  0  0  0  0  0  0  0  0  0  0
    0.5289    0.6668   -1.7961 C   0  0  0  0  0  0  0  0  0  0  0  0
   -0.1902    1.0457   -0.5272 C   0  0  0  0  0  3  0  0  0  0  0  0
   -1.4534    1.8427   -0.8414 C   0  0  0  0  0  0  0  0  0  0  0  0
    0.7726    1.7570    0.3910 C   0  0  0  0  0  0  0  0  0  0  0  0
    0.6578    2.9903    0.8589 C   0  0  0  0  0  0  0  0  0  0  0  0
    1.3038   -0.7754   -3.1162 H   0  0  0  0  0  0  0  0  0  0  0  0
    0.4692   -1.4269   -1.6010 H   0  0  0  0  0  0  0  0  0  0  0  0
    0.8569    1.5036   -2.4091 H   0  0  0  0  0  0  0  0  0  0  0  0
   -1.9878    2.1091    0.0720 H   0  0  0  0  0  0  0  0  0  0  0  0
   -2.1212    1.2545   -1.4712 H   0  0  0  0  0  0  0  0  0  0  0  0
   -1.2142    2.7648   -1.3761 H   0  0  0  0  0  0  0  0  0  0  0  0
    1.6471    1.1717    0.6627 H   0  0  0  0  0  0  0  0  0  0  0  0
   -0.1873    3.6246    0.6200 H   0  0  0  0  0  0  0  0  0  0  0  0
    1.4147    3.4117    1.5083 H   0  0  0  0  0  0  0  0  0  0  0  0
   -0.1902   -2.2900   -1.1607 C   0  0  0  0  0  0  0  0  0  0  0  0
   -0.1902   -2.2900    0.1627 C   0  0  0  0  0  0  0  0  0  0  0  0
   -0.1902   -1.0686    1.0348 C   0  0  0  0  0  0  0  0  0  0  0  0
    1.0691   -1.0282    1.9024 C   0  0  0  0  0  0  0  0  0  0  0  0
   -1.4496   -1.0282    1.9024 C   0  0  0  0  0  0  0  0  0  0  0  0
   -0.1902   -3.2117   -1.7290 H   0  0  0  0  0  0  0  0  0  0  0  0
   -0.1902   -1.3635   -1.7253 H   0  0  0  0  0  0  0  0  0  0  0  0
   -0.1902   -3.2413    0.6933 H   0  0  0  0  0  0  0  0  0  0  0  0
   -0.1902   -0.0123    0.2543 H   0  0  0  0  0  0  0  0  0  0  0  0
    1.9706   -1.0223    1.2883 H   0  0  0  0  0  0  0  0  0  0  0  0
    1.1136   -1.9020    2.5582 H   0  0  0  0  0  0  0  0  0  0  0  0
    1.0766   -0.1370    2.5334 H   0  0  0  0  0  0  0  0  0  0  0  0
   -1.4941   -1.9020    2.5582 H   0  0  0  0  0  0  0  0  0  0  0  0
   -2.3511   -1.0223    1.2883 H   0  0  0  0  0  0  0  0  0  0  0  0
   -1.4571   -0.1370    2.5334 H   0  0  0  0  0  0  0  0  0  0  0  0
  1  2  2  3
  1  7  1  0
  1  8  1  0
  2  3  1  0
  2  9  1  0
  3  4  1  0
  3  5  1  0
  4 10  1  0
  4 11  1  0
  4 12  1  0
  5  6  2  3
  5 13  1  0
  6 14  1  0
  6 15  1  0
 16 17  2  3
 16 21  1  0
 16 22  1  0
 17 18  1  0
 17 23  1  0
 18 19  1  0
 18 20  1  0
 18 24  1  0
 19 25  1  0
 19 26  1  0
 19 27  1  0
 20 28  1  0
 20 29  1  0
 20 30  1  0
M  RAD  1   3   2
M  END
>  <reaction>  (8) 
rxn_1089

>  <mol_properties>  (8) 
{"1": {"label": "*0", "atom_type": "Cd"}, "2": {"label": "*1", "atom_type": "Cs"}, "16": {"label": "*4", "atom_type": "Cd"}, "17": {"label": "*3", "atom_type": "Cs"}, "23": {"label": "*2", "atom_type": "H0"}}

>  <type>  (8) 
unop_4

>  <geom_source>  (8) 
Heuristics

$$$$

     RDKit          3D

 30 28  0  0  0  0  0  0  0  0999 V2000
    1.7423    1.8919    1.0111 C   0  0  0  0  0  0  0  0  0  0  0  0
    0.8370    2.0713    0.0629 C   0  0  0  0  0  0  0  0  0  0  0  0
    0.1178    0.9698   -0.6721 C   0  0  0  0  0  3  0  0  0  0  0  0
    0.3992    1.0486   -2.1701 C   0  0  0  0  0  0  0  0  0  0  0  0
   -1.3482    1.0177   -0.3191 C   0  0  0  0  0  0  0  0  0  0  0  0
   -2.3596    1.1973   -1.1544 C   0  0  0  0  0  0  0  0  0  0  0  0
    2.2227    2.7291    1.5017 H   0  0  0  0  0  0  0  0  0  0  0  0
    2.0371    0.8980    1.3311 H   0  0  0  0  0  0  0  0  0  0  0  0
    0.5613    3.0813   -0.2331 H   0  0  0  0  0  0  0  0  0  0  0  0
   -0.1070    0.2455   -2.7083 H   0  0  0  0  0  0  0  0  0  0  0  0
    1.4703    0.9649   -2.3556 H   0  0  0  0  0  0  0  0  0  0  0  0
    0.0609    2.0011   -2.5846 H   0  0  0  0  0  0  0  0  0  0  0  0
   -1.5570    0.9055    0.7417 H   0  0  0  0  0  0  0  0  0  0  0  0
   -2.2156    1.3203   -2.2211 H   0  0  0  0  0  0  0  0  0  0  0  0
   -3.3803    1.2249   -0.7946 H   0  0  0  0  0  0  0  0  0  0  0  0
    0.1178   -2.3659   -1.3056 C   0  0  0  0  0  0  0  0  0  0  0  0
    0.1178   -2.3659    0.0179 C   0  0  0  0  0  0  0  0  0  0  0  0
    0.1178   -1.1445    0.8899 C   0  0  0  0  0  0  0  0  0  0  0  0
    1.3771   -1.1041    1.7576 C   0  0  0  0  0  0  0  0  0  0  0  0
   -1.1415   -1.1041    1.7576 C   0  0  0  0  0  0  0  0  0  0  0  0
    0.1178   -3.2876   -1.8739 H   0  0  0  0  0  0  0  0  0  0  0  0
    0.1178   -1.4393   -1.8702 H   0  0  0  0  0  0  0  0  0  0  0  0
    0.1178   -3.3172    0.5484 H   0  0  0  0  0  0  0  0  0  0  0  0
    0.1178   -0.0881    0.1095 H   0  0  0  0  0  0  0  0  0  0  0  0
    2.2786   -1.0982    1.1434 H   0  0  0  0  0  0  0  0  0  0  0  0
    1.4217   -1.9779    2.4134 H   0  0  0  0  0  0  0  0  0  0  0  0
    1.3846   -0.2129    2.3885 H   0  0  0  0  0  0  0  0  0  0  0  0
   -1.1861   -1.9779    2.4134 H   0  0  0  0  0  0  0  0  0  0  0  0
   -2.0431   -1.0982    1.1434 H   0  0  0  0  0  0  0  0  0  0  0  0
   -1.1491   -0.2129    2.3885 H   0  0  0  0  0  0  0  0  0  0  0  0
  1  2  2  3
  1  7  1  0
  1  8  1  0
  2  3  1  0
  2  9  1  0
  3  4  1  0
  3  5  1  0
  4 10  1  0
  4 11  1  0
  4 12  1  0
  5  6  2  3
  5 13  1  0
  6 14  1  0
  6 15  1  0
 16 17  2  3
 16 21  1  0
 16 22  1  0
 17 18  1  0
 17 23  1  0
 18 19  1  0
 18 20  1  0
 18 24  1  0
 19 25  1  0
 19 26  1  0
 19 27  1  0
 20 28  1  0
 20 29  1  0
 20 30  1  0
M  RAD  1   3   2
M  END
>  <reaction>  (9) 
rxn_1089

>  <mol_properties>  (9) 
{"1": {"label": "*0", "atom_type": "Cd"}, "2": {"label": "*1", "atom_type": "Cs"}, "16": {"label": "*4", "atom_type": "Cd"}, "17": {"label": "*3", "atom_type": "Cs"}, "23": {"label": "*2", "atom_type": "H0"}}

>  <type>  (9) 
unop_5

>  <geom_source>  (9) 
Heuristics

$$$$

     RDKit          3D

 30 28  0  0  0  0  0  0  0  0999 V2000
    1.6652   -0.1657   -1.8718 C   0  0  0  0  0  0  0  0  0  0  0  0
    1.0626    0.9473   -1.4859 C   0  0  0  0  0  0  0  0  0  0  0  0
   -0.1831    1.0133   -0.6405 C   0  0  0  0  0  3  0  0  0  0  0  0
   -1.3058    1.7253   -1.3902 C   0  0  0  0  0  0  0  0  0  0  0  0
    0.1577    1.6357    0.6909 C   0  0  0  0  0  0  0  0  0  0  0  0
   -0.3545    2.7444    1.2022 C   0  0  0  0  0  0  0  0  0  0  0  0
    2.5607   -0.1437   -2.4801 H   0  0  0  0  0  0  0  0  0  0  0  0
    1.2828   -1.1420   -1.5930 H   0  0  0  0  0  0  0  0  0  0  0  0
    1.4733    1.9109   -1.7801 H   0  0  0  0  0  0  0  0  0  0  0  0
   -2.2163    1.7650   -0.7899 H   0  0  0  0  0  0  0  0  0  0  0  0
   -1.5291    1.1996   -2.3190 H   0  0  0  0  0  0  0  0  0  0  0  0
   -1.0219    2.7490   -1.6446 H   0  0  0  0  0  0  0  0  0  0  0  0
    0.9176    1.1000    1.2539 H   0  0  0  0  0  0  0  0  0  0  0  0
   -1.1106    3.3249    0.6875 H   0  0  0  0  0  0  0  0  0  0  0  0
   -0.0321    3.1122    2.1681 H   0  0  0  0  0  0  0  0  0  0  0  0
   -0.1831   -2.3224   -1.2741 C   0  0  0  0  0  0  0  0  0  0  0  0
   -0.1831   -2.3224    0.0494 C   0  0  0  0  0  0  0  0  0  0  0  0
   -0.1831   -1.1010    0.9214 C   0  0  0  0  0  0  0  0  0  0  0  0
    1.0762   -1.0606    1.7891 C   0  0  0  0  0  0  0  0  0  0  0  0
   -1.4424   -1.0606    1.7891 C   0  0  0  0  0  0  0  0  0  0  0  0
   -0.1831   -3.2441   -1.8423 H   0  0  0  0  0  0  0  0  0  0  0  0
   -0.1831   -1.3958   -1.8386 H   0  0  0  0  0  0  0  0  0  0  0  0
   -0.1831   -3.2737    0.5800 H   0  0  0  0  0  0  0  0  0  0  0  0
   -0.1831   -0.0446    0.1410 H   0  0  0  0  0  0  0  0  0  0  0  0
    1.9777   -1.0547    1.1749 H   0  0  0  0  0  0  0  0  0  0  0  0
    1.1208   -1.9344    2.4449 H   0  0  0  0  0  0  0  0  0  0  0  0
    1.0837   -0.1694    2.4201 H   0  0  0  0  0  0  0  0  0  0  0  0
   -1.4870   -1.9344    2.4449 H   0  0  0  0  0  0  0  0  0  0  0  0
   -2.3440   -1.0547    1.1749 H   0  0  0  0  0  0  0  0  0  0  0  0
   -1.4499   -0.1693    2.4201 H   0  0  0  0  0  0  0  0  0  0  0  0
  1  2  2  3
  1  7  1  0
  1  8  1  0
  2  3  1  0
  2  9  1  0
  3  4  1  0
  3  5  1  0
  4 10  1  0
  4 11  1  0
  4 12  1  0
  5  6  2  3
  5 13  1  0
  6 14  1  0
  6 15  1  0
 16 17  2  3
 16 21  1  0
 16 22  1  0
 17 18  1  0
 17 23  1  0
 18 19  1  0
 18 20  1  0
 18 24  1  0
 19 25  1  0
 19 26  1  0
 19 27  1  0
 20 28  1  0
 20 29  1  0
 20 30  1  0
M  RAD  1   3   2
M  END
>  <reaction>  (10) 
rxn_1089

>  <mol_properties>  (10) 
{"1": {"label": "*0", "atom_type": "Cd"}, "2": {"label": "*1", "atom_type": "Cs"}, "16": {"label": "*4", "atom_type": "Cd"}, "17": {"label": "*3", "atom_type": "Cs"}, "23": {"label": "*2", "atom_type": "H0"}}

>  <type>  (10) 
unop_6

>  <geom_source>  (10) 
Heuristics

$$$$

     RDKit          3D

 30 28  0  0  0  0  0  0  0  0999 V2000
    2.3205    0.4769   -1.1559 C   0  0  0  0  0  0  0  0  0  0  0  0
    1.3340    1.3430   -0.9895 C   0  0  0  0  0  0  0  0  0  0  0  0
   -0.1043    0.9817   -0.7226 C   0  0  0  0  0  3  0  0  0  0  0  0
   -1.0096    1.5244   -1.8250 C   0  0  0  0  0  0  0  0  0  0  0  0
   -0.4792    1.4443    0.6636 C   0  0  0  0  0  0  0  0  0  0  0  0
   -1.4320    2.3070    0.9810 C   0  0  0  0  0  0  0  0  0  0  0  0
    3.3355    0.8034   -1.3446 H   0  0  0  0  0  0  0  0  0  0  0  0
    2.1476   -0.5932   -1.1102 H   0  0  0  0  0  0  0  0  0  0  0  0
    1.5413    2.4099   -1.0384 H   0  0  0  0  0  0  0  0  0  0  0  0
   -2.0519    1.2550   -1.6464 H   0  0  0  0  0  0  0  0  0  0  0  0
   -0.7100    1.1173   -2.7910 H   0  0  0  0  0  0  0  0  0  0  0  0
   -0.9460    2.6133   -1.8861 H   0  0  0  0  0  0  0  0  0  0  0  0
    0.1273    1.0163    1.4575 H   0  0  0  0  0  0  0  0  0  0  0  0
   -2.0659    2.7711    0.2351 H   0  0  0  0  0  0  0  0  0  0  0  0
   -1.6145    2.5798    2.0128 H   0  0  0  0  0  0  0  0  0  0  0  0
   -0.1043   -2.3541   -1.3561 C   0  0  0  0  0  0  0  0  0  0  0  0
   -0.1043   -2.3541   -0.0326 C   0  0  0  0  0  0  0  0  0  0  0  0
   -0.1043   -1.1327    0.8394 C   0  0  0  0  0  0  0  0  0  0  0  0
    1.1550   -1.0922    1.7070 C   0  0  0  0  0  0  0  0  0  0  0  0
   -1.3637   -1.0922    1.7070 C   0  0  0  0  0  0  0  0  0  0  0  0
   -0.1043   -3.2758   -1.9244 H   0  0  0  0  0  0  0  0  0  0  0  0
   -0.1043   -1.4275   -1.9207 H   0  0  0  0  0  0  0  0  0  0  0  0
   -0.1043   -3.3054    0.4979 H   0  0  0  0  0  0  0  0  0  0  0  0
   -0.1043   -0.0763    0.0589 H   0  0  0  0  0  0  0  0  0  0  0  0
    2.0565   -1.0863    1.0929 H   0  0  0  0  0  0  0  0  0  0  0  0
    1.1995   -1.9661    2.3628 H   0  0  0  0  0  0  0  0  0  0  0  0
    1.1625   -0.2010    2.3380 H   0  0  0  0  0  0  0  0  0  0  0  0
   -1.4082   -1.9661    2.3628 H   0  0  0  0  0  0  0  0  0  0  0  0
   -2.2652   -1.0863    1.0929 H   0  0  0  0  0  0  0  0  0  0  0  0
   -1.3712   -0.2010    2.3380 H   0  0  0  0  0  0  0  0  0  0  0  0
  1  2  2  3
  1  7  1  0
  1  8  1  0
  2  3  1  0
  2  9  1  0
  3  4  1  0
  3  5  1  0
  4 10  1  0
  4 11  1  0
  4 12  1  0
  5  6  2  3
  5 13  1  0
  6 14  1  0
  6 15  1  0
 16 17  2  3
 16 21  1  0
 16 22  1  0
 17 18  1  0
 17 23  1  0
 18 19  1  0
 18 20  1  0
 18 24  1  0
 19 25  1  0
 19 26  1  0
 19 27  1  0
 20 28  1  0
 20 29  1  0
 20 30  1  0
M  RAD  1   3   2
M  END
>  <reaction>  (11) 
rxn_1089

>  <mol_properties>  (11) 
{"1": {"label": "*0", "atom_type": "Cd"}, "2": {"label": "*1", "atom_type": "Cs"}, "16": {"label": "*4", "atom_type": "Cd"}, "17": {"label": "*3", "atom_type": "Cs"}, "23": {"label": "*2", "atom_type": "H0"}}

>  <type>  (11) 
unop_7

>  <geom_source>  (11) 
Heuristics

$$$$

     RDKit          3D

 30 28  0  0  0  0  0  0  0  0999 V2000
   -2.3943    1.2313    0.0513 C   0  0  0  0  0  0  0  0  0  0  0  0
   -1.2033    1.7518   -0.1966 C   0  0  0  0  0  0  0  0  0  0  0  0
    0.0424    0.9631   -0.5082 C   0  0  0  0  0  3  0  0  0  0  0  0
    1.1281    1.2391    0.5284 C   0  0  0  0  0  0  0  0  0  0  0  0
    0.4629    1.2475   -1.9289 C   0  0  0  0  0  0  0  0  0  0  0  0
    1.6126    1.7704   -2.3260 C   0  0  0  0  0  0  0  0  0  0  0  0
   -3.2517    1.8560    0.2682 H   0  0  0  0  0  0  0  0  0  0  0  0
   -2.5548    0.1583    0.0472 H   0  0  0  0  0  0  0  0  0  0  0  0
   -1.0763    2.8322   -0.1877 H   0  0  0  0  0  0  0  0  0  0  0  0
    2.0292    0.6608    0.3178 H   0  0  0  0  0  0  0  0  0  0  0  0
    0.7730    0.9719    1.5240 H   0  0  0  0  0  0  0  0  0  0  0  0
    1.3991    2.2974    0.5423 H   0  0  0  0  0  0  0  0  0  0  0  0
   -0.2870    0.9996   -2.6756 H   0  0  0  0  0  0  0  0  0  0  0  0
    2.3967    2.0429   -1.6299 H   0  0  0  0  0  0  0  0  0  0  0  0
    1.8120    1.9432   -3.3760 H   0  0  0  0  0  0  0  0  0  0  0  0
    0.0424   -2.3726   -1.1417 C   0  0  0  0  0  0  0  0  0  0  0  0
    0.0424   -2.3726    0.1818 C   0  0  0  0  0  0  0  0  0  0  0  0
    0.0424   -1.1512    1.0538 C   0  0  0  0  0  0  0  0  0  0  0  0
    1.3017   -1.1108    1.9215 C   0  0  0  0  0  0  0  0  0  0  0  0
   -1.2169   -1.1108    1.9215 C   0  0  0  0  0  0  0  0  0  0  0  0
    0.0424   -3.2943   -1.7100 H   0  0  0  0  0  0  0  0  0  0  0  0
    0.0424   -1.4460   -1.7063 H   0  0  0  0  0  0  0  0  0  0  0  0
    0.0424   -3.3239    0.7124 H   0  0  0  0  0  0  0  0  0  0  0  0
    0.0424   -0.0948    0.2734 H   0  0  0  0  0  0  0  0  0  0  0  0
    2.2032   -1.1049    1.3073 H   0  0  0  0  0  0  0  0  0  0  0  0
    1.3463   -1.9846    2.5773 H   0  0  0  0  0  0  0  0  0  0  0  0
    1.3092   -0.2196    2.5525 H   0  0  0  0  0  0  0  0  0  0  0  0
   -1.2615   -1.9846    2.5773 H   0  0  0  0  0  0  0  0  0  0  0  0
   -2.1185   -1.1049    1.3073 H   0  0  0  0  0  0  0  0  0  0  0  0
   -1.2245   -0.2196    2.5525 H   0  0  0  0  0  0  0  0  0  0  0  0
  1  2  2  3
  1  7  1  0
  1  8  1  0
  2  3  1  0
  2  9  1  0
  3  4  1  0
  3  5  1  0
  4 10  1  0
  4 11  1  0
  4 12  1  0
  5  6  2  3
  5 13  1  0
  6 14  1  0
  6 15  1  0
 16 17  2  3
 16 21  1  0
 16 22  1  0
 17 18  1  0
 17 23  1  0
 18 19  1  0
 18 20  1  0
 18 24  1  0
 19 25  1  0
 19 26  1  0
 19 27  1  0
 20 28  1  0
 20 29  1  0
 20 30  1  0
M  RAD  1   3   2
M  END
>  <reaction>  (12) 
rxn_1089

>  <mol_properties>  (12) 
{"1": {"label": "*0", "atom_type": "Cd"}, "2": {"label": "*1", "atom_type": "Cs"}, "16": {"label": "*4", "atom_type": "Cd"}, "17": {"label": "*3", "atom_type": "Cs"}, "23": {"label": "*2", "atom_type": "H0"}}

>  <type>  (12) 
unop_8

>  <geom_source>  (12) 
Heuristics

$$$$

     RDKit          3D

 30 28  0  0  0  0  0  0  0  0999 V2000
   -2.3532    0.4745   -0.9829 C   0  0  0  0  0  0  0  0  0  0  0  0
   -1.3784    1.3397   -0.7546 C   0  0  0  0  0  0  0  0  0  0  0  0
    0.0599    0.9784   -0.4877 C   0  0  0  0  0  3  0  0  0  0  0  0
    0.4978    1.4871    0.8830 C   0  0  0  0  0  0  0  0  0  0  0  0
    0.9125    1.4758   -1.6287 C   0  0  0  0  0  0  0  0  0  0  0  0
    1.9111    2.3419   -1.5534 C   0  0  0  0  0  0  0  0  0  0  0  0
   -3.3687    0.8010   -1.1690 H   0  0  0  0  0  0  0  0  0  0  0  0
   -2.1701   -0.5948   -0.9907 H   0  0  0  0  0  0  0  0  0  0  0  0
   -1.5946    2.4060   -0.7564 H   0  0  0  0  0  0  0  0  0  0  0  0
    1.5347    1.2173    1.0900 H   0  0  0  0  0  0  0  0  0  0  0  0
   -0.1317    1.0560    1.6619 H   0  0  0  0  0  0  0  0  0  0  0  0
    0.4108    2.5744    0.9456 H   0  0  0  0  0  0  0  0  0  0  0  0
    0.6397    1.0721   -2.6003 H   0  0  0  0  0  0  0  0  0  0  0  0
    2.2267    2.7828   -0.6155 H   0  0  0  0  0  0  0  0  0  0  0  0
    2.4562    2.6411   -2.4398 H   0  0  0  0  0  0  0  0  0  0  0  0
    0.0599   -2.3573   -1.1212 C   0  0  0  0  0  0  0  0  0  0  0  0
    0.0599   -2.3573    0.2023 C   0  0  0  0  0  0  0  0  0  0  0  0
    0.0599   -1.1359    1.0743 C   0  0  0  0  0  0  0  0  0  0  0  0
    1.3192   -1.0955    1.9420 C   0  0  0  0  0  0  0  0  0  0  0  0
   -1.1994   -1.0955    1.9420 C   0  0  0  0  0  0  0  0  0  0  0  0
    0.0599   -3.2790   -1.6895 H   0  0  0  0  0  0  0  0  0  0  0  0
    0.0599   -1.4307   -1.6858 H   0  0  0  0  0  0  0  0  0  0  0  0
    0.0599   -3.3086    0.7328 H   0  0  0  0  0  0  0  0  0  0  0  0
    0.0599   -0.0795    0.2939 H   0  0  0  0  0  0  0  0  0  0  0  0
    2.2208   -1.0896    1.3278 H   0  0  0  0  0  0  0  0  0  0  0  0
    1.3638   -1.9693    2.5978 H   0  0  0  0  0  0  0  0  0  0  0  0
    1.3268   -0.2043    2.5730 H   0  0  0  0  0  0  0  0  0  0  0  0
   -1.2440   -1.9693    2.5978 H   0  0  0  0  0  0  0  0  0  0  0  0
   -2.1009   -1.0896    1.3278 H   0  0  0  0  0  0  0  0  0  0  0  0
   -1.2069   -0.2043    2.5730 H   0  0  0  0  0  0  0  0  0  0  0  0
  1  2  2  3
  1  7  1  0
  1  8  1  0
  2  3  1  0
  2  9  1  0
  3  4  1  0
  3  5  1  0
  4 10  1  0
  4 11  1  0
  4 12  1  0
  5  6  2  3
  5 13  1  0
  6 14  1  0
  6 15  1  0
 16 17  2  3
 16 21  1  0
 16 22  1  0
 17 18  1  0
 17 23  1  0
 18 19  1  0
 18 20  1  0
 18 24  1  0
 19 25  1  0
 19 26  1  0
 19 27  1  0
 20 28  1  0
 20 29  1  0
 20 30  1  0
M  RAD  1   3   2
M  END
>  <reaction>  (13) 
rxn_1089

>  <mol_properties>  (13) 
{"1": {"label": "*0", "atom_type": "Cd"}, "2": {"label": "*1", "atom_type": "Cs"}, "16": {"label": "*4", "atom_type": "Cd"}, "17": {"label": "*3", "atom_type": "Cs"}, "23": {"label": "*2", "atom_type": "H0"}}

>  <type>  (13) 
unop_9

>  <geom_source>  (13) 
Heuristics

$$$$

     RDKit          3D

 30 28  0  0  0  0  0  0  0  0999 V2000
    2.4356    1.2337   -0.1199 C   0  0  0  0  0  0  0  0  0  0  0  0
    1.2594    1.7550   -0.4290 C   0  0  0  0  0  0  0  0  0  0  0  0
    0.0137    0.9663   -0.7406 C   0  0  0  0  0  3  0  0  0  0  0  0
   -0.4814    1.2760   -2.1507 C   0  0  0  0  0  0  0  0  0  0  0  0
   -1.0103    1.2163    0.3389 C   0  0  0  0  0  0  0  0  0  0  0  0
   -2.2178    1.7359    0.1813 C   0  0  0  0  0  0  0  0  0  0  0  0
    3.2937    1.8583    0.0945 H   0  0  0  0  0  0  0  0  0  0  0  0
    2.5833    0.1599   -0.0710 H   0  0  0  0  0  0  0  0  0  0  0  0
    1.1436    2.8361   -0.4667 H   0  0  0  0  0  0  0  0  0  0  0  0
   -1.3758    0.6981   -2.3894 H   0  0  0  0  0  0  0  0  0  0  0  0
    0.2903    1.0326   -2.8813 H   0  0  0  0  0  0  0  0  0  0  0  0
   -0.7230    2.3359   -2.2591 H   0  0  0  0  0  0  0  0  0  0  0  0
   -0.6820    0.9444    1.3387 H   0  0  0  0  0  0  0  0  0  0  0  0
   -2.5998    2.0313   -0.7884 H   0  0  0  0  0  0  0  0  0  0  0  0
   -2.8753    1.8826    1.0289 H   0  0  0  0  0  0  0  0  0  0  0  0
    0.0137   -2.3694   -1.3741 C   0  0  0  0  0  0  0  0  0  0  0  0
    0.0137   -2.3694   -0.0506 C   0  0  0  0  0  0  0  0  0  0  0  0
    0.0137   -1.1480    0.8214 C   0  0  0  0  0  0  0  0  0  0  0  0
    1.2730   -1.1076    1.6891 C   0  0  0  0  0  0  0  0  0  0  0  0
   -1.2456   -1.1076    1.6891 C   0  0  0  0  0  0  0  0  0  0  0  0
    0.0137   -3.2911   -1.9424 H   0  0  0  0  0  0  0  0  0  0  0  0
    0.0137   -1.4428   -1.9387 H   0  0  0  0  0  0  0  0  0  0  0  0
    0.0137   -3.3207    0.4799 H   0  0  0  0  0  0  0  0  0  0  0  0
    0.0137   -0.0916    0.0410 H   0  0  0  0  0  0  0  0  0  0  0  0
    2.1746   -1.1017    1.0749 H   0  0  0  0  0  0  0  0  0  0  0  0
    1.3176   -1.9814    2.3449 H   0  0  0  0  0  0  0  0  0  0  0  0
    1.2806   -0.2164    2.3201 H   0  0  0  0  0  0  0  0  0  0  0  0
   -1.2902   -1.9814    2.3449 H   0  0  0  0  0  0  0  0  0  0  0  0
   -2.1471   -1.1017    1.0749 H   0  0  0  0  0  0  0  0  0  0  0  0
   -1.2531   -0.2164    2.3201 H   0  0  0  0  0  0  0  0  0  0  0  0
  1  2  2  3
  1  7  1  0
  1  8  1  0
  2  3  1  0
  2  9  1  0
  3  4  1  0
  3  5  1  0
  4 10  1  0
  4 11  1  0
  4 12  1  0
  5  6  2  3
  5 13  1  0
  6 14  1  0
  6 15  1  0
 16 17  2  3
 16 21  1  0
 16 22  1  0
 17 18  1  0
 17 23  1  0
 18 19  1  0
 18 20  1  0
 18 24  1  0
 19 25  1  0
 19 26  1  0
 19 27  1  0
 20 28  1  0
 20 29  1  0
 20 30  1  0
M  RAD  1   3   2
M  END
>  <reaction>  (14) 
rxn_1089

>  <mol_properties>  (14) 
{"1": {"label": "*0", "atom_type": "Cd"}, "2": {"label": "*1", "atom_type": "Cs"}, "16": {"label": "*4", "atom_type": "Cd"}, "17": {"label": "*3", "atom_type": "Cs"}, "23": {"label": "*2", "atom_type": "H0"}}

>  <type>  (14) 
unop_10

>  <geom_source>  (14) 
Heuristics

$$$$

     RDKit          3D

 30 27  0  0  0  0  0  0  0  0999 V2000
   -0.9332   -0.5721   -2.1037 C   0  0  0  0  0  2  0  0  0  0  0  0
   -0.7367    0.6652   -1.6778 C   0  0  0  0  0  3  0  0  0  0  0  0
   -0.0176    1.0441   -0.4090 C   0  0  0  0  0  0  0  0  0  0  0  0
   -0.9420    1.8239    0.5220 C   0  0  0  0  0  0  0  0  0  0  0  0
    1.2551    1.7729   -0.7631 C   0  0  0  0  0  0  0  0  0  0  0  0
    1.5841    3.0078   -0.4171 C   0  0  0  0  0  0  0  0  0  0  0  0
   -1.4590   -0.7766   -3.0278 H   0  0  0  0  0  0  0  0  0  0  0  0
   -0.5748   -1.4277   -1.5409 H   0  0  0  0  0  0  0  0  0  0  0  0
   -1.1063    1.5017   -2.2672 H   0  0  0  0  0  0  0  0  0  0  0  0
   -0.4327    2.0901    1.4497 H   0  0  0  0  0  0  0  0  0  0  0  0
   -1.8176    1.2237    0.7705 H   0  0  0  0  0  0  0  0  0  0  0  0
   -1.2905    2.7452    0.0494 H   0  0  0  0  0  0  0  0  0  0  0  0
    1.9421    1.1998   -1.3801 H   0  0  0  0  0  0  0  0  0  0  0  0
    0.9397    3.6305    0.1918 H   0  0  0  0  0  0  0  0  0  0  0  0
    2.5239    3.4426   -0.7334 H   0  0  0  0  0  0  0  0  0  0  0  0
   -0.0176   -2.2917   -1.0425 C   0  0  0  0  0  0  0  0  0  0  0  0
   -0.0176   -2.2917    0.2810 C   0  0  0  0  0  0  0  0  0  0  0  0
   -0.0176   -1.0703    1.1530 C   0  0  0  0  0  0  0  0  0  0  0  0
    1.2417   -1.0298    2.0207 C   0  0  0  0  0  0  0  0  0  0  0  0
   -1.2769   -1.0298    2.0207 C   0  0  0  0  0  0  0  0  0  0  0  0
   -0.0176   -3.2134   -1.6108 H   0  0  0  0  0  0  0  0  0  0  0  0
   -0.0176   -1.3651   -1.6071 H   0  0  0  0  0  0  0  0  0  0  0  0
   -0.0176   -3.2430    0.8115 H   0  0  0  0  0  0  0  0  0  0  0  0
   -0.0176   -0.0139    0.3726 H   0  0  0  0  0  0  0  0  0  0  0  0
    2.1433   -1.0240    1.4065 H   0  0  0  0  0  0  0  0  0  0  0  0
    1.2863   -1.9037    2.6765 H   0  0  0  0  0  0  0  0  0  0  0  0
    1.2493   -0.1386    2.6517 H   0  0  0  0  0  0  0  0  0  0  0  0
   -1.3215   -1.9037    2.6765 H   0  0  0  0  0  0  0  0  0  0  0  0
   -2.1784   -1.0239    1.4065 H   0  0  0  0  0  0  0  0  0  0  0  0
   -1.2844   -0.1386    2.6517 H   0  0  0  0  0  0  0  0  0  0  0  0
  1  7  1  0
  1  8  1  0
  2  3  2  3
  2  9  1  0
  3  4  1  0
  3  5  1  0
  4 10  1  0
  4 11  1  0
  4 12  1  0
  5  6  2  3
  5 13  1  0
  6 14  1  0
  6 15  1  0
 16 17  2  3
 16 21  1  0
 16 22  1  0
 17 18  1  0
 17 23  1  0
 18 19  1  0
 18 20  1  0
 18 24  1  0
 19 25  1  0
 19 26  1  0
 19 27  1  0
 20 28  1  0
 20 29  1  0
 20 30  1  0
M  RAD  2   1   3   2   2
M  END
>  <reaction>  (15) 
rxn_1089

>  <mol_properties>  (15) 
{"1": {"label": "*0", "atom_type": "Cd"}, "2": {"label": "*1", "atom_type": "Cs"}, "16": {"label": "*4", "atom_type": "Cd"}, "17": {"label": "*3", "atom_type": "Cs"}, "23": {"label": "*2", "atom_type": "H0"}}

>  <type>  (15) 
unop_11

>  <geom_source>  (15) 
Heuristics

$$$$

     RDKit          3D

 30 26  0  0  0  0  0  0  0  0999 V2000
    1.0121   -0.0979    0.5424 C   0  0  0  0  0  3  0  0  0  0  0  0
    0.6530    0.2704    1.9828 C   0  0  0  0  0  0  0  0  0  0  0  0
   -0.8263   -1.0944   -0.8147 C   0  0  0  0  0  3  0  0  0  0  0  0
   -2.0427    0.8775   -1.8201 C   0  0  0  0  0  0  0  0  0  0  0  0
   -1.2599    0.3591   -0.6129 C   0  0  0  0  0  2  0  0  0  0  0  0
    1.9373    0.9439   -0.0332 C   0  0  0  0  0  0  0  0  0  0  0  0
    1.6721   -1.4521    0.4875 C   0  0  0  0  0  0  0  0  0  0  0  0
   -2.0496    0.5187    0.6594 C   0  0  0  0  0  0  0  0  0  0  0  0
    1.6312    1.6207   -1.1432 C   0  0  0  0  0  0  0  0  0  0  0  0
    1.8157   -2.1053   -0.6690 C   0  0  0  0  0  0  0  0  0  0  0  0
   -1.4394    0.5386    1.8463 C   0  0  0  0  0  3  0  0  0  0  0  0
   -0.1226   -0.1532   -0.1475 H   0  0  0  0  0  0  0  0  0  0  0  0
    0.1433    1.2573    2.0051 H   0  0  0  0  0  0  0  0  0  0  0  0
    1.5637    0.3208    2.6187 H   0  0  0  0  0  0  0  0  0  0  0  0
   -0.0405   -0.4873    2.4057 H   0  0  0  0  0  0  0  0  0  0  0  0
   -1.7132   -1.7587   -0.9009 H   0  0  0  0  0  0  0  0  0  0  0  0
   -0.2042   -1.4298    0.0417 H   0  0  0  0  0  0  0  0  0  0  0  0
   -0.2156   -1.1829   -1.7379 H   0  0  0  0  0  0  0  0  0  0  0  0
   -2.9698    0.2837   -1.9722 H   0  0  0  0  0  0  0  0  0  0  0  0
   -2.3150    1.9429   -1.6637 H   0  0  0  0  0  0  0  0  0  0  0  0
   -1.4156    0.8116   -2.7341 H   0  0  0  0  0  0  0  0  0  0  0  0
    2.8865    1.1395    0.4587 H   0  0  0  0  0  0  0  0  0  0  0  0
    2.0344   -1.9189    1.3999 H   0  0  0  0  0  0  0  0  0  0  0  0
   -3.1280    0.6471    0.6187 H   0  0  0  0  0  0  0  0  0  0  0  0
    2.3234    2.3585   -1.5353 H   0  0  0  0  0  0  0  0  0  0  0  0
    0.6979    1.4480   -1.6698 H   0  0  0  0  0  0  0  0  0  0  0  0
    2.2904   -3.0809   -0.6868 H   0  0  0  0  0  0  0  0  0  0  0  0
    1.4634   -1.6740   -1.6013 H   0  0  0  0  0  0  0  0  0  0  0  0
   -2.0204    0.6669    2.7538 H   0  0  0  0  0  0  0  0  0  0  0  0
   -0.3615    0.4303    1.9218 H   0  0  0  0  0  0  0  0  0  0  0  0
  1  6  1  0
  1  7  1  0
  1 12  1  0
  2 13  1  0
  2 14  1  0
  2 15  1  0
  2 30  1  0
  3 16  1  0
  3 17  1  0
  3 18  1  0
  4  5  1  0
  4 19  1  0
  4 20  1  0
  4 21  1  0
  5  8  1  0
  6  9  2  3
  6 22  1  0
  7 10  2  3
  7 23  1  0
  8 11  2  3
  8 24  1  0
  9 25  1  0
  9 26  1  0
 10 27  1  0
 10 28  1  0
 11 29  1  0
M  CHG  2   5   1  11  -1
M  RAD  3   1   2   3   2   5   2
M  END
>  <reaction>  (16) 
rxn_1089

>  <mol_properties>  (16) 
{"1": {"label": "*0", "atom_type": "Cd"}, "2": {"label": "*1", "atom_type": "Cs"}, "16": {"label": "*4", "atom_type": "Cd"}, "17": {"label": "*3", "atom_type": "Cs"}, "23": {"label": "*2", "atom_type": "H0"}}

>  <type>  (16) 
unop_12

>  <geom_source>  (16) 
AutoTST

$$$$

     RDKit          3D

 30 28  0  0  0  0  0  0  0  0999 V2000
   -1.7641   -0.1677   -1.7260 C   0  0  0  0  0  0  0  0  0  0  0  0
   -1.1967    0.9446   -1.2880 C   0  0  0  0  0  0  0  0  0  0  0  0
    0.0489    1.0106   -0.4426 C   0  0  0  0  0  3  0  0  0  0  0  0
   -0.2407    1.6939    0.8910 C   0  0  0  0  0  0  0  0  0  0  0  0
    1.1514    1.6623   -1.2402 C   0  0  0  0  0  0  0  0  0  0  0  0
    1.8019    2.7738   -0.9328 C   0  0  0  0  0  0  0  0  0  0  0  0
   -2.6610   -0.1457   -2.3322 H   0  0  0  0  0  0  0  0  0  0  0  0
   -1.3510   -1.1434   -1.4924 H   0  0  0  0  0  0  0  0  0  0  0  0
   -1.6344    1.9076   -1.5425 H   0  0  0  0  0  0  0  0  0  0  0  0
    0.6536    1.7332    1.5153 H   0  0  0  0  0  0  0  0  0  0  0  0
   -1.0139    1.1480    1.4322 H   0  0  0  0  0  0  0  0  0  0  0  0
   -0.5952    2.7162    0.7407 H   0  0  0  0  0  0  0  0  0  0  0  0
    1.3998    1.1471   -2.1644 H   0  0  0  0  0  0  0  0  0  0  0  0
    1.5963    3.3347   -0.0291 H   0  0  0  0  0  0  0  0  0  0  0  0
    2.5749    3.1639   -1.5828 H   0  0  0  0  0  0  0  0  0  0  0  0
    0.0489   -2.3251   -1.0762 C   0  0  0  0  0  0  0  0  0  0  0  0
    0.0489   -2.3251    0.2473 C   0  0  0  0  0  0  0  0  0  0  0  0
    0.0489   -1.1037    1.1194 C   0  0  0  0  0  0  0  0  0  0  0  0
    1.3082   -1.0633    1.9870 C   0  0  0  0  0  0  0  0  0  0  0  0
   -1.2104   -1.0633    1.9870 C   0  0  0  0  0  0  0  0  0  0  0  0
    0.0489   -3.2468   -1.6444 H   0  0  0  0  0  0  0  0  0  0  0  0
    0.0489   -1.3985   -1.6407 H   0  0  0  0  0  0  0  0  0  0  0  0
    0.0489   -3.2764    0.7779 H   0  0  0  0  0  0  0  0  0  0  0  0
    0.0489   -0.0473    0.3389 H   0  0  0  0  0  0  0  0  0  0  0  0
    2.2098   -1.0574    1.3728 H   0  0  0  0  0  0  0  0  0  0  0  0
    1.3528   -1.9371    2.6428 H   0  0  0  0  0  0  0  0  0  0  0  0
    1.3158   -0.1721    2.6180 H   0  0  0  0  0  0  0  0  0  0  0  0
   -1.2550   -1.9371    2.6428 H   0  0  0  0  0  0  0  0  0  0  0  0
   -2.1119   -1.0574    1.3728 H   0  0  0  0  0  0  0  0  0  0  0  0
   -1.2179   -0.1721    2.6180 H   0  0  0  0  0  0  0  0  0  0  0  0
  1  2  2  3
  1  7  1  0
  1  8  1  0
  2  3  1  0
  2  9  1  0
  3  4  1  0
  3  5  1  0
  4 10  1  0
  4 11  1  0
  4 12  1  0
  5  6  2  3
  5 13  1  0
  6 14  1  0
  6 15  1  0
 16 17  2  3
 16 21  1  0
 16 22  1  0
 17 18  1  0
 17 23  1  0
 18 19  1  0
 18 20  1  0
 18 24  1  0
 19 25  1  0
 19 26  1  0
 19 27  1  0
 20 28  1  0
 20 29  1  0
 20 30  1  0
M  RAD  1   3   2
M  END
>  <reaction>  (17) 
rxn_1089

>  <mol_properties>  (17) 
{"1": {"label": "*0", "atom_type": "Cd"}, "2": {"label": "*1", "atom_type": "Cs"}, "16": {"label": "*4", "atom_type": "Cd"}, "17": {"label": "*3", "atom_type": "Cs"}, "23": {"label": "*2", "atom_type": "H0"}}

>  <type>  (17) 
unop_13

>  <geom_source>  (17) 
gaussian_log

$$$$
