
     RDKit          3D

  7  6  0  0  0  0  0  0  0  0999 V2000
    1.1790    0.0623    0.2249 N   0  0  0  0  0  0  0  0  0  0  0  0
    0.0806   -0.7371    0.2750 N   0  0  0  0  0  0  0  0  0  0  0  0
    0.2345   -1.9592    0.5674 C   0  0  0  0  0  0  0  0  0  0  0  0
    1.0160    0.8617   -0.3633 H   0  0  0  0  0  0  0  0  0  0  0  0
    2.0560   -0.4061    0.0238 H   0  0  0  0  0  0  0  0  0  0  0  0
   -0.6510   -2.5755    0.6538 H   0  0  0  0  0  0  0  0  0  0  0  0
    1.2139   -2.4141    0.7430 H   0  0  0  0  0  0  0  0  0  0  0  0
  1  2  1  0
  1  4  1  0
  1  5  1  0
  2  3  2  3
  3  6  1  0
  3  7  1  0
M  END
>  <reaction>  (1) 
rxn_723

>  <mol_properties>  (1) 
{"0": {"label": "donator", "atom_type": "N3s"}, "3": {"label": "d_hydrogen", "atom_type": "H0"}}

>  <type>  (1) 
r1h

$$$$

     RDKit          3D

  3  2  0  0  0  0  0  0  0  0999 V2000
    0.9943   -0.1797    0.0000 O   0  0  0  0  0  1  0  0  0  0  0  0
   -0.1595    0.4394    0.0000 O   0  0  0  0  0  0  0  0  0  0  0  0
   -0.8348   -0.2597    0.0000 H   0  0  0  0  0  0  0  0  0  0  0  0
  1  2  1  0
  2  3  1  0
M  RAD  1   1   2
M  END
>  <reaction>  (2) 
rxn_723

>  <mol_properties>  (2) 
{"0": {"label": "acceptor", "atom_type": "O2s"}}

>  <type>  (2) 
r2

$$$$

     RDKit          3D

  4  3  0  0  0  0  0  0  0  0999 V2000
    0.5949   -0.3853    0.2659 O   0  0  0  0  0  0  0  0  0  0  0  0
   -0.5918    0.4028    0.2462 O   0  0  0  0  0  0  0  0  0  0  0  0
    1.1865    0.1539   -0.2689 H   0  0  0  0  0  0  0  0  0  0  0  0
   -1.1896   -0.1714   -0.2432 H   0  0  0  0  0  0  0  0  0  0  0  0
  1  2  1  0
  1  3  1  0
  2  4  1  0
M  END
>  <reaction>  (3) 
rxn_723

>  <mol_properties>  (3) 
{"0": {"label": "acceptor", "atom_type": "O2s"}, "3": {"label": "a_hydrogen", "atom_type": "H0"}}

>  <type>  (3) 
r2h

$$$$

     RDKit          3D

 10  8  0  0  0  0  0  0  0  0999 V2000
   -0.0927    0.6786    1.7620 O   0  0  0  0  0  0  0  0  0  0  0  0
   -0.4844   -0.6375    1.6713 O   0  0  0  0  0  0  0  0  0  0  0  0
    0.3477   -1.1210    1.5922 H   0  0  0  0  0  0  0  0  0  0  0  0
    0.2432    1.1127   -0.5768 N   0  0  0  0  0  2  0  0  0  0  0  0
    0.4242   -0.1166   -1.0336 N   0  0  0  0  0  0  0  0  0  0  0  0
    0.3730   -0.4408   -2.2578 C   0  0  0  0  0  0  0  0  0  0  0  0
    0.1666    1.0089    0.6737 H   0  0  0  0  0  0  0  0  0  0  0  0
   -0.6453    1.4983   -0.9018 H   0  0  0  0  0  0  0  0  0  0  0  0
    0.5232   -1.4815   -2.5144 H   0  0  0  0  0  0  0  0  0  0  0  0
    0.2078    0.2890   -3.0512 H   0  0  0  0  0  0  0  0  0  0  0  0
  1  2  1  0
  1  7  1  0
  2  3  1  0
  4  5  1  0
  4  8  1  0
  5  6  2  3
  6  9  1  0
  6 10  1  0
M  RAD  1   4   2
M  END
>  <reaction>  (4) 
rxn_723

>  <mol_properties>  (4) 
{"0": {"label": "*1", "atom_type": "O2s"}, "1": {"label": "*0", "atom_type": "O2s"}, "3": {"label": "*3", "atom_type": "N3s"}, "4": {"label": "*4", "atom_type": "N3d"}, "6": {"label": "*2", "atom_type": "H0"}}

>  <type>  (4) 
ts

$$$$

     RDKit          3D

 10  8  0  0  0  0  0  0  0  0999 V2000
   -0.7396    0.1929    1.5450 O   0  0  0  0  0  0  0  0  0  0  0  0
    0.3651    0.6167    2.3385 O   0  0  0  0  0  0  0  0  0  0  0  0
    0.3436    1.5685    2.1959 H   0  0  0  0  0  0  0  0  0  0  0  0
    0.1474    0.4154   -0.6328 N   0  0  0  0  0  2  0  0  0  0  0  0
    0.1474   -0.7786   -1.2826 N   0  0  0  0  0  0  0  0  0  0  0  0
    0.1474   -0.7786   -2.5487 C   0  0  0  0  0  0  0  0  0  0  0  0
   -0.3058    0.3017    0.4799 H   0  0  0  0  0  0  0  0  0  0  0  0
   -0.2495    1.1958   -1.1452 H   0  0  0  0  0  0  0  0  0  0  0  0
    0.1980   -1.7333   -3.0560 H   0  0  0  0  0  0  0  0  0  0  0  0
    0.1069    0.1362   -3.1473 H   0  0  0  0  0  0  0  0  0  0  0  0
  1  2  1  0
  1  7  1  0
  2  3  1  0
  4  5  1  0
  4  8  1  0
  5  6  2  3
  6  9  1  0
  6 10  1  0
M  RAD  1   4   2
M  END
>  <reaction>  (5) 
rxn_723

>  <mol_properties>  (5) 
{"0": {"label": "*1", "atom_type": "O2s"}, "1": {"label": "*0", "atom_type": "O2s"}, "3": {"label": "*3", "atom_type": "N3s"}, "4": {"label": "*4", "atom_type": "N3d"}, "6": {"label": "*2", "atom_type": "H0"}}

>  <type>  (5) 
unop_1

>  <geom_source>  (5) 
Heuristics

$$$$

     RDKit          3D

 10  8  0  0  0  0  0  0  0  0999 V2000
   -0.5868    0.5935    1.6438 O   0  0  0  0  0  0  0  0  0  0  0  0
   -0.2253   -0.7491    1.9542 O   0  0  0  0  0  0  0  0  0  0  0  0
    0.6143   -0.6170    2.4062 H   0  0  0  0  0  0  0  0  0  0  0  0
    0.3001    0.8160   -0.5340 N   0  0  0  0  0  2  0  0  0  0  0  0
    0.3001   -0.3780   -1.1838 N   0  0  0  0  0  0  0  0  0  0  0  0
    0.3001   -0.3780   -2.4498 C   0  0  0  0  0  0  0  0  0  0  0  0
   -0.1531    0.7023    0.5788 H   0  0  0  0  0  0  0  0  0  0  0  0
   -0.0967    1.5964   -1.0463 H   0  0  0  0  0  0  0  0  0  0  0  0
    0.3508   -1.3327   -2.9571 H   0  0  0  0  0  0  0  0  0  0  0  0
    0.2597    0.5368   -3.0484 H   0  0  0  0  0  0  0  0  0  0  0  0
  1  2  1  0
  1  7  1  0
  2  3  1  0
  4  5  1  0
  4  8  1  0
  5  6  2  3
  6  9  1  0
  6 10  1  0
M  RAD  1   4   2
M  END
>  <reaction>  (6) 
rxn_723

>  <mol_properties>  (6) 
{"0": {"label": "*1", "atom_type": "O2s"}, "1": {"label": "*0", "atom_type": "O2s"}, "3": {"label": "*3", "atom_type": "N3s"}, "4": {"label": "*4", "atom_type": "N3d"}, "6": {"label": "*2", "atom_type": "H0"}}

>  <type>  (6) 
unop_2

>  <geom_source>  (6) 
Heuristics

$$$$

     RDKit          3D

 10  8  0  0  0  0  0  0  0  0999 V2000
   -0.6454    0.0634    1.5673 O   0  0  0  0  0  0  0  0  0  0  0  0
    0.0646    1.0852    2.2611 O   0  0  0  0  0  0  0  0  0  0  0  0
   -0.4972    1.8491    2.0952 H   0  0  0  0  0  0  0  0  0  0  0  0
    0.2416    0.2859   -0.6105 N   0  0  0  0  0  2  0  0  0  0  0  0
    0.2416   -0.9082   -1.2603 N   0  0  0  0  0  0  0  0  0  0  0  0
    0.2416   -0.9082   -2.5264 C   0  0  0  0  0  0  0  0  0  0  0  0
   -0.2116    0.1722    0.5022 H   0  0  0  0  0  0  0  0  0  0  0  0
   -0.1553    1.0663   -1.1229 H   0  0  0  0  0  0  0  0  0  0  0  0
    0.2922   -1.8628   -3.0337 H   0  0  0  0  0  0  0  0  0  0  0  0
    0.2011    0.0067   -3.1250 H   0  0  0  0  0  0  0  0  0  0  0  0
  1  2  1  0
  1  7  1  0
  2  3  1  0
  4  5  1  0
  4  8  1  0
  5  6  2  3
  6  9  1  0
  6 10  1  0
M  RAD  1   4   2
M  END
>  <reaction>  (7) 
rxn_723

>  <mol_properties>  (7) 
{"0": {"label": "*1", "atom_type": "O2s"}, "1": {"label": "*0", "atom_type": "O2s"}, "3": {"label": "*3", "atom_type": "N3s"}, "4": {"label": "*4", "atom_type": "N3d"}, "6": {"label": "*2", "atom_type": "H0"}}

>  <type>  (7) 
unop_3

>  <geom_source>  (7) 
Heuristics

$$$$

     RDKit          3D

 10  8  0  0  0  0  0  0  0  0999 V2000
   -0.2040    0.4110    1.7705 O   0  0  0  0  0  0  0  0  0  0  0  0
   -1.5167   -0.0650    1.4875 O   0  0  0  0  0  0  0  0  0  0  0  0
   -1.6919   -0.6042    2.2655 H   0  0  0  0  0  0  0  0  0  0  0  0
    0.6829    0.6335   -0.4073 N   0  0  0  0  0  2  0  0  0  0  0  0
    0.6829   -0.5605   -1.0571 N   0  0  0  0  0  0  0  0  0  0  0  0
    0.6829   -0.5605   -2.3231 C   0  0  0  0  0  0  0  0  0  0  0  0
    0.2297    0.5198    0.7055 H   0  0  0  0  0  0  0  0  0  0  0  0
    0.2861    1.4139   -0.9196 H   0  0  0  0  0  0  0  0  0  0  0  0
    0.7336   -1.5152   -2.8304 H   0  0  0  0  0  0  0  0  0  0  0  0
    0.6425    0.3543   -2.9218 H   0  0  0  0  0  0  0  0  0  0  0  0
  1  2  1  0
  1  7  1  0
  2  3  1  0
  4  5  1  0
  4  8  1  0
  5  6  2  3
  6  9  1  0
  6 10  1  0
M  RAD  1   4   2
M  END
>  <reaction>  (8) 
rxn_723

>  <mol_properties>  (8) 
{"0": {"label": "*1", "atom_type": "O2s"}, "1": {"label": "*0", "atom_type": "O2s"}, "3": {"label": "*3", "atom_type": "N3s"}, "4": {"label": "*4", "atom_type": "N3d"}, "6": {"label": "*2", "atom_type": "H0"}}

>  <type>  (8) 
unop_4

>  <geom_source>  (8) 
Heuristics

$$$$

     RDKit          3D

 10  8  0  0  0  0  0  0  0  0999 V2000
   -0.5054    0.0003    1.6118 O   0  0  0  0  0  0  0  0  0  0  0  0
   -0.4081    1.3394    2.0884 O   0  0  0  0  0  0  0  0  0  0  0  0
   -1.3373    1.5711    2.1862 H   0  0  0  0  0  0  0  0  0  0  0  0
    0.3816    0.2228   -0.5660 N   0  0  0  0  0  2  0  0  0  0  0  0
    0.3816   -0.9712   -1.2158 N   0  0  0  0  0  0  0  0  0  0  0  0
    0.3816   -0.9712   -2.4819 C   0  0  0  0  0  0  0  0  0  0  0  0
   -0.0716    0.1091    0.5467 H   0  0  0  0  0  0  0  0  0  0  0  0
   -0.0153    1.0032   -1.0784 H   0  0  0  0  0  0  0  0  0  0  0  0
    0.4323   -1.9259   -2.9892 H   0  0  0  0  0  0  0  0  0  0  0  0
    0.3412   -0.0564   -3.0805 H   0  0  0  0  0  0  0  0  0  0  0  0
  1  2  1  0
  1  7  1  0
  2  3  1  0
  4  5  1  0
  4  8  1  0
  5  6  2  3
  6  9  1  0
  6 10  1  0
M  RAD  1   4   2
M  END
>  <reaction>  (9) 
rxn_723

>  <mol_properties>  (9) 
{"0": {"label": "*1", "atom_type": "O2s"}, "1": {"label": "*0", "atom_type": "O2s"}, "3": {"label": "*3", "atom_type": "N3s"}, "4": {"label": "*4", "atom_type": "N3d"}, "6": {"label": "*2", "atom_type": "H0"}}

>  <type>  (9) 
unop_5

>  <geom_source>  (9) 
Heuristics

$$$$

     RDKit          3D

 10  8  0  0  0  0  0  0  0  0999 V2000
   -0.1855    0.2514    1.7611 O   0  0  0  0  0  0  0  0  0  0  0  0
   -1.5689    0.4939    1.5227 O   0  0  0  0  0  0  0  0  0  0  0  0
   -1.9704    0.0347    2.2674 H   0  0  0  0  0  0  0  0  0  0  0  0
    0.7015    0.4738   -0.4167 N   0  0  0  0  0  2  0  0  0  0  0  0
    0.7015   -0.7202   -1.0665 N   0  0  0  0  0  0  0  0  0  0  0  0
    0.7015   -0.7202   -2.3325 C   0  0  0  0  0  0  0  0  0  0  0  0
    0.2483    0.3602    0.6961 H   0  0  0  0  0  0  0  0  0  0  0  0
    0.3047    1.2542   -0.9290 H   0  0  0  0  0  0  0  0  0  0  0  0
    0.7522   -1.6748   -2.8398 H   0  0  0  0  0  0  0  0  0  0  0  0
    0.6611    0.1947   -2.9312 H   0  0  0  0  0  0  0  0  0  0  0  0
  1  2  1  0
  1  7  1  0
  2  3  1  0
  4  5  1  0
  4  8  1  0
  5  6  2  3
  6  9  1  0
  6 10  1  0
M  RAD  1   4   2
M  END
>  <reaction>  (10) 
rxn_723

>  <mol_properties>  (10) 
{"0": {"label": "*1", "atom_type": "O2s"}, "1": {"label": "*0", "atom_type": "O2s"}, "3": {"label": "*3", "atom_type": "N3s"}, "4": {"label": "*4", "atom_type": "N3d"}, "6": {"label": "*2", "atom_type": "H0"}}

>  <type>  (10) 
unop_6

>  <geom_source>  (10) 
Heuristics

$$$$

     RDKit          3D

 10  8  0  0  0  0  0  0  0  0999 V2000
   -0.2432    0.1076    1.7231 O   0  0  0  0  0  0  0  0  0  0  0  0
   -1.3546    0.9967    1.6615 O   0  0  0  0  0  0  0  0  0  0  0  0
   -1.9341    0.6184    2.3305 H   0  0  0  0  0  0  0  0  0  0  0  0
    0.6438    0.3301   -0.4547 N   0  0  0  0  0  2  0  0  0  0  0  0
    0.6438   -0.8639   -1.1045 N   0  0  0  0  0  0  0  0  0  0  0  0
    0.6438   -0.8639   -2.3706 C   0  0  0  0  0  0  0  0  0  0  0  0
    0.1906    0.2164    0.6580 H   0  0  0  0  0  0  0  0  0  0  0  0
    0.2469    1.1105   -0.9671 H   0  0  0  0  0  0  0  0  0  0  0  0
    0.6945   -1.8186   -2.8778 H   0  0  0  0  0  0  0  0  0  0  0  0
    0.6034    0.0509   -2.9692 H   0  0  0  0  0  0  0  0  0  0  0  0
  1  2  1  0
  1  7  1  0
  2  3  1  0
  4  5  1  0
  4  8  1  0
  5  6  2  3
  6  9  1  0
  6 10  1  0
M  RAD  1   4   2
M  END
>  <reaction>  (11) 
rxn_723

>  <mol_properties>  (11) 
{"0": {"label": "*1", "atom_type": "O2s"}, "1": {"label": "*0", "atom_type": "O2s"}, "3": {"label": "*3", "atom_type": "N3s"}, "4": {"label": "*4", "atom_type": "N3d"}, "6": {"label": "*2", "atom_type": "H0"}}

>  <type>  (11) 
unop_7

>  <geom_source>  (11) 
Heuristics

$$$$

     RDKit          3D

 10  8  0  0  0  0  0  0  0  0999 V2000
   -0.7612    0.3527    1.5528 O   0  0  0  0  0  0  0  0  0  0  0  0
    0.4143    0.0580    2.3018 O   0  0  0  0  0  0  0  0  0  0  0  0
    0.8507    0.9160    2.3103 H   0  0  0  0  0  0  0  0  0  0  0  0
    0.1258    0.5752   -0.6250 N   0  0  0  0  0  2  0  0  0  0  0  0
    0.1258   -0.6188   -1.2747 N   0  0  0  0  0  0  0  0  0  0  0  0
    0.1258   -0.6188   -2.5408 C   0  0  0  0  0  0  0  0  0  0  0  0
   -0.3274    0.4615    0.4878 H   0  0  0  0  0  0  0  0  0  0  0  0
   -0.2711    1.3556   -1.1373 H   0  0  0  0  0  0  0  0  0  0  0  0
    0.1764   -1.5735   -3.0481 H   0  0  0  0  0  0  0  0  0  0  0  0
    0.0853    0.2960   -3.1394 H   0  0  0  0  0  0  0  0  0  0  0  0
  1  2  1  0
  1  7  1  0
  2  3  1  0
  4  5  1  0
  4  8  1  0
  5  6  2  3
  6  9  1  0
  6 10  1  0
M  RAD  1   4   2
M  END
>  <reaction>  (12) 
rxn_723

>  <mol_properties>  (12) 
{"0": {"label": "*1", "atom_type": "O2s"}, "1": {"label": "*0", "atom_type": "O2s"}, "3": {"label": "*3", "atom_type": "N3s"}, "4": {"label": "*4", "atom_type": "N3d"}, "6": {"label": "*2", "atom_type": "H0"}}

>  <type>  (12) 
unop_8

>  <geom_source>  (12) 
Heuristics

$$$$

     RDKit          3D

 10  8  0  0  0  0  0  0  0  0999 V2000
   -0.2959    0.5430    1.7486 O   0  0  0  0  0  0  0  0  0  0  0  0
   -1.2139   -0.5310    1.5653 O   0  0  0  0  0  0  0  0  0  0  0  0
   -1.0268   -1.0712    2.3397 H   0  0  0  0  0  0  0  0  0  0  0  0
    0.5911    0.7655   -0.4292 N   0  0  0  0  0  2  0  0  0  0  0  0
    0.5911   -0.4285   -1.0790 N   0  0  0  0  0  0  0  0  0  0  0  0
    0.5911   -0.4285   -2.3451 C   0  0  0  0  0  0  0  0  0  0  0  0
    0.1379    0.6518    0.6835 H   0  0  0  0  0  0  0  0  0  0  0  0
    0.1942    1.5459   -0.9416 H   0  0  0  0  0  0  0  0  0  0  0  0
    0.6417   -1.3832   -2.8524 H   0  0  0  0  0  0  0  0  0  0  0  0
    0.5506    0.4863   -2.9437 H   0  0  0  0  0  0  0  0  0  0  0  0
  1  2  1  0
  1  7  1  0
  2  3  1  0
  4  5  1  0
  4  8  1  0
  5  6  2  3
  6  9  1  0
  6 10  1  0
M  RAD  1   4   2
M  END
>  <reaction>  (13) 
rxn_723

>  <mol_properties>  (13) 
{"0": {"label": "*1", "atom_type": "O2s"}, "1": {"label": "*0", "atom_type": "O2s"}, "3": {"label": "*3", "atom_type": "N3s"}, "4": {"label": "*4", "atom_type": "N3d"}, "6": {"label": "*2", "atom_type": "H0"}}

>  <type>  (13) 
unop_9

>  <geom_source>  (13) 
Heuristics

$$$$

     RDKit          3D

 10  8  0  0  0  0  0  0  0  0999 V2000
   -0.7053    0.4993    1.5892 O   0  0  0  0  0  0  0  0  0  0  0  0
    0.1982   -0.4420    2.1613 O   0  0  0  0  0  0  0  0  0  0  0  0
    0.9475    0.1235    2.3743 H   0  0  0  0  0  0  0  0  0  0  0  0
    0.1817    0.7217   -0.5886 N   0  0  0  0  0  2  0  0  0  0  0  0
    0.1817   -0.4723   -1.2384 N   0  0  0  0  0  0  0  0  0  0  0  0
    0.1817   -0.4723   -2.5044 C   0  0  0  0  0  0  0  0  0  0  0  0
   -0.2715    0.6081    0.5241 H   0  0  0  0  0  0  0  0  0  0  0  0
   -0.2152    1.5021   -1.1010 H   0  0  0  0  0  0  0  0  0  0  0  0
    0.2324   -1.4270   -3.0117 H   0  0  0  0  0  0  0  0  0  0  0  0
    0.1413    0.4426   -3.1031 H   0  0  0  0  0  0  0  0  0  0  0  0
  1  2  1  0
  1  7  1  0
  2  3  1  0
  4  5  1  0
  4  8  1  0
  5  6  2  3
  6  9  1  0
  6 10  1  0
M  RAD  1   4   2
M  END
>  <reaction>  (14) 
rxn_723

>  <mol_properties>  (14) 
{"0": {"label": "*1", "atom_type": "O2s"}, "1": {"label": "*0", "atom_type": "O2s"}, "3": {"label": "*3", "atom_type": "N3s"}, "4": {"label": "*4", "atom_type": "N3d"}, "6": {"label": "*2", "atom_type": "H0"}}

>  <type>  (14) 
unop_10

>  <geom_source>  (14) 
Heuristics

$$$$

     RDKit          3D

 10  8  0  0  0  0  0  0  0  0999 V2000
   -0.3598    0.0170    1.6678 O   0  0  0  0  0  0  0  0  0  0  0  0
   -0.9293    1.3075    1.8680 O   0  0  0  0  0  0  0  0  0  0  0  0
   -1.7354    1.0843    2.3444 H   0  0  0  0  0  0  0  0  0  0  0  0
    0.5272    0.2395   -0.5100 N   0  0  0  0  0  2  0  0  0  0  0  0
    0.5272   -0.9546   -1.1597 N   0  0  0  0  0  0  0  0  0  0  0  0
    0.5272   -0.9546   -2.4258 C   0  0  0  0  0  0  0  0  0  0  0  0
    0.0740    0.1258    0.6028 H   0  0  0  0  0  0  0  0  0  0  0  0
    0.1303    1.0199   -1.0223 H   0  0  0  0  0  0  0  0  0  0  0  0
    0.5778   -1.9092   -2.9331 H   0  0  0  0  0  0  0  0  0  0  0  0
    0.4867   -0.0397   -3.0244 H   0  0  0  0  0  0  0  0  0  0  0  0
  1  2  1  0
  1  7  1  0
  2  3  1  0
  4  5  1  0
  4  8  1  0
  5  6  2  3
  6  9  1  0
  6 10  1  0
M  RAD  1   4   2
M  END
>  <reaction>  (15) 
rxn_723

>  <mol_properties>  (15) 
{"0": {"label": "*1", "atom_type": "O2s"}, "1": {"label": "*0", "atom_type": "O2s"}, "3": {"label": "*3", "atom_type": "N3s"}, "4": {"label": "*4", "atom_type": "N3d"}, "6": {"label": "*2", "atom_type": "H0"}}

>  <type>  (15) 
unop_11

>  <geom_source>  (15) 
Heuristics

$$$$

     RDKit          3D

 10  8  0  0  0  0  0  0  0  0999 V2000
   -0.4368    0.6100    1.7020 O   0  0  0  0  0  0  0  0  0  0  0  0
   -0.7419   -0.7812    1.7358 O   0  0  0  0  0  0  0  0  0  0  0  0
   -0.1261   -1.0915    2.4075 H   0  0  0  0  0  0  0  0  0  0  0  0
    0.4502    0.8325   -0.4758 N   0  0  0  0  0  2  0  0  0  0  0  0
    0.4502   -0.3615   -1.1256 N   0  0  0  0  0  0  0  0  0  0  0  0
    0.4502   -0.3615   -2.3916 C   0  0  0  0  0  0  0  0  0  0  0  0
   -0.0030    0.7188    0.6369 H   0  0  0  0  0  0  0  0  0  0  0  0
    0.0533    1.6129   -0.9882 H   0  0  0  0  0  0  0  0  0  0  0  0
    0.5009   -1.3162   -2.8989 H   0  0  0  0  0  0  0  0  0  0  0  0
    0.4098    0.5533   -2.9903 H   0  0  0  0  0  0  0  0  0  0  0  0
  1  2  1  0
  1  7  1  0
  2  3  1  0
  4  5  1  0
  4  8  1  0
  5  6  2  3
  6  9  1  0
  6 10  1  0
M  RAD  1   4   2
M  END
>  <reaction>  (16) 
rxn_723

>  <mol_properties>  (16) 
{"0": {"label": "*1", "atom_type": "O2s"}, "1": {"label": "*0", "atom_type": "O2s"}, "3": {"label": "*3", "atom_type": "N3s"}, "4": {"label": "*4", "atom_type": "N3d"}, "6": {"label": "*2", "atom_type": "H0"}}

>  <type>  (16) 
unop_12

>  <geom_source>  (16) 
Heuristics

$$$$
