
     RDKit          3D

 10  9  0  0  0  0  0  0  0  0999 V2000
   -1.1508    0.0666    0.2839 C   0  0  0  0  0  0  0  0  0  0  0  0
    0.1022   -0.3749   -0.4771 C   0  0  0  0  0  0  0  0  0  0  0  0
    1.3428    0.1620    0.1542 C   0  0  0  0  0  0  0  0  0  0  0  0
    2.5613   -0.6971    0.7526 S   0  0  0  0  0  0  0  0  0  0  0  0
   -1.2137    1.1546    0.3481 H   0  0  0  0  0  0  0  0  0  0  0  0
   -2.0472   -0.2935   -0.2212 H   0  0  0  0  0  0  0  0  0  0  0  0
   -1.1467   -0.3334    1.2987 H   0  0  0  0  0  0  0  0  0  0  0  0
    0.1602   -1.4616   -0.5369 H   0  0  0  0  0  0  0  0  0  0  0  0
    0.0536    0.0174   -1.4997 H   0  0  0  0  0  0  0  0  0  0  0  0
    1.3824    1.2528    0.2110 H   0  0  0  0  0  0  0  0  0  0  0  0
  1  2  1  0
  1  5  1  0
  1  6  1  0
  1  7  1  0
  2  3  1  0
  2  8  1  0
  2  9  1  0
  3  4  2  0
  3 10  1  0
M  END
>  <reaction>  (1) 
rxn_2004

>  <mol_properties>  (1) 
{"1": {"label": "donator", "atom_type": "Cs"}, "7": {"label": "d_hydrogen", "atom_type": "H0"}}

>  <type>  (1) 
r1h

$$$$

     RDKit          3D

 15 14  0  0  0  0  0  0  0  0999 V2000
    2.4381    0.5770   -0.2356 C   0  0  0  0  0  0  0  0  0  0  0  0
    1.4430   -0.3367   -0.1409 C   0  0  0  0  0  0  0  0  0  0  0  0
    0.0521   -0.0957   -0.0045 C   0  0  0  0  0  3  0  0  0  0  0  0
   -0.5167    1.2867    0.0548 C   0  0  0  0  0  0  0  0  0  0  0  0
   -0.8226   -1.2147    0.0778 C   0  0  0  0  0  0  0  0  0  0  0  0
   -2.1666   -1.1669    0.2092 C   0  0  0  0  0  0  0  0  0  0  0  0
    3.4666    0.2585   -0.3369 H   0  0  0  0  0  0  0  0  0  0  0  0
    2.2594    1.6438   -0.2152 H   0  0  0  0  0  0  0  0  0  0  0  0
    1.7306   -1.3845   -0.1719 H   0  0  0  0  0  0  0  0  0  0  0  0
   -1.2300    1.4469   -0.7583 H   0  0  0  0  0  0  0  0  0  0  0  0
    0.2481    2.0557   -0.0178 H   0  0  0  0  0  0  0  0  0  0  0  0
   -1.0592    1.4421    0.9914 H   0  0  0  0  0  0  0  0  0  0  0  0
   -0.3519   -2.1929    0.0292 H   0  0  0  0  0  0  0  0  0  0  0  0
   -2.7080   -0.2310    0.2646 H   0  0  0  0  0  0  0  0  0  0  0  0
   -2.7513   -2.0751    0.2638 H   0  0  0  0  0  0  0  0  0  0  0  0
  1  2  2  3
  1  7  1  0
  1  8  1  0
  2  3  1  0
  2  9  1  0
  3  4  1  0
  3  5  1  0
  4 10  1  0
  4 11  1  0
  4 12  1  0
  5  6  2  3
  5 13  1  0
  6 14  1  0
  6 15  1  0
M  RAD  1   3   2
M  END
>  <reaction>  (2) 
rxn_2004

>  <mol_properties>  (2) 
{"2": {"label": "acceptor", "atom_type": "Cs"}}

>  <type>  (2) 
r2

$$$$

     RDKit          3D

 16 15  0  0  0  0  0  0  0  0999 V2000
    1.7961   -0.3807    1.6176 C   0  0  0  0  0  0  0  0  0  0  0  0
    0.8562   -0.8708    0.8256 C   0  0  0  0  0  0  0  0  0  0  0  0
    0.0895   -0.0826   -0.2048 C   0  0  0  0  0  0  0  0  0  0  0  0
   -1.4061   -0.1111    0.0982 C   0  0  0  0  0  0  0  0  0  0  0  0
    0.4476   -0.5902   -1.5797 C   0  0  0  0  0  0  0  0  0  0  0  0
   -0.3793   -1.1113   -2.4728 C   0  0  0  0  0  0  0  0  0  0  0  0
    2.3110   -1.0032    2.3386 H   0  0  0  0  0  0  0  0  0  0  0  0
    2.0846    0.6643    1.5737 H   0  0  0  0  0  0  0  0  0  0  0  0
    0.5921   -1.9241    0.8925 H   0  0  0  0  0  0  0  0  0  0  0  0
    0.4358    0.9557   -0.1462 H   0  0  0  0  0  0  0  0  0  0  0  0
   -1.5968    0.3080    1.0865 H   0  0  0  0  0  0  0  0  0  0  0  0
   -1.9674    0.4693   -0.6359 H   0  0  0  0  0  0  0  0  0  0  0  0
   -1.7902   -1.1338    0.0883 H   0  0  0  0  0  0  0  0  0  0  0  0
    1.5049   -0.5197   -1.8214 H   0  0  0  0  0  0  0  0  0  0  0  0
   -1.4421   -1.2131   -2.2889 H   0  0  0  0  0  0  0  0  0  0  0  0
   -0.0162   -1.4558   -3.4328 H   0  0  0  0  0  0  0  0  0  0  0  0
  1  2  2  3
  1  7  1  0
  1  8  1  0
  2  3  1  0
  2  9  1  0
  3  4  1  0
  3  5  1  0
  3 10  1  0
  4 11  1  0
  4 12  1  0
  4 13  1  0
  5  6  2  3
  5 14  1  0
  6 15  1  0
  6 16  1  0
M  END
>  <reaction>  (3) 
rxn_2004

>  <mol_properties>  (3) 
{"2": {"label": "acceptor", "atom_type": "Cs"}, "15": {"label": "a_hydrogen", "atom_type": "H0"}}

>  <type>  (3) 
r2h

$$$$

     RDKit          3D

 25 23  0  0  0  0  0  0  0  0999 V2000
    0.5553   -0.8352    2.4589 C   0  0  0  0  0  0  0  0  0  0  0  0
    0.1762   -1.5361    1.3910 C   0  0  0  0  0  0  0  0  0  0  0  0
   -0.5850   -1.0203    0.2455 C   0  0  0  0  0  0  0  0  0  0  0  0
   -1.3382    0.2725    0.4354 C   0  0  0  0  0  0  0  0  0  0  0  0
   -1.1815   -2.0510   -0.6165 C   0  0  0  0  0  0  0  0  0  0  0  0
   -2.2584   -1.9200   -1.3894 C   0  0  0  0  0  0  0  0  0  0  0  0
    1.1539   -1.2932    3.2352 H   0  0  0  0  0  0  0  0  0  0  0  0
    0.2808    0.2017    2.6024 H   0  0  0  0  0  0  0  0  0  0  0  0
    0.4984   -2.5709    1.3108 H   0  0  0  0  0  0  0  0  0  0  0  0
   -1.7610    0.6258   -0.5036 H   0  0  0  0  0  0  0  0  0  0  0  0
   -0.6800    1.0577    0.8076 H   0  0  0  0  0  0  0  0  0  0  0  0
   -2.1523    0.1372    1.1518 H   0  0  0  0  0  0  0  0  0  0  0  0
   -0.6589   -3.0042   -0.6221 H   0  0  0  0  0  0  0  0  0  0  0  0
   -2.8388   -1.0070   -1.4293 H   0  0  0  0  0  0  0  0  0  0  0  0
   -2.6021   -2.7437   -2.0011 H   0  0  0  0  0  0  0  0  0  0  0  0
    0.5986    0.7310   -2.3015 C   0  0  0  0  0  0  0  0  0  0  0  0
    1.4046   -0.0071   -1.2705 C   0  0  0  0  0  0  0  0  0  0  0  0
    2.1903    0.6713   -0.2919 C   0  0  0  0  0  0  0  0  0  0  0  0
    2.0755    2.2556    0.1336 S   0  0  0  0  0  1  0  0  0  0  0  0
    1.2438    1.0575   -3.1208 H   0  0  0  0  0  0  0  0  0  0  0  0
   -0.1752    0.0841   -2.7182 H   0  0  0  0  0  0  0  0  0  0  0  0
    0.1369    1.6191   -1.8727 H   0  0  0  0  0  0  0  0  0  0  0  0
    0.4482   -0.5886   -0.4934 H   0  0  0  0  0  0  0  0  0  0  0  0
    1.8397   -0.9465   -1.6129 H   0  0  0  0  0  0  0  0  0  0  0  0
    2.8999    0.0437    0.2445 H   0  0  0  0  0  0  0  0  0  0  0  0
  1  2  2  3
  1  7  1  0
  1  8  1  0
  2  3  1  0
  2  9  1  0
  3  4  1  0
  3  5  1  0
  3 23  1  0
  4 10  1  0
  4 11  1  0
  4 12  1  0
  5  6  2  3
  5 13  1  0
  6 14  1  0
  6 15  1  0
 16 17  1  0
 16 20  1  0
 16 21  1  0
 16 22  1  0
 17 18  2  3
 17 24  1  0
 18 19  1  0
 18 25  1  0
M  RAD  1  19   2
M  END
>  <reaction>  (4) 
rxn_2004

>  <mol_properties>  (4) 
{"1": {"label": "*0", "atom_type": "Cd"}, "2": {"label": "*1", "atom_type": "Cs"}, "16": {"label": "*3", "atom_type": "Cd"}, "17": {"label": "*4", "atom_type": "Cd"}, "22": {"label": "*2", "atom_type": "H0"}}

>  <type>  (4) 
ts

$$$$

     RDKit          3D

 25 23  0  0  0  0  0  0  0  0999 V2000
    0.9871   -2.8919    0.6458 C   0  0  0  0  0  0  0  0  0  0  0  0
   -0.0677   -2.1535    0.9511 C   0  0  0  0  0  0  0  0  0  0  0  0
   -0.6043   -1.0178    0.1187 C   0  0  0  0  0  3  0  0  0  0  0  0
   -0.5801    0.2877    0.9090 C   0  0  0  0  0  0  0  0  0  0  0  0
   -1.9681   -1.3933   -0.4059 C   0  0  0  0  0  0  0  0  0  0  0  0
   -3.1075   -0.7583   -0.1788 C   0  0  0  0  0  0  0  0  0  0  0  0
    1.3211   -3.6963    1.2890 H   0  0  0  0  0  0  0  0  0  0  0  0
    1.5567   -2.7171   -0.2610 H   0  0  0  0  0  0  0  0  0  0  0  0
   -0.6192   -2.3565    1.8667 H   0  0  0  0  0  0  0  0  0  0  0  0
   -0.9543    1.1182    0.3082 H   0  0  0  0  0  0  0  0  0  0  0  0
    0.4390    0.5196    1.2194 H   0  0  0  0  0  0  0  0  0  0  0  0
   -1.1958    0.2147    1.8085 H   0  0  0  0  0  0  0  0  0  0  0  0
   -1.9807   -2.2923   -1.0166 H   0  0  0  0  0  0  0  0  0  0  0  0
   -3.1604    0.1394    0.4254 H   0  0  0  0  0  0  0  0  0  0  0  0
   -4.0384   -1.1186   -0.5980 H   0  0  0  0  0  0  0  0  0  0  0  0
    1.4569    0.3047   -2.3524 C   0  0  0  0  0  0  0  0  0  0  0  0
    1.4569    0.3047   -0.8213 C   0  0  0  0  0  0  0  0  0  0  0  0
    1.4569    1.6929   -0.2746 C   0  0  0  0  0  0  0  0  0  0  0  0
    0.3374    2.3486    0.6729 S   0  0  0  0  0  0  0  0  0  0  0  0
    2.3121    0.8549   -2.7495 H   0  0  0  0  0  0  0  0  0  0  0  0
    1.5077   -0.7162   -2.7310 H   0  0  0  0  0  0  0  0  0  0  0  0
    0.5474    0.7671   -2.7380 H   0  0  0  0  0  0  0  0  0  0  0  0
    0.4293   -0.3547   -0.3526 H   0  0  0  0  0  0  0  0  0  0  0  0
    2.3673   -0.1920   -0.4659 H   0  0  0  0  0  0  0  0  0  0  0  0
    2.3124    2.2981   -0.5849 H   0  0  0  0  0  0  0  0  0  0  0  0
  1  2  2  3
  1  7  1  0
  1  8  1  0
  2  3  1  0
  2  9  1  0
  3  4  1  0
  3  5  1  0
  4 10  1  0
  4 11  1  0
  4 12  1  0
  5  6  2  3
  5 13  1  0
  6 14  1  0
  6 15  1  0
 16 17  1  0
 16 20  1  0
 16 21  1  0
 16 22  1  0
 17 18  1  0
 17 23  1  0
 17 24  1  0
 18 19  2  0
 18 25  1  0
M  RAD  1   3   2
M  END
>  <reaction>  (5) 
rxn_2004

>  <mol_properties>  (5) 
{"1": {"label": "*0", "atom_type": "Cd"}, "2": {"label": "*1", "atom_type": "Cs"}, "16": {"label": "*3", "atom_type": "Cd"}, "17": {"label": "*4", "atom_type": "Cd"}, "22": {"label": "*2", "atom_type": "H0"}}

>  <type>  (5) 
unop_1

>  <geom_source>  (5) 
Heuristics

$$$$

     RDKit          3D

 25 23  0  0  0  0  0  0  0  0999 V2000
   -0.5160   -2.1184   -2.0369 C   0  0  0  0  0  0  0  0  0  0  0  0
   -0.8801   -2.1187   -0.7648 C   0  0  0  0  0  0  0  0  0  0  0  0
   -0.5399   -1.0459    0.2372 C   0  0  0  0  0  3  0  0  0  0  0  0
    0.2667   -1.6267    1.3954 C   0  0  0  0  0  0  0  0  0  0  0  0
   -1.8083   -0.3477    0.6611 C   0  0  0  0  0  0  0  0  0  0  0  0
   -2.2997   -0.2720    1.8882 C   0  0  0  0  0  0  0  0  0  0  0  0
   -0.7951   -2.9223   -2.7064 H   0  0  0  0  0  0  0  0  0  0  0  0
    0.0772   -1.3121   -2.4554 H   0  0  0  0  0  0  0  0  0  0  0  0
   -1.4775   -2.9411   -0.3767 H   0  0  0  0  0  0  0  0  0  0  0  0
    0.5294   -0.8531    2.1189 H   0  0  0  0  0  0  0  0  0  0  0  0
    1.1877   -2.0761    1.0232 H   0  0  0  0  0  0  0  0  0  0  0  0
   -0.2974   -2.4028    1.9178 H   0  0  0  0  0  0  0  0  0  0  0  0
   -2.3576    0.1162   -0.1540 H   0  0  0  0  0  0  0  0  0  0  0  0
   -1.8017   -0.7181    2.7407 H   0  0  0  0  0  0  0  0  0  0  0  0
   -3.2284    0.2487    2.0845 H   0  0  0  0  0  0  0  0  0  0  0  0
    1.5213    0.2766   -2.2339 C   0  0  0  0  0  0  0  0  0  0  0  0
    1.5213    0.2766   -0.7028 C   0  0  0  0  0  0  0  0  0  0  0  0
    1.5213    1.6648   -0.1561 C   0  0  0  0  0  0  0  0  0  0  0  0
    0.4018    2.3205    0.7914 S   0  0  0  0  0  0  0  0  0  0  0  0
    2.3765    0.8268   -2.6310 H   0  0  0  0  0  0  0  0  0  0  0  0
    1.5722   -0.7443   -2.6125 H   0  0  0  0  0  0  0  0  0  0  0  0
    0.6118    0.7390   -2.6195 H   0  0  0  0  0  0  0  0  0  0  0  0
    0.4937   -0.3828   -0.2341 H   0  0  0  0  0  0  0  0  0  0  0  0
    2.4317   -0.2201   -0.3474 H   0  0  0  0  0  0  0  0  0  0  0  0
    2.3768    2.2701   -0.4664 H   0  0  0  0  0  0  0  0  0  0  0  0
  1  2  2  3
  1  7  1  0
  1  8  1  0
  2  3  1  0
  2  9  1  0
  3  4  1  0
  3  5  1  0
  4 10  1  0
  4 11  1  0
  4 12  1  0
  5  6  2  3
  5 13  1  0
  6 14  1  0
  6 15  1  0
 16 17  1  0
 16 20  1  0
 16 21  1  0
 16 22  1  0
 17 18  1  0
 17 23  1  0
 17 24  1  0
 18 19  2  0
 18 25  1  0
M  RAD  1   3   2
M  END
>  <reaction>  (6) 
rxn_2004

>  <mol_properties>  (6) 
{"1": {"label": "*0", "atom_type": "Cd"}, "2": {"label": "*1", "atom_type": "Cs"}, "16": {"label": "*3", "atom_type": "Cd"}, "17": {"label": "*4", "atom_type": "Cd"}, "22": {"label": "*2", "atom_type": "H0"}}

>  <type>  (6) 
unop_2

>  <geom_source>  (6) 
Heuristics

$$$$

     RDKit          3D

 25 23  0  0  0  0  0  0  0  0999 V2000
    1.0387   -1.9363    1.7843 C   0  0  0  0  0  0  0  0  0  0  0  0
   -0.1964   -1.6002    1.4489 C   0  0  0  0  0  0  0  0  0  0  0  0
   -0.6075   -1.0094    0.1250 C   0  0  0  0  0  3  0  0  0  0  0  0
   -1.2422    0.3645    0.3219 C   0  0  0  0  0  0  0  0  0  0  0  0
   -1.4889   -1.9950   -0.6016 C   0  0  0  0  0  0  0  0  0  0  0  0
   -2.7396   -1.8030   -0.9914 C   0  0  0  0  0  0  0  0  0  0  0  0
    1.2674   -2.3582    2.7549 H   0  0  0  0  0  0  0  0  0  0  0  0
    1.8682   -1.8002    1.0983 H   0  0  0  0  0  0  0  0  0  0  0  0
   -1.0066   -1.7522    2.1589 H   0  0  0  0  0  0  0  0  0  0  0  0
   -1.5302    0.8055   -0.6338 H   0  0  0  0  0  0  0  0  0  0  0  0
   -0.5376    1.0366    0.8122 H   0  0  0  0  0  0  0  0  0  0  0  0
   -2.1347    0.2995    0.9487 H   0  0  0  0  0  0  0  0  0  0  0  0
   -1.0207   -2.9569   -0.7940 H   0  0  0  0  0  0  0  0  0  0  0  0
   -3.2620   -0.8689   -0.8240 H   0  0  0  0  0  0  0  0  0  0  0  0
   -3.2897   -2.5840   -1.5008 H   0  0  0  0  0  0  0  0  0  0  0  0
    1.4537    0.3131   -2.3461 C   0  0  0  0  0  0  0  0  0  0  0  0
    1.4537    0.3131   -0.8150 C   0  0  0  0  0  0  0  0  0  0  0  0
    1.4537    1.7012   -0.2683 C   0  0  0  0  0  0  0  0  0  0  0  0
    0.3342    2.3569    0.6792 S   0  0  0  0  0  0  0  0  0  0  0  0
    2.3089    0.8632   -2.7432 H   0  0  0  0  0  0  0  0  0  0  0  0
    1.5046   -0.7079   -2.7247 H   0  0  0  0  0  0  0  0  0  0  0  0
    0.5442    0.7754   -2.7317 H   0  0  0  0  0  0  0  0  0  0  0  0
    0.4261   -0.3463   -0.3464 H   0  0  0  0  0  0  0  0  0  0  0  0
    2.3641   -0.1837   -0.4596 H   0  0  0  0  0  0  0  0  0  0  0  0
    2.3092    2.3065   -0.5787 H   0  0  0  0  0  0  0  0  0  0  0  0
  1  2  2  3
  1  7  1  0
  1  8  1  0
  2  3  1  0
  2  9  1  0
  3  4  1  0
  3  5  1  0
  4 10  1  0
  4 11  1  0
  4 12  1  0
  5  6  2  3
  5 13  1  0
  6 14  1  0
  6 15  1  0
 16 17  1  0
 16 20  1  0
 16 21  1  0
 16 22  1  0
 17 18  1  0
 17 23  1  0
 17 24  1  0
 18 19  2  0
 18 25  1  0
M  RAD  1   3   2
M  END
>  <reaction>  (7) 
rxn_2004

>  <mol_properties>  (7) 
{"1": {"label": "*0", "atom_type": "Cd"}, "2": {"label": "*1", "atom_type": "Cs"}, "16": {"label": "*3", "atom_type": "Cd"}, "17": {"label": "*4", "atom_type": "Cd"}, "22": {"label": "*2", "atom_type": "H0"}}

>  <type>  (7) 
unop_3

>  <geom_source>  (7) 
Heuristics

$$$$

     RDKit          3D

 25 23  0  0  0  0  0  0  0  0999 V2000
   -1.9371    0.0620   -1.5657 C   0  0  0  0  0  0  0  0  0  0  0  0
   -1.8419   -0.5929   -0.4199 C   0  0  0  0  0  0  0  0  0  0  0  0
   -0.5993   -1.2757    0.0906 C   0  0  0  0  0  3  0  0  0  0  0  0
   -0.8472   -2.7688    0.2874 C   0  0  0  0  0  0  0  0  0  0  0  0
   -0.1205   -0.5636    1.3315 C   0  0  0  0  0  0  0  0  0  0  0  0
    0.0169   -1.0840    2.5411 C   0  0  0  0  0  0  0  0  0  0  0  0
   -2.8622    0.5324   -1.8744 H   0  0  0  0  0  0  0  0  0  0  0  0
   -1.0907    0.1507   -2.2387 H   0  0  0  0  0  0  0  0  0  0  0  0
   -2.7086   -0.6611    0.2341 H   0  0  0  0  0  0  0  0  0  0  0  0
    0.0523   -3.2733    0.6438 H   0  0  0  0  0  0  0  0  0  0  0  0
   -1.1476   -3.2268   -0.6554 H   0  0  0  0  0  0  0  0  0  0  0  0
   -1.6447   -2.9430    1.0135 H   0  0  0  0  0  0  0  0  0  0  0  0
    0.1111    0.4878    1.1828 H   0  0  0  0  0  0  0  0  0  0  0  0
   -0.2029   -2.1233    2.7535 H   0  0  0  0  0  0  0  0  0  0  0  0
    0.3615   -0.4798    3.3709 H   0  0  0  0  0  0  0  0  0  0  0  0
    1.4619    0.0468   -2.3805 C   0  0  0  0  0  0  0  0  0  0  0  0
    1.4619    0.0468   -0.8494 C   0  0  0  0  0  0  0  0  0  0  0  0
    1.4619    1.4350   -0.3027 C   0  0  0  0  0  0  0  0  0  0  0  0
    0.3423    2.0906    0.6448 S   0  0  0  0  0  0  0  0  0  0  0  0
    2.3171    0.5969   -2.7776 H   0  0  0  0  0  0  0  0  0  0  0  0
    1.5127   -0.9741   -2.7592 H   0  0  0  0  0  0  0  0  0  0  0  0
    0.5524    0.5092   -2.7661 H   0  0  0  0  0  0  0  0  0  0  0  0
    0.4342   -0.6126   -0.3808 H   0  0  0  0  0  0  0  0  0  0  0  0
    2.3722   -0.4499   -0.4940 H   0  0  0  0  0  0  0  0  0  0  0  0
    2.3173    2.0402   -0.6131 H   0  0  0  0  0  0  0  0  0  0  0  0
  1  2  2  3
  1  7  1  0
  1  8  1  0
  2  3  1  0
  2  9  1  0
  3  4  1  0
  3  5  1  0
  4 10  1  0
  4 11  1  0
  4 12  1  0
  5  6  2  3
  5 13  1  0
  6 14  1  0
  6 15  1  0
 16 17  1  0
 16 20  1  0
 16 21  1  0
 16 22  1  0
 17 18  1  0
 17 23  1  0
 17 24  1  0
 18 19  2  0
 18 25  1  0
M  RAD  1   3   2
M  END
>  <reaction>  (8) 
rxn_2004

>  <mol_properties>  (8) 
{"1": {"label": "*0", "atom_type": "Cd"}, "2": {"label": "*1", "atom_type": "Cs"}, "16": {"label": "*3", "atom_type": "Cd"}, "17": {"label": "*4", "atom_type": "Cd"}, "22": {"label": "*2", "atom_type": "H0"}}

>  <type>  (8) 
unop_4

>  <geom_source>  (8) 
Heuristics

$$$$

     RDKit          3D

 25 23  0  0  0  0  0  0  0  0999 V2000
    0.3690   -0.3414    2.3054 C   0  0  0  0  0  0  0  0  0  0  0  0
   -0.5964   -0.9234    1.6124 C   0  0  0  0  0  0  0  0  0  0  0  0
   -0.6773   -0.9753    0.1086 C   0  0  0  0  0  3  0  0  0  0  0  0
   -1.9525   -0.2981   -0.3861 C   0  0  0  0  0  0  0  0  0  0  0  0
   -0.5266   -2.4067   -0.3436 C   0  0  0  0  0  0  0  0  0  0  0  0
   -1.4062   -3.1175   -1.0323 C   0  0  0  0  0  0  0  0  0  0  0  0
    0.3679   -0.3406    3.3882 H   0  0  0  0  0  0  0  0  0  0  0  0
    1.1971    0.1575    1.8130 H   0  0  0  0  0  0  0  0  0  0  0  0
   -1.4115   -1.4179    2.1365 H   0  0  0  0  0  0  0  0  0  0  0  0
   -2.0119   -0.3190   -1.4755 H   0  0  0  0  0  0  0  0  0  0  0  0
   -1.9755    0.7421   -0.0605 H   0  0  0  0  0  0  0  0  0  0  0  0
   -2.8411   -0.7935    0.0121 H   0  0  0  0  0  0  0  0  0  0  0  0
    0.4060   -2.8758   -0.0412 H   0  0  0  0  0  0  0  0  0  0  0  0
   -2.3549   -2.7080   -1.3578 H   0  0  0  0  0  0  0  0  0  0  0  0
   -1.2026   -4.1466   -1.2998 H   0  0  0  0  0  0  0  0  0  0  0  0
    1.3839    0.3472   -2.3625 C   0  0  0  0  0  0  0  0  0  0  0  0
    1.3839    0.3472   -0.8314 C   0  0  0  0  0  0  0  0  0  0  0  0
    1.3839    1.7354   -0.2847 C   0  0  0  0  0  0  0  0  0  0  0  0
    0.2644    2.3911    0.6628 S   0  0  0  0  0  0  0  0  0  0  0  0
    2.2391    0.8974   -2.7596 H   0  0  0  0  0  0  0  0  0  0  0  0
    1.4348   -0.6737   -2.7412 H   0  0  0  0  0  0  0  0  0  0  0  0
    0.4744    0.8096   -2.7481 H   0  0  0  0  0  0  0  0  0  0  0  0
    0.3563   -0.3121   -0.3628 H   0  0  0  0  0  0  0  0  0  0  0  0
    2.2943   -0.1495   -0.4760 H   0  0  0  0  0  0  0  0  0  0  0  0
    2.2394    2.3407   -0.5951 H   0  0  0  0  0  0  0  0  0  0  0  0
  1  2  2  3
  1  7  1  0
  1  8  1  0
  2  3  1  0
  2  9  1  0
  3  4  1  0
  3  5  1  0
  4 10  1  0
  4 11  1  0
  4 12  1  0
  5  6  2  3
  5 13  1  0
  6 14  1  0
  6 15  1  0
 16 17  1  0
 16 20  1  0
 16 21  1  0
 16 22  1  0
 17 18  1  0
 17 23  1  0
 17 24  1  0
 18 19  2  0
 18 25  1  0
M  RAD  1   3   2
M  END
>  <reaction>  (9) 
rxn_2004

>  <mol_properties>  (9) 
{"1": {"label": "*0", "atom_type": "Cd"}, "2": {"label": "*1", "atom_type": "Cs"}, "16": {"label": "*3", "atom_type": "Cd"}, "17": {"label": "*4", "atom_type": "Cd"}, "22": {"label": "*2", "atom_type": "H0"}}

>  <type>  (9) 
unop_5

>  <geom_source>  (9) 
Heuristics

$$$$

     RDKit          3D

 25 23  0  0  0  0  0  0  0  0999 V2000
   -2.0718    0.7518   -0.6371 C   0  0  0  0  0  0  0  0  0  0  0  0
   -1.8132   -0.2544    0.1825 C   0  0  0  0  0  0  0  0  0  0  0  0
   -0.6835   -1.2386    0.0215 C   0  0  0  0  0  3  0  0  0  0  0  0
   -1.2225   -2.6600   -0.1140 C   0  0  0  0  0  0  0  0  0  0  0  0
    0.2930   -1.0574    1.1572 C   0  0  0  0  0  0  0  0  0  0  0  0
    0.6421   -1.9655    2.0552 C   0  0  0  0  0  0  0  0  0  0  0  0
   -2.9016    1.4253   -0.4634 H   0  0  0  0  0  0  0  0  0  0  0  0
   -1.4615    0.9379   -1.5145 H   0  0  0  0  0  0  0  0  0  0  0  0
   -2.4430   -0.4122    1.0555 H   0  0  0  0  0  0  0  0  0  0  0  0
   -0.4109   -3.3777   -0.2451 H   0  0  0  0  0  0  0  0  0  0  0  0
   -1.8854   -2.7293   -0.9769 H   0  0  0  0  0  0  0  0  0  0  0  0
   -1.7932   -2.9506    0.7710 H   0  0  0  0  0  0  0  0  0  0  0  0
    0.7224   -0.0612    1.2235 H   0  0  0  0  0  0  0  0  0  0  0  0
    0.2450   -2.9734    2.0451 H   0  0  0  0  0  0  0  0  0  0  0  0
    1.3491   -1.7287    2.8402 H   0  0  0  0  0  0  0  0  0  0  0  0
    1.3777    0.0839   -2.4496 C   0  0  0  0  0  0  0  0  0  0  0  0
    1.3777    0.0839   -0.9185 C   0  0  0  0  0  0  0  0  0  0  0  0
    1.3777    1.4721   -0.3718 C   0  0  0  0  0  0  0  0  0  0  0  0
    0.2581    2.1278    0.5757 S   0  0  0  0  0  0  0  0  0  0  0  0
    2.2329    0.6341   -2.8467 H   0  0  0  0  0  0  0  0  0  0  0  0
    1.4285   -0.9370   -2.8282 H   0  0  0  0  0  0  0  0  0  0  0  0
    0.4682    0.5463   -2.8352 H   0  0  0  0  0  0  0  0  0  0  0  0
    0.3500   -0.5754   -0.4498 H   0  0  0  0  0  0  0  0  0  0  0  0
    2.2880   -0.4128   -0.5631 H   0  0  0  0  0  0  0  0  0  0  0  0
    2.2331    2.0774   -0.6821 H   0  0  0  0  0  0  0  0  0  0  0  0
  1  2  2  3
  1  7  1  0
  1  8  1  0
  2  3  1  0
  2  9  1  0
  3  4  1  0
  3  5  1  0
  4 10  1  0
  4 11  1  0
  4 12  1  0
  5  6  2  3
  5 13  1  0
  6 14  1  0
  6 15  1  0
 16 17  1  0
 16 20  1  0
 16 21  1  0
 16 22  1  0
 17 18  1  0
 17 23  1  0
 17 24  1  0
 18 19  2  0
 18 25  1  0
M  RAD  1   3   2
M  END
>  <reaction>  (10) 
rxn_2004

>  <mol_properties>  (10) 
{"1": {"label": "*0", "atom_type": "Cd"}, "2": {"label": "*1", "atom_type": "Cs"}, "16": {"label": "*3", "atom_type": "Cd"}, "17": {"label": "*4", "atom_type": "Cd"}, "22": {"label": "*2", "atom_type": "H0"}}

>  <type>  (10) 
unop_6

>  <geom_source>  (10) 
Heuristics

$$$$

     RDKit          3D

 25 24  0  0  0  0  0  0  0  0999 V2000
   -1.7399    1.0980    0.5588 C   0  0  0  0  0  0  0  0  0  0  0  0
   -1.5600   -0.1842    0.8319 C   0  0  0  0  0  0  0  0  0  0  0  0
   -0.7513   -1.1453   -0.0005 C   0  0  0  0  0  0  0  0  0  0  0  0
   -1.6246   -2.2939   -0.4980 C   0  0  0  0  0  0  0  0  0  0  0  0
    0.4543   -1.5884    0.7909 C   0  0  0  0  0  0  0  0  0  0  0  0
    0.7594   -2.8274    1.1441 C   0  0  0  0  0  0  0  0  0  0  0  0
   -2.3340    1.7362    1.2007 H   0  0  0  0  0  0  0  0  0  0  0  0
   -1.2987    1.5565   -0.3200 H   0  0  0  0  0  0  0  0  0  0  0  0
   -2.0138   -0.6129    1.7229 H   0  0  0  0  0  0  0  0  0  0  0  0
   -1.0493   -2.9874   -1.1136 H   0  0  0  0  0  0  0  0  0  0  0  0
   -2.4495   -1.9062   -1.0963 H   0  0  0  0  0  0  0  0  0  0  0  0
   -2.0510   -2.8545    0.3371 H   0  0  0  0  0  0  0  0  0  0  0  0
    1.1095   -0.7780    1.0996 H   0  0  0  0  0  0  0  0  0  0  0  0
    0.1439   -3.6762    0.8715 H   0  0  0  0  0  0  0  0  0  0  0  0
    1.6494   -3.0376    1.7238 H   0  0  0  0  0  0  0  0  0  0  0  0
    1.3099    0.1772   -2.4716 C   0  0  0  0  0  0  0  0  0  0  0  0
    1.3099    0.1772   -0.9405 C   0  0  0  0  0  0  0  0  0  0  0  0
    1.3099    1.5653   -0.3938 C   0  0  0  0  0  3  0  0  0  0  0  0
    0.1903    2.2210    0.5537 S   0  0  0  0  0  0  0  0  0  0  0  0
    2.1651    0.7273   -2.8687 H   0  0  0  0  0  0  0  0  0  0  0  0
    1.3607   -0.8438   -2.8502 H   0  0  0  0  0  0  0  0  0  0  0  0
    0.4004    0.6395   -2.8572 H   0  0  0  0  0  0  0  0  0  0  0  0
    0.2822   -0.4822   -0.4718 H   0  0  0  0  0  0  0  0  0  0  0  0
    2.2202   -0.3195   -0.5851 H   0  0  0  0  0  0  0  0  0  0  0  0
    2.1653    2.1706   -0.7042 H   0  0  0  0  0  0  0  0  0  0  0  0
  1  2  1  0
  1 19  1  0
  1  7  1  0
  1  8  1  0
  2  3  2  3
  2  9  1  0
  3  4  1  0
  3  5  1  0
  4 10  1  0
  4 11  1  0
  4 12  1  0
  5  6  2  3
  5 13  1  0
  6 14  1  0
  6 15  1  0
 16 17  1  0
 16 20  1  0
 16 21  1  0
 16 22  1  0
 17 18  1  0
 17 23  1  0
 17 24  1  0
 18 19  1  0
 18 25  1  0
M  RAD  1  18   2
M  END
>  <reaction>  (11) 
rxn_2004

>  <mol_properties>  (11) 
{"1": {"label": "*0", "atom_type": "Cd"}, "2": {"label": "*1", "atom_type": "Cs"}, "16": {"label": "*3", "atom_type": "Cd"}, "17": {"label": "*4", "atom_type": "Cd"}, "22": {"label": "*2", "atom_type": "H0"}}

>  <type>  (11) 
unop_7

>  <geom_source>  (11) 
Heuristics

$$$$

     RDKit          3D

 25 23  0  0  0  0  0  0  0  0999 V2000
    0.5739   -3.1087   -0.5492 C   0  0  0  0  0  0  0  0  0  0  0  0
   -0.1823   -2.4357    0.3030 C   0  0  0  0  0  0  0  0  0  0  0  0
   -0.6061   -0.9987    0.1420 C   0  0  0  0  0  3  0  0  0  0  0  0
   -0.1004   -0.1540    1.3083 C   0  0  0  0  0  0  0  0  0  0  0  0
   -2.1013   -0.9450   -0.0525 C   0  0  0  0  0  0  0  0  0  0  0  0
   -2.9793   -0.3218    0.7180 C   0  0  0  0  0  0  0  0  0  0  0  0
    0.8424   -4.1430   -0.3741 H   0  0  0  0  0  0  0  0  0  0  0  0
    0.9536   -2.6475   -1.4548 H   0  0  0  0  0  0  0  0  0  0  0  0
   -0.5497   -2.9283    1.2008 H   0  0  0  0  0  0  0  0  0  0  0  0
   -0.3913    0.8914    1.1921 H   0  0  0  0  0  0  0  0  0  0  0  0
    0.9873   -0.2040    1.3639 H   0  0  0  0  0  0  0  0  0  0  0  0
   -0.5013   -0.5146    2.2584 H   0  0  0  0  0  0  0  0  0  0  0  0
   -2.4605   -1.4996   -0.9155 H   0  0  0  0  0  0  0  0  0  0  0  0
   -2.6839    0.2426    1.5942 H   0  0  0  0  0  0  0  0  0  0  0  0
   -4.0379   -0.3535    0.4933 H   0  0  0  0  0  0  0  0  0  0  0  0
    1.4551    0.3238   -2.3290 C   0  0  0  0  0  0  0  0  0  0  0  0
    1.4551    0.3238   -0.7980 C   0  0  0  0  0  0  0  0  0  0  0  0
    1.4551    1.7120   -0.2513 C   0  0  0  0  0  0  0  0  0  0  0  0
    0.3355    2.3677    0.6962 S   0  0  0  0  0  0  0  0  0  0  0  0
    2.3103    0.8740   -2.7262 H   0  0  0  0  0  0  0  0  0  0  0  0
    1.5059   -0.6971   -2.7077 H   0  0  0  0  0  0  0  0  0  0  0  0
    0.5456    0.7862   -2.7147 H   0  0  0  0  0  0  0  0  0  0  0  0
    0.4274   -0.3355   -0.3293 H   0  0  0  0  0  0  0  0  0  0  0  0
    2.3654   -0.1729   -0.4425 H   0  0  0  0  0  0  0  0  0  0  0  0
    2.3105    2.3173   -0.5616 H   0  0  0  0  0  0  0  0  0  0  0  0
  1  2  2  3
  1  7  1  0
  1  8  1  0
  2  3  1  0
  2  9  1  0
  3  4  1  0
  3  5  1  0
  4 10  1  0
  4 11  1  0
  4 12  1  0
  5  6  2  3
  5 13  1  0
  6 14  1  0
  6 15  1  0
 16 17  1  0
 16 20  1  0
 16 21  1  0
 16 22  1  0
 17 18  1  0
 17 23  1  0
 17 24  1  0
 18 19  2  0
 18 25  1  0
M  RAD  1   3   2
M  END
>  <reaction>  (12) 
rxn_2004

>  <mol_properties>  (12) 
{"1": {"label": "*0", "atom_type": "Cd"}, "2": {"label": "*1", "atom_type": "Cs"}, "16": {"label": "*3", "atom_type": "Cd"}, "17": {"label": "*4", "atom_type": "Cd"}, "22": {"label": "*2", "atom_type": "H0"}}

>  <type>  (12) 
unop_8

>  <geom_source>  (12) 
Heuristics

$$$$

     RDKit          3D

 25 23  0  0  0  0  0  0  0  0999 V2000
   -1.5037   -0.7113   -2.0812 C   0  0  0  0  0  0  0  0  0  0  0  0
   -1.6485   -1.1027   -0.8254 C   0  0  0  0  0  0  0  0  0  0  0  0
   -0.5315   -1.2405    0.1765 C   0  0  0  0  0  3  0  0  0  0  0  0
   -0.4331   -2.6781    0.6794 C   0  0  0  0  0  0  0  0  0  0  0  0
   -0.7221   -0.2188    1.2702 C   0  0  0  0  0  0  0  0  0  0  0  0
   -0.8865   -0.4607    2.5614 C   0  0  0  0  0  0  0  0  0  0  0  0
   -2.3505   -0.6325   -2.7514 H   0  0  0  0  0  0  0  0  0  0  0  0
   -0.5299   -0.4559   -2.4854 H   0  0  0  0  0  0  0  0  0  0  0  0
   -2.6394   -1.3489   -0.4499 H   0  0  0  0  0  0  0  0  0  0  0  0
    0.3829   -2.7895    1.3953 H   0  0  0  0  0  0  0  0  0  0  0  0
   -0.2530   -3.3561   -0.1553 H   0  0  0  0  0  0  0  0  0  0  0  0
   -1.3592   -2.9881    1.1690 H   0  0  0  0  0  0  0  0  0  0  0  0
   -0.7365    0.8111    0.9229 H   0  0  0  0  0  0  0  0  0  0  0  0
   -0.8868   -1.4650    2.9676 H   0  0  0  0  0  0  0  0  0  0  0  0
   -1.0253    0.3495    3.2660 H   0  0  0  0  0  0  0  0  0  0  0  0
    1.5297    0.0820   -2.2945 C   0  0  0  0  0  0  0  0  0  0  0  0
    1.5297    0.0820   -0.7635 C   0  0  0  0  0  0  0  0  0  0  0  0
    1.5297    1.4702   -0.2168 C   0  0  0  0  0  0  0  0  0  0  0  0
    0.4102    2.1259    0.7308 S   0  0  0  0  0  0  0  0  0  0  0  0
    2.3849    0.6322   -2.6916 H   0  0  0  0  0  0  0  0  0  0  0  0
    1.5806   -0.9389   -2.6732 H   0  0  0  0  0  0  0  0  0  0  0  0
    0.6202    0.5444   -2.6802 H   0  0  0  0  0  0  0  0  0  0  0  0
    0.5021   -0.5773   -0.2948 H   0  0  0  0  0  0  0  0  0  0  0  0
    2.4401   -0.4147   -0.4080 H   0  0  0  0  0  0  0  0  0  0  0  0
    2.3852    2.0755   -0.5271 H   0  0  0  0  0  0  0  0  0  0  0  0
  1  2  2  3
  1  7  1  0
  1  8  1  0
  2  3  1  0
  2  9  1  0
  3  4  1  0
  3  5  1  0
  4 10  1  0
  4 11  1  0
  4 12  1  0
  5  6  2  3
  5 13  1  0
  6 14  1  0
  6 15  1  0
 16 17  1  0
 16 20  1  0
 16 21  1  0
 16 22  1  0
 17 18  1  0
 17 23  1  0
 17 24  1  0
 18 19  2  0
 18 25  1  0
M  RAD  1   3   2
M  END
>  <reaction>  (13) 
rxn_2004

>  <mol_properties>  (13) 
{"1": {"label": "*0", "atom_type": "Cd"}, "2": {"label": "*1", "atom_type": "Cs"}, "16": {"label": "*3", "atom_type": "Cd"}, "17": {"label": "*4", "atom_type": "Cd"}, "22": {"label": "*2", "atom_type": "H0"}}

>  <type>  (13) 
unop_9

>  <geom_source>  (13) 
Heuristics

$$$$

     RDKit          3D

 25 23  0  0  0  0  0  0  0  0999 V2000
    0.0187   -2.7646   -1.4916 C   0  0  0  0  0  0  0  0  0  0  0  0
   -0.4806   -2.4109   -0.3184 C   0  0  0  0  0  0  0  0  0  0  0  0
   -0.5834   -0.9968    0.1921 C   0  0  0  0  0  3  0  0  0  0  0  0
    0.2099   -0.8319    1.4855 C   0  0  0  0  0  0  0  0  0  0  0  0
   -2.0397   -0.6213    0.3124 C   0  0  0  0  0  0  0  0  0  0  0  0
   -2.6761   -0.2568    1.4147 C   0  0  0  0  0  0  0  0  0  0  0  0
    0.0630   -3.8018   -1.7992 H   0  0  0  0  0  0  0  0  0  0  0  0
    0.4032   -2.0271   -2.1884 H   0  0  0  0  0  0  0  0  0  0  0  0
   -0.8608   -3.1748    0.3565 H   0  0  0  0  0  0  0  0  0  0  0  0
    0.1520    0.1934    1.8545 H   0  0  0  0  0  0  0  0  0  0  0  0
    1.2585   -1.0778    1.3165 H   0  0  0  0  0  0  0  0  0  0  0  0
   -0.1682   -1.4958    2.2664 H   0  0  0  0  0  0  0  0  0  0  0  0
   -2.5962   -0.6833   -0.6191 H   0  0  0  0  0  0  0  0  0  0  0  0
   -2.1779   -0.1814    2.3737 H   0  0  0  0  0  0  0  0  0  0  0  0
   -3.7313   -0.0154    1.3938 H   0  0  0  0  0  0  0  0  0  0  0  0
    1.4778    0.3257   -2.2790 C   0  0  0  0  0  0  0  0  0  0  0  0
    1.4778    0.3257   -0.7479 C   0  0  0  0  0  0  0  0  0  0  0  0
    1.4778    1.7139   -0.2012 C   0  0  0  0  0  0  0  0  0  0  0  0
    0.3583    2.3696    0.7463 S   0  0  0  0  0  0  0  0  0  0  0  0
    2.3330    0.8759   -2.6761 H   0  0  0  0  0  0  0  0  0  0  0  0
    1.5286   -0.6952   -2.6576 H   0  0  0  0  0  0  0  0  0  0  0  0
    0.5683    0.7881   -2.6646 H   0  0  0  0  0  0  0  0  0  0  0  0
    0.4501   -0.3337   -0.2792 H   0  0  0  0  0  0  0  0  0  0  0  0
    2.3882   -0.1710   -0.3925 H   0  0  0  0  0  0  0  0  0  0  0  0
    2.3333    2.3191   -0.5116 H   0  0  0  0  0  0  0  0  0  0  0  0
  1  2  2  3
  1  7  1  0
  1  8  1  0
  2  3  1  0
  2  9  1  0
  3  4  1  0
  3  5  1  0
  4 10  1  0
  4 11  1  0
  4 12  1  0
  5  6  2  3
  5 13  1  0
  6 14  1  0
  6 15  1  0
 16 17  1  0
 16 20  1  0
 16 21  1  0
 16 22  1  0
 17 18  1  0
 17 23  1  0
 17 24  1  0
 18 19  2  0
 18 25  1  0
M  RAD  1   3   2
M  END
>  <reaction>  (14) 
rxn_2004

>  <mol_properties>  (14) 
{"1": {"label": "*0", "atom_type": "Cd"}, "2": {"label": "*1", "atom_type": "Cs"}, "16": {"label": "*3", "atom_type": "Cd"}, "17": {"label": "*4", "atom_type": "Cd"}, "22": {"label": "*2", "atom_type": "H0"}}

>  <type>  (14) 
unop_10

>  <geom_source>  (14) 
Heuristics

$$$$

     RDKit          3D

 25 23  0  0  0  0  0  0  0  0999 V2000
   -0.8608    0.8350    1.7211 C   0  0  0  0  0  3  0  0  0  0  0  0
   -1.1259   -0.4107    1.3622 C   0  0  0  0  0  0  0  0  0  0  0  0
   -0.7603   -1.0306    0.0383 C   0  0  0  0  0  0  0  0  0  0  0  0
   -2.0107   -1.4985   -0.7012 C   0  0  0  0  0  0  0  0  0  0  0  0
    0.2602   -2.1177    0.2686 C   0  0  0  0  0  0  0  0  0  0  0  0
    0.1323   -3.4013   -0.0294 C   0  0  0  0  0  3  0  0  0  0  0  0
   -1.1513    1.2194    2.6907 H   0  0  0  0  0  0  0  0  0  0  0  0
   -0.3430    1.5175    1.0554 H   0  0  0  0  0  0  0  0  0  0  0  0
   -1.6443   -1.0709    2.0543 H   0  0  0  0  0  0  0  0  0  0  0  0
   -1.7556   -1.9362   -1.6677 H   0  0  0  0  0  0  0  0  0  0  0  0
   -2.6828   -0.6571   -0.8716 H   0  0  0  0  0  0  0  0  0  0  0  0
   -2.5534   -2.2486   -0.1212 H   0  0  0  0  0  0  0  0  0  0  0  0
    1.1763   -1.7779    0.7447 H   0  0  0  0  0  0  0  0  0  0  0  0
   -0.7579   -3.8014   -0.4996 H   0  0  0  0  0  0  0  0  0  0  0  0
    0.9264   -4.1047    0.1874 H   0  0  0  0  0  0  0  0  0  0  0  0
    1.3009    0.2919   -2.4328 C   0  0  0  0  0  0  0  0  0  0  0  0
    1.3009    0.2919   -0.9017 C   0  0  0  0  0  0  0  0  0  0  0  0
    1.3009    1.6801   -0.3550 C   0  0  0  0  0  3  0  0  0  0  0  0
    0.1814    2.3358    0.5925 S   0  0  0  0  0  0  0  0  0  0  0  0
    2.1561    0.8421   -2.8299 H   0  0  0  0  0  0  0  0  0  0  0  0
    1.3517   -0.7290   -2.8114 H   0  0  0  0  0  0  0  0  0  0  0  0
    0.3914    0.7543   -2.8184 H   0  0  0  0  0  0  0  0  0  0  0  0
    0.2732   -0.3675   -0.4331 H   0  0  0  0  0  0  0  0  0  0  0  0
    2.2113   -0.2048   -0.5463 H   0  0  0  0  0  0  0  0  0  0  0  0
    2.1564    2.2853   -0.6654 H   0  0  0  0  0  0  0  0  0  0  0  0
  1  2  2  3
  1  7  1  0
  2  3  1  0
  2  9  1  0
  3  4  1  0
  3  5  2  3
  4 10  1  0
  4 11  1  0
  4 12  1  0
  5  6  1  0
  5 13  1  0
  6 14  1  0
  6 15  1  0
  8 19  1  0
 16 17  1  0
 16 20  1  0
 16 21  1  0
 16 22  1  0
 17 18  1  0
 17 23  1  0
 17 24  1  0
 18 19  1  0
 18 25  1  0
M  CHG  2   1  -1   6   1
M  RAD  1  18   2
M  END
>  <reaction>  (15) 
rxn_2004

>  <mol_properties>  (15) 
{"1": {"label": "*0", "atom_type": "Cd"}, "2": {"label": "*1", "atom_type": "Cs"}, "16": {"label": "*3", "atom_type": "Cd"}, "17": {"label": "*4", "atom_type": "Cd"}, "22": {"label": "*2", "atom_type": "H0"}}

>  <type>  (15) 
unop_11

>  <geom_source>  (15) 
Heuristics

$$$$

     RDKit          3D

 25 23  0  0  0  0  0  0  0  0999 V2000
   -0.9994   -1.4214   -2.2145 C   0  0  0  0  0  0  0  0  0  0  0  0
   -1.2969   -1.6497   -0.9455 C   0  0  0  0  0  0  0  0  0  0  0  0
   -0.5101   -1.1449    0.2364 C   0  0  0  0  0  3  0  0  0  0  0  0
    0.0054   -2.3095    1.0774 C   0  0  0  0  0  0  0  0  0  0  0  0
   -1.3542   -0.1584    1.0048 C   0  0  0  0  0  0  0  0  0  0  0  0
   -1.7361   -0.2570    2.2687 C   0  0  0  0  0  0  0  0  0  0  0  0
   -1.6087   -1.8139   -3.0189 H   0  0  0  0  0  0  0  0  0  0  0  0
   -0.1323   -0.8327   -2.4952 H   0  0  0  0  0  0  0  0  0  0  0  0
   -2.1753   -2.2418   -0.6974 H   0  0  0  0  0  0  0  0  0  0  0  0
    0.5884   -1.9526    1.9281 H   0  0  0  0  0  0  0  0  0  0  0  0
    0.6409   -2.9568    0.4726 H   0  0  0  0  0  0  0  0  0  0  0  0
   -0.8199   -2.9138    1.4609 H   0  0  0  0  0  0  0  0  0  0  0  0
   -1.6772    0.7018    0.4243 H   0  0  0  0  0  0  0  0  0  0  0  0
   -1.4512   -1.0923    2.8969 H   0  0  0  0  0  0  0  0  0  0  0  0
   -2.3530    0.5069    2.7247 H   0  0  0  0  0  0  0  0  0  0  0  0
    1.5511    0.1776   -2.2347 C   0  0  0  0  0  0  0  0  0  0  0  0
    1.5511    0.1776   -0.7036 C   0  0  0  0  0  0  0  0  0  0  0  0
    1.5511    1.5658   -0.1569 C   0  0  0  0  0  0  0  0  0  0  0  0
    0.4315    2.2215    0.7906 S   0  0  0  0  0  0  0  0  0  0  0  0
    2.4063    0.7277   -2.6318 H   0  0  0  0  0  0  0  0  0  0  0  0
    1.6019   -0.8433   -2.6134 H   0  0  0  0  0  0  0  0  0  0  0  0
    0.6416    0.6400   -2.6204 H   0  0  0  0  0  0  0  0  0  0  0  0
    0.5234   -0.4818   -0.2350 H   0  0  0  0  0  0  0  0  0  0  0  0
    2.4614   -0.3191   -0.3482 H   0  0  0  0  0  0  0  0  0  0  0  0
    2.4065    2.1710   -0.4673 H   0  0  0  0  0  0  0  0  0  0  0  0
  1  2  2  3
  1  7  1  0
  1  8  1  0
  2  3  1  0
  2  9  1  0
  3  4  1  0
  3  5  1  0
  4 10  1  0
  4 11  1  0
  4 12  1  0
  5  6  2  3
  5 13  1  0
  6 14  1  0
  6 15  1  0
 16 17  1  0
 16 20  1  0
 16 21  1  0
 16 22  1  0
 17 18  1  0
 17 23  1  0
 17 24  1  0
 18 19  2  0
 18 25  1  0
M  RAD  1   3   2
M  END
>  <reaction>  (16) 
rxn_2004

>  <mol_properties>  (16) 
{"1": {"label": "*0", "atom_type": "Cd"}, "2": {"label": "*1", "atom_type": "Cs"}, "16": {"label": "*3", "atom_type": "Cd"}, "17": {"label": "*4", "atom_type": "Cd"}, "22": {"label": "*2", "atom_type": "H0"}}

>  <type>  (16) 
unop_12

>  <geom_source>  (16) 
Heuristics

$$$$

     RDKit          3D

 25 23  0  0  0  0  0  0  0  0999 V2000
    2.0442   -0.0446    2.3400 S   0  0  0  0  0  1  0  0  0  0  0  0
   -1.0507    0.0530    0.0518 C   0  0  0  0  0  0  0  0  0  0  0  0
   -1.7858   -0.1791    1.3746 C   0  0  0  0  0  0  0  0  0  0  0  0
    2.2368   -0.9486   -0.8039 C   0  0  0  0  0  0  0  0  0  0  0  0
   -1.3279    1.4432   -0.4670 C   0  0  0  0  0  0  0  0  0  0  0  0
   -1.4575   -0.9859   -0.9652 C   0  0  0  0  0  0  0  0  0  0  0  0
    1.5398    0.2344   -0.1405 C   0  0  0  0  0  0  0  0  0  0  0  0
   -0.7016    2.5093    0.0389 C   0  0  0  0  0  0  0  0  0  0  0  0
   -0.9541   -2.2229   -0.9316 C   0  0  0  0  0  0  0  0  0  0  0  0
    2.2504    0.6624    1.1078 C   0  0  0  0  0  0  0  0  0  0  0  0
    0.2434   -0.0589    0.2604 H   0  0  0  0  0  0  0  0  0  0  0  0
   -1.4595    0.5667    2.1302 H   0  0  0  0  0  0  0  0  0  0  0  0
   -2.8847   -0.0912    1.2320 H   0  0  0  0  0  0  0  0  0  0  0  0
   -1.5533   -1.1907    1.7698 H   0  0  0  0  0  0  0  0  0  0  0  0
    3.2823   -0.6818   -1.0688 H   0  0  0  0  0  0  0  0  0  0  0  0
    1.6908   -1.2235   -1.7302 H   0  0  0  0  0  0  0  0  0  0  0  0
    2.2397   -1.8257   -0.1229 H   0  0  0  0  0  0  0  0  0  0  0  0
   -2.0593    1.5965   -1.2562 H   0  0  0  0  0  0  0  0  0  0  0  0
   -2.1841   -0.7415   -1.7357 H   0  0  0  0  0  0  0  0  0  0  0  0
    1.5014    1.0840   -0.8555 H   0  0  0  0  0  0  0  0  0  0  0  0
   -0.9217    3.5007   -0.3435 H   0  0  0  0  0  0  0  0  0  0  0  0
    0.0304    2.4031    0.8339 H   0  0  0  0  0  0  0  0  0  0  0  0
   -0.2318   -2.5126   -0.1743 H   0  0  0  0  0  0  0  0  0  0  0  0
   -1.2662   -2.9565   -1.6678 H   0  0  0  0  0  0  0  0  0  0  0  0
    2.7790    1.6101    1.1237 H   0  0  0  0  0  0  0  0  0  0  0  0
  1 10  1  0
  2  3  1  0
  2  5  1  0
  2  6  1  0
  2 11  1  0
  3 12  1  0
  3 13  1  0
  3 14  1  0
  4  7  1  0
  4 15  1  0
  4 16  1  0
  4 17  1  0
  5  8  2  3
  5 18  1  0
  6  9  2  3
  6 19  1  0
  7 10  2  3
  7 20  1  0
  8 21  1  0
  8 22  1  0
  9 23  1  0
  9 24  1  0
 10 25  1  0
M  RAD  1   1   2
M  END
>  <reaction>  (17) 
rxn_2004

>  <mol_properties>  (17) 
{"1": {"label": "*0", "atom_type": "Cd"}, "2": {"label": "*1", "atom_type": "Cs"}, "16": {"label": "*3", "atom_type": "Cd"}, "17": {"label": "*4", "atom_type": "Cd"}, "22": {"label": "*2", "atom_type": "H0"}}

>  <type>  (17) 
unop_13

>  <geom_source>  (17) 
AutoTST

$$$$
