
     RDKit          3D

 10  9  0  0  0  0  0  0  0  0999 V2000
    1.8334    0.0847   -0.1062 C   0  0  0  0  0  0  0  0  0  0  0  0
    0.5993   -0.4071   -0.0750 C   0  0  0  0  0  0  0  0  0  0  0  0
   -0.5993    0.4071    0.0750 C   0  0  0  0  0  0  0  0  0  0  0  0
   -1.8334   -0.0847    0.1062 C   0  0  0  0  0  0  0  0  0  0  0  0
    2.0179    1.1498   -0.0189 H   0  0  0  0  0  0  0  0  0  0  0  0
    2.6972   -0.5572   -0.2194 H   0  0  0  0  0  0  0  0  0  0  0  0
    0.4465   -1.4793   -0.1649 H   0  0  0  0  0  0  0  0  0  0  0  0
   -0.4465    1.4793    0.1649 H   0  0  0  0  0  0  0  0  0  0  0  0
   -2.0179   -1.1498    0.0189 H   0  0  0  0  0  0  0  0  0  0  0  0
   -2.6972    0.5572    0.2194 H   0  0  0  0  0  0  0  0  0  0  0  0
  1  2  2  3
  1  5  1  0
  1  6  1  0
  2  3  1  0
  2  7  1  0
  3  4  2  3
  3  8  1  0
  4  9  1  0
  4 10  1  0
M  END
>  <reaction>  (1) 
rxn_1657

>  <mol_properties>  (1) 
{"2": {"label": "donator", "atom_type": "Cd"}, "7": {"label": "d_hydrogen", "atom_type": "H0"}}

>  <type>  (1) 
r1h

$$$$

     RDKit          3D

  9  8  0  0  0  0  0  0  0  0999 V2000
    2.3038   -0.0269    0.1590 C   0  0  0  0  0  0  0  0  0  0  0  0
    1.1426    0.1377   -0.1648 C   0  0  0  0  0  0  0  0  0  0  0  0
   -0.1694    0.3175   -0.5203 C   0  0  0  0  0  3  0  0  0  0  0  0
   -1.3163   -0.1910    0.2856 C   0  0  0  0  0  0  0  0  0  0  0  0
    3.3199   -0.1683    0.4378 H   0  0  0  0  0  0  0  0  0  0  0  0
   -0.3786    0.8584   -1.4360 H   0  0  0  0  0  0  0  0  0  0  0  0
   -1.9694    0.6309    0.5951 H   0  0  0  0  0  0  0  0  0  0  0  0
   -1.9325   -0.8770   -0.3039 H   0  0  0  0  0  0  0  0  0  0  0  0
   -0.9753   -0.7144    1.1774 H   0  0  0  0  0  0  0  0  0  0  0  0
  1  2  3  0
  1  5  1  0
  2  3  1  0
  3  4  1  0
  3  6  1  0
  4  7  1  0
  4  8  1  0
  4  9  1  0
M  RAD  1   3   2
M  END
>  <reaction>  (2) 
rxn_1657

>  <mol_properties>  (2) 
{"2": {"label": "acceptor", "atom_type": "Cs"}}

>  <type>  (2) 
r2

$$$$

     RDKit          3D

 10  9  0  0  0  0  0  0  0  0999 V2000
    2.2738    0.0217   -0.0992 C   0  0  0  0  0  0  0  0  0  0  0  0
    1.1083    0.2960   -0.0695 C   0  0  0  0  0  0  0  0  0  0  0  0
   -0.3173    0.6046   -0.0227 C   0  0  0  0  0  0  0  0  0  0  0  0
   -1.1561   -0.5495    0.5292 C   0  0  0  0  0  0  0  0  0  0  0  0
    3.3097   -0.2166   -0.1277 H   0  0  0  0  0  0  0  0  0  0  0  0
   -0.6542    0.8617   -1.0302 H   0  0  0  0  0  0  0  0  0  0  0  0
   -0.4633    1.4978    0.5900 H   0  0  0  0  0  0  0  0  0  0  0  0
   -0.8485   -0.7997    1.5447 H   0  0  0  0  0  0  0  0  0  0  0  0
   -2.2115   -0.2752    0.5459 H   0  0  0  0  0  0  0  0  0  0  0  0
   -1.0409   -1.4407   -0.0879 H   0  0  0  0  0  0  0  0  0  0  0  0
  1  2  3  0
  1  5  1  0
  2  3  1  0
  3  4  1  0
  3  6  1  0
  3  7  1  0
  4  8  1  0
  4  9  1  0
  4 10  1  0
M  END
>  <reaction>  (3) 
rxn_1657

>  <mol_properties>  (3) 
{"2": {"label": "acceptor", "atom_type": "Cs"}, "9": {"label": "a_hydrogen", "atom_type": "H0"}}

>  <type>  (3) 
r2h

$$$$

     RDKit          3D

 19 17  0  0  0  0  0  0  0  0999 V2000
    0.9678    1.3194   -2.4946 C   0  0  0  0  0  0  0  0  0  0  0  0
    0.5877    1.4256   -1.3603 C   0  0  0  0  0  0  0  0  0  0  0  0
    0.1166    1.4960   -0.0056 C   0  0  0  0  0  0  0  0  0  0  0  0
   -1.3655    1.7765    0.1627 C   0  0  0  0  0  0  0  0  0  0  0  0
    1.3115    1.2404   -3.4977 H   0  0  0  0  0  0  0  0  0  0  0  0
    0.7445    2.1463    0.6049 H   0  0  0  0  0  0  0  0  0  0  0  0
   -1.6392    1.7258    1.2171 H   0  0  0  0  0  0  0  0  0  0  0  0
   -1.6238    2.7675   -0.2156 H   0  0  0  0  0  0  0  0  0  0  0  0
   -1.9596    1.0408   -0.3806 H   0  0  0  0  0  0  0  0  0  0  0  0
   -0.5734   -2.0131   -0.6852 C   0  0  0  0  0  0  0  0  0  0  0  0
   -0.1987   -2.0061    0.5905 C   0  0  0  0  0  0  0  0  0  0  0  0
    0.3752   -0.8688    1.2702 C   0  0  0  0  0  3  0  0  0  0  0  0
    0.8986   -0.7418    2.4721 C   0  0  0  0  0  0  0  0  0  0  0  0
   -0.4557   -1.1393   -1.3156 H   0  0  0  0  0  0  0  0  0  0  0  0
   -0.9970   -2.9006   -1.1367 H   0  0  0  0  0  0  0  0  0  0  0  0
   -0.3226   -2.9063    1.1928 H   0  0  0  0  0  0  0  0  0  0  0  0
    0.3082    0.3733    0.5141 H   0  0  0  0  0  0  0  0  0  0  0  0
    0.9793   -1.5911    3.1485 H   0  0  0  0  0  0  0  0  0  0  0  0
    1.2766    0.2079    2.8338 H   0  0  0  0  0  0  0  0  0  0  0  0
  1  2  3  0
  1  5  1  0
  2  3  1  0
  3  4  1  0
  3  6  1  0
  3 17  1  0
  4  7  1  0
  4  8  1  0
  4  9  1  0
 10 11  2  3
 10 14  1  0
 10 15  1  0
 11 12  1  0
 11 16  1  0
 12 13  2  3
 13 18  1  0
 13 19  1  0
M  RAD  1  12   2
M  END
>  <reaction>  (4) 
rxn_1657

>  <mol_properties>  (4) 
{"1": {"label": "*0", "atom_type": "Ct"}, "2": {"label": "*1", "atom_type": "Cs"}, "10": {"label": "*4", "atom_type": "Cd"}, "11": {"label": "*3", "atom_type": "Cd"}, "16": {"label": "*2", "atom_type": "H0"}}

>  <type>  (4) 
ts

$$$$

     RDKit          3D

 19 17  0  0  0  0  0  0  0  0999 V2000
   -1.9340    2.5373   -0.0200 C   0  0  0  0  0  0  0  0  0  0  0  0
   -0.9628    1.9149   -0.3420 C   0  0  0  0  0  0  0  0  0  0  0  0
    0.2342    1.1660   -0.7114 C   0  0  0  0  0  3  0  0  0  0  0  0
    1.3769    1.3429    0.2901 C   0  0  0  0  0  0  0  0  0  0  0  0
   -2.7963    3.0899    0.2658 H   0  0  0  0  0  0  0  0  0  0  0  0
    0.5564    1.4870   -1.7052 H   0  0  0  0  0  0  0  0  0  0  0  0
    2.2480    0.7672   -0.0252 H   0  0  0  0  0  0  0  0  0  0  0  0
    1.6653    2.3914    0.3662 H   0  0  0  0  0  0  0  0  0  0  0  0
    1.0783    1.0018    1.2815 H   0  0  0  0  0  0  0  0  0  0  0  0
    0.2342   -2.3157   -1.5640 C   0  0  0  0  0  0  0  0  0  0  0  0
    0.2342   -2.3157   -0.2351 C   0  0  0  0  0  0  0  0  0  0  0  0
    0.2342   -1.1084    0.5802 C   0  0  0  0  0  0  0  0  0  0  0  0
    0.2342   -1.1084    1.9091 C   0  0  0  0  0  0  0  0  0  0  0  0
    0.2342   -1.3891   -2.1275 H   0  0  0  0  0  0  0  0  0  0  0  0
    0.2342   -3.2372   -2.1312 H   0  0  0  0  0  0  0  0  0  0  0  0
    0.2342   -3.2606    0.3015 H   0  0  0  0  0  0  0  0  0  0  0  0
    0.2342    0.0256   -0.0638 H   0  0  0  0  0  0  0  0  0  0  0  0
    0.2342   -2.0350    2.4725 H   0  0  0  0  0  0  0  0  0  0  0  0
    0.2342   -0.1868    2.4762 H   0  0  0  0  0  0  0  0  0  0  0  0
  1  2  3  0
  1  5  1  0
  2  3  1  0
  3  4  1  0
  3  6  1  0
  4  7  1  0
  4  8  1  0
  4  9  1  0
 10 11  2  3
 10 14  1  0
 10 15  1  0
 11 12  1  0
 11 16  1  0
 12 13  2  3
 12 17  1  0
 13 18  1  0
 13 19  1  0
M  RAD  1   3   2
M  END
>  <reaction>  (5) 
rxn_1657

>  <mol_properties>  (5) 
{"1": {"label": "*0", "atom_type": "Ct"}, "2": {"label": "*1", "atom_type": "Cs"}, "10": {"label": "*4", "atom_type": "Cd"}, "11": {"label": "*3", "atom_type": "Cd"}, "16": {"label": "*2", "atom_type": "H0"}}

>  <type>  (5) 
unop_1

>  <geom_source>  (5) 
Heuristics

$$$$

     RDKit          3D

 19 17  0  0  0  0  0  0  0  0999 V2000
   -0.9228    1.0745   -2.4721 C   0  0  0  0  0  0  0  0  0  0  0  0
   -0.3372    1.2140   -1.4367 C   0  0  0  0  0  0  0  0  0  0  0  0
    0.3538    1.3974   -0.1644 C   0  0  0  0  0  3  0  0  0  0  0  0
   -0.4954    2.1381    0.8703 C   0  0  0  0  0  0  0  0  0  0  0  0
   -1.4427    0.9507   -3.3914 H   0  0  0  0  0  0  0  0  0  0  0  0
    1.2825    1.9446   -0.3449 H   0  0  0  0  0  0  0  0  0  0  0  0
    0.0593    2.2521    1.8024 H   0  0  0  0  0  0  0  0  0  0  0  0
   -0.7687    3.1292    0.5079 H   0  0  0  0  0  0  0  0  0  0  0  0
   -1.4140    1.5899    1.0802 H   0  0  0  0  0  0  0  0  0  0  0  0
    0.3538   -2.0843   -1.0170 C   0  0  0  0  0  0  0  0  0  0  0  0
    0.3538   -2.0843    0.3119 C   0  0  0  0  0  0  0  0  0  0  0  0
    0.3538   -0.8769    1.1272 C   0  0  0  0  0  0  0  0  0  0  0  0
    0.3538   -0.8769    2.4561 C   0  0  0  0  0  0  0  0  0  0  0  0
    0.3538   -1.1577   -1.5804 H   0  0  0  0  0  0  0  0  0  0  0  0
    0.3538   -3.0058   -1.5841 H   0  0  0  0  0  0  0  0  0  0  0  0
    0.3538   -3.0292    0.8485 H   0  0  0  0  0  0  0  0  0  0  0  0
    0.3538    0.2570    0.4833 H   0  0  0  0  0  0  0  0  0  0  0  0
    0.3538   -1.8035    3.0196 H   0  0  0  0  0  0  0  0  0  0  0  0
    0.3538    0.0446    3.0233 H   0  0  0  0  0  0  0  0  0  0  0  0
  1  2  3  0
  1  5  1  0
  2  3  1  0
  3  4  1  0
  3  6  1  0
  4  7  1  0
  4  8  1  0
  4  9  1  0
 10 11  2  3
 10 14  1  0
 10 15  1  0
 11 12  1  0
 11 16  1  0
 12 13  2  3
 12 17  1  0
 13 18  1  0
 13 19  1  0
M  RAD  1   3   2
M  END
>  <reaction>  (6) 
rxn_1657

>  <mol_properties>  (6) 
{"1": {"label": "*0", "atom_type": "Ct"}, "2": {"label": "*1", "atom_type": "Cs"}, "10": {"label": "*4", "atom_type": "Cd"}, "11": {"label": "*3", "atom_type": "Cd"}, "16": {"label": "*2", "atom_type": "H0"}}

>  <type>  (6) 
unop_2

>  <geom_source>  (6) 
Heuristics

$$$$

     RDKit          3D

 19 17  0  0  0  0  0  0  0  0999 V2000
   -1.2266    2.9306    0.7412 C   0  0  0  0  0  0  0  0  0  0  0  0
   -0.6799    2.1041    0.0685 C   0  0  0  0  0  0  0  0  0  0  0  0
    0.0111    1.1053   -0.7407 C   0  0  0  0  0  3  0  0  0  0  0  0
    1.5278    1.1276   -0.5425 C   0  0  0  0  0  0  0  0  0  0  0  0
   -1.7120    3.6644    1.3384 H   0  0  0  0  0  0  0  0  0  0  0  0
   -0.2299    1.2779   -1.7927 H   0  0  0  0  0  0  0  0  0  0  0  0
    2.0013    0.3673   -1.1647 H   0  0  0  0  0  0  0  0  0  0  0  0
    1.9388    2.1003   -0.8134 H   0  0  0  0  0  0  0  0  0  0  0  0
    1.7845    0.9305    0.4985 H   0  0  0  0  0  0  0  0  0  0  0  0
    0.0111   -2.3763   -1.5933 C   0  0  0  0  0  0  0  0  0  0  0  0
    0.0111   -2.3763   -0.2644 C   0  0  0  0  0  0  0  0  0  0  0  0
    0.0111   -1.1690    0.5508 C   0  0  0  0  0  0  0  0  0  0  0  0
    0.0111   -1.1690    1.8797 C   0  0  0  0  0  0  0  0  0  0  0  0
    0.0111   -1.4497   -2.1568 H   0  0  0  0  0  0  0  0  0  0  0  0
    0.0111   -3.2979   -2.1605 H   0  0  0  0  0  0  0  0  0  0  0  0
    0.0111   -3.3213    0.2722 H   0  0  0  0  0  0  0  0  0  0  0  0
    0.0111   -0.0351   -0.0931 H   0  0  0  0  0  0  0  0  0  0  0  0
    0.0111   -2.0956    2.4432 H   0  0  0  0  0  0  0  0  0  0  0  0
    0.0111   -0.2475    2.4469 H   0  0  0  0  0  0  0  0  0  0  0  0
  1  2  3  0
  1  5  1  0
  2  3  1  0
  3  4  1  0
  3  6  1  0
  4  7  1  0
  4  8  1  0
  4  9  1  0
 10 11  2  3
 10 14  1  0
 10 15  1  0
 11 12  1  0
 11 16  1  0
 12 13  2  3
 12 17  1  0
 13 18  1  0
 13 19  1  0
M  RAD  1   3   2
M  END
>  <reaction>  (7) 
rxn_1657

>  <mol_properties>  (7) 
{"1": {"label": "*0", "atom_type": "Ct"}, "2": {"label": "*1", "atom_type": "Cs"}, "10": {"label": "*4", "atom_type": "Cd"}, "11": {"label": "*3", "atom_type": "Cd"}, "16": {"label": "*2", "atom_type": "H0"}}

>  <type>  (7) 
unop_3

>  <geom_source>  (7) 
Heuristics

$$$$

     RDKit          3D

 19 17  0  0  0  0  0  0  0  0999 V2000
    1.9294    1.4332   -1.6195 C   0  0  0  0  0  0  0  0  0  0  0  0
    0.9582    1.3642   -0.9220 C   0  0  0  0  0  0  0  0  0  0  0  0
   -0.2387    1.2978   -0.0895 C   0  0  0  0  0  3  0  0  0  0  0  0
   -1.3874    2.1492   -0.6335 C   0  0  0  0  0  0  0  0  0  0  0  0
    2.7916    1.4944   -2.2387 H   0  0  0  0  0  0  0  0  0  0  0  0
    0.0187    1.6217    0.9220 H   0  0  0  0  0  0  0  0  0  0  0  0
   -2.2582    2.0694    0.0182 H   0  0  0  0  0  0  0  0  0  0  0  0
   -1.0963    3.1980   -0.6936 H   0  0  0  0  0  0  0  0  0  0  0  0
   -1.6729    1.8200   -1.6328 H   0  0  0  0  0  0  0  0  0  0  0  0
   -0.2387   -2.1839   -0.9421 C   0  0  0  0  0  0  0  0  0  0  0  0
   -0.2387   -2.1839    0.3868 C   0  0  0  0  0  0  0  0  0  0  0  0
   -0.2387   -0.9766    1.2020 C   0  0  0  0  0  0  0  0  0  0  0  0
   -0.2387   -0.9766    2.5309 C   0  0  0  0  0  0  0  0  0  0  0  0
   -0.2387   -1.2573   -1.5056 H   0  0  0  0  0  0  0  0  0  0  0  0
   -0.2387   -3.1054   -1.5093 H   0  0  0  0  0  0  0  0  0  0  0  0
   -0.2387   -3.1288    0.9234 H   0  0  0  0  0  0  0  0  0  0  0  0
   -0.2387    0.1574    0.5581 H   0  0  0  0  0  0  0  0  0  0  0  0
   -0.2387   -1.9032    3.0944 H   0  0  0  0  0  0  0  0  0  0  0  0
   -0.2387   -0.0550    3.0981 H   0  0  0  0  0  0  0  0  0  0  0  0
  1  2  3  0
  1  5  1  0
  2  3  1  0
  3  4  1  0
  3  6  1  0
  4  7  1  0
  4  8  1  0
  4  9  1  0
 10 11  2  3
 10 14  1  0
 10 15  1  0
 11 12  1  0
 11 16  1  0
 12 13  2  3
 12 17  1  0
 13 18  1  0
 13 19  1  0
M  RAD  1   3   2
M  END
>  <reaction>  (8) 
rxn_1657

>  <mol_properties>  (8) 
{"1": {"label": "*0", "atom_type": "Ct"}, "2": {"label": "*1", "atom_type": "Cs"}, "10": {"label": "*4", "atom_type": "Cd"}, "11": {"label": "*3", "atom_type": "Cd"}, "16": {"label": "*2", "atom_type": "H0"}}

>  <type>  (8) 
unop_4

>  <geom_source>  (8) 
Heuristics

$$$$

     RDKit          3D

 19 17  0  0  0  0  0  0  0  0999 V2000
   -0.1500    3.0632    1.1295 C   0  0  0  0  0  0  0  0  0  0  0  0
   -0.1695    2.1605    0.3426 C   0  0  0  0  0  0  0  0  0  0  0  0
   -0.1695    1.0703   -0.6276 C   0  0  0  0  0  3  0  0  0  0  0  0
    1.0233    1.1273   -1.5837 C   0  0  0  0  0  0  0  0  0  0  0  0
   -0.1326    3.8646    1.8281 H   0  0  0  0  0  0  0  0  0  0  0  0
   -1.1034    1.1047   -1.1944 H   0  0  0  0  0  0  0  0  0  0  0  0
    0.9824    0.2963   -2.2888 H   0  0  0  0  0  0  0  0  0  0  0  0
    1.0216    2.0596   -2.1486 H   0  0  0  0  0  0  0  0  0  0  0  0
    1.9626    1.0673   -1.0337 H   0  0  0  0  0  0  0  0  0  0  0  0
   -0.1695   -2.4114   -1.4802 C   0  0  0  0  0  0  0  0  0  0  0  0
   -0.1695   -2.4114   -0.1513 C   0  0  0  0  0  0  0  0  0  0  0  0
   -0.1695   -1.2041    0.6639 C   0  0  0  0  0  0  0  0  0  0  0  0
   -0.1695   -1.2041    1.9928 C   0  0  0  0  0  0  0  0  0  0  0  0
   -0.1695   -1.4848   -2.0437 H   0  0  0  0  0  0  0  0  0  0  0  0
   -0.1695   -3.3330   -2.0474 H   0  0  0  0  0  0  0  0  0  0  0  0
   -0.1695   -3.3563    0.3853 H   0  0  0  0  0  0  0  0  0  0  0  0
   -0.1695   -0.0702    0.0200 H   0  0  0  0  0  0  0  0  0  0  0  0
   -0.1695   -2.1307    2.5563 H   0  0  0  0  0  0  0  0  0  0  0  0
   -0.1695   -0.2825    2.5600 H   0  0  0  0  0  0  0  0  0  0  0  0
  1  2  3  0
  1  5  1  0
  2  3  1  0
  3  4  1  0
  3  6  1  0
  4  7  1  0
  4  8  1  0
  4  9  1  0
 10 11  2  3
 10 14  1  0
 10 15  1  0
 11 12  1  0
 11 16  1  0
 12 13  2  3
 12 17  1  0
 13 18  1  0
 13 19  1  0
M  RAD  1   3   2
M  END
>  <reaction>  (9) 
rxn_1657

>  <mol_properties>  (9) 
{"1": {"label": "*0", "atom_type": "Ct"}, "2": {"label": "*1", "atom_type": "Cs"}, "10": {"label": "*4", "atom_type": "Cd"}, "11": {"label": "*3", "atom_type": "Cd"}, "16": {"label": "*2", "atom_type": "H0"}}

>  <type>  (9) 
unop_5

>  <geom_source>  (9) 
Heuristics

$$$$

     RDKit          3D

 19 17  0  0  0  0  0  0  0  0999 V2000
    2.1883    1.9607   -0.6756 C   0  0  0  0  0  0  0  0  0  0  0  0
    1.0613    1.6119   -0.4689 C   0  0  0  0  0  0  0  0  0  0  0  0
   -0.3207    1.2042   -0.2373 C   0  0  0  0  0  3  0  0  0  0  0  0
   -1.3108    1.9111   -1.1649 C   0  0  0  0  0  0  0  0  0  0  0  0
    3.1888    2.2704   -0.8592 H   0  0  0  0  0  0  0  0  0  0  0  0
   -0.5767    1.4074    0.8055 H   0  0  0  0  0  0  0  0  0  0  0  0
   -2.3279    1.5768   -0.9570 H   0  0  0  0  0  0  0  0  0  0  0  0
   -1.2674    2.9914   -1.0254 H   0  0  0  0  0  0  0  0  0  0  0  0
   -1.0835    1.6958   -2.2090 H   0  0  0  0  0  0  0  0  0  0  0  0
   -0.3207   -2.2775   -1.0899 C   0  0  0  0  0  0  0  0  0  0  0  0
   -0.3207   -2.2775    0.2390 C   0  0  0  0  0  0  0  0  0  0  0  0
   -0.3207   -1.0701    1.0542 C   0  0  0  0  0  0  0  0  0  0  0  0
   -0.3207   -1.0701    2.3831 C   0  0  0  0  0  0  0  0  0  0  0  0
   -0.3207   -1.3509   -1.6534 H   0  0  0  0  0  0  0  0  0  0  0  0
   -0.3207   -3.1990   -1.6571 H   0  0  0  0  0  0  0  0  0  0  0  0
   -0.3207   -3.2224    0.7756 H   0  0  0  0  0  0  0  0  0  0  0  0
   -0.3207    0.0638    0.4103 H   0  0  0  0  0  0  0  0  0  0  0  0
   -0.3207   -1.9968    2.9466 H   0  0  0  0  0  0  0  0  0  0  0  0
   -0.3207   -0.1486    2.9503 H   0  0  0  0  0  0  0  0  0  0  0  0
  1  2  3  0
  1  5  1  0
  2  3  1  0
  3  4  1  0
  3  6  1  0
  4  7  1  0
  4  8  1  0
  4  9  1  0
 10 11  2  3
 10 14  1  0
 10 15  1  0
 11 12  1  0
 11 16  1  0
 12 13  2  3
 12 17  1  0
 13 18  1  0
 13 19  1  0
M  RAD  1   3   2
M  END
>  <reaction>  (10) 
rxn_1657

>  <mol_properties>  (10) 
{"1": {"label": "*0", "atom_type": "Ct"}, "2": {"label": "*1", "atom_type": "Cs"}, "10": {"label": "*4", "atom_type": "Cd"}, "11": {"label": "*3", "atom_type": "Cd"}, "16": {"label": "*2", "atom_type": "H0"}}

>  <type>  (10) 
unop_6

>  <geom_source>  (10) 
Heuristics

$$$$

     RDKit          3D

 19 17  0  0  0  0  0  0  0  0999 V2000
    1.8692    2.4979    0.2701 C   0  0  0  0  0  0  0  0  0  0  0  0
    0.8894    1.8704   -0.0140 C   0  0  0  0  0  0  0  0  0  0  0  0
   -0.3075    1.1214   -0.3834 C   0  0  0  0  0  3  0  0  0  0  0  0
   -0.9341    1.6117   -1.6899 C   0  0  0  0  0  0  0  0  0  0  0  0
    2.7390    3.0551    0.5223 H   0  0  0  0  0  0  0  0  0  0  0  0
   -1.0339    1.1971    0.4298 H   0  0  0  0  0  0  0  0  0  0  0  0
   -1.8229    1.0254   -1.9260 H   0  0  0  0  0  0  0  0  0  0  0  0
   -1.2233    2.6598   -1.6105 H   0  0  0  0  0  0  0  0  0  0  0  0
   -0.2291    1.5175   -2.5160 H   0  0  0  0  0  0  0  0  0  0  0  0
   -0.3075   -2.3602   -1.2359 C   0  0  0  0  0  0  0  0  0  0  0  0
   -0.3075   -2.3602    0.0929 C   0  0  0  0  0  0  0  0  0  0  0  0
   -0.3075   -1.1529    0.9082 C   0  0  0  0  0  0  0  0  0  0  0  0
   -0.3075   -1.1529    2.2371 C   0  0  0  0  0  0  0  0  0  0  0  0
   -0.3075   -1.4336   -1.7994 H   0  0  0  0  0  0  0  0  0  0  0  0
   -0.3075   -3.2818   -1.8031 H   0  0  0  0  0  0  0  0  0  0  0  0
   -0.3075   -3.3052    0.6295 H   0  0  0  0  0  0  0  0  0  0  0  0
   -0.3075   -0.0190    0.2643 H   0  0  0  0  0  0  0  0  0  0  0  0
   -0.3075   -2.0795    2.8006 H   0  0  0  0  0  0  0  0  0  0  0  0
   -0.3075   -0.2314    2.8043 H   0  0  0  0  0  0  0  0  0  0  0  0
  1  2  3  0
  1  5  1  0
  2  3  1  0
  3  4  1  0
  3  6  1  0
  4  7  1  0
  4  8  1  0
  4  9  1  0
 10 11  2  3
 10 14  1  0
 10 15  1  0
 11 12  1  0
 11 16  1  0
 12 13  2  3
 12 17  1  0
 13 18  1  0
 13 19  1  0
M  RAD  1   3   2
M  END
>  <reaction>  (11) 
rxn_1657

>  <mol_properties>  (11) 
{"1": {"label": "*0", "atom_type": "Ct"}, "2": {"label": "*1", "atom_type": "Cs"}, "10": {"label": "*4", "atom_type": "Cd"}, "11": {"label": "*3", "atom_type": "Cd"}, "16": {"label": "*2", "atom_type": "H0"}}

>  <type>  (11) 
unop_7

>  <geom_source>  (11) 
Heuristics

$$$$

     RDKit          3D

 19 17  0  0  0  0  0  0  0  0999 V2000
   -2.1279    2.0003   -0.9667 C   0  0  0  0  0  0  0  0  0  0  0  0
   -0.9930    1.6566   -0.7980 C   0  0  0  0  0  0  0  0  0  0  0  0
    0.3890    1.2489   -0.5665 C   0  0  0  0  0  3  0  0  0  0  0  0
    0.8985    1.6413    0.8216 C   0  0  0  0  0  0  0  0  0  0  0  0
   -3.1354    2.3054   -1.1165 H   0  0  0  0  0  0  0  0  0  0  0  0
    1.0213    1.6983   -1.3363 H   0  0  0  0  0  0  0  0  0  0  0  0
    1.9320    1.3178    0.9501 H   0  0  0  0  0  0  0  0  0  0  0  0
    0.8557    2.7220    0.9577 H   0  0  0  0  0  0  0  0  0  0  0  0
    0.2926    1.1784    1.6007 H   0  0  0  0  0  0  0  0  0  0  0  0
    0.3890   -2.2328   -1.4191 C   0  0  0  0  0  0  0  0  0  0  0  0
    0.3890   -2.2328   -0.0902 C   0  0  0  0  0  0  0  0  0  0  0  0
    0.3890   -1.0255    0.7251 C   0  0  0  0  0  0  0  0  0  0  0  0
    0.3890   -1.0255    2.0540 C   0  0  0  0  0  0  0  0  0  0  0  0
    0.3890   -1.3062   -1.9825 H   0  0  0  0  0  0  0  0  0  0  0  0
    0.3890   -3.1543   -1.9862 H   0  0  0  0  0  0  0  0  0  0  0  0
    0.3890   -3.1777    0.4464 H   0  0  0  0  0  0  0  0  0  0  0  0
    0.3890    0.1085    0.0812 H   0  0  0  0  0  0  0  0  0  0  0  0
    0.3890   -1.9521    2.6175 H   0  0  0  0  0  0  0  0  0  0  0  0
    0.3890   -0.1039    2.6212 H   0  0  0  0  0  0  0  0  0  0  0  0
  1  2  3  0
  1  5  1  0
  2  3  1  0
  3  4  1  0
  3  6  1  0
  4  7  1  0
  4  8  1  0
  4  9  1  0
 10 11  2  3
 10 14  1  0
 10 15  1  0
 11 12  1  0
 11 16  1  0
 12 13  2  3
 12 17  1  0
 13 18  1  0
 13 19  1  0
M  RAD  1   3   2
M  END
>  <reaction>  (12) 
rxn_1657

>  <mol_properties>  (12) 
{"1": {"label": "*0", "atom_type": "Ct"}, "2": {"label": "*1", "atom_type": "Cs"}, "10": {"label": "*4", "atom_type": "Cd"}, "11": {"label": "*3", "atom_type": "Cd"}, "16": {"label": "*2", "atom_type": "H0"}}

>  <type>  (12) 
unop_8

>  <geom_source>  (12) 
Heuristics

$$$$

     RDKit          3D

 19 17  0  0  0  0  0  0  0  0999 V2000
    1.1846    1.0548   -2.3271 C   0  0  0  0  0  0  0  0  0  0  0  0
    0.6332    1.1918   -1.2727 C   0  0  0  0  0  0  0  0  0  0  0  0
   -0.0578    1.3751   -0.0004 C   0  0  0  0  0  3  0  0  0  0  0  0
   -1.2911    2.2724   -0.1193 C   0  0  0  0  0  0  0  0  0  0  0  0
    1.6741    0.9333   -3.2632 H   0  0  0  0  0  0  0  0  0  0  0  0
    0.6437    1.7996    0.7222 H   0  0  0  0  0  0  0  0  0  0  0  0
   -1.7743    2.3811    0.8523 H   0  0  0  0  0  0  0  0  0  0  0  0
   -1.0147    3.2633   -0.4800 H   0  0  0  0  0  0  0  0  0  0  0  0
   -2.0122    1.8476   -0.8178 H   0  0  0  0  0  0  0  0  0  0  0  0
   -0.0578   -2.1066   -0.8530 C   0  0  0  0  0  0  0  0  0  0  0  0
   -0.0578   -2.1066    0.4759 C   0  0  0  0  0  0  0  0  0  0  0  0
   -0.0578   -0.8992    1.2912 C   0  0  0  0  0  0  0  0  0  0  0  0
   -0.0578   -0.8992    2.6201 C   0  0  0  0  0  0  0  0  0  0  0  0
   -0.0578   -1.1799   -1.4164 H   0  0  0  0  0  0  0  0  0  0  0  0
   -0.0578   -3.0281   -1.4202 H   0  0  0  0  0  0  0  0  0  0  0  0
   -0.0578   -3.0515    1.0125 H   0  0  0  0  0  0  0  0  0  0  0  0
   -0.0578    0.2347    0.6472 H   0  0  0  0  0  0  0  0  0  0  0  0
   -0.0578   -1.8258    3.1835 H   0  0  0  0  0  0  0  0  0  0  0  0
   -0.0578    0.0223    3.1873 H   0  0  0  0  0  0  0  0  0  0  0  0
  1  2  3  0
  1  5  1  0
  2  3  1  0
  3  4  1  0
  3  6  1  0
  4  7  1  0
  4  8  1  0
  4  9  1  0
 10 11  2  3
 10 14  1  0
 10 15  1  0
 11 12  1  0
 11 16  1  0
 12 13  2  3
 12 17  1  0
 13 18  1  0
 13 19  1  0
M  RAD  1   3   2
M  END
>  <reaction>  (13) 
rxn_1657

>  <mol_properties>  (13) 
{"1": {"label": "*0", "atom_type": "Ct"}, "2": {"label": "*1", "atom_type": "Cs"}, "10": {"label": "*4", "atom_type": "Cd"}, "11": {"label": "*3", "atom_type": "Cd"}, "16": {"label": "*2", "atom_type": "H0"}}

>  <type>  (13) 
unop_9

>  <geom_source>  (13) 
Heuristics

$$$$

     RDKit          3D

 19 17  0  0  0  0  0  0  0  0999 V2000
   -1.7579    1.4663   -1.8633 C   0  0  0  0  0  0  0  0  0  0  0  0
   -0.7643    1.4017   -1.1977 C   0  0  0  0  0  0  0  0  0  0  0  0
    0.4326    1.3352   -0.3652 C   0  0  0  0  0  3  0  0  0  0  0  0
    0.2175    1.9232    1.0306 C   0  0  0  0  0  0  0  0  0  0  0  0
   -2.6400    1.5237   -2.4543 H   0  0  0  0  0  0  0  0  0  0  0  0
    1.2427    1.8654   -0.8722 H   0  0  0  0  0  0  0  0  0  0  0  0
    1.1351    1.8525    1.6157 H   0  0  0  0  0  0  0  0  0  0  0  0
   -0.0717    2.9724    0.9676 H   0  0  0  0  0  0  0  0  0  0  0  0
   -0.5708    1.3866    1.5587 H   0  0  0  0  0  0  0  0  0  0  0  0
    0.4326   -2.1465   -1.2178 C   0  0  0  0  0  0  0  0  0  0  0  0
    0.4326   -2.1465    0.1111 C   0  0  0  0  0  0  0  0  0  0  0  0
    0.4326   -0.9391    0.9263 C   0  0  0  0  0  0  0  0  0  0  0  0
    0.4326   -0.9391    2.2552 C   0  0  0  0  0  0  0  0  0  0  0  0
    0.4326   -1.2199   -1.7813 H   0  0  0  0  0  0  0  0  0  0  0  0
    0.4326   -3.0680   -1.7850 H   0  0  0  0  0  0  0  0  0  0  0  0
    0.4326   -3.0914    0.6477 H   0  0  0  0  0  0  0  0  0  0  0  0
    0.4326    0.1948    0.2824 H   0  0  0  0  0  0  0  0  0  0  0  0
    0.4326   -1.8657    2.8187 H   0  0  0  0  0  0  0  0  0  0  0  0
    0.4326   -0.0176    2.8224 H   0  0  0  0  0  0  0  0  0  0  0  0
  1  2  3  0
  1  5  1  0
  2  3  1  0
  3  4  1  0
  3  6  1  0
  4  7  1  0
  4  8  1  0
  4  9  1  0
 10 11  2  3
 10 14  1  0
 10 15  1  0
 11 12  1  0
 11 16  1  0
 12 13  2  3
 12 17  1  0
 13 18  1  0
 13 19  1  0
M  RAD  1   3   2
M  END
>  <reaction>  (14) 
rxn_1657

>  <mol_properties>  (14) 
{"1": {"label": "*0", "atom_type": "Ct"}, "2": {"label": "*1", "atom_type": "Cs"}, "10": {"label": "*4", "atom_type": "Cd"}, "11": {"label": "*3", "atom_type": "Cd"}, "16": {"label": "*2", "atom_type": "H0"}}

>  <type>  (14) 
unop_10

>  <geom_source>  (14) 
Heuristics

$$$$

     RDKit          3D

 19 17  0  0  0  0  0  0  0  0999 V2000
    1.0183    2.9016    0.9549 C   0  0  0  0  0  0  0  0  0  0  0  0
    0.4443    2.0713    0.3102 C   0  0  0  0  0  0  0  0  0  0  0  0
   -0.2467    1.0725   -0.4991 C   0  0  0  0  0  3  0  0  0  0  0  0
   -0.1059    1.3257   -2.0012 C   0  0  0  0  0  0  0  0  0  0  0  0
    1.5278    3.6387    1.5273 H   0  0  0  0  0  0  0  0  0  0  0  0
   -1.3033    1.0644   -0.2199 H   0  0  0  0  0  0  0  0  0  0  0  0
   -0.6362    0.5575   -2.5651 H   0  0  0  0  0  0  0  0  0  0  0  0
   -0.5192    2.2980   -2.2696 H   0  0  0  0  0  0  0  0  0  0  0  0
    0.9426    1.3104   -2.2990 H   0  0  0  0  0  0  0  0  0  0  0  0
   -0.2467   -2.4092   -1.3517 C   0  0  0  0  0  0  0  0  0  0  0  0
   -0.2467   -2.4092   -0.0228 C   0  0  0  0  0  0  0  0  0  0  0  0
   -0.2467   -1.2018    0.7925 C   0  0  0  0  0  0  0  0  0  0  0  0
   -0.2467   -1.2018    2.1214 C   0  0  0  0  0  0  0  0  0  0  0  0
   -0.2467   -1.4826   -1.9151 H   0  0  0  0  0  0  0  0  0  0  0  0
   -0.2467   -3.3307   -1.9188 H   0  0  0  0  0  0  0  0  0  0  0  0
   -0.2467   -3.3541    0.5138 H   0  0  0  0  0  0  0  0  0  0  0  0
   -0.2467   -0.0679    0.1486 H   0  0  0  0  0  0  0  0  0  0  0  0
   -0.2467   -2.1284    2.6849 H   0  0  0  0  0  0  0  0  0  0  0  0
   -0.2467   -0.2803    2.6886 H   0  0  0  0  0  0  0  0  0  0  0  0
  1  2  3  0
  1  5  1  0
  2  3  1  0
  3  4  1  0
  3  6  1  0
  4  7  1  0
  4  8  1  0
  4  9  1  0
 10 11  2  3
 10 14  1  0
 10 15  1  0
 11 12  1  0
 11 16  1  0
 12 13  2  3
 12 17  1  0
 13 18  1  0
 13 19  1  0
M  RAD  1   3   2
M  END
>  <reaction>  (15) 
rxn_1657

>  <mol_properties>  (15) 
{"1": {"label": "*0", "atom_type": "Ct"}, "2": {"label": "*1", "atom_type": "Cs"}, "10": {"label": "*4", "atom_type": "Cd"}, "11": {"label": "*3", "atom_type": "Cd"}, "16": {"label": "*2", "atom_type": "H0"}}

>  <type>  (15) 
unop_11

>  <geom_source>  (15) 
Heuristics

$$$$

     RDKit          3D

 19 17  0  0  0  0  0  0  0  0999 V2000
    0.1500    0.9245   -2.6365 C   0  0  0  0  0  0  0  0  0  0  0  0
    0.1695    1.1378   -1.4582 C   0  0  0  0  0  0  0  0  0  0  0  0
    0.1695    1.4126   -0.0248 C   0  0  0  0  0  3  0  0  0  0  0  0
   -1.0233    2.2629    0.4159 C   0  0  0  0  0  0  0  0  0  0  0  0
    0.1326    0.7351   -3.6827 H   0  0  0  0  0  0  0  0  0  0  0  0
    1.1034    1.9169    0.2360 H   0  0  0  0  0  0  0  0  0  0  0  0
   -0.9824    2.4427    1.4909 H   0  0  0  0  0  0  0  0  0  0  0  0
   -1.0216    3.2257   -0.0953 H   0  0  0  0  0  0  0  0  0  0  0  0
   -1.9626    1.7598    0.1857 H   0  0  0  0  0  0  0  0  0  0  0  0
    0.1695   -2.0691   -0.8774 C   0  0  0  0  0  0  0  0  0  0  0  0
    0.1695   -2.0691    0.4515 C   0  0  0  0  0  0  0  0  0  0  0  0
    0.1695   -0.8618    1.2667 C   0  0  0  0  0  0  0  0  0  0  0  0
    0.1695   -0.8618    2.5956 C   0  0  0  0  0  0  0  0  0  0  0  0
    0.1695   -1.1425   -1.4409 H   0  0  0  0  0  0  0  0  0  0  0  0
    0.1695   -2.9906   -1.4446 H   0  0  0  0  0  0  0  0  0  0  0  0
    0.1695   -3.0140    0.9881 H   0  0  0  0  0  0  0  0  0  0  0  0
    0.1695    0.2722    0.6228 H   0  0  0  0  0  0  0  0  0  0  0  0
    0.1695   -1.7884    3.1591 H   0  0  0  0  0  0  0  0  0  0  0  0
    0.1695    0.0598    3.1628 H   0  0  0  0  0  0  0  0  0  0  0  0
  1  2  3  0
  1  5  1  0
  2  3  1  0
  3  4  1  0
  3  6  1  0
  4  7  1  0
  4  8  1  0
  4  9  1  0
 10 11  2  3
 10 14  1  0
 10 15  1  0
 11 12  1  0
 11 16  1  0
 12 13  2  3
 12 17  1  0
 13 18  1  0
 13 19  1  0
M  RAD  1   3   2
M  END
>  <reaction>  (16) 
rxn_1657

>  <mol_properties>  (16) 
{"1": {"label": "*0", "atom_type": "Ct"}, "2": {"label": "*1", "atom_type": "Cs"}, "10": {"label": "*4", "atom_type": "Cd"}, "11": {"label": "*3", "atom_type": "Cd"}, "16": {"label": "*2", "atom_type": "H0"}}

>  <type>  (16) 
unop_12

>  <geom_source>  (16) 
Heuristics

$$$$

     RDKit          3D

 19 17  0  0  0  0  0  0  0  0999 V2000
    1.2111    0.1896    0.0603 C   0  0  0  0  0  3  0  0  0  0  0  0
    2.0871   -0.2934    1.2078 C   0  0  0  0  0  0  0  0  0  0  0  0
   -2.0648    0.0860   -0.3797 C   0  0  0  0  0  0  0  0  0  0  0  0
   -2.0809   -1.2410   -0.4307 C   0  0  0  0  0  0  0  0  0  0  0  0
   -1.2196    2.1059    0.7065 C   0  0  0  0  0  0  0  0  0  0  0  0
    1.3418   -0.6999   -1.0988 C   0  0  0  0  0  0  0  0  0  0  0  0
   -1.2572    0.7806    0.6289 C   0  0  0  0  0  0  0  0  0  0  0  0
    1.4483   -1.4305   -2.0518 C   0  0  0  0  0  0  0  0  0  0  0  0
    1.5123    1.2173   -0.2332 H   0  0  0  0  0  0  0  0  0  0  0  0
   -0.1921    0.2094    0.4961 H   0  0  0  0  0  0  0  0  0  0  0  0
    1.7818   -1.3149    1.5202 H   0  0  0  0  0  0  0  0  0  0  0  0
    3.1557   -0.3036    0.9029 H   0  0  0  0  0  0  0  0  0  0  0  0
    1.9692    0.3915    2.0733 H   0  0  0  0  0  0  0  0  0  0  0  0
   -2.6547    0.6523   -1.0910 H   0  0  0  0  0  0  0  0  0  0  0  0
   -1.5018   -1.8343    0.2668 H   0  0  0  0  0  0  0  0  0  0  0  0
   -2.6790   -1.7469   -1.1775 H   0  0  0  0  0  0  0  0  0  0  0  0
   -1.7877    2.7250    0.0231 H   0  0  0  0  0  0  0  0  0  0  0  0
   -0.6112    2.5788    1.4651 H   0  0  0  0  0  0  0  0  0  0  0  0
    1.5418   -2.0719   -2.8884 H   0  0  0  0  0  0  0  0  0  0  0  0
  1  2  1  0
  1  6  1  0
  1  9  1  0
  2 11  1  0
  2 12  1  0
  2 13  1  0
  3  4  2  3
  3  7  1  0
  3 14  1  0
  4 15  1  0
  4 16  1  0
  5  7  2  3
  5 17  1  0
  5 18  1  0
  6  8  3  0
  7 10  1  0
  8 19  1  0
M  RAD  1   1   2
M  END
>  <reaction>  (17) 
rxn_1657

>  <mol_properties>  (17) 
{"1": {"label": "*0", "atom_type": "Ct"}, "2": {"label": "*1", "atom_type": "Cs"}, "10": {"label": "*4", "atom_type": "Cd"}, "11": {"label": "*3", "atom_type": "Cd"}, "16": {"label": "*2", "atom_type": "H0"}}

>  <type>  (17) 
unop_13

>  <geom_source>  (17) 
AutoTST

$$$$
