
     RDKit          3D

 12 11  0  0  0  0  0  0  0  0999 V2000
    1.9877    0.1011    0.4814 C   0  0  0  0  0  0  0  0  0  0  0  0
    0.8179    0.5502    0.0525 C   0  0  0  0  0  0  0  0  0  0  0  0
   -0.2939   -0.2692   -0.5320 C   0  0  0  0  0  0  0  0  0  0  0  0
   -0.0292   -1.7631   -0.6328 C   0  0  0  0  0  0  0  0  0  0  0  0
    2.2522   -0.9490    0.4436 H   0  0  0  0  0  0  0  0  0  0  0  0
    2.7295    0.7757    0.8896 H   0  0  0  0  0  0  0  0  0  0  0  0
    0.6162    1.6164    0.1190 H   0  0  0  0  0  0  0  0  0  0  0  0
   -0.5268    0.1319   -1.5245 H   0  0  0  0  0  0  0  0  0  0  0  0
   -1.1959   -0.0938    0.0644 H   0  0  0  0  0  0  0  0  0  0  0  0
    0.1590   -2.1992    0.3502 H   0  0  0  0  0  0  0  0  0  0  0  0
    0.8382   -1.9701   -1.2626 H   0  0  0  0  0  0  0  0  0  0  0  0
   -0.8879   -2.2759   -1.0672 H   0  0  0  0  0  0  0  0  0  0  0  0
  1  2  2  3
  1  5  1  0
  1  6  1  0
  2  3  1  0
  2  7  1  0
  3  4  1  0
  3  8  1  0
  3  9  1  0
  4 10  1  0
  4 11  1  0
  4 12  1  0
M  END
>  <reaction>  (1) 
rxn_1077

>  <mol_properties>  (1) 
{"2": {"label": "donator", "atom_type": "Cs"}, "7": {"label": "d_hydrogen", "atom_type": "H0"}}

>  <type>  (1) 
r1h

$$$$

     RDKit          3D

  6  5  0  0  0  0  0  0  0  0999 V2000
   -0.5122    0.0768    0.0308 C   0  0  0  0  0  0  0  0  0  0  0  0
    0.8187   -0.5412    0.0796 C   0  0  0  0  0  3  0  0  0  0  0  0
    2.3075   -0.1693   -0.1934 S   0  0  0  0  0  0  0  0  0  0  0  0
   -1.1499   -0.5003   -0.6435 H   0  0  0  0  0  0  0  0  0  0  0  0
   -0.4913    1.1218   -0.2933 H   0  0  0  0  0  0  0  0  0  0  0  0
   -0.9729    0.0121    1.0198 H   0  0  0  0  0  0  0  0  0  0  0  0
  1  2  1  0
  1  4  1  0
  1  5  1  0
  1  6  1  0
  2  3  2  0
M  RAD  1   2   2
M  END
>  <reaction>  (2) 
rxn_1077

>  <mol_properties>  (2) 
{"1": {"label": "acceptor", "atom_type": "CS"}}

>  <type>  (2) 
r2

$$$$

     RDKit          3D

  7  6  0  0  0  0  0  0  0  0999 V2000
   -0.6782    0.0507    0.0301 C   0  0  0  0  0  0  0  0  0  0  0  0
    0.8092    0.0996    0.0213 C   0  0  0  0  0  0  0  0  0  0  0  0
    1.7473    0.7521    1.1507 S   0  0  0  0  0  0  0  0  0  0  0  0
   -1.0667    0.5456   -0.8653 H   0  0  0  0  0  0  0  0  0  0  0  0
   -1.0112   -0.9904   -0.0239 H   0  0  0  0  0  0  0  0  0  0  0  0
   -1.0920    0.5225    0.9188 H   0  0  0  0  0  0  0  0  0  0  0  0
    1.2740   -0.3620   -0.8520 H   0  0  0  0  0  0  0  0  0  0  0  0
  1  2  1  0
  1  4  1  0
  1  5  1  0
  1  6  1  0
  2  3  2  0
  2  7  1  0
M  END
>  <reaction>  (3) 
rxn_1077

>  <mol_properties>  (3) 
{"0": {"label": "a_hydrogen", "atom_type": "H0"}, "2": {"label": "acceptor", "atom_type": "CS"}}

>  <type>  (3) 
r2h

$$$$

     RDKit          3D

 18 16  0  0  0  0  0  0  0  0999 V2000
   -0.9370   -1.2181   -2.7018 C   0  0  0  0  0  0  0  0  0  0  0  0
   -1.3594   -1.1814   -1.4353 C   0  0  0  0  0  0  0  0  0  0  0  0
   -1.4254    0.0003   -0.5786 C   0  0  0  0  0  0  0  0  0  0  0  0
   -1.2862    1.3668   -1.1990 C   0  0  0  0  0  0  0  0  0  0  0  0
   -0.6397   -0.3233   -3.2354 H   0  0  0  0  0  0  0  0  0  0  0  0
   -0.8947   -2.1507   -3.2492 H   0  0  0  0  0  0  0  0  0  0  0  0
   -1.6540   -2.1175   -0.9675 H   0  0  0  0  0  0  0  0  0  0  0  0
   -0.3687   -0.0747    0.2164 H   0  0  0  0  0  0  0  0  0  0  0  0
   -2.2144   -0.0612    0.1712 H   0  0  0  0  0  0  0  0  0  0  0  0
   -2.1127    1.5782   -1.8838 H   0  0  0  0  0  0  0  0  0  0  0  0
   -0.3563    1.4552   -1.7650 H   0  0  0  0  0  0  0  0  0  0  0  0
   -1.2751    2.1381   -0.4284 H   0  0  0  0  0  0  0  0  0  0  0  0
    1.5530   -1.3239    0.5515 C   0  0  0  0  0  0  0  0  0  0  0  0
    0.8531   -0.0613    0.8707 C   0  0  0  0  0  3  0  0  0  0  0  0
    1.3019    1.2395    1.6535 S   0  0  0  0  0  0  0  0  0  0  0  0
    0.9779   -2.1638    0.9524 H   0  0  0  0  0  0  0  0  0  0  0  0
    2.5709   -1.3530    0.9415 H   0  0  0  0  0  0  0  0  0  0  0  0
    1.5616   -1.4567   -0.5345 H   0  0  0  0  0  0  0  0  0  0  0  0
  1  2  2  3
  1  5  1  0
  1  6  1  0
  2  3  1  0
  2  7  1  0
  3  4  1  0
  3  8  1  0
  3  9  1  0
  4 10  1  0
  4 11  1  0
  4 12  1  0
 13 14  1  0
 13 16  1  0
 13 17  1  0
 13 18  1  0
 14 15  2  0
M  RAD  1  14   2
M  END
>  <reaction>  (4) 
rxn_1077

>  <mol_properties>  (4) 
{"1": {"label": "*0", "atom_type": "Cd"}, "2": {"label": "*1", "atom_type": "Cs"}, "7": {"label": "*2", "atom_type": "H0"}, "13": {"label": "*3", "atom_type": "CS"}, "14": {"label": "*4", "atom_type": "S2d"}}

>  <type>  (4) 
ts

$$$$

     RDKit          3D

 18 16  0  0  0  0  0  0  0  0999 V2000
   -1.0673   -0.9741   -2.9333 C   0  0  0  0  0  0  0  0  0  0  0  0
   -1.0673   -0.9741   -1.6089 C   0  0  0  0  0  0  0  0  0  0  0  0
   -1.0673    0.2304   -0.7155 C   0  0  0  0  0  3  0  0  0  0  0  0
   -1.0673    1.5761   -1.4232 C   0  0  0  0  0  0  0  0  0  0  0  0
   -1.0673   -0.0572   -3.5107 H   0  0  0  0  0  0  0  0  0  0  0  0
   -1.0673   -1.9015   -3.4920 H   0  0  0  0  0  0  0  0  0  0  0  0
   -1.0673   -1.9299   -1.0908 H   0  0  0  0  0  0  0  0  0  0  0  0
   -0.0240    0.1488    0.0803 H   0  0  0  0  0  0  0  0  0  0  0  0
   -1.9367    0.1624   -0.0524 H   0  0  0  0  0  0  0  0  0  0  0  0
   -1.9497    1.6911   -2.0556 H   0  0  0  0  0  0  0  0  0  0  0  0
   -0.1849    1.6911   -2.0556 H   0  0  0  0  0  0  0  0  0  0  0  0
   -1.0673    2.3905   -0.6979 H   0  0  0  0  0  0  0  0  0  0  0  0
    1.9766    1.1973    0.7526 C   0  0  0  0  0  0  0  0  0  0  0  0
    1.0156    0.0675    0.8732 C   0  0  0  0  0  0  0  0  0  0  0  0
    0.5332   -0.6311    2.2373 S   0  0  0  0  0  0  0  0  0  0  0  0
    2.8206    0.8955    0.1247 H   0  0  0  0  0  0  0  0  0  0  0  0
    2.3407    1.5226    1.7249 H   0  0  0  0  0  0  0  0  0  0  0  0
    1.4948    2.0355    0.2397 H   0  0  0  0  0  0  0  0  0  0  0  0
  1  2  2  3
  1  5  1  0
  1  6  1  0
  2  3  1  0
  2  7  1  0
  3  4  1  0
  3  9  1  0
  4 10  1  0
  4 11  1  0
  4 12  1  0
  8 14  1  0
 13 14  1  0
 13 16  1  0
 13 17  1  0
 13 18  1  0
 14 15  2  0
M  RAD  1   3   2
M  END
>  <reaction>  (5) 
rxn_1077

>  <mol_properties>  (5) 
{"1": {"label": "*0", "atom_type": "Cd"}, "2": {"label": "*1", "atom_type": "Cs"}, "7": {"label": "*2", "atom_type": "H0"}, "13": {"label": "*3", "atom_type": "CS"}, "14": {"label": "*4", "atom_type": "S2d"}}

>  <type>  (5) 
unop_1

>  <geom_source>  (5) 
Heuristics

$$$$

     RDKit          3D

 18 16  0  0  0  0  0  0  0  0999 V2000
   -1.2357   -1.1892   -2.8432 C   0  0  0  0  0  0  0  0  0  0  0  0
   -1.2357   -1.1892   -1.5189 C   0  0  0  0  0  0  0  0  0  0  0  0
   -1.2357    0.0153   -0.6254 C   0  0  0  0  0  3  0  0  0  0  0  0
   -1.2357    1.3610   -1.3331 C   0  0  0  0  0  0  0  0  0  0  0  0
   -1.2357   -0.2723   -3.4207 H   0  0  0  0  0  0  0  0  0  0  0  0
   -1.2357   -2.1165   -3.4019 H   0  0  0  0  0  0  0  0  0  0  0  0
   -1.2357   -2.1449   -1.0007 H   0  0  0  0  0  0  0  0  0  0  0  0
   -0.1924   -0.0663    0.1703 H   0  0  0  0  0  0  0  0  0  0  0  0
   -2.1050   -0.0527    0.0377 H   0  0  0  0  0  0  0  0  0  0  0  0
   -2.1181    1.4761   -1.9655 H   0  0  0  0  0  0  0  0  0  0  0  0
   -0.3532    1.4761   -1.9655 H   0  0  0  0  0  0  0  0  0  0  0  0
   -1.2357    2.1754   -0.6078 H   0  0  0  0  0  0  0  0  0  0  0  0
    2.0153   -0.8634    0.3821 C   0  0  0  0  0  0  0  0  0  0  0  0
    0.8472   -0.1476    0.9633 C   0  0  0  0  0  0  0  0  0  0  0  0
    0.8696    0.8405    2.2300 S   0  0  0  0  0  0  0  0  0  0  0  0
    1.8283   -1.9416    0.3953 H   0  0  0  0  0  0  0  0  0  0  0  0
    2.9331   -0.6436    0.9233 H   0  0  0  0  0  0  0  0  0  0  0  0
    2.1310   -0.5833   -0.6695 H   0  0  0  0  0  0  0  0  0  0  0  0
  1  2  2  3
  1  5  1  0
  1  6  1  0
  2  3  1  0
  2  7  1  0
  3  4  1  0
  3  9  1  0
  4 10  1  0
  4 11  1  0
  4 12  1  0
  8 14  1  0
 13 14  1  0
 13 16  1  0
 13 17  1  0
 13 18  1  0
 14 15  2  0
M  RAD  1   3   2
M  END
>  <reaction>  (6) 
rxn_1077

>  <mol_properties>  (6) 
{"1": {"label": "*0", "atom_type": "Cd"}, "2": {"label": "*1", "atom_type": "Cs"}, "7": {"label": "*2", "atom_type": "H0"}, "13": {"label": "*3", "atom_type": "CS"}, "14": {"label": "*4", "atom_type": "S2d"}}

>  <type>  (6) 
unop_2

>  <geom_source>  (6) 
Heuristics

$$$$

     RDKit          3D

 18 16  0  0  0  0  0  0  0  0999 V2000
   -1.1499   -0.8152   -2.8660 C   0  0  0  0  0  0  0  0  0  0  0  0
   -1.1499   -0.8152   -1.5417 C   0  0  0  0  0  0  0  0  0  0  0  0
   -1.1499    0.3893   -0.6482 C   0  0  0  0  0  3  0  0  0  0  0  0
   -1.1499    1.7351   -1.3559 C   0  0  0  0  0  0  0  0  0  0  0  0
   -1.1499    0.1017   -3.4435 H   0  0  0  0  0  0  0  0  0  0  0  0
   -1.1499   -1.7425   -3.4247 H   0  0  0  0  0  0  0  0  0  0  0  0
   -1.1499   -1.7709   -1.0235 H   0  0  0  0  0  0  0  0  0  0  0  0
   -0.1067    0.3077    0.1475 H   0  0  0  0  0  0  0  0  0  0  0  0
   -2.0193    0.3213    0.0149 H   0  0  0  0  0  0  0  0  0  0  0  0
   -2.0324    1.8501   -1.9884 H   0  0  0  0  0  0  0  0  0  0  0  0
   -0.2675    1.8501   -1.9884 H   0  0  0  0  0  0  0  0  0  0  0  0
   -1.1499    2.5494   -0.6306 H   0  0  0  0  0  0  0  0  0  0  0  0
    1.4929    1.5385    1.3644 C   0  0  0  0  0  0  0  0  0  0  0  0
    0.9329    0.2265    0.9405 C   0  0  0  0  0  0  0  0  0  0  0  0
    0.9464   -1.1352    1.7932 S   0  0  0  0  0  0  0  0  0  0  0  0
    2.2464    1.8664    0.6416 H   0  0  0  0  0  0  0  0  0  0  0  0
    1.9351    1.4865    2.3571 H   0  0  0  0  0  0  0  0  0  0  0  0
    0.7029    2.2957    1.3516 H   0  0  0  0  0  0  0  0  0  0  0  0
  1  2  2  3
  1  5  1  0
  1  6  1  0
  2  3  1  0
  2  7  1  0
  3  4  1  0
  3  9  1  0
  4 10  1  0
  4 11  1  0
  4 12  1  0
  8 14  1  0
 13 14  1  0
 13 16  1  0
 13 17  1  0
 13 18  1  0
 14 15  2  0
M  RAD  1   3   2
M  END
>  <reaction>  (7) 
rxn_1077

>  <mol_properties>  (7) 
{"1": {"label": "*0", "atom_type": "Cd"}, "2": {"label": "*1", "atom_type": "Cs"}, "7": {"label": "*2", "atom_type": "H0"}, "13": {"label": "*3", "atom_type": "CS"}, "14": {"label": "*4", "atom_type": "S2d"}}

>  <type>  (7) 
unop_3

>  <geom_source>  (7) 
Heuristics

$$$$

     RDKit          3D

 18 16  0  0  0  0  0  0  0  0999 V2000
   -1.2384   -1.2492   -2.7910 C   0  0  0  0  0  0  0  0  0  0  0  0
   -1.2384   -1.2492   -1.4667 C   0  0  0  0  0  0  0  0  0  0  0  0
   -1.2384   -0.0447   -0.5732 C   0  0  0  0  0  3  0  0  0  0  0  0
   -1.2384    1.3010   -1.2809 C   0  0  0  0  0  0  0  0  0  0  0  0
   -1.2384   -0.3323   -3.3685 H   0  0  0  0  0  0  0  0  0  0  0  0
   -1.2384   -2.1765   -3.3497 H   0  0  0  0  0  0  0  0  0  0  0  0
   -1.2384   -2.2049   -0.9485 H   0  0  0  0  0  0  0  0  0  0  0  0
   -0.1952   -0.1263    0.2225 H   0  0  0  0  0  0  0  0  0  0  0  0
   -2.1078   -0.1127    0.0899 H   0  0  0  0  0  0  0  0  0  0  0  0
   -2.1209    1.4161   -1.9133 H   0  0  0  0  0  0  0  0  0  0  0  0
   -0.3560    1.4161   -1.9133 H   0  0  0  0  0  0  0  0  0  0  0  0
   -1.2384    2.1154   -0.5556 H   0  0  0  0  0  0  0  0  0  0  0  0
    0.8667   -1.4142    1.8861 C   0  0  0  0  0  0  0  0  0  0  0  0
    0.8444   -0.2076    1.0155 C   0  0  0  0  0  0  0  0  0  0  0  0
    1.4425    1.2391    1.3772 S   0  0  0  0  0  0  0  0  0  0  0  0
   -0.1568   -1.7617    2.0576 H   0  0  0  0  0  0  0  0  0  0  0  0
    1.3509   -1.2146    2.8397 H   0  0  0  0  0  0  0  0  0  0  0  0
    1.3867   -2.2282    1.3716 H   0  0  0  0  0  0  0  0  0  0  0  0
  1  2  2  3
  1  5  1  0
  1  6  1  0
  2  3  1  0
  2  7  1  0
  3  4  1  0
  3  9  1  0
  4 10  1  0
  4 11  1  0
  4 12  1  0
  8 14  1  0
 13 14  1  0
 13 16  1  0
 13 17  1  0
 13 18  1  0
 14 15  2  0
M  RAD  1   3   2
M  END
>  <reaction>  (8) 
rxn_1077

>  <mol_properties>  (8) 
{"1": {"label": "*0", "atom_type": "Cd"}, "2": {"label": "*1", "atom_type": "Cs"}, "7": {"label": "*2", "atom_type": "H0"}, "13": {"label": "*3", "atom_type": "CS"}, "14": {"label": "*4", "atom_type": "S2d"}}

>  <type>  (8) 
unop_4

>  <geom_source>  (8) 
Heuristics

$$$$

     RDKit          3D

 18 16  0  0  0  0  0  0  0  0999 V2000
   -1.3615   -0.8177   -2.6661 C   0  0  0  0  0  0  0  0  0  0  0  0
   -1.3615   -0.8177   -1.3418 C   0  0  0  0  0  0  0  0  0  0  0  0
   -1.3615    0.3868   -0.4483 C   0  0  0  0  0  3  0  0  0  0  0  0
   -1.3615    1.7325   -1.1560 C   0  0  0  0  0  0  0  0  0  0  0  0
   -1.3615    0.0992   -3.2436 H   0  0  0  0  0  0  0  0  0  0  0  0
   -1.3615   -1.7450   -3.2248 H   0  0  0  0  0  0  0  0  0  0  0  0
   -1.3615   -1.7734   -0.8236 H   0  0  0  0  0  0  0  0  0  0  0  0
   -0.3182    0.3052    0.3474 H   0  0  0  0  0  0  0  0  0  0  0  0
   -2.2309    0.3188    0.2148 H   0  0  0  0  0  0  0  0  0  0  0  0
   -2.2439    1.8476   -1.7885 H   0  0  0  0  0  0  0  0  0  0  0  0
   -0.4791    1.8476   -1.7885 H   0  0  0  0  0  0  0  0  0  0  0  0
   -1.3615    2.5469   -0.4307 H   0  0  0  0  0  0  0  0  0  0  0  0
    0.8619    1.3563    2.0957 C   0  0  0  0  0  0  0  0  0  0  0  0
    0.7214    0.2239    1.1404 C   0  0  0  0  0  0  0  0  0  0  0  0
    1.7048   -1.0399    1.0100 S   0  0  0  0  0  0  0  0  0  0  0  0
    0.9278    2.2977    1.5415 H   0  0  0  0  0  0  0  0  0  0  0  0
    1.7383    1.2422    2.7303 H   0  0  0  0  0  0  0  0  0  0  0  0
   -0.0366    1.4261    2.7166 H   0  0  0  0  0  0  0  0  0  0  0  0
  1  2  2  3
  1  5  1  0
  1  6  1  0
  2  3  1  0
  2  7  1  0
  3  4  1  0
  3  9  1  0
  4 10  1  0
  4 11  1  0
  4 12  1  0
  8 14  1  0
 13 14  1  0
 13 16  1  0
 13 17  1  0
 13 18  1  0
 14 15  2  0
M  RAD  1   3   2
M  END
>  <reaction>  (9) 
rxn_1077

>  <mol_properties>  (9) 
{"1": {"label": "*0", "atom_type": "Cd"}, "2": {"label": "*1", "atom_type": "Cs"}, "7": {"label": "*2", "atom_type": "H0"}, "13": {"label": "*3", "atom_type": "CS"}, "14": {"label": "*4", "atom_type": "S2d"}}

>  <type>  (9) 
unop_5

>  <geom_source>  (9) 
Heuristics

$$$$

     RDKit          3D

 18 16  0  0  0  0  0  0  0  0999 V2000
   -1.2812   -1.2831   -2.6929 C   0  0  0  0  0  0  0  0  0  0  0  0
   -1.2812   -1.2831   -1.3686 C   0  0  0  0  0  0  0  0  0  0  0  0
   -1.2812   -0.0787   -0.4751 C   0  0  0  0  0  3  0  0  0  0  0  0
   -1.2812    1.2671   -1.1828 C   0  0  0  0  0  0  0  0  0  0  0  0
   -1.2812   -0.3662   -3.2704 H   0  0  0  0  0  0  0  0  0  0  0  0
   -1.2812   -2.2105   -3.2516 H   0  0  0  0  0  0  0  0  0  0  0  0
   -1.2812   -2.2389   -0.8504 H   0  0  0  0  0  0  0  0  0  0  0  0
   -0.2379   -0.1602    0.3206 H   0  0  0  0  0  0  0  0  0  0  0  0
   -2.1506   -0.1466    0.1880 H   0  0  0  0  0  0  0  0  0  0  0  0
   -2.1636    1.3821   -1.8153 H   0  0  0  0  0  0  0  0  0  0  0  0
   -0.3987    1.3821   -1.8152 H   0  0  0  0  0  0  0  0  0  0  0  0
   -1.2812    2.0815   -0.4575 H   0  0  0  0  0  0  0  0  0  0  0  0
    0.5486   -0.9530    2.3959 C   0  0  0  0  0  0  0  0  0  0  0  0
    0.8017   -0.2415    1.1136 C   0  0  0  0  0  0  0  0  0  0  0  0
    1.6898    1.0831    0.9184 S   0  0  0  0  0  0  0  0  0  0  0  0
   -0.5285   -0.9978    2.5842 H   0  0  0  0  0  0  0  0  0  0  0  0
    1.0472   -0.4670    3.2319 H   0  0  0  0  0  0  0  0  0  0  0  0
    0.8909   -1.9892    2.3141 H   0  0  0  0  0  0  0  0  0  0  0  0
  1  2  2  3
  1  5  1  0
  1  6  1  0
  2  3  1  0
  2  7  1  0
  3  4  1  0
  3  9  1  0
  4 10  1  0
  4 11  1  0
  4 12  1  0
  8 14  1  0
 13 14  1  0
 13 16  1  0
 13 17  1  0
 13 18  1  0
 14 15  2  0
M  RAD  1   3   2
M  END
>  <reaction>  (10) 
rxn_1077

>  <mol_properties>  (10) 
{"1": {"label": "*0", "atom_type": "Cd"}, "2": {"label": "*1", "atom_type": "Cs"}, "7": {"label": "*2", "atom_type": "H0"}, "13": {"label": "*3", "atom_type": "CS"}, "14": {"label": "*4", "atom_type": "S2d"}}

>  <type>  (10) 
unop_6

>  <geom_source>  (10) 
Heuristics

$$$$

     RDKit          3D

 18 16  0  0  0  0  0  0  0  0999 V2000
   -1.3571   -1.2360   -2.5802 C   0  0  0  0  0  0  0  0  0  0  0  0
   -1.3571   -1.2360   -1.2559 C   0  0  0  0  0  0  0  0  0  0  0  0
   -1.3571   -0.0315   -0.3624 C   0  0  0  0  0  3  0  0  0  0  0  0
   -1.3571    1.3142   -1.0701 C   0  0  0  0  0  0  0  0  0  0  0  0
   -1.3571   -0.3191   -3.1577 H   0  0  0  0  0  0  0  0  0  0  0  0
   -1.3571   -2.1634   -3.1389 H   0  0  0  0  0  0  0  0  0  0  0  0
   -1.3571   -2.1918   -0.7377 H   0  0  0  0  0  0  0  0  0  0  0  0
   -0.3138   -0.1131    0.4333 H   0  0  0  0  0  0  0  0  0  0  0  0
   -2.2265   -0.0995    0.3007 H   0  0  0  0  0  0  0  0  0  0  0  0
   -2.2395    1.4292   -1.7025 H   0  0  0  0  0  0  0  0  0  0  0  0
   -0.4746    1.4292   -1.7025 H   0  0  0  0  0  0  0  0  0  0  0  0
   -1.3571    2.1286   -0.3448 H   0  0  0  0  0  0  0  0  0  0  0  0
    0.3970   -0.2303    2.6772 C   0  0  0  0  0  0  0  0  0  0  0  0
    0.7258   -0.1944    1.2263 C   0  0  0  0  0  0  0  0  0  0  0  0
    1.9250    0.6268    0.5415 S   0  0  0  0  0  0  0  0  0  0  0  0
   -0.6304    0.1147    2.8291 H   0  0  0  0  0  0  0  0  0  0  0  0
    1.0800    0.3833    3.2608 H   0  0  0  0  0  0  0  0  0  0  0  0
    0.4315   -1.2637    3.0357 H   0  0  0  0  0  0  0  0  0  0  0  0
  1  2  2  3
  1  5  1  0
  1  6  1  0
  2  3  1  0
  2  7  1  0
  3  4  1  0
  3  9  1  0
  4 10  1  0
  4 11  1  0
  4 12  1  0
  8 14  1  0
 13 14  1  0
 13 16  1  0
 13 17  1  0
 13 18  1  0
 14 15  2  0
M  RAD  1   3   2
M  END
>  <reaction>  (11) 
rxn_1077

>  <mol_properties>  (11) 
{"1": {"label": "*0", "atom_type": "Cd"}, "2": {"label": "*1", "atom_type": "Cs"}, "7": {"label": "*2", "atom_type": "H0"}, "13": {"label": "*3", "atom_type": "CS"}, "14": {"label": "*4", "atom_type": "S2d"}}

>  <type>  (11) 
unop_7

>  <geom_source>  (11) 
Heuristics

$$$$

     RDKit          3D

 18 16  0  0  0  0  0  0  0  0999 V2000
   -1.0948   -1.1147   -2.9200 C   0  0  0  0  0  0  0  0  0  0  0  0
   -1.0948   -1.1147   -1.5957 C   0  0  0  0  0  0  0  0  0  0  0  0
   -1.0948    0.0898   -0.7022 C   0  0  0  0  0  3  0  0  0  0  0  0
   -1.0948    1.4356   -1.4099 C   0  0  0  0  0  0  0  0  0  0  0  0
   -1.0948   -0.1978   -3.4975 H   0  0  0  0  0  0  0  0  0  0  0  0
   -1.0948   -2.0420   -3.4787 H   0  0  0  0  0  0  0  0  0  0  0  0
   -1.0948   -2.0704   -1.0775 H   0  0  0  0  0  0  0  0  0  0  0  0
   -0.0515    0.0082    0.0935 H   0  0  0  0  0  0  0  0  0  0  0  0
   -1.9642    0.0218   -0.0391 H   0  0  0  0  0  0  0  0  0  0  0  0
   -1.9772    1.5506   -2.0424 H   0  0  0  0  0  0  0  0  0  0  0  0
   -0.2123    1.5506   -2.0424 H   0  0  0  0  0  0  0  0  0  0  0  0
   -1.0948    2.2499   -0.6846 H   0  0  0  0  0  0  0  0  0  0  0  0
    2.2244    0.5615    0.3542 C   0  0  0  0  0  0  0  0  0  0  0  0
    0.9881   -0.0730    0.8865 C   0  0  0  0  0  0  0  0  0  0  0  0
    0.4689   -0.0204    2.4060 S   0  0  0  0  0  0  0  0  0  0  0  0
    2.8663   -0.2039   -0.0928 H   0  0  0  0  0  0  0  0  0  0  0  0
    2.7719    1.0918    1.1305 H   0  0  0  0  0  0  0  0  0  0  0  0
    1.9633    1.2543   -0.4518 H   0  0  0  0  0  0  0  0  0  0  0  0
  1  2  2  3
  1  5  1  0
  1  6  1  0
  2  3  1  0
  2  7  1  0
  3  4  1  0
  3  9  1  0
  4 10  1  0
  4 11  1  0
  4 12  1  0
  8 14  1  0
 13 14  1  0
 13 16  1  0
 13 17  1  0
 13 18  1  0
 14 15  2  0
M  RAD  1   3   2
M  END
>  <reaction>  (12) 
rxn_1077

>  <mol_properties>  (12) 
{"1": {"label": "*0", "atom_type": "Cd"}, "2": {"label": "*1", "atom_type": "Cs"}, "7": {"label": "*2", "atom_type": "H0"}, "13": {"label": "*3", "atom_type": "CS"}, "14": {"label": "*4", "atom_type": "S2d"}}

>  <type>  (12) 
unop_8

>  <geom_source>  (12) 
Heuristics

$$$$

     RDKit          3D

 18 16  0  0  0  0  0  0  0  0999 V2000
   -1.2392   -1.1924   -2.8389 C   0  0  0  0  0  0  0  0  0  0  0  0
   -1.2392   -1.1924   -1.5145 C   0  0  0  0  0  0  0  0  0  0  0  0
   -1.2392    0.0121   -0.6211 C   0  0  0  0  0  3  0  0  0  0  0  0
   -1.2392    1.3578   -1.3288 C   0  0  0  0  0  0  0  0  0  0  0  0
   -1.2392   -0.2755   -3.4163 H   0  0  0  0  0  0  0  0  0  0  0  0
   -1.2392   -2.1198   -3.3976 H   0  0  0  0  0  0  0  0  0  0  0  0
   -1.2392   -2.1481   -0.9964 H   0  0  0  0  0  0  0  0  0  0  0  0
   -0.1959   -0.0695    0.1747 H   0  0  0  0  0  0  0  0  0  0  0  0
   -2.1086   -0.0559    0.0420 H   0  0  0  0  0  0  0  0  0  0  0  0
   -2.1217    1.4728   -1.9612 H   0  0  0  0  0  0  0  0  0  0  0  0
   -0.3568    1.4728   -1.9612 H   0  0  0  0  0  0  0  0  0  0  0  0
   -1.2392    2.1722   -0.6035 H   0  0  0  0  0  0  0  0  0  0  0  0
    1.2670   -1.5397    1.2937 C   0  0  0  0  0  0  0  0  0  0  0  0
    0.8436   -0.1508    0.9676 C   0  0  0  0  0  0  0  0  0  0  0  0
    1.2465    1.1811    1.7708 S   0  0  0  0  0  0  0  0  0  0  0  0
    0.3830   -2.1630    1.4601 H   0  0  0  0  0  0  0  0  0  0  0  0
    1.9080   -1.5701    2.1723 H   0  0  0  0  0  0  0  0  0  0  0  0
    1.7935   -1.9732    0.4378 H   0  0  0  0  0  0  0  0  0  0  0  0
  1  2  2  3
  1  5  1  0
  1  6  1  0
  2  3  1  0
  2  7  1  0
  3  4  1  0
  3  9  1  0
  4 10  1  0
  4 11  1  0
  4 12  1  0
  8 14  1  0
 13 14  1  0
 13 16  1  0
 13 17  1  0
 13 18  1  0
 14 15  2  0
M  RAD  1   3   2
M  END
>  <reaction>  (13) 
rxn_1077

>  <mol_properties>  (13) 
{"1": {"label": "*0", "atom_type": "Cd"}, "2": {"label": "*1", "atom_type": "Cs"}, "7": {"label": "*2", "atom_type": "H0"}, "13": {"label": "*3", "atom_type": "CS"}, "14": {"label": "*4", "atom_type": "S2d"}}

>  <type>  (13) 
unop_9

>  <geom_source>  (13) 
Heuristics

$$$$

     RDKit          3D

 18 16  0  0  0  0  0  0  0  0999 V2000
   -1.1689   -1.1864   -2.8757 C   0  0  0  0  0  0  0  0  0  0  0  0
   -1.1689   -1.1864   -1.5514 C   0  0  0  0  0  0  0  0  0  0  0  0
   -1.1689    0.0181   -0.6579 C   0  0  0  0  0  3  0  0  0  0  0  0
   -1.1689    1.3639   -1.3656 C   0  0  0  0  0  0  0  0  0  0  0  0
   -1.1689   -0.2695   -3.4531 H   0  0  0  0  0  0  0  0  0  0  0  0
   -1.1689   -2.1137   -3.4344 H   0  0  0  0  0  0  0  0  0  0  0  0
   -1.1689   -2.1421   -1.0332 H   0  0  0  0  0  0  0  0  0  0  0  0
   -0.1257   -0.0635    0.1379 H   0  0  0  0  0  0  0  0  0  0  0  0
   -2.0383   -0.0499    0.0052 H   0  0  0  0  0  0  0  0  0  0  0  0
   -2.0514    1.4789   -1.9980 H   0  0  0  0  0  0  0  0  0  0  0  0
   -0.2865    1.4789   -1.9980 H   0  0  0  0  0  0  0  0  0  0  0  0
   -1.1689    2.1782   -0.6403 H   0  0  0  0  0  0  0  0  0  0  0  0
    2.2260   -0.1857    0.2299 C   0  0  0  0  0  0  0  0  0  0  0  0
    0.9139   -0.1447    0.9308 C   0  0  0  0  0  0  0  0  0  0  0  0
    0.6246    0.4999    2.3737 S   0  0  0  0  0  0  0  0  0  0  0  0
    2.4968   -1.2249    0.0189 H   0  0  0  0  0  0  0  0  0  0  0  0
    3.0115    0.2861    0.8165 H   0  0  0  0  0  0  0  0  0  0  0  0
    2.1395    0.3136   -0.7401 H   0  0  0  0  0  0  0  0  0  0  0  0
  1  2  2  3
  1  5  1  0
  1  6  1  0
  2  3  1  0
  2  7  1  0
  3  4  1  0
  3  9  1  0
  4 10  1  0
  4 11  1  0
  4 12  1  0
  8 14  1  0
 13 14  1  0
 13 16  1  0
 13 17  1  0
 13 18  1  0
 14 15  2  0
M  RAD  1   3   2
M  END
>  <reaction>  (14) 
rxn_1077

>  <mol_properties>  (14) 
{"1": {"label": "*0", "atom_type": "Cd"}, "2": {"label": "*1", "atom_type": "Cs"}, "7": {"label": "*2", "atom_type": "H0"}, "13": {"label": "*3", "atom_type": "CS"}, "14": {"label": "*4", "atom_type": "S2d"}}

>  <type>  (14) 
unop_10

>  <geom_source>  (14) 
Heuristics

$$$$

     RDKit          3D

 18 16  0  0  0  0  0  0  0  0999 V2000
   -1.4270   -1.0656   -2.5284 C   0  0  0  0  0  0  0  0  0  0  0  0
   -1.4270   -1.0656   -1.2040 C   0  0  0  0  0  0  0  0  0  0  0  0
   -1.4270    0.1389   -0.3106 C   0  0  0  0  0  3  0  0  0  0  0  0
   -1.4270    1.4846   -1.0183 C   0  0  0  0  0  0  0  0  0  0  0  0
   -1.4270   -0.1487   -3.1058 H   0  0  0  0  0  0  0  0  0  0  0  0
   -1.4270   -1.9930   -3.0871 H   0  0  0  0  0  0  0  0  0  0  0  0
   -1.4270   -2.0214   -0.6859 H   0  0  0  0  0  0  0  0  0  0  0  0
   -0.3838    0.0573    0.4852 H   0  0  0  0  0  0  0  0  0  0  0  0
   -2.2964    0.0709    0.3525 H   0  0  0  0  0  0  0  0  0  0  0  0
   -2.3095    1.5996   -1.6507 H   0  0  0  0  0  0  0  0  0  0  0  0
   -0.5446    1.5996   -1.6507 H   0  0  0  0  0  0  0  0  0  0  0  0
   -1.4270    2.2990   -0.2930 H   0  0  0  0  0  0  0  0  0  0  0  0
    0.4711    0.6150    2.6093 C   0  0  0  0  0  0  0  0  0  0  0  0
    0.6558   -0.0240    1.2781 C   0  0  0  0  0  0  0  0  0  0  0  0
    2.0361   -0.1504    0.4656 S   0  0  0  0  0  0  0  0  0  0  0  0
   -0.2644    1.4215    2.5302 H   0  0  0  0  0  0  0  0  0  0  0  0
    1.4066    1.0089    3.0009 H   0  0  0  0  0  0  0  0  0  0  0  0
    0.0550   -0.1141    3.3115 H   0  0  0  0  0  0  0  0  0  0  0  0
  1  2  2  3
  1  5  1  0
  1  6  1  0
  2  3  1  0
  2  7  1  0
  3  4  1  0
  3  9  1  0
  4 10  1  0
  4 11  1  0
  4 12  1  0
  8 14  1  0
 13 14  1  0
 13 16  1  0
 13 17  1  0
 13 18  1  0
 14 15  2  0
M  RAD  1   3   2
M  END
>  <reaction>  (15) 
rxn_1077

>  <mol_properties>  (15) 
{"1": {"label": "*0", "atom_type": "Cd"}, "2": {"label": "*1", "atom_type": "Cs"}, "7": {"label": "*2", "atom_type": "H0"}, "13": {"label": "*3", "atom_type": "CS"}, "14": {"label": "*4", "atom_type": "S2d"}}

>  <type>  (15) 
unop_11

>  <geom_source>  (15) 
Heuristics

$$$$

     RDKit          3D

 18 16  0  0  0  0  0  0  0  0999 V2000
   -1.2555   -1.1713   -2.8414 C   0  0  0  0  0  0  0  0  0  0  0  0
   -1.2555   -1.1713   -1.5170 C   0  0  0  0  0  0  0  0  0  0  0  0
   -1.2555    0.0332   -0.6236 C   0  0  0  0  0  3  0  0  0  0  0  0
   -1.2555    1.3789   -1.3313 C   0  0  0  0  0  0  0  0  0  0  0  0
   -1.2555   -0.2544   -3.4188 H   0  0  0  0  0  0  0  0  0  0  0  0
   -1.2555   -2.0986   -3.4001 H   0  0  0  0  0  0  0  0  0  0  0  0
   -1.2555   -2.1270   -0.9989 H   0  0  0  0  0  0  0  0  0  0  0  0
   -0.2122   -0.0484    0.1722 H   0  0  0  0  0  0  0  0  0  0  0  0
   -2.1249   -0.0348    0.0395 H   0  0  0  0  0  0  0  0  0  0  0  0
   -2.1379    1.4940   -1.9637 H   0  0  0  0  0  0  0  0  0  0  0  0
   -0.3730    1.4940   -1.9637 H   0  0  0  0  0  0  0  0  0  0  0  0
   -1.2555    2.1933   -0.6060 H   0  0  0  0  0  0  0  0  0  0  0  0
    1.6701   -1.3389    0.7598 C   0  0  0  0  0  0  0  0  0  0  0  0
    0.8274   -0.1297    0.9651 C   0  0  0  0  0  0  0  0  0  0  0  0
    1.0818    1.0374    2.0396 S   0  0  0  0  0  0  0  0  0  0  0  0
    1.0621   -2.2379    0.9005 H   0  0  0  0  0  0  0  0  0  0  0  0
    2.5184   -1.3596    1.4407 H   0  0  0  0  0  0  0  0  0  0  0  0
    2.0265   -1.3663   -0.2745 H   0  0  0  0  0  0  0  0  0  0  0  0
  1  2  2  3
  1  5  1  0
  1  6  1  0
  2  3  1  0
  2  7  1  0
  3  4  1  0
  3  9  1  0
  4 10  1  0
  4 11  1  0
  4 12  1  0
  8 14  1  0
 13 14  1  0
 13 16  1  0
 13 17  1  0
 13 18  1  0
 14 15  2  0
M  RAD  1   3   2
M  END
>  <reaction>  (16) 
rxn_1077

>  <mol_properties>  (16) 
{"1": {"label": "*0", "atom_type": "Cd"}, "2": {"label": "*1", "atom_type": "Cs"}, "7": {"label": "*2", "atom_type": "H0"}, "13": {"label": "*3", "atom_type": "CS"}, "14": {"label": "*4", "atom_type": "S2d"}}

>  <type>  (16) 
unop_12

>  <geom_source>  (16) 
Heuristics

$$$$

     RDKit          3D

 18 16  0  0  0  0  0  0  0  0999 V2000
   -1.6844   -0.2222   -2.3624 S   0  0  0  0  0  0  0  0  0  0  0  0
    0.8902   -1.6697    0.3843 C   0  0  0  0  0  0  0  0  0  0  0  0
   -2.8377    0.6314   -0.2557 C   0  0  0  0  0  0  0  0  0  0  0  0
    0.4944   -0.2016    0.4916 C   0  0  0  0  0  3  0  0  0  0  0  0
    1.6885    0.6715    0.7434 C   0  0  0  0  0  0  0  0  0  0  0  0
   -1.6020    0.2570   -1.0113 C   0  0  0  0  0  0  0  0  0  0  0  0
    2.5668    0.9396   -0.2254 C   0  0  0  0  0  0  0  0  0  0  0  0
   -3.3712    1.4568   -0.7741 H   0  0  0  0  0  0  0  0  0  0  0  0
   -3.5126   -0.2461   -0.1615 H   0  0  0  0  0  0  0  0  0  0  0  0
   -2.5562    0.9740    0.7615 H   0  0  0  0  0  0  0  0  0  0  0  0
    1.3816   -2.0067    1.3220 H   0  0  0  0  0  0  0  0  0  0  0  0
   -0.0193   -2.2830    0.2153 H   0  0  0  0  0  0  0  0  0  0  0  0
    1.5815   -1.8218   -0.4712 H   0  0  0  0  0  0  0  0  0  0  0  0
   -0.2369   -0.0784    1.3189 H   0  0  0  0  0  0  0  0  0  0  0  0
    1.8171    1.1270    1.7209 H   0  0  0  0  0  0  0  0  0  0  0  0
   -0.4609    0.3640   -0.4503 H   0  0  0  0  0  0  0  0  0  0  0  0
    3.4127    1.5897   -0.0267 H   0  0  0  0  0  0  0  0  0  0  0  0
    2.4484    0.5185   -1.2193 H   0  0  0  0  0  0  0  0  0  0  0  0
  1  6  2  0
  2  4  1  0
  2 11  1  0
  2 12  1  0
  2 13  1  0
  3  6  1  0
  3  8  1  0
  3  9  1  0
  3 10  1  0
  4  5  1  0
  4 14  1  0
  5  7  2  3
  5 15  1  0
  6 16  1  0
  7 17  1  0
  7 18  1  0
M  RAD  1   4   2
M  END
>  <reaction>  (17) 
rxn_1077

>  <mol_properties>  (17) 
{"1": {"label": "*0", "atom_type": "Cd"}, "2": {"label": "*1", "atom_type": "Cs"}, "7": {"label": "*2", "atom_type": "H0"}, "13": {"label": "*3", "atom_type": "CS"}, "14": {"label": "*4", "atom_type": "S2d"}}

>  <type>  (17) 
unop_13

>  <geom_source>  (17) 
AutoTST

$$$$
