
     RDKit          3D

  8  7  0  0  0  0  0  0  0  0999 V2000
    0.7610    0.0250    0.0051 C   0  0  0  0  0  0  0  0  0  0  0  0
   -0.7610   -0.0250   -0.0051 C   0  0  0  0  0  0  0  0  0  0  0  0
    1.1904   -0.9237   -0.3217 H   0  0  0  0  0  0  0  0  0  0  0  0
    1.1359    0.8041   -0.6609 H   0  0  0  0  0  0  0  0  0  0  0  0
    1.1435    0.2336    1.0058 H   0  0  0  0  0  0  0  0  0  0  0  0
   -1.1435   -0.2336   -1.0058 H   0  0  0  0  0  0  0  0  0  0  0  0
   -1.1904    0.9237    0.3216 H   0  0  0  0  0  0  0  0  0  0  0  0
   -1.1359   -0.8041    0.6609 H   0  0  0  0  0  0  0  0  0  0  0  0
  1  2  1  0
  1  3  1  0
  1  4  1  0
  1  5  1  0
  2  6  1  0
  2  7  1  0
  2  8  1  0
M  END
>  <reaction>  (1) 
rxn_299

>  <mol_properties>  (1) 
{"1": {"label": "donator", "atom_type": "Cs"}, "5": {"label": "d_hydrogen", "atom_type": "H0"}}

>  <type>  (1) 
r1h

$$$$

     RDKit          3D

  5  4  0  0  0  0  0  0  0  0999 V2000
   -0.0419    0.0056   -0.0340 C   0  0  0  0  0  0  0  0  0  0  0  0
    1.3118    0.0049   -0.1263 O   0  0  0  0  0  1  0  0  0  0  0  0
   -0.2615   -0.1535    1.0387 H   0  0  0  0  0  0  0  0  0  0  0  0
   -0.4946    0.9694   -0.3042 H   0  0  0  0  0  0  0  0  0  0  0  0
   -0.5138   -0.8264   -0.5743 H   0  0  0  0  0  0  0  0  0  0  0  0
  1  2  1  0
  1  3  1  0
  1  4  1  0
  1  5  1  0
M  RAD  1   2   2
M  END
>  <reaction>  (2) 
rxn_299

>  <mol_properties>  (2) 
{"1": {"label": "acceptor", "atom_type": "O2s"}}

>  <type>  (2) 
r2

$$$$

     RDKit          3D

  6  5  0  0  0  0  0  0  0  0999 V2000
   -0.3669    0.0060    0.0609 C   0  0  0  0  0  0  0  0  0  0  0  0
    0.9818   -0.0507    0.4695 O   0  0  0  0  0  0  0  0  0  0  0  0
   -0.6066    0.9462   -0.4488 H   0  0  0  0  0  0  0  0  0  0  0  0
   -0.5221   -0.8115   -0.6420 H   0  0  0  0  0  0  0  0  0  0  0  0
   -1.0602   -0.1268    0.8992 H   0  0  0  0  0  0  0  0  0  0  0  0
    1.1451    0.6595    1.0897 H   0  0  0  0  0  0  0  0  0  0  0  0
  1  2  1  0
  1  3  1  0
  1  4  1  0
  1  5  1  0
  2  6  1  0
M  END
>  <reaction>  (3) 
rxn_299

>  <mol_properties>  (3) 
{"1": {"label": "acceptor", "atom_type": "O2s"}, "5": {"label": "a_hydrogen", "atom_type": "H0"}}

>  <type>  (3) 
r2h

$$$$

     RDKit          3D

 13 11  0  0  0  0  0  0  0  0999 V2000
    0.1812    1.7410   -0.0191 C   0  0  0  0  0  0  0  0  0  0  0  0
   -0.4092    0.9476    0.9593 O   0  0  0  0  0  0  0  0  0  0  0  0
    0.0245    2.7798    0.2916 H   0  0  0  0  0  0  0  0  0  0  0  0
   -0.2814    1.6160   -1.0064 H   0  0  0  0  0  0  0  0  0  0  0  0
    1.2634    1.5789   -0.1034 H   0  0  0  0  0  0  0  0  0  0  0  0
   -0.2213   -1.3973   -1.2874 C   0  0  0  0  0  0  0  0  0  0  0  0
    0.0487   -1.3927    0.1916 C   0  0  0  0  0  3  0  0  0  0  0  0
   -1.2528   -1.1147   -1.5029 H   0  0  0  0  0  0  0  0  0  0  0  0
    0.4394   -0.7093   -1.8178 H   0  0  0  0  0  0  0  0  0  0  0  0
   -0.0574   -2.3946   -1.7076 H   0  0  0  0  0  0  0  0  0  0  0  0
   -0.1963   -0.2457    0.6450 H   0  0  0  0  0  0  0  0  0  0  0  0
    1.0886   -1.5615    0.4677 H   0  0  0  0  0  0  0  0  0  0  0  0
   -0.6274   -2.0118    0.7796 H   0  0  0  0  0  0  0  0  0  0  0  0
  1  2  1  0
  1  3  1  0
  1  4  1  0
  1  5  1  0
  2 11  1  0
  6  7  1  0
  6  8  1  0
  6  9  1  0
  6 10  1  0
  7 12  1  0
  7 13  1  0
M  RAD  1   7   2
M  END
>  <reaction>  (4) 
rxn_299

>  <mol_properties>  (4) 
{"0": {"label": "*0", "atom_type": "Cs"}, "1": {"label": "*1", "atom_type": "O2s"}, "5": {"label": "*4", "atom_type": "Cs"}, "6": {"label": "*3", "atom_type": "Cs"}, "10": {"label": "*2", "atom_type": "H0"}}

>  <type>  (4) 
ts

$$$$

     RDKit          3D

 13 11  0  0  0  0  0  0  0  0999 V2000
   -0.8573    1.2564    1.3937 C   0  0  0  0  0  0  0  0  0  0  0  0
    0.2995    1.0766    0.6071 O   0  0  0  0  0  0  0  0  0  0  0  0
   -0.5520    1.7897    2.2930 H   0  0  0  0  0  0  0  0  0  0  0  0
   -1.3053    0.3031    1.6963 H   0  0  0  0  0  0  0  0  0  0  0  0
   -1.6181    1.8562    0.8814 H   0  0  0  0  0  0  0  0  0  0  0  0
    0.2995   -1.2142   -1.8072 C   0  0  0  0  0  0  0  0  0  0  0  0
    0.2995   -1.2142   -0.2844 C   0  0  0  0  0  3  0  0  0  0  0  0
   -0.5813   -0.7056   -2.2031 H   0  0  0  0  0  0  0  0  0  0  0  0
    1.1803   -0.7056   -2.2031 H   0  0  0  0  0  0  0  0  0  0  0  0
    0.2995   -2.2313   -2.2031 H   0  0  0  0  0  0  0  0  0  0  0  0
    0.2995    0.0064    0.1906 H   0  0  0  0  0  0  0  0  0  0  0  0
    1.1803   -1.7227    0.1114 H   0  0  0  0  0  0  0  0  0  0  0  0
   -0.5813   -1.7227    0.1114 H   0  0  0  0  0  0  0  0  0  0  0  0
  1  2  1  0
  1  3  1  0
  1  4  1  0
  1  5  1  0
  2 11  1  0
  6  7  1  0
  6  8  1  0
  6  9  1  0
  6 10  1  0
  7 12  1  0
  7 13  1  0
M  RAD  1   7   2
M  END
>  <reaction>  (5) 
rxn_299

>  <mol_properties>  (5) 
{"0": {"label": "*0", "atom_type": "Cs"}, "1": {"label": "*1", "atom_type": "O2s"}, "5": {"label": "*4", "atom_type": "Cs"}, "6": {"label": "*3", "atom_type": "Cs"}, "10": {"label": "*2", "atom_type": "H0"}}

>  <type>  (5) 
unop_1

>  <geom_source>  (5) 
Heuristics

$$$$

     RDKit          3D

 13 11  0  0  0  0  0  0  0  0999 V2000
   -0.4944    1.7462    0.1345 C   0  0  0  0  0  0  0  0  0  0  0  0
    0.1735    0.9047    1.0483 O   0  0  0  0  0  0  0  0  0  0  0  0
   -0.7986    2.6362    0.6838 H   0  0  0  0  0  0  0  0  0  0  0  0
   -1.3930    1.2765   -0.2814 H   0  0  0  0  0  0  0  0  0  0  0  0
    0.1541    2.0588   -0.6919 H   0  0  0  0  0  0  0  0  0  0  0  0
    0.1735   -1.3861   -1.3661 C   0  0  0  0  0  0  0  0  0  0  0  0
    0.1735   -1.3861    0.1567 C   0  0  0  0  0  3  0  0  0  0  0  0
   -0.7074   -0.8775   -1.7619 H   0  0  0  0  0  0  0  0  0  0  0  0
    1.0543   -0.8775   -1.7619 H   0  0  0  0  0  0  0  0  0  0  0  0
    0.1735   -2.4032   -1.7619 H   0  0  0  0  0  0  0  0  0  0  0  0
    0.1735   -0.1656    0.6317 H   0  0  0  0  0  0  0  0  0  0  0  0
    1.0543   -1.8946    0.5526 H   0  0  0  0  0  0  0  0  0  0  0  0
   -0.7074   -1.8946    0.5526 H   0  0  0  0  0  0  0  0  0  0  0  0
  1  2  1  0
  1  3  1  0
  1  4  1  0
  1  5  1  0
  2 11  1  0
  6  7  1  0
  6  8  1  0
  6  9  1  0
  6 10  1  0
  7 12  1  0
  7 13  1  0
M  RAD  1   7   2
M  END
>  <reaction>  (6) 
rxn_299

>  <mol_properties>  (6) 
{"0": {"label": "*0", "atom_type": "Cs"}, "1": {"label": "*1", "atom_type": "O2s"}, "5": {"label": "*4", "atom_type": "Cs"}, "6": {"label": "*3", "atom_type": "Cs"}, "10": {"label": "*2", "atom_type": "H0"}}

>  <type>  (6) 
unop_2

>  <geom_source>  (6) 
Heuristics

$$$$

     RDKit          3D

 13 11  0  0  0  0  0  0  0  0999 V2000
   -0.4953    1.1247    1.7316 C   0  0  0  0  0  0  0  0  0  0  0  0
    0.1726    1.1223    0.4893 O   0  0  0  0  0  0  0  0  0  0  0  0
   -0.0302    1.8974    2.3424 H   0  0  0  0  0  0  0  0  0  0  0  0
   -0.3976    0.1678    2.2568 H   0  0  0  0  0  0  0  0  0  0  0  0
   -1.5601    1.3634    1.6295 H   0  0  0  0  0  0  0  0  0  0  0  0
    0.1726   -1.1685   -1.9250 C   0  0  0  0  0  0  0  0  0  0  0  0
    0.1726   -1.1685   -0.4022 C   0  0  0  0  0  3  0  0  0  0  0  0
   -0.7082   -0.6599   -2.3208 H   0  0  0  0  0  0  0  0  0  0  0  0
    1.0534   -0.6599   -2.3208 H   0  0  0  0  0  0  0  0  0  0  0  0
    0.1726   -2.1856   -2.3208 H   0  0  0  0  0  0  0  0  0  0  0  0
    0.1726    0.0521    0.0728 H   0  0  0  0  0  0  0  0  0  0  0  0
    1.0534   -1.6770   -0.0064 H   0  0  0  0  0  0  0  0  0  0  0  0
   -0.7082   -1.6770   -0.0064 H   0  0  0  0  0  0  0  0  0  0  0  0
  1  2  1  0
  1  3  1  0
  1  4  1  0
  1  5  1  0
  2 11  1  0
  6  7  1  0
  6  8  1  0
  6  9  1  0
  6 10  1  0
  7 12  1  0
  7 13  1  0
M  RAD  1   7   2
M  END
>  <reaction>  (7) 
rxn_299

>  <mol_properties>  (7) 
{"0": {"label": "*0", "atom_type": "Cs"}, "1": {"label": "*1", "atom_type": "O2s"}, "5": {"label": "*4", "atom_type": "Cs"}, "6": {"label": "*3", "atom_type": "Cs"}, "10": {"label": "*2", "atom_type": "H0"}}

>  <type>  (7) 
unop_3

>  <geom_source>  (7) 
Heuristics

$$$$

     RDKit          3D

 13 11  0  0  0  0  0  0  0  0999 V2000
    0.8566    1.6151    0.4717 C   0  0  0  0  0  0  0  0  0  0  0  0
   -0.3002    0.9509    0.9299 O   0  0  0  0  0  0  0  0  0  0  0  0
    1.1773    2.2843    1.2691 H   0  0  0  0  0  0  0  0  0  0  0  0
    0.6621    2.2171   -0.4232 H   0  0  0  0  0  0  0  0  0  0  0  0
    1.6764    0.9201    0.2573 H   0  0  0  0  0  0  0  0  0  0  0  0
   -0.3002   -1.3399   -1.4845 C   0  0  0  0  0  0  0  0  0  0  0  0
   -0.3002   -1.3399    0.0383 C   0  0  0  0  0  3  0  0  0  0  0  0
   -1.1810   -0.8313   -1.8803 H   0  0  0  0  0  0  0  0  0  0  0  0
    0.5806   -0.8313   -1.8803 H   0  0  0  0  0  0  0  0  0  0  0  0
   -0.3002   -2.3570   -1.8803 H   0  0  0  0  0  0  0  0  0  0  0  0
   -0.3002   -0.1193    0.5134 H   0  0  0  0  0  0  0  0  0  0  0  0
    0.5806   -1.8484    0.4342 H   0  0  0  0  0  0  0  0  0  0  0  0
   -1.1810   -1.8484    0.4342 H   0  0  0  0  0  0  0  0  0  0  0  0
  1  2  1  0
  1  3  1  0
  1  4  1  0
  1  5  1  0
  2 11  1  0
  6  7  1  0
  6  8  1  0
  6  9  1  0
  6 10  1  0
  7 12  1  0
  7 13  1  0
M  RAD  1   7   2
M  END
>  <reaction>  (8) 
rxn_299

>  <mol_properties>  (8) 
{"0": {"label": "*0", "atom_type": "Cs"}, "1": {"label": "*1", "atom_type": "O2s"}, "5": {"label": "*4", "atom_type": "Cs"}, "6": {"label": "*3", "atom_type": "Cs"}, "10": {"label": "*2", "atom_type": "H0"}}

>  <type>  (8) 
unop_4

>  <geom_source>  (8) 
Heuristics

$$$$

     RDKit          3D

 13 11  0  0  0  0  0  0  0  0999 V2000
   -0.0000    1.0764    1.8554 C   0  0  0  0  0  0  0  0  0  0  0  0
   -0.0000    1.1389    0.4464 O   0  0  0  0  0  0  0  0  0  0  0  0
    0.0000    2.1026    2.2203 H   0  0  0  0  0  0  0  0  0  0  0  0
    0.8908    0.5731    2.2482 H   0  0  0  0  0  0  0  0  0  0  0  0
   -0.8908    0.5731    2.2482 H   0  0  0  0  0  0  0  0  0  0  0  0
   -0.0000   -1.1519   -1.9680 C   0  0  0  0  0  0  0  0  0  0  0  0
   -0.0000   -1.1519   -0.4452 C   0  0  0  0  0  3  0  0  0  0  0  0
   -0.8808   -0.6434   -2.3638 H   0  0  0  0  0  0  0  0  0  0  0  0
    0.8808   -0.6434   -2.3638 H   0  0  0  0  0  0  0  0  0  0  0  0
   -0.0000   -2.1690   -2.3638 H   0  0  0  0  0  0  0  0  0  0  0  0
   -0.0000    0.0686    0.0299 H   0  0  0  0  0  0  0  0  0  0  0  0
    0.8808   -1.6605   -0.0493 H   0  0  0  0  0  0  0  0  0  0  0  0
   -0.8808   -1.6605   -0.0493 H   0  0  0  0  0  0  0  0  0  0  0  0
  1  2  1  0
  1  3  1  0
  1  4  1  0
  1  5  1  0
  2 11  1  0
  6  7  1  0
  6  8  1  0
  6  9  1  0
  6 10  1  0
  7 12  1  0
  7 13  1  0
M  RAD  1   7   2
M  END
>  <reaction>  (9) 
rxn_299

>  <mol_properties>  (9) 
{"0": {"label": "*0", "atom_type": "Cs"}, "1": {"label": "*1", "atom_type": "O2s"}, "5": {"label": "*4", "atom_type": "Cs"}, "6": {"label": "*3", "atom_type": "Cs"}, "10": {"label": "*2", "atom_type": "H0"}}

>  <type>  (9) 
unop_5

>  <geom_source>  (9) 
Heuristics

$$$$

     RDKit          3D

 13 11  0  0  0  0  0  0  0  0999 V2000
    0.9894    1.4358    0.9326 C   0  0  0  0  0  0  0  0  0  0  0  0
   -0.3463    1.0138    0.7684 O   0  0  0  0  0  0  0  0  0  0  0  0
    1.0455    1.9523    1.8899 H   0  0  0  0  0  0  0  0  0  0  0  0
    1.3034    2.1337    0.1480 H   0  0  0  0  0  0  0  0  0  0  0  0
    1.6905    0.5938    0.9560 H   0  0  0  0  0  0  0  0  0  0  0  0
   -0.3463   -1.2769   -1.6460 C   0  0  0  0  0  0  0  0  0  0  0  0
   -0.3463   -1.2769   -0.1232 C   0  0  0  0  0  3  0  0  0  0  0  0
   -1.2271   -0.7684   -2.0418 H   0  0  0  0  0  0  0  0  0  0  0  0
    0.5346   -0.7684   -2.0418 H   0  0  0  0  0  0  0  0  0  0  0  0
   -0.3463   -2.2940   -2.0418 H   0  0  0  0  0  0  0  0  0  0  0  0
   -0.3463   -0.0564    0.3518 H   0  0  0  0  0  0  0  0  0  0  0  0
    0.5346   -1.7855    0.2727 H   0  0  0  0  0  0  0  0  0  0  0  0
   -1.2271   -1.7855    0.2727 H   0  0  0  0  0  0  0  0  0  0  0  0
  1  2  1  0
  1  3  1  0
  1  4  1  0
  1  5  1  0
  2 11  1  0
  6  7  1  0
  6  8  1  0
  6  9  1  0
  6 10  1  0
  7 12  1  0
  7 13  1  0
M  RAD  1   7   2
M  END
>  <reaction>  (10) 
rxn_299

>  <mol_properties>  (10) 
{"0": {"label": "*0", "atom_type": "Cs"}, "1": {"label": "*1", "atom_type": "O2s"}, "5": {"label": "*4", "atom_type": "Cs"}, "6": {"label": "*3", "atom_type": "Cs"}, "10": {"label": "*2", "atom_type": "H0"}}

>  <type>  (10) 
unop_6

>  <geom_source>  (10) 
Heuristics

$$$$

     RDKit          3D

 13 11  0  0  0  0  0  0  0  0999 V2000
    0.8573    1.2564    1.3937 C   0  0  0  0  0  0  0  0  0  0  0  0
   -0.2995    1.0766    0.6071 O   0  0  0  0  0  0  0  0  0  0  0  0
    0.5520    1.7897    2.2930 H   0  0  0  0  0  0  0  0  0  0  0  0
    1.6181    1.8561    0.8814 H   0  0  0  0  0  0  0  0  0  0  0  0
    1.3053    0.3031    1.6964 H   0  0  0  0  0  0  0  0  0  0  0  0
   -0.2995   -1.2142   -1.8072 C   0  0  0  0  0  0  0  0  0  0  0  0
   -0.2995   -1.2142   -0.2844 C   0  0  0  0  0  3  0  0  0  0  0  0
   -1.1803   -0.7056   -2.2031 H   0  0  0  0  0  0  0  0  0  0  0  0
    0.5813   -0.7056   -2.2031 H   0  0  0  0  0  0  0  0  0  0  0  0
   -0.2995   -2.2313   -2.2031 H   0  0  0  0  0  0  0  0  0  0  0  0
   -0.2995    0.0064    0.1906 H   0  0  0  0  0  0  0  0  0  0  0  0
    0.5813   -1.7227    0.1114 H   0  0  0  0  0  0  0  0  0  0  0  0
   -1.1803   -1.7227    0.1114 H   0  0  0  0  0  0  0  0  0  0  0  0
  1  2  1  0
  1  3  1  0
  1  4  1  0
  1  5  1  0
  2 11  1  0
  6  7  1  0
  6  8  1  0
  6  9  1  0
  6 10  1  0
  7 12  1  0
  7 13  1  0
M  RAD  1   7   2
M  END
>  <reaction>  (11) 
rxn_299

>  <mol_properties>  (11) 
{"0": {"label": "*0", "atom_type": "Cs"}, "1": {"label": "*1", "atom_type": "O2s"}, "5": {"label": "*4", "atom_type": "Cs"}, "6": {"label": "*3", "atom_type": "Cs"}, "10": {"label": "*2", "atom_type": "H0"}}

>  <type>  (11) 
unop_7

>  <geom_source>  (11) 
Heuristics

$$$$

     RDKit          3D

 13 11  0  0  0  0  0  0  0  0999 V2000
   -0.9894    1.4358    0.9326 C   0  0  0  0  0  0  0  0  0  0  0  0
    0.3463    1.0138    0.7684 O   0  0  0  0  0  0  0  0  0  0  0  0
   -1.0456    1.9523    1.8900 H   0  0  0  0  0  0  0  0  0  0  0  0
   -1.6905    0.5938    0.9560 H   0  0  0  0  0  0  0  0  0  0  0  0
   -1.3034    2.1337    0.1480 H   0  0  0  0  0  0  0  0  0  0  0  0
    0.3463   -1.2769   -1.6460 C   0  0  0  0  0  0  0  0  0  0  0  0
    0.3463   -1.2769   -0.1232 C   0  0  0  0  0  3  0  0  0  0  0  0
   -0.5345   -0.7684   -2.0418 H   0  0  0  0  0  0  0  0  0  0  0  0
    1.2271   -0.7684   -2.0418 H   0  0  0  0  0  0  0  0  0  0  0  0
    0.3463   -2.2940   -2.0418 H   0  0  0  0  0  0  0  0  0  0  0  0
    0.3463   -0.0564    0.3518 H   0  0  0  0  0  0  0  0  0  0  0  0
    1.2271   -1.7855    0.2727 H   0  0  0  0  0  0  0  0  0  0  0  0
   -0.5346   -1.7855    0.2727 H   0  0  0  0  0  0  0  0  0  0  0  0
  1  2  1  0
  1  3  1  0
  1  4  1  0
  1  5  1  0
  2 11  1  0
  6  7  1  0
  6  8  1  0
  6  9  1  0
  6 10  1  0
  7 12  1  0
  7 13  1  0
M  RAD  1   7   2
M  END
>  <reaction>  (12) 
rxn_299

>  <mol_properties>  (12) 
{"0": {"label": "*0", "atom_type": "Cs"}, "1": {"label": "*1", "atom_type": "O2s"}, "5": {"label": "*4", "atom_type": "Cs"}, "6": {"label": "*3", "atom_type": "Cs"}, "10": {"label": "*2", "atom_type": "H0"}}

>  <type>  (12) 
unop_8

>  <geom_source>  (12) 
Heuristics

$$$$

     RDKit          3D

 13 11  0  0  0  0  0  0  0  0999 V2000
    0.4944    1.7462    0.1345 C   0  0  0  0  0  0  0  0  0  0  0  0
   -0.1735    0.9047    1.0483 O   0  0  0  0  0  0  0  0  0  0  0  0
    0.7986    2.6362    0.6838 H   0  0  0  0  0  0  0  0  0  0  0  0
   -0.1541    2.0587   -0.6919 H   0  0  0  0  0  0  0  0  0  0  0  0
    1.3931    1.2765   -0.2814 H   0  0  0  0  0  0  0  0  0  0  0  0
   -0.1735   -1.3861   -1.3661 C   0  0  0  0  0  0  0  0  0  0  0  0
   -0.1735   -1.3861    0.1567 C   0  0  0  0  0  3  0  0  0  0  0  0
   -1.0543   -0.8775   -1.7619 H   0  0  0  0  0  0  0  0  0  0  0  0
    0.7074   -0.8775   -1.7619 H   0  0  0  0  0  0  0  0  0  0  0  0
   -0.1735   -2.4032   -1.7619 H   0  0  0  0  0  0  0  0  0  0  0  0
   -0.1735   -0.1656    0.6317 H   0  0  0  0  0  0  0  0  0  0  0  0
    0.7074   -1.8946    0.5526 H   0  0  0  0  0  0  0  0  0  0  0  0
   -1.0543   -1.8946    0.5526 H   0  0  0  0  0  0  0  0  0  0  0  0
  1  2  1  0
  1  3  1  0
  1  4  1  0
  1  5  1  0
  2 11  1  0
  6  7  1  0
  6  8  1  0
  6  9  1  0
  6 10  1  0
  7 12  1  0
  7 13  1  0
M  RAD  1   7   2
M  END
>  <reaction>  (13) 
rxn_299

>  <mol_properties>  (13) 
{"0": {"label": "*0", "atom_type": "Cs"}, "1": {"label": "*1", "atom_type": "O2s"}, "5": {"label": "*4", "atom_type": "Cs"}, "6": {"label": "*3", "atom_type": "Cs"}, "10": {"label": "*2", "atom_type": "H0"}}

>  <type>  (13) 
unop_9

>  <geom_source>  (13) 
Heuristics

$$$$

     RDKit          3D

 13 11  0  0  0  0  0  0  0  0999 V2000
   -0.8566    1.6151    0.4717 C   0  0  0  0  0  0  0  0  0  0  0  0
    0.3002    0.9509    0.9299 O   0  0  0  0  0  0  0  0  0  0  0  0
   -1.1773    2.2843    1.2691 H   0  0  0  0  0  0  0  0  0  0  0  0
   -1.6764    0.9201    0.2573 H   0  0  0  0  0  0  0  0  0  0  0  0
   -0.6621    2.2171   -0.4232 H   0  0  0  0  0  0  0  0  0  0  0  0
    0.3002   -1.3399   -1.4845 C   0  0  0  0  0  0  0  0  0  0  0  0
    0.3002   -1.3399    0.0383 C   0  0  0  0  0  3  0  0  0  0  0  0
   -0.5806   -0.8313   -1.8803 H   0  0  0  0  0  0  0  0  0  0  0  0
    1.1810   -0.8313   -1.8803 H   0  0  0  0  0  0  0  0  0  0  0  0
    0.3002   -2.3570   -1.8803 H   0  0  0  0  0  0  0  0  0  0  0  0
    0.3002   -0.1193    0.5134 H   0  0  0  0  0  0  0  0  0  0  0  0
    1.1810   -1.8484    0.4342 H   0  0  0  0  0  0  0  0  0  0  0  0
   -0.5806   -1.8484    0.4342 H   0  0  0  0  0  0  0  0  0  0  0  0
  1  2  1  0
  1  3  1  0
  1  4  1  0
  1  5  1  0
  2 11  1  0
  6  7  1  0
  6  8  1  0
  6  9  1  0
  6 10  1  0
  7 12  1  0
  7 13  1  0
M  RAD  1   7   2
M  END
>  <reaction>  (14) 
rxn_299

>  <mol_properties>  (14) 
{"0": {"label": "*0", "atom_type": "Cs"}, "1": {"label": "*1", "atom_type": "O2s"}, "5": {"label": "*4", "atom_type": "Cs"}, "6": {"label": "*3", "atom_type": "Cs"}, "10": {"label": "*2", "atom_type": "H0"}}

>  <type>  (14) 
unop_10

>  <geom_source>  (14) 
Heuristics

$$$$

     RDKit          3D

 13 11  0  0  0  0  0  0  0  0999 V2000
    0.4953    1.1247    1.7316 C   0  0  0  0  0  0  0  0  0  0  0  0
   -0.1726    1.1223    0.4893 O   0  0  0  0  0  0  0  0  0  0  0  0
    0.0303    1.8974    2.3424 H   0  0  0  0  0  0  0  0  0  0  0  0
    1.5601    1.3633    1.6295 H   0  0  0  0  0  0  0  0  0  0  0  0
    0.3976    0.1678    2.2569 H   0  0  0  0  0  0  0  0  0  0  0  0
   -0.1726   -1.1685   -1.9250 C   0  0  0  0  0  0  0  0  0  0  0  0
   -0.1726   -1.1685   -0.4022 C   0  0  0  0  0  3  0  0  0  0  0  0
   -1.0534   -0.6599   -2.3208 H   0  0  0  0  0  0  0  0  0  0  0  0
    0.7083   -0.6599   -2.3208 H   0  0  0  0  0  0  0  0  0  0  0  0
   -0.1726   -2.1856   -2.3208 H   0  0  0  0  0  0  0  0  0  0  0  0
   -0.1726    0.0521    0.0728 H   0  0  0  0  0  0  0  0  0  0  0  0
    0.7083   -1.6770   -0.0064 H   0  0  0  0  0  0  0  0  0  0  0  0
   -1.0534   -1.6770   -0.0064 H   0  0  0  0  0  0  0  0  0  0  0  0
  1  2  1  0
  1  3  1  0
  1  4  1  0
  1  5  1  0
  2 11  1  0
  6  7  1  0
  6  8  1  0
  6  9  1  0
  6 10  1  0
  7 12  1  0
  7 13  1  0
M  RAD  1   7   2
M  END
>  <reaction>  (15) 
rxn_299

>  <mol_properties>  (15) 
{"0": {"label": "*0", "atom_type": "Cs"}, "1": {"label": "*1", "atom_type": "O2s"}, "5": {"label": "*4", "atom_type": "Cs"}, "6": {"label": "*3", "atom_type": "Cs"}, "10": {"label": "*2", "atom_type": "H0"}}

>  <type>  (15) 
unop_11

>  <geom_source>  (15) 
Heuristics

$$$$

     RDKit          3D

 13 11  0  0  0  0  0  0  0  0999 V2000
   -0.0000    1.7941    0.0111 C   0  0  0  0  0  0  0  0  0  0  0  0
   -0.0000    0.8877    1.0916 O   0  0  0  0  0  0  0  0  0  0  0  0
   -0.0000    2.7971    0.4359 H   0  0  0  0  0  0  0  0  0  0  0  0
   -0.8908    1.6889   -0.6186 H   0  0  0  0  0  0  0  0  0  0  0  0
    0.8908    1.6889   -0.6186 H   0  0  0  0  0  0  0  0  0  0  0  0
   -0.0000   -1.4030   -1.3227 C   0  0  0  0  0  0  0  0  0  0  0  0
   -0.0000   -1.4030    0.2001 C   0  0  0  0  0  3  0  0  0  0  0  0
   -0.8808   -0.8945   -1.7186 H   0  0  0  0  0  0  0  0  0  0  0  0
    0.8808   -0.8945   -1.7186 H   0  0  0  0  0  0  0  0  0  0  0  0
   -0.0000   -2.4202   -1.7186 H   0  0  0  0  0  0  0  0  0  0  0  0
   -0.0000   -0.1825    0.6751 H   0  0  0  0  0  0  0  0  0  0  0  0
    0.8808   -1.9116    0.5959 H   0  0  0  0  0  0  0  0  0  0  0  0
   -0.8808   -1.9116    0.5959 H   0  0  0  0  0  0  0  0  0  0  0  0
  1  2  1  0
  1  3  1  0
  1  4  1  0
  1  5  1  0
  2 11  1  0
  6  7  1  0
  6  8  1  0
  6  9  1  0
  6 10  1  0
  7 12  1  0
  7 13  1  0
M  RAD  1   7   2
M  END
>  <reaction>  (16) 
rxn_299

>  <mol_properties>  (16) 
{"0": {"label": "*0", "atom_type": "Cs"}, "1": {"label": "*1", "atom_type": "O2s"}, "5": {"label": "*4", "atom_type": "Cs"}, "6": {"label": "*3", "atom_type": "Cs"}, "10": {"label": "*2", "atom_type": "H0"}}

>  <type>  (16) 
unop_12

>  <geom_source>  (16) 
Heuristics

$$$$

     RDKit          3D

 13 11  0  0  0  0  0  0  0  0999 V2000
    1.2426   -0.8106    0.0321 O   0  0  0  0  0  0  0  0  0  0  0  0
   -2.0361   -0.0096    0.1768 C   0  0  0  0  0  0  0  0  0  0  0  0
    2.2869   -0.0101    0.4993 C   0  0  0  0  0  0  0  0  0  0  0  0
   -0.8394    0.0520   -0.7542 C   0  0  0  0  0  3  0  0  0  0  0  0
   -1.9584    0.7959    0.9364 H   0  0  0  0  0  0  0  0  0  0  0  0
   -2.0569   -0.9928    0.6913 H   0  0  0  0  0  0  0  0  0  0  0  0
   -2.9739    0.1216   -0.4031 H   0  0  0  0  0  0  0  0  0  0  0  0
    1.9494    0.5730    1.3820 H   0  0  0  0  0  0  0  0  0  0  0  0
    2.6186    0.6830   -0.3023 H   0  0  0  0  0  0  0  0  0  0  0  0
    3.1389   -0.6557    0.7957 H   0  0  0  0  0  0  0  0  0  0  0  0
   -0.9054   -0.7567   -1.5122 H   0  0  0  0  0  0  0  0  0  0  0  0
   -0.8065    1.0366   -1.2665 H   0  0  0  0  0  0  0  0  0  0  0  0
    0.3401   -0.0267   -0.2752 H   0  0  0  0  0  0  0  0  0  0  0  0
  1  3  1  0
  1 13  1  0
  2  4  1  0
  2  5  1  0
  2  6  1  0
  2  7  1  0
  3  8  1  0
  3  9  1  0
  3 10  1  0
  4 11  1  0
  4 12  1  0
M  RAD  1   4   2
M  END
>  <reaction>  (17) 
rxn_299

>  <mol_properties>  (17) 
{"0": {"label": "*0", "atom_type": "Cs"}, "1": {"label": "*1", "atom_type": "O2s"}, "5": {"label": "*4", "atom_type": "Cs"}, "6": {"label": "*3", "atom_type": "Cs"}, "10": {"label": "*2", "atom_type": "H0"}}

>  <type>  (17) 
unop_13

>  <geom_source>  (17) 
AutoTST

$$$$
