
     RDKit          3D

 11 10  0  0  0  0  0  0  0  0999 V2000
   -1.2710    0.1907   -0.2084 C   0  0  0  0  0  0  0  0  0  0  0  0
    0.0202   -0.6130   -0.2928 C   0  0  0  0  0  0  0  0  0  0  0  0
    0.1086   -1.6953    0.7756 C   0  0  0  0  0  0  0  0  0  0  0  0
   -1.3607    0.6851    0.7620 H   0  0  0  0  0  0  0  0  0  0  0  0
   -2.1429   -0.4567   -0.3299 H   0  0  0  0  0  0  0  0  0  0  0  0
   -1.3158    0.9602   -0.9809 H   0  0  0  0  0  0  0  0  0  0  0  0
    0.8757    0.0616   -0.1992 H   0  0  0  0  0  0  0  0  0  0  0  0
    0.0997   -1.0712   -1.2825 H   0  0  0  0  0  0  0  0  0  0  0  0
   -0.7198   -2.4022    0.6850 H   0  0  0  0  0  0  0  0  0  0  0  0
    1.0395   -2.2596    0.6989 H   0  0  0  0  0  0  0  0  0  0  0  0
    0.0624   -1.2603    1.7770 H   0  0  0  0  0  0  0  0  0  0  0  0
  1  2  1  0
  1  4  1  0
  1  5  1  0
  1  6  1  0
  2  3  1  0
  2  7  1  0
  2  8  1  0
  3  9  1  0
  3 10  1  0
  3 11  1  0
M  END
>  <reaction>  (1) 
rxn_332

>  <mol_properties>  (1) 
{"1": {"label": "donator", "atom_type": "Cs"}, "6": {"label": "d_hydrogen", "atom_type": "H0"}}

>  <type>  (1) 
r1h

$$$$

     RDKit          3D

  5  4  0  0  0  0  0  0  0  0999 V2000
    0.0397    0.7134    0.0000 C   0  0  0  0  0  3  0  0  0  0  0  0
    0.0458   -0.5870    0.0000 C   0  0  0  0  0  0  0  0  0  0  0  0
   -0.6871    1.5118    0.0000 H   0  0  0  0  0  0  0  0  0  0  0  0
   -0.8806   -1.1637    0.0000 H   0  0  0  0  0  0  0  0  0  0  0  0
    0.9690   -1.1600    0.0000 H   0  0  0  0  0  0  0  0  0  0  0  0
  1  2  2  3
  1  3  1  0
  2  4  1  0
  2  5  1  0
M  RAD  1   1   2
M  END
>  <reaction>  (2) 
rxn_332

>  <mol_properties>  (2) 
{"0": {"label": "acceptor", "atom_type": "Cd"}}

>  <type>  (2) 
r2

$$$$

     RDKit          3D

  6  5  0  0  0  0  0  0  0  0999 V2000
    0.6594    0.0438   -0.0050 C   0  0  0  0  0  0  0  0  0  0  0  0
   -0.6594   -0.0438    0.0050 C   0  0  0  0  0  0  0  0  0  0  0  0
    1.1706    0.8681   -0.4881 H   0  0  0  0  0  0  0  0  0  0  0  0
    1.2824   -0.7051    0.4696 H   0  0  0  0  0  0  0  0  0  0  0  0
   -1.2824    0.7051   -0.4696 H   0  0  0  0  0  0  0  0  0  0  0  0
   -1.1706   -0.8681    0.4881 H   0  0  0  0  0  0  0  0  0  0  0  0
  1  2  2  3
  1  3  1  0
  1  4  1  0
  2  5  1  0
  2  6  1  0
M  END
>  <reaction>  (3) 
rxn_332

>  <mol_properties>  (3) 
{"0": {"label": "acceptor", "atom_type": "Cd"}, "5": {"label": "a_hydrogen", "atom_type": "H0"}}

>  <type>  (3) 
r2h

$$$$

     RDKit          3D

 16 14  0  0  0  0  0  0  0  0999 V2000
    1.0984   -1.0135    0.9407 C   0  0  0  0  0  3  0  0  0  0  0  0
    1.9110   -1.4314   -0.0017 C   0  0  0  0  0  0  0  0  0  0  0  0
    1.2125   -1.1236    2.0133 H   0  0  0  0  0  0  0  0  0  0  0  0
    2.8341   -1.9620    0.2234 H   0  0  0  0  0  0  0  0  0  0  0  0
    1.6956   -1.2653   -1.0531 H   0  0  0  0  0  0  0  0  0  0  0  0
   -0.9139    0.2420   -1.4653 C   0  0  0  0  0  0  0  0  0  0  0  0
   -1.0497    0.3269    0.0358 C   0  0  0  0  0  0  0  0  0  0  0  0
   -0.9539    1.7184    0.6138 C   0  0  0  0  0  0  0  0  0  0  0  0
    0.0211    0.7001   -1.7977 H   0  0  0  0  0  0  0  0  0  0  0  0
   -1.7322    0.7702   -1.9658 H   0  0  0  0  0  0  0  0  0  0  0  0
   -0.9274   -0.7933   -1.8102 H   0  0  0  0  0  0  0  0  0  0  0  0
   -0.0806   -0.3225    0.5154 H   0  0  0  0  0  0  0  0  0  0  0  0
   -1.9194   -0.2200    0.4049 H   0  0  0  0  0  0  0  0  0  0  0  0
   -1.7668    2.3539    0.2477 H   0  0  0  0  0  0  0  0  0  0  0  0
   -1.0084    1.7046    1.7036 H   0  0  0  0  0  0  0  0  0  0  0  0
   -0.0116    2.1927    0.3291 H   0  0  0  0  0  0  0  0  0  0  0  0
  1  2  2  3
  1  3  1  0
  2  4  1  0
  2  5  1  0
  6  7  1  0
  6  9  1  0
  6 10  1  0
  6 11  1  0
  7  8  1  0
  7 12  1  0
  7 13  1  0
  8 14  1  0
  8 15  1  0
  8 16  1  0
M  RAD  1   1   2
M  END
>  <reaction>  (4) 
rxn_332

>  <mol_properties>  (4) 
{"0": {"label": "*3", "atom_type": "Cd"}, "1": {"label": "*4", "atom_type": "Cd"}, "5": {"label": "*0", "atom_type": "Cs"}, "6": {"label": "*1", "atom_type": "Cs"}, "11": {"label": "*2", "atom_type": "H0"}}

>  <type>  (4) 
ts

$$$$

     RDKit          3D

 16 14  0  0  0  0  0  0  0  0999 V2000
    1.1073   -1.2123    0.5734 C   0  0  0  0  0  0  0  0  0  0  0  0
    2.0193   -0.6329    1.3347 C   0  0  0  0  0  0  0  0  0  0  0  0
    0.7100   -2.1926    0.8086 H   0  0  0  0  0  0  0  0  0  0  0  0
    2.4063   -1.1150    2.2247 H   0  0  0  0  0  0  0  0  0  0  0  0
    2.4166    0.3474    1.0996 H   0  0  0  0  0  0  0  0  0  0  0  0
   -0.9820    0.0930   -1.8196 C   0  0  0  0  0  0  0  0  0  0  0  0
   -0.9820    0.0930   -0.2962 C   0  0  0  0  0  3  0  0  0  0  0  0
   -0.9820    1.4988    0.2905 C   0  0  0  0  0  0  0  0  0  0  0  0
   -0.1006    0.6073   -2.2102 H   0  0  0  0  0  0  0  0  0  0  0  0
   -1.8635    0.6073   -2.2102 H   0  0  0  0  0  0  0  0  0  0  0  0
   -0.9820   -0.9219   -2.2207 H   0  0  0  0  0  0  0  0  0  0  0  0
    0.0674   -0.5626    0.1406 H   0  0  0  0  0  0  0  0  0  0  0  0
   -1.8566   -0.4533    0.0678 H   0  0  0  0  0  0  0  0  0  0  0  0
   -1.8635    2.0574   -0.0337 H   0  0  0  0  0  0  0  0  0  0  0  0
   -0.9821    1.4781    1.3816 H   0  0  0  0  0  0  0  0  0  0  0  0
   -0.1006    2.0574   -0.0337 H   0  0  0  0  0  0  0  0  0  0  0  0
  1  2  2  3
  1  3  1  0
  1 12  1  0
  2  4  1  0
  2  5  1  0
  6  7  1  0
  6  9  1  0
  6 10  1  0
  6 11  1  0
  7  8  1  0
  7 13  1  0
  8 14  1  0
  8 15  1  0
  8 16  1  0
M  RAD  1   7   2
M  END
>  <reaction>  (5) 
rxn_332

>  <mol_properties>  (5) 
{"0": {"label": "*3", "atom_type": "Cd"}, "1": {"label": "*4", "atom_type": "Cd"}, "5": {"label": "*0", "atom_type": "Cs"}, "6": {"label": "*1", "atom_type": "Cs"}, "11": {"label": "*2", "atom_type": "H0"}}

>  <type>  (5) 
unop_1

>  <geom_source>  (5) 
Heuristics

$$$$

     RDKit          3D

 16 14  0  0  0  0  0  0  0  0999 V2000
    1.0570   -1.0928    0.8653 C   0  0  0  0  0  0  0  0  0  0  0  0
    2.1847   -1.1338    0.1771 C   0  0  0  0  0  0  0  0  0  0  0  0
    1.0249   -1.3424    1.9192 H   0  0  0  0  0  0  0  0  0  0  0  0
    3.1225   -1.4188    0.6392 H   0  0  0  0  0  0  0  0  0  0  0  0
    2.2167   -0.8842   -0.8769 H   0  0  0  0  0  0  0  0  0  0  0  0
   -1.0324    0.2125   -1.5277 C   0  0  0  0  0  0  0  0  0  0  0  0
   -1.0324    0.2125   -0.0044 C   0  0  0  0  0  3  0  0  0  0  0  0
   -1.0324    1.6184    0.5823 C   0  0  0  0  0  0  0  0  0  0  0  0
   -0.1509    0.7268   -1.9184 H   0  0  0  0  0  0  0  0  0  0  0  0
   -1.9138    0.7268   -1.9184 H   0  0  0  0  0  0  0  0  0  0  0  0
   -1.0324   -0.8024   -1.9289 H   0  0  0  0  0  0  0  0  0  0  0  0
    0.0170   -0.4431    0.4324 H   0  0  0  0  0  0  0  0  0  0  0  0
   -1.9069   -0.3338    0.3596 H   0  0  0  0  0  0  0  0  0  0  0  0
   -1.9138    2.1769    0.2582 H   0  0  0  0  0  0  0  0  0  0  0  0
   -1.0324    1.5977    1.6734 H   0  0  0  0  0  0  0  0  0  0  0  0
   -0.1509    2.1769    0.2582 H   0  0  0  0  0  0  0  0  0  0  0  0
  1  2  2  3
  1  3  1  0
  1 12  1  0
  2  4  1  0
  2  5  1  0
  6  7  1  0
  6  9  1  0
  6 10  1  0
  6 11  1  0
  7  8  1  0
  7 13  1  0
  8 14  1  0
  8 15  1  0
  8 16  1  0
M  RAD  1   7   2
M  END
>  <reaction>  (6) 
rxn_332

>  <mol_properties>  (6) 
{"0": {"label": "*3", "atom_type": "Cd"}, "1": {"label": "*4", "atom_type": "Cd"}, "5": {"label": "*0", "atom_type": "Cs"}, "6": {"label": "*1", "atom_type": "Cs"}, "11": {"label": "*2", "atom_type": "H0"}}

>  <type>  (6) 
unop_2

>  <geom_source>  (6) 
Heuristics

$$$$

     RDKit          3D

 16 14  0  0  0  0  0  0  0  0999 V2000
    1.1731   -1.1537    0.5002 C   0  0  0  0  0  0  0  0  0  0  0  0
    1.7505   -0.8510    1.6499 C   0  0  0  0  0  0  0  0  0  0  0  0
    1.0790   -2.1796    0.1641 H   0  0  0  0  0  0  0  0  0  0  0  0
    2.1531   -1.6166    2.3027 H   0  0  0  0  0  0  0  0  0  0  0  0
    1.8445    0.1748    1.9860 H   0  0  0  0  0  0  0  0  0  0  0  0
   -0.9163    0.1516   -1.8928 C   0  0  0  0  0  0  0  0  0  0  0  0
   -0.9163    0.1516   -0.3695 C   0  0  0  0  0  3  0  0  0  0  0  0
   -0.9163    1.5574    0.2173 C   0  0  0  0  0  0  0  0  0  0  0  0
   -0.0349    0.6658   -2.2834 H   0  0  0  0  0  0  0  0  0  0  0  0
   -1.7978    0.6658   -2.2834 H   0  0  0  0  0  0  0  0  0  0  0  0
   -0.9163   -0.8633   -2.2940 H   0  0  0  0  0  0  0  0  0  0  0  0
    0.1331   -0.5040    0.0673 H   0  0  0  0  0  0  0  0  0  0  0  0
   -1.7908   -0.3948   -0.0055 H   0  0  0  0  0  0  0  0  0  0  0  0
   -1.7978    2.1160   -0.1069 H   0  0  0  0  0  0  0  0  0  0  0  0
   -0.9163    1.5367    1.3084 H   0  0  0  0  0  0  0  0  0  0  0  0
   -0.0349    2.1160   -0.1069 H   0  0  0  0  0  0  0  0  0  0  0  0
  1  2  2  3
  1  3  1  0
  1 12  1  0
  2  4  1  0
  2  5  1  0
  6  7  1  0
  6  9  1  0
  6 10  1  0
  6 11  1  0
  7  8  1  0
  7 13  1  0
  8 14  1  0
  8 15  1  0
  8 16  1  0
M  RAD  1   7   2
M  END
>  <reaction>  (7) 
rxn_332

>  <mol_properties>  (7) 
{"0": {"label": "*3", "atom_type": "Cd"}, "1": {"label": "*4", "atom_type": "Cd"}, "5": {"label": "*0", "atom_type": "Cs"}, "6": {"label": "*1", "atom_type": "Cs"}, "11": {"label": "*2", "atom_type": "H0"}}

>  <type>  (7) 
unop_3

>  <geom_source>  (7) 
Heuristics

$$$$

     RDKit          3D

 16 14  0  0  0  0  0  0  0  0999 V2000
    1.2468   -0.8445    0.7855 C   0  0  0  0  0  0  0  0  0  0  0  0
    1.4437   -2.1166    0.4857 C   0  0  0  0  0  0  0  0  0  0  0  0
    1.5717   -0.4264    1.7309 H   0  0  0  0  0  0  0  0  0  0  0  0
    1.9381   -2.7927    1.1733 H   0  0  0  0  0  0  0  0  0  0  0  0
    1.1188   -2.5347   -0.4597 H   0  0  0  0  0  0  0  0  0  0  0  0
   -0.8426    0.4608   -1.6075 C   0  0  0  0  0  0  0  0  0  0  0  0
   -0.8426    0.4608   -0.0842 C   0  0  0  0  0  3  0  0  0  0  0  0
   -0.8426    1.8666    0.5026 C   0  0  0  0  0  0  0  0  0  0  0  0
    0.0389    0.9751   -1.9981 H   0  0  0  0  0  0  0  0  0  0  0  0
   -1.7240    0.9751   -1.9981 H   0  0  0  0  0  0  0  0  0  0  0  0
   -0.8426   -0.5541   -2.0087 H   0  0  0  0  0  0  0  0  0  0  0  0
    0.2068   -0.1948    0.3526 H   0  0  0  0  0  0  0  0  0  0  0  0
   -1.7171   -0.0855    0.2798 H   0  0  0  0  0  0  0  0  0  0  0  0
   -1.7240    2.4252    0.1784 H   0  0  0  0  0  0  0  0  0  0  0  0
   -0.8426    1.8459    1.5937 H   0  0  0  0  0  0  0  0  0  0  0  0
    0.0389    2.4252    0.1784 H   0  0  0  0  0  0  0  0  0  0  0  0
  1  2  2  3
  1  3  1  0
  1 12  1  0
  2  4  1  0
  2  5  1  0
  6  7  1  0
  6  9  1  0
  6 10  1  0
  6 11  1  0
  7  8  1  0
  7 13  1  0
  8 14  1  0
  8 15  1  0
  8 16  1  0
M  RAD  1   7   2
M  END
>  <reaction>  (8) 
rxn_332

>  <mol_properties>  (8) 
{"0": {"label": "*3", "atom_type": "Cd"}, "1": {"label": "*4", "atom_type": "Cd"}, "5": {"label": "*0", "atom_type": "Cs"}, "6": {"label": "*1", "atom_type": "Cs"}, "11": {"label": "*2", "atom_type": "H0"}}

>  <type>  (8) 
unop_4

>  <geom_source>  (8) 
Heuristics

$$$$

     RDKit          3D

 16 14  0  0  0  0  0  0  0  0999 V2000
    1.2336   -1.0681    0.4763 C   0  0  0  0  0  0  0  0  0  0  0  0
    1.4704   -1.2160    1.7682 C   0  0  0  0  0  0  0  0  0  0  0  0
    1.8966   -1.4822   -0.2741 H   0  0  0  0  0  0  0  0  0  0  0  0
    2.3370   -1.7574    2.1289 H   0  0  0  0  0  0  0  0  0  0  0  0
    0.8074   -0.8018    2.5186 H   0  0  0  0  0  0  0  0  0  0  0  0
   -0.8557    0.2372   -1.9167 C   0  0  0  0  0  0  0  0  0  0  0  0
   -0.8557    0.2372   -0.3934 C   0  0  0  0  0  3  0  0  0  0  0  0
   -0.8557    1.6431    0.1934 C   0  0  0  0  0  0  0  0  0  0  0  0
    0.0257    0.7515   -2.3073 H   0  0  0  0  0  0  0  0  0  0  0  0
   -1.7372    0.7515   -2.3073 H   0  0  0  0  0  0  0  0  0  0  0  0
   -0.8557   -0.7777   -2.3178 H   0  0  0  0  0  0  0  0  0  0  0  0
    0.1937   -0.4184    0.0435 H   0  0  0  0  0  0  0  0  0  0  0  0
   -1.7303   -0.3091   -0.0293 H   0  0  0  0  0  0  0  0  0  0  0  0
   -1.7372    2.2016   -0.1308 H   0  0  0  0  0  0  0  0  0  0  0  0
   -0.8557    1.6224    1.2845 H   0  0  0  0  0  0  0  0  0  0  0  0
    0.0257    2.2016   -0.1308 H   0  0  0  0  0  0  0  0  0  0  0  0
  1  2  2  3
  1  3  1  0
  1 12  1  0
  2  4  1  0
  2  5  1  0
  6  7  1  0
  6  9  1  0
  6 10  1  0
  6 11  1  0
  7  8  1  0
  7 13  1  0
  8 14  1  0
  8 15  1  0
  8 16  1  0
M  RAD  1   7   2
M  END
>  <reaction>  (9) 
rxn_332

>  <mol_properties>  (9) 
{"0": {"label": "*3", "atom_type": "Cd"}, "1": {"label": "*4", "atom_type": "Cd"}, "5": {"label": "*0", "atom_type": "Cs"}, "6": {"label": "*1", "atom_type": "Cs"}, "11": {"label": "*2", "atom_type": "H0"}}

>  <type>  (9) 
unop_5

>  <geom_source>  (9) 
Heuristics

$$$$

     RDKit          3D

 16 14  0  0  0  0  0  0  0  0999 V2000
    1.2943   -0.8422    0.6782 C   0  0  0  0  0  0  0  0  0  0  0  0
    1.2525   -2.1430    0.9090 C   0  0  0  0  0  0  0  0  0  0  0  0
    1.7941   -0.1605    1.3561 H   0  0  0  0  0  0  0  0  0  0  0  0
    1.7164   -2.5800    1.7854 H   0  0  0  0  0  0  0  0  0  0  0  0
    0.7527   -2.8248    0.2310 H   0  0  0  0  0  0  0  0  0  0  0  0
   -0.7951    0.4631   -1.7148 C   0  0  0  0  0  0  0  0  0  0  0  0
   -0.7951    0.4631   -0.1914 C   0  0  0  0  0  3  0  0  0  0  0  0
   -0.7951    1.8689    0.3953 C   0  0  0  0  0  0  0  0  0  0  0  0
    0.0864    0.9773   -2.1054 H   0  0  0  0  0  0  0  0  0  0  0  0
   -1.6766    0.9773   -2.1054 H   0  0  0  0  0  0  0  0  0  0  0  0
   -0.7951   -0.5518   -2.1159 H   0  0  0  0  0  0  0  0  0  0  0  0
    0.2543   -0.1926    0.2454 H   0  0  0  0  0  0  0  0  0  0  0  0
   -1.6696   -0.0833    0.1726 H   0  0  0  0  0  0  0  0  0  0  0  0
   -1.6765    2.4274    0.0711 H   0  0  0  0  0  0  0  0  0  0  0  0
   -0.7951    1.8482    1.4864 H   0  0  0  0  0  0  0  0  0  0  0  0
    0.0864    2.4274    0.0711 H   0  0  0  0  0  0  0  0  0  0  0  0
  1  2  2  3
  1  3  1  0
  1 12  1  0
  2  4  1  0
  2  5  1  0
  6  7  1  0
  6  9  1  0
  6 10  1  0
  6 11  1  0
  7  8  1  0
  7 13  1  0
  8 14  1  0
  8 15  1  0
  8 16  1  0
M  RAD  1   7   2
M  END
>  <reaction>  (10) 
rxn_332

>  <mol_properties>  (10) 
{"0": {"label": "*3", "atom_type": "Cd"}, "1": {"label": "*4", "atom_type": "Cd"}, "5": {"label": "*0", "atom_type": "Cs"}, "6": {"label": "*1", "atom_type": "Cs"}, "11": {"label": "*2", "atom_type": "H0"}}

>  <type>  (10) 
unop_6

>  <geom_source>  (10) 
Heuristics

$$$$

     RDKit          3D

 16 14  0  0  0  0  0  0  0  0999 V2000
    1.3079   -0.8913    0.5734 C   0  0  0  0  0  0  0  0  0  0  0  0
    1.1871   -1.9649    1.3347 C   0  0  0  0  0  0  0  0  0  0  0  0
    2.0147   -0.1043    0.8086 H   0  0  0  0  0  0  0  0  0  0  0  0
    1.7901   -2.1014    2.2247 H   0  0  0  0  0  0  0  0  0  0  0  0
    0.4803   -2.7519    1.0996 H   0  0  0  0  0  0  0  0  0  0  0  0
   -0.7815    0.4140   -1.8196 C   0  0  0  0  0  0  0  0  0  0  0  0
   -0.7815    0.4140   -0.2962 C   0  0  0  0  0  3  0  0  0  0  0  0
   -0.7815    1.8198    0.2905 C   0  0  0  0  0  0  0  0  0  0  0  0
    0.1000    0.9283   -2.2102 H   0  0  0  0  0  0  0  0  0  0  0  0
   -1.6630    0.9283   -2.2102 H   0  0  0  0  0  0  0  0  0  0  0  0
   -0.7815   -0.6009   -2.2207 H   0  0  0  0  0  0  0  0  0  0  0  0
    0.2679   -0.2416    0.1406 H   0  0  0  0  0  0  0  0  0  0  0  0
   -1.6560   -0.1323    0.0678 H   0  0  0  0  0  0  0  0  0  0  0  0
   -1.6630    2.3784   -0.0337 H   0  0  0  0  0  0  0  0  0  0  0  0
   -0.7815    1.7992    1.3816 H   0  0  0  0  0  0  0  0  0  0  0  0
    0.1000    2.3784   -0.0337 H   0  0  0  0  0  0  0  0  0  0  0  0
  1  2  2  3
  1  3  1  0
  1 12  1  0
  2  4  1  0
  2  5  1  0
  6  7  1  0
  6  9  1  0
  6 10  1  0
  6 11  1  0
  7  8  1  0
  7 13  1  0
  8 14  1  0
  8 15  1  0
  8 16  1  0
M  RAD  1   7   2
M  END
>  <reaction>  (11) 
rxn_332

>  <mol_properties>  (11) 
{"0": {"label": "*3", "atom_type": "Cd"}, "1": {"label": "*4", "atom_type": "Cd"}, "5": {"label": "*0", "atom_type": "Cs"}, "6": {"label": "*1", "atom_type": "Cs"}, "11": {"label": "*2", "atom_type": "H0"}}

>  <type>  (11) 
unop_7

>  <geom_source>  (11) 
Heuristics

$$$$

     RDKit          3D

 16 14  0  0  0  0  0  0  0  0999 V2000
    1.0573   -1.2216    0.6782 C   0  0  0  0  0  0  0  0  0  0  0  0
    2.2080   -0.6136    0.9090 C   0  0  0  0  0  0  0  0  0  0  0  0
    0.6638   -1.9698    1.3561 H   0  0  0  0  0  0  0  0  0  0  0  0
    2.8041   -0.8388    1.7854 H   0  0  0  0  0  0  0  0  0  0  0  0
    2.6015    0.1346    0.2310 H   0  0  0  0  0  0  0  0  0  0  0  0
   -1.0321    0.0837   -1.7148 C   0  0  0  0  0  0  0  0  0  0  0  0
   -1.0321    0.0837   -0.1914 C   0  0  0  0  0  3  0  0  0  0  0  0
   -1.0321    1.4895    0.3953 C   0  0  0  0  0  0  0  0  0  0  0  0
   -0.1506    0.5980   -2.1054 H   0  0  0  0  0  0  0  0  0  0  0  0
   -1.9135    0.5980   -2.1054 H   0  0  0  0  0  0  0  0  0  0  0  0
   -1.0321   -0.9312   -2.1159 H   0  0  0  0  0  0  0  0  0  0  0  0
    0.0174   -0.5719    0.2454 H   0  0  0  0  0  0  0  0  0  0  0  0
   -1.9066   -0.4626    0.1726 H   0  0  0  0  0  0  0  0  0  0  0  0
   -1.9135    2.0481    0.0711 H   0  0  0  0  0  0  0  0  0  0  0  0
   -1.0321    1.4689    1.4864 H   0  0  0  0  0  0  0  0  0  0  0  0
   -0.1506    2.0481    0.0711 H   0  0  0  0  0  0  0  0  0  0  0  0
  1  2  2  3
  1  3  1  0
  1 12  1  0
  2  4  1  0
  2  5  1  0
  6  7  1  0
  6  9  1  0
  6 10  1  0
  6 11  1  0
  7  8  1  0
  7 13  1  0
  8 14  1  0
  8 15  1  0
  8 16  1  0
M  RAD  1   7   2
M  END
>  <reaction>  (12) 
rxn_332

>  <mol_properties>  (12) 
{"0": {"label": "*3", "atom_type": "Cd"}, "1": {"label": "*4", "atom_type": "Cd"}, "5": {"label": "*0", "atom_type": "Cs"}, "6": {"label": "*1", "atom_type": "Cs"}, "11": {"label": "*2", "atom_type": "H0"}}

>  <type>  (12) 
unop_8

>  <geom_source>  (12) 
Heuristics

$$$$

     RDKit          3D

 16 14  0  0  0  0  0  0  0  0999 V2000
    1.1784   -0.8984    0.8653 C   0  0  0  0  0  0  0  0  0  0  0  0
    1.7098   -1.8939    0.1771 C   0  0  0  0  0  0  0  0  0  0  0  0
    1.3887   -0.7601    1.9192 H   0  0  0  0  0  0  0  0  0  0  0  0
    2.3772   -2.6117    0.6392 H   0  0  0  0  0  0  0  0  0  0  0  0
    1.4995   -2.0322   -0.8769 H   0  0  0  0  0  0  0  0  0  0  0  0
   -0.9110    0.4068   -1.5277 C   0  0  0  0  0  0  0  0  0  0  0  0
   -0.9110    0.4068   -0.0044 C   0  0  0  0  0  3  0  0  0  0  0  0
   -0.9110    1.8127    0.5823 C   0  0  0  0  0  0  0  0  0  0  0  0
   -0.0296    0.9211   -1.9184 H   0  0  0  0  0  0  0  0  0  0  0  0
   -1.7925    0.9211   -1.9184 H   0  0  0  0  0  0  0  0  0  0  0  0
   -0.9110   -0.6080   -1.9289 H   0  0  0  0  0  0  0  0  0  0  0  0
    0.1384   -0.2488    0.4324 H   0  0  0  0  0  0  0  0  0  0  0  0
   -1.7855   -0.1395    0.3596 H   0  0  0  0  0  0  0  0  0  0  0  0
   -1.7925    2.3712    0.2582 H   0  0  0  0  0  0  0  0  0  0  0  0
   -0.9110    1.7920    1.6734 H   0  0  0  0  0  0  0  0  0  0  0  0
   -0.0295    2.3712    0.2582 H   0  0  0  0  0  0  0  0  0  0  0  0
  1  2  2  3
  1  3  1  0
  1 12  1  0
  2  4  1  0
  2  5  1  0
  6  7  1  0
  6  9  1  0
  6 10  1  0
  6 11  1  0
  7  8  1  0
  7 13  1  0
  8 14  1  0
  8 15  1  0
  8 16  1  0
M  RAD  1   7   2
M  END
>  <reaction>  (13) 
rxn_332

>  <mol_properties>  (13) 
{"0": {"label": "*3", "atom_type": "Cd"}, "1": {"label": "*4", "atom_type": "Cd"}, "5": {"label": "*0", "atom_type": "Cs"}, "6": {"label": "*1", "atom_type": "Cs"}, "11": {"label": "*2", "atom_type": "H0"}}

>  <type>  (13) 
unop_9

>  <geom_source>  (13) 
Heuristics

$$$$

     RDKit          3D

 16 14  0  0  0  0  0  0  0  0999 V2000
    1.0385   -1.1779    0.7855 C   0  0  0  0  0  0  0  0  0  0  0  0
    2.2681   -0.7970    0.4857 C   0  0  0  0  0  0  0  0  0  0  0  0
    0.8053   -1.6533    1.7309 H   0  0  0  0  0  0  0  0  0  0  0  0
    3.0925   -0.9448    1.1733 H   0  0  0  0  0  0  0  0  0  0  0  0
    2.5013   -0.3216   -0.4597 H   0  0  0  0  0  0  0  0  0  0  0  0
   -1.0509    0.1274   -1.6075 C   0  0  0  0  0  0  0  0  0  0  0  0
   -1.0509    0.1274   -0.0842 C   0  0  0  0  0  3  0  0  0  0  0  0
   -1.0509    1.5332    0.5026 C   0  0  0  0  0  0  0  0  0  0  0  0
   -0.1694    0.6417   -1.9981 H   0  0  0  0  0  0  0  0  0  0  0  0
   -1.9323    0.6417   -1.9981 H   0  0  0  0  0  0  0  0  0  0  0  0
   -1.0509   -0.8875   -2.0087 H   0  0  0  0  0  0  0  0  0  0  0  0
   -0.0014   -0.5282    0.3526 H   0  0  0  0  0  0  0  0  0  0  0  0
   -1.9254   -0.4189    0.2798 H   0  0  0  0  0  0  0  0  0  0  0  0
   -1.9323    2.0918    0.1784 H   0  0  0  0  0  0  0  0  0  0  0  0
   -1.0509    1.5125    1.5937 H   0  0  0  0  0  0  0  0  0  0  0  0
   -0.1694    2.0918    0.1784 H   0  0  0  0  0  0  0  0  0  0  0  0
  1  2  2  3
  1  3  1  0
  1 12  1  0
  2  4  1  0
  2  5  1  0
  6  7  1  0
  6  9  1  0
  6 10  1  0
  6 11  1  0
  7  8  1  0
  7 13  1  0
  8 14  1  0
  8 15  1  0
  8 16  1  0
M  RAD  1   7   2
M  END
>  <reaction>  (14) 
rxn_332

>  <mol_properties>  (14) 
{"0": {"label": "*3", "atom_type": "Cd"}, "1": {"label": "*4", "atom_type": "Cd"}, "5": {"label": "*0", "atom_type": "Cs"}, "6": {"label": "*1", "atom_type": "Cs"}, "11": {"label": "*2", "atom_type": "H0"}}

>  <type>  (14) 
unop_10

>  <geom_source>  (14) 
Heuristics

$$$$

     RDKit          3D

 16 14  0  0  0  0  0  0  0  0999 V2000
    1.2841   -0.9760    0.5002 C   0  0  0  0  0  0  0  0  0  0  0  0
    1.2653   -1.6277    1.6499 C   0  0  0  0  0  0  0  0  0  0  0  0
    2.1648   -0.4416    0.1641 H   0  0  0  0  0  0  0  0  0  0  0  0
    2.1298   -1.6538    2.3027 H   0  0  0  0  0  0  0  0  0  0  0  0
    0.3845   -2.1621    1.9860 H   0  0  0  0  0  0  0  0  0  0  0  0
   -0.8053    0.3293   -1.8928 C   0  0  0  0  0  0  0  0  0  0  0  0
   -0.8053    0.3293   -0.3695 C   0  0  0  0  0  3  0  0  0  0  0  0
   -0.8053    1.7351    0.2173 C   0  0  0  0  0  0  0  0  0  0  0  0
    0.0761    0.8435   -2.2834 H   0  0  0  0  0  0  0  0  0  0  0  0
   -1.6868    0.8435   -2.2834 H   0  0  0  0  0  0  0  0  0  0  0  0
   -0.8053   -0.6856   -2.2940 H   0  0  0  0  0  0  0  0  0  0  0  0
    0.2441   -0.3264    0.0673 H   0  0  0  0  0  0  0  0  0  0  0  0
   -1.6798   -0.2171   -0.0055 H   0  0  0  0  0  0  0  0  0  0  0  0
   -1.6868    2.2936   -0.1069 H   0  0  0  0  0  0  0  0  0  0  0  0
   -0.8053    1.7144    1.3084 H   0  0  0  0  0  0  0  0  0  0  0  0
    0.0761    2.2936   -0.1069 H   0  0  0  0  0  0  0  0  0  0  0  0
  1  2  2  3
  1  3  1  0
  1 12  1  0
  2  4  1  0
  2  5  1  0
  6  7  1  0
  6  9  1  0
  6 10  1  0
  6 11  1  0
  7  8  1  0
  7 13  1  0
  8 14  1  0
  8 15  1  0
  8 16  1  0
M  RAD  1   7   2
M  END
>  <reaction>  (15) 
rxn_332

>  <mol_properties>  (15) 
{"0": {"label": "*3", "atom_type": "Cd"}, "1": {"label": "*4", "atom_type": "Cd"}, "5": {"label": "*0", "atom_type": "Cs"}, "6": {"label": "*1", "atom_type": "Cs"}, "11": {"label": "*2", "atom_type": "H0"}}

>  <type>  (15) 
unop_11

>  <geom_source>  (15) 
Heuristics

$$$$

     RDKit          3D

 16 14  0  0  0  0  0  0  0  0999 V2000
    1.1084   -0.9898    0.8947 C   0  0  0  0  0  0  0  0  0  0  0  0
    1.9805   -1.5346    0.0644 C   0  0  0  0  0  0  0  0  0  0  0  0
    1.2249   -1.0626    1.9696 H   0  0  0  0  0  0  0  0  0  0  0  0
    2.8471   -2.0760    0.4251 H   0  0  0  0  0  0  0  0  0  0  0  0
    1.8640   -1.4618   -1.0105 H   0  0  0  0  0  0  0  0  0  0  0  0
   -0.9810    0.3155   -1.4982 C   0  0  0  0  0  0  0  0  0  0  0  0
   -0.9810    0.3155    0.0251 C   0  0  0  0  0  3  0  0  0  0  0  0
   -0.9810    1.7213    0.6118 C   0  0  0  0  0  0  0  0  0  0  0  0
   -0.0995    0.8298   -1.8889 H   0  0  0  0  0  0  0  0  0  0  0  0
   -1.8625    0.8298   -1.8889 H   0  0  0  0  0  0  0  0  0  0  0  0
   -0.9810   -0.6994   -1.8994 H   0  0  0  0  0  0  0  0  0  0  0  0
    0.0684   -0.3401    0.4619 H   0  0  0  0  0  0  0  0  0  0  0  0
   -1.8555   -0.2308    0.3891 H   0  0  0  0  0  0  0  0  0  0  0  0
   -1.8624    2.2799    0.2877 H   0  0  0  0  0  0  0  0  0  0  0  0
   -0.9810    1.7006    1.7029 H   0  0  0  0  0  0  0  0  0  0  0  0
   -0.0995    2.2799    0.2877 H   0  0  0  0  0  0  0  0  0  0  0  0
  1  2  2  3
  1  3  1  0
  1 12  1  0
  2  4  1  0
  2  5  1  0
  6  7  1  0
  6  9  1  0
  6 10  1  0
  6 11  1  0
  7  8  1  0
  7 13  1  0
  8 14  1  0
  8 15  1  0
  8 16  1  0
M  RAD  1   7   2
M  END
>  <reaction>  (16) 
rxn_332

>  <mol_properties>  (16) 
{"0": {"label": "*3", "atom_type": "Cd"}, "1": {"label": "*4", "atom_type": "Cd"}, "5": {"label": "*0", "atom_type": "Cs"}, "6": {"label": "*1", "atom_type": "Cs"}, "11": {"label": "*2", "atom_type": "H0"}}

>  <type>  (16) 
unop_12

>  <geom_source>  (16) 
Heuristics

$$$$

     RDKit          3D

 16 14  0  0  0  0  0  0  0  0999 V2000
   -0.6991   -0.8626    1.1001 C   0  0  0  0  0  0  0  0  0  0  0  0
   -1.8444    1.0531   -0.0725 C   0  0  0  0  0  0  0  0  0  0  0  0
   -0.7687   -0.0218   -0.1686 C   0  0  0  0  0  3  0  0  0  0  0  0
    2.6192   -0.0296   -0.2055 C   0  0  0  0  0  0  0  0  0  0  0  0
    1.6394   -0.0656   -1.1049 C   0  0  0  0  0  0  0  0  0  0  0  0
   -0.4668   -0.2179    1.9739 H   0  0  0  0  0  0  0  0  0  0  0  0
    0.1054   -1.6198    0.9945 H   0  0  0  0  0  0  0  0  0  0  0  0
   -1.6644   -1.3852    1.2712 H   0  0  0  0  0  0  0  0  0  0  0  0
   -1.6321    1.7313    0.7807 H   0  0  0  0  0  0  0  0  0  0  0  0
   -1.8500    1.6510   -1.0075 H   0  0  0  0  0  0  0  0  0  0  0  0
   -2.8443    0.5886    0.0631 H   0  0  0  0  0  0  0  0  0  0  0  0
   -0.9661   -0.6761   -1.0450 H   0  0  0  0  0  0  0  0  0  0  0  0
    2.4176    0.3080    0.8055 H   0  0  0  0  0  0  0  0  0  0  0  0
    3.6236   -0.3373   -0.4778 H   0  0  0  0  0  0  0  0  0  0  0  0
    1.8377   -0.4028   -2.1171 H   0  0  0  0  0  0  0  0  0  0  0  0
    0.4930    0.2867   -0.7903 H   0  0  0  0  0  0  0  0  0  0  0  0
  1  3  1  0
  1  6  1  0
  1  7  1  0
  1  8  1  0
  2  3  1  0
  2  9  1  0
  2 10  1  0
  2 11  1  0
  3 12  1  0
  4  5  2  3
  4 13  1  0
  4 14  1  0
  5 15  1  0
  5 16  1  0
M  RAD  1   3   2
M  END
>  <reaction>  (17) 
rxn_332

>  <mol_properties>  (17) 
{"0": {"label": "*3", "atom_type": "Cd"}, "1": {"label": "*4", "atom_type": "Cd"}, "5": {"label": "*0", "atom_type": "Cs"}, "6": {"label": "*1", "atom_type": "Cs"}, "11": {"label": "*2", "atom_type": "H0"}}

>  <type>  (17) 
unop_13

>  <geom_source>  (17) 
AutoTST

$$$$
