
     RDKit          3D

 13 12  0  0  0  0  0  0  0  0999 V2000
    2.2975   -0.6134    0.7685 C   0  0  0  0  0  0  0  0  0  0  0  0
    1.1676   -0.5248    0.3802 C   0  0  0  0  0  0  0  0  0  0  0  0
   -0.2109   -0.3926   -0.0948 C   0  0  0  0  0  0  0  0  0  0  0  0
   -0.2501    0.2584   -1.4808 C   0  0  0  0  0  0  0  0  0  0  0  0
   -1.0633    0.3831    0.9141 C   0  0  0  0  0  0  0  0  0  0  0  0
    3.2999   -0.6974    1.1133 H   0  0  0  0  0  0  0  0  0  0  0  0
   -0.6209   -1.4038   -0.1814 H   0  0  0  0  0  0  0  0  0  0  0  0
    0.3402   -0.3102   -2.1992 H   0  0  0  0  0  0  0  0  0  0  0  0
    0.1511    1.2724   -1.4369 H   0  0  0  0  0  0  0  0  0  0  0  0
   -1.2791    0.3109   -1.8407 H   0  0  0  0  0  0  0  0  0  0  0  0
   -0.6861    1.4008    1.0287 H   0  0  0  0  0  0  0  0  0  0  0  0
   -1.0492   -0.0971    1.8924 H   0  0  0  0  0  0  0  0  0  0  0  0
   -2.0971    0.4363    0.5680 H   0  0  0  0  0  0  0  0  0  0  0  0
  1  2  3  0
  1  6  1  0
  2  3  1  0
  3  4  1  0
  3  5  1  0
  3  7  1  0
  4  8  1  0
  4  9  1  0
  4 10  1  0
  5 11  1  0
  5 12  1  0
  5 13  1  0
M  END
>  <reaction>  (1) 
rxn_1323

>  <mol_properties>  (1) 
{"2": {"label": "donator", "atom_type": "Cs"}, "6": {"label": "d_hydrogen", "atom_type": "H0"}}

>  <type>  (1) 
r1h

$$$$

     RDKit          3D

  5  4  0  0  0  0  0  0  0  0999 V2000
   -0.5642    0.0794    0.0348 C   0  0  0  0  0  3  0  0  0  0  0  0
    1.0624    0.5420    0.2853 S   0  0  0  0  0  0  0  0  0  0  0  0
   -1.3257    0.7631    0.3741 H   0  0  0  0  0  0  0  0  0  0  0  0
   -0.8236   -0.8519   -0.4401 H   0  0  0  0  0  0  0  0  0  0  0  0
    1.6511   -0.5325   -0.2540 H   0  0  0  0  0  0  0  0  0  0  0  0
  1  2  1  0
  1  3  1  0
  1  4  1  0
  2  5  1  0
M  RAD  1   1   2
M  END
>  <reaction>  (2) 
rxn_1323

>  <mol_properties>  (2) 
{"0": {"label": "acceptor", "atom_type": "Cs"}}

>  <type>  (2) 
r2

$$$$

     RDKit          3D

  6  5  0  0  0  0  0  0  0  0999 V2000
   -0.5072   -0.0291   -0.0097 C   0  0  0  0  0  0  0  0  0  0  0  0
    1.1321   -0.1527   -0.7687 S   0  0  0  0  0  0  0  0  0  0  0  0
   -0.6174   -0.7330    0.8127 H   0  0  0  0  0  0  0  0  0  0  0  0
   -0.5863    0.9827    0.3845 H   0  0  0  0  0  0  0  0  0  0  0  0
   -1.2962   -0.1800   -0.7434 H   0  0  0  0  0  0  0  0  0  0  0  0
    1.0312   -1.4237   -1.1764 H   0  0  0  0  0  0  0  0  0  0  0  0
  1  2  1  0
  1  3  1  0
  1  4  1  0
  1  5  1  0
  2  6  1  0
M  END
>  <reaction>  (3) 
rxn_1323

>  <mol_properties>  (3) 
{"0": {"label": "a_hydrogen", "atom_type": "H0"}, "1": {"label": "acceptor", "atom_type": "Cs"}}

>  <type>  (3) 
r2h

$$$$

     RDKit          3D

 18 16  0  0  0  0  0  0  0  0999 V2000
   -0.4215    0.8295   -3.1697 C   0  0  0  0  0  0  0  0  0  0  0  0
   -0.3304    0.9182   -1.9744 C   0  0  0  0  0  0  0  0  0  0  0  0
   -0.2222    0.9681   -0.5441 C   0  0  0  0  0  0  0  0  0  0  0  0
   -1.4266    1.5600    0.1629 C   0  0  0  0  0  0  0  0  0  0  0  0
    1.1133    1.4731   -0.0315 C   0  0  0  0  0  0  0  0  0  0  0  0
   -0.5029    0.7651   -4.2278 H   0  0  0  0  0  0  0  0  0  0  0  0
   -0.2379   -0.2735   -0.1685 H   0  0  0  0  0  0  0  0  0  0  0  0
   -2.3542    1.1214   -0.2055 H   0  0  0  0  0  0  0  0  0  0  0  0
   -1.4780    2.6412    0.0064 H   0  0  0  0  0  0  0  0  0  0  0  0
   -1.3552    1.3745    1.2367 H   0  0  0  0  0  0  0  0  0  0  0  0
    1.2288    2.5420   -0.2321 H   0  0  0  0  0  0  0  0  0  0  0  0
    1.9427    0.9500   -0.5087 H   0  0  0  0  0  0  0  0  0  0  0  0
    1.1778    1.3239    1.0484 H   0  0  0  0  0  0  0  0  0  0  0  0
   -0.2641   -1.5813    0.3368 C   0  0  0  0  0  3  0  0  0  0  0  0
    0.1006   -1.5896    2.0603 S   0  0  0  0  0  0  0  0  0  0  0  0
   -1.2946   -1.8799    0.1658 H   0  0  0  0  0  0  0  0  0  0  0  0
    0.4430   -2.1122   -0.2936 H   0  0  0  0  0  0  0  0  0  0  0  0
    1.4157   -1.3568    1.9621 H   0  0  0  0  0  0  0  0  0  0  0  0
  1  2  3  0
  1  6  1  0
  2  3  1  0
  3  4  1  0
  3  5  1  0
  3  7  1  0
  4  8  1  0
  4  9  1  0
  4 10  1  0
  5 11  1  0
  5 12  1  0
  5 13  1  0
 14 15  1  0
 14 16  1  0
 14 17  1  0
 15 18  1  0
M  RAD  1  14   2
M  END
>  <reaction>  (4) 
rxn_1323

>  <mol_properties>  (4) 
{"1": {"label": "*0", "atom_type": "Ct"}, "2": {"label": "*1", "atom_type": "Cs"}, "6": {"label": "*2", "atom_type": "H0"}, "13": {"label": "*3", "atom_type": "Cs"}, "14": {"label": "*4", "atom_type": "S2s"}}

>  <type>  (4) 
ts

$$$$

     RDKit          3D

 18 16  0  0  0  0  0  0  0  0999 V2000
   -0.4144    0.9371   -2.9642 C   0  0  0  0  0  0  0  0  0  0  0  0
   -0.4144    0.9371   -1.7661 C   0  0  0  0  0  0  0  0  0  0  0  0
   -0.4144    0.9610   -0.3023 C   0  0  0  0  0  3  0  0  0  0  0  0
   -1.6805    1.6375    0.2320 C   0  0  0  0  0  0  0  0  0  0  0  0
    0.8517    1.6374    0.2320 C   0  0  0  0  0  0  0  0  0  0  0  0
   -0.4144    0.9371   -4.0275 H   0  0  0  0  0  0  0  0  0  0  0  0
   -0.4144   -0.2877    0.1056 H   0  0  0  0  0  0  0  0  0  0  0  0
   -2.5776    1.1382   -0.1339 H   0  0  0  0  0  0  0  0  0  0  0  0
   -1.7178    2.6810   -0.0855 H   0  0  0  0  0  0  0  0  0  0  0  0
   -1.6878    1.6095    1.3231 H   0  0  0  0  0  0  0  0  0  0  0  0
    0.8891    2.6809   -0.0855 H   0  0  0  0  0  0  0  0  0  0  0  0
    1.7488    1.1381   -0.1339 H   0  0  0  0  0  0  0  0  0  0  0  0
    0.8591    1.6094    1.3231 H   0  0  0  0  0  0  0  0  0  0  0  0
   -0.4144   -1.5287    0.5110 C   0  0  0  0  0  0  0  0  0  0  0  0
    1.0458   -1.8942    1.5172 S   0  0  0  0  0  0  0  0  0  0  0  0
   -1.1056   -0.9917    1.1585 H   0  0  0  0  0  0  0  0  0  0  0  0
   -0.8970   -2.4410    0.1665 H   0  0  0  0  0  0  0  0  0  0  0  0
    1.7450   -2.5319    0.5705 H   0  0  0  0  0  0  0  0  0  0  0  0
  1  2  3  0
  1  6  1  0
  2  3  1  0
  3  4  1  0
  3  5  1  0
  4  8  1  0
  4  9  1  0
  4 10  1  0
  5 11  1  0
  5 12  1  0
  5 13  1  0
  7 14  1  0
 14 15  1  0
 14 16  1  0
 14 17  1  0
 15 18  1  0
M  RAD  1   3   2
M  END
>  <reaction>  (5) 
rxn_1323

>  <mol_properties>  (5) 
{"1": {"label": "*0", "atom_type": "Ct"}, "2": {"label": "*1", "atom_type": "Cs"}, "6": {"label": "*2", "atom_type": "H0"}, "13": {"label": "*3", "atom_type": "Cs"}, "14": {"label": "*4", "atom_type": "S2s"}}

>  <type>  (5) 
unop_1

>  <geom_source>  (5) 
Heuristics

$$$$

     RDKit          3D

 18 16  0  0  0  0  0  0  0  0999 V2000
   -0.2314    1.1368   -2.3454 C   0  0  0  0  0  0  0  0  0  0  0  0
   -0.2314    1.1368   -1.1473 C   0  0  0  0  0  0  0  0  0  0  0  0
   -0.2314    1.1607    0.3165 C   0  0  0  0  0  3  0  0  0  0  0  0
   -1.4975    1.8372    0.8508 C   0  0  0  0  0  0  0  0  0  0  0  0
    1.0348    1.8371    0.8508 C   0  0  0  0  0  0  0  0  0  0  0  0
   -0.2314    1.1368   -3.4087 H   0  0  0  0  0  0  0  0  0  0  0  0
   -0.2314   -0.0880    0.7244 H   0  0  0  0  0  0  0  0  0  0  0  0
   -2.3945    1.3379    0.4849 H   0  0  0  0  0  0  0  0  0  0  0  0
   -1.5348    2.8807    0.5333 H   0  0  0  0  0  0  0  0  0  0  0  0
   -1.5048    1.8092    1.9419 H   0  0  0  0  0  0  0  0  0  0  0  0
    1.0721    2.8806    0.5333 H   0  0  0  0  0  0  0  0  0  0  0  0
    1.9318    1.3378    0.4849 H   0  0  0  0  0  0  0  0  0  0  0  0
    1.0421    1.8091    1.9419 H   0  0  0  0  0  0  0  0  0  0  0  0
   -0.2314   -1.3290    1.1298 C   0  0  0  0  0  0  0  0  0  0  0  0
    0.6116   -2.4097   -0.0534 S   0  0  0  0  0  0  0  0  0  0  0  0
    0.4834   -1.1316    1.9270 H   0  0  0  0  0  0  0  0  0  0  0  0
   -1.1054   -1.8154    1.5580 H   0  0  0  0  0  0  0  0  0  0  0  0
   -0.4006   -2.5278   -0.9213 H   0  0  0  0  0  0  0  0  0  0  0  0
  1  2  3  0
  1  6  1  0
  2  3  1  0
  3  4  1  0
  3  5  1  0
  4  8  1  0
  4  9  1  0
  4 10  1  0
  5 11  1  0
  5 12  1  0
  5 13  1  0
  7 14  1  0
 14 15  1  0
 14 16  1  0
 14 17  1  0
 15 18  1  0
M  RAD  1   3   2
M  END
>  <reaction>  (6) 
rxn_1323

>  <mol_properties>  (6) 
{"1": {"label": "*0", "atom_type": "Ct"}, "2": {"label": "*1", "atom_type": "Cs"}, "6": {"label": "*2", "atom_type": "H0"}, "13": {"label": "*3", "atom_type": "Cs"}, "14": {"label": "*4", "atom_type": "S2s"}}

>  <type>  (6) 
unop_2

>  <geom_source>  (6) 
Heuristics

$$$$

     RDKit          3D

 18 16  0  0  0  0  0  0  0  0999 V2000
   -0.2437    0.8816   -3.1307 C   0  0  0  0  0  0  0  0  0  0  0  0
   -0.2437    0.8816   -1.9326 C   0  0  0  0  0  0  0  0  0  0  0  0
   -0.2437    0.9055   -0.4688 C   0  0  0  0  0  3  0  0  0  0  0  0
   -1.5098    1.5820    0.0656 C   0  0  0  0  0  0  0  0  0  0  0  0
    1.0224    1.5820    0.0656 C   0  0  0  0  0  0  0  0  0  0  0  0
   -0.2437    0.8816   -4.1940 H   0  0  0  0  0  0  0  0  0  0  0  0
   -0.2437   -0.3431   -0.0609 H   0  0  0  0  0  0  0  0  0  0  0  0
   -2.4069    1.0827   -0.3004 H   0  0  0  0  0  0  0  0  0  0  0  0
   -1.5471    2.6255   -0.2520 H   0  0  0  0  0  0  0  0  0  0  0  0
   -1.5171    1.5540    1.1566 H   0  0  0  0  0  0  0  0  0  0  0  0
    1.0598    2.6255   -0.2520 H   0  0  0  0  0  0  0  0  0  0  0  0
    1.9195    1.0826   -0.3004 H   0  0  0  0  0  0  0  0  0  0  0  0
    1.0298    1.5540    1.1566 H   0  0  0  0  0  0  0  0  0  0  0  0
   -0.2437   -1.5842    0.3445 C   0  0  0  0  0  0  0  0  0  0  0  0
    0.5993   -1.7580    1.9374 S   0  0  0  0  0  0  0  0  0  0  0  0
   -1.2883   -1.3778    0.5721 H   0  0  0  0  0  0  0  0  0  0  0  0
   -0.1885   -2.5029   -0.2356 H   0  0  0  0  0  0  0  0  0  0  0  0
    1.8235   -1.9990    1.4524 H   0  0  0  0  0  0  0  0  0  0  0  0
  1  2  3  0
  1  6  1  0
  2  3  1  0
  3  4  1  0
  3  5  1  0
  4  8  1  0
  4  9  1  0
  4 10  1  0
  5 11  1  0
  5 12  1  0
  5 13  1  0
  7 14  1  0
 14 15  1  0
 14 16  1  0
 14 17  1  0
 15 18  1  0
M  RAD  1   3   2
M  END
>  <reaction>  (7) 
rxn_1323

>  <mol_properties>  (7) 
{"1": {"label": "*0", "atom_type": "Ct"}, "2": {"label": "*1", "atom_type": "Cs"}, "6": {"label": "*2", "atom_type": "H0"}, "13": {"label": "*3", "atom_type": "Cs"}, "14": {"label": "*4", "atom_type": "S2s"}}

>  <type>  (7) 
unop_3

>  <geom_source>  (7) 
Heuristics

$$$$

     RDKit          3D

 18 16  0  0  0  0  0  0  0  0999 V2000
    0.4204    1.0717   -2.5194 C   0  0  0  0  0  0  0  0  0  0  0  0
    0.4204    1.0717   -1.3214 C   0  0  0  0  0  0  0  0  0  0  0  0
    0.4204    1.0956    0.1425 C   0  0  0  0  0  3  0  0  0  0  0  0
   -0.8457    1.7721    0.6768 C   0  0  0  0  0  0  0  0  0  0  0  0
    1.6866    1.7720    0.6768 C   0  0  0  0  0  0  0  0  0  0  0  0
    0.4204    1.0717   -3.5828 H   0  0  0  0  0  0  0  0  0  0  0  0
    0.4204   -0.1530    0.5503 H   0  0  0  0  0  0  0  0  0  0  0  0
   -1.7427    1.2728    0.3109 H   0  0  0  0  0  0  0  0  0  0  0  0
   -0.8830    2.8156    0.3593 H   0  0  0  0  0  0  0  0  0  0  0  0
   -0.8530    1.7441    1.7679 H   0  0  0  0  0  0  0  0  0  0  0  0
    1.7239    2.8155    0.3593 H   0  0  0  0  0  0  0  0  0  0  0  0
    2.5836    1.2727    0.3109 H   0  0  0  0  0  0  0  0  0  0  0  0
    1.6939    1.7440    1.7679 H   0  0  0  0  0  0  0  0  0  0  0  0
    0.4204   -1.3941    0.9557 C   0  0  0  0  0  0  0  0  0  0  0  0
   -1.0399   -2.2831    0.3592 S   0  0  0  0  0  0  0  0  0  0  0  0
    1.2139   -2.1342    1.0448 H   0  0  0  0  0  0  0  0  0  0  0  0
    0.2437   -0.9531    1.9346 H   0  0  0  0  0  0  0  0  0  0  0  0
   -1.8691   -1.2330    0.3193 H   0  0  0  0  0  0  0  0  0  0  0  0
  1  2  3  0
  1  6  1  0
  2  3  1  0
  3  4  1  0
  3  5  1  0
  4  8  1  0
  4  9  1  0
  4 10  1  0
  5 11  1  0
  5 12  1  0
  5 13  1  0
  7 14  1  0
 14 15  1  0
 14 16  1  0
 14 17  1  0
 15 18  1  0
M  RAD  1   3   2
M  END
>  <reaction>  (8) 
rxn_1323

>  <mol_properties>  (8) 
{"1": {"label": "*0", "atom_type": "Ct"}, "2": {"label": "*1", "atom_type": "Cs"}, "6": {"label": "*2", "atom_type": "H0"}, "13": {"label": "*3", "atom_type": "Cs"}, "14": {"label": "*4", "atom_type": "S2s"}}

>  <type>  (8) 
unop_4

>  <geom_source>  (8) 
Heuristics

$$$$

     RDKit          3D

 18 16  0  0  0  0  0  0  0  0999 V2000
   -0.0096    0.8566   -3.1947 C   0  0  0  0  0  0  0  0  0  0  0  0
   -0.0096    0.8566   -1.9966 C   0  0  0  0  0  0  0  0  0  0  0  0
   -0.0096    0.8805   -0.5328 C   0  0  0  0  0  3  0  0  0  0  0  0
   -1.2757    1.5570    0.0016 C   0  0  0  0  0  0  0  0  0  0  0  0
    1.2566    1.5570    0.0016 C   0  0  0  0  0  0  0  0  0  0  0  0
   -0.0096    0.8566   -4.2580 H   0  0  0  0  0  0  0  0  0  0  0  0
   -0.0096   -0.3681   -0.1249 H   0  0  0  0  0  0  0  0  0  0  0  0
   -2.1727    1.0577   -0.3644 H   0  0  0  0  0  0  0  0  0  0  0  0
   -1.3130    2.6005   -0.3159 H   0  0  0  0  0  0  0  0  0  0  0  0
   -1.2830    1.5290    1.0926 H   0  0  0  0  0  0  0  0  0  0  0  0
    1.2939    2.6005   -0.3159 H   0  0  0  0  0  0  0  0  0  0  0  0
    2.1536    1.0576   -0.3644 H   0  0  0  0  0  0  0  0  0  0  0  0
    1.2639    1.5290    1.0926 H   0  0  0  0  0  0  0  0  0  0  0  0
   -0.0096   -1.6092    0.2805 C   0  0  0  0  0  0  0  0  0  0  0  0
   -0.0096   -1.7128    2.0882 S   0  0  0  0  0  0  0  0  0  0  0  0
   -0.9303   -2.0850   -0.0532 H   0  0  0  0  0  0  0  0  0  0  0  0
    0.8348   -2.1456   -0.1474 H   0  0  0  0  0  0  0  0  0  0  0  0
    1.1607   -1.0953    2.2903 H   0  0  0  0  0  0  0  0  0  0  0  0
  1  2  3  0
  1  6  1  0
  2  3  1  0
  3  4  1  0
  3  5  1  0
  4  8  1  0
  4  9  1  0
  4 10  1  0
  5 11  1  0
  5 12  1  0
  5 13  1  0
  7 14  1  0
 14 15  1  0
 14 16  1  0
 14 17  1  0
 15 18  1  0
M  RAD  1   3   2
M  END
>  <reaction>  (9) 
rxn_1323

>  <mol_properties>  (9) 
{"1": {"label": "*0", "atom_type": "Ct"}, "2": {"label": "*1", "atom_type": "Cs"}, "6": {"label": "*2", "atom_type": "H0"}, "13": {"label": "*3", "atom_type": "Cs"}, "14": {"label": "*4", "atom_type": "S2s"}}

>  <type>  (9) 
unop_5

>  <geom_source>  (9) 
Heuristics

$$$$

     RDKit          3D

 18 16  0  0  0  0  0  0  0  0999 V2000
    0.4801    0.9957   -2.7480 C   0  0  0  0  0  0  0  0  0  0  0  0
    0.4801    0.9957   -1.5499 C   0  0  0  0  0  0  0  0  0  0  0  0
    0.4801    1.0197   -0.0861 C   0  0  0  0  0  3  0  0  0  0  0  0
   -0.7860    1.6961    0.4483 C   0  0  0  0  0  0  0  0  0  0  0  0
    1.7462    1.6961    0.4483 C   0  0  0  0  0  0  0  0  0  0  0  0
    0.4801    0.9957   -3.8113 H   0  0  0  0  0  0  0  0  0  0  0  0
    0.4801   -0.2290    0.3218 H   0  0  0  0  0  0  0  0  0  0  0  0
   -1.6830    1.1968    0.0823 H   0  0  0  0  0  0  0  0  0  0  0  0
   -0.8233    2.7396    0.1307 H   0  0  0  0  0  0  0  0  0  0  0  0
   -0.7933    1.6681    1.5393 H   0  0  0  0  0  0  0  0  0  0  0  0
    1.7836    2.7396    0.1307 H   0  0  0  0  0  0  0  0  0  0  0  0
    2.6433    1.1968    0.0823 H   0  0  0  0  0  0  0  0  0  0  0  0
    1.7536    1.6681    1.5393 H   0  0  0  0  0  0  0  0  0  0  0  0
    0.4801   -1.4701    0.7272 C   0  0  0  0  0  0  0  0  0  0  0  0
   -1.2061   -2.0973    0.9321 S   0  0  0  0  0  0  0  0  0  0  0  0
    1.1172   -2.3430    0.5945 H   0  0  0  0  0  0  0  0  0  0  0  0
    0.8115   -0.9278    1.6103 H   0  0  0  0  0  0  0  0  0  0  0  0
   -1.8087   -0.9106    1.0756 H   0  0  0  0  0  0  0  0  0  0  0  0
  1  2  3  0
  1  6  1  0
  2  3  1  0
  3  4  1  0
  3  5  1  0
  4  8  1  0
  4  9  1  0
  4 10  1  0
  5 11  1  0
  5 12  1  0
  5 13  1  0
  7 14  1  0
 14 15  1  0
 14 16  1  0
 14 17  1  0
 15 18  1  0
M  RAD  1   3   2
M  END
>  <reaction>  (10) 
rxn_1323

>  <mol_properties>  (10) 
{"1": {"label": "*0", "atom_type": "Ct"}, "2": {"label": "*1", "atom_type": "Cs"}, "6": {"label": "*2", "atom_type": "H0"}, "13": {"label": "*3", "atom_type": "Cs"}, "14": {"label": "*4", "atom_type": "S2s"}}

>  <type>  (10) 
unop_6

>  <geom_source>  (10) 
Heuristics

$$$$

     RDKit          3D

 18 16  0  0  0  0  0  0  0  0999 V2000
    0.4110    0.9215   -2.9749 C   0  0  0  0  0  0  0  0  0  0  0  0
    0.4110    0.9215   -1.7768 C   0  0  0  0  0  0  0  0  0  0  0  0
    0.4110    0.9454   -0.3130 C   0  0  0  0  0  3  0  0  0  0  0  0
   -0.8552    1.6219    0.2214 C   0  0  0  0  0  0  0  0  0  0  0  0
    1.6771    1.6219    0.2214 C   0  0  0  0  0  0  0  0  0  0  0  0
    0.4110    0.9215   -4.0382 H   0  0  0  0  0  0  0  0  0  0  0  0
    0.4109   -0.3032    0.0949 H   0  0  0  0  0  0  0  0  0  0  0  0
   -1.7522    1.1226   -0.1446 H   0  0  0  0  0  0  0  0  0  0  0  0
   -0.8925    2.6654   -0.0962 H   0  0  0  0  0  0  0  0  0  0  0  0
   -0.8625    1.5939    1.3124 H   0  0  0  0  0  0  0  0  0  0  0  0
    1.7145    2.6654   -0.0962 H   0  0  0  0  0  0  0  0  0  0  0  0
    2.5741    1.1225   -0.1446 H   0  0  0  0  0  0  0  0  0  0  0  0
    1.6844    1.5939    1.3124 H   0  0  0  0  0  0  0  0  0  0  0  0
    0.4109   -1.5443    0.5003 C   0  0  0  0  0  0  0  0  0  0  0  0
   -1.0493   -1.9097    1.5066 S   0  0  0  0  0  0  0  0  0  0  0  0
    0.7696   -2.5006    0.1231 H   0  0  0  0  0  0  0  0  0  0  0  0
    1.1984   -1.0871    1.0957 H   0  0  0  0  0  0  0  0  0  0  0  0
   -1.3258   -0.6492    1.8625 H   0  0  0  0  0  0  0  0  0  0  0  0
  1  2  3  0
  1  6  1  0
  2  3  1  0
  3  4  1  0
  3  5  1  0
  4  8  1  0
  4  9  1  0
  4 10  1  0
  5 11  1  0
  5 12  1  0
  5 13  1  0
  7 14  1  0
 14 15  1  0
 14 16  1  0
 14 17  1  0
 15 18  1  0
M  RAD  1   3   2
M  END
>  <reaction>  (11) 
rxn_1323

>  <mol_properties>  (11) 
{"1": {"label": "*0", "atom_type": "Ct"}, "2": {"label": "*1", "atom_type": "Cs"}, "6": {"label": "*2", "atom_type": "H0"}, "13": {"label": "*3", "atom_type": "Cs"}, "14": {"label": "*4", "atom_type": "S2s"}}

>  <type>  (11) 
unop_7

>  <geom_source>  (11) 
Heuristics

$$$$

     RDKit          3D

 18 16  0  0  0  0  0  0  0  0999 V2000
   -0.4757    1.0111   -2.7374 C   0  0  0  0  0  0  0  0  0  0  0  0
   -0.4757    1.0111   -1.5393 C   0  0  0  0  0  0  0  0  0  0  0  0
   -0.4757    1.0350   -0.0755 C   0  0  0  0  0  3  0  0  0  0  0  0
   -1.7418    1.7115    0.4588 C   0  0  0  0  0  0  0  0  0  0  0  0
    0.7905    1.7115    0.4588 C   0  0  0  0  0  0  0  0  0  0  0  0
   -0.4757    1.0111   -3.8007 H   0  0  0  0  0  0  0  0  0  0  0  0
   -0.4757   -0.2136    0.3324 H   0  0  0  0  0  0  0  0  0  0  0  0
   -2.6388    1.2122    0.0929 H   0  0  0  0  0  0  0  0  0  0  0  0
   -1.7791    2.7550    0.1413 H   0  0  0  0  0  0  0  0  0  0  0  0
   -1.7491    1.6835    1.5499 H   0  0  0  0  0  0  0  0  0  0  0  0
    0.8278    2.7550    0.1413 H   0  0  0  0  0  0  0  0  0  0  0  0
    1.6875    1.2121    0.0929 H   0  0  0  0  0  0  0  0  0  0  0  0
    0.7978    1.6835    1.5499 H   0  0  0  0  0  0  0  0  0  0  0  0
   -0.4757   -1.4547    0.7378 C   0  0  0  0  0  0  0  0  0  0  0  0
    1.2104   -2.0819    0.9426 S   0  0  0  0  0  0  0  0  0  0  0  0
   -0.6865   -0.8506    1.6187 H   0  0  0  0  0  0  0  0  0  0  0  0
   -1.1980   -2.2670    0.6913 H   0  0  0  0  0  0  0  0  0  0  0  0
    1.2713   -2.7728   -0.2023 H   0  0  0  0  0  0  0  0  0  0  0  0
  1  2  3  0
  1  6  1  0
  2  3  1  0
  3  4  1  0
  3  5  1  0
  4  8  1  0
  4  9  1  0
  4 10  1  0
  5 11  1  0
  5 12  1  0
  5 13  1  0
  7 14  1  0
 14 15  1  0
 14 16  1  0
 14 17  1  0
 15 18  1  0
M  RAD  1   3   2
M  END
>  <reaction>  (12) 
rxn_1323

>  <mol_properties>  (12) 
{"1": {"label": "*0", "atom_type": "Ct"}, "2": {"label": "*1", "atom_type": "Cs"}, "6": {"label": "*2", "atom_type": "H0"}, "13": {"label": "*3", "atom_type": "Cs"}, "14": {"label": "*4", "atom_type": "S2s"}}

>  <type>  (12) 
unop_8

>  <geom_source>  (12) 
Heuristics

$$$$

     RDKit          3D

 18 16  0  0  0  0  0  0  0  0999 V2000
    0.2483    1.1292   -2.3506 C   0  0  0  0  0  0  0  0  0  0  0  0
    0.2483    1.1292   -1.1525 C   0  0  0  0  0  0  0  0  0  0  0  0
    0.2483    1.1532    0.3113 C   0  0  0  0  0  3  0  0  0  0  0  0
   -1.0178    1.8296    0.8457 C   0  0  0  0  0  0  0  0  0  0  0  0
    1.5144    1.8296    0.8457 C   0  0  0  0  0  0  0  0  0  0  0  0
    0.2483    1.1292   -3.4139 H   0  0  0  0  0  0  0  0  0  0  0  0
    0.2483   -0.0955    0.7192 H   0  0  0  0  0  0  0  0  0  0  0  0
   -1.9149    1.3303    0.4797 H   0  0  0  0  0  0  0  0  0  0  0  0
   -1.0552    2.8732    0.5282 H   0  0  0  0  0  0  0  0  0  0  0  0
   -1.0252    1.8016    1.9367 H   0  0  0  0  0  0  0  0  0  0  0  0
    1.5518    2.8731    0.5282 H   0  0  0  0  0  0  0  0  0  0  0  0
    2.4114    1.3303    0.4797 H   0  0  0  0  0  0  0  0  0  0  0  0
    1.5217    1.8016    1.9367 H   0  0  0  0  0  0  0  0  0  0  0  0
    0.2482   -1.3366    1.1246 C   0  0  0  0  0  0  0  0  0  0  0  0
   -0.5948   -2.4172   -0.0586 S   0  0  0  0  0  0  0  0  0  0  0  0
    1.1535   -1.8608    1.4266 H   0  0  0  0  0  0  0  0  0  0  0  0
   -0.3636   -1.1611    2.0070 H   0  0  0  0  0  0  0  0  0  0  0  0
   -1.6419   -1.6180   -0.2970 H   0  0  0  0  0  0  0  0  0  0  0  0
  1  2  3  0
  1  6  1  0
  2  3  1  0
  3  4  1  0
  3  5  1  0
  4  8  1  0
  4  9  1  0
  4 10  1  0
  5 11  1  0
  5 12  1  0
  5 13  1  0
  7 14  1  0
 14 15  1  0
 14 16  1  0
 14 17  1  0
 15 18  1  0
M  RAD  1   3   2
M  END
>  <reaction>  (13) 
rxn_1323

>  <mol_properties>  (13) 
{"1": {"label": "*0", "atom_type": "Ct"}, "2": {"label": "*1", "atom_type": "Cs"}, "6": {"label": "*2", "atom_type": "H0"}, "13": {"label": "*3", "atom_type": "Cs"}, "14": {"label": "*4", "atom_type": "S2s"}}

>  <type>  (13) 
unop_9

>  <geom_source>  (13) 
Heuristics

$$$$

     RDKit          3D

 18 16  0  0  0  0  0  0  0  0999 V2000
   -0.4091    1.0844   -2.5107 C   0  0  0  0  0  0  0  0  0  0  0  0
   -0.4091    1.0844   -1.3126 C   0  0  0  0  0  0  0  0  0  0  0  0
   -0.4091    1.1084    0.1512 C   0  0  0  0  0  3  0  0  0  0  0  0
   -1.6752    1.7848    0.6855 C   0  0  0  0  0  0  0  0  0  0  0  0
    0.8571    1.7848    0.6855 C   0  0  0  0  0  0  0  0  0  0  0  0
   -0.4091    1.0844   -3.5740 H   0  0  0  0  0  0  0  0  0  0  0  0
   -0.4091   -0.1403    0.5591 H   0  0  0  0  0  0  0  0  0  0  0  0
   -2.5722    1.2855    0.3196 H   0  0  0  0  0  0  0  0  0  0  0  0
   -1.7125    2.8283    0.3680 H   0  0  0  0  0  0  0  0  0  0  0  0
   -1.6825    1.7568    1.7766 H   0  0  0  0  0  0  0  0  0  0  0  0
    0.8944    2.8283    0.3680 H   0  0  0  0  0  0  0  0  0  0  0  0
    1.7541    1.2855    0.3196 H   0  0  0  0  0  0  0  0  0  0  0  0
    0.8644    1.7568    1.7766 H   0  0  0  0  0  0  0  0  0  0  0  0
   -0.4091   -1.3814    0.9645 C   0  0  0  0  0  0  0  0  0  0  0  0
    1.0511   -2.2704    0.3680 S   0  0  0  0  0  0  0  0  0  0  0  0
   -0.1140   -0.8970    1.8939 H   0  0  0  0  0  0  0  0  0  0  0  0
   -1.2309   -2.0633    1.1727 H   0  0  0  0  0  0  0  0  0  0  0  0
    0.4965   -2.7768   -0.7401 H   0  0  0  0  0  0  0  0  0  0  0  0
  1  2  3  0
  1  6  1  0
  2  3  1  0
  3  4  1  0
  3  5  1  0
  4  8  1  0
  4  9  1  0
  4 10  1  0
  5 11  1  0
  5 12  1  0
  5 13  1  0
  7 14  1  0
 14 15  1  0
 14 16  1  0
 14 17  1  0
 15 18  1  0
M  RAD  1   3   2
M  END
>  <reaction>  (14) 
rxn_1323

>  <mol_properties>  (14) 
{"1": {"label": "*0", "atom_type": "Ct"}, "2": {"label": "*1", "atom_type": "Cs"}, "6": {"label": "*2", "atom_type": "H0"}, "13": {"label": "*3", "atom_type": "Cs"}, "14": {"label": "*4", "atom_type": "S2s"}}

>  <type>  (14) 
unop_10

>  <geom_source>  (14) 
Heuristics

$$$$

     RDKit          3D

 18 16  0  0  0  0  0  0  0  0999 V2000
    0.2309    0.8698   -3.1387 C   0  0  0  0  0  0  0  0  0  0  0  0
    0.2309    0.8698   -1.9407 C   0  0  0  0  0  0  0  0  0  0  0  0
    0.2309    0.8938   -0.4768 C   0  0  0  0  0  3  0  0  0  0  0  0
   -1.0352    1.5703    0.0575 C   0  0  0  0  0  0  0  0  0  0  0  0
    1.4970    1.5702    0.0575 C   0  0  0  0  0  0  0  0  0  0  0  0
    0.2309    0.8698   -4.2021 H   0  0  0  0  0  0  0  0  0  0  0  0
    0.2309   -0.3549   -0.0690 H   0  0  0  0  0  0  0  0  0  0  0  0
   -1.9323    1.0709   -0.3084 H   0  0  0  0  0  0  0  0  0  0  0  0
   -1.0725    2.6138   -0.2600 H   0  0  0  0  0  0  0  0  0  0  0  0
   -1.0425    1.5422    1.1486 H   0  0  0  0  0  0  0  0  0  0  0  0
    1.5344    2.6137   -0.2600 H   0  0  0  0  0  0  0  0  0  0  0  0
    2.3941    1.0709   -0.3084 H   0  0  0  0  0  0  0  0  0  0  0  0
    1.5044    1.5422    1.1486 H   0  0  0  0  0  0  0  0  0  0  0  0
    0.2309   -1.5959    0.3364 C   0  0  0  0  0  0  0  0  0  0  0  0
   -0.6122   -1.7697    1.9294 S   0  0  0  0  0  0  0  0  0  0  0  0
    0.0442   -2.5185   -0.2107 H   0  0  0  0  0  0  0  0  0  0  0  0
    1.3047   -1.4793    0.4668 H   0  0  0  0  0  0  0  0  0  0  0  0
   -0.2713   -0.5756    2.4292 H   0  0  0  0  0  0  0  0  0  0  0  0
  1  2  3  0
  1  6  1  0
  2  3  1  0
  3  4  1  0
  3  5  1  0
  4  8  1  0
  4  9  1  0
  4 10  1  0
  5 11  1  0
  5 12  1  0
  5 13  1  0
  7 14  1  0
 14 15  1  0
 14 16  1  0
 14 17  1  0
 15 18  1  0
M  RAD  1   3   2
M  END
>  <reaction>  (15) 
rxn_1323

>  <mol_properties>  (15) 
{"1": {"label": "*0", "atom_type": "Ct"}, "2": {"label": "*1", "atom_type": "Cs"}, "6": {"label": "*2", "atom_type": "H0"}, "13": {"label": "*3", "atom_type": "Cs"}, "14": {"label": "*4", "atom_type": "S2s"}}

>  <type>  (15) 
unop_11

>  <geom_source>  (15) 
Heuristics

$$$$

     RDKit          3D

 18 16  0  0  0  0  0  0  0  0999 V2000
    0.0096    1.1532   -2.2867 C   0  0  0  0  0  0  0  0  0  0  0  0
    0.0096    1.1532   -1.0886 C   0  0  0  0  0  0  0  0  0  0  0  0
    0.0096    1.1771    0.3752 C   0  0  0  0  0  3  0  0  0  0  0  0
   -1.2565    1.8536    0.9095 C   0  0  0  0  0  0  0  0  0  0  0  0
    1.2757    1.8536    0.9095 C   0  0  0  0  0  0  0  0  0  0  0  0
    0.0096    1.1532   -3.3500 H   0  0  0  0  0  0  0  0  0  0  0  0
    0.0096   -0.0715    0.7831 H   0  0  0  0  0  0  0  0  0  0  0  0
   -2.1536    1.3543    0.5436 H   0  0  0  0  0  0  0  0  0  0  0  0
   -1.2938    2.8971    0.5920 H   0  0  0  0  0  0  0  0  0  0  0  0
   -1.2638    1.8256    2.0006 H   0  0  0  0  0  0  0  0  0  0  0  0
    1.3131    2.8971    0.5920 H   0  0  0  0  0  0  0  0  0  0  0  0
    2.1728    1.3542    0.5436 H   0  0  0  0  0  0  0  0  0  0  0  0
    1.2831    1.8256    2.0006 H   0  0  0  0  0  0  0  0  0  0  0  0
    0.0096   -1.3126    1.1885 C   0  0  0  0  0  0  0  0  0  0  0  0
    0.0095   -2.4634   -0.2094 S   0  0  0  0  0  0  0  0  0  0  0  0
    0.9302   -1.4997    1.7387 H   0  0  0  0  0  0  0  0  0  0  0  0
   -0.8348   -1.4929    1.8505 H   0  0  0  0  0  0  0  0  0  0  0  0
   -1.1608   -2.0842   -0.7371 H   0  0  0  0  0  0  0  0  0  0  0  0
  1  2  3  0
  1  6  1  0
  2  3  1  0
  3  4  1  0
  3  5  1  0
  4  8  1  0
  4  9  1  0
  4 10  1  0
  5 11  1  0
  5 12  1  0
  5 13  1  0
  7 14  1  0
 14 15  1  0
 14 16  1  0
 14 17  1  0
 15 18  1  0
M  RAD  1   3   2
M  END
>  <reaction>  (16) 
rxn_1323

>  <mol_properties>  (16) 
{"1": {"label": "*0", "atom_type": "Ct"}, "2": {"label": "*1", "atom_type": "Cs"}, "6": {"label": "*2", "atom_type": "H0"}, "13": {"label": "*3", "atom_type": "Cs"}, "14": {"label": "*4", "atom_type": "S2s"}}

>  <type>  (16) 
unop_12

>  <geom_source>  (16) 
Heuristics

$$$$

     RDKit          3D

 18 16  0  0  0  0  0  0  0  0999 V2000
    3.3411    0.4250   -0.4728 S   0  0  0  0  0  0  0  0  0  0  0  0
   -1.2496   -1.1550   -0.5291 C   0  0  0  0  0  0  0  0  0  0  0  0
   -0.8526    0.1633    1.5894 C   0  0  0  0  0  0  0  0  0  0  0  0
    1.8923   -0.6676   -0.4772 C   0  0  0  0  0  0  0  0  0  0  0  0
   -0.5240    0.0317    0.1031 C   0  0  0  0  0  3  0  0  0  0  0  0
   -0.8493    1.2759   -0.6102 C   0  0  0  0  0  0  0  0  0  0  0  0
   -1.1151    2.2961   -1.1953 C   0  0  0  0  0  0  0  0  0  0  0  0
   -0.9612   -2.0936   -0.0106 H   0  0  0  0  0  0  0  0  0  0  0  0
   -2.3516   -1.0263   -0.4591 H   0  0  0  0  0  0  0  0  0  0  0  0
   -0.9623   -1.2490   -1.5980 H   0  0  0  0  0  0  0  0  0  0  0  0
   -0.5611   -0.7653    2.1240 H   0  0  0  0  0  0  0  0  0  0  0  0
   -0.2823    1.0086    2.0300 H   0  0  0  0  0  0  0  0  0  0  0  0
   -1.9397    0.3413    1.7388 H   0  0  0  0  0  0  0  0  0  0  0  0
    1.7778   -1.1236   -1.4820 H   0  0  0  0  0  0  0  0  0  0  0  0
    2.0284   -1.4695    0.2775 H   0  0  0  0  0  0  0  0  0  0  0  0
    0.8216    0.0246   -0.1904 H   0  0  0  0  0  0  0  0  0  0  0  0
    3.1362    0.7919    0.8707 H   0  0  0  0  0  0  0  0  0  0  0  0
   -1.3486    3.1915   -1.7087 H   0  0  0  0  0  0  0  0  0  0  0  0
  1  4  1  0
  1 17  1  0
  2  5  1  0
  2  8  1  0
  2  9  1  0
  2 10  1  0
  3  5  1  0
  3 11  1  0
  3 12  1  0
  3 13  1  0
  4 14  1  0
  4 15  1  0
  4 16  1  0
  5  6  1  0
  6  7  3  0
  7 18  1  0
M  RAD  1   5   2
M  END
>  <reaction>  (17) 
rxn_1323

>  <mol_properties>  (17) 
{"1": {"label": "*0", "atom_type": "Ct"}, "2": {"label": "*1", "atom_type": "Cs"}, "6": {"label": "*2", "atom_type": "H0"}, "13": {"label": "*3", "atom_type": "Cs"}, "14": {"label": "*4", "atom_type": "S2s"}}

>  <type>  (17) 
unop_13

>  <geom_source>  (17) 
AutoTST

$$$$
