
     RDKit          3D

 14 13  0  0  0  0  0  0  0  0999 V2000
   -0.7647   -1.2352   -0.0349 C   0  0  0  0  0  0  0  0  0  0  0  0
    0.0570   -0.0126    0.3624 C   0  0  0  0  0  0  0  0  0  0  0  0
    1.4161   -0.0194   -0.3308 C   0  0  0  0  0  0  0  0  0  0  0  0
   -0.7022    1.2765    0.0629 C   0  0  0  0  0  0  0  0  0  0  0  0
   -0.2387   -2.1618    0.2040 H   0  0  0  0  0  0  0  0  0  0  0  0
   -0.9625   -1.2316   -1.1108 H   0  0  0  0  0  0  0  0  0  0  0  0
   -1.7273   -1.2512    0.4806 H   0  0  0  0  0  0  0  0  0  0  0  0
    0.2295   -0.0590    1.4432 H   0  0  0  0  0  0  0  0  0  0  0  0
    1.2933    0.0260   -1.4168 H   0  0  0  0  0  0  0  0  0  0  0  0
    2.0206    0.8381   -0.0279 H   0  0  0  0  0  0  0  0  0  0  0  0
    1.9767   -0.9268   -0.0966 H   0  0  0  0  0  0  0  0  0  0  0  0
   -1.6639    1.3001    0.5798 H   0  0  0  0  0  0  0  0  0  0  0  0
   -0.8977    1.3664   -1.0096 H   0  0  0  0  0  0  0  0  0  0  0  0
   -0.1313    2.1545    0.3722 H   0  0  0  0  0  0  0  0  0  0  0  0
  1  2  1  0
  1  5  1  0
  1  6  1  0
  1  7  1  0
  2  3  1  0
  2  4  1  0
  2  8  1  0
  3  9  1  0
  3 10  1  0
  3 11  1  0
  4 12  1  0
  4 13  1  0
  4 14  1  0
M  END
>  <reaction>  (1) 
rxn_962

>  <mol_properties>  (1) 
{"1": {"label": "donator", "atom_type": "Cs"}, "7": {"label": "d_hydrogen", "atom_type": "H0"}}

>  <type>  (1) 
r1h

$$$$

     RDKit          3D

  9  8  0  0  0  0  0  0  0  0999 V2000
    2.3038   -0.0269    0.1590 C   0  0  0  0  0  0  0  0  0  0  0  0
    1.1426    0.1377   -0.1648 C   0  0  0  0  0  0  0  0  0  0  0  0
   -0.1694    0.3175   -0.5203 C   0  0  0  0  0  3  0  0  0  0  0  0
   -1.3163   -0.1910    0.2856 C   0  0  0  0  0  0  0  0  0  0  0  0
    3.3199   -0.1683    0.4378 H   0  0  0  0  0  0  0  0  0  0  0  0
   -0.3786    0.8584   -1.4360 H   0  0  0  0  0  0  0  0  0  0  0  0
   -1.9694    0.6309    0.5951 H   0  0  0  0  0  0  0  0  0  0  0  0
   -1.9325   -0.8770   -0.3039 H   0  0  0  0  0  0  0  0  0  0  0  0
   -0.9753   -0.7144    1.1774 H   0  0  0  0  0  0  0  0  0  0  0  0
  1  2  3  0
  1  5  1  0
  2  3  1  0
  3  4  1  0
  3  6  1  0
  4  7  1  0
  4  8  1  0
  4  9  1  0
M  RAD  1   3   2
M  END
>  <reaction>  (2) 
rxn_962

>  <mol_properties>  (2) 
{"2": {"label": "acceptor", "atom_type": "Cs"}}

>  <type>  (2) 
r2

$$$$

     RDKit          3D

 10  9  0  0  0  0  0  0  0  0999 V2000
    2.2738    0.0217   -0.0992 C   0  0  0  0  0  0  0  0  0  0  0  0
    1.1083    0.2960   -0.0695 C   0  0  0  0  0  0  0  0  0  0  0  0
   -0.3173    0.6046   -0.0227 C   0  0  0  0  0  0  0  0  0  0  0  0
   -1.1561   -0.5495    0.5292 C   0  0  0  0  0  0  0  0  0  0  0  0
    3.3097   -0.2166   -0.1277 H   0  0  0  0  0  0  0  0  0  0  0  0
   -0.6542    0.8617   -1.0302 H   0  0  0  0  0  0  0  0  0  0  0  0
   -0.4633    1.4978    0.5900 H   0  0  0  0  0  0  0  0  0  0  0  0
   -0.8485   -0.7997    1.5447 H   0  0  0  0  0  0  0  0  0  0  0  0
   -2.2115   -0.2752    0.5459 H   0  0  0  0  0  0  0  0  0  0  0  0
   -1.0409   -1.4407   -0.0879 H   0  0  0  0  0  0  0  0  0  0  0  0
  1  2  3  0
  1  5  1  0
  2  3  1  0
  3  4  1  0
  3  6  1  0
  3  7  1  0
  4  8  1  0
  4  9  1  0
  4 10  1  0
M  END
>  <reaction>  (3) 
rxn_962

>  <mol_properties>  (3) 
{"2": {"label": "acceptor", "atom_type": "Cs"}, "9": {"label": "a_hydrogen", "atom_type": "H0"}}

>  <type>  (3) 
r2h

$$$$

     RDKit          3D

 23 21  0  0  0  0  0  0  0  0999 V2000
    2.6312   -0.1785   -1.3902 C   0  0  0  0  0  0  0  0  0  0  0  0
    1.8895   -0.5050   -0.5005 C   0  0  0  0  0  0  0  0  0  0  0  0
    0.9644   -0.8318    0.5362 C   0  0  0  0  0  0  0  0  0  0  0  0
    1.2849   -0.3099    1.9215 C   0  0  0  0  0  0  0  0  0  0  0  0
    3.3011    0.0918   -2.1701 H   0  0  0  0  0  0  0  0  0  0  0  0
    0.6706   -1.8811    0.5200 H   0  0  0  0  0  0  0  0  0  0  0  0
    0.4550   -0.5065    2.6021 H   0  0  0  0  0  0  0  0  0  0  0  0
    2.1795   -0.7848    2.3314 H   0  0  0  0  0  0  0  0  0  0  0  0
    1.4612    0.7664    1.8960 H   0  0  0  0  0  0  0  0  0  0  0  0
   -1.5513   -0.0445   -1.5476 C   0  0  0  0  0  0  0  0  0  0  0  0
   -1.2824    0.4716   -0.1579 C   0  0  0  0  0  3  0  0  0  0  0  0
   -0.8127    1.9019   -0.1033 C   0  0  0  0  0  0  0  0  0  0  0  0
   -2.3190    0.1001    0.8703 C   0  0  0  0  0  0  0  0  0  0  0  0
   -0.6882    0.1131   -2.1975 H   0  0  0  0  0  0  0  0  0  0  0  0
   -2.4074    0.4741   -1.9967 H   0  0  0  0  0  0  0  0  0  0  0  0
   -1.7806   -1.1122   -1.5385 H   0  0  0  0  0  0  0  0  0  0  0  0
   -0.1655   -0.2245    0.1989 H   0  0  0  0  0  0  0  0  0  0  0  0
   -1.5960    2.5838   -0.4569 H   0  0  0  0  0  0  0  0  0  0  0  0
   -0.5545    2.1984    0.9155 H   0  0  0  0  0  0  0  0  0  0  0  0
    0.0655    2.0496   -0.7355 H   0  0  0  0  0  0  0  0  0  0  0  0
   -2.5043   -0.9763    0.8785 H   0  0  0  0  0  0  0  0  0  0  0  0
   -3.2747    0.5950    0.6564 H   0  0  0  0  0  0  0  0  0  0  0  0
   -2.0124    0.4031    1.8738 H   0  0  0  0  0  0  0  0  0  0  0  0
  1  2  3  0
  1  5  1  0
  2  3  1  0
  3  4  1  0
  3  6  1  0
  3 17  1  0
  4  7  1  0
  4  8  1  0
  4  9  1  0
 10 11  1  0
 10 14  1  0
 10 15  1  0
 10 16  1  0
 11 12  1  0
 11 13  1  0
 12 18  1  0
 12 19  1  0
 12 20  1  0
 13 21  1  0
 13 22  1  0
 13 23  1  0
M  RAD  1  11   2
M  END
>  <reaction>  (4) 
rxn_962

>  <mol_properties>  (4) 
{"1": {"label": "*0", "atom_type": "Ct"}, "2": {"label": "*1", "atom_type": "Cs"}, "9": {"label": "*4", "atom_type": "Cs"}, "10": {"label": "*3", "atom_type": "Cs"}, "16": {"label": "*2", "atom_type": "H0"}}

>  <type>  (4) 
ts

$$$$

     RDKit          3D

 23 21  0  0  0  0  0  0  0  0999 V2000
    2.5956    0.8176    1.5831 C   0  0  0  0  0  0  0  0  0  0  0  0
    1.9773    0.0465    0.9066 C   0  0  0  0  0  0  0  0  0  0  0  0
    1.2082   -0.8998    0.1048 C   0  0  0  0  0  0  0  0  0  0  0  0
    0.1243   -1.6170    0.9116 C   0  0  0  0  0  0  0  0  0  0  0  0
    3.1445    1.5022    2.1837 H   0  0  0  0  0  0  0  0  0  0  0  0
    1.8946   -1.6310   -0.3296 H   0  0  0  0  0  0  0  0  0  0  0  0
   -0.4234   -2.3121    0.2742 H   0  0  0  0  0  0  0  0  0  0  0  0
    0.5639   -2.1782    1.7363 H   0  0  0  0  0  0  0  0  0  0  0  0
   -0.5837   -0.9012    1.3296 H   0  0  0  0  0  0  0  0  0  0  0  0
   -0.9966    0.2756   -2.2291 C   0  0  0  0  0  0  0  0  0  0  0  0
   -0.9966    0.2756   -0.7034 C   0  0  0  0  0  3  0  0  0  0  0  0
   -0.9966    1.7002   -0.1573 C   0  0  0  0  0  0  0  0  0  0  0  0
   -2.1794   -0.5185   -0.1573 C   0  0  0  0  0  0  0  0  0  0  0  0
   -0.1359    0.8178   -2.6262 H   0  0  0  0  0  0  0  0  0  0  0  0
   -1.9006    0.7575   -2.6129 H   0  0  0  0  0  0  0  0  0  0  0  0
   -0.9671   -0.7413   -2.6262 H   0  0  0  0  0  0  0  0  0  0  0  0
    0.1071   -0.3128   -0.2988 H   0  0  0  0  0  0  0  0  0  0  0  0
   -1.9006    2.2310   -0.4700 H   0  0  0  0  0  0  0  0  0  0  0  0
   -0.9671    1.7070    0.9343 H   0  0  0  0  0  0  0  0  0  0  0  0
   -0.1359    2.2651   -0.5216 H   0  0  0  0  0  0  0  0  0  0  0  0
   -2.1687   -1.5479   -0.5217 H   0  0  0  0  0  0  0  0  0  0  0  0
   -3.1240   -0.0637   -0.4698 H   0  0  0  0  0  0  0  0  0  0  0  0
   -2.1685   -0.5469    0.9342 H   0  0  0  0  0  0  0  0  0  0  0  0
  1  2  3  0
  1  5  1  0
  2  3  1  0
  3  4  1  0
  3  6  1  0
  3 17  1  0
  4  7  1  0
  4  8  1  0
  4  9  1  0
 10 11  1  0
 10 14  1  0
 10 15  1  0
 10 16  1  0
 11 12  1  0
 11 13  1  0
 12 18  1  0
 12 19  1  0
 12 20  1  0
 13 21  1  0
 13 22  1  0
 13 23  1  0
M  RAD  1  11   2
M  END
>  <reaction>  (5) 
rxn_962

>  <mol_properties>  (5) 
{"1": {"label": "*0", "atom_type": "Ct"}, "2": {"label": "*1", "atom_type": "Cs"}, "9": {"label": "*4", "atom_type": "Cs"}, "10": {"label": "*3", "atom_type": "Cs"}, "16": {"label": "*2", "atom_type": "H0"}}

>  <type>  (5) 
unop_1

>  <geom_source>  (5) 
Heuristics

$$$$

     RDKit          3D

 23 21  0  0  0  0  0  0  0  0999 V2000
    2.8538   -0.4611   -1.1713 C   0  0  0  0  0  0  0  0  0  0  0  0
    1.9876   -0.6629   -0.3691 C   0  0  0  0  0  0  0  0  0  0  0  0
    0.9438   -0.8895    0.6254 C   0  0  0  0  0  0  0  0  0  0  0  0
    1.1113   -0.0165    1.8704 C   0  0  0  0  0  0  0  0  0  0  0  0
    3.6228   -0.2819   -1.8835 H   0  0  0  0  0  0  0  0  0  0  0  0
    0.9505   -1.9455    0.9070 H   0  0  0  0  0  0  0  0  0  0  0  0
    0.3118   -0.2188    2.5840 H   0  0  0  0  0  0  0  0  0  0  0  0
    2.0664   -0.2160    2.3566 H   0  0  0  0  0  0  0  0  0  0  0  0
    1.0802    1.0411    1.6079 H   0  0  0  0  0  0  0  0  0  0  0  0
   -1.2610    0.2859   -1.7086 C   0  0  0  0  0  0  0  0  0  0  0  0
   -1.2610    0.2859   -0.1829 C   0  0  0  0  0  3  0  0  0  0  0  0
   -1.2610    1.7105    0.3632 C   0  0  0  0  0  0  0  0  0  0  0  0
   -2.4438   -0.5082    0.3632 C   0  0  0  0  0  0  0  0  0  0  0  0
   -0.4003    0.8282   -2.1056 H   0  0  0  0  0  0  0  0  0  0  0  0
   -2.1650    0.7678   -2.0924 H   0  0  0  0  0  0  0  0  0  0  0  0
   -1.2315   -0.7310   -2.1056 H   0  0  0  0  0  0  0  0  0  0  0  0
   -0.1573   -0.3025    0.2217 H   0  0  0  0  0  0  0  0  0  0  0  0
   -2.1650    2.2414    0.0506 H   0  0  0  0  0  0  0  0  0  0  0  0
   -1.2315    1.7173    1.4548 H   0  0  0  0  0  0  0  0  0  0  0  0
   -0.4003    2.2754   -0.0011 H   0  0  0  0  0  0  0  0  0  0  0  0
   -2.4332   -1.5376   -0.0012 H   0  0  0  0  0  0  0  0  0  0  0  0
   -3.3884   -0.0534    0.0507 H   0  0  0  0  0  0  0  0  0  0  0  0
   -2.4329   -0.5366    1.4548 H   0  0  0  0  0  0  0  0  0  0  0  0
  1  2  3  0
  1  5  1  0
  2  3  1  0
  3  4  1  0
  3  6  1  0
  3 17  1  0
  4  7  1  0
  4  8  1  0
  4  9  1  0
 10 11  1  0
 10 14  1  0
 10 15  1  0
 10 16  1  0
 11 12  1  0
 11 13  1  0
 12 18  1  0
 12 19  1  0
 12 20  1  0
 13 21  1  0
 13 22  1  0
 13 23  1  0
M  RAD  1  11   2
M  END
>  <reaction>  (6) 
rxn_962

>  <mol_properties>  (6) 
{"1": {"label": "*0", "atom_type": "Ct"}, "2": {"label": "*1", "atom_type": "Cs"}, "9": {"label": "*4", "atom_type": "Cs"}, "10": {"label": "*3", "atom_type": "Cs"}, "16": {"label": "*2", "atom_type": "H0"}}

>  <type>  (6) 
unop_2

>  <geom_source>  (6) 
Heuristics

$$$$

     RDKit          3D

 23 21  0  0  0  0  0  0  0  0999 V2000
    1.9986    0.3251    2.3896 C   0  0  0  0  0  0  0  0  0  0  0  0
    1.6866   -0.1281    1.3258 C   0  0  0  0  0  0  0  0  0  0  0  0
    1.2929   -0.7014    0.0426 C   0  0  0  0  0  0  0  0  0  0  0  0
    0.4636   -1.9781    0.1930 C   0  0  0  0  0  0  0  0  0  0  0  0
    2.2756    0.7274    3.3341 H   0  0  0  0  0  0  0  0  0  0  0  0
    2.1937   -0.9085   -0.5405 H   0  0  0  0  0  0  0  0  0  0  0  0
    0.1927   -2.3702   -0.7880 H   0  0  0  0  0  0  0  0  0  0  0  0
    1.0263   -2.7437    0.7273 H   0  0  0  0  0  0  0  0  0  0  0  0
   -0.4520   -1.7808    0.7506 H   0  0  0  0  0  0  0  0  0  0  0  0
   -0.9119    0.4740   -2.2913 C   0  0  0  0  0  0  0  0  0  0  0  0
   -0.9119    0.4740   -0.7656 C   0  0  0  0  0  3  0  0  0  0  0  0
   -0.9119    1.8987   -0.2195 C   0  0  0  0  0  0  0  0  0  0  0  0
   -2.0947   -0.3200   -0.2195 C   0  0  0  0  0  0  0  0  0  0  0  0
   -0.0512    1.0163   -2.6884 H   0  0  0  0  0  0  0  0  0  0  0  0
   -1.8159    0.9560   -2.6751 H   0  0  0  0  0  0  0  0  0  0  0  0
   -0.8824   -0.5428   -2.6884 H   0  0  0  0  0  0  0  0  0  0  0  0
    0.1918   -0.1144   -0.3610 H   0  0  0  0  0  0  0  0  0  0  0  0
   -1.8159    2.4295   -0.5322 H   0  0  0  0  0  0  0  0  0  0  0  0
   -0.8824    1.9055    0.8721 H   0  0  0  0  0  0  0  0  0  0  0  0
   -0.0512    2.4635   -0.5838 H   0  0  0  0  0  0  0  0  0  0  0  0
   -2.0840   -1.3494   -0.5839 H   0  0  0  0  0  0  0  0  0  0  0  0
   -3.0393    0.1347   -0.5320 H   0  0  0  0  0  0  0  0  0  0  0  0
   -2.0838   -0.3485    0.8721 H   0  0  0  0  0  0  0  0  0  0  0  0
  1  2  3  0
  1  5  1  0
  2  3  1  0
  3  4  1  0
  3  6  1  0
  3 17  1  0
  4  7  1  0
  4  8  1  0
  4  9  1  0
 10 11  1  0
 10 14  1  0
 10 15  1  0
 10 16  1  0
 11 12  1  0
 11 13  1  0
 12 18  1  0
 12 19  1  0
 12 20  1  0
 13 21  1  0
 13 22  1  0
 13 23  1  0
M  RAD  1  11   2
M  END
>  <reaction>  (7) 
rxn_962

>  <mol_properties>  (7) 
{"1": {"label": "*0", "atom_type": "Ct"}, "2": {"label": "*1", "atom_type": "Cs"}, "9": {"label": "*4", "atom_type": "Cs"}, "10": {"label": "*3", "atom_type": "Cs"}, "16": {"label": "*2", "atom_type": "H0"}}

>  <type>  (7) 
unop_3

>  <geom_source>  (7) 
Heuristics

$$$$

     RDKit          3D

 23 21  0  0  0  0  0  0  0  0999 V2000
    1.1647   -2.8171   -0.3301 C   0  0  0  0  0  0  0  0  0  0  0  0
    1.1265   -1.6962    0.0901 C   0  0  0  0  0  0  0  0  0  0  0  0
    1.1083   -0.3301    0.6033 C   0  0  0  0  0  0  0  0  0  0  0  0
    2.5101    0.2243    0.8638 C   0  0  0  0  0  0  0  0  0  0  0  0
    1.1985   -3.8123   -0.7032 H   0  0  0  0  0  0  0  0  0  0  0  0
    0.5219   -0.3092    1.5253 H   0  0  0  0  0  0  0  0  0  0  0  0
    2.4481    1.2442    1.2451 H   0  0  0  0  0  0  0  0  0  0  0  0
    3.0373   -0.3867    1.5966 H   0  0  0  0  0  0  0  0  0  0  0  0
    3.0985    0.2341   -0.0539 H   0  0  0  0  0  0  0  0  0  0  0  0
   -1.0965    0.8453   -1.7307 C   0  0  0  0  0  0  0  0  0  0  0  0
   -1.0965    0.8453   -0.2050 C   0  0  0  0  0  3  0  0  0  0  0  0
   -1.0965    2.2699    0.3411 C   0  0  0  0  0  0  0  0  0  0  0  0
   -2.2793    0.0512    0.3411 C   0  0  0  0  0  0  0  0  0  0  0  0
   -0.2358    1.3876   -2.1277 H   0  0  0  0  0  0  0  0  0  0  0  0
   -2.0005    1.3272   -2.1145 H   0  0  0  0  0  0  0  0  0  0  0  0
   -1.0671   -0.1716   -2.1277 H   0  0  0  0  0  0  0  0  0  0  0  0
    0.0072    0.2569    0.1996 H   0  0  0  0  0  0  0  0  0  0  0  0
   -2.0005    2.8008    0.0285 H   0  0  0  0  0  0  0  0  0  0  0  0
   -1.0670    2.2767    1.4327 H   0  0  0  0  0  0  0  0  0  0  0  0
   -0.2358    2.8348   -0.0232 H   0  0  0  0  0  0  0  0  0  0  0  0
   -2.2687   -0.9782   -0.0233 H   0  0  0  0  0  0  0  0  0  0  0  0
   -3.2239    0.5060    0.0286 H   0  0  0  0  0  0  0  0  0  0  0  0
   -2.2684    0.0228    1.4327 H   0  0  0  0  0  0  0  0  0  0  0  0
  1  2  3  0
  1  5  1  0
  2  3  1  0
  3  4  1  0
  3  6  1  0
  3 17  1  0
  4  7  1  0
  4  8  1  0
  4  9  1  0
 10 11  1  0
 10 14  1  0
 10 15  1  0
 10 16  1  0
 11 12  1  0
 11 13  1  0
 12 18  1  0
 12 19  1  0
 12 20  1  0
 13 21  1  0
 13 22  1  0
 13 23  1  0
M  RAD  1  11   2
M  END
>  <reaction>  (8) 
rxn_962

>  <mol_properties>  (8) 
{"1": {"label": "*0", "atom_type": "Ct"}, "2": {"label": "*1", "atom_type": "Cs"}, "9": {"label": "*4", "atom_type": "Cs"}, "10": {"label": "*3", "atom_type": "Cs"}, "16": {"label": "*2", "atom_type": "H0"}}

>  <type>  (8) 
unop_4

>  <geom_source>  (8) 
Heuristics

$$$$

     RDKit          3D

 23 21  0  0  0  0  0  0  0  0999 V2000
    1.3187   -0.5400    2.7478 C   0  0  0  0  0  0  0  0  0  0  0  0
    1.3020   -0.5089    1.5506 C   0  0  0  0  0  0  0  0  0  0  0  0
    1.2837   -0.4992    0.0913 C   0  0  0  0  0  0  0  0  0  0  0  0
    1.3787   -1.9017   -0.5123 C   0  0  0  0  0  0  0  0  0  0  0  0
    1.3335   -0.5676    3.8106 H   0  0  0  0  0  0  0  0  0  0  0  0
    2.1124    0.1173   -0.2661 H   0  0  0  0  0  0  0  0  0  0  0  0
    1.3616   -1.8461   -1.6013 H   0  0  0  0  0  0  0  0  0  0  0  0
    2.3028   -2.3923   -0.2063 H   0  0  0  0  0  0  0  0  0  0  0  0
    0.5431   -2.5206   -0.1851 H   0  0  0  0  0  0  0  0  0  0  0  0
   -0.9211    0.6762   -2.2426 C   0  0  0  0  0  0  0  0  0  0  0  0
   -0.9211    0.6762   -0.7169 C   0  0  0  0  0  3  0  0  0  0  0  0
   -0.9211    2.1008   -0.1708 C   0  0  0  0  0  0  0  0  0  0  0  0
   -2.1039   -0.1179   -0.1709 C   0  0  0  0  0  0  0  0  0  0  0  0
   -0.0604    1.2185   -2.6397 H   0  0  0  0  0  0  0  0  0  0  0  0
   -1.8251    1.1582   -2.6264 H   0  0  0  0  0  0  0  0  0  0  0  0
   -0.8916   -0.3407   -2.6397 H   0  0  0  0  0  0  0  0  0  0  0  0
    0.1826    0.0878   -0.3123 H   0  0  0  0  0  0  0  0  0  0  0  0
   -1.8251    2.6317   -0.4835 H   0  0  0  0  0  0  0  0  0  0  0  0
   -0.8916    2.1076    0.9208 H   0  0  0  0  0  0  0  0  0  0  0  0
   -0.0604    2.6657   -0.5351 H   0  0  0  0  0  0  0  0  0  0  0  0
   -2.0932   -1.1472   -0.5352 H   0  0  0  0  0  0  0  0  0  0  0  0
   -3.0485    0.3369   -0.4833 H   0  0  0  0  0  0  0  0  0  0  0  0
   -2.0930   -0.1463    0.9207 H   0  0  0  0  0  0  0  0  0  0  0  0
  1  2  3  0
  1  5  1  0
  2  3  1  0
  3  4  1  0
  3  6  1  0
  3 17  1  0
  4  7  1  0
  4  8  1  0
  4  9  1  0
 10 11  1  0
 10 14  1  0
 10 15  1  0
 10 16  1  0
 11 12  1  0
 11 13  1  0
 12 18  1  0
 12 19  1  0
 12 20  1  0
 13 21  1  0
 13 22  1  0
 13 23  1  0
M  RAD  1  11   2
M  END
>  <reaction>  (9) 
rxn_962

>  <mol_properties>  (9) 
{"1": {"label": "*0", "atom_type": "Ct"}, "2": {"label": "*1", "atom_type": "Cs"}, "9": {"label": "*4", "atom_type": "Cs"}, "10": {"label": "*3", "atom_type": "Cs"}, "16": {"label": "*2", "atom_type": "H0"}}

>  <type>  (9) 
unop_5

>  <geom_source>  (9) 
Heuristics

$$$$

     RDKit          3D

 23 21  0  0  0  0  0  0  0  0999 V2000
    0.7402   -2.8876    0.7025 C   0  0  0  0  0  0  0  0  0  0  0  0
    0.9279   -1.7106    0.5849 C   0  0  0  0  0  0  0  0  0  0  0  0
    1.1844   -0.2811    0.4406 C   0  0  0  0  0  0  0  0  0  0  0  0
    2.6751    0.0462    0.3354 C   0  0  0  0  0  0  0  0  0  0  0  0
    0.5735   -3.9326    0.8069 H   0  0  0  0  0  0  0  0  0  0  0  0
    0.7473    0.2420    1.2948 H   0  0  0  0  0  0  0  0  0  0  0  0
    2.8190    1.1220    0.2293 H   0  0  0  0  0  0  0  0  0  0  0  0
    3.2077   -0.2870    1.2263 H   0  0  0  0  0  0  0  0  0  0  0  0
    3.1193   -0.4483   -0.5285 H   0  0  0  0  0  0  0  0  0  0  0  0
   -1.0204    0.8943   -1.8934 C   0  0  0  0  0  0  0  0  0  0  0  0
   -1.0204    0.8943   -0.3677 C   0  0  0  0  0  3  0  0  0  0  0  0
   -1.0204    2.3189    0.1784 C   0  0  0  0  0  0  0  0  0  0  0  0
   -2.2032    0.1002    0.1784 C   0  0  0  0  0  0  0  0  0  0  0  0
   -0.1597    1.4365   -2.2905 H   0  0  0  0  0  0  0  0  0  0  0  0
   -1.9244    1.3762   -2.2772 H   0  0  0  0  0  0  0  0  0  0  0  0
   -0.9909   -0.1226   -2.2905 H   0  0  0  0  0  0  0  0  0  0  0  0
    0.0833    0.3059    0.0369 H   0  0  0  0  0  0  0  0  0  0  0  0
   -1.9244    2.8497   -0.1342 H   0  0  0  0  0  0  0  0  0  0  0  0
   -0.9909    2.3257    1.2700 H   0  0  0  0  0  0  0  0  0  0  0  0
   -0.1597    2.8838   -0.1859 H   0  0  0  0  0  0  0  0  0  0  0  0
   -2.1925   -0.9292   -0.1860 H   0  0  0  0  0  0  0  0  0  0  0  0
   -3.1478    0.5550   -0.1341 H   0  0  0  0  0  0  0  0  0  0  0  0
   -2.1923    0.0717    1.2700 H   0  0  0  0  0  0  0  0  0  0  0  0
  1  2  3  0
  1  5  1  0
  2  3  1  0
  3  4  1  0
  3  6  1  0
  3 17  1  0
  4  7  1  0
  4  8  1  0
  4  9  1  0
 10 11  1  0
 10 14  1  0
 10 15  1  0
 10 16  1  0
 11 12  1  0
 11 13  1  0
 12 18  1  0
 12 19  1  0
 12 20  1  0
 13 21  1  0
 13 22  1  0
 13 23  1  0
M  RAD  1  11   2
M  END
>  <reaction>  (10) 
rxn_962

>  <mol_properties>  (10) 
{"1": {"label": "*0", "atom_type": "Ct"}, "2": {"label": "*1", "atom_type": "Cs"}, "9": {"label": "*4", "atom_type": "Cs"}, "10": {"label": "*3", "atom_type": "Cs"}, "16": {"label": "*2", "atom_type": "H0"}}

>  <type>  (10) 
unop_6

>  <geom_source>  (10) 
Heuristics

$$$$

     RDKit          3D

 23 21  0  0  0  0  0  0  0  0999 V2000
    0.5936   -2.4473    1.7432 C   0  0  0  0  0  0  0  0  0  0  0  0
    0.8654   -1.4819    1.0885 C   0  0  0  0  0  0  0  0  0  0  0  0
    1.2225   -0.3159    0.2867 C   0  0  0  0  0  0  0  0  0  0  0  0
    2.6598   -0.3720   -0.2341 C   0  0  0  0  0  0  0  0  0  0  0  0
    0.3523   -3.3044    2.3244 H   0  0  0  0  0  0  0  0  0  0  0  0
    1.0801    0.5832    0.8916 H   0  0  0  0  0  0  0  0  0  0  0  0
    2.8820    0.5166   -0.8260 H   0  0  0  0  0  0  0  0  0  0  0  0
    3.3687   -0.4223    0.5925 H   0  0  0  0  0  0  0  0  0  0  0  0
    2.8094   -1.2508   -0.8615 H   0  0  0  0  0  0  0  0  0  0  0  0
   -0.9823    0.8595   -2.0473 C   0  0  0  0  0  0  0  0  0  0  0  0
   -0.9823    0.8595   -0.5216 C   0  0  0  0  0  3  0  0  0  0  0  0
   -0.9823    2.2842    0.0245 C   0  0  0  0  0  0  0  0  0  0  0  0
   -2.1652    0.0655    0.0245 C   0  0  0  0  0  0  0  0  0  0  0  0
   -0.1216    1.4018   -2.4443 H   0  0  0  0  0  0  0  0  0  0  0  0
   -1.8863    1.3415   -2.4310 H   0  0  0  0  0  0  0  0  0  0  0  0
   -0.9529   -0.1573   -2.4443 H   0  0  0  0  0  0  0  0  0  0  0  0
    0.1213    0.2712   -0.1170 H   0  0  0  0  0  0  0  0  0  0  0  0
   -1.8863    2.8150   -0.2881 H   0  0  0  0  0  0  0  0  0  0  0  0
   -0.9528    2.2910    1.1161 H   0  0  0  0  0  0  0  0  0  0  0  0
   -0.1217    2.8490   -0.3398 H   0  0  0  0  0  0  0  0  0  0  0  0
   -2.1545   -0.9639   -0.3399 H   0  0  0  0  0  0  0  0  0  0  0  0
   -3.1098    0.5202   -0.2880 H   0  0  0  0  0  0  0  0  0  0  0  0
   -2.1543    0.0370    1.1161 H   0  0  0  0  0  0  0  0  0  0  0  0
  1  2  3  0
  1  5  1  0
  2  3  1  0
  3  4  1  0
  3  6  1  0
  3 17  1  0
  4  7  1  0
  4  8  1  0
  4  9  1  0
 10 11  1  0
 10 14  1  0
 10 15  1  0
 10 16  1  0
 11 12  1  0
 11 13  1  0
 12 18  1  0
 12 19  1  0
 12 20  1  0
 13 21  1  0
 13 22  1  0
 13 23  1  0
M  RAD  1  11   2
M  END
>  <reaction>  (11) 
rxn_962

>  <mol_properties>  (11) 
{"1": {"label": "*0", "atom_type": "Ct"}, "2": {"label": "*1", "atom_type": "Cs"}, "9": {"label": "*4", "atom_type": "Cs"}, "10": {"label": "*3", "atom_type": "Cs"}, "16": {"label": "*2", "atom_type": "H0"}}

>  <type>  (11) 
unop_7

>  <geom_source>  (11) 
Heuristics

$$$$

     RDKit          3D

 23 21  0  0  0  0  0  0  0  0999 V2000
    2.9870    0.8350    0.5419 C   0  0  0  0  0  0  0  0  0  0  0  0
    2.1385    0.0012    0.4024 C   0  0  0  0  0  0  0  0  0  0  0  0
    1.0947   -1.0085    0.2581 C   0  0  0  0  0  0  0  0  0  0  0  0
    0.1856   -1.1011    1.4850 C   0  0  0  0  0  0  0  0  0  0  0  0
    3.7403    1.5751    0.6658 H   0  0  0  0  0  0  0  0  0  0  0  0
    1.5661   -1.9763    0.0696 H   0  0  0  0  0  0  0  0  0  0  0  0
   -0.5770   -1.8658    1.3331 H   0  0  0  0  0  0  0  0  0  0  0  0
    0.7612   -1.3595    2.3739 H   0  0  0  0  0  0  0  0  0  0  0  0
   -0.3123   -0.1491    1.6698 H   0  0  0  0  0  0  0  0  0  0  0  0
   -1.1101    0.1669   -2.0759 C   0  0  0  0  0  0  0  0  0  0  0  0
   -1.1101    0.1669   -0.5501 C   0  0  0  0  0  3  0  0  0  0  0  0
   -1.1101    1.5916   -0.0041 C   0  0  0  0  0  0  0  0  0  0  0  0
   -2.2929   -0.6271   -0.0041 C   0  0  0  0  0  0  0  0  0  0  0  0
   -0.2494    0.7092   -2.4729 H   0  0  0  0  0  0  0  0  0  0  0  0
   -2.0141    0.6489   -2.4596 H   0  0  0  0  0  0  0  0  0  0  0  0
   -1.0806   -0.8499   -2.4729 H   0  0  0  0  0  0  0  0  0  0  0  0
   -0.0064   -0.4215   -0.1456 H   0  0  0  0  0  0  0  0  0  0  0  0
   -2.0141    2.1224   -0.3167 H   0  0  0  0  0  0  0  0  0  0  0  0
   -1.0806    1.5984    1.0875 H   0  0  0  0  0  0  0  0  0  0  0  0
   -0.2494    2.1564   -0.3683 H   0  0  0  0  0  0  0  0  0  0  0  0
   -2.2823   -1.6565   -0.3685 H   0  0  0  0  0  0  0  0  0  0  0  0
   -3.2375   -0.1724   -0.3166 H   0  0  0  0  0  0  0  0  0  0  0  0
   -2.2820   -0.6556    1.0875 H   0  0  0  0  0  0  0  0  0  0  0  0
  1  2  3  0
  1  5  1  0
  2  3  1  0
  3  4  1  0
  3  6  1  0
  3 17  1  0
  4  7  1  0
  4  8  1  0
  4  9  1  0
 10 11  1  0
 10 14  1  0
 10 15  1  0
 10 16  1  0
 11 12  1  0
 11 13  1  0
 12 18  1  0
 12 19  1  0
 12 20  1  0
 13 21  1  0
 13 22  1  0
 13 23  1  0
M  RAD  1  11   2
M  END
>  <reaction>  (12) 
rxn_962

>  <mol_properties>  (12) 
{"1": {"label": "*0", "atom_type": "Ct"}, "2": {"label": "*1", "atom_type": "Cs"}, "9": {"label": "*4", "atom_type": "Cs"}, "10": {"label": "*3", "atom_type": "Cs"}, "16": {"label": "*2", "atom_type": "H0"}}

>  <type>  (12) 
unop_8

>  <geom_source>  (12) 
Heuristics

$$$$

     RDKit          3D

 23 21  0  0  0  0  0  0  0  0999 V2000
    1.7536   -2.2797   -1.0913 C   0  0  0  0  0  0  0  0  0  0  0  0
    1.4084   -1.4708   -0.2782 C   0  0  0  0  0  0  0  0  0  0  0  0
    1.0148   -0.4779    0.7163 C   0  0  0  0  0  0  0  0  0  0  0  0
    2.2071    0.2841    1.2977 C   0  0  0  0  0  0  0  0  0  0  0  0
    2.0601   -2.9977   -1.8132 H   0  0  0  0  0  0  0  0  0  0  0  0
    0.4675   -0.9811    1.5173 H   0  0  0  0  0  0  0  0  0  0  0  0
    1.8669    1.0131    2.0341 H   0  0  0  0  0  0  0  0  0  0  0  0
    2.9024   -0.3998    1.7849 H   0  0  0  0  0  0  0  0  0  0  0  0
    2.7477    0.8131    0.5127 H   0  0  0  0  0  0  0  0  0  0  0  0
   -1.1900    0.6976   -1.6177 C   0  0  0  0  0  0  0  0  0  0  0  0
   -1.1900    0.6976   -0.0920 C   0  0  0  0  0  3  0  0  0  0  0  0
   -1.1900    2.1222    0.4541 C   0  0  0  0  0  0  0  0  0  0  0  0
   -2.3728   -0.0965    0.4541 C   0  0  0  0  0  0  0  0  0  0  0  0
   -0.3293    1.2398   -2.0148 H   0  0  0  0  0  0  0  0  0  0  0  0
   -2.0940    1.1795   -2.0015 H   0  0  0  0  0  0  0  0  0  0  0  0
   -1.1606   -0.3193   -2.0147 H   0  0  0  0  0  0  0  0  0  0  0  0
   -0.0863    0.1092    0.3126 H   0  0  0  0  0  0  0  0  0  0  0  0
   -2.0940    2.6530    0.1415 H   0  0  0  0  0  0  0  0  0  0  0  0
   -1.1605    2.1290    1.5457 H   0  0  0  0  0  0  0  0  0  0  0  0
   -0.3293    2.6871    0.0898 H   0  0  0  0  0  0  0  0  0  0  0  0
   -2.3622   -1.1259    0.0897 H   0  0  0  0  0  0  0  0  0  0  0  0
   -3.3174    0.3582    0.1416 H   0  0  0  0  0  0  0  0  0  0  0  0
   -2.3619   -0.1250    1.5457 H   0  0  0  0  0  0  0  0  0  0  0  0
  1  2  3  0
  1  5  1  0
  2  3  1  0
  3  4  1  0
  3  6  1  0
  3 17  1  0
  4  7  1  0
  4  8  1  0
  4  9  1  0
 10 11  1  0
 10 14  1  0
 10 15  1  0
 10 16  1  0
 11 12  1  0
 11 13  1  0
 12 18  1  0
 12 19  1  0
 12 20  1  0
 13 21  1  0
 13 22  1  0
 13 23  1  0
M  RAD  1  11   2
M  END
>  <reaction>  (13) 
rxn_962

>  <mol_properties>  (13) 
{"1": {"label": "*0", "atom_type": "Ct"}, "2": {"label": "*1", "atom_type": "Cs"}, "9": {"label": "*4", "atom_type": "Cs"}, "10": {"label": "*3", "atom_type": "Cs"}, "16": {"label": "*2", "atom_type": "H0"}}

>  <type>  (13) 
unop_9

>  <geom_source>  (13) 
Heuristics

$$$$

     RDKit          3D

 23 21  0  0  0  0  0  0  0  0999 V2000
    3.0819    0.3669   -0.4646 C   0  0  0  0  0  0  0  0  0  0  0  0
    2.1428   -0.2584   -0.0627 C   0  0  0  0  0  0  0  0  0  0  0  0
    0.9984   -1.0046    0.4504 C   0  0  0  0  0  0  0  0  0  0  0  0
    0.5416   -0.5174    1.8267 C   0  0  0  0  0  0  0  0  0  0  0  0
    3.9156    0.9221   -0.8214 H   0  0  0  0  0  0  0  0  0  0  0  0
    1.2631   -2.0639    0.4990 H   0  0  0  0  0  0  0  0  0  0  0  0
   -0.3130   -1.1017    2.1698 H   0  0  0  0  0  0  0  0  0  0  0  0
    1.3438   -0.6174    2.5580 H   0  0  0  0  0  0  0  0  0  0  0  0
    0.2489    0.5319    1.7877 H   0  0  0  0  0  0  0  0  0  0  0  0
   -1.2064    0.1708   -1.8835 C   0  0  0  0  0  0  0  0  0  0  0  0
   -1.2064    0.1708   -0.3578 C   0  0  0  0  0  3  0  0  0  0  0  0
   -1.2064    1.5954    0.1883 C   0  0  0  0  0  0  0  0  0  0  0  0
   -2.3893   -0.6233    0.1882 C   0  0  0  0  0  0  0  0  0  0  0  0
   -0.3457    0.7130   -2.2806 H   0  0  0  0  0  0  0  0  0  0  0  0
   -2.1104    0.6527   -2.2673 H   0  0  0  0  0  0  0  0  0  0  0  0
   -1.1770   -0.8461   -2.2806 H   0  0  0  0  0  0  0  0  0  0  0  0
   -0.1028   -0.4176    0.0468 H   0  0  0  0  0  0  0  0  0  0  0  0
   -2.1104    2.1262   -0.1244 H   0  0  0  0  0  0  0  0  0  0  0  0
   -1.1769    1.6022    1.2799 H   0  0  0  0  0  0  0  0  0  0  0  0
   -0.3458    2.1603   -0.1760 H   0  0  0  0  0  0  0  0  0  0  0  0
   -2.3786   -1.6527   -0.1762 H   0  0  0  0  0  0  0  0  0  0  0  0
   -3.3339   -0.1685   -0.1243 H   0  0  0  0  0  0  0  0  0  0  0  0
   -2.3784   -0.6517    1.2798 H   0  0  0  0  0  0  0  0  0  0  0  0
  1  2  3  0
  1  5  1  0
  2  3  1  0
  3  4  1  0
  3  6  1  0
  3 17  1  0
  4  7  1  0
  4  8  1  0
  4  9  1  0
 10 11  1  0
 10 14  1  0
 10 15  1  0
 10 16  1  0
 11 12  1  0
 11 13  1  0
 12 18  1  0
 12 19  1  0
 12 20  1  0
 13 21  1  0
 13 22  1  0
 13 23  1  0
M  RAD  1  11   2
M  END
>  <reaction>  (14) 
rxn_962

>  <mol_properties>  (14) 
{"1": {"label": "*0", "atom_type": "Ct"}, "2": {"label": "*1", "atom_type": "Cs"}, "9": {"label": "*4", "atom_type": "Cs"}, "10": {"label": "*3", "atom_type": "Cs"}, "16": {"label": "*2", "atom_type": "H0"}}

>  <type>  (14) 
unop_10

>  <geom_source>  (14) 
Heuristics

$$$$

     RDKit          3D

 23 21  0  0  0  0  0  0  0  0999 V2000
    0.7881   -1.5842    2.5075 C   0  0  0  0  0  0  0  0  0  0  0  0
    0.9828   -1.0377    1.4597 C   0  0  0  0  0  0  0  0  0  0  0  0
    1.2394   -0.3913    0.1766 C   0  0  0  0  0  0  0  0  0  0  0  0
    2.3015   -1.1171   -0.6511 C   0  0  0  0  0  0  0  0  0  0  0  0
    0.6152   -2.0695    3.4377 H   0  0  0  0  0  0  0  0  0  0  0  0
    1.5499    0.6405    0.3591 H   0  0  0  0  0  0  0  0  0  0  0  0
    2.4602   -0.6007   -1.5985 H   0  0  0  0  0  0  0  0  0  0  0  0
    3.2502   -1.1545   -0.1154 H   0  0  0  0  0  0  0  0  0  0  0  0
    1.9930   -2.1409   -0.8636 H   0  0  0  0  0  0  0  0  0  0  0  0
   -0.9655    0.7841   -2.1573 C   0  0  0  0  0  0  0  0  0  0  0  0
   -0.9655    0.7841   -0.6316 C   0  0  0  0  0  3  0  0  0  0  0  0
   -0.9655    2.2087   -0.0856 C   0  0  0  0  0  0  0  0  0  0  0  0
   -2.1483   -0.0100   -0.0856 C   0  0  0  0  0  0  0  0  0  0  0  0
   -0.1047    1.3264   -2.5544 H   0  0  0  0  0  0  0  0  0  0  0  0
   -1.8694    1.2661   -2.5411 H   0  0  0  0  0  0  0  0  0  0  0  0
   -0.9360   -0.2328   -2.5544 H   0  0  0  0  0  0  0  0  0  0  0  0
    0.1382    0.1957   -0.2270 H   0  0  0  0  0  0  0  0  0  0  0  0
   -1.8695    2.7396   -0.3982 H   0  0  0  0  0  0  0  0  0  0  0  0
   -0.9359    2.2155    1.0060 H   0  0  0  0  0  0  0  0  0  0  0  0
   -0.1048    2.7736   -0.4498 H   0  0  0  0  0  0  0  0  0  0  0  0
   -2.1376   -1.0394   -0.4500 H   0  0  0  0  0  0  0  0  0  0  0  0
   -3.0929    0.4448   -0.3981 H   0  0  0  0  0  0  0  0  0  0  0  0
   -2.1374   -0.0384    1.0060 H   0  0  0  0  0  0  0  0  0  0  0  0
  1  2  3  0
  1  5  1  0
  2  3  1  0
  3  4  1  0
  3  6  1  0
  3 17  1  0
  4  7  1  0
  4  8  1  0
  4  9  1  0
 10 11  1  0
 10 14  1  0
 10 15  1  0
 10 16  1  0
 11 12  1  0
 11 13  1  0
 12 18  1  0
 12 19  1  0
 12 20  1  0
 13 21  1  0
 13 22  1  0
 13 23  1  0
M  RAD  1  11   2
M  END
>  <reaction>  (15) 
rxn_962

>  <mol_properties>  (15) 
{"1": {"label": "*0", "atom_type": "Ct"}, "2": {"label": "*1", "atom_type": "Cs"}, "9": {"label": "*4", "atom_type": "Cs"}, "10": {"label": "*3", "atom_type": "Cs"}, "16": {"label": "*2", "atom_type": "H0"}}

>  <type>  (15) 
unop_11

>  <geom_source>  (15) 
Heuristics

$$$$

     RDKit          3D

 23 21  0  0  0  0  0  0  0  0999 V2000
    2.3665   -1.4246   -1.3969 C   0  0  0  0  0  0  0  0  0  0  0  0
    1.7176   -1.1008   -0.4437 C   0  0  0  0  0  0  0  0  0  0  0  0
    0.9485   -0.6908    0.7270 C   0  0  0  0  0  0  0  0  0  0  0  0
    1.7296    0.2446    1.6517 C   0  0  0  0  0  0  0  0  0  0  0  0
    2.9426   -1.7120   -2.2431 H   0  0  0  0  0  0  0  0  0  0  0  0
    0.6401   -1.5847    1.2751 H   0  0  0  0  0  0  0  0  0  0  0  0
    1.1180    0.5243    2.5103 H   0  0  0  0  0  0  0  0  0  0  0  0
    2.6353   -0.2402    2.0165 H   0  0  0  0  0  0  0  0  0  0  0  0
    2.0215    1.1534    1.1252 H   0  0  0  0  0  0  0  0  0  0  0  0
   -1.2563    0.4846   -1.6070 C   0  0  0  0  0  0  0  0  0  0  0  0
   -1.2563    0.4846   -0.0813 C   0  0  0  0  0  3  0  0  0  0  0  0
   -1.2563    1.9092    0.4648 C   0  0  0  0  0  0  0  0  0  0  0  0
   -2.4391   -0.3095    0.4648 C   0  0  0  0  0  0  0  0  0  0  0  0
   -0.3956    1.0268   -2.0040 H   0  0  0  0  0  0  0  0  0  0  0  0
   -2.1602    0.9665   -1.9908 H   0  0  0  0  0  0  0  0  0  0  0  0
   -1.2268   -0.5323   -2.0040 H   0  0  0  0  0  0  0  0  0  0  0  0
   -0.1526   -0.1038    0.3233 H   0  0  0  0  0  0  0  0  0  0  0  0
   -2.1603    2.4400    0.1522 H   0  0  0  0  0  0  0  0  0  0  0  0
   -1.2267    1.9160    1.5564 H   0  0  0  0  0  0  0  0  0  0  0  0
   -0.3956    2.4741    0.1005 H   0  0  0  0  0  0  0  0  0  0  0  0
   -2.4284   -1.3389    0.1004 H   0  0  0  0  0  0  0  0  0  0  0  0
   -3.3837    0.1453    0.1523 H   0  0  0  0  0  0  0  0  0  0  0  0
   -2.4282   -0.3380    1.5564 H   0  0  0  0  0  0  0  0  0  0  0  0
  1  2  3  0
  1  5  1  0
  2  3  1  0
  3  4  1  0
  3  6  1  0
  3 17  1  0
  4  7  1  0
  4  8  1  0
  4  9  1  0
 10 11  1  0
 10 14  1  0
 10 15  1  0
 10 16  1  0
 11 12  1  0
 11 13  1  0
 12 18  1  0
 12 19  1  0
 12 20  1  0
 13 21  1  0
 13 22  1  0
 13 23  1  0
M  RAD  1  11   2
M  END
>  <reaction>  (16) 
rxn_962

>  <mol_properties>  (16) 
{"1": {"label": "*0", "atom_type": "Ct"}, "2": {"label": "*1", "atom_type": "Cs"}, "9": {"label": "*4", "atom_type": "Cs"}, "10": {"label": "*3", "atom_type": "Cs"}, "16": {"label": "*2", "atom_type": "H0"}}

>  <type>  (16) 
unop_12

>  <geom_source>  (16) 
Heuristics

$$$$

     RDKit          3D

 23 21  0  0  0  0  0  0  0  0999 V2000
    1.4748   -0.3735   -0.2612 C   0  0  0  0  0  3  0  0  0  0  0  0
    2.0492   -0.9564    1.0227 C   0  0  0  0  0  0  0  0  0  0  0  0
   -1.6558   -0.2870   -1.4304 C   0  0  0  0  0  0  0  0  0  0  0  0
   -1.5733   -0.9619    1.0032 C   0  0  0  0  0  0  0  0  0  0  0  0
   -1.4367    1.4788    0.3637 C   0  0  0  0  0  0  0  0  0  0  0  0
   -1.0960    0.0445   -0.0456 C   0  0  0  0  0  0  0  0  0  0  0  0
    2.3319    0.7040   -0.7674 C   0  0  0  0  0  0  0  0  0  0  0  0
    3.0356    1.5898   -1.1840 C   0  0  0  0  0  0  0  0  0  0  0  0
    1.3978   -1.1698   -1.0314 H   0  0  0  0  0  0  0  0  0  0  0  0
    0.2314    0.1243   -0.0143 H   0  0  0  0  0  0  0  0  0  0  0  0
    3.0599   -1.3802    0.8384 H   0  0  0  0  0  0  0  0  0  0  0  0
    1.3843   -1.7665    1.3887 H   0  0  0  0  0  0  0  0  0  0  0  0
    2.1151   -0.1710    1.8058 H   0  0  0  0  0  0  0  0  0  0  0  0
   -1.2527    0.4240   -2.1820 H   0  0  0  0  0  0  0  0  0  0  0  0
   -2.7653   -0.2248   -1.4299 H   0  0  0  0  0  0  0  0  0  0  0  0
   -1.3499   -1.3124   -1.7270 H   0  0  0  0  0  0  0  0  0  0  0  0
   -1.1115   -0.7320    1.9865 H   0  0  0  0  0  0  0  0  0  0  0  0
   -2.6795   -0.9277    1.1046 H   0  0  0  0  0  0  0  0  0  0  0  0
   -1.2673   -1.9883    0.7101 H   0  0  0  0  0  0  0  0  0  0  0  0
   -0.9746    1.7122    1.3460 H   0  0  0  0  0  0  0  0  0  0  0  0
   -1.0333    2.1924   -0.3853 H   0  0  0  0  0  0  0  0  0  0  0  0
   -2.5372    1.6142    0.4385 H   0  0  0  0  0  0  0  0  0  0  0  0
    3.6533    2.3674   -1.5496 H   0  0  0  0  0  0  0  0  0  0  0  0
  1  2  1  0
  1  7  1  0
  1  9  1  0
  2 11  1  0
  2 12  1  0
  2 13  1  0
  3  6  1  0
  3 14  1  0
  3 15  1  0
  3 16  1  0
  4  6  1  0
  4 17  1  0
  4 18  1  0
  4 19  1  0
  5  6  1  0
  5 20  1  0
  5 21  1  0
  5 22  1  0
  6 10  1  0
  7  8  3  0
  8 23  1  0
M  RAD  1   1   2
M  END
>  <reaction>  (17) 
rxn_962

>  <mol_properties>  (17) 
{"1": {"label": "*0", "atom_type": "Ct"}, "2": {"label": "*1", "atom_type": "Cs"}, "9": {"label": "*4", "atom_type": "Cs"}, "10": {"label": "*3", "atom_type": "Cs"}, "16": {"label": "*2", "atom_type": "H0"}}

>  <type>  (17) 
unop_13

>  <geom_source>  (17) 
AutoTST

$$$$
