
     RDKit          3D

  9  8  0  0  0  0  0  0  0  0999 V2000
   -0.8818   -0.3578    0.1297 C   0  0  0  0  0  0  0  0  0  0  0  0
    0.6153   -0.3021   -0.1188 C   0  0  0  0  0  0  0  0  0  0  0  0
    1.5354   -1.7170    0.5545 S   0  0  0  0  0  0  0  0  0  0  0  0
   -1.1018   -0.3317    1.1984 H   0  0  0  0  0  0  0  0  0  0  0  0
   -1.3114   -1.2723   -0.2799 H   0  0  0  0  0  0  0  0  0  0  0  0
   -1.3767    0.4976   -0.3363 H   0  0  0  0  0  0  0  0  0  0  0  0
    1.0467    0.6194    0.2718 H   0  0  0  0  0  0  0  0  0  0  0  0
    0.8295   -0.3275   -1.1882 H   0  0  0  0  0  0  0  0  0  0  0  0
    1.2306   -1.5077    1.8423 H   0  0  0  0  0  0  0  0  0  0  0  0
  1  2  1  0
  1  4  1  0
  1  5  1  0
  1  6  1  0
  2  3  1  0
  2  7  1  0
  2  8  1  0
  3  9  1  0
M  END
>  <reaction>  (1) 
rxn_1882

>  <mol_properties>  (1) 
{"1": {"label": "donator", "atom_type": "Cs"}, "6": {"label": "d_hydrogen", "atom_type": "H0"}}

>  <type>  (1) 
r1h

$$$$

     RDKit          3D

  8  7  0  0  0  0  0  0  0  0999 V2000
    1.4098   -0.3617   -0.1137 C   0  0  0  0  0  0  0  0  0  0  0  0
    0.1829   -0.1715   -0.5109 C   0  0  0  0  0  3  0  0  0  0  0  0
   -1.1129    0.2669    0.0153 C   0  0  0  0  0  0  0  0  0  0  0  0
    2.1881   -0.7137   -0.7829 H   0  0  0  0  0  0  0  0  0  0  0  0
    1.7065   -0.1722    0.9205 H   0  0  0  0  0  0  0  0  0  0  0  0
   -1.8665   -0.5154   -0.0958 H   0  0  0  0  0  0  0  0  0  0  0  0
   -1.0351    0.5163    1.0818 H   0  0  0  0  0  0  0  0  0  0  0  0
   -1.4726    1.1513   -0.5143 H   0  0  0  0  0  0  0  0  0  0  0  0
  1  2  2  3
  1  4  1  0
  1  5  1  0
  2  3  1  0
  3  6  1  0
  3  7  1  0
  3  8  1  0
M  RAD  1   2   2
M  END
>  <reaction>  (2) 
rxn_1882

>  <mol_properties>  (2) 
{"1": {"label": "acceptor", "atom_type": "Cd"}}

>  <type>  (2) 
r2

$$$$

     RDKit          3D

  9  8  0  0  0  0  0  0  0  0999 V2000
    1.1303   -0.2933   -0.7510 C   0  0  0  0  0  0  0  0  0  0  0  0
    0.2866    0.4560   -0.0588 C   0  0  0  0  0  0  0  0  0  0  0  0
   -0.9719   -0.0331    0.5823 C   0  0  0  0  0  0  0  0  0  0  0  0
    2.0274    0.1230   -1.1916 H   0  0  0  0  0  0  0  0  0  0  0  0
    0.9532   -1.3530   -0.9023 H   0  0  0  0  0  0  0  0  0  0  0  0
    0.5065    1.5132    0.0659 H   0  0  0  0  0  0  0  0  0  0  0  0
   -0.9526    0.1426    1.6610 H   0  0  0  0  0  0  0  0  0  0  0  0
   -1.1182   -1.1002    0.4106 H   0  0  0  0  0  0  0  0  0  0  0  0
   -1.8412    0.5010    0.1901 H   0  0  0  0  0  0  0  0  0  0  0  0
  1  2  2  3
  1  4  1  0
  1  5  1  0
  2  3  1  0
  2  6  1  0
  3  7  1  0
  3  8  1  0
  3  9  1  0
M  END
>  <reaction>  (3) 
rxn_1882

>  <mol_properties>  (3) 
{"0": {"label": "a_hydrogen", "atom_type": "H0"}, "2": {"label": "acceptor", "atom_type": "Cd"}}

>  <type>  (3) 
r2h

$$$$

     RDKit          3D

 17 15  0  0  0  0  0  0  0  0999 V2000
   -0.9654   -0.0684   -1.8837 C   0  0  0  0  0  0  0  0  0  0  0  0
   -0.8814    0.4383   -0.4641 C   0  0  0  0  0  0  0  0  0  0  0  0
   -0.3019    2.1121   -0.2416 S   0  0  0  0  0  0  0  0  0  0  0  0
    0.0175   -0.0496   -2.3598 H   0  0  0  0  0  0  0  0  0  0  0  0
   -1.6431    0.5390   -2.4875 H   0  0  0  0  0  0  0  0  0  0  0  0
   -1.3251   -1.0999   -1.8956 H   0  0  0  0  0  0  0  0  0  0  0  0
   -0.0819   -0.3393    0.1502 H   0  0  0  0  0  0  0  0  0  0  0  0
   -1.8191    0.3508    0.0841 H   0  0  0  0  0  0  0  0  0  0  0  0
    0.8559    1.9668   -0.9023 H   0  0  0  0  0  0  0  0  0  0  0  0
    1.6922   -0.5627    1.5658 C   0  0  0  0  0  0  0  0  0  0  0  0
    0.8728   -1.1942    0.7568 C   0  0  0  0  0  3  0  0  0  0  0  0
    0.7776   -2.6168    0.3565 C   0  0  0  0  0  0  0  0  0  0  0  0
    1.6031    0.5049    1.7392 H   0  0  0  0  0  0  0  0  0  0  0  0
    2.4881   -1.0857    2.0954 H   0  0  0  0  0  0  0  0  0  0  0  0
    0.9008   -2.7275   -0.7236 H   0  0  0  0  0  0  0  0  0  0  0  0
    1.5448   -3.2201    0.8525 H   0  0  0  0  0  0  0  0  0  0  0  0
   -0.2007   -3.0299    0.6136 H   0  0  0  0  0  0  0  0  0  0  0  0
  1  2  1  0
  1  4  1  0
  1  5  1  0
  1  6  1  0
  2  3  1  0
  2  7  1  0
  2  8  1  0
  3  9  1  0
 10 11  2  3
 10 13  1  0
 10 14  1  0
 11 12  1  0
 12 15  1  0
 12 16  1  0
 12 17  1  0
M  RAD  1  11   2
M  END
>  <reaction>  (4) 
rxn_1882

>  <mol_properties>  (4) 
{"1": {"label": "*1", "atom_type": "Cs"}, "2": {"label": "*0", "atom_type": "S2s"}, "6": {"label": "*2", "atom_type": "H0"}, "9": {"label": "*4", "atom_type": "Cd"}, "10": {"label": "*3", "atom_type": "Cd"}}

>  <type>  (4) 
ts

$$$$

     RDKit          3D

 17 15  0  0  0  0  0  0  0  0999 V2000
   -0.8565    0.1359   -2.0566 C   0  0  0  0  0  0  0  0  0  0  0  0
   -0.8565    0.1359   -0.5379 C   0  0  0  0  0  3  0  0  0  0  0  0
   -0.8565    1.7933    0.2071 S   0  0  0  0  0  0  0  0  0  0  0  0
    0.0501    0.6013   -2.4473 H   0  0  0  0  0  0  0  0  0  0  0  0
   -1.7125    0.6871   -2.4467 H   0  0  0  0  0  0  0  0  0  0  0  0
   -0.8996   -0.8875   -2.4369 H   0  0  0  0  0  0  0  0  0  0  0  0
    0.1554   -0.5434   -0.0638 H   0  0  0  0  0  0  0  0  0  0  0  0
   -1.7642   -0.3311   -0.1528 H   0  0  0  0  0  0  0  0  0  0  0  0
    0.3183    2.1950   -0.2965 H   0  0  0  0  0  0  0  0  0  0  0  0
    2.0434   -0.6008    1.1809 C   0  0  0  0  0  0  0  0  0  0  0  0
    1.1647   -1.2210    0.4091 C   0  0  0  0  0  0  0  0  0  0  0  0
    0.5939   -2.5771    0.6728 C   0  0  0  0  0  0  0  0  0  0  0  0
    2.4191    0.3840    0.9333 H   0  0  0  0  0  0  0  0  0  0  0  0
    2.4194   -1.0573    2.0904 H   0  0  0  0  0  0  0  0  0  0  0  0
    0.8180   -3.2602   -0.1506 H   0  0  0  0  0  0  0  0  0  0  0  0
    0.9928   -3.0055    1.5930 H   0  0  0  0  0  0  0  0  0  0  0  0
   -0.4949   -2.5309    0.7582 H   0  0  0  0  0  0  0  0  0  0  0  0
  1  2  1  0
  1  4  1  0
  1  5  1  0
  1  6  1  0
  2  3  1  0
  2  8  1  0
  3  9  1  0
  7 11  1  0
 10 11  2  3
 10 13  1  0
 10 14  1  0
 11 12  1  0
 12 15  1  0
 12 16  1  0
 12 17  1  0
M  RAD  1   2   2
M  END
>  <reaction>  (5) 
rxn_1882

>  <mol_properties>  (5) 
{"1": {"label": "*1", "atom_type": "Cs"}, "2": {"label": "*0", "atom_type": "S2s"}, "6": {"label": "*2", "atom_type": "H0"}, "9": {"label": "*4", "atom_type": "Cd"}, "10": {"label": "*3", "atom_type": "Cd"}}

>  <type>  (5) 
unop_1

>  <geom_source>  (5) 
Heuristics

$$$$

     RDKit          3D

 17 15  0  0  0  0  0  0  0  0999 V2000
   -0.9608    0.0747   -2.0264 C   0  0  0  0  0  0  0  0  0  0  0  0
   -0.9608    0.0747   -0.5077 C   0  0  0  0  0  3  0  0  0  0  0  0
   -0.9608    1.7320    0.2373 S   0  0  0  0  0  0  0  0  0  0  0  0
   -0.0542    0.5401   -2.4171 H   0  0  0  0  0  0  0  0  0  0  0  0
   -1.8168    0.6259   -2.4165 H   0  0  0  0  0  0  0  0  0  0  0  0
   -1.0039   -0.9487   -2.4066 H   0  0  0  0  0  0  0  0  0  0  0  0
    0.0511   -0.6047   -0.0336 H   0  0  0  0  0  0  0  0  0  0  0  0
   -1.8684   -0.3924   -0.1226 H   0  0  0  0  0  0  0  0  0  0  0  0
    0.2140    2.1337   -0.2662 H   0  0  0  0  0  0  0  0  0  0  0  0
    2.1794   -1.3349   -0.2658 C   0  0  0  0  0  0  0  0  0  0  0  0
    1.0604   -1.2823    0.4393 C   0  0  0  0  0  0  0  0  0  0  0  0
    0.9437   -1.6067    1.8938 C   0  0  0  0  0  0  0  0  0  0  0  0
    2.1972   -1.0867   -1.3196 H   0  0  0  0  0  0  0  0  0  0  0  0
    3.1205   -1.6290    0.1870 H   0  0  0  0  0  0  0  0  0  0  0  0
    0.2362   -2.4242    2.0544 H   0  0  0  0  0  0  0  0  0  0  0  0
    1.9065   -1.8977    2.3158 H   0  0  0  0  0  0  0  0  0  0  0  0
    0.5674   -0.7475    2.4549 H   0  0  0  0  0  0  0  0  0  0  0  0
  1  2  1  0
  1  4  1  0
  1  5  1  0
  1  6  1  0
  2  3  1  0
  2  8  1  0
  3  9  1  0
  7 11  1  0
 10 11  2  3
 10 13  1  0
 10 14  1  0
 11 12  1  0
 12 15  1  0
 12 16  1  0
 12 17  1  0
M  RAD  1   2   2
M  END
>  <reaction>  (6) 
rxn_1882

>  <mol_properties>  (6) 
{"1": {"label": "*1", "atom_type": "Cs"}, "2": {"label": "*0", "atom_type": "S2s"}, "6": {"label": "*2", "atom_type": "H0"}, "9": {"label": "*4", "atom_type": "Cd"}, "10": {"label": "*3", "atom_type": "Cd"}}

>  <type>  (6) 
unop_2

>  <geom_source>  (6) 
Heuristics

$$$$

     RDKit          3D

 17 15  0  0  0  0  0  0  0  0999 V2000
   -0.8763    0.1815   -1.9954 C   0  0  0  0  0  0  0  0  0  0  0  0
   -0.8763    0.1815   -0.4767 C   0  0  0  0  0  3  0  0  0  0  0  0
   -0.8763    1.8388    0.2683 S   0  0  0  0  0  0  0  0  0  0  0  0
    0.0303    0.6469   -2.3861 H   0  0  0  0  0  0  0  0  0  0  0  0
   -1.7323    0.7327   -2.3855 H   0  0  0  0  0  0  0  0  0  0  0  0
   -0.9194   -0.8419   -2.3757 H   0  0  0  0  0  0  0  0  0  0  0  0
    0.1356   -0.4979   -0.0026 H   0  0  0  0  0  0  0  0  0  0  0  0
   -1.7839   -0.2856   -0.0916 H   0  0  0  0  0  0  0  0  0  0  0  0
    0.2985    2.2405   -0.2352 H   0  0  0  0  0  0  0  0  0  0  0  0
    1.6591   -0.8220    1.6378 C   0  0  0  0  0  0  0  0  0  0  0  0
    1.1449   -1.1755    0.4703 C   0  0  0  0  0  0  0  0  0  0  0  0
    1.0455   -2.5779   -0.0370 C   0  0  0  0  0  0  0  0  0  0  0  0
    1.7018    0.2146    1.9475 H   0  0  0  0  0  0  0  0  0  0  0  0
    2.0569   -1.5590    2.3275 H   0  0  0  0  0  0  0  0  0  0  0  0
    1.5869   -2.6896   -0.9800 H   0  0  0  0  0  0  0  0  0  0  0  0
    1.4538   -3.2912    0.6801 H   0  0  0  0  0  0  0  0  0  0  0  0
    0.0049   -2.8468   -0.2356 H   0  0  0  0  0  0  0  0  0  0  0  0
  1  2  1  0
  1  4  1  0
  1  5  1  0
  1  6  1  0
  2  3  1  0
  2  8  1  0
  3  9  1  0
  7 11  1  0
 10 11  2  3
 10 13  1  0
 10 14  1  0
 11 12  1  0
 12 15  1  0
 12 16  1  0
 12 17  1  0
M  RAD  1   2   2
M  END
>  <reaction>  (7) 
rxn_1882

>  <mol_properties>  (7) 
{"1": {"label": "*1", "atom_type": "Cs"}, "2": {"label": "*0", "atom_type": "S2s"}, "6": {"label": "*2", "atom_type": "H0"}, "9": {"label": "*4", "atom_type": "Cd"}, "10": {"label": "*3", "atom_type": "Cd"}}

>  <type>  (7) 
unop_3

>  <geom_source>  (7) 
Heuristics

$$$$

     RDKit          3D

 17 15  0  0  0  0  0  0  0  0999 V2000
   -0.9018    0.1077   -2.0576 C   0  0  0  0  0  0  0  0  0  0  0  0
   -0.9018    0.1077   -0.5389 C   0  0  0  0  0  3  0  0  0  0  0  0
   -0.9018    1.7651    0.2061 S   0  0  0  0  0  0  0  0  0  0  0  0
    0.0049    0.5732   -2.4483 H   0  0  0  0  0  0  0  0  0  0  0  0
   -1.7578    0.6589   -2.4477 H   0  0  0  0  0  0  0  0  0  0  0  0
   -0.9449   -0.9156   -2.4379 H   0  0  0  0  0  0  0  0  0  0  0  0
    0.1101   -0.5716   -0.0648 H   0  0  0  0  0  0  0  0  0  0  0  0
   -1.8094   -0.3593   -0.1538 H   0  0  0  0  0  0  0  0  0  0  0  0
    0.2730    2.1668   -0.2975 H   0  0  0  0  0  0  0  0  0  0  0  0
    1.2273   -2.5317    0.0987 C   0  0  0  0  0  0  0  0  0  0  0  0
    1.1194   -1.2492    0.4081 C   0  0  0  0  0  0  0  0  0  0  0  0
    1.5679   -0.6336    1.6943 C   0  0  0  0  0  0  0  0  0  0  0  0
    0.8819   -2.9159   -0.8529 H   0  0  0  0  0  0  0  0  0  0  0  0
    1.6663   -3.2453    0.7880 H   0  0  0  0  0  0  0  0  0  0  0  0
    0.7306   -0.1563    2.2098 H   0  0  0  0  0  0  0  0  0  0  0  0
    2.0032   -1.3780    2.3621 H   0  0  0  0  0  0  0  0  0  0  0  0
    2.3136    0.1449    1.5136 H   0  0  0  0  0  0  0  0  0  0  0  0
  1  2  1  0
  1  4  1  0
  1  5  1  0
  1  6  1  0
  2  3  1  0
  2  8  1  0
  3  9  1  0
  7 11  1  0
 10 11  2  3
 10 13  1  0
 10 14  1  0
 11 12  1  0
 12 15  1  0
 12 16  1  0
 12 17  1  0
M  RAD  1   2   2
M  END
>  <reaction>  (8) 
rxn_1882

>  <mol_properties>  (8) 
{"1": {"label": "*1", "atom_type": "Cs"}, "2": {"label": "*0", "atom_type": "S2s"}, "6": {"label": "*2", "atom_type": "H0"}, "9": {"label": "*4", "atom_type": "Cd"}, "10": {"label": "*3", "atom_type": "Cd"}}

>  <type>  (8) 
unop_4

>  <geom_source>  (8) 
Heuristics

$$$$

     RDKit          3D

 17 15  0  0  0  0  0  0  0  0999 V2000
   -0.9781    0.1252   -1.9386 C   0  0  0  0  0  0  0  0  0  0  0  0
   -0.9781    0.1252   -0.4200 C   0  0  0  0  0  3  0  0  0  0  0  0
   -0.9781    1.7825    0.3250 S   0  0  0  0  0  0  0  0  0  0  0  0
   -0.0715    0.5906   -2.3294 H   0  0  0  0  0  0  0  0  0  0  0  0
   -1.8341    0.6764   -2.3287 H   0  0  0  0  0  0  0  0  0  0  0  0
   -1.0212   -0.8982   -2.3189 H   0  0  0  0  0  0  0  0  0  0  0  0
    0.0338   -0.5542    0.0542 H   0  0  0  0  0  0  0  0  0  0  0  0
   -1.8857   -0.3419   -0.0348 H   0  0  0  0  0  0  0  0  0  0  0  0
    0.1967    2.1842   -0.1785 H   0  0  0  0  0  0  0  0  0  0  0  0
    1.1872   -1.3285    1.8394 C   0  0  0  0  0  0  0  0  0  0  0  0
    1.0431   -1.2317    0.5271 C   0  0  0  0  0  0  0  0  0  0  0  0
    1.9554   -1.8442   -0.4863 C   0  0  0  0  0  0  0  0  0  0  0  0
    0.4894   -0.8600    2.5220 H   0  0  0  0  0  0  0  0  0  0  0  0
    2.0107   -1.8813    2.2791 H   0  0  0  0  0  0  0  0  0  0  0  0
    2.3878   -1.0773   -1.1341 H   0  0  0  0  0  0  0  0  0  0  0  0
    2.7701   -2.3912   -0.0102 H   0  0  0  0  0  0  0  0  0  0  0  0
    1.4093   -2.5348   -1.1341 H   0  0  0  0  0  0  0  0  0  0  0  0
  1  2  1  0
  1  4  1  0
  1  5  1  0
  1  6  1  0
  2  3  1  0
  2  8  1  0
  3  9  1  0
  7 11  1  0
 10 11  2  3
 10 13  1  0
 10 14  1  0
 11 12  1  0
 12 15  1  0
 12 16  1  0
 12 17  1  0
M  RAD  1   2   2
M  END
>  <reaction>  (9) 
rxn_1882

>  <mol_properties>  (9) 
{"1": {"label": "*1", "atom_type": "Cs"}, "2": {"label": "*0", "atom_type": "S2s"}, "6": {"label": "*2", "atom_type": "H0"}, "9": {"label": "*4", "atom_type": "Cd"}, "10": {"label": "*3", "atom_type": "Cd"}}

>  <type>  (9) 
unop_5

>  <geom_source>  (9) 
Heuristics

$$$$

     RDKit          3D

 17 15  0  0  0  0  0  0  0  0999 V2000
   -0.9070    0.0577   -2.0750 C   0  0  0  0  0  0  0  0  0  0  0  0
   -0.9070    0.0577   -0.5564 C   0  0  0  0  0  3  0  0  0  0  0  0
   -0.9070    1.7150    0.1886 S   0  0  0  0  0  0  0  0  0  0  0  0
   -0.0004    0.5231   -2.4658 H   0  0  0  0  0  0  0  0  0  0  0  0
   -1.7630    0.6089   -2.4651 H   0  0  0  0  0  0  0  0  0  0  0  0
   -0.9501   -0.9657   -2.4553 H   0  0  0  0  0  0  0  0  0  0  0  0
    0.1049   -0.6217   -0.0822 H   0  0  0  0  0  0  0  0  0  0  0  0
   -1.8146   -0.4094   -0.1712 H   0  0  0  0  0  0  0  0  0  0  0  0
    0.2678    2.1167   -0.3149 H   0  0  0  0  0  0  0  0  0  0  0  0
    0.9609   -2.5936    0.6218 C   0  0  0  0  0  0  0  0  0  0  0  0
    1.1142   -1.2992    0.3907 C   0  0  0  0  0  0  0  0  0  0  0  0
    1.8424   -0.3462    1.2826 C   0  0  0  0  0  0  0  0  0  0  0  0
    0.4207   -3.2318   -0.0661 H   0  0  0  0  0  0  0  0  0  0  0  0
    1.3713   -3.0625    1.5100 H   0  0  0  0  0  0  0  0  0  0  0  0
    1.1807    0.4577    1.6156 H   0  0  0  0  0  0  0  0  0  0  0  0
    2.2410   -0.8502    2.1639 H   0  0  0  0  0  0  0  0  0  0  0  0
    2.6724    0.1266    0.7515 H   0  0  0  0  0  0  0  0  0  0  0  0
  1  2  1  0
  1  4  1  0
  1  5  1  0
  1  6  1  0
  2  3  1  0
  2  8  1  0
  3  9  1  0
  7 11  1  0
 10 11  2  3
 10 13  1  0
 10 14  1  0
 11 12  1  0
 12 15  1  0
 12 16  1  0
 12 17  1  0
M  RAD  1   2   2
M  END
>  <reaction>  (10) 
rxn_1882

>  <mol_properties>  (10) 
{"1": {"label": "*1", "atom_type": "Cs"}, "2": {"label": "*0", "atom_type": "S2s"}, "6": {"label": "*2", "atom_type": "H0"}, "9": {"label": "*4", "atom_type": "Cd"}, "10": {"label": "*3", "atom_type": "Cd"}}

>  <type>  (10) 
unop_6

>  <geom_source>  (10) 
Heuristics

$$$$

     RDKit          3D

 17 15  0  0  0  0  0  0  0  0999 V2000
   -0.9420    0.0086   -2.0566 C   0  0  0  0  0  0  0  0  0  0  0  0
   -0.9420    0.0086   -0.5379 C   0  0  0  0  0  3  0  0  0  0  0  0
   -0.9420    1.6660    0.2071 S   0  0  0  0  0  0  0  0  0  0  0  0
   -0.0354    0.4740   -2.4473 H   0  0  0  0  0  0  0  0  0  0  0  0
   -1.7980    0.5598   -2.4467 H   0  0  0  0  0  0  0  0  0  0  0  0
   -0.9851   -1.0148   -2.4369 H   0  0  0  0  0  0  0  0  0  0  0  0
    0.0699   -0.6707   -0.0638 H   0  0  0  0  0  0  0  0  0  0  0  0
   -1.8496   -0.4585   -0.1528 H   0  0  0  0  0  0  0  0  0  0  0  0
    0.2328    2.0676   -0.2965 H   0  0  0  0  0  0  0  0  0  0  0  0
    0.8379   -2.3964    1.1809 C   0  0  0  0  0  0  0  0  0  0  0  0
    1.0792   -1.3483    0.4091 C   0  0  0  0  0  0  0  0  0  0  0  0
    2.1182   -0.3066    0.6728 C   0  0  0  0  0  0  0  0  0  0  0  0
    0.0687   -3.1171    0.9333 H   0  0  0  0  0  0  0  0  0  0  0  0
    1.4028   -2.5716    2.0904 H   0  0  0  0  0  0  0  0  0  0  0  0
    1.6631    0.6836    0.7582 H   0  0  0  0  0  0  0  0  0  0  0  0
    2.6658   -0.5136    1.5930 H   0  0  0  0  0  0  0  0  0  0  0  0
    2.8353   -0.2554   -0.1505 H   0  0  0  0  0  0  0  0  0  0  0  0
  1  2  1  0
  1  4  1  0
  1  5  1  0
  1  6  1  0
  2  3  1  0
  2  8  1  0
  3  9  1  0
  7 11  1  0
 10 11  2  3
 10 13  1  0
 10 14  1  0
 11 12  1  0
 12 15  1  0
 12 16  1  0
 12 17  1  0
M  RAD  1   2   2
M  END
>  <reaction>  (11) 
rxn_1882

>  <mol_properties>  (11) 
{"1": {"label": "*1", "atom_type": "Cs"}, "2": {"label": "*0", "atom_type": "S2s"}, "6": {"label": "*2", "atom_type": "H0"}, "9": {"label": "*4", "atom_type": "Cd"}, "10": {"label": "*3", "atom_type": "Cd"}}

>  <type>  (11) 
unop_7

>  <geom_source>  (11) 
Heuristics

$$$$

     RDKit          3D

 17 15  0  0  0  0  0  0  0  0999 V2000
   -0.8887    0.0849   -2.0750 C   0  0  0  0  0  0  0  0  0  0  0  0
   -0.8887    0.0849   -0.5564 C   0  0  0  0  0  3  0  0  0  0  0  0
   -0.8887    1.7423    0.1886 S   0  0  0  0  0  0  0  0  0  0  0  0
    0.0179    0.5504   -2.4658 H   0  0  0  0  0  0  0  0  0  0  0  0
   -1.7447    0.6362   -2.4651 H   0  0  0  0  0  0  0  0  0  0  0  0
   -0.9318   -0.9384   -2.4553 H   0  0  0  0  0  0  0  0  0  0  0  0
    0.1232   -0.5944   -0.0822 H   0  0  0  0  0  0  0  0  0  0  0  0
   -1.7963   -0.3821   -0.1712 H   0  0  0  0  0  0  0  0  0  0  0  0
    0.2861    2.1440   -0.3149 H   0  0  0  0  0  0  0  0  0  0  0  0
    2.2724   -0.6400    0.6218 C   0  0  0  0  0  0  0  0  0  0  0  0
    1.1325   -1.2720    0.3907 C   0  0  0  0  0  0  0  0  0  0  0  0
    0.5261   -2.3068    1.2826 C   0  0  0  0  0  0  0  0  0  0  0  0
    2.6586    0.1016   -0.0661 H   0  0  0  0  0  0  0  0  0  0  0  0
    2.8618   -0.8423    1.5100 H   0  0  0  0  0  0  0  0  0  0  0  0
    0.4028   -3.2541    0.7515 H   0  0  0  0  0  0  0  0  0  0  0  0
    1.1436   -2.4849    2.1639 H   0  0  0  0  0  0  0  0  0  0  0  0
   -0.4684   -1.9988    1.6156 H   0  0  0  0  0  0  0  0  0  0  0  0
  1  2  1  0
  1  4  1  0
  1  5  1  0
  1  6  1  0
  2  3  1  0
  2  8  1  0
  3  9  1  0
  7 11  1  0
 10 11  2  3
 10 13  1  0
 10 14  1  0
 11 12  1  0
 12 15  1  0
 12 16  1  0
 12 17  1  0
M  RAD  1   2   2
M  END
>  <reaction>  (12) 
rxn_1882

>  <mol_properties>  (12) 
{"1": {"label": "*1", "atom_type": "Cs"}, "2": {"label": "*0", "atom_type": "S2s"}, "6": {"label": "*2", "atom_type": "H0"}, "9": {"label": "*4", "atom_type": "Cd"}, "10": {"label": "*3", "atom_type": "Cd"}}

>  <type>  (12) 
unop_8

>  <geom_source>  (12) 
Heuristics

$$$$

     RDKit          3D

 17 15  0  0  0  0  0  0  0  0999 V2000
   -0.9248    0.1283   -2.0264 C   0  0  0  0  0  0  0  0  0  0  0  0
   -0.9248    0.1283   -0.5077 C   0  0  0  0  0  3  0  0  0  0  0  0
   -0.9248    1.7857    0.2373 S   0  0  0  0  0  0  0  0  0  0  0  0
   -0.0182    0.5937   -2.4171 H   0  0  0  0  0  0  0  0  0  0  0  0
   -1.7808    0.6795   -2.4165 H   0  0  0  0  0  0  0  0  0  0  0  0
   -0.9679   -0.8950   -2.4066 H   0  0  0  0  0  0  0  0  0  0  0  0
    0.0871   -0.5510   -0.0336 H   0  0  0  0  0  0  0  0  0  0  0  0
   -1.8324   -0.3387   -0.1226 H   0  0  0  0  0  0  0  0  0  0  0  0
    0.2500    2.1874   -0.2662 H   0  0  0  0  0  0  0  0  0  0  0  0
    1.5688   -2.2444   -0.2658 C   0  0  0  0  0  0  0  0  0  0  0  0
    1.0964   -1.2286    0.4393 C   0  0  0  0  0  0  0  0  0  0  0  0
    1.3525   -0.9978    1.8938 C   0  0  0  0  0  0  0  0  0  0  0  0
    1.3458   -2.3548   -1.3196 H   0  0  0  0  0  0  0  0  0  0  0  0
    2.1973   -3.0041    0.1870 H   0  0  0  0  0  0  0  0  0  0  0  0
    0.4147   -0.9749    2.4549 H   0  0  0  0  0  0  0  0  0  0  0  0
    1.9863   -1.7787    2.3158 H   0  0  0  0  0  0  0  0  0  0  0  0
    1.8412   -0.0334    2.0544 H   0  0  0  0  0  0  0  0  0  0  0  0
  1  2  1  0
  1  4  1  0
  1  5  1  0
  1  6  1  0
  2  3  1  0
  2  8  1  0
  3  9  1  0
  7 11  1  0
 10 11  2  3
 10 13  1  0
 10 14  1  0
 11 12  1  0
 12 15  1  0
 12 16  1  0
 12 17  1  0
M  RAD  1   2   2
M  END
>  <reaction>  (13) 
rxn_1882

>  <mol_properties>  (13) 
{"1": {"label": "*1", "atom_type": "Cs"}, "2": {"label": "*0", "atom_type": "S2s"}, "6": {"label": "*2", "atom_type": "H0"}, "9": {"label": "*4", "atom_type": "Cd"}, "10": {"label": "*3", "atom_type": "Cd"}}

>  <type>  (13) 
unop_9

>  <geom_source>  (13) 
Heuristics

$$$$

     RDKit          3D

 17 15  0  0  0  0  0  0  0  0999 V2000
   -0.9331    0.0611   -2.0576 C   0  0  0  0  0  0  0  0  0  0  0  0
   -0.9331    0.0611   -0.5389 C   0  0  0  0  0  3  0  0  0  0  0  0
   -0.9331    1.7185    0.2061 S   0  0  0  0  0  0  0  0  0  0  0  0
   -0.0264    0.5266   -2.4483 H   0  0  0  0  0  0  0  0  0  0  0  0
   -1.7890    0.6123   -2.4477 H   0  0  0  0  0  0  0  0  0  0  0  0
   -0.9761   -0.9622   -2.4379 H   0  0  0  0  0  0  0  0  0  0  0  0
    0.0788   -0.6182   -0.0648 H   0  0  0  0  0  0  0  0  0  0  0  0
   -1.8407   -0.4059   -0.1538 H   0  0  0  0  0  0  0  0  0  0  0  0
    0.2417    2.1202   -0.2975 H   0  0  0  0  0  0  0  0  0  0  0  0
    2.3161   -0.9100    0.0987 C   0  0  0  0  0  0  0  0  0  0  0  0
    1.0881   -1.2958    0.4081 C   0  0  0  0  0  0  0  0  0  0  0  0
    0.6882   -1.9440    1.6943 C   0  0  0  0  0  0  0  0  0  0  0  0
    2.5408   -0.4449   -0.8529 H   0  0  0  0  0  0  0  0  0  0  0  0
    3.1427   -1.0461    0.7880 H   0  0  0  0  0  0  0  0  0  0  0  0
    0.2501   -2.9289    1.5136 H   0  0  0  0  0  0  0  0  0  0  0  0
    1.5420   -2.0650    2.3621 H   0  0  0  0  0  0  0  0  0  0  0  0
   -0.0706   -1.3497    2.2098 H   0  0  0  0  0  0  0  0  0  0  0  0
  1  2  1  0
  1  4  1  0
  1  5  1  0
  1  6  1  0
  2  3  1  0
  2  8  1  0
  3  9  1  0
  7 11  1  0
 10 11  2  3
 10 13  1  0
 10 14  1  0
 11 12  1  0
 12 15  1  0
 12 16  1  0
 12 17  1  0
M  RAD  1   2   2
M  END
>  <reaction>  (14) 
rxn_1882

>  <mol_properties>  (14) 
{"1": {"label": "*1", "atom_type": "Cs"}, "2": {"label": "*0", "atom_type": "S2s"}, "6": {"label": "*2", "atom_type": "H0"}, "9": {"label": "*4", "atom_type": "Cd"}, "10": {"label": "*3", "atom_type": "Cd"}}

>  <type>  (14) 
unop_10

>  <geom_source>  (14) 
Heuristics

$$$$

     RDKit          3D

 17 15  0  0  0  0  0  0  0  0999 V2000
   -0.9917    0.0097   -1.9954 C   0  0  0  0  0  0  0  0  0  0  0  0
   -0.9917    0.0097   -0.4767 C   0  0  0  0  0  3  0  0  0  0  0  0
   -0.9917    1.6670    0.2683 S   0  0  0  0  0  0  0  0  0  0  0  0
   -0.0850    0.4751   -2.3861 H   0  0  0  0  0  0  0  0  0  0  0  0
   -1.8476    0.5609   -2.3855 H   0  0  0  0  0  0  0  0  0  0  0  0
   -1.0347   -1.0137   -2.3757 H   0  0  0  0  0  0  0  0  0  0  0  0
    0.0202   -0.6697   -0.0026 H   0  0  0  0  0  0  0  0  0  0  0  0
   -1.8993   -0.4574   -0.0916 H   0  0  0  0  0  0  0  0  0  0  0  0
    0.1831    2.0687   -0.2352 H   0  0  0  0  0  0  0  0  0  0  0  0
    0.8971   -1.9570    1.6378 C   0  0  0  0  0  0  0  0  0  0  0  0
    1.0295   -1.3473    0.4703 C   0  0  0  0  0  0  0  0  0  0  0  0
    2.2900   -0.7243   -0.0370 C   0  0  0  0  0  0  0  0  0  0  0  0
   -0.0462   -2.3890    1.9475 H   0  0  0  0  0  0  0  0  0  0  0  0
    1.7299   -2.0461    2.3275 H   0  0  0  0  0  0  0  0  0  0  0  0
    2.1448    0.3407   -0.2356 H   0  0  0  0  0  0  0  0  0  0  0  0
    3.1047   -0.8321    0.6801 H   0  0  0  0  0  0  0  0  0  0  0  0
    2.5983   -1.1830   -0.9800 H   0  0  0  0  0  0  0  0  0  0  0  0
  1  2  1  0
  1  4  1  0
  1  5  1  0
  1  6  1  0
  2  3  1  0
  2  8  1  0
  3  9  1  0
  7 11  1  0
 10 11  2  3
 10 13  1  0
 10 14  1  0
 11 12  1  0
 12 15  1  0
 12 16  1  0
 12 17  1  0
M  RAD  1   2   2
M  END
>  <reaction>  (15) 
rxn_1882

>  <mol_properties>  (15) 
{"1": {"label": "*1", "atom_type": "Cs"}, "2": {"label": "*0", "atom_type": "S2s"}, "6": {"label": "*2", "atom_type": "H0"}, "9": {"label": "*4", "atom_type": "Cd"}, "10": {"label": "*3", "atom_type": "Cd"}}

>  <type>  (15) 
unop_11

>  <geom_source>  (15) 
Heuristics

$$$$

     RDKit          3D

 17 15  0  0  0  0  0  0  0  0999 V2000
   -0.9548    0.1095   -2.0109 C   0  0  0  0  0  0  0  0  0  0  0  0
   -0.9548    0.1095   -0.4922 C   0  0  0  0  0  3  0  0  0  0  0  0
   -0.9548    1.7669    0.2528 S   0  0  0  0  0  0  0  0  0  0  0  0
   -0.0482    0.5750   -2.4016 H   0  0  0  0  0  0  0  0  0  0  0  0
   -1.8108    0.6607   -2.4010 H   0  0  0  0  0  0  0  0  0  0  0  0
   -0.9979   -0.9138   -2.3911 H   0  0  0  0  0  0  0  0  0  0  0  0
    0.0571   -0.5698   -0.0181 H   0  0  0  0  0  0  0  0  0  0  0  0
   -1.8624   -0.3575   -0.1071 H   0  0  0  0  0  0  0  0  0  0  0  0
    0.2200    2.1686   -0.2507 H   0  0  0  0  0  0  0  0  0  0  0  0
    1.9089   -1.8130   -0.3952 C   0  0  0  0  0  0  0  0  0  0  0  0
    1.0664   -1.2474    0.4548 C   0  0  0  0  0  0  0  0  0  0  0  0
    1.1703   -1.3172    1.9443 C   0  0  0  0  0  0  0  0  0  0  0  0
    1.7775   -1.7248   -1.4663 H   0  0  0  0  0  0  0  0  0  0  0  0
    2.7626   -2.3862   -0.0491 H   0  0  0  0  0  0  0  0  0  0  0  0
    0.2758   -1.7738    2.3756 H   0  0  0  0  0  0  0  0  0  0  0  0
    2.0380   -1.8997    2.2566 H   0  0  0  0  0  0  0  0  0  0  0  0
    1.2542   -0.3163    2.3756 H   0  0  0  0  0  0  0  0  0  0  0  0
  1  2  1  0
  1  4  1  0
  1  5  1  0
  1  6  1  0
  2  3  1  0
  2  8  1  0
  3  9  1  0
  7 11  1  0
 10 11  2  3
 10 13  1  0
 10 14  1  0
 11 12  1  0
 12 15  1  0
 12 16  1  0
 12 17  1  0
M  RAD  1   2   2
M  END
>  <reaction>  (16) 
rxn_1882

>  <mol_properties>  (16) 
{"1": {"label": "*1", "atom_type": "Cs"}, "2": {"label": "*0", "atom_type": "S2s"}, "6": {"label": "*2", "atom_type": "H0"}, "9": {"label": "*4", "atom_type": "Cd"}, "10": {"label": "*3", "atom_type": "Cd"}}

>  <type>  (16) 
unop_12

>  <geom_source>  (16) 
Heuristics

$$$$

     RDKit          3D

 17 15  0  0  0  0  0  0  0  0999 V2000
    2.4779    1.6119   -0.5818 S   0  0  0  0  0  0  0  0  0  0  0  0
   -1.9868   -0.6619   -0.5832 C   0  0  0  0  0  0  0  0  0  0  0  0
    1.9996   -0.9336    0.3283 C   0  0  0  0  0  0  0  0  0  0  0  0
   -1.1550    0.3086    0.1950 C   0  0  0  0  0  0  0  0  0  0  0  0
    1.3591    0.1830   -0.4789 C   0  0  0  0  0  3  0  0  0  0  0  0
   -1.6111    0.8642    1.3192 C   0  0  0  0  0  0  0  0  0  0  0  0
   -2.2284   -1.5446    0.0458 H   0  0  0  0  0  0  0  0  0  0  0  0
   -1.4227   -1.0006   -1.4768 H   0  0  0  0  0  0  0  0  0  0  0  0
   -2.9279   -0.1746   -0.9150 H   0  0  0  0  0  0  0  0  0  0  0  0
    2.9408   -1.2678   -0.1576 H   0  0  0  0  0  0  0  0  0  0  0  0
    2.2191   -0.5788    1.3571 H   0  0  0  0  0  0  0  0  0  0  0  0
    1.2993   -1.7924    0.3887 H   0  0  0  0  0  0  0  0  0  0  0  0
   -0.0271    0.5998   -0.2110 H   0  0  0  0  0  0  0  0  0  0  0  0
    1.1218   -0.1774   -1.5023 H   0  0  0  0  0  0  0  0  0  0  0  0
   -0.9899    1.5652    1.8665 H   0  0  0  0  0  0  0  0  0  0  0  0
   -2.6002    0.6255    1.6990 H   0  0  0  0  0  0  0  0  0  0  0  0
    1.5315    2.3733   -1.2930 H   0  0  0  0  0  0  0  0  0  0  0  0
  1  5  1  0
  1 17  1  0
  2  4  1  0
  2  7  1  0
  2  8  1  0
  2  9  1  0
  3  5  1  0
  3 10  1  0
  3 11  1  0
  3 12  1  0
  4  6  2  3
  4 13  1  0
  5 14  1  0
  6 15  1  0
  6 16  1  0
M  RAD  1   5   2
M  END
>  <reaction>  (17) 
rxn_1882

>  <mol_properties>  (17) 
{"1": {"label": "*1", "atom_type": "Cs"}, "2": {"label": "*0", "atom_type": "S2s"}, "6": {"label": "*2", "atom_type": "H0"}, "9": {"label": "*4", "atom_type": "Cd"}, "10": {"label": "*3", "atom_type": "Cd"}}

>  <type>  (17) 
unop_13

>  <geom_source>  (17) 
AutoTST

$$$$
