
     RDKit          3D

  9  8  0  0  0  0  0  0  0  0999 V2000
   -0.8818   -0.3578    0.1297 C   0  0  0  0  0  0  0  0  0  0  0  0
    0.6153   -0.3021   -0.1188 C   0  0  0  0  0  0  0  0  0  0  0  0
    1.5354   -1.7170    0.5545 S   0  0  0  0  0  0  0  0  0  0  0  0
   -1.1018   -0.3317    1.1984 H   0  0  0  0  0  0  0  0  0  0  0  0
   -1.3114   -1.2723   -0.2799 H   0  0  0  0  0  0  0  0  0  0  0  0
   -1.3767    0.4976   -0.3363 H   0  0  0  0  0  0  0  0  0  0  0  0
    1.0467    0.6194    0.2718 H   0  0  0  0  0  0  0  0  0  0  0  0
    0.8295   -0.3275   -1.1882 H   0  0  0  0  0  0  0  0  0  0  0  0
    1.2306   -1.5077    1.8423 H   0  0  0  0  0  0  0  0  0  0  0  0
  1  2  1  0
  1  4  1  0
  1  5  1  0
  1  6  1  0
  2  3  1  0
  2  7  1  0
  2  8  1  0
  3  9  1  0
M  END
>  <reaction>  (1) 
rxn_1864

>  <mol_properties>  (1) 
{"1": {"label": "donator", "atom_type": "Cs"}, "6": {"label": "d_hydrogen", "atom_type": "H0"}}

>  <type>  (1) 
r1h

$$$$

     RDKit          3D

  4  3  0  0  0  0  0  0  0  0999 V2000
    0.0000    0.0000    0.0000 C   0  0  0  0  0  3  0  0  0  0  0  0
    1.0638   -0.1747    0.0540 H   0  0  0  0  0  0  0  0  0  0  0  0
   -0.6833   -0.8351   -0.0280 H   0  0  0  0  0  0  0  0  0  0  0  0
   -0.3805    1.0098   -0.0260 H   0  0  0  0  0  0  0  0  0  0  0  0
  1  2  1  0
  1  3  1  0
  1  4  1  0
M  RAD  1   1   2
M  END
>  <reaction>  (2) 
rxn_1864

>  <mol_properties>  (2) 
{"0": {"label": "acceptor", "atom_type": "Cs"}}

>  <type>  (2) 
r2

$$$$

     RDKit          3D

  5  4  0  0  0  0  0  0  0  0999 V2000
    0.0000    0.0000    0.0000 C   0  0  0  0  0  0  0  0  0  0  0  0
   -0.6486   -0.7720   -0.4113 H   0  0  0  0  0  0  0  0  0  0  0  0
   -0.3482    0.9787   -0.3267 H   0  0  0  0  0  0  0  0  0  0  0  0
   -0.0223   -0.0487    1.0876 H   0  0  0  0  0  0  0  0  0  0  0  0
    1.0191   -0.1580   -0.3496 H   0  0  0  0  0  0  0  0  0  0  0  0
  1  2  1  0
  1  3  1  0
  1  4  1  0
  1  5  1  0
M  END
>  <reaction>  (3) 
rxn_1864

>  <mol_properties>  (3) 
{"0": {"label": "a_hydrogen", "atom_type": "H0"}, "1": {"label": "acceptor", "atom_type": "Cs"}}

>  <type>  (3) 
r2h

$$$$

     RDKit          3D

 13 11  0  0  0  0  0  0  0  0999 V2000
   -0.0688   -0.1544   -1.6934 C   0  0  0  0  0  0  0  0  0  0  0  0
   -0.5456   -0.5722   -0.3243 C   0  0  0  0  0  0  0  0  0  0  0  0
   -1.0910    0.7266    0.7716 S   0  0  0  0  0  0  0  0  0  0  0  0
    0.7787    0.5304   -1.6173 H   0  0  0  0  0  0  0  0  0  0  0  0
   -0.8583    0.3498   -2.2550 H   0  0  0  0  0  0  0  0  0  0  0  0
    0.2560   -1.0282   -2.2625 H   0  0  0  0  0  0  0  0  0  0  0  0
    0.4275   -1.1875    0.2322 H   0  0  0  0  0  0  0  0  0  0  0  0
   -1.3398   -1.3181   -0.3518 H   0  0  0  0  0  0  0  0  0  0  0  0
    0.0128    1.4829    0.6854 H   0  0  0  0  0  0  0  0  0  0  0  0
    1.5491   -1.8446    0.7926 C   0  0  0  0  0  3  0  0  0  0  0  0
    1.6096   -2.7982    0.2775 H   0  0  0  0  0  0  0  0  0  0  0  0
    1.2845   -1.9165    1.8426 H   0  0  0  0  0  0  0  0  0  0  0  0
    2.3788   -1.1750    0.5866 H   0  0  0  0  0  0  0  0  0  0  0  0
  1  2  1  0
  1  4  1  0
  1  5  1  0
  1  6  1  0
  2  3  1  0
  2  7  1  0
  2  8  1  0
  3  9  1  0
 10 11  1  0
 10 12  1  0
 10 13  1  0
M  RAD  1  10   2
M  END
>  <reaction>  (4) 
rxn_1864

>  <mol_properties>  (4) 
{"1": {"label": "*1", "atom_type": "Cs"}, "2": {"label": "*0", "atom_type": "S2s"}, "6": {"label": "*2", "atom_type": "H0"}, "9": {"label": "*3", "atom_type": "Cs"}, "10": {"label": "*4", "atom_type": "H0"}}

>  <type>  (4) 
ts

$$$$

     RDKit          3D

 13 11  0  0  0  0  0  0  0  0999 V2000
   -0.4170   -0.4288   -1.7290 C   0  0  0  0  0  0  0  0  0  0  0  0
   -0.4170   -0.4288   -0.2104 C   0  0  0  0  0  3  0  0  0  0  0  0
   -0.4170    1.2286    0.5346 S   0  0  0  0  0  0  0  0  0  0  0  0
    0.4896    0.0367   -2.1198 H   0  0  0  0  0  0  0  0  0  0  0  0
   -1.2730    0.1224   -2.1191 H   0  0  0  0  0  0  0  0  0  0  0  0
   -0.4601   -1.4521   -2.1093 H   0  0  0  0  0  0  0  0  0  0  0  0
    0.5949   -1.1081    0.2637 H   0  0  0  0  0  0  0  0  0  0  0  0
   -1.3246   -0.8958    0.1748 H   0  0  0  0  0  0  0  0  0  0  0  0
    0.7578    1.6303    0.0311 H   0  0  0  0  0  0  0  0  0  0  0  0
    1.6060   -1.7869    0.7375 C   0  0  0  0  0  0  0  0  0  0  0  0
    2.2279   -1.1335    1.3475 H   0  0  0  0  0  0  0  0  0  0  0  0
    2.1896   -2.6487    0.4176 H   0  0  0  0  0  0  0  0  0  0  0  0
    0.8365   -2.0401    1.4652 H   0  0  0  0  0  0  0  0  0  0  0  0
  1  2  1  0
  1  4  1  0
  1  5  1  0
  1  6  1  0
  2  3  1  0
  2  8  1  0
  3  9  1  0
  7 10  1  0
 10 11  1  0
 10 12  1  0
 10 13  1  0
M  RAD  1   2   2
M  END
>  <reaction>  (5) 
rxn_1864

>  <mol_properties>  (5) 
{"1": {"label": "*1", "atom_type": "Cs"}, "2": {"label": "*0", "atom_type": "S2s"}, "6": {"label": "*2", "atom_type": "H0"}, "9": {"label": "*3", "atom_type": "Cs"}, "10": {"label": "*4", "atom_type": "H0"}}

>  <type>  (5) 
unop_1

>  <geom_source>  (5) 
Heuristics

$$$$

     RDKit          3D

 13 11  0  0  0  0  0  0  0  0999 V2000
   -0.4160   -0.4301   -1.7224 C   0  0  0  0  0  0  0  0  0  0  0  0
   -0.4160   -0.4301   -0.2037 C   0  0  0  0  0  3  0  0  0  0  0  0
   -0.4160    1.2273    0.5413 S   0  0  0  0  0  0  0  0  0  0  0  0
    0.4906    0.0353   -2.1131 H   0  0  0  0  0  0  0  0  0  0  0  0
   -1.2720    0.1211   -2.1125 H   0  0  0  0  0  0  0  0  0  0  0  0
   -0.4591   -1.4534   -2.1027 H   0  0  0  0  0  0  0  0  0  0  0  0
    0.5959   -1.1094    0.2704 H   0  0  0  0  0  0  0  0  0  0  0  0
   -1.3237   -0.8971    0.1814 H   0  0  0  0  0  0  0  0  0  0  0  0
    0.7588    1.6290    0.0377 H   0  0  0  0  0  0  0  0  0  0  0  0
    1.6070   -1.7882    0.7442 C   0  0  0  0  0  0  0  0  0  0  0  0
    2.4416   -1.7302    0.0472 H   0  0  0  0  0  0  0  0  0  0  0  0
    1.5222   -2.8048    1.1252 H   0  0  0  0  0  0  0  0  0  0  0  0
    1.2184   -1.1911    1.5678 H   0  0  0  0  0  0  0  0  0  0  0  0
  1  2  1  0
  1  4  1  0
  1  5  1  0
  1  6  1  0
  2  3  1  0
  2  8  1  0
  3  9  1  0
  7 10  1  0
 10 11  1  0
 10 12  1  0
 10 13  1  0
M  RAD  1   2   2
M  END
>  <reaction>  (6) 
rxn_1864

>  <mol_properties>  (6) 
{"1": {"label": "*1", "atom_type": "Cs"}, "2": {"label": "*0", "atom_type": "S2s"}, "6": {"label": "*2", "atom_type": "H0"}, "9": {"label": "*3", "atom_type": "Cs"}, "10": {"label": "*4", "atom_type": "H0"}}

>  <type>  (6) 
unop_2

>  <geom_source>  (6) 
Heuristics

$$$$

     RDKit          3D

 13 11  0  0  0  0  0  0  0  0999 V2000
   -0.4182   -0.4257   -1.7283 C   0  0  0  0  0  0  0  0  0  0  0  0
   -0.4182   -0.4257   -0.2096 C   0  0  0  0  0  3  0  0  0  0  0  0
   -0.4182    1.2317    0.5354 S   0  0  0  0  0  0  0  0  0  0  0  0
    0.4884    0.0397   -2.1190 H   0  0  0  0  0  0  0  0  0  0  0  0
   -1.2742    0.1255   -2.1184 H   0  0  0  0  0  0  0  0  0  0  0  0
   -0.4613   -1.4490   -2.1085 H   0  0  0  0  0  0  0  0  0  0  0  0
    0.5937   -1.1050    0.2645 H   0  0  0  0  0  0  0  0  0  0  0  0
   -1.3259   -0.8927    0.1755 H   0  0  0  0  0  0  0  0  0  0  0  0
    0.7566    1.6334    0.0319 H   0  0  0  0  0  0  0  0  0  0  0  0
    1.6048   -1.7838    0.7383 C   0  0  0  0  0  0  0  0  0  0  0  0
    1.9041   -1.3665    1.6985 H   0  0  0  0  0  0  0  0  0  0  0  0
    2.4796   -2.1832    0.2275 H   0  0  0  0  0  0  0  0  0  0  0  0
    0.9601   -2.4995    1.2461 H   0  0  0  0  0  0  0  0  0  0  0  0
  1  2  1  0
  1  4  1  0
  1  5  1  0
  1  6  1  0
  2  3  1  0
  2  8  1  0
  3  9  1  0
  7 10  1  0
 10 11  1  0
 10 12  1  0
 10 13  1  0
M  RAD  1   2   2
M  END
>  <reaction>  (7) 
rxn_1864

>  <mol_properties>  (7) 
{"1": {"label": "*1", "atom_type": "Cs"}, "2": {"label": "*0", "atom_type": "S2s"}, "6": {"label": "*2", "atom_type": "H0"}, "9": {"label": "*3", "atom_type": "Cs"}, "10": {"label": "*4", "atom_type": "H0"}}

>  <type>  (7) 
unop_3

>  <geom_source>  (7) 
Heuristics

$$$$

     RDKit          3D

 13 11  0  0  0  0  0  0  0  0999 V2000
   -0.4151   -0.4302   -1.7254 C   0  0  0  0  0  0  0  0  0  0  0  0
   -0.4151   -0.4302   -0.2068 C   0  0  0  0  0  3  0  0  0  0  0  0
   -0.4151    1.2271    0.5382 S   0  0  0  0  0  0  0  0  0  0  0  0
    0.4915    0.0352   -2.1162 H   0  0  0  0  0  0  0  0  0  0  0  0
   -1.2711    0.1210   -2.1155 H   0  0  0  0  0  0  0  0  0  0  0  0
   -0.4582   -1.4536   -2.1057 H   0  0  0  0  0  0  0  0  0  0  0  0
    0.5968   -1.1095    0.2674 H   0  0  0  0  0  0  0  0  0  0  0  0
   -1.3227   -0.8973    0.1784 H   0  0  0  0  0  0  0  0  0  0  0  0
    0.7597    1.6288    0.0347 H   0  0  0  0  0  0  0  0  0  0  0  0
    1.6079   -1.7883    0.7411 C   0  0  0  0  0  0  0  0  0  0  0  0
    1.5477   -2.8188    0.3943 H   0  0  0  0  0  0  0  0  0  0  0  0
    1.0479   -1.6844    1.6692 H   0  0  0  0  0  0  0  0  0  0  0  0
    2.5185   -1.2131    0.9011 H   0  0  0  0  0  0  0  0  0  0  0  0
  1  2  1  0
  1  4  1  0
  1  5  1  0
  1  6  1  0
  2  3  1  0
  2  8  1  0
  3  9  1  0
  7 10  1  0
 10 11  1  0
 10 12  1  0
 10 13  1  0
M  RAD  1   2   2
M  END
>  <reaction>  (8) 
rxn_1864

>  <mol_properties>  (8) 
{"1": {"label": "*1", "atom_type": "Cs"}, "2": {"label": "*0", "atom_type": "S2s"}, "6": {"label": "*2", "atom_type": "H0"}, "9": {"label": "*3", "atom_type": "Cs"}, "10": {"label": "*4", "atom_type": "H0"}}

>  <type>  (8) 
unop_4

>  <geom_source>  (8) 
Heuristics

$$$$

     RDKit          3D

 13 11  0  0  0  0  0  0  0  0999 V2000
   -0.4224   -0.4267   -1.7266 C   0  0  0  0  0  0  0  0  0  0  0  0
   -0.4224   -0.4267   -0.2079 C   0  0  0  0  0  3  0  0  0  0  0  0
   -0.4224    1.2307    0.5371 S   0  0  0  0  0  0  0  0  0  0  0  0
    0.4843    0.0387   -2.1173 H   0  0  0  0  0  0  0  0  0  0  0  0
   -1.2783    0.1245   -2.1167 H   0  0  0  0  0  0  0  0  0  0  0  0
   -0.4654   -1.4501   -2.1069 H   0  0  0  0  0  0  0  0  0  0  0  0
    0.5895   -1.1060    0.2662 H   0  0  0  0  0  0  0  0  0  0  0  0
   -1.3300   -0.8938    0.1772 H   0  0  0  0  0  0  0  0  0  0  0  0
    0.7524    1.6323    0.0335 H   0  0  0  0  0  0  0  0  0  0  0  0
    1.6006   -1.7848    0.7400 C   0  0  0  0  0  0  0  0  0  0  0  0
    1.5725   -1.7659    1.8284 H   0  0  0  0  0  0  0  0  0  0  0  0
    2.5316   -1.3389    0.3932 H   0  0  0  0  0  0  0  0  0  0  0  0
    1.5425   -2.8688    0.8266 H   0  0  0  0  0  0  0  0  0  0  0  0
  1  2  1  0
  1  4  1  0
  1  5  1  0
  1  6  1  0
  2  3  1  0
  2  8  1  0
  3  9  1  0
  7 10  1  0
 10 11  1  0
 10 12  1  0
 10 13  1  0
M  RAD  1   2   2
M  END
>  <reaction>  (9) 
rxn_1864

>  <mol_properties>  (9) 
{"1": {"label": "*1", "atom_type": "Cs"}, "2": {"label": "*0", "atom_type": "S2s"}, "6": {"label": "*2", "atom_type": "H0"}, "9": {"label": "*3", "atom_type": "Cs"}, "10": {"label": "*4", "atom_type": "H0"}}

>  <type>  (9) 
unop_5

>  <geom_source>  (9) 
Heuristics

$$$$

     RDKit          3D

 13 11  0  0  0  0  0  0  0  0999 V2000
   -0.4170   -0.4305   -1.7275 C   0  0  0  0  0  0  0  0  0  0  0  0
   -0.4170   -0.4305   -0.2088 C   0  0  0  0  0  3  0  0  0  0  0  0
   -0.4170    1.2268    0.5361 S   0  0  0  0  0  0  0  0  0  0  0  0
    0.4897    0.0349   -2.1183 H   0  0  0  0  0  0  0  0  0  0  0  0
   -1.2729    0.1207   -2.1176 H   0  0  0  0  0  0  0  0  0  0  0  0
   -0.4600   -1.4539   -2.1078 H   0  0  0  0  0  0  0  0  0  0  0  0
    0.5949   -1.1098    0.2653 H   0  0  0  0  0  0  0  0  0  0  0  0
   -1.3246   -0.8976    0.1763 H   0  0  0  0  0  0  0  0  0  0  0  0
    0.7578    1.6285    0.0326 H   0  0  0  0  0  0  0  0  0  0  0  0
    1.6060   -1.7886    0.7390 C   0  0  0  0  0  0  0  0  0  0  0  0
    1.3147   -2.8296    0.8706 H   0  0  0  0  0  0  0  0  0  0  0  0
    1.2499   -1.2023    1.5847 H   0  0  0  0  0  0  0  0  0  0  0  0
    2.6848   -1.6622    0.6619 H   0  0  0  0  0  0  0  0  0  0  0  0
  1  2  1  0
  1  4  1  0
  1  5  1  0
  1  6  1  0
  2  3  1  0
  2  8  1  0
  3  9  1  0
  7 10  1  0
 10 11  1  0
 10 12  1  0
 10 13  1  0
M  RAD  1   2   2
M  END
>  <reaction>  (10) 
rxn_1864

>  <mol_properties>  (10) 
{"1": {"label": "*1", "atom_type": "Cs"}, "2": {"label": "*0", "atom_type": "S2s"}, "6": {"label": "*2", "atom_type": "H0"}, "9": {"label": "*3", "atom_type": "Cs"}, "10": {"label": "*4", "atom_type": "H0"}}

>  <type>  (10) 
unop_6

>  <geom_source>  (10) 
Heuristics

$$$$

     RDKit          3D

 13 11  0  0  0  0  0  0  0  0999 V2000
   -0.4195   -0.4313   -1.7287 C   0  0  0  0  0  0  0  0  0  0  0  0
   -0.4195   -0.4313   -0.2100 C   0  0  0  0  0  3  0  0  0  0  0  0
   -0.4195    1.2260    0.5350 S   0  0  0  0  0  0  0  0  0  0  0  0
    0.4871    0.0341   -2.1194 H   0  0  0  0  0  0  0  0  0  0  0  0
   -1.2755    0.1199   -2.1188 H   0  0  0  0  0  0  0  0  0  0  0  0
   -0.4626   -1.4547   -2.1090 H   0  0  0  0  0  0  0  0  0  0  0  0
    0.5924   -1.1107    0.2641 H   0  0  0  0  0  0  0  0  0  0  0  0
   -1.3271   -0.8984    0.1751 H   0  0  0  0  0  0  0  0  0  0  0  0
    0.7553    1.6277    0.0315 H   0  0  0  0  0  0  0  0  0  0  0  0
    1.6035   -1.7895    0.7379 C   0  0  0  0  0  0  0  0  0  0  0  0
    1.2343   -2.6125    1.3479 H   0  0  0  0  0  0  0  0  0  0  0  0
    1.5920   -0.8708    1.3224 H   0  0  0  0  0  0  0  0  0  0  0  0
    2.6100   -2.1505    0.5319 H   0  0  0  0  0  0  0  0  0  0  0  0
  1  2  1  0
  1  4  1  0
  1  5  1  0
  1  6  1  0
  2  3  1  0
  2  8  1  0
  3  9  1  0
  7 10  1  0
 10 11  1  0
 10 12  1  0
 10 13  1  0
M  RAD  1   2   2
M  END
>  <reaction>  (11) 
rxn_1864

>  <mol_properties>  (11) 
{"1": {"label": "*1", "atom_type": "Cs"}, "2": {"label": "*0", "atom_type": "S2s"}, "6": {"label": "*2", "atom_type": "H0"}, "9": {"label": "*3", "atom_type": "Cs"}, "10": {"label": "*4", "atom_type": "H0"}}

>  <type>  (11) 
unop_7

>  <geom_source>  (11) 
Heuristics

$$$$

     RDKit          3D

 13 11  0  0  0  0  0  0  0  0999 V2000
   -0.4176   -0.4310   -1.7273 C   0  0  0  0  0  0  0  0  0  0  0  0
   -0.4176   -0.4310   -0.2087 C   0  0  0  0  0  3  0  0  0  0  0  0
   -0.4176    1.2264    0.5363 S   0  0  0  0  0  0  0  0  0  0  0  0
    0.4890    0.0344   -2.1181 H   0  0  0  0  0  0  0  0  0  0  0  0
   -1.2736    0.1202   -2.1174 H   0  0  0  0  0  0  0  0  0  0  0  0
   -0.4607   -1.4544   -2.1076 H   0  0  0  0  0  0  0  0  0  0  0  0
    0.5943   -1.1103    0.2655 H   0  0  0  0  0  0  0  0  0  0  0  0
   -1.3252   -0.8980    0.1765 H   0  0  0  0  0  0  0  0  0  0  0  0
    0.7572    1.6280    0.0328 H   0  0  0  0  0  0  0  0  0  0  0  0
    1.6054   -1.7891    0.7392 C   0  0  0  0  0  0  0  0  0  0  0  0
    2.4585   -1.1253    0.8708 H   0  0  0  0  0  0  0  0  0  0  0  0
    1.9528   -2.8195    0.6812 H   0  0  0  0  0  0  0  0  0  0  0  0
    0.8861   -1.7132    1.5532 H   0  0  0  0  0  0  0  0  0  0  0  0
  1  2  1  0
  1  4  1  0
  1  5  1  0
  1  6  1  0
  2  3  1  0
  2  8  1  0
  3  9  1  0
  7 10  1  0
 10 11  1  0
 10 12  1  0
 10 13  1  0
M  RAD  1   2   2
M  END
>  <reaction>  (12) 
rxn_1864

>  <mol_properties>  (12) 
{"1": {"label": "*1", "atom_type": "Cs"}, "2": {"label": "*0", "atom_type": "S2s"}, "6": {"label": "*2", "atom_type": "H0"}, "9": {"label": "*3", "atom_type": "Cs"}, "10": {"label": "*4", "atom_type": "H0"}}

>  <type>  (12) 
unop_8

>  <geom_source>  (12) 
Heuristics

$$$$

     RDKit          3D

 13 11  0  0  0  0  0  0  0  0999 V2000
   -0.4139   -0.4301   -1.7235 C   0  0  0  0  0  0  0  0  0  0  0  0
   -0.4139   -0.4301   -0.2048 C   0  0  0  0  0  3  0  0  0  0  0  0
   -0.4139    1.2273    0.5402 S   0  0  0  0  0  0  0  0  0  0  0  0
    0.4928    0.0354   -2.1142 H   0  0  0  0  0  0  0  0  0  0  0  0
   -1.2698    0.1211   -2.1136 H   0  0  0  0  0  0  0  0  0  0  0  0
   -0.4569   -1.4534   -2.1038 H   0  0  0  0  0  0  0  0  0  0  0  0
    0.5980   -1.1094    0.2693 H   0  0  0  0  0  0  0  0  0  0  0  0
   -1.3215   -0.8971    0.1803 H   0  0  0  0  0  0  0  0  0  0  0  0
    0.7609    1.6290    0.0366 H   0  0  0  0  0  0  0  0  0  0  0  0
    1.6091   -1.7882    0.7431 C   0  0  0  0  0  0  0  0  0  0  0  0
    1.8715   -2.5826    0.0461 H   0  0  0  0  0  0  0  0  0  0  0  0
    1.0397   -2.2060    1.5719 H   0  0  0  0  0  0  0  0  0  0  0  0
    2.1113   -0.9382    1.2025 H   0  0  0  0  0  0  0  0  0  0  0  0
  1  2  1  0
  1  4  1  0
  1  5  1  0
  1  6  1  0
  2  3  1  0
  2  8  1  0
  3  9  1  0
  7 10  1  0
 10 11  1  0
 10 12  1  0
 10 13  1  0
M  RAD  1   2   2
M  END
>  <reaction>  (13) 
rxn_1864

>  <mol_properties>  (13) 
{"1": {"label": "*1", "atom_type": "Cs"}, "2": {"label": "*0", "atom_type": "S2s"}, "6": {"label": "*2", "atom_type": "H0"}, "9": {"label": "*3", "atom_type": "Cs"}, "10": {"label": "*4", "atom_type": "H0"}}

>  <type>  (13) 
unop_9

>  <geom_source>  (13) 
Heuristics

$$$$

     RDKit          3D

 13 11  0  0  0  0  0  0  0  0999 V2000
   -0.4176   -0.4311   -1.7245 C   0  0  0  0  0  0  0  0  0  0  0  0
   -0.4176   -0.4311   -0.2058 C   0  0  0  0  0  3  0  0  0  0  0  0
   -0.4176    1.2263    0.5392 S   0  0  0  0  0  0  0  0  0  0  0  0
    0.4891    0.0343   -2.1152 H   0  0  0  0  0  0  0  0  0  0  0  0
   -1.2735    0.1201   -2.1146 H   0  0  0  0  0  0  0  0  0  0  0  0
   -0.4607   -1.4545   -2.1048 H   0  0  0  0  0  0  0  0  0  0  0  0
    0.5943   -1.1104    0.2683 H   0  0  0  0  0  0  0  0  0  0  0  0
   -1.3252   -0.8982    0.1793 H   0  0  0  0  0  0  0  0  0  0  0  0
    0.7572    1.6279    0.0356 H   0  0  0  0  0  0  0  0  0  0  0  0
    1.6054   -1.7892    0.7421 C   0  0  0  0  0  0  0  0  0  0  0  0
    2.5364   -1.3433    0.3952 H   0  0  0  0  0  0  0  0  0  0  0  0
    1.7553   -2.8538    0.9153 H   0  0  0  0  0  0  0  0  0  0  0  0
    1.0033   -1.4534    1.5850 H   0  0  0  0  0  0  0  0  0  0  0  0
  1  2  1  0
  1  4  1  0
  1  5  1  0
  1  6  1  0
  2  3  1  0
  2  8  1  0
  3  9  1  0
  7 10  1  0
 10 11  1  0
 10 12  1  0
 10 13  1  0
M  RAD  1   2   2
M  END
>  <reaction>  (14) 
rxn_1864

>  <mol_properties>  (14) 
{"1": {"label": "*1", "atom_type": "Cs"}, "2": {"label": "*0", "atom_type": "S2s"}, "6": {"label": "*2", "atom_type": "H0"}, "9": {"label": "*3", "atom_type": "Cs"}, "10": {"label": "*4", "atom_type": "H0"}}

>  <type>  (14) 
unop_10

>  <geom_source>  (14) 
Heuristics

$$$$

     RDKit          3D

 13 11  0  0  0  0  0  0  0  0999 V2000
   -0.4225   -0.4308   -1.7278 C   0  0  0  0  0  0  0  0  0  0  0  0
   -0.4225   -0.4308   -0.2092 C   0  0  0  0  0  3  0  0  0  0  0  0
   -0.4225    1.2265    0.5358 S   0  0  0  0  0  0  0  0  0  0  0  0
    0.4841    0.0346   -2.1186 H   0  0  0  0  0  0  0  0  0  0  0  0
   -1.2785    0.1204   -2.1179 H   0  0  0  0  0  0  0  0  0  0  0  0
   -0.4656   -1.4542   -2.1081 H   0  0  0  0  0  0  0  0  0  0  0  0
    0.5894   -1.1102    0.2650 H   0  0  0  0  0  0  0  0  0  0  0  0
   -1.3301   -0.8979    0.1760 H   0  0  0  0  0  0  0  0  0  0  0  0
    0.7523    1.6282    0.0323 H   0  0  0  0  0  0  0  0  0  0  0  0
    1.6005   -1.7890    0.7387 C   0  0  0  0  0  0  0  0  0  0  0  0
    1.3276   -2.2240    1.6989 H   0  0  0  0  0  0  0  0  0  0  0  0
    2.0661   -0.8178    0.8994 H   0  0  0  0  0  0  0  0  0  0  0  0
    2.2653   -2.6288    0.5429 H   0  0  0  0  0  0  0  0  0  0  0  0
  1  2  1  0
  1  4  1  0
  1  5  1  0
  1  6  1  0
  2  3  1  0
  2  8  1  0
  3  9  1  0
  7 10  1  0
 10 11  1  0
 10 12  1  0
 10 13  1  0
M  RAD  1   2   2
M  END
>  <reaction>  (15) 
rxn_1864

>  <mol_properties>  (15) 
{"1": {"label": "*1", "atom_type": "Cs"}, "2": {"label": "*0", "atom_type": "S2s"}, "6": {"label": "*2", "atom_type": "H0"}, "9": {"label": "*3", "atom_type": "Cs"}, "10": {"label": "*4", "atom_type": "H0"}}

>  <type>  (15) 
unop_11

>  <geom_source>  (15) 
Heuristics

$$$$

     RDKit          3D

 13 11  0  0  0  0  0  0  0  0999 V2000
   -0.4142   -0.4297   -1.7222 C   0  0  0  0  0  0  0  0  0  0  0  0
   -0.4142   -0.4297   -0.2035 C   0  0  0  0  0  3  0  0  0  0  0  0
   -0.4142    1.2277    0.5415 S   0  0  0  0  0  0  0  0  0  0  0  0
    0.4925    0.0357   -2.1129 H   0  0  0  0  0  0  0  0  0  0  0  0
   -1.2701    0.1215   -2.1123 H   0  0  0  0  0  0  0  0  0  0  0  0
   -0.4572   -1.4530   -2.1025 H   0  0  0  0  0  0  0  0  0  0  0  0
    0.5977   -1.1090    0.2706 H   0  0  0  0  0  0  0  0  0  0  0  0
   -1.3218   -0.8967    0.1816 H   0  0  0  0  0  0  0  0  0  0  0  0
    0.7606    1.6294    0.0379 H   0  0  0  0  0  0  0  0  0  0  0  0
    1.6088   -1.7878    0.7444 C   0  0  0  0  0  0  0  0  0  0  0  0
    2.1987   -2.1838   -0.0808 H   0  0  0  0  0  0  0  0  0  0  0  0
    1.2396   -2.6108    1.3544 H   0  0  0  0  0  0  0  0  0  0  0  0
    1.6053   -0.9600    1.4518 H   0  0  0  0  0  0  0  0  0  0  0  0
  1  2  1  0
  1  4  1  0
  1  5  1  0
  1  6  1  0
  2  3  1  0
  2  8  1  0
  3  9  1  0
  7 10  1  0
 10 11  1  0
 10 12  1  0
 10 13  1  0
M  RAD  1   2   2
M  END
>  <reaction>  (16) 
rxn_1864

>  <mol_properties>  (16) 
{"1": {"label": "*1", "atom_type": "Cs"}, "2": {"label": "*0", "atom_type": "S2s"}, "6": {"label": "*2", "atom_type": "H0"}, "9": {"label": "*3", "atom_type": "Cs"}, "10": {"label": "*4", "atom_type": "H0"}}

>  <type>  (16) 
unop_12

>  <geom_source>  (16) 
Heuristics

$$$$

     RDKit          3D

 13 11  0  0  0  0  0  0  0  0999 V2000
   -1.4396   -1.8258   -0.2655 S   0  0  0  0  0  0  0  0  0  0  0  0
   -1.4328    0.8326    0.4195 C   0  0  0  0  0  0  0  0  0  0  0  0
    1.9000    0.0546    0.1635 C   0  0  0  0  0  0  0  0  0  0  0  0
   -0.6414   -0.1961   -0.3703 C   0  0  0  0  0  3  0  0  0  0  0  0
   -0.9262    1.8177    0.3523 H   0  0  0  0  0  0  0  0  0  0  0  0
   -1.4867    0.5309    1.4865 H   0  0  0  0  0  0  0  0  0  0  0  0
   -2.4603    0.9256    0.0080 H   0  0  0  0  0  0  0  0  0  0  0  0
    1.9710    1.1538    0.2963 H   0  0  0  0  0  0  0  0  0  0  0  0
    2.4297   -0.4533    0.9955 H   0  0  0  0  0  0  0  0  0  0  0  0
    2.3661   -0.2322   -0.8015 H   0  0  0  0  0  0  0  0  0  0  0  0
    0.7080   -0.2854    0.1638 H   0  0  0  0  0  0  0  0  0  0  0  0
   -0.5710    0.1152   -1.4341 H   0  0  0  0  0  0  0  0  0  0  0  0
   -0.4169   -2.4377   -1.0142 H   0  0  0  0  0  0  0  0  0  0  0  0
  1  4  1  0
  1 13  1  0
  2  4  1  0
  2  5  1  0
  2  6  1  0
  2  7  1  0
  3  8  1  0
  3  9  1  0
  3 10  1  0
  3 11  1  0
  4 12  1  0
M  RAD  1   4   2
M  END
>  <reaction>  (17) 
rxn_1864

>  <mol_properties>  (17) 
{"1": {"label": "*1", "atom_type": "Cs"}, "2": {"label": "*0", "atom_type": "S2s"}, "6": {"label": "*2", "atom_type": "H0"}, "9": {"label": "*3", "atom_type": "Cs"}, "10": {"label": "*4", "atom_type": "H0"}}

>  <type>  (17) 
unop_13

>  <geom_source>  (17) 
AutoTST

$$$$
