
     RDKit          3D

  4  3  0  0  0  0  0  0  0  0999 V2000
    0.0006   -0.0009    0.2762 N   0  0  0  0  0  0  0  0  0  0  0  0
   -0.4188    0.8439   -0.0883 H   0  0  0  0  0  0  0  0  0  0  0  0
   -0.5215   -0.7840   -0.0936 H   0  0  0  0  0  0  0  0  0  0  0  0
    0.9397   -0.0590   -0.0943 H   0  0  0  0  0  0  0  0  0  0  0  0
  1  2  1  0
  1  3  1  0
  1  4  1  0
M  END
>  <reaction>  (1) 
rxn_494

>  <mol_properties>  (1) 
{"0": {"label": "donator", "atom_type": "N3s"}, "1": {"label": "d_hydrogen", "atom_type": "H0"}}

>  <type>  (1) 
r1h

$$$$

     RDKit          3D

  4  3  0  0  0  0  0  0  0  0999 V2000
    0.0000    0.0000    0.0000 C   0  0  0  0  0  3  0  0  0  0  0  0
    1.0638   -0.1747    0.0540 H   0  0  0  0  0  0  0  0  0  0  0  0
   -0.6833   -0.8351   -0.0280 H   0  0  0  0  0  0  0  0  0  0  0  0
   -0.3805    1.0098   -0.0260 H   0  0  0  0  0  0  0  0  0  0  0  0
  1  2  1  0
  1  3  1  0
  1  4  1  0
M  RAD  1   1   2
M  END
>  <reaction>  (2) 
rxn_494

>  <mol_properties>  (2) 
{"0": {"label": "acceptor", "atom_type": "Cs"}}

>  <type>  (2) 
r2

$$$$

     RDKit          3D

  5  4  0  0  0  0  0  0  0  0999 V2000
    0.0000    0.0000    0.0000 C   0  0  0  0  0  0  0  0  0  0  0  0
   -0.6486   -0.7720   -0.4113 H   0  0  0  0  0  0  0  0  0  0  0  0
   -0.3482    0.9787   -0.3267 H   0  0  0  0  0  0  0  0  0  0  0  0
   -0.0223   -0.0487    1.0876 H   0  0  0  0  0  0  0  0  0  0  0  0
    1.0191   -0.1580   -0.3496 H   0  0  0  0  0  0  0  0  0  0  0  0
  1  2  1  0
  1  3  1  0
  1  4  1  0
  1  5  1  0
M  END
>  <reaction>  (3) 
rxn_494

>  <mol_properties>  (3) 
{"0": {"label": "acceptor", "atom_type": "Cs"}, "4": {"label": "a_hydrogen", "atom_type": "H0"}}

>  <type>  (3) 
r2h

$$$$

     RDKit          3D

  8  6  0  0  0  0  0  0  0  0999 V2000
   -0.0445    1.1833    0.4178 C   0  0  0  0  0  3  0  0  0  0  0  0
    0.6706    1.7809   -0.1411 H   0  0  0  0  0  0  0  0  0  0  0  0
    0.3098    0.9049    1.4057 H   0  0  0  0  0  0  0  0  0  0  0  0
   -1.0437    1.6102    0.4255 H   0  0  0  0  0  0  0  0  0  0  0  0
   -0.2234   -1.0717   -0.8030 N   0  0  0  0  0  0  0  0  0  0  0  0
   -0.1721    0.0959   -0.2961 H   0  0  0  0  0  0  0  0  0  0  0  0
    0.7254   -1.3982   -0.6120 H   0  0  0  0  0  0  0  0  0  0  0  0
   -0.7994   -1.5499   -0.1081 H   0  0  0  0  0  0  0  0  0  0  0  0
  1  2  1  0
  1  3  1  0
  1  4  1  0
  5  6  1  0
  5  7  1  0
  5  8  1  0
M  RAD  1   1   2
M  END
>  <reaction>  (4) 
rxn_494

>  <mol_properties>  (4) 
{"0": {"label": "*3", "atom_type": "Cs"}, "1": {"label": "*4", "atom_type": "H0"}, "4": {"label": "*1", "atom_type": "N3s"}, "5": {"label": "*2", "atom_type": "H0"}, "6": {"label": "*0", "atom_type": "H0"}}

>  <type>  (4) 
ts

$$$$

     RDKit          3D

  8  6  0  0  0  0  0  0  0  0999 V2000
    0.0230    1.2319    0.3831 C   0  0  0  0  0  3  0  0  0  0  0  0
   -0.8662    1.4235    0.9819 H   0  0  0  0  0  0  0  0  0  0  0  0
    0.4132    2.1739    0.0009 H   0  0  0  0  0  0  0  0  0  0  0  0
    0.6621    0.7827    1.1417 H   0  0  0  0  0  0  0  0  0  0  0  0
    0.0230   -1.1714   -0.3755 N   0  0  0  0  0  0  0  0  0  0  0  0
    0.0230   -0.0142   -0.0103 H   0  0  0  0  0  0  0  0  0  0  0  0
   -0.8473   -1.5867   -0.0711 H   0  0  0  0  0  0  0  0  0  0  0  0
    0.0230   -1.1714   -1.3868 H   0  0  0  0  0  0  0  0  0  0  0  0
  1  2  1  0
  1  3  1  0
  1  4  1  0
  5  6  1  0
  5  7  1  0
  5  8  1  0
M  RAD  1   1   2
M  END
>  <reaction>  (5) 
rxn_494

>  <mol_properties>  (5) 
{"0": {"label": "*3", "atom_type": "Cs"}, "1": {"label": "*4", "atom_type": "H0"}, "4": {"label": "*1", "atom_type": "N3s"}, "5": {"label": "*2", "atom_type": "H0"}, "6": {"label": "*0", "atom_type": "H0"}}

>  <type>  (5) 
unop_1

>  <geom_source>  (5) 
Heuristics

$$$$

     RDKit          3D

  8  6  0  0  0  0  0  0  0  0999 V2000
    0.0243    1.2366    0.3989 C   0  0  0  0  0  3  0  0  0  0  0  0
   -0.4891    1.8504   -0.3397 H   0  0  0  0  0  0  0  0  0  0  0  0
    0.9155    1.7566    0.7467 H   0  0  0  0  0  0  0  0  0  0  0  0
   -0.2549    0.6364    1.2635 H   0  0  0  0  0  0  0  0  0  0  0  0
    0.0243   -1.1666   -0.3598 N   0  0  0  0  0  0  0  0  0  0  0  0
    0.0243   -0.0095    0.0055 H   0  0  0  0  0  0  0  0  0  0  0  0
   -0.8460   -1.5820   -0.0554 H   0  0  0  0  0  0  0  0  0  0  0  0
    0.0243   -1.1666   -1.3710 H   0  0  0  0  0  0  0  0  0  0  0  0
  1  2  1  0
  1  3  1  0
  1  4  1  0
  5  6  1  0
  5  7  1  0
  5  8  1  0
M  RAD  1   1   2
M  END
>  <reaction>  (6) 
rxn_494

>  <mol_properties>  (6) 
{"0": {"label": "*3", "atom_type": "Cs"}, "1": {"label": "*4", "atom_type": "H0"}, "4": {"label": "*1", "atom_type": "N3s"}, "5": {"label": "*2", "atom_type": "H0"}, "6": {"label": "*0", "atom_type": "H0"}}

>  <type>  (6) 
unop_2

>  <geom_source>  (6) 
Heuristics

$$$$

     RDKit          3D

  8  6  0  0  0  0  0  0  0  0999 V2000
    0.0184    1.2255    0.3854 C   0  0  0  0  0  3  0  0  0  0  0  0
   -0.4949    1.3039    1.3426 H   0  0  0  0  0  0  0  0  0  0  0  0
   -0.1376    2.1391   -0.1861 H   0  0  0  0  0  0  0  0  0  0  0  0
    0.9720    1.1225    0.9011 H   0  0  0  0  0  0  0  0  0  0  0  0
    0.0184   -1.1778   -0.3732 N   0  0  0  0  0  0  0  0  0  0  0  0
    0.0184   -0.0207   -0.0079 H   0  0  0  0  0  0  0  0  0  0  0  0
   -0.8519   -1.5931   -0.0688 H   0  0  0  0  0  0  0  0  0  0  0  0
    0.0184   -1.1778   -1.3844 H   0  0  0  0  0  0  0  0  0  0  0  0
  1  2  1  0
  1  3  1  0
  1  4  1  0
  5  6  1  0
  5  7  1  0
  5  8  1  0
M  RAD  1   1   2
M  END
>  <reaction>  (7) 
rxn_494

>  <mol_properties>  (7) 
{"0": {"label": "*3", "atom_type": "Cs"}, "1": {"label": "*4", "atom_type": "H0"}, "4": {"label": "*1", "atom_type": "N3s"}, "5": {"label": "*2", "atom_type": "H0"}, "6": {"label": "*0", "atom_type": "H0"}}

>  <type>  (7) 
unop_3

>  <geom_source>  (7) 
Heuristics

$$$$

     RDKit          3D

  8  6  0  0  0  0  0  0  0  0999 V2000
    0.0233    1.2382    0.3914 C   0  0  0  0  0  3  0  0  0  0  0  0
    0.9124    1.7389    0.0112 H   0  0  0  0  0  0  0  0  0  0  0  0
    0.2491    0.7769    1.3516 H   0  0  0  0  0  0  0  0  0  0  0  0
   -0.9619    1.6831    0.5227 H   0  0  0  0  0  0  0  0  0  0  0  0
    0.0233   -1.1651   -0.3672 N   0  0  0  0  0  0  0  0  0  0  0  0
    0.0233   -0.0079   -0.0020 H   0  0  0  0  0  0  0  0  0  0  0  0
   -0.8470   -1.5804   -0.0628 H   0  0  0  0  0  0  0  0  0  0  0  0
    0.0233   -1.1651   -1.3785 H   0  0  0  0  0  0  0  0  0  0  0  0
  1  2  1  0
  1  3  1  0
  1  4  1  0
  5  6  1  0
  5  7  1  0
  5  8  1  0
M  RAD  1   1   2
M  END
>  <reaction>  (8) 
rxn_494

>  <mol_properties>  (8) 
{"0": {"label": "*3", "atom_type": "Cs"}, "1": {"label": "*4", "atom_type": "H0"}, "4": {"label": "*1", "atom_type": "N3s"}, "5": {"label": "*2", "atom_type": "H0"}, "6": {"label": "*0", "atom_type": "H0"}}

>  <type>  (8) 
unop_4

>  <geom_source>  (8) 
Heuristics

$$$$

     RDKit          3D

  8  6  0  0  0  0  0  0  0  0999 V2000
    0.0260    1.2189    0.3899 C   0  0  0  0  0  3  0  0  0  0  0  0
    0.0260    1.2560    1.4782 H   0  0  0  0  0  0  0  0  0  0  0  0
   -0.8631    1.7195    0.0097 H   0  0  0  0  0  0  0  0  0  0  0  0
    0.9583    1.7793    0.4401 H   0  0  0  0  0  0  0  0  0  0  0  0
    0.0260   -1.1844   -0.3687 N   0  0  0  0  0  0  0  0  0  0  0  0
    0.0260   -0.0272   -0.0034 H   0  0  0  0  0  0  0  0  0  0  0  0
   -0.8443   -1.5997   -0.0643 H   0  0  0  0  0  0  0  0  0  0  0  0
    0.0260   -1.1844   -1.3799 H   0  0  0  0  0  0  0  0  0  0  0  0
  1  2  1  0
  1  3  1  0
  1  4  1  0
  5  6  1  0
  5  7  1  0
  5  8  1  0
M  RAD  1   1   2
M  END
>  <reaction>  (9) 
rxn_494

>  <mol_properties>  (9) 
{"0": {"label": "*3", "atom_type": "Cs"}, "1": {"label": "*4", "atom_type": "H0"}, "4": {"label": "*1", "atom_type": "N3s"}, "5": {"label": "*2", "atom_type": "H0"}, "6": {"label": "*0", "atom_type": "H0"}}

>  <type>  (9) 
unop_5

>  <geom_source>  (9) 
Heuristics

$$$$

     RDKit          3D

  8  6  0  0  0  0  0  0  0  0999 V2000
    0.0264    1.2346    0.3866 C   0  0  0  0  0  3  0  0  0  0  0  0
    1.0530    1.5807    0.4959 H   0  0  0  0  0  0  0  0  0  0  0  0
   -0.2619    0.6686    1.2711 H   0  0  0  0  0  0  0  0  0  0  0  0
   -0.6799    2.0530    0.2558 H   0  0  0  0  0  0  0  0  0  0  0  0
    0.0264   -1.1687   -0.3720 N   0  0  0  0  0  0  0  0  0  0  0  0
    0.0264   -0.0115   -0.0067 H   0  0  0  0  0  0  0  0  0  0  0  0
   -0.8439   -1.5840   -0.0676 H   0  0  0  0  0  0  0  0  0  0  0  0
    0.0264   -1.1687   -1.3832 H   0  0  0  0  0  0  0  0  0  0  0  0
  1  2  1  0
  1  3  1  0
  1  4  1  0
  5  6  1  0
  5  7  1  0
  5  8  1  0
M  RAD  1   1   2
M  END
>  <reaction>  (10) 
rxn_494

>  <mol_properties>  (10) 
{"0": {"label": "*3", "atom_type": "Cs"}, "1": {"label": "*4", "atom_type": "H0"}, "4": {"label": "*1", "atom_type": "N3s"}, "5": {"label": "*2", "atom_type": "H0"}, "6": {"label": "*0", "atom_type": "H0"}}

>  <type>  (10) 
unop_6

>  <geom_source>  (10) 
Heuristics

$$$$

     RDKit          3D

  8  6  0  0  0  0  0  0  0  0999 V2000
    0.0314    1.2304    0.3841 C   0  0  0  0  0  3  0  0  0  0  0  0
    0.9205    1.4221    0.9829 H   0  0  0  0  0  0  0  0  0  0  0  0
   -0.7249    0.7480    1.0014 H   0  0  0  0  0  0  0  0  0  0  0  0
   -0.2298    2.2517    0.1110 H   0  0  0  0  0  0  0  0  0  0  0  0
    0.0314   -1.1728   -0.3745 N   0  0  0  0  0  0  0  0  0  0  0  0
    0.0314   -0.0157   -0.0092 H   0  0  0  0  0  0  0  0  0  0  0  0
   -0.8389   -1.5881   -0.0701 H   0  0  0  0  0  0  0  0  0  0  0  0
    0.0314   -1.1728   -1.3857 H   0  0  0  0  0  0  0  0  0  0  0  0
  1  2  1  0
  1  3  1  0
  1  4  1  0
  5  6  1  0
  5  7  1  0
  5  8  1  0
M  RAD  1   1   2
M  END
>  <reaction>  (11) 
rxn_494

>  <mol_properties>  (11) 
{"0": {"label": "*3", "atom_type": "Cs"}, "1": {"label": "*4", "atom_type": "H0"}, "4": {"label": "*1", "atom_type": "N3s"}, "5": {"label": "*2", "atom_type": "H0"}, "6": {"label": "*0", "atom_type": "H0"}}

>  <type>  (11) 
unop_7

>  <geom_source>  (11) 
Heuristics

$$$$

     RDKit          3D

  8  6  0  0  0  0  0  0  0  0999 V2000
    0.0282    1.2340    0.3871 C   0  0  0  0  0  3  0  0  0  0  0  0
   -0.9984    1.5801    0.4963 H   0  0  0  0  0  0  0  0  0  0  0  0
    0.6901    2.0911    0.2730 H   0  0  0  0  0  0  0  0  0  0  0  0
    0.3661    0.6489    1.2410 H   0  0  0  0  0  0  0  0  0  0  0  0
    0.0282   -1.1693   -0.3716 N   0  0  0  0  0  0  0  0  0  0  0  0
    0.0282   -0.0121   -0.0063 H   0  0  0  0  0  0  0  0  0  0  0  0
   -0.8421   -1.5846   -0.0672 H   0  0  0  0  0  0  0  0  0  0  0  0
    0.0282   -1.1693   -1.3828 H   0  0  0  0  0  0  0  0  0  0  0  0
  1  2  1  0
  1  3  1  0
  1  4  1  0
  5  6  1  0
  5  7  1  0
  5  8  1  0
M  RAD  1   1   2
M  END
>  <reaction>  (12) 
rxn_494

>  <mol_properties>  (12) 
{"0": {"label": "*3", "atom_type": "Cs"}, "1": {"label": "*4", "atom_type": "H0"}, "4": {"label": "*1", "atom_type": "N3s"}, "5": {"label": "*2", "atom_type": "H0"}, "6": {"label": "*0", "atom_type": "H0"}}

>  <type>  (12) 
unop_8

>  <geom_source>  (12) 
Heuristics

$$$$

     RDKit          3D

  8  6  0  0  0  0  0  0  0  0999 V2000
    0.0213    1.2408    0.3960 C   0  0  0  0  0  3  0  0  0  0  0  0
    0.5347    1.8546   -0.3426 H   0  0  0  0  0  0  0  0  0  0  0  0
    0.6856    1.0554    1.2387 H   0  0  0  0  0  0  0  0  0  0  0  0
   -0.9643    1.2140    0.8581 H   0  0  0  0  0  0  0  0  0  0  0  0
    0.0213   -1.1625   -0.3627 N   0  0  0  0  0  0  0  0  0  0  0  0
    0.0213   -0.0053    0.0026 H   0  0  0  0  0  0  0  0  0  0  0  0
   -0.8490   -1.5778   -0.0583 H   0  0  0  0  0  0  0  0  0  0  0  0
    0.0213   -1.1625   -1.3739 H   0  0  0  0  0  0  0  0  0  0  0  0
  1  2  1  0
  1  3  1  0
  1  4  1  0
  5  6  1  0
  5  7  1  0
  5  8  1  0
M  RAD  1   1   2
M  END
>  <reaction>  (13) 
rxn_494

>  <mol_properties>  (13) 
{"0": {"label": "*3", "atom_type": "Cs"}, "1": {"label": "*4", "atom_type": "H0"}, "4": {"label": "*1", "atom_type": "N3s"}, "5": {"label": "*2", "atom_type": "H0"}, "6": {"label": "*0", "atom_type": "H0"}}

>  <type>  (13) 
unop_9

>  <geom_source>  (13) 
Heuristics

$$$$

     RDKit          3D

  8  6  0  0  0  0  0  0  0  0999 V2000
    0.0284    1.2346    0.3939 C   0  0  0  0  0  3  0  0  0  0  0  0
   -0.8607    1.7353    0.0137 H   0  0  0  0  0  0  0  0  0  0  0  0
    0.8287    1.9622    0.5200 H   0  0  0  0  0  0  0  0  0  0  0  0
    0.0852    0.6040    1.2798 H   0  0  0  0  0  0  0  0  0  0  0  0
    0.0284   -1.1687   -0.3647 N   0  0  0  0  0  0  0  0  0  0  0  0
    0.0284   -0.0115    0.0005 H   0  0  0  0  0  0  0  0  0  0  0  0
   -0.8419   -1.5840   -0.0603 H   0  0  0  0  0  0  0  0  0  0  0  0
    0.0284   -1.1687   -1.3760 H   0  0  0  0  0  0  0  0  0  0  0  0
  1  2  1  0
  1  3  1  0
  1  4  1  0
  5  6  1  0
  5  7  1  0
  5  8  1  0
M  RAD  1   1   2
M  END
>  <reaction>  (14) 
rxn_494

>  <mol_properties>  (14) 
{"0": {"label": "*3", "atom_type": "Cs"}, "1": {"label": "*4", "atom_type": "H0"}, "4": {"label": "*1", "atom_type": "N3s"}, "5": {"label": "*2", "atom_type": "H0"}, "6": {"label": "*0", "atom_type": "H0"}}

>  <type>  (14) 
unop_10

>  <geom_source>  (14) 
Heuristics

$$$$

     RDKit          3D

  8  6  0  0  0  0  0  0  0  0999 V2000
    0.0345    1.2239    0.3865 C   0  0  0  0  0  3  0  0  0  0  0  0
    0.5478    1.3024    1.3437 H   0  0  0  0  0  0  0  0  0  0  0  0
   -1.0314    1.0799    0.5570 H   0  0  0  0  0  0  0  0  0  0  0  0
    0.3612    2.2291    0.1247 H   0  0  0  0  0  0  0  0  0  0  0  0
    0.0345   -1.1794   -0.3721 N   0  0  0  0  0  0  0  0  0  0  0  0
    0.0345   -0.0222   -0.0068 H   0  0  0  0  0  0  0  0  0  0  0  0
   -0.8358   -1.5947   -0.0677 H   0  0  0  0  0  0  0  0  0  0  0  0
    0.0345   -1.1794   -1.3833 H   0  0  0  0  0  0  0  0  0  0  0  0
  1  2  1  0
  1  3  1  0
  1  4  1  0
  5  6  1  0
  5  7  1  0
  5  8  1  0
M  RAD  1   1   2
M  END
>  <reaction>  (15) 
rxn_494

>  <mol_properties>  (15) 
{"0": {"label": "*3", "atom_type": "Cs"}, "1": {"label": "*4", "atom_type": "H0"}, "4": {"label": "*1", "atom_type": "N3s"}, "5": {"label": "*2", "atom_type": "H0"}, "6": {"label": "*0", "atom_type": "H0"}}

>  <type>  (15) 
unop_11

>  <geom_source>  (15) 
Heuristics

$$$$

     RDKit          3D

  8  6  0  0  0  0  0  0  0  0999 V2000
    0.0210    1.2399    0.3991 C   0  0  0  0  0  3  0  0  0  0  0  0
    0.0210    1.8951   -0.4706 H   0  0  0  0  0  0  0  0  0  0  0  0
    0.9101    1.4315    0.9979 H   0  0  0  0  0  0  0  0  0  0  0  0
   -0.6644    0.8227    1.1353 H   0  0  0  0  0  0  0  0  0  0  0  0
    0.0210   -1.1634   -0.3595 N   0  0  0  0  0  0  0  0  0  0  0  0
    0.0210   -0.0062    0.0058 H   0  0  0  0  0  0  0  0  0  0  0  0
   -0.8493   -1.5787   -0.0551 H   0  0  0  0  0  0  0  0  0  0  0  0
    0.0210   -1.1634   -1.3707 H   0  0  0  0  0  0  0  0  0  0  0  0
  1  2  1  0
  1  3  1  0
  1  4  1  0
  5  6  1  0
  5  7  1  0
  5  8  1  0
M  RAD  1   1   2
M  END
>  <reaction>  (16) 
rxn_494

>  <mol_properties>  (16) 
{"0": {"label": "*3", "atom_type": "Cs"}, "1": {"label": "*4", "atom_type": "H0"}, "4": {"label": "*1", "atom_type": "N3s"}, "5": {"label": "*2", "atom_type": "H0"}, "6": {"label": "*0", "atom_type": "H0"}}

>  <type>  (16) 
unop_12

>  <geom_source>  (16) 
Heuristics

$$$$
