
     RDKit          3D

  9  8  0  0  0  0  0  0  0  0999 V2000
    1.1303   -0.2933   -0.7510 C   0  0  0  0  0  0  0  0  0  0  0  0
    0.2866    0.4560   -0.0588 C   0  0  0  0  0  0  0  0  0  0  0  0
   -0.9719   -0.0331    0.5823 C   0  0  0  0  0  0  0  0  0  0  0  0
    2.0274    0.1230   -1.1916 H   0  0  0  0  0  0  0  0  0  0  0  0
    0.9532   -1.3530   -0.9023 H   0  0  0  0  0  0  0  0  0  0  0  0
    0.5065    1.5132    0.0659 H   0  0  0  0  0  0  0  0  0  0  0  0
   -0.9526    0.1426    1.6610 H   0  0  0  0  0  0  0  0  0  0  0  0
   -1.1182   -1.1002    0.4106 H   0  0  0  0  0  0  0  0  0  0  0  0
   -1.8412    0.5010    0.1901 H   0  0  0  0  0  0  0  0  0  0  0  0
  1  2  2  3
  1  4  1  0
  1  5  1  0
  2  3  1  0
  2  6  1  0
  3  7  1  0
  3  8  1  0
  3  9  1  0
M  END
>  <reaction>  (1) 
rxn_738

>  <mol_properties>  (1) 
{"2": {"label": "donator", "atom_type": "Cs"}, "6": {"label": "d_hydrogen", "atom_type": "H0"}}

>  <type>  (1) 
r1h

$$$$

     RDKit          3D

 21 22  0  0  0  0  0  0  0  0999 V2000
   -2.2298    0.3537    0.0543 C   0  0  0  0  0  0  0  0  0  0  0  0
   -1.1556    1.4284   -0.1994 C   0  0  0  0  0  0  0  0  0  0  0  0
    0.0609    0.6285   -0.5240 C   0  0  0  0  0  3  0  0  0  0  0  0
    1.4977    1.0080   -0.3953 C   0  0  0  0  0  0  0  0  0  0  0  0
    2.2141   -0.3503   -0.2737 C   0  0  0  0  0  0  0  0  0  0  0  0
    1.1785   -1.2652    0.3956 C   0  0  0  0  0  0  0  0  0  0  0  0
   -0.1494   -0.8311   -0.2398 C   0  0  0  0  0  0  0  0  0  0  0  0
   -1.4409   -0.8502    0.5889 C   0  0  0  0  0  0  0  0  0  0  0  0
   -2.7102    0.0864   -0.8907 H   0  0  0  0  0  0  0  0  0  0  0  0
   -3.0138    0.6865    0.7353 H   0  0  0  0  0  0  0  0  0  0  0  0
   -1.4459    2.1368   -0.9815 H   0  0  0  0  0  0  0  0  0  0  0  0
   -0.9857    2.0292    0.7068 H   0  0  0  0  0  0  0  0  0  0  0  0
    1.6525    1.6113    0.5121 H   0  0  0  0  0  0  0  0  0  0  0  0
    1.8766    1.6104   -1.2268 H   0  0  0  0  0  0  0  0  0  0  0  0
    3.1516   -0.2903    0.2803 H   0  0  0  0  0  0  0  0  0  0  0  0
    2.4485   -0.7309   -1.2715 H   0  0  0  0  0  0  0  0  0  0  0  0
    1.1473   -1.0612    1.4707 H   0  0  0  0  0  0  0  0  0  0  0  0
    1.4017   -2.3251    0.2670 H   0  0  0  0  0  0  0  0  0  0  0  0
   -0.3078   -1.3981   -1.1697 H   0  0  0  0  0  0  0  0  0  0  0  0
   -1.1949   -0.6901    1.6436 H   0  0  0  0  0  0  0  0  0  0  0  0
   -1.9953   -1.7869    0.5178 H   0  0  0  0  0  0  0  0  0  0  0  0
  1  8  1  0
  1  2  1  0
  1  9  1  0
  1 10  1  0
  2  3  1  0
  2 11  1  0
  2 12  1  0
  3  4  1  0
  3  7  1  0
  4  5  1  0
  4 13  1  0
  4 14  1  0
  5  6  1  0
  5 15  1  0
  5 16  1  0
  6  7  1  0
  6 17  1  0
  6 18  1  0
  7  8  1  0
  7 19  1  0
  8 20  1  0
  8 21  1  0
M  RAD  1   3   2
M  END
>  <reaction>  (2) 
rxn_738

>  <mol_properties>  (2) 
{"2": {"label": "acceptor", "atom_type": "Cs"}}

>  <type>  (2) 
r2

$$$$

     RDKit          3D

 22 23  0  0  0  0  0  0  0  0999 V2000
   -2.1093   -0.3263    0.3079 C   0  0  0  0  0  0  0  0  0  0  0  0
   -1.3270    0.9803    0.4115 C   0  0  0  0  0  0  0  0  0  0  0  0
   -0.1818    0.8289   -0.6044 C   0  0  0  0  0  0  0  0  0  0  0  0
    1.1682    1.3904   -0.1341 C   0  0  0  0  0  0  0  0  0  0  0  0
    1.8508    0.2041    0.5479 C   0  0  0  0  0  0  0  0  0  0  0  0
    1.4982   -0.9663   -0.3710 C   0  0  0  0  0  0  0  0  0  0  0  0
    0.0340   -0.7124   -0.7594 C   0  0  0  0  0  0  0  0  0  0  0  0
   -0.9986   -1.3650    0.1756 C   0  0  0  0  0  0  0  0  0  0  0  0
   -2.7686   -0.5042    1.1589 H   0  0  0  0  0  0  0  0  0  0  0  0
   -2.7285   -0.3223   -0.5943 H   0  0  0  0  0  0  0  0  0  0  0  0
   -1.9339    1.8682    0.2289 H   0  0  0  0  0  0  0  0  0  0  0  0
   -0.9144    1.0729    1.4218 H   0  0  0  0  0  0  0  0  0  0  0  0
   -0.4804    1.2763   -1.5535 H   0  0  0  0  0  0  0  0  0  0  0  0
    1.7667    1.7058   -0.9931 H   0  0  0  0  0  0  0  0  0  0  0  0
    1.0540    2.2578    0.5189 H   0  0  0  0  0  0  0  0  0  0  0  0
    1.4197    0.0438    1.5410 H   0  0  0  0  0  0  0  0  0  0  0  0
    2.9248    0.3413    0.6788 H   0  0  0  0  0  0  0  0  0  0  0  0
    2.1362   -0.9329   -1.2584 H   0  0  0  0  0  0  0  0  0  0  0  0
    1.6421   -1.9421    0.0966 H   0  0  0  0  0  0  0  0  0  0  0  0
   -0.1575   -1.0299   -1.7854 H   0  0  0  0  0  0  0  0  0  0  0  0
   -1.3459   -2.3310   -0.1933 H   0  0  0  0  0  0  0  0  0  0  0  0
   -0.5489   -1.5373    1.1593 H   0  0  0  0  0  0  0  0  0  0  0  0
  1  2  1  0
  1  8  1  0
  1  9  1  0
  1 10  1  0
  2  3  1  0
  2 11  1  0
  2 12  1  0
  3  4  1  0
  3  7  1  0
  3 13  1  0
  4  5  1  0
  4 14  1  0
  4 15  1  0
  5  6  1  0
  5 16  1  0
  5 17  1  0
  6  7  1  0
  6 18  1  0
  6 19  1  0
  7  8  1  0
  7 20  1  0
  8 21  1  0
  8 22  1  0
M  END
>  <reaction>  (3) 
rxn_738

>  <mol_properties>  (3) 
{"0": {"label": "a_hydrogen", "atom_type": "H0"}, "3": {"label": "acceptor", "atom_type": "Cs"}}

>  <type>  (3) 
r2h

$$$$

     RDKit          3D

 30 30  0  0  0  0  0  0  0  0999 V2000
    2.2946   -1.6152   -2.1759 C   0  0  0  0  0  0  0  0  0  0  0  0
    2.1007   -0.3080   -1.9795 C   0  0  0  0  0  0  0  0  0  0  0  0
    0.8744    0.4148   -2.2908 C   0  0  0  0  0  0  0  0  0  0  0  0
    3.2160   -2.1014   -1.8834 H   0  0  0  0  0  0  0  0  0  0  0  0
    1.5366   -2.2328   -2.6459 H   0  0  0  0  0  0  0  0  0  0  0  0
    2.8933    0.2640   -1.5040 H   0  0  0  0  0  0  0  0  0  0  0  0
    0.1242    0.3997   -1.2237 H   0  0  0  0  0  0  0  0  0  0  0  0
    0.2300   -0.0679   -3.0238 H   0  0  0  0  0  0  0  0  0  0  0  0
    0.9941    1.4784   -2.4843 H   0  0  0  0  0  0  0  0  0  0  0  0
   -0.4368   -1.9583    0.6890 C   0  0  0  0  0  0  0  0  0  0  0  0
   -1.3239   -1.0532   -0.1712 C   0  0  0  0  0  0  0  0  0  0  0  0
   -0.6564    0.3071   -0.0950 C   0  0  0  0  0  3  0  0  0  0  0  0
   -1.4974    1.5636    0.0011 C   0  0  0  0  0  0  0  0  0  0  0  0
   -1.4214    1.9273    1.4907 C   0  0  0  0  0  0  0  0  0  0  0  0
    0.0238    1.5844    1.8658 C   0  0  0  0  0  0  0  0  0  0  0  0
    0.3249    0.2975    1.0826 C   0  0  0  0  0  0  0  0  0  0  0  0
    0.0275   -1.0248    1.8067 C   0  0  0  0  0  0  0  0  0  0  0  0
    0.4262   -2.2890    0.1052 H   0  0  0  0  0  0  0  0  0  0  0  0
   -0.9559   -2.8454    1.0539 H   0  0  0  0  0  0  0  0  0  0  0  0
   -1.4396   -1.4139   -1.1964 H   0  0  0  0  0  0  0  0  0  0  0  0
   -2.3315   -0.9937    0.2591 H   0  0  0  0  0  0  0  0  0  0  0  0
   -2.5176    1.4173   -0.3574 H   0  0  0  0  0  0  0  0  0  0  0  0
   -1.0556    2.3705   -0.5941 H   0  0  0  0  0  0  0  0  0  0  0  0
   -1.6844    2.9660    1.6955 H   0  0  0  0  0  0  0  0  0  0  0  0
   -2.1133    1.2967    2.0567 H   0  0  0  0  0  0  0  0  0  0  0  0
    0.1702    1.4638    2.9405 H   0  0  0  0  0  0  0  0  0  0  0  0
    0.6864    2.3885    1.5349 H   0  0  0  0  0  0  0  0  0  0  0  0
    1.3619    0.2804    0.7320 H   0  0  0  0  0  0  0  0  0  0  0  0
   -0.7873   -0.8761    2.5237 H   0  0  0  0  0  0  0  0  0  0  0  0
    0.8868   -1.4050    2.3607 H   0  0  0  0  0  0  0  0  0  0  0  0
  1  2  2  3
  1  4  1  0
  1  5  1  0
  2  3  1  0
  2  6  1  0
  3  7  1  0
  3  8  1  0
  3  9  1  0
 10 17  1  0
 10 11  1  0
 10 18  1  0
 10 19  1  0
 11 12  1  0
 11 20  1  0
 11 21  1  0
 12 13  1  0
 12 16  1  0
 13 14  1  0
 13 22  1  0
 13 23  1  0
 14 15  1  0
 14 24  1  0
 14 25  1  0
 15 16  1  0
 15 26  1  0
 15 27  1  0
 16 17  1  0
 16 28  1  0
 17 29  1  0
 17 30  1  0
M  RAD  1  12   2
M  END
>  <reaction>  (4) 
rxn_738

>  <mol_properties>  (4) 
{"1": {"label": "*0", "atom_type": "Cd"}, "2": {"label": "*1", "atom_type": "Cs"}, "6": {"label": "*2", "atom_type": "H0"}, "11": {"label": "*3", "atom_type": "Cs"}, "15": {"label": "*4", "atom_type": "Cs"}}

>  <type>  (4) 
ts

$$$$

     RDKit          3D

 30 30  0  0  0  0  0  0  0  0999 V2000
    1.7399   -1.7207   -3.2208 C   0  0  0  0  0  0  0  0  0  0  0  0
    1.7399   -1.7207   -1.8971 C   0  0  0  0  0  0  0  0  0  0  0  0
    1.7399   -0.4985   -1.0365 C   0  0  0  0  0  3  0  0  0  0  0  0
    1.7399   -2.6434   -3.7873 H   0  0  0  0  0  0  0  0  0  0  0  0
    1.7399   -0.7951   -3.7868 H   0  0  0  0  0  0  0  0  0  0  0  0
    1.7399   -2.6733   -1.3735 H   0  0  0  0  0  0  0  0  0  0  0  0
    0.6866   -0.4779   -0.2551 H   0  0  0  0  0  0  0  0  0  0  0  0
    1.7399    0.4120   -1.6371 H   0  0  0  0  0  0  0  0  0  0  0  0
    2.6176   -0.4814   -0.3853 H   0  0  0  0  0  0  0  0  0  0  0  0
    1.0204    0.7673    2.0946 C   0  0  0  0  0  0  0  0  0  0  0  0
    0.0926   -0.4406    1.9936 C   0  0  0  0  0  0  0  0  0  0  0  0
   -0.3647   -0.4574    0.5249 C   0  0  0  0  0  0  0  0  0  0  0  0
   -1.8407   -0.8286    0.3193 C   0  0  0  0  0  0  0  0  0  0  0  0
   -2.5726    0.5138    0.3488 C   0  0  0  0  0  0  0  0  0  0  0  0
   -1.6336    1.4312   -0.4353 C   0  0  0  0  0  0  0  0  0  0  0  0
   -0.2292    1.0204    0.0314 C   0  0  0  0  0  0  0  0  0  0  0  0
    0.2988    1.8082    1.2426 C   0  0  0  0  0  0  0  0  0  0  0  0
    1.9934    0.5308    1.6535 H   0  0  0  0  0  0  0  0  0  0  0  0
    1.1947    1.0940    3.1208 H   0  0  0  0  0  0  0  0  0  0  0  0
    0.5614   -1.3777    2.2969 H   0  0  0  0  0  0  0  0  0  0  0  0
   -0.7720   -0.2852    2.6476 H   0  0  0  0  0  0  0  0  0  0  0  0
   -2.2014   -1.5346    1.0697 H   0  0  0  0  0  0  0  0  0  0  0  0
   -1.9809   -1.2942   -0.6600 H   0  0  0  0  0  0  0  0  0  0  0  0
   -3.5784    0.4660   -0.0702 H   0  0  0  0  0  0  0  0  0  0  0  0
   -2.6663    0.8669    1.3805 H   0  0  0  0  0  0  0  0  0  0  0  0
   -1.8321    2.4926   -0.2751 H   0  0  0  0  0  0  0  0  0  0  0  0
   -1.7489    1.2360   -1.5050 H   0  0  0  0  0  0  0  0  0  0  0  0
    0.4896    1.0922   -0.7863 H   0  0  0  0  0  0  0  0  0  0  0  0
   -0.5426    2.2177    1.8118 H   0  0  0  0  0  0  0  0  0  0  0  0
    0.9306    2.6488    0.9523 H   0  0  0  0  0  0  0  0  0  0  0  0
  1  2  2  3
  1  4  1  0
  1  5  1  0
  2  3  1  0
  2  6  1  0
  3  8  1  0
  3  9  1  0
  7 12  1  0
 10 11  1  0
 10 17  1  0
 10 18  1  0
 10 19  1  0
 11 12  1  0
 11 20  1  0
 11 21  1  0
 12 13  1  0
 12 16  1  0
 13 14  1  0
 13 22  1  0
 13 23  1  0
 14 15  1  0
 14 24  1  0
 14 25  1  0
 15 16  1  0
 15 26  1  0
 15 27  1  0
 16 17  1  0
 16 28  1  0
 17 29  1  0
 17 30  1  0
M  RAD  1   3   2
M  END
>  <reaction>  (5) 
rxn_738

>  <mol_properties>  (5) 
{"1": {"label": "*0", "atom_type": "Cd"}, "2": {"label": "*1", "atom_type": "Cs"}, "6": {"label": "*2", "atom_type": "H0"}, "11": {"label": "*3", "atom_type": "Cs"}, "15": {"label": "*4", "atom_type": "Cs"}}

>  <type>  (5) 
unop_1

>  <geom_source>  (5) 
Heuristics

$$$$

     RDKit          3D

 30 30  0  0  0  0  0  0  0  0999 V2000
    1.6059   -1.0971   -3.7734 C   0  0  0  0  0  0  0  0  0  0  0  0
    1.6059   -1.0971   -2.4496 C   0  0  0  0  0  0  0  0  0  0  0  0
    1.6059    0.1250   -1.5891 C   0  0  0  0  0  3  0  0  0  0  0  0
    1.6059   -2.0199   -4.3399 H   0  0  0  0  0  0  0  0  0  0  0  0
    1.6059   -0.1715   -4.3394 H   0  0  0  0  0  0  0  0  0  0  0  0
    1.6059   -2.0498   -1.9261 H   0  0  0  0  0  0  0  0  0  0  0  0
    0.5526    0.1456   -0.8077 H   0  0  0  0  0  0  0  0  0  0  0  0
    1.6059    1.0355   -2.1897 H   0  0  0  0  0  0  0  0  0  0  0  0
    2.4836    0.1422   -0.9379 H   0  0  0  0  0  0  0  0  0  0  0  0
    0.0971   -1.7531    1.3302 C   0  0  0  0  0  0  0  0  0  0  0  0
   -0.9196   -1.2778    0.2957 C   0  0  0  0  0  0  0  0  0  0  0  0
   -0.4986    0.1661   -0.0277 C   0  0  0  0  0  0  0  0  0  0  0  0
   -1.6664    1.1475   -0.2061 C   0  0  0  0  0  0  0  0  0  0  0  0
   -1.8971    1.7148    1.1951 C   0  0  0  0  0  0  0  0  0  0  0  0
   -0.4750    1.9079    1.7229 C   0  0  0  0  0  0  0  0  0  0  0  0
    0.2806    0.6633    1.2339 C   0  0  0  0  0  0  0  0  0  0  0  0
    0.2661   -0.5211    2.2155 C   0  0  0  0  0  0  0  0  0  0  0  0
    1.0450   -1.9959    0.8405 H   0  0  0  0  0  0  0  0  0  0  0  0
   -0.2263   -2.6388    1.8791 H   0  0  0  0  0  0  0  0  0  0  0  0
   -0.9664   -1.9091   -0.5926 H   0  0  0  0  0  0  0  0  0  0  0  0
   -1.9180   -1.2790    0.7462 H   0  0  0  0  0  0  0  0  0  0  0  0
   -2.5514    0.6696   -0.6305 H   0  0  0  0  0  0  0  0  0  0  0  0
   -1.3791    1.9587   -0.8807 H   0  0  0  0  0  0  0  0  0  0  0  0
   -2.4864    2.6325    1.1974 H   0  0  0  0  0  0  0  0  0  0  0  0
   -2.4298    0.9844    1.8120 H   0  0  0  0  0  0  0  0  0  0  0  0
   -0.4280    2.0246    2.8073 H   0  0  0  0  0  0  0  0  0  0  0  0
   -0.0451    2.8101    1.2792 H   0  0  0  0  0  0  0  0  0  0  0  0
    1.3130    0.9088    0.9807 H   0  0  0  0  0  0  0  0  0  0  0  0
   -0.5983   -0.4369    2.8828 H   0  0  0  0  0  0  0  0  0  0  0  0
    1.1566   -0.5543    2.8446 H   0  0  0  0  0  0  0  0  0  0  0  0
  1  2  2  3
  1  4  1  0
  1  5  1  0
  2  3  1  0
  2  6  1  0
  3  8  1  0
  3  9  1  0
  7 12  1  0
 10 11  1  0
 10 17  1  0
 10 18  1  0
 10 19  1  0
 11 12  1  0
 11 20  1  0
 11 21  1  0
 12 13  1  0
 12 16  1  0
 13 14  1  0
 13 22  1  0
 13 23  1  0
 14 15  1  0
 14 24  1  0
 14 25  1  0
 15 16  1  0
 15 26  1  0
 15 27  1  0
 16 17  1  0
 16 28  1  0
 17 29  1  0
 17 30  1  0
M  RAD  1   3   2
M  END
>  <reaction>  (6) 
rxn_738

>  <mol_properties>  (6) 
{"1": {"label": "*0", "atom_type": "Cd"}, "2": {"label": "*1", "atom_type": "Cs"}, "6": {"label": "*2", "atom_type": "H0"}, "11": {"label": "*3", "atom_type": "Cs"}, "15": {"label": "*4", "atom_type": "Cs"}}

>  <type>  (6) 
unop_2

>  <geom_source>  (6) 
Heuristics

$$$$

     RDKit          3D

 30 30  0  0  0  0  0  0  0  0999 V2000
    2.0450   -1.5614   -3.0156 C   0  0  0  0  0  0  0  0  0  0  0  0
    2.0450   -1.5614   -1.6918 C   0  0  0  0  0  0  0  0  0  0  0  0
    2.0450   -0.3393   -0.8313 C   0  0  0  0  0  3  0  0  0  0  0  0
    2.0450   -2.4842   -3.5821 H   0  0  0  0  0  0  0  0  0  0  0  0
    2.0450   -0.6358   -3.5816 H   0  0  0  0  0  0  0  0  0  0  0  0
    2.0450   -2.5141   -1.1683 H   0  0  0  0  0  0  0  0  0  0  0  0
    0.9918   -0.3187   -0.0499 H   0  0  0  0  0  0  0  0  0  0  0  0
    2.0450    0.5712   -1.4319 H   0  0  0  0  0  0  0  0  0  0  0  0
    2.9227   -0.3222   -0.1801 H   0  0  0  0  0  0  0  0  0  0  0  0
    0.5294    1.8875    1.6008 C   0  0  0  0  0  0  0  0  0  0  0  0
    0.2884    0.4433    2.0323 C   0  0  0  0  0  0  0  0  0  0  0  0
   -0.0595   -0.2982    0.7301 C   0  0  0  0  0  0  0  0  0  0  0  0
   -1.1762   -1.3435    0.8686 C   0  0  0  0  0  0  0  0  0  0  0  0
   -2.4572   -0.5667    0.5621 C   0  0  0  0  0  0  0  0  0  0  0  0
   -2.0405    0.3313   -0.6034 C   0  0  0  0  0  0  0  0  0  0  0  0
   -0.6247    0.7971   -0.2326 C   0  0  0  0  0  0  0  0  0  0  0  0
   -0.5717    2.1100    0.5673 C   0  0  0  0  0  0  0  0  0  0  0  0
    1.5118    1.9786    1.1276 H   0  0  0  0  0  0  0  0  0  0  0  0
    0.4955    2.5975    2.4285 H   0  0  0  0  0  0  0  0  0  0  0  0
    1.1353   -0.0033    2.5550 H   0  0  0  0  0  0  0  0  0  0  0  0
   -0.5670    0.4105    2.7155 H   0  0  0  0  0  0  0  0  0  0  0  0
   -1.1829   -1.8184    1.8515 H   0  0  0  0  0  0  0  0  0  0  0  0
   -1.0479   -2.1350    0.1252 H   0  0  0  0  0  0  0  0  0  0  0  0
   -3.3065   -1.2099    0.3288 H   0  0  0  0  0  0  0  0  0  0  0  0
   -2.7397    0.0454    1.4242 H   0  0  0  0  0  0  0  0  0  0  0  0
   -2.7232    1.1663   -0.7719 H   0  0  0  0  0  0  0  0  0  0  0  0
   -2.0156   -0.2598   -1.5230 H   0  0  0  0  0  0  0  0  0  0  0  0
   -0.0002    0.8917   -1.1222 H   0  0  0  0  0  0  0  0  0  0  0  0
   -1.5243    2.2655    1.0850 H   0  0  0  0  0  0  0  0  0  0  0  0
   -0.4047    2.9809   -0.0680 H   0  0  0  0  0  0  0  0  0  0  0  0
  1  2  2  3
  1  4  1  0
  1  5  1  0
  2  3  1  0
  2  6  1  0
  3  8  1  0
  3  9  1  0
  7 12  1  0
 10 11  1  0
 10 17  1  0
 10 18  1  0
 10 19  1  0
 11 12  1  0
 11 20  1  0
 11 21  1  0
 12 13  1  0
 12 16  1  0
 13 14  1  0
 13 22  1  0
 13 23  1  0
 14 15  1  0
 14 24  1  0
 14 25  1  0
 15 16  1  0
 15 26  1  0
 15 27  1  0
 16 17  1  0
 16 28  1  0
 17 29  1  0
 17 30  1  0
M  RAD  1   3   2
M  END
>  <reaction>  (7) 
rxn_738

>  <mol_properties>  (7) 
{"1": {"label": "*0", "atom_type": "Cd"}, "2": {"label": "*1", "atom_type": "Cs"}, "6": {"label": "*2", "atom_type": "H0"}, "11": {"label": "*3", "atom_type": "Cs"}, "15": {"label": "*4", "atom_type": "Cs"}}

>  <type>  (7) 
unop_3

>  <geom_source>  (7) 
Heuristics

$$$$

     RDKit          3D

 30 30  0  0  0  0  0  0  0  0999 V2000
    2.0302   -1.0778   -3.5773 C   0  0  0  0  0  0  0  0  0  0  0  0
    2.0302   -1.0778   -2.2535 C   0  0  0  0  0  0  0  0  0  0  0  0
    2.0302    0.1444   -1.3930 C   0  0  0  0  0  3  0  0  0  0  0  0
    2.0302   -2.0005   -4.1438 H   0  0  0  0  0  0  0  0  0  0  0  0
    2.0302   -0.1522   -4.1433 H   0  0  0  0  0  0  0  0  0  0  0  0
    2.0302   -2.0304   -1.7300 H   0  0  0  0  0  0  0  0  0  0  0  0
    0.9770    0.1649   -0.6116 H   0  0  0  0  0  0  0  0  0  0  0  0
    2.0302    1.0548   -1.9936 H   0  0  0  0  0  0  0  0  0  0  0  0
    2.9079    0.1615   -0.7418 H   0  0  0  0  0  0  0  0  0  0  0  0
   -2.1646   -0.9956   -0.1754 C   0  0  0  0  0  0  0  0  0  0  0  0
   -1.3476    0.1845   -0.6949 C   0  0  0  0  0  0  0  0  0  0  0  0
   -0.0743    0.1854    0.1684 C   0  0  0  0  0  0  0  0  0  0  0  0
    0.4199    1.5810    0.5770 C   0  0  0  0  0  0  0  0  0  0  0  0
   -0.2748    1.8488    1.9127 C   0  0  0  0  0  0  0  0  0  0  0  0
   -0.1955    0.4932    2.6158 C   0  0  0  0  0  0  0  0  0  0  0  0
   -0.4767   -0.5260    1.5018 C   0  0  0  0  0  0  0  0  0  0  0  0
   -1.9600   -0.8981    1.3342 C   0  0  0  0  0  0  0  0  0  0  0  0
   -1.7471   -1.9349   -0.5505 H   0  0  0  0  0  0  0  0  0  0  0  0
   -3.2137   -0.9595   -0.4727 H   0  0  0  0  0  0  0  0  0  0  0  0
   -1.1297    0.1285   -1.7622 H   0  0  0  0  0  0  0  0  0  0  0  0
   -1.9077    1.1107   -0.5274 H   0  0  0  0  0  0  0  0  0  0  0  0
    0.2065    2.3371   -0.1810 H   0  0  0  0  0  0  0  0  0  0  0  0
    1.5026    1.5693    0.7296 H   0  0  0  0  0  0  0  0  0  0  0  0
    0.1834    2.6579    2.4826 H   0  0  0  0  0  0  0  0  0  0  0  0
   -1.3208    2.1222    1.7428 H   0  0  0  0  0  0  0  0  0  0  0  0
   -0.8902    0.3984    3.4525 H   0  0  0  0  0  0  0  0  0  0  0  0
    0.8136    0.3513    3.0125 H   0  0  0  0  0  0  0  0  0  0  0  0
    0.1084   -1.4350    1.6487 H   0  0  0  0  0  0  0  0  0  0  0  0
   -2.5892   -0.0942    1.7308 H   0  0  0  0  0  0  0  0  0  0  0  0
   -2.2261   -1.8098    1.8706 H   0  0  0  0  0  0  0  0  0  0  0  0
  1  2  2  3
  1  4  1  0
  1  5  1  0
  2  3  1  0
  2  6  1  0
  3  8  1  0
  3  9  1  0
  7 12  1  0
 10 11  1  0
 10 17  1  0
 10 18  1  0
 10 19  1  0
 11 12  1  0
 11 20  1  0
 11 21  1  0
 12 13  1  0
 12 16  1  0
 13 14  1  0
 13 22  1  0
 13 23  1  0
 14 15  1  0
 14 24  1  0
 14 25  1  0
 15 16  1  0
 15 26  1  0
 15 27  1  0
 16 17  1  0
 16 28  1  0
 17 29  1  0
 17 30  1  0
M  RAD  1   3   2
M  END
>  <reaction>  (8) 
rxn_738

>  <mol_properties>  (8) 
{"1": {"label": "*0", "atom_type": "Cd"}, "2": {"label": "*1", "atom_type": "Cs"}, "6": {"label": "*2", "atom_type": "H0"}, "11": {"label": "*3", "atom_type": "Cs"}, "15": {"label": "*4", "atom_type": "Cs"}}

>  <type>  (8) 
unop_4

>  <geom_source>  (8) 
Heuristics

$$$$

     RDKit          3D

 30 30  0  0  0  0  0  0  0  0999 V2000
    2.2524   -1.1338   -3.1294 C   0  0  0  0  0  0  0  0  0  0  0  0
    2.2524   -1.1338   -1.8056 C   0  0  0  0  0  0  0  0  0  0  0  0
    2.2524    0.0883   -0.9451 C   0  0  0  0  0  3  0  0  0  0  0  0
    2.2524   -2.0566   -3.6958 H   0  0  0  0  0  0  0  0  0  0  0  0
    2.2524   -0.2082   -3.6954 H   0  0  0  0  0  0  0  0  0  0  0  0
    2.2524   -2.0865   -1.2821 H   0  0  0  0  0  0  0  0  0  0  0  0
    1.1991    0.1089   -0.1636 H   0  0  0  0  0  0  0  0  0  0  0  0
    2.2524    0.9988   -1.5457 H   0  0  0  0  0  0  0  0  0  0  0  0
    3.1301    0.1054   -0.2939 H   0  0  0  0  0  0  0  0  0  0  0  0
   -0.6557    2.4156    0.7148 C   0  0  0  0  0  0  0  0  0  0  0  0
    0.1837    1.3991    1.4842 C   0  0  0  0  0  0  0  0  0  0  0  0
    0.1478    0.1294    0.6164 C   0  0  0  0  0  0  0  0  0  0  0  0
    0.0258   -1.1818    1.4068 C   0  0  0  0  0  0  0  0  0  0  0  0
   -1.4814   -1.4199    1.5078 C   0  0  0  0  0  0  0  0  0  0  0  0
   -1.9840   -1.0149    0.1216 C   0  0  0  0  0  0  0  0  0  0  0  0
   -1.1665    0.2385   -0.2242 C   0  0  0  0  0  0  0  0  0  0  0  0
   -1.8164    1.5651    0.2051 C   0  0  0  0  0  0  0  0  0  0  0  0
   -0.0833    2.8131   -0.1288 H   0  0  0  0  0  0  0  0  0  0  0  0
   -0.9751    3.2623    1.3242 H   0  0  0  0  0  0  0  0  0  0  0  0
    1.2003    1.7378    1.6887 H   0  0  0  0  0  0  0  0  0  0  0  0
   -0.2910    1.1990    2.4507 H   0  0  0  0  0  0  0  0  0  0  0  0
    0.5218   -1.1307    2.3779 H   0  0  0  0  0  0  0  0  0  0  0  0
    0.4841   -2.0035    0.8497 H   0  0  0  0  0  0  0  0  0  0  0  0
   -1.7391   -2.4447    1.7777 H   0  0  0  0  0  0  0  0  0  0  0  0
   -1.9141   -0.7641    2.2697 H   0  0  0  0  0  0  0  0  0  0  0  0
   -3.0599   -0.8333    0.0874 H   0  0  0  0  0  0  0  0  0  0  0  0
   -1.7662   -1.8166   -0.5894 H   0  0  0  0  0  0  0  0  0  0  0  0
   -0.9428    0.2756   -1.2913 H   0  0  0  0  0  0  0  0  0  0  0  0
   -2.5170    1.3839    1.0272 H   0  0  0  0  0  0  0  0  0  0  0  0
   -2.3808    2.0351   -0.6013 H   0  0  0  0  0  0  0  0  0  0  0  0
  1  2  2  3
  1  4  1  0
  1  5  1  0
  2  3  1  0
  2  6  1  0
  3  8  1  0
  3  9  1  0
  7 12  1  0
 10 11  1  0
 10 17  1  0
 10 18  1  0
 10 19  1  0
 11 12  1  0
 11 20  1  0
 11 21  1  0
 12 13  1  0
 12 16  1  0
 13 14  1  0
 13 22  1  0
 13 23  1  0
 14 15  1  0
 14 24  1  0
 14 25  1  0
 15 16  1  0
 15 26  1  0
 15 27  1  0
 16 17  1  0
 16 28  1  0
 17 29  1  0
 17 30  1  0
M  RAD  1   3   2
M  END
>  <reaction>  (9) 
rxn_738

>  <mol_properties>  (9) 
{"1": {"label": "*0", "atom_type": "Cd"}, "2": {"label": "*1", "atom_type": "Cs"}, "6": {"label": "*2", "atom_type": "H0"}, "11": {"label": "*3", "atom_type": "Cs"}, "15": {"label": "*4", "atom_type": "Cs"}}

>  <type>  (9) 
unop_5

>  <geom_source>  (9) 
Heuristics

$$$$

     RDKit          3D

 30 30  0  0  0  0  0  0  0  0999 V2000
    1.9975   -1.0899   -3.6053 C   0  0  0  0  0  0  0  0  0  0  0  0
    1.9975   -1.0899   -2.2815 C   0  0  0  0  0  0  0  0  0  0  0  0
    1.9975    0.1322   -1.4210 C   0  0  0  0  0  3  0  0  0  0  0  0
    1.9975   -2.0127   -4.1717 H   0  0  0  0  0  0  0  0  0  0  0  0
    1.9975   -0.1643   -4.1713 H   0  0  0  0  0  0  0  0  0  0  0  0
    1.9975   -2.0426   -1.7580 H   0  0  0  0  0  0  0  0  0  0  0  0
    0.9443    0.1528   -0.6395 H   0  0  0  0  0  0  0  0  0  0  0  0
    1.9975    1.0427   -2.0216 H   0  0  0  0  0  0  0  0  0  0  0  0
    2.8752    0.1494   -0.7698 H   0  0  0  0  0  0  0  0  0  0  0  0
   -2.4712   -0.0035   -0.3709 C   0  0  0  0  0  0  0  0  0  0  0  0
   -1.2578    0.8995   -0.5769 C   0  0  0  0  0  0  0  0  0  0  0  0
   -0.1070    0.1733    0.1405 C   0  0  0  0  0  0  0  0  0  0  0  0
    0.8516    1.0962    0.9073 C   0  0  0  0  0  0  0  0  0  0  0  0
    0.2557    1.1709    2.3136 C   0  0  0  0  0  0  0  0  0  0  0  0
   -0.1968   -0.2674    2.5688 C   0  0  0  0  0  0  0  0  0  0  0  0
   -0.7926   -0.7185    1.2270 C   0  0  0  0  0  0  0  0  0  0  0  0
   -2.3012   -0.4575    1.0765 C   0  0  0  0  0  0  0  0  0  0  0  0
   -2.4160   -0.8651   -1.0432 H   0  0  0  0  0  0  0  0  0  0  0  0
   -3.4212    0.4995   -0.5575 H   0  0  0  0  0  0  0  0  0  0  0  0
   -1.0365    1.1008   -1.6259 H   0  0  0  0  0  0  0  0  0  0  0  0
   -1.4426    1.8652   -0.0944 H   0  0  0  0  0  0  0  0  0  0  0  0
    0.9604    2.0724    0.4311 H   0  0  0  0  0  0  0  0  0  0  0  0
    1.8472    0.6471    0.9610 H   0  0  0  0  0  0  0  0  0  0  0  0
    0.9585    1.5410    3.0609 H   0  0  0  0  0  0  0  0  0  0  0  0
   -0.6087    1.8422    2.3191 H   0  0  0  0  0  0  0  0  0  0  0  0
   -0.9080   -0.3577    3.3920 H   0  0  0  0  0  0  0  0  0  0  0  0
    0.6733   -0.8796    2.8213 H   0  0  0  0  0  0  0  0  0  0  0  0
   -0.5899   -1.7752    1.0464 H   0  0  0  0  0  0  0  0  0  0  0  0
   -2.6038    0.3549    1.7458 H   0  0  0  0  0  0  0  0  0  0  0  0
   -2.9046   -1.3289    1.3345 H   0  0  0  0  0  0  0  0  0  0  0  0
  1  2  2  3
  1  4  1  0
  1  5  1  0
  2  3  1  0
  2  6  1  0
  3  8  1  0
  3  9  1  0
  7 12  1  0
 10 11  1  0
 10 17  1  0
 10 18  1  0
 10 19  1  0
 11 12  1  0
 11 20  1  0
 11 21  1  0
 12 13  1  0
 12 16  1  0
 13 14  1  0
 13 22  1  0
 13 23  1  0
 14 15  1  0
 14 24  1  0
 14 25  1  0
 15 16  1  0
 15 26  1  0
 15 27  1  0
 16 17  1  0
 16 28  1  0
 17 29  1  0
 17 30  1  0
M  RAD  1   3   2
M  END
>  <reaction>  (10) 
rxn_738

>  <mol_properties>  (10) 
{"1": {"label": "*0", "atom_type": "Cd"}, "2": {"label": "*1", "atom_type": "Cs"}, "6": {"label": "*2", "atom_type": "H0"}, "11": {"label": "*3", "atom_type": "Cs"}, "15": {"label": "*4", "atom_type": "Cs"}}

>  <type>  (10) 
unop_6

>  <geom_source>  (10) 
Heuristics

$$$$

     RDKit          3D

 30 30  0  0  0  0  0  0  0  0999 V2000
    1.9991   -0.9975   -3.6057 C   0  0  0  0  0  0  0  0  0  0  0  0
    1.9991   -0.9975   -2.2819 C   0  0  0  0  0  0  0  0  0  0  0  0
    1.9991    0.2247   -1.4214 C   0  0  0  0  0  3  0  0  0  0  0  0
    1.9991   -1.9202   -4.1722 H   0  0  0  0  0  0  0  0  0  0  0  0
    1.9991   -0.0719   -4.1717 H   0  0  0  0  0  0  0  0  0  0  0  0
    1.9991   -1.9501   -1.7584 H   0  0  0  0  0  0  0  0  0  0  0  0
    0.9458    0.2452   -0.6399 H   0  0  0  0  0  0  0  0  0  0  0  0
    1.9991    1.1351   -2.0220 H   0  0  0  0  0  0  0  0  0  0  0  0
    2.8768    0.2418   -0.7702 H   0  0  0  0  0  0  0  0  0  0  0  0
   -2.3727    1.0255   -0.2656 C   0  0  0  0  0  0  0  0  0  0  0  0
   -0.9349    1.5265   -0.1581 C   0  0  0  0  0  0  0  0  0  0  0  0
   -0.1055    0.2657    0.1400 C   0  0  0  0  0  0  0  0  0  0  0  0
    1.0256    0.4708    1.1586 C   0  0  0  0  0  0  0  0  0  0  0  0
    0.3788    0.1510    2.5069 C   0  0  0  0  0  0  0  0  0  0  0  0
   -0.4964   -1.0612    2.1859 C   0  0  0  0  0  0  0  0  0  0  0  0
   -1.1009   -0.7362    0.8119 C   0  0  0  0  0  0  0  0  0  0  0  0
   -2.4495    0.0019    0.8642 C   0  0  0  0  0  0  0  0  0  0  0  0
   -2.5268    0.5320   -1.2300 H   0  0  0  0  0  0  0  0  0  0  0  0
   -3.1151    1.8204   -0.1801 H   0  0  0  0  0  0  0  0  0  0  0  0
   -0.5889    2.0545   -1.0478 H   0  0  0  0  0  0  0  0  0  0  0  0
   -0.8596    2.2250    0.6821 H   0  0  0  0  0  0  0  0  0  0  0  0
    1.4526    1.4744    1.1108 H   0  0  0  0  0  0  0  0  0  0  0  0
    1.8369   -0.2377    0.9708 H   0  0  0  0  0  0  0  0  0  0  0  0
    1.1039   -0.0381    3.2992 H   0  0  0  0  0  0  0  0  0  0  0  0
   -0.2461    0.9891    2.8309 H   0  0  0  0  0  0  0  0  0  0  0  0
   -1.2598   -1.2559    2.9415 H   0  0  0  0  0  0  0  0  0  0  0  0
    0.1328   -1.9531    2.1210 H   0  0  0  0  0  0  0  0  0  0  0  0
   -1.2077   -1.6397    0.2097 H   0  0  0  0  0  0  0  0  0  0  0  0
   -2.5454    0.5282    1.8199 H   0  0  0  0  0  0  0  0  0  0  0  0
   -3.3008   -0.6753    0.7827 H   0  0  0  0  0  0  0  0  0  0  0  0
  1  2  2  3
  1  4  1  0
  1  5  1  0
  2  3  1  0
  2  6  1  0
  3  8  1  0
  3  9  1  0
  7 12  1  0
 10 11  1  0
 10 17  1  0
 10 18  1  0
 10 19  1  0
 11 12  1  0
 11 20  1  0
 11 21  1  0
 12 13  1  0
 12 16  1  0
 13 14  1  0
 13 22  1  0
 13 23  1  0
 14 15  1  0
 14 24  1  0
 14 25  1  0
 15 16  1  0
 15 26  1  0
 15 27  1  0
 16 17  1  0
 16 28  1  0
 17 29  1  0
 17 30  1  0
M  RAD  1   3   2
M  END
>  <reaction>  (11) 
rxn_738

>  <mol_properties>  (11) 
{"1": {"label": "*0", "atom_type": "Cd"}, "2": {"label": "*1", "atom_type": "Cs"}, "6": {"label": "*2", "atom_type": "H0"}, "11": {"label": "*3", "atom_type": "Cs"}, "15": {"label": "*4", "atom_type": "Cs"}}

>  <type>  (11) 
unop_7

>  <geom_source>  (11) 
Heuristics

$$$$

     RDKit          3D

 30 30  0  0  0  0  0  0  0  0999 V2000
    1.5390   -1.6205   -3.4940 C   0  0  0  0  0  0  0  0  0  0  0  0
    1.5390   -1.6205   -2.1703 C   0  0  0  0  0  0  0  0  0  0  0  0
    1.5390   -0.3983   -1.3098 C   0  0  0  0  0  3  0  0  0  0  0  0
    1.5390   -2.5433   -4.0605 H   0  0  0  0  0  0  0  0  0  0  0  0
    1.5390   -0.6949   -4.0600 H   0  0  0  0  0  0  0  0  0  0  0  0
    1.5390   -2.5732   -1.6468 H   0  0  0  0  0  0  0  0  0  0  0  0
    0.4857   -0.3778   -0.5283 H   0  0  0  0  0  0  0  0  0  0  0  0
    1.5390    0.5121   -1.9104 H   0  0  0  0  0  0  0  0  0  0  0  0
    2.4167   -0.3812   -0.6586 H   0  0  0  0  0  0  0  0  0  0  0  0
    1.0036   -0.3400    2.1009 C   0  0  0  0  0  0  0  0  0  0  0  0
   -0.2307   -1.0676    1.5745 C   0  0  0  0  0  0  0  0  0  0  0  0
   -0.5656   -0.3573    0.2517 C   0  0  0  0  0  0  0  0  0  0  0  0
   -2.0666   -0.1540   -0.0024 C   0  0  0  0  0  0  0  0  0  0  0  0
   -2.3679    1.2160    0.6063 C   0  0  0  0  0  0  0  0  0  0  0  0
   -1.1452    2.0429    0.2064 C   0  0  0  0  0  0  0  0  0  0  0  0
    0.0370    1.0795    0.3883 C   0  0  0  0  0  0  0  0  0  0  0  0
    0.6862    1.1187    1.7824 C   0  0  0  0  0  0  0  0  0  0  0  0
    1.8919   -0.6599    1.5478 H   0  0  0  0  0  0  0  0  0  0  0  0
    1.1927   -0.5200    3.1602 H   0  0  0  0  0  0  0  0  0  0  0  0
   -0.0838   -2.1410    1.4478 H   0  0  0  0  0  0  0  0  0  0  0  0
   -1.0552   -0.9355    2.2833 H   0  0  0  0  0  0  0  0  0  0  0  0
   -2.6732   -0.9577    0.4192 H   0  0  0  0  0  0  0  0  0  0  0  0
   -2.2676   -0.1233   -1.0768 H   0  0  0  0  0  0  0  0  0  0  0  0
   -3.3097    1.6439    0.2609 H   0  0  0  0  0  0  0  0  0  0  0  0
   -2.4266    1.1371    1.6963 H   0  0  0  0  0  0  0  0  0  0  0  0
   -1.0313    2.9575    0.7914 H   0  0  0  0  0  0  0  0  0  0  0  0
   -1.2360    2.3365   -0.8429 H   0  0  0  0  0  0  0  0  0  0  0  0
    0.8015    1.2534   -0.3703 H   0  0  0  0  0  0  0  0  0  0  0  0
   -0.0347    1.4978    2.5147 H   0  0  0  0  0  0  0  0  0  0  0  0
    1.5579    1.7735    1.8200 H   0  0  0  0  0  0  0  0  0  0  0  0
  1  2  2  3
  1  4  1  0
  1  5  1  0
  2  3  1  0
  2  6  1  0
  3  8  1  0
  3  9  1  0
  7 12  1  0
 10 11  1  0
 10 17  1  0
 10 18  1  0
 10 19  1  0
 11 12  1  0
 11 20  1  0
 11 21  1  0
 12 13  1  0
 12 16  1  0
 13 14  1  0
 13 22  1  0
 13 23  1  0
 14 15  1  0
 14 24  1  0
 14 25  1  0
 15 16  1  0
 15 26  1  0
 15 27  1  0
 16 17  1  0
 16 28  1  0
 17 29  1  0
 17 30  1  0
M  RAD  1   3   2
M  END
>  <reaction>  (12) 
rxn_738

>  <mol_properties>  (12) 
{"1": {"label": "*0", "atom_type": "Cd"}, "2": {"label": "*1", "atom_type": "Cs"}, "6": {"label": "*2", "atom_type": "H0"}, "11": {"label": "*3", "atom_type": "Cs"}, "15": {"label": "*4", "atom_type": "Cs"}}

>  <type>  (12) 
unop_8

>  <geom_source>  (12) 
Heuristics

$$$$

     RDKit          3D

 30 30  0  0  0  0  0  0  0  0999 V2000
    1.9920   -0.9872   -3.6108 C   0  0  0  0  0  0  0  0  0  0  0  0
    1.9920   -0.9872   -2.2870 C   0  0  0  0  0  0  0  0  0  0  0  0
    1.9920    0.2350   -1.4265 C   0  0  0  0  0  3  0  0  0  0  0  0
    1.9920   -1.9099   -4.1772 H   0  0  0  0  0  0  0  0  0  0  0  0
    1.9920   -0.0616   -4.1768 H   0  0  0  0  0  0  0  0  0  0  0  0
    1.9920   -1.9398   -1.7635 H   0  0  0  0  0  0  0  0  0  0  0  0
    0.9388    0.2555   -0.6450 H   0  0  0  0  0  0  0  0  0  0  0  0
    1.9920    1.1454   -2.0271 H   0  0  0  0  0  0  0  0  0  0  0  0
    2.8697    0.2521   -0.7753 H   0  0  0  0  0  0  0  0  0  0  0  0
   -1.5028   -1.7063    0.2744 C   0  0  0  0  0  0  0  0  0  0  0  0
   -1.2763   -0.4496   -0.5618 C   0  0  0  0  0  0  0  0  0  0  0  0
   -0.1125    0.2760    0.1349 C   0  0  0  0  0  0  0  0  0  0  0  0
   -0.2557    1.8040    0.1940 C   0  0  0  0  0  0  0  0  0  0  0  0
   -0.9778    2.0622    1.5171 C   0  0  0  0  0  0  0  0  0  0  0  0
   -0.3162    1.0630    2.4669 C   0  0  0  0  0  0  0  0  0  0  0  0
   -0.1520   -0.2086    1.6214 C   0  0  0  0  0  0  0  0  0  0  0  0
   -1.3365   -1.1871    1.7002 C   0  0  0  0  0  0  0  0  0  0  0  0
   -0.7298   -2.4485    0.0530 H   0  0  0  0  0  0  0  0  0  0  0  0
   -2.4712   -2.1761    0.0955 H   0  0  0  0  0  0  0  0  0  0  0  0
   -1.0717   -0.6558   -1.6132 H   0  0  0  0  0  0  0  0  0  0  0  0
   -2.1758    0.1742   -0.5238 H   0  0  0  0  0  0  0  0  0  0  0  0
   -0.7833    2.2070   -0.6726 H   0  0  0  0  0  0  0  0  0  0  0  0
    0.7303    2.2756    0.2234 H   0  0  0  0  0  0  0  0  0  0  0  0
   -0.9006    3.0959    1.8561 H   0  0  0  0  0  0  0  0  0  0  0  0
   -2.0428    1.8323    1.4138 H   0  0  0  0  0  0  0  0  0  0  0  0
   -0.8910    0.8863    3.3780 H   0  0  0  0  0  0  0  0  0  0  0  0
    0.6627    1.4459    2.7684 H   0  0  0  0  0  0  0  0  0  0  0  0
    0.7676   -0.7343    1.8829 H   0  0  0  0  0  0  0  0  0  0  0  0
   -2.2427   -0.6466    1.9937 H   0  0  0  0  0  0  0  0  0  0  0  0
   -1.1794   -1.9762    2.4367 H   0  0  0  0  0  0  0  0  0  0  0  0
  1  2  2  3
  1  4  1  0
  1  5  1  0
  2  3  1  0
  2  6  1  0
  3  8  1  0
  3  9  1  0
  7 12  1  0
 10 11  1  0
 10 17  1  0
 10 18  1  0
 10 19  1  0
 11 12  1  0
 11 20  1  0
 11 21  1  0
 12 13  1  0
 12 16  1  0
 13 14  1  0
 13 22  1  0
 13 23  1  0
 14 15  1  0
 14 24  1  0
 14 25  1  0
 15 16  1  0
 15 26  1  0
 15 27  1  0
 16 17  1  0
 16 28  1  0
 17 29  1  0
 17 30  1  0
M  RAD  1   3   2
M  END
>  <reaction>  (13) 
rxn_738

>  <mol_properties>  (13) 
{"1": {"label": "*0", "atom_type": "Cd"}, "2": {"label": "*1", "atom_type": "Cs"}, "6": {"label": "*2", "atom_type": "H0"}, "11": {"label": "*3", "atom_type": "Cs"}, "15": {"label": "*4", "atom_type": "Cs"}}

>  <type>  (13) 
unop_9

>  <geom_source>  (13) 
Heuristics

$$$$

     RDKit          3D

 30 30  0  0  0  0  0  0  0  0999 V2000
    1.4896   -1.3692   -3.7003 C   0  0  0  0  0  0  0  0  0  0  0  0
    1.4896   -1.3692   -2.3765 C   0  0  0  0  0  0  0  0  0  0  0  0
    1.4896   -0.1471   -1.5160 C   0  0  0  0  0  3  0  0  0  0  0  0
    1.4896   -2.2920   -4.2668 H   0  0  0  0  0  0  0  0  0  0  0  0
    1.4896   -0.4436   -4.2663 H   0  0  0  0  0  0  0  0  0  0  0  0
    1.4896   -2.3219   -1.8530 H   0  0  0  0  0  0  0  0  0  0  0  0
    0.4364   -0.1265   -0.7346 H   0  0  0  0  0  0  0  0  0  0  0  0
    1.4896    0.7634   -2.1166 H   0  0  0  0  0  0  0  0  0  0  0  0
    2.3673   -0.1299   -0.8648 H   0  0  0  0  0  0  0  0  0  0  0  0
    0.6652   -1.2045    1.7881 C   0  0  0  0  0  0  0  0  0  0  0  0
   -0.6015   -1.3509    0.9490 C   0  0  0  0  0  0  0  0  0  0  0  0
   -0.6149   -0.1060    0.0454 C   0  0  0  0  0  0  0  0  0  0  0  0
   -2.0024    0.5195   -0.1602 C   0  0  0  0  0  0  0  0  0  0  0  0
   -2.1196    1.5499    0.9637 C   0  0  0  0  0  0  0  0  0  0  0  0
   -0.7205    2.1655    1.0088 C   0  0  0  0  0  0  0  0  0  0  0  0
    0.2235    0.9704    0.8099 C   0  0  0  0  0  0  0  0  0  0  0  0
    0.6742    0.2871    2.1124 C   0  0  0  0  0  0  0  0  0  0  0  0
    1.5437   -1.4635    1.1893 H   0  0  0  0  0  0  0  0  0  0  0  0
    0.6722   -1.8399    2.6750 H   0  0  0  0  0  0  0  0  0  0  0  0
   -0.6437   -2.2811    0.3808 H   0  0  0  0  0  0  0  0  0  0  0  0
   -1.4743   -1.3363    1.6105 H   0  0  0  0  0  0  0  0  0  0  0  0
   -2.8009   -0.2248   -0.1498 H   0  0  0  0  0  0  0  0  0  0  0  0
   -2.0472    1.0319   -1.1252 H   0  0  0  0  0  0  0  0  0  0  0  0
   -2.9086    2.2838    0.7955 H   0  0  0  0  0  0  0  0  0  0  0  0
   -2.3388    1.0477    1.9110 H   0  0  0  0  0  0  0  0  0  0  0  0
   -0.5164    2.7085    1.9335 H   0  0  0  0  0  0  0  0  0  0  0  0
   -0.6119    2.8748    0.1837 H   0  0  0  0  0  0  0  0  0  0  0  0
    1.1024    1.2602    0.2321 H   0  0  0  0  0  0  0  0  0  0  0  0
   -0.0545    0.4868    2.9053 H   0  0  0  0  0  0  0  0  0  0  0  0
    1.6404    0.6516    2.4637 H   0  0  0  0  0  0  0  0  0  0  0  0
  1  2  2  3
  1  4  1  0
  1  5  1  0
  2  3  1  0
  2  6  1  0
  3  8  1  0
  3  9  1  0
  7 12  1  0
 10 11  1  0
 10 17  1  0
 10 18  1  0
 10 19  1  0
 11 12  1  0
 11 20  1  0
 11 21  1  0
 12 13  1  0
 12 16  1  0
 13 14  1  0
 13 22  1  0
 13 23  1  0
 14 15  1  0
 14 24  1  0
 14 25  1  0
 15 16  1  0
 15 26  1  0
 15 27  1  0
 16 17  1  0
 16 28  1  0
 17 29  1  0
 17 30  1  0
M  RAD  1   3   2
M  END
>  <reaction>  (14) 
rxn_738

>  <mol_properties>  (14) 
{"1": {"label": "*0", "atom_type": "Cd"}, "2": {"label": "*1", "atom_type": "Cs"}, "6": {"label": "*2", "atom_type": "H0"}, "11": {"label": "*3", "atom_type": "Cs"}, "15": {"label": "*4", "atom_type": "Cs"}}

>  <type>  (14) 
unop_10

>  <geom_source>  (14) 
Heuristics

$$$$

     RDKit          3D

 30 30  0  0  0  0  0  0  0  0999 V2000
    2.1211   -0.9137   -3.4599 C   0  0  0  0  0  0  0  0  0  0  0  0
    2.1211   -0.9137   -2.1362 C   0  0  0  0  0  0  0  0  0  0  0  0
    2.1211    0.3085   -1.2756 C   0  0  0  0  0  3  0  0  0  0  0  0
    2.1211   -1.8364   -4.0264 H   0  0  0  0  0  0  0  0  0  0  0  0
    2.1211    0.0119   -4.0259 H   0  0  0  0  0  0  0  0  0  0  0  0
    2.1211   -1.8663   -1.6126 H   0  0  0  0  0  0  0  0  0  0  0  0
    1.0678    0.3291   -0.4942 H   0  0  0  0  0  0  0  0  0  0  0  0
    2.1211    1.2190   -1.8762 H   0  0  0  0  0  0  0  0  0  0  0  0
    2.9988    0.3256   -0.6244 H   0  0  0  0  0  0  0  0  0  0  0  0
   -1.8199    1.9201    0.0779 C   0  0  0  0  0  0  0  0  0  0  0  0
   -0.3785    1.8093    0.5679 C   0  0  0  0  0  0  0  0  0  0  0  0
    0.0165    0.3496    0.2858 C   0  0  0  0  0  0  0  0  0  0  0  0
    0.8688   -0.3053    1.3829 C   0  0  0  0  0  0  0  0  0  0  0  0
   -0.1550   -0.9475    2.3199 C   0  0  0  0  0  0  0  0  0  0  0  0
   -1.1884   -1.5243    1.3515 C   0  0  0  0  0  0  0  0  0  0  0  0
   -1.3289   -0.4476    0.2653 C   0  0  0  0  0  0  0  0  0  0  0  0
   -2.4258    0.5962    0.5366 C   0  0  0  0  0  0  0  0  0  0  0  0
   -1.8409    1.9837   -1.0143 H   0  0  0  0  0  0  0  0  0  0  0  0
   -2.3435    2.7938    0.4688 H   0  0  0  0  0  0  0  0  0  0  0  0
    0.2984    2.5244    0.0984 H   0  0  0  0  0  0  0  0  0  0  0  0
   -0.3502    1.9975    1.6464 H   0  0  0  0  0  0  0  0  0  0  0  0
    1.5248    0.4094    1.8834 H   0  0  0  0  0  0  0  0  0  0  0  0
    1.5038   -1.0852    0.9538 H   0  0  0  0  0  0  0  0  0  0  0  0
    0.2783   -1.6959    2.9844 H   0  0  0  0  0  0  0  0  0  0  0  0
   -0.6182   -0.1819    2.9500 H   0  0  0  0  0  0  0  0  0  0  0  0
   -2.1414   -1.7629    1.8275 H   0  0  0  0  0  0  0  0  0  0  0  0
   -0.7996   -2.4500    0.9186 H   0  0  0  0  0  0  0  0  0  0  0  0
   -1.4967   -0.9007   -0.7129 H   0  0  0  0  0  0  0  0  0  0  0  0
   -2.6287    0.6474    1.6117 H   0  0  0  0  0  0  0  0  0  0  0  0
   -3.3672    0.3524    0.0425 H   0  0  0  0  0  0  0  0  0  0  0  0
  1  2  2  3
  1  4  1  0
  1  5  1  0
  2  3  1  0
  2  6  1  0
  3  8  1  0
  3  9  1  0
  7 12  1  0
 10 11  1  0
 10 17  1  0
 10 18  1  0
 10 19  1  0
 11 12  1  0
 11 20  1  0
 11 21  1  0
 12 13  1  0
 12 16  1  0
 13 14  1  0
 13 22  1  0
 13 23  1  0
 14 15  1  0
 14 24  1  0
 14 25  1  0
 15 16  1  0
 15 26  1  0
 15 27  1  0
 16 17  1  0
 16 28  1  0
 17 29  1  0
 17 30  1  0
M  RAD  1   3   2
M  END
>  <reaction>  (15) 
rxn_738

>  <mol_properties>  (15) 
{"1": {"label": "*0", "atom_type": "Cd"}, "2": {"label": "*1", "atom_type": "Cs"}, "6": {"label": "*2", "atom_type": "H0"}, "11": {"label": "*3", "atom_type": "Cs"}, "15": {"label": "*4", "atom_type": "Cs"}}

>  <type>  (15) 
unop_11

>  <geom_source>  (15) 
Heuristics

$$$$

     RDKit          3D

 30 30  0  0  0  0  0  0  0  0999 V2000
    1.8239   -0.9529   -3.7116 C   0  0  0  0  0  0  0  0  0  0  0  0
    1.8239   -0.9529   -2.3879 C   0  0  0  0  0  0  0  0  0  0  0  0
    1.8239    0.2693   -1.5273 C   0  0  0  0  0  3  0  0  0  0  0  0
    1.8239   -1.8756   -4.2781 H   0  0  0  0  0  0  0  0  0  0  0  0
    1.8239   -0.0273   -4.2776 H   0  0  0  0  0  0  0  0  0  0  0  0
    1.8239   -1.9055   -1.8643 H   0  0  0  0  0  0  0  0  0  0  0  0
    0.7706    0.2898   -0.7459 H   0  0  0  0  0  0  0  0  0  0  0  0
    1.8239    1.1797   -2.1279 H   0  0  0  0  0  0  0  0  0  0  0  0
    2.7016    0.2864   -0.8761 H   0  0  0  0  0  0  0  0  0  0  0  0
   -0.6650   -1.9527    0.8171 C   0  0  0  0  0  0  0  0  0  0  0  0
   -1.1325   -0.9435   -0.2283 C   0  0  0  0  0  0  0  0  0  0  0  0
   -0.2806    0.3103    0.0341 C   0  0  0  0  0  0  0  0  0  0  0  0
   -1.0393    1.6386   -0.1029 C   0  0  0  0  0  0  0  0  0  0  0  0
   -1.5665    1.9165    1.3055 C   0  0  0  0  0  0  0  0  0  0  0  0
   -0.3958    1.4984    2.1961 C   0  0  0  0  0  0  0  0  0  0  0  0
    0.1402    0.2186    1.5376 C   0  0  0  0  0  0  0  0  0  0  0  0
   -0.4921   -1.0830    2.0596 C   0  0  0  0  0  0  0  0  0  0  0  0
    0.2979   -2.3802    0.5215 H   0  0  0  0  0  0  0  0  0  0  0  0
   -1.3619   -2.7797    0.9617 H   0  0  0  0  0  0  0  0  0  0  0  0
   -1.0423   -1.3038   -1.2539 H   0  0  0  0  0  0  0  0  0  0  0  0
   -2.1898   -0.7136   -0.0582 H   0  0  0  0  0  0  0  0  0  0  0  0
   -1.8261    1.5932   -0.8582 H   0  0  0  0  0  0  0  0  0  0  0  0
   -0.3529    2.4380   -0.3951 H   0  0  0  0  0  0  0  0  0  0  0  0
   -1.8736    2.9522    1.4546 H   0  0  0  0  0  0  0  0  0  0  0  0
   -2.4372    1.2861    1.5107 H   0  0  0  0  0  0  0  0  0  0  0  0
   -0.6793    1.3433    3.2388 H   0  0  0  0  0  0  0  0  0  0  0  0
    0.3677    2.2810    2.1790 H   0  0  0  0  0  0  0  0  0  0  0  0
    1.2252    0.1560    1.6338 H   0  0  0  0  0  0  0  0  0  0  0  0
   -1.4770   -0.8689    2.4882 H   0  0  0  0  0  0  0  0  0  0  0  0
    0.1043   -1.5536    2.8424 H   0  0  0  0  0  0  0  0  0  0  0  0
  1  2  2  3
  1  4  1  0
  1  5  1  0
  2  3  1  0
  2  6  1  0
  3  8  1  0
  3  9  1  0
  7 12  1  0
 10 11  1  0
 10 17  1  0
 10 18  1  0
 10 19  1  0
 11 12  1  0
 11 20  1  0
 11 21  1  0
 12 13  1  0
 12 16  1  0
 13 14  1  0
 13 22  1  0
 13 23  1  0
 14 15  1  0
 14 24  1  0
 14 25  1  0
 15 16  1  0
 15 26  1  0
 15 27  1  0
 16 17  1  0
 16 28  1  0
 17 29  1  0
 17 30  1  0
M  RAD  1   3   2
M  END
>  <reaction>  (16) 
rxn_738

>  <mol_properties>  (16) 
{"1": {"label": "*0", "atom_type": "Cd"}, "2": {"label": "*1", "atom_type": "Cs"}, "6": {"label": "*2", "atom_type": "H0"}, "11": {"label": "*3", "atom_type": "Cs"}, "15": {"label": "*4", "atom_type": "Cs"}}

>  <type>  (16) 
unop_12

>  <geom_source>  (16) 
Heuristics

$$$$

     RDKit          3D

 30 30  0  0  0  0  0  0  0  0999 V2000
   -0.1834    0.2011    0.3625 C   0  0  0  0  0  0  0  0  0  0  0  0
   -1.3185   -0.2569   -0.5477 C   0  0  0  0  0  0  0  0  0  0  0  0
   -0.3486   -0.5438    1.6902 C   0  0  0  0  0  0  0  0  0  0  0  0
   -2.1470   -1.2683    0.2516 C   0  0  0  0  0  0  0  0  0  0  0  0
   -0.2828    1.7255    0.4663 C   0  0  0  0  0  0  0  0  0  0  0  0
   -2.0812    1.0022   -0.9730 C   0  0  0  0  0  0  0  0  0  0  0  0
   -1.2348   -1.7361    1.3729 C   0  0  0  0  0  0  0  0  0  0  0  0
   -1.1220    2.1542   -0.7252 C   0  0  0  0  0  0  0  0  0  0  0  0
    3.1441   -0.8072   -1.0047 C   0  0  0  0  0  0  0  0  0  0  0  0
    1.9599    0.0992   -1.1098 C   0  0  0  0  0  0  0  0  0  0  0  0
    3.8241   -0.9134    0.1379 C   0  0  0  0  0  3  0  0  0  0  0  0
    0.9721   -0.1295   -0.1882 H   0  0  0  0  0  0  0  0  0  0  0  0
   -0.8833   -0.7531   -1.4442 H   0  0  0  0  0  0  0  0  0  0  0  0
   -0.8535    0.0813    2.4587 H   0  0  0  0  0  0  0  0  0  0  0  0
    0.6364   -0.8733    2.0844 H   0  0  0  0  0  0  0  0  0  0  0  0
   -0.6076   -2.5827    1.0150 H   0  0  0  0  0  0  0  0  0  0  0  0
   -1.8163   -2.0603    2.2632 H   0  0  0  0  0  0  0  0  0  0  0  0
   -2.4633   -2.1217   -0.3865 H   0  0  0  0  0  0  0  0  0  0  0  0
   -3.0514   -0.8026    0.7003 H   0  0  0  0  0  0  0  0  0  0  0  0
    0.7253    2.1912    0.4316 H   0  0  0  0  0  0  0  0  0  0  0  0
   -0.7965    2.0473    1.3984 H   0  0  0  0  0  0  0  0  0  0  0  0
   -2.3742    0.9516   -2.0440 H   0  0  0  0  0  0  0  0  0  0  0  0
   -2.9945    1.1622   -0.3593 H   0  0  0  0  0  0  0  0  0  0  0  0
   -1.6666    3.1015   -0.5207 H   0  0  0  0  0  0  0  0  0  0  0  0
   -0.4663    2.2914   -1.6137 H   0  0  0  0  0  0  0  0  0  0  0  0
    3.4465   -1.3958   -1.8659 H   0  0  0  0  0  0  0  0  0  0  0  0
    1.4965    0.0026   -2.1138 H   0  0  0  0  0  0  0  0  0  0  0  0
    2.2727    1.1529   -0.9522 H   0  0  0  0  0  0  0  0  0  0  0  0
    3.5363   -0.3398    1.0141 H   0  0  0  0  0  0  0  0  0  0  0  0
    4.6781   -1.5798    0.2018 H   0  0  0  0  0  0  0  0  0  0  0  0
  1  3  1  0
  1  5  1  0
  1  2  1  0
  1 12  1  0
  2  4  1  0
  2  6  1  0
  2 13  1  0
  3  7  1  0
  3 14  1  0
  3 15  1  0
  4  7  1  0
  4 18  1  0
  4 19  1  0
  5  8  1  0
  5 20  1  0
  5 21  1  0
  6  8  1  0
  6 22  1  0
  6 23  1  0
  7 16  1  0
  7 17  1  0
  8 24  1  0
  8 25  1  0
  9 10  2  3
  9 11  1  0
  9 26  1  0
 10 27  1  0
 10 28  1  0
 11 29  1  0
 11 30  1  0
M  RAD  1  11   2
M  END
>  <reaction>  (17) 
rxn_738

>  <mol_properties>  (17) 
{"1": {"label": "*0", "atom_type": "Cd"}, "2": {"label": "*1", "atom_type": "Cs"}, "6": {"label": "*2", "atom_type": "H0"}, "11": {"label": "*3", "atom_type": "Cs"}, "15": {"label": "*4", "atom_type": "Cs"}}

>  <type>  (17) 
unop_13

>  <geom_source>  (17) 
AutoTST

$$$$
