
     RDKit          3D

  7  7  0  0  0  0  0  0  0  0999 V2000
   -0.2697    0.7649    0.0640 C   0  0  0  0  0  0  0  0  0  0  0  0
   -0.5205   -0.6227   -0.0575 C   0  0  0  0  0  0  0  0  0  0  0  0
    0.6182   -1.2406   -0.1024 N   0  0  0  0  0  0  0  0  0  0  0  0
    1.5618   -0.2812   -0.0128 O   0  0  0  0  0  0  0  0  0  0  0  0
    1.0136    0.9469    0.0891 N   0  0  0  0  0  0  0  0  0  0  0  0
   -0.9525    1.5949    0.1305 H   0  0  0  0  0  0  0  0  0  0  0  0
   -1.4508   -1.1622   -0.1109 H   0  0  0  0  0  0  0  0  0  0  0  0
  1  2  1  0
  1  5  2  0
  1  6  1  0
  2  3  2  0
  2  7  1  0
  3  4  1  0
  4  5  1  0
M  END
>  <reaction>  (1) 
rxn_3178

>  <mol_properties>  (1) 
{"0": {"label": "donator", "atom_type": "Cd"}, "5": {"label": "d_hydrogen", "atom_type": "H0"}}

>  <type>  (1) 
r1h

$$$$

     RDKit          3D

  6  6  0  0  0  0  0  0  0  0999 V2000
    1.9594    0.0134   -0.3734 N   0  0  0  0  0  2  0  0  0  0  0  0
    0.7437    0.0051   -0.0788 C   0  0  0  0  0  0  0  0  0  0  0  0
   -0.0745    1.0868    0.0233 O   0  0  0  0  0  0  0  0  0  0  0  0
   -1.3223    0.5972    0.3682 N   0  0  0  0  0  0  0  0  0  0  0  0
   -1.2899   -0.6150    0.4676 N   0  0  0  0  0  0  0  0  0  0  0  0
   -0.0165   -1.0874    0.2015 O   0  0  0  0  0  0  0  0  0  0  0  0
  1  2  2  0
  2  3  1  0
  2  6  1  0
  3  4  1  0
  4  5  2  0
  5  6  1  0
M  RAD  1   1   2
M  END
>  <reaction>  (2) 
rxn_3178

>  <mol_properties>  (2) 
{"0": {"label": "acceptor", "atom_type": "N3d"}}

>  <type>  (2) 
r2

$$$$

     RDKit          3D

  7  7  0  0  0  0  0  0  0  0999 V2000
    1.6064   -0.4313    0.1905 N   0  0  0  0  0  0  0  0  0  0  0  0
    0.3982   -0.1725    0.0701 C   0  0  0  0  0  0  0  0  0  0  0  0
   -0.6051   -1.0481    0.3497 O   0  0  0  0  0  0  0  0  0  0  0  0
   -1.7906   -0.4044    0.0958 N   0  0  0  0  0  0  0  0  0  0  0  0
   -1.5819    0.7348   -0.2956 N   0  0  0  0  0  0  0  0  0  0  0  0
   -0.2229    0.9708   -0.3436 O   0  0  0  0  0  0  0  0  0  0  0  0
    2.1958    0.3506   -0.0669 H   0  0  0  0  0  0  0  0  0  0  0  0
  1  2  2  3
  1  7  1  0
  2  3  1  0
  2  6  1  0
  3  4  1  0
  4  5  2  0
  5  6  1  0
M  END
>  <reaction>  (3) 
rxn_3178

>  <mol_properties>  (3) 
{"0": {"label": "acceptor", "atom_type": "N3d"}, "6": {"label": "a_hydrogen", "atom_type": "H0"}}

>  <type>  (3) 
r2h

$$$$

     RDKit          3D

 13 13  0  0  0  0  0  0  0  0999 V2000
    1.0626   -0.5018    1.0563 N   0  0  0  0  0  0  0  0  0  0  0  0
    0.2605   -1.4413    0.8552 C   0  0  0  0  0  0  0  0  0  0  0  0
    0.3792   -2.6660    1.4263 O   0  0  0  0  0  0  0  0  0  0  0  0
   -0.6770   -3.4248    0.9681 N   0  0  0  0  0  0  0  0  0  0  0  0
   -1.3704   -2.7688    0.2090 N   0  0  0  0  0  0  0  0  0  0  0  0
   -0.8497   -1.4944    0.0770 O   0  0  0  0  0  0  0  0  0  0  0  0
    0.1774    1.4663   -0.3402 C   0  0  0  0  0  0  0  0  0  0  0  0
    0.7860    2.1920   -1.3949 C   0  0  0  0  0  0  0  0  0  0  0  0
   -0.0807    3.0596   -1.8138 N   0  0  0  0  0  2  0  0  0  0  0  0
   -1.1897    2.8876   -1.0592 O   0  0  0  0  0  0  0  0  0  0  0  0
   -1.0152    1.8895   -0.1461 N   0  0  0  0  0  0  0  0  0  0  0  0
    0.7490    0.4395    0.4785 H   0  0  0  0  0  0  0  0  0  0  0  0
    1.7681    2.1128   -1.8275 H   0  0  0  0  0  0  0  0  0  0  0  0
  1  2  2  3
  1 12  1  0
  2  3  1  0
  2  6  1  0
  3  4  1  0
  4  5  2  0
  5  6  1  0
  7  8  2  0
  7 11  2  0
  8  9  1  0
  8 13  1  0
  9 10  1  0
 10 11  1  0
M  RAD  1   9   2
M  END
>  <reaction>  (4) 
rxn_3178

>  <mol_properties>  (4) 
{"0": {"label": "*1", "atom_type": "N3d"}, "1": {"label": "*0", "atom_type": "Cd"}, "6": {"label": "*3", "atom_type": "Cdd"}, "10": {"label": "*4", "atom_type": "N3d"}, "11": {"label": "*2", "atom_type": "H0"}}

>  <type>  (4) 
ts

$$$$

     RDKit          3D

 13 13  0  0  0  0  0  0  0  0999 V2000
   -0.8816   -1.2742    0.3522 N   0  0  0  0  0  0  0  0  0  0  0  0
    0.1125   -1.2618    1.0958 C   0  0  0  0  0  0  0  0  0  0  0  0
    0.0723   -1.5061    2.4338 O   0  0  0  0  0  0  0  0  0  0  0  0
    1.3572   -1.4030    2.9058 N   0  0  0  0  0  0  0  0  0  0  0  0
    2.1252   -1.1288    1.9952 N   0  0  0  0  0  0  0  0  0  0  0  0
    1.4255   -1.0196    0.8105 O   0  0  0  0  0  0  0  0  0  0  0  0
   -0.8816    0.6340   -1.2740 C   0  0  0  0  0  0  0  0  0  0  0  0
   -0.8816    0.6340   -2.6892 C   0  0  0  0  0  0  0  0  0  0  0  0
   -0.8816    1.8644   -3.0972 N   0  0  0  0  0  2  0  0  0  0  0  0
   -0.8816    2.6223   -1.9816 O   0  0  0  0  0  0  0  0  0  0  0  0
   -0.8816    1.8644   -0.8660 N   0  0  0  0  0  0  0  0  0  0  0  0
   -0.8816   -0.3495   -0.4358 H   0  0  0  0  0  0  0  0  0  0  0  0
   -0.8816   -0.1856   -3.3877 H   0  0  0  0  0  0  0  0  0  0  0  0
  1  2  2  3
  1 12  1  0
  2  3  1  0
  2  6  1  0
  3  4  1  0
  4  5  2  0
  5  6  1  0
  7  8  2  0
  7 11  2  0
  8  9  1  0
  8 13  1  0
  9 10  1  0
 10 11  1  0
M  RAD  1   9   2
M  END
>  <reaction>  (5) 
rxn_3178

>  <mol_properties>  (5) 
{"0": {"label": "*1", "atom_type": "N3d"}, "1": {"label": "*0", "atom_type": "Cd"}, "6": {"label": "*3", "atom_type": "Cdd"}, "10": {"label": "*4", "atom_type": "N3d"}, "11": {"label": "*2", "atom_type": "H0"}}

>  <type>  (5) 
unop_1

>  <geom_source>  (5) 
Heuristics

$$$$

     RDKit          3D

 13 13  0  0  0  0  0  0  0  0999 V2000
   -0.5215   -0.3514    1.4264 N   0  0  0  0  0  0  0  0  0  0  0  0
    0.0524   -1.3561    0.9765 C   0  0  0  0  0  0  0  0  0  0  0  0
    0.5212   -2.3786    1.7422 O   0  0  0  0  0  0  0  0  0  0  0  0
    1.0872   -3.2972    0.8935 N   0  0  0  0  0  0  0  0  0  0  0  0
    0.9965   -2.9193   -0.2655 N   0  0  0  0  0  0  0  0  0  0  0  0
    0.3547   -1.6982   -0.3101 O   0  0  0  0  0  0  0  0  0  0  0  0
   -0.5215    1.5568   -0.1998 C   0  0  0  0  0  0  0  0  0  0  0  0
   -0.5215    1.5568   -1.6150 C   0  0  0  0  0  0  0  0  0  0  0  0
   -0.5215    2.7873   -2.0230 N   0  0  0  0  0  2  0  0  0  0  0  0
   -0.5215    3.5452   -0.9074 O   0  0  0  0  0  0  0  0  0  0  0  0
   -0.5215    2.7873    0.2082 N   0  0  0  0  0  0  0  0  0  0  0  0
   -0.5215    0.5733    0.6384 H   0  0  0  0  0  0  0  0  0  0  0  0
   -0.5215    0.7372   -2.3135 H   0  0  0  0  0  0  0  0  0  0  0  0
  1  2  2  3
  1 12  1  0
  2  3  1  0
  2  6  1  0
  3  4  1  0
  4  5  2  0
  5  6  1  0
  7  8  2  0
  7 11  2  0
  8  9  1  0
  8 13  1  0
  9 10  1  0
 10 11  1  0
M  RAD  1   9   2
M  END
>  <reaction>  (6) 
rxn_3178

>  <mol_properties>  (6) 
{"0": {"label": "*1", "atom_type": "N3d"}, "1": {"label": "*0", "atom_type": "Cd"}, "6": {"label": "*3", "atom_type": "Cdd"}, "10": {"label": "*4", "atom_type": "N3d"}, "11": {"label": "*2", "atom_type": "H0"}}

>  <type>  (6) 
unop_2

>  <geom_source>  (6) 
Heuristics

$$$$

     RDKit          3D

 13 13  0  0  0  0  0  0  0  0999 V2000
   -0.5008   -1.5096    0.0714 N   0  0  0  0  0  0  0  0  0  0  0  0
    0.0732   -1.2247    1.1348 C   0  0  0  0  0  0  0  0  0  0  0  0
   -0.2725   -1.7271    2.3511 O   0  0  0  0  0  0  0  0  0  0  0  0
    0.5846   -1.1834    3.2753 N   0  0  0  0  0  0  0  0  0  0  0  0
    1.3780   -0.4304    2.7297 N   0  0  0  0  0  0  0  0  0  0  0  0
    1.1299   -0.3936    1.3725 O   0  0  0  0  0  0  0  0  0  0  0  0
   -0.5008    0.3986   -1.5548 C   0  0  0  0  0  0  0  0  0  0  0  0
   -0.5008    0.3986   -2.9700 C   0  0  0  0  0  0  0  0  0  0  0  0
   -0.5008    1.6290   -3.3780 N   0  0  0  0  0  2  0  0  0  0  0  0
   -0.5008    2.3869   -2.2624 O   0  0  0  0  0  0  0  0  0  0  0  0
   -0.5008    1.6290   -1.1468 N   0  0  0  0  0  0  0  0  0  0  0  0
   -0.5008   -0.5849   -0.7166 H   0  0  0  0  0  0  0  0  0  0  0  0
   -0.5008   -0.4210   -3.6685 H   0  0  0  0  0  0  0  0  0  0  0  0
  1  2  2  3
  1 12  1  0
  2  3  1  0
  2  6  1  0
  3  4  1  0
  4  5  2  0
  5  6  1  0
  7  8  2  0
  7 11  2  0
  8  9  1  0
  8 13  1  0
  9 10  1  0
 10 11  1  0
M  RAD  1   9   2
M  END
>  <reaction>  (7) 
rxn_3178

>  <mol_properties>  (7) 
{"0": {"label": "*1", "atom_type": "N3d"}, "1": {"label": "*0", "atom_type": "Cd"}, "6": {"label": "*3", "atom_type": "Cdd"}, "10": {"label": "*4", "atom_type": "N3d"}, "11": {"label": "*2", "atom_type": "H0"}}

>  <type>  (7) 
unop_3

>  <geom_source>  (7) 
Heuristics

$$$$

     RDKit          3D

 13 13  0  0  0  0  0  0  0  0999 V2000
    0.8983   -0.6028    1.1359 N   0  0  0  0  0  0  0  0  0  0  0  0
   -0.0959   -1.3350    1.0057 C   0  0  0  0  0  0  0  0  0  0  0  0
   -0.7096   -1.9842    2.0321 O   0  0  0  0  0  0  0  0  0  0  0  0
   -1.7607   -2.6879    1.4990 N   0  0  0  0  0  0  0  0  0  0  0  0
   -1.8189   -2.5167    0.2900 N   0  0  0  0  0  0  0  0  0  0  0  0
   -0.8031   -1.6732   -0.1120 O   0  0  0  0  0  0  0  0  0  0  0  0
    0.8983    1.3054   -0.4903 C   0  0  0  0  0  0  0  0  0  0  0  0
    0.8983    1.3054   -1.9056 C   0  0  0  0  0  0  0  0  0  0  0  0
    0.8983    2.5358   -2.3135 N   0  0  0  0  0  2  0  0  0  0  0  0
    0.8983    3.2937   -1.1980 O   0  0  0  0  0  0  0  0  0  0  0  0
    0.8983    2.5358   -0.0824 N   0  0  0  0  0  0  0  0  0  0  0  0
    0.8983    0.3219    0.3478 H   0  0  0  0  0  0  0  0  0  0  0  0
    0.8983    0.4858   -2.6041 H   0  0  0  0  0  0  0  0  0  0  0  0
  1  2  2  3
  1 12  1  0
  2  3  1  0
  2  6  1  0
  3  4  1  0
  4  5  2  0
  5  6  1  0
  7  8  2  0
  7 11  2  0
  8  9  1  0
  8 13  1  0
  9 10  1  0
 10 11  1  0
M  RAD  1   9   2
M  END
>  <reaction>  (8) 
rxn_3178

>  <mol_properties>  (8) 
{"0": {"label": "*1", "atom_type": "N3d"}, "1": {"label": "*0", "atom_type": "Cd"}, "6": {"label": "*3", "atom_type": "Cdd"}, "10": {"label": "*4", "atom_type": "N3d"}, "11": {"label": "*2", "atom_type": "H0"}}

>  <type>  (8) 
unop_4

>  <geom_source>  (8) 
Heuristics

$$$$

     RDKit          3D

 13 13  0  0  0  0  0  0  0  0999 V2000
    0.0000   -1.5898   -0.0290 N   0  0  0  0  0  0  0  0  0  0  0  0
    0.0000   -1.2051    1.1514 C   0  0  0  0  0  0  0  0  0  0  0  0
    0.0000   -2.0363    2.2287 O   0  0  0  0  0  0  0  0  0  0  0  0
    0.0000   -1.2477    3.3522 N   0  0  0  0  0  0  0  0  0  0  0  0
    0.0000   -0.0650    3.0429 N   0  0  0  0  0  0  0  0  0  0  0  0
   -0.0000    0.0585    1.6682 O   0  0  0  0  0  0  0  0  0  0  0  0
   -0.0000    0.3184   -1.6552 C   0  0  0  0  0  0  0  0  0  0  0  0
   -0.0000    0.3184   -3.0704 C   0  0  0  0  0  0  0  0  0  0  0  0
   -0.0000    1.5488   -3.4784 N   0  0  0  0  0  2  0  0  0  0  0  0
   -0.0000    2.3067   -2.3628 O   0  0  0  0  0  0  0  0  0  0  0  0
   -0.0000    1.5488   -1.2472 N   0  0  0  0  0  0  0  0  0  0  0  0
    0.0000   -0.6651   -0.8170 H   0  0  0  0  0  0  0  0  0  0  0  0
   -0.0000   -0.5012   -3.7689 H   0  0  0  0  0  0  0  0  0  0  0  0
  1  2  2  3
  1 12  1  0
  2  3  1  0
  2  6  1  0
  3  4  1  0
  4  5  2  0
  5  6  1  0
  7  8  2  0
  7 11  2  0
  8  9  1  0
  8 13  1  0
  9 10  1  0
 10 11  1  0
M  RAD  1   9   2
M  END
>  <reaction>  (9) 
rxn_3178

>  <mol_properties>  (9) 
{"0": {"label": "*1", "atom_type": "N3d"}, "1": {"label": "*0", "atom_type": "Cd"}, "6": {"label": "*3", "atom_type": "Cdd"}, "10": {"label": "*4", "atom_type": "N3d"}, "11": {"label": "*2", "atom_type": "H0"}}

>  <type>  (9) 
unop_5

>  <geom_source>  (9) 
Heuristics

$$$$

     RDKit          3D

 13 13  0  0  0  0  0  0  0  0999 V2000
    1.0291   -0.9415    0.7420 N   0  0  0  0  0  0  0  0  0  0  0  0
   -0.1188   -1.3014    1.0487 C   0  0  0  0  0  0  0  0  0  0  0  0
   -0.5080   -1.6298    2.3106 O   0  0  0  0  0  0  0  0  0  0  0  0
   -1.8359   -1.9724    2.2516 N   0  0  0  0  0  0  0  0  0  0  0  0
   -2.2500   -1.8782    1.1052 N   0  0  0  0  0  0  0  0  0  0  0  0
   -1.2314   -1.4591    0.2734 O   0  0  0  0  0  0  0  0  0  0  0  0
    1.0291    0.9667   -0.8842 C   0  0  0  0  0  0  0  0  0  0  0  0
    1.0291    0.9667   -2.2994 C   0  0  0  0  0  0  0  0  0  0  0  0
    1.0291    2.1971   -2.7074 N   0  0  0  0  0  2  0  0  0  0  0  0
    1.0291    2.9550   -1.5918 O   0  0  0  0  0  0  0  0  0  0  0  0
    1.0291    2.1971   -0.4762 N   0  0  0  0  0  0  0  0  0  0  0  0
    1.0291   -0.0168   -0.0460 H   0  0  0  0  0  0  0  0  0  0  0  0
    1.0291    0.1471   -2.9979 H   0  0  0  0  0  0  0  0  0  0  0  0
  1  2  2  3
  1 12  1  0
  2  3  1  0
  2  6  1  0
  3  4  1  0
  4  5  2  0
  5  6  1  0
  7  8  2  0
  7 11  2  0
  8  9  1  0
  8 13  1  0
  9 10  1  0
 10 11  1  0
M  RAD  1   9   2
M  END
>  <reaction>  (10) 
rxn_3178

>  <mol_properties>  (10) 
{"0": {"label": "*1", "atom_type": "N3d"}, "1": {"label": "*0", "atom_type": "Cd"}, "6": {"label": "*3", "atom_type": "Cdd"}, "10": {"label": "*4", "atom_type": "N3d"}, "11": {"label": "*2", "atom_type": "H0"}}

>  <type>  (10) 
unop_6

>  <geom_source>  (10) 
Heuristics

$$$$

     RDKit          3D

 13 13  0  0  0  0  0  0  0  0999 V2000
    0.8816   -1.2742    0.3522 N   0  0  0  0  0  0  0  0  0  0  0  0
   -0.1125   -1.2618    1.0958 C   0  0  0  0  0  0  0  0  0  0  0  0
   -0.0723   -1.5061    2.4338 O   0  0  0  0  0  0  0  0  0  0  0  0
   -1.3572   -1.4030    2.9058 N   0  0  0  0  0  0  0  0  0  0  0  0
   -2.1252   -1.1288    1.9952 N   0  0  0  0  0  0  0  0  0  0  0  0
   -1.4255   -1.0196    0.8105 O   0  0  0  0  0  0  0  0  0  0  0  0
    0.8816    0.6340   -1.2740 C   0  0  0  0  0  0  0  0  0  0  0  0
    0.8816    0.6340   -2.6892 C   0  0  0  0  0  0  0  0  0  0  0  0
    0.8816    1.8644   -3.0972 N   0  0  0  0  0  2  0  0  0  0  0  0
    0.8816    2.6223   -1.9816 O   0  0  0  0  0  0  0  0  0  0  0  0
    0.8816    1.8644   -0.8660 N   0  0  0  0  0  0  0  0  0  0  0  0
    0.8816   -0.3495   -0.4358 H   0  0  0  0  0  0  0  0  0  0  0  0
    0.8816   -0.1856   -3.3877 H   0  0  0  0  0  0  0  0  0  0  0  0
  1  2  2  3
  1 12  1  0
  2  3  1  0
  2  6  1  0
  3  4  1  0
  4  5  2  0
  5  6  1  0
  7  8  2  0
  7 11  2  0
  8  9  1  0
  8 13  1  0
  9 10  1  0
 10 11  1  0
M  RAD  1   9   2
M  END
>  <reaction>  (11) 
rxn_3178

>  <mol_properties>  (11) 
{"0": {"label": "*1", "atom_type": "N3d"}, "1": {"label": "*0", "atom_type": "Cd"}, "6": {"label": "*3", "atom_type": "Cdd"}, "10": {"label": "*4", "atom_type": "N3d"}, "11": {"label": "*2", "atom_type": "H0"}}

>  <type>  (11) 
unop_7

>  <geom_source>  (11) 
Heuristics

$$$$

     RDKit          3D

 13 13  0  0  0  0  0  0  0  0999 V2000
   -1.0291   -0.9415    0.7420 N   0  0  0  0  0  0  0  0  0  0  0  0
    0.1188   -1.3014    1.0487 C   0  0  0  0  0  0  0  0  0  0  0  0
    0.5080   -1.6298    2.3106 O   0  0  0  0  0  0  0  0  0  0  0  0
    1.8359   -1.9724    2.2516 N   0  0  0  0  0  0  0  0  0  0  0  0
    2.2500   -1.8782    1.1052 N   0  0  0  0  0  0  0  0  0  0  0  0
    1.2314   -1.4591    0.2734 O   0  0  0  0  0  0  0  0  0  0  0  0
   -1.0291    0.9666   -0.8842 C   0  0  0  0  0  0  0  0  0  0  0  0
   -1.0291    0.9666   -2.2994 C   0  0  0  0  0  0  0  0  0  0  0  0
   -1.0291    2.1971   -2.7074 N   0  0  0  0  0  2  0  0  0  0  0  0
   -1.0291    2.9550   -1.5918 O   0  0  0  0  0  0  0  0  0  0  0  0
   -1.0291    2.1971   -0.4762 N   0  0  0  0  0  0  0  0  0  0  0  0
   -1.0291   -0.0168   -0.0460 H   0  0  0  0  0  0  0  0  0  0  0  0
   -1.0291    0.1471   -2.9979 H   0  0  0  0  0  0  0  0  0  0  0  0
  1  2  2  3
  1 12  1  0
  2  3  1  0
  2  6  1  0
  3  4  1  0
  4  5  2  0
  5  6  1  0
  7  8  2  0
  7 11  2  0
  8  9  1  0
  8 13  1  0
  9 10  1  0
 10 11  1  0
M  RAD  1   9   2
M  END
>  <reaction>  (12) 
rxn_3178

>  <mol_properties>  (12) 
{"0": {"label": "*1", "atom_type": "N3d"}, "1": {"label": "*0", "atom_type": "Cd"}, "6": {"label": "*3", "atom_type": "Cdd"}, "10": {"label": "*4", "atom_type": "N3d"}, "11": {"label": "*2", "atom_type": "H0"}}

>  <type>  (12) 
unop_8

>  <geom_source>  (12) 
Heuristics

$$$$

     RDKit          3D

 13 13  0  0  0  0  0  0  0  0999 V2000
    0.5215   -0.3514    1.4264 N   0  0  0  0  0  0  0  0  0  0  0  0
   -0.0524   -1.3561    0.9765 C   0  0  0  0  0  0  0  0  0  0  0  0
   -0.5212   -2.3786    1.7422 O   0  0  0  0  0  0  0  0  0  0  0  0
   -1.0872   -3.2972    0.8935 N   0  0  0  0  0  0  0  0  0  0  0  0
   -0.9965   -2.9193   -0.2655 N   0  0  0  0  0  0  0  0  0  0  0  0
   -0.3547   -1.6982   -0.3101 O   0  0  0  0  0  0  0  0  0  0  0  0
    0.5215    1.5568   -0.1998 C   0  0  0  0  0  0  0  0  0  0  0  0
    0.5215    1.5568   -1.6150 C   0  0  0  0  0  0  0  0  0  0  0  0
    0.5215    2.7873   -2.0230 N   0  0  0  0  0  2  0  0  0  0  0  0
    0.5215    3.5452   -0.9074 O   0  0  0  0  0  0  0  0  0  0  0  0
    0.5215    2.7873    0.2082 N   0  0  0  0  0  0  0  0  0  0  0  0
    0.5215    0.5733    0.6384 H   0  0  0  0  0  0  0  0  0  0  0  0
    0.5215    0.7372   -2.3135 H   0  0  0  0  0  0  0  0  0  0  0  0
  1  2  2  3
  1 12  1  0
  2  3  1  0
  2  6  1  0
  3  4  1  0
  4  5  2  0
  5  6  1  0
  7  8  2  0
  7 11  2  0
  8  9  1  0
  8 13  1  0
  9 10  1  0
 10 11  1  0
M  RAD  1   9   2
M  END
>  <reaction>  (13) 
rxn_3178

>  <mol_properties>  (13) 
{"0": {"label": "*1", "atom_type": "N3d"}, "1": {"label": "*0", "atom_type": "Cd"}, "6": {"label": "*3", "atom_type": "Cdd"}, "10": {"label": "*4", "atom_type": "N3d"}, "11": {"label": "*2", "atom_type": "H0"}}

>  <type>  (13) 
unop_9

>  <geom_source>  (13) 
Heuristics

$$$$

     RDKit          3D

 13 13  0  0  0  0  0  0  0  0999 V2000
   -0.8983   -0.6028    1.1359 N   0  0  0  0  0  0  0  0  0  0  0  0
    0.0959   -1.3350    1.0057 C   0  0  0  0  0  0  0  0  0  0  0  0
    0.7096   -1.9842    2.0321 O   0  0  0  0  0  0  0  0  0  0  0  0
    1.7607   -2.6879    1.4990 N   0  0  0  0  0  0  0  0  0  0  0  0
    1.8189   -2.5167    0.2900 N   0  0  0  0  0  0  0  0  0  0  0  0
    0.8031   -1.6732   -0.1120 O   0  0  0  0  0  0  0  0  0  0  0  0
   -0.8983    1.3054   -0.4903 C   0  0  0  0  0  0  0  0  0  0  0  0
   -0.8983    1.3054   -1.9056 C   0  0  0  0  0  0  0  0  0  0  0  0
   -0.8983    2.5358   -2.3135 N   0  0  0  0  0  2  0  0  0  0  0  0
   -0.8983    3.2937   -1.1980 O   0  0  0  0  0  0  0  0  0  0  0  0
   -0.8983    2.5358   -0.0824 N   0  0  0  0  0  0  0  0  0  0  0  0
   -0.8983    0.3219    0.3478 H   0  0  0  0  0  0  0  0  0  0  0  0
   -0.8983    0.4858   -2.6041 H   0  0  0  0  0  0  0  0  0  0  0  0
  1  2  2  3
  1 12  1  0
  2  3  1  0
  2  6  1  0
  3  4  1  0
  4  5  2  0
  5  6  1  0
  7  8  2  0
  7 11  2  0
  8  9  1  0
  8 13  1  0
  9 10  1  0
 10 11  1  0
M  RAD  1   9   2
M  END
>  <reaction>  (14) 
rxn_3178

>  <mol_properties>  (14) 
{"0": {"label": "*1", "atom_type": "N3d"}, "1": {"label": "*0", "atom_type": "Cd"}, "6": {"label": "*3", "atom_type": "Cdd"}, "10": {"label": "*4", "atom_type": "N3d"}, "11": {"label": "*2", "atom_type": "H0"}}

>  <type>  (14) 
unop_10

>  <geom_source>  (14) 
Heuristics

$$$$

     RDKit          3D

 13 13  0  0  0  0  0  0  0  0999 V2000
    0.5008   -1.5096    0.0714 N   0  0  0  0  0  0  0  0  0  0  0  0
   -0.0732   -1.2247    1.1348 C   0  0  0  0  0  0  0  0  0  0  0  0
    0.2725   -1.7271    2.3511 O   0  0  0  0  0  0  0  0  0  0  0  0
   -0.5846   -1.1834    3.2753 N   0  0  0  0  0  0  0  0  0  0  0  0
   -1.3780   -0.4304    2.7297 N   0  0  0  0  0  0  0  0  0  0  0  0
   -1.1299   -0.3936    1.3725 O   0  0  0  0  0  0  0  0  0  0  0  0
    0.5008    0.3986   -1.5548 C   0  0  0  0  0  0  0  0  0  0  0  0
    0.5008    0.3986   -2.9700 C   0  0  0  0  0  0  0  0  0  0  0  0
    0.5008    1.6290   -3.3780 N   0  0  0  0  0  2  0  0  0  0  0  0
    0.5008    2.3869   -2.2624 O   0  0  0  0  0  0  0  0  0  0  0  0
    0.5008    1.6290   -1.1468 N   0  0  0  0  0  0  0  0  0  0  0  0
    0.5008   -0.5849   -0.7166 H   0  0  0  0  0  0  0  0  0  0  0  0
    0.5008   -0.4210   -3.6685 H   0  0  0  0  0  0  0  0  0  0  0  0
  1  2  2  3
  1 12  1  0
  2  3  1  0
  2  6  1  0
  3  4  1  0
  4  5  2  0
  5  6  1  0
  7  8  2  0
  7 11  2  0
  8  9  1  0
  8 13  1  0
  9 10  1  0
 10 11  1  0
M  RAD  1   9   2
M  END
>  <reaction>  (15) 
rxn_3178

>  <mol_properties>  (15) 
{"0": {"label": "*1", "atom_type": "N3d"}, "1": {"label": "*0", "atom_type": "Cd"}, "6": {"label": "*3", "atom_type": "Cdd"}, "10": {"label": "*4", "atom_type": "N3d"}, "11": {"label": "*2", "atom_type": "H0"}}

>  <type>  (15) 
unop_11

>  <geom_source>  (15) 
Heuristics

$$$$

     RDKit          3D

 13 13  0  0  0  0  0  0  0  0999 V2000
    0.0000   -0.2584    1.5333 N   0  0  0  0  0  0  0  0  0  0  0  0
    0.0000   -1.3629    0.9663 C   0  0  0  0  0  0  0  0  0  0  0  0
    0.0000   -2.5583    1.6162 O   0  0  0  0  0  0  0  0  0  0  0  0
    0.0000   -3.5426    0.6594 N   0  0  0  0  0  0  0  0  0  0  0  0
    0.0000   -3.0496   -0.4593 N   0  0  0  0  0  0  0  0  0  0  0  0
    0.0000   -1.6728   -0.3633 O   0  0  0  0  0  0  0  0  0  0  0  0
   -0.0000    1.6498   -0.0929 C   0  0  0  0  0  0  0  0  0  0  0  0
   -0.0000    1.6498   -1.5082 C   0  0  0  0  0  0  0  0  0  0  0  0
   -0.0000    2.8802   -1.9161 N   0  0  0  0  0  2  0  0  0  0  0  0
   -0.0000    3.6381   -0.8005 O   0  0  0  0  0  0  0  0  0  0  0  0
   -0.0000    2.8802    0.3151 N   0  0  0  0  0  0  0  0  0  0  0  0
   -0.0000    0.6663    0.7453 H   0  0  0  0  0  0  0  0  0  0  0  0
   -0.0000    0.8302   -2.2066 H   0  0  0  0  0  0  0  0  0  0  0  0
  1  2  2  3
  1 12  1  0
  2  3  1  0
  2  6  1  0
  3  4  1  0
  4  5  2  0
  5  6  1  0
  7  8  2  0
  7 11  2  0
  8  9  1  0
  8 13  1  0
  9 10  1  0
 10 11  1  0
M  RAD  1   9   2
M  END
>  <reaction>  (16) 
rxn_3178

>  <mol_properties>  (16) 
{"0": {"label": "*1", "atom_type": "N3d"}, "1": {"label": "*0", "atom_type": "Cd"}, "6": {"label": "*3", "atom_type": "Cdd"}, "10": {"label": "*4", "atom_type": "N3d"}, "11": {"label": "*2", "atom_type": "H0"}}

>  <type>  (16) 
unop_12

>  <geom_source>  (16) 
Heuristics

$$$$

     RDKit          3D

 13 13  0  0  0  0  0  0  0  0999 V2000
   -0.5215   -0.3514    1.4264 N   0  0  0  0  0  0  0  0  0  0  0  0
    0.0524   -1.3561    0.9765 C   0  0  0  0  0  0  0  0  0  0  0  0
    0.5212   -2.3786    1.7422 O   0  0  0  0  0  0  0  0  0  0  0  0
    1.0872   -3.2971    0.8935 N   0  0  0  0  0  0  0  0  0  0  0  0
    0.9965   -2.9193   -0.2655 N   0  0  0  0  0  0  0  0  0  0  0  0
    0.3547   -1.6982   -0.3101 O   0  0  0  0  0  0  0  0  0  0  0  0
   -0.5215    1.5568   -0.1998 C   0  0  0  0  0  0  0  0  0  0  0  0
   -0.5215    1.5568   -1.6150 C   0  0  0  0  0  0  0  0  0  0  0  0
   -0.5215    2.7873   -2.0230 N   0  0  0  0  0  2  0  0  0  0  0  0
   -0.5215    3.5452   -0.9074 O   0  0  0  0  0  0  0  0  0  0  0  0
   -0.5215    2.7873    0.2082 N   0  0  0  0  0  0  0  0  0  0  0  0
   -0.5215    0.5733    0.6384 H   0  0  0  0  0  0  0  0  0  0  0  0
   -0.5215    0.7372   -2.3135 H   0  0  0  0  0  0  0  0  0  0  0  0
  1  2  2  3
  1 12  1  0
  2  3  1  0
  2  6  1  0
  3  4  1  0
  4  5  2  0
  5  6  1  0
  7  8  2  0
  7 11  2  0
  8  9  1  0
  8 13  1  0
  9 10  1  0
 10 11  1  0
M  RAD  1   9   2
M  END
>  <reaction>  (17) 
rxn_3178

>  <mol_properties>  (17) 
{"0": {"label": "*1", "atom_type": "N3d"}, "1": {"label": "*0", "atom_type": "Cd"}, "6": {"label": "*3", "atom_type": "Cdd"}, "10": {"label": "*4", "atom_type": "N3d"}, "11": {"label": "*2", "atom_type": "H0"}}

>  <type>  (17) 
unop_13

>  <geom_source>  (17) 
gaussian_log

$$$$
