
     RDKit          3D

  6  5  0  0  0  0  0  0  0  0999 V2000
    1.2314    0.0428    0.5088 O   0  0  0  0  0  0  0  0  0  0  0  0
    0.2987    0.2341   -0.4915 N   0  0  0  0  0  0  0  0  0  0  0  0
   -0.8599   -0.1122   -0.1290 C   0  0  0  0  0  0  0  0  0  0  0  0
    2.0507    0.3401    0.1082 H   0  0  0  0  0  0  0  0  0  0  0  0
   -1.0700   -0.5112    0.8610 H   0  0  0  0  0  0  0  0  0  0  0  0
   -1.6509    0.0064   -0.8574 H   0  0  0  0  0  0  0  0  0  0  0  0
  1  2  1  0
  1  4  1  0
  2  3  2  3
  3  5  1  0
  3  6  1  0
M  END
>  <reaction>  (1) 
rxn_659

>  <mol_properties>  (1) 
{"0": {"label": "donator", "atom_type": "O2s"}, "3": {"label": "d_hydrogen", "atom_type": "H0"}}

>  <type>  (1) 
r1h

$$$$

     RDKit          3D

  4  3  0  0  0  0  0  0  0  0999 V2000
    0.0000    0.0000    0.0000 C   0  0  0  0  0  3  0  0  0  0  0  0
    1.0638   -0.1747    0.0540 H   0  0  0  0  0  0  0  0  0  0  0  0
   -0.6833   -0.8351   -0.0280 H   0  0  0  0  0  0  0  0  0  0  0  0
   -0.3805    1.0098   -0.0260 H   0  0  0  0  0  0  0  0  0  0  0  0
  1  2  1  0
  1  3  1  0
  1  4  1  0
M  RAD  1   1   2
M  END
>  <reaction>  (2) 
rxn_659

>  <mol_properties>  (2) 
{"0": {"label": "acceptor", "atom_type": "Cs"}}

>  <type>  (2) 
r2

$$$$

     RDKit          3D

  5  4  0  0  0  0  0  0  0  0999 V2000
    0.0000    0.0000    0.0000 C   0  0  0  0  0  0  0  0  0  0  0  0
   -0.6486   -0.7720   -0.4113 H   0  0  0  0  0  0  0  0  0  0  0  0
   -0.3482    0.9787   -0.3267 H   0  0  0  0  0  0  0  0  0  0  0  0
   -0.0223   -0.0487    1.0876 H   0  0  0  0  0  0  0  0  0  0  0  0
    1.0191   -0.1580   -0.3496 H   0  0  0  0  0  0  0  0  0  0  0  0
  1  2  1  0
  1  3  1  0
  1  4  1  0
  1  5  1  0
M  END
>  <reaction>  (3) 
rxn_659

>  <mol_properties>  (3) 
{"0": {"label": "a_hydrogen", "atom_type": "H0"}, "1": {"label": "acceptor", "atom_type": "Cs"}}

>  <type>  (3) 
r2h

$$$$

     RDKit          3D

 10  8  0  0  0  0  0  0  0  0999 V2000
    0.4050    0.6215   -0.1214 O   0  0  0  0  0  0  0  0  0  0  0  0
   -0.2102   -0.4683   -0.5831 N   0  0  0  0  0  0  0  0  0  0  0  0
   -0.1740   -0.6078   -1.8418 C   0  0  0  0  0  0  0  0  0  0  0  0
    0.2705    0.5835    1.0426 H   0  0  0  0  0  0  0  0  0  0  0  0
    0.3199    0.1042   -2.4993 H   0  0  0  0  0  0  0  0  0  0  0  0
   -0.6644   -1.4824   -2.2472 H   0  0  0  0  0  0  0  0  0  0  0  0
    0.0530    0.4319    2.3541 C   0  0  0  0  0  3  0  0  0  0  0  0
    1.0484    0.3710    2.7820 H   0  0  0  0  0  0  0  0  0  0  0  0
   -0.5093   -0.4966    2.3595 H   0  0  0  0  0  0  0  0  0  0  0  0
   -0.5123    1.3154    2.6324 H   0  0  0  0  0  0  0  0  0  0  0  0
  1  2  1  0
  1  4  1  0
  2  3  2  3
  3  5  1  0
  3  6  1  0
  7  8  1  0
  7  9  1  0
  7 10  1  0
M  RAD  1   7   2
M  END
>  <reaction>  (4) 
rxn_659

>  <mol_properties>  (4) 
{"0": {"label": "*1", "atom_type": "O2s"}, "1": {"label": "*0", "atom_type": "N3d"}, "3": {"label": "*2", "atom_type": "H0"}, "6": {"label": "*3", "atom_type": "Cs"}, "7": {"label": "*4", "atom_type": "H0"}}

>  <type>  (4) 
ts

$$$$

     RDKit          3D

 10  8  0  0  0  0  0  0  0  0999 V2000
    0.0024    0.6834   -0.0911 O   0  0  0  0  0  0  0  0  0  0  0  0
    0.0024   -0.5974   -0.6075 N   0  0  0  0  0  0  0  0  0  0  0  0
    0.0024   -0.5974   -1.8698 C   0  0  0  0  0  0  0  0  0  0  0  0
    0.0024    0.5118    1.0470 H   0  0  0  0  0  0  0  0  0  0  0  0
    0.0024    0.3188   -2.4564 H   0  0  0  0  0  0  0  0  0  0  0  0
    0.0024   -1.5648   -2.3541 H   0  0  0  0  0  0  0  0  0  0  0  0
    0.0024    0.3170    2.3392 C   0  0  0  0  0  3  0  0  0  0  0  0
    0.8915    0.7705    2.7746 H   0  0  0  0  0  0  0  0  0  0  0  0
   -0.3878   -0.4405    3.0171 H   0  0  0  0  0  0  0  0  0  0  0  0
   -0.6368    1.1959    2.2694 H   0  0  0  0  0  0  0  0  0  0  0  0
  1  2  1  0
  1  4  1  0
  2  3  2  3
  3  5  1  0
  3  6  1  0
  7  8  1  0
  7  9  1  0
  7 10  1  0
M  RAD  1   7   2
M  END
>  <reaction>  (5) 
rxn_659

>  <mol_properties>  (5) 
{"0": {"label": "*1", "atom_type": "O2s"}, "1": {"label": "*0", "atom_type": "N3d"}, "3": {"label": "*2", "atom_type": "H0"}, "6": {"label": "*3", "atom_type": "Cs"}, "7": {"label": "*4", "atom_type": "H0"}}

>  <type>  (5) 
unop_1

>  <geom_source>  (5) 
Heuristics

$$$$

     RDKit          3D

 10  8  0  0  0  0  0  0  0  0999 V2000
    0.0017    0.6899   -0.0851 O   0  0  0  0  0  0  0  0  0  0  0  0
    0.0017   -0.5909   -0.6015 N   0  0  0  0  0  0  0  0  0  0  0  0
    0.0017   -0.5909   -1.8638 C   0  0  0  0  0  0  0  0  0  0  0  0
    0.0017    0.5183    1.0530 H   0  0  0  0  0  0  0  0  0  0  0  0
    0.0017    0.3253   -2.4505 H   0  0  0  0  0  0  0  0  0  0  0  0
    0.0017   -1.5583   -2.3481 H   0  0  0  0  0  0  0  0  0  0  0  0
    0.0017    0.3235    2.3451 C   0  0  0  0  0  3  0  0  0  0  0  0
    0.5150   -0.6098    2.5715 H   0  0  0  0  0  0  0  0  0  0  0  0
   -0.8896    0.4071    2.9651 H   0  0  0  0  0  0  0  0  0  0  0  0
    0.2808    1.3640    2.1863 H   0  0  0  0  0  0  0  0  0  0  0  0
  1  2  1  0
  1  4  1  0
  2  3  2  3
  3  5  1  0
  3  6  1  0
  7  8  1  0
  7  9  1  0
  7 10  1  0
M  RAD  1   7   2
M  END
>  <reaction>  (6) 
rxn_659

>  <mol_properties>  (6) 
{"0": {"label": "*1", "atom_type": "O2s"}, "1": {"label": "*0", "atom_type": "N3d"}, "3": {"label": "*2", "atom_type": "H0"}, "6": {"label": "*3", "atom_type": "Cs"}, "7": {"label": "*4", "atom_type": "H0"}}

>  <type>  (6) 
unop_2

>  <geom_source>  (6) 
Heuristics

$$$$

     RDKit          3D

 10  8  0  0  0  0  0  0  0  0999 V2000
    0.0048    0.6861   -0.0937 O   0  0  0  0  0  0  0  0  0  0  0  0
    0.0048   -0.5947   -0.6100 N   0  0  0  0  0  0  0  0  0  0  0  0
    0.0048   -0.5947   -1.8723 C   0  0  0  0  0  0  0  0  0  0  0  0
    0.0048    0.5145    1.0445 H   0  0  0  0  0  0  0  0  0  0  0  0
    0.0048    0.3215   -2.4590 H   0  0  0  0  0  0  0  0  0  0  0  0
    0.0048   -1.5621   -2.3566 H   0  0  0  0  0  0  0  0  0  0  0  0
    0.0048    0.3196    2.3366 C   0  0  0  0  0  3  0  0  0  0  0  0
    0.5181    1.1447    2.8281 H   0  0  0  0  0  0  0  0  0  0  0  0
    0.1608   -0.5955    2.9057 H   0  0  0  0  0  0  0  0  0  0  0  0
   -0.9488    0.8280    2.4710 H   0  0  0  0  0  0  0  0  0  0  0  0
  1  2  1  0
  1  4  1  0
  2  3  2  3
  3  5  1  0
  3  6  1  0
  7  8  1  0
  7  9  1  0
  7 10  1  0
M  RAD  1   7   2
M  END
>  <reaction>  (7) 
rxn_659

>  <mol_properties>  (7) 
{"0": {"label": "*1", "atom_type": "O2s"}, "1": {"label": "*0", "atom_type": "N3d"}, "3": {"label": "*2", "atom_type": "H0"}, "6": {"label": "*3", "atom_type": "Cs"}, "7": {"label": "*4", "atom_type": "H0"}}

>  <type>  (7) 
unop_3

>  <geom_source>  (7) 
Heuristics

$$$$

     RDKit          3D

 10  8  0  0  0  0  0  0  0  0999 V2000
    0.0022    0.6859   -0.0862 O   0  0  0  0  0  0  0  0  0  0  0  0
    0.0022   -0.5949   -0.6025 N   0  0  0  0  0  0  0  0  0  0  0  0
    0.0022   -0.5949   -1.8648 C   0  0  0  0  0  0  0  0  0  0  0  0
    0.0022    0.5143    1.0520 H   0  0  0  0  0  0  0  0  0  0  0  0
    0.0022    0.3213   -2.4515 H   0  0  0  0  0  0  0  0  0  0  0  0
    0.0022   -1.5623   -2.3491 H   0  0  0  0  0  0  0  0  0  0  0  0
    0.0022    0.3195    2.3441 C   0  0  0  0  0  3  0  0  0  0  0  0
   -0.8869   -0.2422    2.6265 H   0  0  0  0  0  0  0  0  0  0  0  0
   -0.2237    1.3847    2.3522 H   0  0  0  0  0  0  0  0  0  0  0  0
    0.9874    0.2417    2.8014 H   0  0  0  0  0  0  0  0  0  0  0  0
  1  2  1  0
  1  4  1  0
  2  3  2  3
  3  5  1  0
  3  6  1  0
  7  8  1  0
  7  9  1  0
  7 10  1  0
M  RAD  1   7   2
M  END
>  <reaction>  (8) 
rxn_659

>  <mol_properties>  (8) 
{"0": {"label": "*1", "atom_type": "O2s"}, "1": {"label": "*0", "atom_type": "N3d"}, "3": {"label": "*2", "atom_type": "H0"}, "6": {"label": "*3", "atom_type": "Cs"}, "7": {"label": "*4", "atom_type": "H0"}}

>  <type>  (8) 
unop_4

>  <geom_source>  (8) 
Heuristics

$$$$

     RDKit          3D

 10  8  0  0  0  0  0  0  0  0999 V2000
    0.0007    0.6897   -0.0958 O   0  0  0  0  0  0  0  0  0  0  0  0
    0.0007   -0.5910   -0.6121 N   0  0  0  0  0  0  0  0  0  0  0  0
    0.0007   -0.5910   -1.8744 C   0  0  0  0  0  0  0  0  0  0  0  0
    0.0007    0.5182    1.0424 H   0  0  0  0  0  0  0  0  0  0  0  0
    0.0007    0.3252   -2.4611 H   0  0  0  0  0  0  0  0  0  0  0  0
    0.0007   -1.5584   -2.3587 H   0  0  0  0  0  0  0  0  0  0  0  0
    0.0007    0.3233    2.3345 C   0  0  0  0  0  3  0  0  0  0  0  0
    0.0007    1.2844    2.8465 H   0  0  0  0  0  0  0  0  0  0  0  0
    0.8898   -0.2384    2.6169 H   0  0  0  0  0  0  0  0  0  0  0  0
   -0.9316    0.1220    2.8599 H   0  0  0  0  0  0  0  0  0  0  0  0
  1  2  1  0
  1  4  1  0
  2  3  2  3
  3  5  1  0
  3  6  1  0
  7  8  1  0
  7  9  1  0
  7 10  1  0
M  RAD  1   7   2
M  END
>  <reaction>  (9) 
rxn_659

>  <mol_properties>  (9) 
{"0": {"label": "*1", "atom_type": "O2s"}, "1": {"label": "*0", "atom_type": "N3d"}, "3": {"label": "*2", "atom_type": "H0"}, "6": {"label": "*3", "atom_type": "Cs"}, "7": {"label": "*4", "atom_type": "H0"}}

>  <type>  (9) 
unop_5

>  <geom_source>  (9) 
Heuristics

$$$$

     RDKit          3D

 10  8  0  0  0  0  0  0  0  0999 V2000
    0.0005    0.6845   -0.0890 O   0  0  0  0  0  0  0  0  0  0  0  0
    0.0005   -0.5963   -0.6053 N   0  0  0  0  0  0  0  0  0  0  0  0
    0.0005   -0.5963   -1.8677 C   0  0  0  0  0  0  0  0  0  0  0  0
    0.0005    0.5129    1.0492 H   0  0  0  0  0  0  0  0  0  0  0  0
    0.0005    0.3199   -2.4543 H   0  0  0  0  0  0  0  0  0  0  0  0
    0.0005   -1.5637   -2.3519 H   0  0  0  0  0  0  0  0  0  0  0  0
    0.0005    0.3181    2.3413 C   0  0  0  0  0  3  0  0  0  0  0  0
   -1.0261    0.2640    2.7002 H   0  0  0  0  0  0  0  0  0  0  0  0
    0.2888    1.3614    2.2220 H   0  0  0  0  0  0  0  0  0  0  0  0
    0.7068   -0.1594    3.0187 H   0  0  0  0  0  0  0  0  0  0  0  0
  1  2  1  0
  1  4  1  0
  2  3  2  3
  3  5  1  0
  3  6  1  0
  7  8  1  0
  7  9  1  0
  7 10  1  0
M  RAD  1   7   2
M  END
>  <reaction>  (10) 
rxn_659

>  <mol_properties>  (10) 
{"0": {"label": "*1", "atom_type": "O2s"}, "1": {"label": "*0", "atom_type": "N3d"}, "3": {"label": "*2", "atom_type": "H0"}, "6": {"label": "*3", "atom_type": "Cs"}, "7": {"label": "*4", "atom_type": "H0"}}

>  <type>  (10) 
unop_6

>  <geom_source>  (10) 
Heuristics

$$$$

     RDKit          3D

 10  8  0  0  0  0  0  0  0  0999 V2000
   -0.0022    0.6843   -0.0916 O   0  0  0  0  0  0  0  0  0  0  0  0
   -0.0022   -0.5965   -0.6079 N   0  0  0  0  0  0  0  0  0  0  0  0
   -0.0022   -0.5965   -1.8702 C   0  0  0  0  0  0  0  0  0  0  0  0
   -0.0022    0.5127    1.0466 H   0  0  0  0  0  0  0  0  0  0  0  0
   -0.0022    0.3197   -2.4569 H   0  0  0  0  0  0  0  0  0  0  0  0
   -0.0022   -1.5639   -2.3545 H   0  0  0  0  0  0  0  0  0  0  0  0
   -0.0022    0.3178    2.3387 C   0  0  0  0  0  3  0  0  0  0  0  0
   -0.8913    0.7713    2.7742 H   0  0  0  0  0  0  0  0  0  0  0  0
    0.7542    1.0844    2.1770 H   0  0  0  0  0  0  0  0  0  0  0  0
    0.2590   -0.3766    3.1357 H   0  0  0  0  0  0  0  0  0  0  0  0
  1  2  1  0
  1  4  1  0
  2  3  2  3
  3  5  1  0
  3  6  1  0
  7  8  1  0
  7  9  1  0
  7 10  1  0
M  RAD  1   7   2
M  END
>  <reaction>  (11) 
rxn_659

>  <mol_properties>  (11) 
{"0": {"label": "*1", "atom_type": "O2s"}, "1": {"label": "*0", "atom_type": "N3d"}, "3": {"label": "*2", "atom_type": "H0"}, "6": {"label": "*3", "atom_type": "Cs"}, "7": {"label": "*4", "atom_type": "H0"}}

>  <type>  (11) 
unop_7

>  <geom_source>  (11) 
Heuristics

$$$$

     RDKit          3D

 10  8  0  0  0  0  0  0  0  0999 V2000
   -0.0005    0.6848   -0.0892 O   0  0  0  0  0  0  0  0  0  0  0  0
   -0.0005   -0.5960   -0.6055 N   0  0  0  0  0  0  0  0  0  0  0  0
   -0.0005   -0.5960   -1.8679 C   0  0  0  0  0  0  0  0  0  0  0  0
   -0.0005    0.5132    1.0490 H   0  0  0  0  0  0  0  0  0  0  0  0
   -0.0005    0.3202   -2.4545 H   0  0  0  0  0  0  0  0  0  0  0  0
   -0.0005   -1.5634   -2.3521 H   0  0  0  0  0  0  0  0  0  0  0  0
   -0.0005    0.3184    2.3411 C   0  0  0  0  0  3  0  0  0  0  0  0
    1.0262    0.2643    2.7000 H   0  0  0  0  0  0  0  0  0  0  0  0
   -0.6623   -0.1610    3.0607 H   0  0  0  0  0  0  0  0  0  0  0  0
   -0.3384    1.3427    2.1912 H   0  0  0  0  0  0  0  0  0  0  0  0
  1  2  1  0
  1  4  1  0
  2  3  2  3
  3  5  1  0
  3  6  1  0
  7  8  1  0
  7  9  1  0
  7 10  1  0
M  RAD  1   7   2
M  END
>  <reaction>  (12) 
rxn_659

>  <mol_properties>  (12) 
{"0": {"label": "*1", "atom_type": "O2s"}, "1": {"label": "*0", "atom_type": "N3d"}, "3": {"label": "*2", "atom_type": "H0"}, "6": {"label": "*3", "atom_type": "Cs"}, "7": {"label": "*4", "atom_type": "H0"}}

>  <type>  (12) 
unop_8

>  <geom_source>  (12) 
Heuristics

$$$$

     RDKit          3D

 10  8  0  0  0  0  0  0  0  0999 V2000
    0.0032    0.6875   -0.0838 O   0  0  0  0  0  0  0  0  0  0  0  0
    0.0032   -0.5933   -0.6002 N   0  0  0  0  0  0  0  0  0  0  0  0
    0.0032   -0.5933   -1.8625 C   0  0  0  0  0  0  0  0  0  0  0  0
    0.0032    0.5159    1.0543 H   0  0  0  0  0  0  0  0  0  0  0  0
    0.0032    0.3229   -2.4492 H   0  0  0  0  0  0  0  0  0  0  0  0
    0.0032   -1.5607   -2.3468 H   0  0  0  0  0  0  0  0  0  0  0  0
    0.0032    0.3211    2.3464 C   0  0  0  0  0  3  0  0  0  0  0  0
   -0.5101   -0.6122    2.5728 H   0  0  0  0  0  0  0  0  0  0  0  0
   -0.6610    1.1595    2.5506 H   0  0  0  0  0  0  0  0  0  0  0  0
    0.9888    0.7479    2.5257 H   0  0  0  0  0  0  0  0  0  0  0  0
  1  2  1  0
  1  4  1  0
  2  3  2  3
  3  5  1  0
  3  6  1  0
  7  8  1  0
  7  9  1  0
  7 10  1  0
M  RAD  1   7   2
M  END
>  <reaction>  (13) 
rxn_659

>  <mol_properties>  (13) 
{"0": {"label": "*1", "atom_type": "O2s"}, "1": {"label": "*0", "atom_type": "N3d"}, "3": {"label": "*2", "atom_type": "H0"}, "6": {"label": "*3", "atom_type": "Cs"}, "7": {"label": "*4", "atom_type": "H0"}}

>  <type>  (13) 
unop_9

>  <geom_source>  (13) 
Heuristics

$$$$

     RDKit          3D

 10  8  0  0  0  0  0  0  0  0999 V2000
   -0.0005    0.6880   -0.0873 O   0  0  0  0  0  0  0  0  0  0  0  0
   -0.0005   -0.5928   -0.6036 N   0  0  0  0  0  0  0  0  0  0  0  0
   -0.0005   -0.5928   -1.8659 C   0  0  0  0  0  0  0  0  0  0  0  0
   -0.0005    0.5164    1.0509 H   0  0  0  0  0  0  0  0  0  0  0  0
   -0.0005    0.3234   -2.4526 H   0  0  0  0  0  0  0  0  0  0  0  0
   -0.0005   -1.5602   -2.3502 H   0  0  0  0  0  0  0  0  0  0  0  0
   -0.0005    0.3216    2.3430 C   0  0  0  0  0  3  0  0  0  0  0  0
    0.8886   -0.2401    2.6254 H   0  0  0  0  0  0  0  0  0  0  0  0
   -0.8009    0.1148    3.0519 H   0  0  0  0  0  0  0  0  0  0  0  0
   -0.0573    1.3945    2.1663 H   0  0  0  0  0  0  0  0  0  0  0  0
  1  2  1  0
  1  4  1  0
  2  3  2  3
  3  5  1  0
  3  6  1  0
  7  8  1  0
  7  9  1  0
  7 10  1  0
M  RAD  1   7   2
M  END
>  <reaction>  (14) 
rxn_659

>  <mol_properties>  (14) 
{"0": {"label": "*1", "atom_type": "O2s"}, "1": {"label": "*0", "atom_type": "N3d"}, "3": {"label": "*2", "atom_type": "H0"}, "6": {"label": "*3", "atom_type": "Cs"}, "7": {"label": "*4", "atom_type": "H0"}}

>  <type>  (14) 
unop_10

>  <geom_source>  (14) 
Heuristics

$$$$

     RDKit          3D

 10  8  0  0  0  0  0  0  0  0999 V2000
   -0.0038    0.6870   -0.0942 O   0  0  0  0  0  0  0  0  0  0  0  0
   -0.0038   -0.5938   -0.6105 N   0  0  0  0  0  0  0  0  0  0  0  0
   -0.0038   -0.5938   -1.8728 C   0  0  0  0  0  0  0  0  0  0  0  0
   -0.0038    0.5154    1.0440 H   0  0  0  0  0  0  0  0  0  0  0  0
   -0.0038    0.3224   -2.4595 H   0  0  0  0  0  0  0  0  0  0  0  0
   -0.0038   -1.5612   -2.3571 H   0  0  0  0  0  0  0  0  0  0  0  0
   -0.0038    0.3206    2.3361 C   0  0  0  0  0  3  0  0  0  0  0  0
   -0.5171    1.1456    2.8276 H   0  0  0  0  0  0  0  0  0  0  0  0
    1.0620    0.5370    2.2818 H   0  0  0  0  0  0  0  0  0  0  0  0
   -0.3305   -0.3567    3.1237 H   0  0  0  0  0  0  0  0  0  0  0  0
  1  2  1  0
  1  4  1  0
  2  3  2  3
  3  5  1  0
  3  6  1  0
  7  8  1  0
  7  9  1  0
  7 10  1  0
M  RAD  1   7   2
M  END
>  <reaction>  (15) 
rxn_659

>  <mol_properties>  (15) 
{"0": {"label": "*1", "atom_type": "O2s"}, "1": {"label": "*0", "atom_type": "N3d"}, "3": {"label": "*2", "atom_type": "H0"}, "6": {"label": "*3", "atom_type": "Cs"}, "7": {"label": "*4", "atom_type": "H0"}}

>  <type>  (15) 
unop_11

>  <geom_source>  (15) 
Heuristics

$$$$

     RDKit          3D

 10  8  0  0  0  0  0  0  0  0999 V2000
    0.0034    0.6892   -0.0835 O   0  0  0  0  0  0  0  0  0  0  0  0
    0.0034   -0.5916   -0.5998 N   0  0  0  0  0  0  0  0  0  0  0  0
    0.0034   -0.5916   -1.8622 C   0  0  0  0  0  0  0  0  0  0  0  0
    0.0034    0.5176    1.0547 H   0  0  0  0  0  0  0  0  0  0  0  0
    0.0034    0.3246   -2.4488 H   0  0  0  0  0  0  0  0  0  0  0  0
    0.0034   -1.5590   -2.3465 H   0  0  0  0  0  0  0  0  0  0  0  0
    0.0034    0.3228    2.3468 C   0  0  0  0  0  3  0  0  0  0  0  0
    0.0034   -0.7465    2.5526 H   0  0  0  0  0  0  0  0  0  0  0  0
   -0.8857    0.7763    2.7822 H   0  0  0  0  0  0  0  0  0  0  0  0
    0.6888    1.1675    2.2958 H   0  0  0  0  0  0  0  0  0  0  0  0
  1  2  1  0
  1  4  1  0
  2  3  2  3
  3  5  1  0
  3  6  1  0
  7  8  1  0
  7  9  1  0
  7 10  1  0
M  RAD  1   7   2
M  END
>  <reaction>  (16) 
rxn_659

>  <mol_properties>  (16) 
{"0": {"label": "*1", "atom_type": "O2s"}, "1": {"label": "*0", "atom_type": "N3d"}, "3": {"label": "*2", "atom_type": "H0"}, "6": {"label": "*3", "atom_type": "Cs"}, "7": {"label": "*4", "atom_type": "H0"}}

>  <type>  (16) 
unop_12

>  <geom_source>  (16) 
Heuristics

$$$$

     RDKit          3D

 10  8  0  0  0  0  0  0  0  0999 V2000
   -0.3176   -0.5608    0.6558 O   0  0  0  0  0  1  0  0  0  0  0  0
   -1.3764    0.1295    0.1140 N   0  0  0  0  0  0  0  0  0  0  0  0
    1.8548    0.4857    0.3294 C   0  0  0  0  0  0  0  0  0  0  0  0
   -2.2605   -0.4820   -0.6025 C   0  0  0  0  0  0  0  0  0  0  0  0
    2.7980   -0.0896    0.4311 H   0  0  0  0  0  0  0  0  0  0  0  0
    1.7243    1.1413    1.2148 H   0  0  0  0  0  0  0  0  0  0  0  0
    1.8982    1.1077   -0.5882 H   0  0  0  0  0  0  0  0  0  0  0  0
    0.9489   -0.2577    0.2558 H   0  0  0  0  0  0  0  0  0  0  0  0
   -2.1812   -1.5460   -0.7870 H   0  0  0  0  0  0  0  0  0  0  0  0
   -3.0886    0.0719   -1.0232 H   0  0  0  0  0  0  0  0  0  0  0  0
  1  2  1  0
  2  4  2  3
  3  5  1  0
  3  6  1  0
  3  7  1  0
  3  8  1  0
  4  9  1  0
  4 10  1  0
M  RAD  1   1   2
M  END
>  <reaction>  (17) 
rxn_659

>  <mol_properties>  (17) 
{"0": {"label": "*1", "atom_type": "O2s"}, "1": {"label": "*0", "atom_type": "N3d"}, "3": {"label": "*2", "atom_type": "H0"}, "6": {"label": "*3", "atom_type": "Cs"}, "7": {"label": "*4", "atom_type": "H0"}}

>  <type>  (17) 
unop_13

>  <geom_source>  (17) 
AutoTST

$$$$
