
     RDKit          3D

  7  6  0  0  0  0  0  0  0  0999 V2000
   -0.2485    1.7413   -0.3992 O   0  0  0  0  0  0  0  0  0  0  0  0
    0.0502    0.5901   -0.2826 C   0  0  0  0  0  0  0  0  0  0  0  0
    1.4448    0.1264   -0.3338 C   0  0  0  0  0  0  0  0  0  0  0  0
    2.5364   -0.2222   -0.3757 N   0  0  0  0  0  0  0  0  0  0  0  0
   -1.0118   -0.4953   -0.0692 C   0  0  0  0  0  0  0  0  0  0  0  0
   -0.7311   -1.6469    0.0488 O   0  0  0  0  0  0  0  0  0  0  0  0
   -2.0400   -0.0934   -0.0387 H   0  0  0  0  0  0  0  0  0  0  0  0
  1  2  2  0
  2  3  1  0
  2  5  1  0
  3  4  3  0
  5  6  2  0
  5  7  1  0
M  END
>  <reaction>  (1) 
rxn_3239

>  <mol_properties>  (1) 
{"4": {"label": "donator", "atom_type": "CO"}, "6": {"label": "d_hydrogen", "atom_type": "H0"}}

>  <type>  (1) 
r1h

$$$$

     RDKit          3D

  7  6  0  0  0  0  0  0  0  0999 V2000
   -1.3059    0.5497   -0.1304 N   0  0  0  0  0  2  0  0  0  0  0  0
   -0.2700   -0.4288    0.0448 C   0  0  0  0  0  0  0  0  0  0  0  0
    1.1109    0.0669    0.0401 C   0  0  0  0  0  0  0  0  0  0  0  0
    2.1758    0.4925    0.0308 N   0  0  0  0  0  0  0  0  0  0  0  0
   -0.8815    1.4733   -0.2339 H   0  0  0  0  0  0  0  0  0  0  0  0
   -0.3767   -1.1909   -0.7373 H   0  0  0  0  0  0  0  0  0  0  0  0
   -0.4527   -0.9628    0.9858 H   0  0  0  0  0  0  0  0  0  0  0  0
  1  2  1  0
  1  5  1  0
  2  3  1  0
  2  6  1  0
  2  7  1  0
  3  4  3  0
M  RAD  1   1   2
M  END
>  <reaction>  (2) 
rxn_3239

>  <mol_properties>  (2) 
{"0": {"label": "acceptor", "atom_type": "N3s"}}

>  <type>  (2) 
r2

$$$$

     RDKit          3D

  8  7  0  0  0  0  0  0  0  0999 V2000
   -1.0805    0.5317    0.0204 N   0  0  0  0  0  0  0  0  0  0  0  0
   -0.1080   -0.5393    0.0956 C   0  0  0  0  0  0  0  0  0  0  0  0
    1.2945   -0.1247   -0.1005 C   0  0  0  0  0  0  0  0  0  0  0  0
    2.3714    0.2386   -0.2580 N   0  0  0  0  0  0  0  0  0  0  0  0
   -1.0516    0.9857   -0.8822 H   0  0  0  0  0  0  0  0  0  0  0  0
   -0.9009    1.2352    0.7235 H   0  0  0  0  0  0  0  0  0  0  0  0
   -0.3427   -1.2965   -0.6542 H   0  0  0  0  0  0  0  0  0  0  0  0
   -0.1810   -1.0288    1.0680 H   0  0  0  0  0  0  0  0  0  0  0  0
  1  2  1  0
  1  5  1  0
  1  6  1  0
  2  3  1  0
  2  7  1  0
  2  8  1  0
  3  4  3  0
M  END
>  <reaction>  (3) 
rxn_3239

>  <mol_properties>  (3) 
{"0": {"label": "acceptor", "atom_type": "N3s"}, "7": {"label": "a_hydrogen", "atom_type": "H0"}}

>  <type>  (3) 
r2h

$$$$

     RDKit          3D

 14 12  0  0  0  0  0  0  0  0999 V2000
   -0.4076   -2.3937   -0.1650 N   0  0  0  0  0  2  0  0  0  0  0  0
    0.7969   -2.4691   -0.9750 C   0  0  0  0  0  0  0  0  0  0  0  0
    1.1356   -1.2091   -1.6525 C   0  0  0  0  0  0  0  0  0  0  0  0
    1.3477   -0.1814   -2.1172 N   0  0  0  0  0  0  0  0  0  0  0  0
   -1.1613   -2.0231   -0.7473 H   0  0  0  0  0  0  0  0  0  0  0  0
    0.6687   -3.2485   -1.7334 H   0  0  0  0  0  0  0  0  0  0  0  0
    1.6408   -2.7629   -0.3489 H   0  0  0  0  0  0  0  0  0  0  0  0
   -1.6747    0.6370   -0.2974 O   0  0  0  0  0  0  0  0  0  0  0  0
   -0.7940    0.9237    0.4534 C   0  0  0  0  0  0  0  0  0  0  0  0
   -0.4810    2.3030    0.8350 C   0  0  0  0  0  0  0  0  0  0  0  0
   -0.2257    3.3736    1.1574 N   0  0  0  0  0  0  0  0  0  0  0  0
    0.0795   -0.1770    1.1105 C   0  0  0  0  0  0  0  0  0  0  0  0
    0.9336    0.0355    1.8947 O   0  0  0  0  0  0  0  0  0  0  0  0
   -0.2194   -1.3348    0.6575 H   0  0  0  0  0  0  0  0  0  0  0  0
  1  2  1  0
  1  5  1  0
  2  3  1  0
  2  6  1  0
  2  7  1  0
  3  4  3  0
  8  9  2  0
  9 10  1  0
  9 12  1  0
 10 11  3  0
 12 13  2  0
 12 14  1  0
M  RAD  1   1   2
M  END
>  <reaction>  (4) 
rxn_3239

>  <mol_properties>  (4) 
{"0": {"label": "*3", "atom_type": "N3s"}, "1": {"label": "*4", "atom_type": "Cs"}, "8": {"label": "*0", "atom_type": "CO"}, "11": {"label": "*1", "atom_type": "CO"}, "13": {"label": "*2", "atom_type": "H0"}}

>  <type>  (4) 
ts

$$$$

     RDKit          3D

 14 12  0  0  0  0  0  0  0  0999 V2000
   -0.6209   -1.8669   -0.5795 N   0  0  0  0  0  0  0  0  0  0  0  0
    0.5499   -2.6831   -0.3313 C   0  0  0  0  0  0  0  0  0  0  0  0
    1.6205   -2.5628   -1.3396 C   0  0  0  0  0  0  0  0  0  0  0  0
    2.4284   -2.4407   -2.1452 N   0  0  0  0  0  0  0  0  0  0  0  0
   -1.0483   -2.1046   -1.4640 H   0  0  0  0  0  0  0  0  0  0  0  0
    0.2563   -3.7325   -0.2763 H   0  0  0  0  0  0  0  0  0  0  0  0
    0.9732   -2.4252    0.6408 H   0  0  0  0  0  0  0  0  0  0  0  0
   -0.6209    1.5073   -1.1017 O   0  0  0  0  0  1  0  0  0  0  0  0
   -0.6209    1.5073    0.0933 C   0  0  0  0  0  0  0  0  0  0  0  0
   -0.6209    2.7474    0.8836 C   0  0  0  0  0  0  0  0  0  0  0  0
   -0.6209    3.7144    1.4999 N   0  0  0  0  0  0  0  0  0  0  0  0
   -0.6209    0.1996    0.8942 C   0  0  0  0  0  0  0  0  0  0  0  0
   -0.6209    0.1819    2.0852 O   0  0  0  0  0  0  0  0  0  0  0  0
   -0.6209   -0.8794    0.1247 H   0  0  0  0  0  0  0  0  0  0  0  0
  1  2  1  0
  1  5  1  0
  1 14  1  0
  2  3  1  0
  2  6  1  0
  2  7  1  0
  3  4  3  0
  8  9  1  0
  9 10  1  0
  9 12  2  0
 10 11  3  0
 12 13  2  0
M  RAD  1   8   2
M  END
>  <reaction>  (5) 
rxn_3239

>  <mol_properties>  (5) 
{"0": {"label": "*3", "atom_type": "N3s"}, "1": {"label": "*4", "atom_type": "Cs"}, "8": {"label": "*0", "atom_type": "CO"}, "11": {"label": "*1", "atom_type": "CO"}, "13": {"label": "*2", "atom_type": "H0"}}

>  <type>  (5) 
unop_1

>  <geom_source>  (5) 
Heuristics

$$$$

     RDKit          3D

 14 12  0  0  0  0  0  0  0  0999 V2000
    0.0181   -2.3391   -0.1463 N   0  0  0  0  0  0  0  0  0  0  0  0
    0.6941   -2.0829   -1.4017 C   0  0  0  0  0  0  0  0  0  0  0  0
   -0.1050   -1.3517   -2.4038 C   0  0  0  0  0  0  0  0  0  0  0  0
   -0.7594   -0.7819   -3.1546 N   0  0  0  0  0  0  0  0  0  0  0  0
   -0.8160   -2.8917   -0.2893 H   0  0  0  0  0  0  0  0  0  0  0  0
    1.0060   -3.0293   -1.8462 H   0  0  0  0  0  0  0  0  0  0  0  0
    1.6038   -1.5103   -1.2144 H   0  0  0  0  0  0  0  0  0  0  0  0
    0.0181    1.0351   -0.6686 O   0  0  0  0  0  1  0  0  0  0  0  0
    0.0181    1.0351    0.5264 C   0  0  0  0  0  0  0  0  0  0  0  0
    0.0181    2.2752    1.3168 C   0  0  0  0  0  0  0  0  0  0  0  0
    0.0181    3.2422    1.9331 N   0  0  0  0  0  0  0  0  0  0  0  0
    0.0181   -0.2726    1.3274 C   0  0  0  0  0  0  0  0  0  0  0  0
    0.0181   -0.2902    2.5184 O   0  0  0  0  0  0  0  0  0  0  0  0
    0.0181   -1.3516    0.5579 H   0  0  0  0  0  0  0  0  0  0  0  0
  1  2  1  0
  1  5  1  0
  1 14  1  0
  2  3  1  0
  2  6  1  0
  2  7  1  0
  3  4  3  0
  8  9  1  0
  9 10  1  0
  9 12  2  0
 10 11  3  0
 12 13  2  0
M  RAD  1   8   2
M  END
>  <reaction>  (6) 
rxn_3239

>  <mol_properties>  (6) 
{"0": {"label": "*3", "atom_type": "N3s"}, "1": {"label": "*4", "atom_type": "Cs"}, "8": {"label": "*0", "atom_type": "CO"}, "11": {"label": "*1", "atom_type": "CO"}, "13": {"label": "*2", "atom_type": "H0"}}

>  <type>  (6) 
unop_2

>  <geom_source>  (6) 
Heuristics

$$$$

     RDKit          3D

 14 12  0  0  0  0  0  0  0  0999 V2000
   -0.5778   -1.7249   -0.8863 N   0  0  0  0  0  0  0  0  0  0  0  0
    0.0982   -2.8284   -0.2352 C   0  0  0  0  0  0  0  0  0  0  0  0
    1.5420   -2.9331   -0.5214 C   0  0  0  0  0  0  0  0  0  0  0  0
    2.6614   -2.9793   -0.7694 N   0  0  0  0  0  0  0  0  0  0  0  0
   -0.5012   -1.7946   -1.8917 H   0  0  0  0  0  0  0  0  0  0  0  0
   -0.3720   -3.7677   -0.5305 H   0  0  0  0  0  0  0  0  0  0  0  0
   -0.0248   -2.7431    0.8456 H   0  0  0  0  0  0  0  0  0  0  0  0
   -0.5778    1.6493   -1.4085 O   0  0  0  0  0  1  0  0  0  0  0  0
   -0.5778    1.6493   -0.2135 C   0  0  0  0  0  0  0  0  0  0  0  0
   -0.5778    2.8894    0.5769 C   0  0  0  0  0  0  0  0  0  0  0  0
   -0.5778    3.8564    1.1932 N   0  0  0  0  0  0  0  0  0  0  0  0
   -0.5778    0.3416    0.5875 C   0  0  0  0  0  0  0  0  0  0  0  0
   -0.5778    0.3239    1.7785 O   0  0  0  0  0  0  0  0  0  0  0  0
   -0.5778   -0.7374   -0.1820 H   0  0  0  0  0  0  0  0  0  0  0  0
  1  2  1  0
  1  5  1  0
  1 14  1  0
  2  3  1  0
  2  6  1  0
  2  7  1  0
  3  4  3  0
  8  9  1  0
  9 10  1  0
  9 12  2  0
 10 11  3  0
 12 13  2  0
M  RAD  1   8   2
M  END
>  <reaction>  (7) 
rxn_3239

>  <mol_properties>  (7) 
{"0": {"label": "*3", "atom_type": "N3s"}, "1": {"label": "*4", "atom_type": "Cs"}, "8": {"label": "*0", "atom_type": "CO"}, "11": {"label": "*1", "atom_type": "CO"}, "13": {"label": "*2", "atom_type": "H0"}}

>  <type>  (7) 
unop_3

>  <geom_source>  (7) 
Heuristics

$$$$

     RDKit          3D

 14 12  0  0  0  0  0  0  0  0999 V2000
    0.6529   -2.2533   -0.6733 N   0  0  0  0  0  0  0  0  0  0  0  0
   -0.5179   -2.2845   -1.5258 C   0  0  0  0  0  0  0  0  0  0  0  0
   -1.6929   -1.5632   -1.0000 C   0  0  0  0  0  0  0  0  0  0  0  0
   -2.5834   -0.9918   -0.5560 N   0  0  0  0  0  0  0  0  0  0  0  0
    0.4570   -2.6669    0.2279 H   0  0  0  0  0  0  0  0  0  0  0  0
   -0.8110   -3.3205   -1.7029 H   0  0  0  0  0  0  0  0  0  0  0  0
   -0.2700   -1.8587   -2.4993 H   0  0  0  0  0  0  0  0  0  0  0  0
    0.6529    1.1209   -1.1955 O   0  0  0  0  0  1  0  0  0  0  0  0
    0.6529    1.1209   -0.0005 C   0  0  0  0  0  0  0  0  0  0  0  0
    0.6529    2.3610    0.7898 C   0  0  0  0  0  0  0  0  0  0  0  0
    0.6529    3.3280    1.4061 N   0  0  0  0  0  0  0  0  0  0  0  0
    0.6529   -0.1869    0.8004 C   0  0  0  0  0  0  0  0  0  0  0  0
    0.6529   -0.2045    1.9914 O   0  0  0  0  0  0  0  0  0  0  0  0
    0.6529   -1.2659    0.0309 H   0  0  0  0  0  0  0  0  0  0  0  0
  1  2  1  0
  1  5  1  0
  1 14  1  0
  2  3  1  0
  2  6  1  0
  2  7  1  0
  3  4  3  0
  8  9  1  0
  9 10  1  0
  9 12  2  0
 10 11  3  0
 12 13  2  0
M  RAD  1   8   2
M  END
>  <reaction>  (8) 
rxn_3239

>  <mol_properties>  (8) 
{"0": {"label": "*3", "atom_type": "N3s"}, "1": {"label": "*4", "atom_type": "Cs"}, "8": {"label": "*0", "atom_type": "CO"}, "11": {"label": "*1", "atom_type": "CO"}, "13": {"label": "*2", "atom_type": "H0"}}

>  <type>  (8) 
unop_4

>  <geom_source>  (8) 
Heuristics

$$$$

     RDKit          3D

 14 12  0  0  0  0  0  0  0  0999 V2000
   -0.3098   -1.6826   -1.2451 N   0  0  0  0  0  0  0  0  0  0  0  0
   -0.3098   -2.8913   -0.4466 C   0  0  0  0  0  0  0  0  0  0  0  0
    0.8467   -3.0429    0.4573 C   0  0  0  0  0  0  0  0  0  0  0  0
    1.7612   -3.1228    1.1457 N   0  0  0  0  0  0  0  0  0  0  0  0
    0.5089   -1.6380   -1.8362 H   0  0  0  0  0  0  0  0  0  0  0  0
   -0.3386   -3.7614   -1.1043 H   0  0  0  0  0  0  0  0  0  0  0  0
   -1.2167   -2.9266    0.1591 H   0  0  0  0  0  0  0  0  0  0  0  0
   -0.3098    1.6916   -1.7674 O   0  0  0  0  0  1  0  0  0  0  0  0
   -0.3098    1.6916   -0.5723 C   0  0  0  0  0  0  0  0  0  0  0  0
   -0.3098    2.9317    0.2180 C   0  0  0  0  0  0  0  0  0  0  0  0
   -0.3098    3.8987    0.8343 N   0  0  0  0  0  0  0  0  0  0  0  0
   -0.3098    0.3838    0.2286 C   0  0  0  0  0  0  0  0  0  0  0  0
   -0.3098    0.3662    1.4196 O   0  0  0  0  0  0  0  0  0  0  0  0
   -0.3098   -0.6951   -0.5409 H   0  0  0  0  0  0  0  0  0  0  0  0
  1  2  1  0
  1  5  1  0
  1 14  1  0
  2  3  1  0
  2  6  1  0
  2  7  1  0
  3  4  3  0
  8  9  1  0
  9 10  1  0
  9 12  2  0
 10 11  3  0
 12 13  2  0
M  RAD  1   8   2
M  END
>  <reaction>  (9) 
rxn_3239

>  <mol_properties>  (9) 
{"0": {"label": "*3", "atom_type": "N3s"}, "1": {"label": "*4", "atom_type": "Cs"}, "8": {"label": "*0", "atom_type": "CO"}, "11": {"label": "*1", "atom_type": "CO"}, "13": {"label": "*2", "atom_type": "H0"}}

>  <type>  (9) 
unop_5

>  <geom_source>  (9) 
Heuristics

$$$$

     RDKit          3D

 14 12  0  0  0  0  0  0  0  0999 V2000
    0.6667   -2.0905   -0.9332 N   0  0  0  0  0  0  0  0  0  0  0  0
   -0.6852   -2.5142   -1.2354 C   0  0  0  0  0  0  0  0  0  0  0  0
   -1.7239   -1.9787   -0.3343 C   0  0  0  0  0  0  0  0  0  0  0  0
   -2.5005   -1.5413    0.3882 N   0  0  0  0  0  0  0  0  0  0  0  0
    0.9370   -2.3757   -0.0020 H   0  0  0  0  0  0  0  0  0  0  0  0
   -0.7406   -3.6034   -1.2024 H   0  0  0  0  0  0  0  0  0  0  0  0
   -0.9394   -2.2187   -2.2545 H   0  0  0  0  0  0  0  0  0  0  0  0
    0.6667    1.2836   -1.4555 O   0  0  0  0  0  1  0  0  0  0  0  0
    0.6667    1.2836   -0.2605 C   0  0  0  0  0  0  0  0  0  0  0  0
    0.6667    2.5237    0.5299 C   0  0  0  0  0  0  0  0  0  0  0  0
    0.6667    3.4907    1.1462 N   0  0  0  0  0  0  0  0  0  0  0  0
    0.6667   -0.0241    0.5405 C   0  0  0  0  0  0  0  0  0  0  0  0
    0.6667   -0.0417    1.7315 O   0  0  0  0  0  0  0  0  0  0  0  0
    0.6667   -1.1031   -0.2290 H   0  0  0  0  0  0  0  0  0  0  0  0
  1  2  1  0
  1  5  1  0
  1 14  1  0
  2  3  1  0
  2  6  1  0
  2  7  1  0
  3  4  3  0
  8  9  1  0
  9 10  1  0
  9 12  2  0
 10 11  3  0
 12 13  2  0
M  RAD  1   8   2
M  END
>  <reaction>  (10) 
rxn_3239

>  <mol_properties>  (10) 
{"0": {"label": "*3", "atom_type": "N3s"}, "1": {"label": "*4", "atom_type": "Cs"}, "8": {"label": "*0", "atom_type": "CO"}, "11": {"label": "*1", "atom_type": "CO"}, "13": {"label": "*2", "atom_type": "H0"}}

>  <type>  (10) 
unop_6

>  <geom_source>  (10) 
Heuristics

$$$$

     RDKit          3D

 14 12  0  0  0  0  0  0  0  0999 V2000
    0.5214   -1.9097   -1.1895 N   0  0  0  0  0  0  0  0  0  0  0  0
   -0.6494   -2.7258   -0.9413 C   0  0  0  0  0  0  0  0  0  0  0  0
   -1.3485   -2.4459    0.3277 C   0  0  0  0  0  0  0  0  0  0  0  0
   -1.8626   -2.1975    1.3229 N   0  0  0  0  0  0  0  0  0  0  0  0
    1.2118   -2.0344   -0.4619 H   0  0  0  0  0  0  0  0  0  0  0  0
   -0.3651   -3.7792   -0.9431 H   0  0  0  0  0  0  0  0  0  0  0  0
   -1.3640   -2.5932   -1.7551 H   0  0  0  0  0  0  0  0  0  0  0  0
    0.5214    1.4645   -1.7118 O   0  0  0  0  0  1  0  0  0  0  0  0
    0.5214    1.4645   -0.5167 C   0  0  0  0  0  0  0  0  0  0  0  0
    0.5214    2.7046    0.2736 C   0  0  0  0  0  0  0  0  0  0  0  0
    0.5214    3.6716    0.8899 N   0  0  0  0  0  0  0  0  0  0  0  0
    0.5214    0.1568    0.2842 C   0  0  0  0  0  0  0  0  0  0  0  0
    0.5214    0.1391    1.4752 O   0  0  0  0  0  0  0  0  0  0  0  0
    0.5214   -0.9222   -0.4853 H   0  0  0  0  0  0  0  0  0  0  0  0
  1  2  1  0
  1  5  1  0
  1 14  1  0
  2  3  1  0
  2  6  1  0
  2  7  1  0
  3  4  3  0
  8  9  1  0
  9 10  1  0
  9 12  2  0
 10 11  3  0
 12 13  2  0
M  RAD  1   8   2
M  END
>  <reaction>  (11) 
rxn_3239

>  <mol_properties>  (11) 
{"0": {"label": "*3", "atom_type": "N3s"}, "1": {"label": "*4", "atom_type": "Cs"}, "8": {"label": "*0", "atom_type": "CO"}, "11": {"label": "*1", "atom_type": "CO"}, "13": {"label": "*2", "atom_type": "H0"}}

>  <type>  (11) 
unop_7

>  <geom_source>  (11) 
Heuristics

$$$$

     RDKit          3D

 14 12  0  0  0  0  0  0  0  0999 V2000
   -0.5193   -2.0485   -0.3329 N   0  0  0  0  0  0  0  0  0  0  0  0
    0.8326   -2.4721   -0.6351 C   0  0  0  0  0  0  0  0  0  0  0  0
    1.3211   -2.0938   -1.9750 C   0  0  0  0  0  0  0  0  0  0  0  0
    1.6627   -1.7805   -3.0247 N   0  0  0  0  0  0  0  0  0  0  0  0
   -1.1790   -2.4448   -0.9881 H   0  0  0  0  0  0  0  0  0  0  0  0
    0.9017   -3.5574   -0.5462 H   0  0  0  0  0  0  0  0  0  0  0  0
    1.5182   -2.0534    0.1033 H   0  0  0  0  0  0  0  0  0  0  0  0
   -0.5193    1.3257   -0.8552 O   0  0  0  0  0  1  0  0  0  0  0  0
   -0.5193    1.3257    0.3399 C   0  0  0  0  0  0  0  0  0  0  0  0
   -0.5193    2.5658    1.1302 C   0  0  0  0  0  0  0  0  0  0  0  0
   -0.5193    3.5328    1.7465 N   0  0  0  0  0  0  0  0  0  0  0  0
   -0.5193    0.0180    1.1408 C   0  0  0  0  0  0  0  0  0  0  0  0
   -0.5193    0.0004    2.3318 O   0  0  0  0  0  0  0  0  0  0  0  0
   -0.5193   -1.0610    0.3713 H   0  0  0  0  0  0  0  0  0  0  0  0
  1  2  1  0
  1  5  1  0
  1 14  1  0
  2  3  1  0
  2  6  1  0
  2  7  1  0
  3  4  3  0
  8  9  1  0
  9 10  1  0
  9 12  2  0
 10 11  3  0
 12 13  2  0
M  RAD  1   8   2
M  END
>  <reaction>  (12) 
rxn_3239

>  <mol_properties>  (12) 
{"0": {"label": "*3", "atom_type": "N3s"}, "1": {"label": "*4", "atom_type": "Cs"}, "8": {"label": "*0", "atom_type": "CO"}, "11": {"label": "*1", "atom_type": "CO"}, "13": {"label": "*2", "atom_type": "H0"}}

>  <type>  (12) 
unop_8

>  <geom_source>  (12) 
Heuristics

$$$$

     RDKit          3D

 14 12  0  0  0  0  0  0  0  0999 V2000
    0.5253   -2.3599   -0.4432 N   0  0  0  0  0  0  0  0  0  0  0  0
   -0.1507   -2.1037   -1.6986 C   0  0  0  0  0  0  0  0  0  0  0  0
   -1.3802   -1.2948   -1.5924 C   0  0  0  0  0  0  0  0  0  0  0  0
   -2.3301   -0.6636   -1.4669 N   0  0  0  0  0  0  0  0  0  0  0  0
   -0.0766   -2.8575    0.1984 H   0  0  0  0  0  0  0  0  0  0  0  0
   -0.4120   -3.0521   -2.1707 H   0  0  0  0  0  0  0  0  0  0  0  0
    0.5305   -1.5921   -2.3803 H   0  0  0  0  0  0  0  0  0  0  0  0
    0.5253    1.0143   -0.9654 O   0  0  0  0  0  1  0  0  0  0  0  0
    0.5253    1.0143    0.2296 C   0  0  0  0  0  0  0  0  0  0  0  0
    0.5253    2.2544    1.0199 C   0  0  0  0  0  0  0  0  0  0  0  0
    0.5253    3.2214    1.6362 N   0  0  0  0  0  0  0  0  0  0  0  0
    0.5253   -0.2934    1.0305 C   0  0  0  0  0  0  0  0  0  0  0  0
    0.5253   -0.3111    2.2215 O   0  0  0  0  0  0  0  0  0  0  0  0
    0.5253   -1.3724    0.2610 H   0  0  0  0  0  0  0  0  0  0  0  0
  1  2  1  0
  1  5  1  0
  1 14  1  0
  2  3  1  0
  2  6  1  0
  2  7  1  0
  3  4  3  0
  8  9  1  0
  9 10  1  0
  9 12  2  0
 10 11  3  0
 12 13  2  0
M  RAD  1   8   2
M  END
>  <reaction>  (13) 
rxn_3239

>  <mol_properties>  (13) 
{"0": {"label": "*3", "atom_type": "N3s"}, "1": {"label": "*4", "atom_type": "Cs"}, "8": {"label": "*0", "atom_type": "CO"}, "11": {"label": "*1", "atom_type": "CO"}, "13": {"label": "*2", "atom_type": "H0"}}

>  <type>  (13) 
unop_9

>  <geom_source>  (13) 
Heuristics

$$$$

     RDKit          3D

 14 12  0  0  0  0  0  0  0  0999 V2000
   -0.2882   -2.2183   -0.1737 N   0  0  0  0  0  0  0  0  0  0  0  0
    0.8826   -2.2495   -1.0262 C   0  0  0  0  0  0  0  0  0  0  0  0
    0.6961   -1.6590   -2.3655 C   0  0  0  0  0  0  0  0  0  0  0  0
    0.5099   -1.1910   -3.3965 N   0  0  0  0  0  0  0  0  0  0  0  0
   -1.0561   -2.7245   -0.5928 H   0  0  0  0  0  0  0  0  0  0  0  0
    1.2097   -3.2822   -1.1567 H   0  0  0  0  0  0  0  0  0  0  0  0
    1.7024   -1.7211   -0.5370 H   0  0  0  0  0  0  0  0  0  0  0  0
   -0.2882    1.1559   -0.6959 O   0  0  0  0  0  1  0  0  0  0  0  0
   -0.2882    1.1559    0.4991 C   0  0  0  0  0  0  0  0  0  0  0  0
   -0.2882    2.3960    1.2895 C   0  0  0  0  0  0  0  0  0  0  0  0
   -0.2882    3.3630    1.9058 N   0  0  0  0  0  0  0  0  0  0  0  0
   -0.2882   -0.1518    1.3001 C   0  0  0  0  0  0  0  0  0  0  0  0
   -0.2882   -0.1695    2.4910 O   0  0  0  0  0  0  0  0  0  0  0  0
   -0.2882   -1.2308    0.5306 H   0  0  0  0  0  0  0  0  0  0  0  0
  1  2  1  0
  1  5  1  0
  1 14  1  0
  2  3  1  0
  2  6  1  0
  2  7  1  0
  3  4  3  0
  8  9  1  0
  9 10  1  0
  9 12  2  0
 10 11  3  0
 12 13  2  0
M  RAD  1   8   2
M  END
>  <reaction>  (14) 
rxn_3239

>  <mol_properties>  (14) 
{"0": {"label": "*3", "atom_type": "N3s"}, "1": {"label": "*4", "atom_type": "Cs"}, "8": {"label": "*0", "atom_type": "CO"}, "11": {"label": "*1", "atom_type": "CO"}, "13": {"label": "*2", "atom_type": "H0"}}

>  <type>  (14) 
unop_10

>  <geom_source>  (14) 
Heuristics

$$$$

     RDKit          3D

 14 12  0  0  0  0  0  0  0  0999 V2000
    0.1774   -1.7580   -1.3579 N   0  0  0  0  0  0  0  0  0  0  0  0
   -0.4986   -2.8615   -0.7069 C   0  0  0  0  0  0  0  0  0  0  0  0
   -0.4478   -2.8427    0.7678 C   0  0  0  0  0  0  0  0  0  0  0  0
   -0.3853   -2.7913    1.9123 N   0  0  0  0  0  0  0  0  0  0  0  0
    1.1588   -1.7403   -1.1168 H   0  0  0  0  0  0  0  0  0  0  0  0
   -0.0657   -3.8038   -1.0461 H   0  0  0  0  0  0  0  0  0  0  0  0
   -1.5475   -2.8730   -1.0069 H   0  0  0  0  0  0  0  0  0  0  0  0
    0.1774    1.6162   -1.8802 O   0  0  0  0  0  1  0  0  0  0  0  0
    0.1774    1.6162   -0.6852 C   0  0  0  0  0  0  0  0  0  0  0  0
    0.1774    2.8563    0.1052 C   0  0  0  0  0  0  0  0  0  0  0  0
    0.1774    3.8233    0.7215 N   0  0  0  0  0  0  0  0  0  0  0  0
    0.1774    0.3085    0.1158 C   0  0  0  0  0  0  0  0  0  0  0  0
    0.1774    0.2908    1.3068 O   0  0  0  0  0  0  0  0  0  0  0  0
    0.1774   -0.7705   -0.6537 H   0  0  0  0  0  0  0  0  0  0  0  0
  1  2  1  0
  1  5  1  0
  1 14  1  0
  2  3  1  0
  2  6  1  0
  2  7  1  0
  3  4  3  0
  8  9  1  0
  9 10  1  0
  9 12  2  0
 10 11  3  0
 12 13  2  0
M  RAD  1   8   2
M  END
>  <reaction>  (15) 
rxn_3239

>  <mol_properties>  (15) 
{"0": {"label": "*3", "atom_type": "N3s"}, "1": {"label": "*4", "atom_type": "Cs"}, "8": {"label": "*0", "atom_type": "CO"}, "11": {"label": "*1", "atom_type": "CO"}, "13": {"label": "*2", "atom_type": "H0"}}

>  <type>  (15) 
unop_11

>  <geom_source>  (15) 
Heuristics

$$$$

     RDKit          3D

 14 12  0  0  0  0  0  0  0  0999 V2000
    0.3098   -2.3893   -0.2542 N   0  0  0  0  0  0  0  0  0  0  0  0
    0.3098   -2.0280   -1.6570 C   0  0  0  0  0  0  0  0  0  0  0  0
   -0.8467   -1.2228   -2.0948 C   0  0  0  0  0  0  0  0  0  0  0  0
   -1.7612   -0.5980   -2.3945 N   0  0  0  0  0  0  0  0  0  0  0  0
   -0.5089   -2.9336   -0.0194 H   0  0  0  0  0  0  0  0  0  0  0  0
    0.3386   -2.9333   -2.2654 H   0  0  0  0  0  0  0  0  0  0  0  0
    1.2167   -1.4669   -1.8877 H   0  0  0  0  0  0  0  0  0  0  0  0
    0.3098    0.9849   -0.7764 O   0  0  0  0  0  1  0  0  0  0  0  0
    0.3098    0.9849    0.4186 C   0  0  0  0  0  0  0  0  0  0  0  0
    0.3098    2.2250    1.2090 C   0  0  0  0  0  0  0  0  0  0  0  0
    0.3098    3.1919    1.8253 N   0  0  0  0  0  0  0  0  0  0  0  0
    0.3098   -0.3229    1.2196 C   0  0  0  0  0  0  0  0  0  0  0  0
    0.3098   -0.3405    2.4105 O   0  0  0  0  0  0  0  0  0  0  0  0
    0.3098   -1.4019    0.4501 H   0  0  0  0  0  0  0  0  0  0  0  0
  1  2  1  0
  1  5  1  0
  1 14  1  0
  2  3  1  0
  2  6  1  0
  2  7  1  0
  3  4  3  0
  8  9  1  0
  9 10  1  0
  9 12  2  0
 10 11  3  0
 12 13  2  0
M  RAD  1   8   2
M  END
>  <reaction>  (16) 
rxn_3239

>  <mol_properties>  (16) 
{"0": {"label": "*3", "atom_type": "N3s"}, "1": {"label": "*4", "atom_type": "Cs"}, "8": {"label": "*0", "atom_type": "CO"}, "11": {"label": "*1", "atom_type": "CO"}, "13": {"label": "*2", "atom_type": "H0"}}

>  <type>  (16) 
unop_12

>  <geom_source>  (16) 
Heuristics

$$$$

     RDKit          3D

 14 12  0  0  0  0  0  0  0  0999 V2000
    0.0181   -2.3390   -0.1463 N   0  0  0  0  0  0  0  0  0  0  0  0
    0.6941   -2.0829   -1.4017 C   0  0  0  0  0  0  0  0  0  0  0  0
   -0.1051   -1.3517   -2.4038 C   0  0  0  0  0  0  0  0  0  0  0  0
   -0.7594   -0.7819   -3.1546 N   0  0  0  0  0  0  0  0  0  0  0  0
   -0.8160   -2.8917   -0.2893 H   0  0  0  0  0  0  0  0  0  0  0  0
    1.0060   -3.0293   -1.8462 H   0  0  0  0  0  0  0  0  0  0  0  0
    1.6038   -1.5103   -1.2144 H   0  0  0  0  0  0  0  0  0  0  0  0
    0.0181    1.0351   -0.6686 O   0  0  0  0  0  1  0  0  0  0  0  0
    0.0181    1.0351    0.5264 C   0  0  0  0  0  0  0  0  0  0  0  0
    0.0181    2.2752    1.3168 C   0  0  0  0  0  0  0  0  0  0  0  0
    0.0181    3.2422    1.9331 N   0  0  0  0  0  0  0  0  0  0  0  0
    0.0181   -0.2726    1.3274 C   0  0  0  0  0  0  0  0  0  0  0  0
    0.0181   -0.2902    2.5184 O   0  0  0  0  0  0  0  0  0  0  0  0
    0.0181   -1.3516    0.5579 H   0  0  0  0  0  0  0  0  0  0  0  0
  1  2  1  0
  1  5  1  0
  1 14  1  0
  2  3  1  0
  2  6  1  0
  2  7  1  0
  3  4  3  0
  8  9  1  0
  9 10  1  0
  9 12  2  0
 10 11  3  0
 12 13  2  0
M  RAD  1   8   2
M  END
>  <reaction>  (17) 
rxn_3239

>  <mol_properties>  (17) 
{"0": {"label": "*3", "atom_type": "N3s"}, "1": {"label": "*4", "atom_type": "Cs"}, "8": {"label": "*0", "atom_type": "CO"}, "11": {"label": "*1", "atom_type": "CO"}, "13": {"label": "*2", "atom_type": "H0"}}

>  <type>  (17) 
unop_13

>  <geom_source>  (17) 
gaussian_log

$$$$
