
     RDKit          3D

  5  4  0  0  0  0  0  0  0  0999 V2000
    0.0000    0.0000    0.0000 C   0  0  0  0  0  0  0  0  0  0  0  0
   -0.6486   -0.7720   -0.4113 H   0  0  0  0  0  0  0  0  0  0  0  0
   -0.3482    0.9787   -0.3267 H   0  0  0  0  0  0  0  0  0  0  0  0
   -0.0223   -0.0487    1.0876 H   0  0  0  0  0  0  0  0  0  0  0  0
    1.0191   -0.1580   -0.3496 H   0  0  0  0  0  0  0  0  0  0  0  0
  1  2  1  0
  1  3  1  0
  1  4  1  0
  1  5  1  0
M  END
>  <reaction>  (1) 
rxn_314

>  <mol_properties>  (1) 
{"0": {"label": "donator", "atom_type": "Cs"}, "1": {"label": "d_hydrogen", "atom_type": "H0"}}

>  <type>  (1) 
r1h

$$$$

     RDKit          3D

  7  6  0  0  0  0  0  0  0  0999 V2000
   -0.6201    0.0189   -0.0017 C   0  0  0  0  0  0  0  0  0  0  0  0
    0.8589   -0.0553    0.0500 C   0  0  0  0  0  3  0  0  0  0  0  0
   -1.0738   -0.9730   -0.0559 H   0  0  0  0  0  0  0  0  0  0  0  0
   -0.9680    0.5706   -0.8872 H   0  0  0  0  0  0  0  0  0  0  0  0
   -1.0303    0.5369    0.8678 H   0  0  0  0  0  0  0  0  0  0  0  0
    1.3939   -0.8386   -0.4695 H   0  0  0  0  0  0  0  0  0  0  0  0
    1.4394    0.7404    0.4965 H   0  0  0  0  0  0  0  0  0  0  0  0
  1  2  1  0
  1  3  1  0
  1  4  1  0
  1  5  1  0
  2  6  1  0
  2  7  1  0
M  RAD  1   2   2
M  END
>  <reaction>  (2) 
rxn_314

>  <mol_properties>  (2) 
{"1": {"label": "acceptor", "atom_type": "Cs"}}

>  <type>  (2) 
r2

$$$$

     RDKit          3D

  8  7  0  0  0  0  0  0  0  0999 V2000
    0.7610    0.0250    0.0051 C   0  0  0  0  0  0  0  0  0  0  0  0
   -0.7610   -0.0250   -0.0051 C   0  0  0  0  0  0  0  0  0  0  0  0
    1.1904   -0.9237   -0.3217 H   0  0  0  0  0  0  0  0  0  0  0  0
    1.1359    0.8041   -0.6609 H   0  0  0  0  0  0  0  0  0  0  0  0
    1.1435    0.2336    1.0058 H   0  0  0  0  0  0  0  0  0  0  0  0
   -1.1435   -0.2336   -1.0058 H   0  0  0  0  0  0  0  0  0  0  0  0
   -1.1904    0.9237    0.3216 H   0  0  0  0  0  0  0  0  0  0  0  0
   -1.1359   -0.8041    0.6609 H   0  0  0  0  0  0  0  0  0  0  0  0
  1  2  1  0
  1  3  1  0
  1  4  1  0
  1  5  1  0
  2  6  1  0
  2  7  1  0
  2  8  1  0
M  END
>  <reaction>  (3) 
rxn_314

>  <mol_properties>  (3) 
{"1": {"label": "acceptor", "atom_type": "Cs"}, "7": {"label": "a_hydrogen", "atom_type": "H0"}}

>  <type>  (3) 
r2h

$$$$

     RDKit          3D

 12 10  0  0  0  0  0  0  0  0999 V2000
    0.4557    1.4252   -0.3122 C   0  0  0  0  0  0  0  0  0  0  0  0
   -0.4273    0.5896    0.5775 C   0  0  0  0  0  0  0  0  0  0  0  0
    0.3885    2.4882   -0.0617 H   0  0  0  0  0  0  0  0  0  0  0  0
    0.1739    1.3183   -1.3616 H   0  0  0  0  0  0  0  0  0  0  0  0
    1.5032    1.1325   -0.2167 H   0  0  0  0  0  0  0  0  0  0  0  0
   -1.4943    0.7735    0.4613 H   0  0  0  0  0  0  0  0  0  0  0  0
   -0.1399    0.5842    1.6278 H   0  0  0  0  0  0  0  0  0  0  0  0
   -0.0765   -1.9413   -0.2406 C   0  0  0  0  0  3  0  0  0  0  0  0
   -0.2808   -0.6617    0.2043 H   0  0  0  0  0  0  0  0  0  0  0  0
   -0.3828   -1.9282   -1.2827 H   0  0  0  0  0  0  0  0  0  0  0  0
    0.9863   -2.1196   -0.1036 H   0  0  0  0  0  0  0  0  0  0  0  0
   -0.7061   -2.5625    0.3896 H   0  0  0  0  0  0  0  0  0  0  0  0
  1  2  1  0
  1  3  1  0
  1  4  1  0
  1  5  1  0
  2  6  1  0
  2  7  1  0
  2  9  1  0
  8 10  1  0
  8 11  1  0
  8 12  1  0
M  RAD  1   8   2
M  END
>  <reaction>  (4) 
rxn_314

>  <mol_properties>  (4) 
{"0": {"label": "*0", "atom_type": "Cs"}, "1": {"label": "*1", "atom_type": "Cs"}, "7": {"label": "*3", "atom_type": "Cs"}, "8": {"label": "*2", "atom_type": "H0"}, "9": {"label": "*4", "atom_type": "H0"}}

>  <type>  (4) 
ts

$$$$

     RDKit          3D

 12 10  0  0  0  0  0  0  0  0999 V2000
   -0.8249    1.0484    0.8580 C   0  0  0  0  0  0  0  0  0  0  0  0
    0.4040    0.7642    0.0049 C   0  0  0  0  0  3  0  0  0  0  0  0
   -0.5734    1.6681    1.7206 H   0  0  0  0  0  0  0  0  0  0  0  0
   -1.2687    0.1245    1.2331 H   0  0  0  0  0  0  0  0  0  0  0  0
   -1.5911    1.5743    0.2856 H   0  0  0  0  0  0  0  0  0  0  0  0
    1.1702    0.2384    0.5773 H   0  0  0  0  0  0  0  0  0  0  0  0
    0.8478    1.6881   -0.3702 H   0  0  0  0  0  0  0  0  0  0  0  0
    0.4040   -1.7025   -0.8672 C   0  0  0  0  0  0  0  0  0  0  0  0
    0.4040   -0.4706   -0.4316 H   0  0  0  0  0  0  0  0  0  0  0  0
    1.2931   -2.2159   -0.5042 H   0  0  0  0  0  0  0  0  0  0  0  0
   -0.4851   -2.2159   -0.5042 H   0  0  0  0  0  0  0  0  0  0  0  0
    0.4040   -1.7025   -1.9561 H   0  0  0  0  0  0  0  0  0  0  0  0
  1  2  1  0
  1  3  1  0
  1  4  1  0
  1  5  1  0
  2  6  1  0
  2  7  1  0
  8  9  1  0
  8 10  1  0
  8 11  1  0
  8 12  1  0
M  RAD  1   2   2
M  END
>  <reaction>  (5) 
rxn_314

>  <mol_properties>  (5) 
{"0": {"label": "*0", "atom_type": "Cs"}, "1": {"label": "*1", "atom_type": "Cs"}, "7": {"label": "*3", "atom_type": "Cs"}, "8": {"label": "*2", "atom_type": "H0"}, "9": {"label": "*4", "atom_type": "H0"}}

>  <type>  (5) 
unop_1

>  <geom_source>  (5) 
Heuristics

$$$$

     RDKit          3D

 12 10  0  0  0  0  0  0  0  0999 V2000
   -0.4667    1.4721   -0.3519 C   0  0  0  0  0  0  0  0  0  0  0  0
    0.2428    0.5417    0.6227 C   0  0  0  0  0  3  0  0  0  0  0  0
   -0.7487    2.4099    0.1301 H   0  0  0  0  0  0  0  0  0  0  0  0
   -1.3772    1.0152   -0.7437 H   0  0  0  0  0  0  0  0  0  0  0  0
    0.1724    1.7168   -1.2022 H   0  0  0  0  0  0  0  0  0  0  0  0
   -0.3963    0.2971    1.4729 H   0  0  0  0  0  0  0  0  0  0  0  0
    1.1533    0.9986    1.0144 H   0  0  0  0  0  0  0  0  0  0  0  0
    0.2428   -1.9251   -0.2495 C   0  0  0  0  0  0  0  0  0  0  0  0
    0.2428   -0.6931    0.1861 H   0  0  0  0  0  0  0  0  0  0  0  0
    1.1319   -2.4384    0.1135 H   0  0  0  0  0  0  0  0  0  0  0  0
   -0.6463   -2.4384    0.1135 H   0  0  0  0  0  0  0  0  0  0  0  0
    0.2428   -1.9251   -1.3384 H   0  0  0  0  0  0  0  0  0  0  0  0
  1  2  1  0
  1  3  1  0
  1  4  1  0
  1  5  1  0
  2  6  1  0
  2  7  1  0
  8  9  1  0
  8 10  1  0
  8 11  1  0
  8 12  1  0
M  RAD  1   2   2
M  END
>  <reaction>  (6) 
rxn_314

>  <mol_properties>  (6) 
{"0": {"label": "*0", "atom_type": "Cs"}, "1": {"label": "*1", "atom_type": "Cs"}, "7": {"label": "*3", "atom_type": "Cs"}, "8": {"label": "*2", "atom_type": "H0"}, "9": {"label": "*4", "atom_type": "H0"}}

>  <type>  (6) 
unop_2

>  <geom_source>  (6) 
Heuristics

$$$$

     RDKit          3D

 12 10  0  0  0  0  0  0  0  0999 V2000
   -0.4820    0.9285    1.1905 C   0  0  0  0  0  0  0  0  0  0  0  0
    0.2275    0.8174   -0.1523 C   0  0  0  0  0  3  0  0  0  0  0  0
   -0.0795    1.7512    1.7841 H   0  0  0  0  0  0  0  0  0  0  0  0
   -0.3692    0.0135    1.7747 H   0  0  0  0  0  0  0  0  0  0  0  0
   -1.5508    1.1073    1.0599 H   0  0  0  0  0  0  0  0  0  0  0  0
    1.2962    0.6386   -0.0217 H   0  0  0  0  0  0  0  0  0  0  0  0
    0.1146    1.7324   -0.7365 H   0  0  0  0  0  0  0  0  0  0  0  0
    0.2275   -1.6494   -1.0244 C   0  0  0  0  0  0  0  0  0  0  0  0
    0.2275   -0.4174   -0.5888 H   0  0  0  0  0  0  0  0  0  0  0  0
    1.1166   -2.1627   -0.6614 H   0  0  0  0  0  0  0  0  0  0  0  0
   -0.6616   -2.1627   -0.6614 H   0  0  0  0  0  0  0  0  0  0  0  0
    0.2275   -1.6494   -2.1133 H   0  0  0  0  0  0  0  0  0  0  0  0
  1  2  1  0
  1  3  1  0
  1  4  1  0
  1  5  1  0
  2  6  1  0
  2  7  1  0
  8  9  1  0
  8 10  1  0
  8 11  1  0
  8 12  1  0
M  RAD  1   2   2
M  END
>  <reaction>  (7) 
rxn_314

>  <mol_properties>  (7) 
{"0": {"label": "*0", "atom_type": "Cs"}, "1": {"label": "*1", "atom_type": "Cs"}, "7": {"label": "*3", "atom_type": "Cs"}, "8": {"label": "*2", "atom_type": "H0"}, "9": {"label": "*4", "atom_type": "H0"}}

>  <type>  (7) 
unop_3

>  <geom_source>  (7) 
Heuristics

$$$$

     RDKit          3D

 12 10  0  0  0  0  0  0  0  0999 V2000
    0.8123    1.3609   -0.0309 C   0  0  0  0  0  0  0  0  0  0  0  0
   -0.4167    0.6036    0.4540 C   0  0  0  0  0  3  0  0  0  0  0  0
    1.1272    2.1114    0.6962 H   0  0  0  0  0  0  0  0  0  0  0  0
    0.6139    1.8760   -0.9725 H   0  0  0  0  0  0  0  0  0  0  0  0
    1.6541    0.6858   -0.1947 H   0  0  0  0  0  0  0  0  0  0  0  0
   -1.2585    1.2787    0.6177 H   0  0  0  0  0  0  0  0  0  0  0  0
   -0.2183    0.0885    1.3955 H   0  0  0  0  0  0  0  0  0  0  0  0
   -0.4167   -1.8632   -0.4182 C   0  0  0  0  0  0  0  0  0  0  0  0
   -0.4167   -0.6312    0.0174 H   0  0  0  0  0  0  0  0  0  0  0  0
    0.4724   -2.3765   -0.0552 H   0  0  0  0  0  0  0  0  0  0  0  0
   -1.3058   -2.3765   -0.0552 H   0  0  0  0  0  0  0  0  0  0  0  0
   -0.4167   -1.8632   -1.5071 H   0  0  0  0  0  0  0  0  0  0  0  0
  1  2  1  0
  1  3  1  0
  1  4  1  0
  1  5  1  0
  2  6  1  0
  2  7  1  0
  8  9  1  0
  8 10  1  0
  8 11  1  0
  8 12  1  0
M  RAD  1   2   2
M  END
>  <reaction>  (8) 
rxn_314

>  <mol_properties>  (8) 
{"0": {"label": "*0", "atom_type": "Cs"}, "1": {"label": "*1", "atom_type": "Cs"}, "7": {"label": "*3", "atom_type": "Cs"}, "8": {"label": "*2", "atom_type": "H0"}, "9": {"label": "*4", "atom_type": "H0"}}

>  <type>  (8) 
unop_4

>  <geom_source>  (8) 
Heuristics

$$$$

     RDKit          3D

 12 10  0  0  0  0  0  0  0  0999 V2000
    0.0000    0.8816    1.3152 C   0  0  0  0  0  0  0  0  0  0  0  0
    0.0000    0.8339   -0.2069 C   0  0  0  0  0  3  0  0  0  0  0  0
   -0.0000    1.9106    1.6790 H   0  0  0  0  0  0  0  0  0  0  0  0
    0.8808    0.3857    1.7267 H   0  0  0  0  0  0  0  0  0  0  0  0
   -0.8808    0.3857    1.7267 H   0  0  0  0  0  0  0  0  0  0  0  0
    0.8808    1.3298   -0.6185 H   0  0  0  0  0  0  0  0  0  0  0  0
   -0.8808    1.3298   -0.6185 H   0  0  0  0  0  0  0  0  0  0  0  0
    0.0000   -1.6329   -1.0790 C   0  0  0  0  0  0  0  0  0  0  0  0
    0.0000   -0.4009   -0.6435 H   0  0  0  0  0  0  0  0  0  0  0  0
    0.8891   -2.1462   -0.7161 H   0  0  0  0  0  0  0  0  0  0  0  0
   -0.8891   -2.1462   -0.7161 H   0  0  0  0  0  0  0  0  0  0  0  0
    0.0000   -1.6329   -2.1680 H   0  0  0  0  0  0  0  0  0  0  0  0
  1  2  1  0
  1  3  1  0
  1  4  1  0
  1  5  1  0
  2  6  1  0
  2  7  1  0
  8  9  1  0
  8 10  1  0
  8 11  1  0
  8 12  1  0
M  RAD  1   2   2
M  END
>  <reaction>  (9) 
rxn_314

>  <mol_properties>  (9) 
{"0": {"label": "*0", "atom_type": "Cs"}, "1": {"label": "*1", "atom_type": "Cs"}, "7": {"label": "*3", "atom_type": "Cs"}, "8": {"label": "*2", "atom_type": "H0"}, "9": {"label": "*4", "atom_type": "H0"}}

>  <type>  (9) 
unop_5

>  <geom_source>  (9) 
Heuristics

$$$$

     RDKit          3D

 12 10  0  0  0  0  0  0  0  0999 V2000
    0.9442    1.2063    0.4112 C   0  0  0  0  0  0  0  0  0  0  0  0
   -0.4749    0.6856    0.2271 C   0  0  0  0  0  3  0  0  0  0  0  0
    1.0277    1.8180    1.3112 H   0  0  0  0  0  0  0  0  0  0  0  0
    1.2533    1.8211   -0.4360 H   0  0  0  0  0  0  0  0  0  0  0  0
    1.6582    0.3859    0.5020 H   0  0  0  0  0  0  0  0  0  0  0  0
   -1.1889    1.5060    0.1363 H   0  0  0  0  0  0  0  0  0  0  0  0
   -0.7840    0.0708    1.0743 H   0  0  0  0  0  0  0  0  0  0  0  0
   -0.4749   -1.7812   -0.6450 C   0  0  0  0  0  0  0  0  0  0  0  0
   -0.4749   -0.5492   -0.2095 H   0  0  0  0  0  0  0  0  0  0  0  0
    0.4142   -2.2945   -0.2821 H   0  0  0  0  0  0  0  0  0  0  0  0
   -1.3640   -2.2945   -0.2821 H   0  0  0  0  0  0  0  0  0  0  0  0
   -0.4749   -1.7812   -1.7340 H   0  0  0  0  0  0  0  0  0  0  0  0
  1  2  1  0
  1  3  1  0
  1  4  1  0
  1  5  1  0
  2  6  1  0
  2  7  1  0
  8  9  1  0
  8 10  1  0
  8 11  1  0
  8 12  1  0
M  RAD  1   2   2
M  END
>  <reaction>  (10) 
rxn_314

>  <mol_properties>  (10) 
{"0": {"label": "*0", "atom_type": "Cs"}, "1": {"label": "*1", "atom_type": "Cs"}, "7": {"label": "*3", "atom_type": "Cs"}, "8": {"label": "*2", "atom_type": "H0"}, "9": {"label": "*4", "atom_type": "H0"}}

>  <type>  (10) 
unop_6

>  <geom_source>  (10) 
Heuristics

$$$$

     RDKit          3D

 12 10  0  0  0  0  0  0  0  0999 V2000
    0.8249    1.0484    0.8580 C   0  0  0  0  0  0  0  0  0  0  0  0
   -0.4040    0.7642    0.0049 C   0  0  0  0  0  3  0  0  0  0  0  0
    0.5734    1.6681    1.7206 H   0  0  0  0  0  0  0  0  0  0  0  0
    1.5911    1.5743    0.2856 H   0  0  0  0  0  0  0  0  0  0  0  0
    1.2687    0.1245    1.2331 H   0  0  0  0  0  0  0  0  0  0  0  0
   -0.8478    1.6881   -0.3702 H   0  0  0  0  0  0  0  0  0  0  0  0
   -1.1702    0.2384    0.5773 H   0  0  0  0  0  0  0  0  0  0  0  0
   -0.4040   -1.7025   -0.8672 C   0  0  0  0  0  0  0  0  0  0  0  0
   -0.4040   -0.4706   -0.4316 H   0  0  0  0  0  0  0  0  0  0  0  0
    0.4851   -2.2159   -0.5042 H   0  0  0  0  0  0  0  0  0  0  0  0
   -1.2931   -2.2159   -0.5042 H   0  0  0  0  0  0  0  0  0  0  0  0
   -0.4040   -1.7025   -1.9561 H   0  0  0  0  0  0  0  0  0  0  0  0
  1  2  1  0
  1  3  1  0
  1  4  1  0
  1  5  1  0
  2  6  1  0
  2  7  1  0
  8  9  1  0
  8 10  1  0
  8 11  1  0
  8 12  1  0
M  RAD  1   2   2
M  END
>  <reaction>  (11) 
rxn_314

>  <mol_properties>  (11) 
{"0": {"label": "*0", "atom_type": "Cs"}, "1": {"label": "*1", "atom_type": "Cs"}, "7": {"label": "*3", "atom_type": "Cs"}, "8": {"label": "*2", "atom_type": "H0"}, "9": {"label": "*4", "atom_type": "H0"}}

>  <type>  (11) 
unop_7

>  <geom_source>  (11) 
Heuristics

$$$$

     RDKit          3D

 12 10  0  0  0  0  0  0  0  0999 V2000
   -0.9442    1.2063    0.4112 C   0  0  0  0  0  0  0  0  0  0  0  0
    0.4749    0.6856    0.2271 C   0  0  0  0  0  3  0  0  0  0  0  0
   -1.0277    1.8180    1.3112 H   0  0  0  0  0  0  0  0  0  0  0  0
   -1.6582    0.3859    0.5020 H   0  0  0  0  0  0  0  0  0  0  0  0
   -1.2533    1.8211   -0.4360 H   0  0  0  0  0  0  0  0  0  0  0  0
    0.7840    0.0708    1.0743 H   0  0  0  0  0  0  0  0  0  0  0  0
    1.1889    1.5060    0.1363 H   0  0  0  0  0  0  0  0  0  0  0  0
    0.4749   -1.7812   -0.6450 C   0  0  0  0  0  0  0  0  0  0  0  0
    0.4749   -0.5492   -0.2095 H   0  0  0  0  0  0  0  0  0  0  0  0
    1.3640   -2.2945   -0.2821 H   0  0  0  0  0  0  0  0  0  0  0  0
   -0.4142   -2.2945   -0.2821 H   0  0  0  0  0  0  0  0  0  0  0  0
    0.4749   -1.7812   -1.7340 H   0  0  0  0  0  0  0  0  0  0  0  0
  1  2  1  0
  1  3  1  0
  1  4  1  0
  1  5  1  0
  2  6  1  0
  2  7  1  0
  8  9  1  0
  8 10  1  0
  8 11  1  0
  8 12  1  0
M  RAD  1   2   2
M  END
>  <reaction>  (12) 
rxn_314

>  <mol_properties>  (12) 
{"0": {"label": "*0", "atom_type": "Cs"}, "1": {"label": "*1", "atom_type": "Cs"}, "7": {"label": "*3", "atom_type": "Cs"}, "8": {"label": "*2", "atom_type": "H0"}, "9": {"label": "*4", "atom_type": "H0"}}

>  <type>  (12) 
unop_8

>  <geom_source>  (12) 
Heuristics

$$$$

     RDKit          3D

 12 10  0  0  0  0  0  0  0  0999 V2000
    0.4667    1.4721   -0.3519 C   0  0  0  0  0  0  0  0  0  0  0  0
   -0.2428    0.5417    0.6227 C   0  0  0  0  0  3  0  0  0  0  0  0
    0.7487    2.4099    0.1301 H   0  0  0  0  0  0  0  0  0  0  0  0
   -0.1724    1.7168   -1.2022 H   0  0  0  0  0  0  0  0  0  0  0  0
    1.3772    1.0152   -0.7437 H   0  0  0  0  0  0  0  0  0  0  0  0
   -1.1533    0.9986    1.0144 H   0  0  0  0  0  0  0  0  0  0  0  0
    0.3963    0.2971    1.4729 H   0  0  0  0  0  0  0  0  0  0  0  0
   -0.2428   -1.9251   -0.2495 C   0  0  0  0  0  0  0  0  0  0  0  0
   -0.2428   -0.6931    0.1861 H   0  0  0  0  0  0  0  0  0  0  0  0
    0.6463   -2.4384    0.1135 H   0  0  0  0  0  0  0  0  0  0  0  0
   -1.1319   -2.4384    0.1135 H   0  0  0  0  0  0  0  0  0  0  0  0
   -0.2428   -1.9251   -1.3384 H   0  0  0  0  0  0  0  0  0  0  0  0
  1  2  1  0
  1  3  1  0
  1  4  1  0
  1  5  1  0
  2  6  1  0
  2  7  1  0
  8  9  1  0
  8 10  1  0
  8 11  1  0
  8 12  1  0
M  RAD  1   2   2
M  END
>  <reaction>  (13) 
rxn_314

>  <mol_properties>  (13) 
{"0": {"label": "*0", "atom_type": "Cs"}, "1": {"label": "*1", "atom_type": "Cs"}, "7": {"label": "*3", "atom_type": "Cs"}, "8": {"label": "*2", "atom_type": "H0"}, "9": {"label": "*4", "atom_type": "H0"}}

>  <type>  (13) 
unop_9

>  <geom_source>  (13) 
Heuristics

$$$$

     RDKit          3D

 12 10  0  0  0  0  0  0  0  0999 V2000
   -0.8123    1.3609   -0.0309 C   0  0  0  0  0  0  0  0  0  0  0  0
    0.4167    0.6036    0.4540 C   0  0  0  0  0  3  0  0  0  0  0  0
   -1.1272    2.1114    0.6962 H   0  0  0  0  0  0  0  0  0  0  0  0
   -1.6541    0.6858   -0.1946 H   0  0  0  0  0  0  0  0  0  0  0  0
   -0.6139    1.8760   -0.9725 H   0  0  0  0  0  0  0  0  0  0  0  0
    0.2183    0.0885    1.3955 H   0  0  0  0  0  0  0  0  0  0  0  0
    1.2585    1.2787    0.6177 H   0  0  0  0  0  0  0  0  0  0  0  0
    0.4167   -1.8632   -0.4182 C   0  0  0  0  0  0  0  0  0  0  0  0
    0.4167   -0.6312    0.0174 H   0  0  0  0  0  0  0  0  0  0  0  0
    1.3058   -2.3765   -0.0552 H   0  0  0  0  0  0  0  0  0  0  0  0
   -0.4724   -2.3765   -0.0552 H   0  0  0  0  0  0  0  0  0  0  0  0
    0.4167   -1.8632   -1.5071 H   0  0  0  0  0  0  0  0  0  0  0  0
  1  2  1  0
  1  3  1  0
  1  4  1  0
  1  5  1  0
  2  6  1  0
  2  7  1  0
  8  9  1  0
  8 10  1  0
  8 11  1  0
  8 12  1  0
M  RAD  1   2   2
M  END
>  <reaction>  (14) 
rxn_314

>  <mol_properties>  (14) 
{"0": {"label": "*0", "atom_type": "Cs"}, "1": {"label": "*1", "atom_type": "Cs"}, "7": {"label": "*3", "atom_type": "Cs"}, "8": {"label": "*2", "atom_type": "H0"}, "9": {"label": "*4", "atom_type": "H0"}}

>  <type>  (14) 
unop_10

>  <geom_source>  (14) 
Heuristics

$$$$

     RDKit          3D

 12 10  0  0  0  0  0  0  0  0999 V2000
    0.4820    0.9285    1.1905 C   0  0  0  0  0  0  0  0  0  0  0  0
   -0.2275    0.8174   -0.1523 C   0  0  0  0  0  3  0  0  0  0  0  0
    0.0795    1.7512    1.7841 H   0  0  0  0  0  0  0  0  0  0  0  0
    1.5508    1.1073    1.0599 H   0  0  0  0  0  0  0  0  0  0  0  0
    0.3692    0.0135    1.7747 H   0  0  0  0  0  0  0  0  0  0  0  0
   -0.1146    1.7324   -0.7365 H   0  0  0  0  0  0  0  0  0  0  0  0
   -1.2962    0.6386   -0.0217 H   0  0  0  0  0  0  0  0  0  0  0  0
   -0.2275   -1.6494   -1.0244 C   0  0  0  0  0  0  0  0  0  0  0  0
   -0.2275   -0.4174   -0.5888 H   0  0  0  0  0  0  0  0  0  0  0  0
    0.6616   -2.1627   -0.6614 H   0  0  0  0  0  0  0  0  0  0  0  0
   -1.1166   -2.1627   -0.6614 H   0  0  0  0  0  0  0  0  0  0  0  0
   -0.2275   -1.6494   -2.1133 H   0  0  0  0  0  0  0  0  0  0  0  0
  1  2  1  0
  1  3  1  0
  1  4  1  0
  1  5  1  0
  2  6  1  0
  2  7  1  0
  8  9  1  0
  8 10  1  0
  8 11  1  0
  8 12  1  0
M  RAD  1   2   2
M  END
>  <reaction>  (15) 
rxn_314

>  <mol_properties>  (15) 
{"0": {"label": "*0", "atom_type": "Cs"}, "1": {"label": "*1", "atom_type": "Cs"}, "7": {"label": "*3", "atom_type": "Cs"}, "8": {"label": "*2", "atom_type": "H0"}, "9": {"label": "*4", "atom_type": "H0"}}

>  <type>  (15) 
unop_11

>  <geom_source>  (15) 
Heuristics

$$$$

     RDKit          3D

 12 10  0  0  0  0  0  0  0  0999 V2000
    0.0000    1.5123   -0.4688 C   0  0  0  0  0  0  0  0  0  0  0  0
    0.0000    0.5186    0.6851 C   0  0  0  0  0  3  0  0  0  0  0  0
    0.0000    2.5413   -0.1050 H   0  0  0  0  0  0  0  0  0  0  0  0
   -0.8808    1.3853   -1.1006 H   0  0  0  0  0  0  0  0  0  0  0  0
    0.8808    1.3853   -1.1006 H   0  0  0  0  0  0  0  0  0  0  0  0
   -0.8808    0.6456    1.3169 H   0  0  0  0  0  0  0  0  0  0  0  0
    0.8808    0.6456    1.3169 H   0  0  0  0  0  0  0  0  0  0  0  0
    0.0000   -1.9482   -0.1871 C   0  0  0  0  0  0  0  0  0  0  0  0
    0.0000   -0.7162    0.2485 H   0  0  0  0  0  0  0  0  0  0  0  0
    0.8891   -2.4615    0.1759 H   0  0  0  0  0  0  0  0  0  0  0  0
   -0.8891   -2.4615    0.1759 H   0  0  0  0  0  0  0  0  0  0  0  0
    0.0000   -1.9482   -1.2760 H   0  0  0  0  0  0  0  0  0  0  0  0
  1  2  1  0
  1  3  1  0
  1  4  1  0
  1  5  1  0
  2  6  1  0
  2  7  1  0
  8  9  1  0
  8 10  1  0
  8 11  1  0
  8 12  1  0
M  RAD  1   2   2
M  END
>  <reaction>  (16) 
rxn_314

>  <mol_properties>  (16) 
{"0": {"label": "*0", "atom_type": "Cs"}, "1": {"label": "*1", "atom_type": "Cs"}, "7": {"label": "*3", "atom_type": "Cs"}, "8": {"label": "*2", "atom_type": "H0"}, "9": {"label": "*4", "atom_type": "H0"}}

>  <type>  (16) 
unop_12

>  <geom_source>  (16) 
Heuristics

$$$$

     RDKit          3D

 12 10  0  0  0  0  0  0  0  0999 V2000
   -1.5956   -0.5011    0.2641 C   0  0  0  0  0  0  0  0  0  0  0  0
   -0.6149    0.5465   -0.2314 C   0  0  0  0  0  3  0  0  0  0  0  0
    1.9332    0.1075    0.0462 C   0  0  0  0  0  0  0  0  0  0  0  0
   -2.6150   -0.2719   -0.1118 H   0  0  0  0  0  0  0  0  0  0  0  0
   -1.6077   -0.5064    1.3741 H   0  0  0  0  0  0  0  0  0  0  0  0
   -1.2879   -1.5033   -0.1007 H   0  0  0  0  0  0  0  0  0  0  0  0
   -0.5983    0.5524   -1.3416 H   0  0  0  0  0  0  0  0  0  0  0  0
   -0.9183    1.5501    0.1343 H   0  0  0  0  0  0  0  0  0  0  0  0
    0.6338    0.2585    0.2341 H   0  0  0  0  0  0  0  0  0  0  0  0
    1.6108   -0.9048   -0.2734 H   0  0  0  0  0  0  0  0  0  0  0  0
    2.3477    0.6557   -0.8247 H   0  0  0  0  0  0  0  0  0  0  0  0
    2.7122    0.0168    0.8309 H   0  0  0  0  0  0  0  0  0  0  0  0
  1  2  1  0
  1  4  1  0
  1  5  1  0
  1  6  1  0
  2  7  1  0
  2  8  1  0
  3  9  1  0
  3 10  1  0
  3 11  1  0
  3 12  1  0
M  RAD  1   2   2
M  END
>  <reaction>  (17) 
rxn_314

>  <mol_properties>  (17) 
{"0": {"label": "*0", "atom_type": "Cs"}, "1": {"label": "*1", "atom_type": "Cs"}, "7": {"label": "*3", "atom_type": "Cs"}, "8": {"label": "*2", "atom_type": "H0"}, "9": {"label": "*4", "atom_type": "H0"}}

>  <type>  (17) 
unop_13

>  <geom_source>  (17) 
AutoTST

$$$$
