
     RDKit          3D

 15 15  0  0  0  0  0  0  0  0999 V2000
    2.2031   -0.2111   -0.1693 C   0  0  0  0  0  0  0  0  0  0  0  0
    0.7140   -0.0314   -0.0623 C   0  0  0  0  0  0  0  0  0  0  0  0
   -0.0114    0.5491   -1.0982 C   0  0  0  0  0  0  0  0  0  0  0  0
   -1.3882    0.6886   -1.0150 C   0  0  0  0  0  0  0  0  0  0  0  0
   -2.0661    0.2493    0.1118 C   0  0  0  0  0  0  0  0  0  0  0  0
   -1.3551   -0.3278    1.1528 C   0  0  0  0  0  0  0  0  0  0  0  0
    0.0216   -0.4648    1.0642 C   0  0  0  0  0  0  0  0  0  0  0  0
    2.6776   -0.1836    0.8122 H   0  0  0  0  0  0  0  0  0  0  0  0
    2.4446   -1.1749   -0.6249 H   0  0  0  0  0  0  0  0  0  0  0  0
    2.6532    0.5664   -0.7875 H   0  0  0  0  0  0  0  0  0  0  0  0
    0.5104    0.8989   -1.9819 H   0  0  0  0  0  0  0  0  0  0  0  0
   -1.9328    1.1452   -1.8322 H   0  0  0  0  0  0  0  0  0  0  0  0
   -3.1409    0.3597    0.1800 H   0  0  0  0  0  0  0  0  0  0  0  0
   -1.8736   -0.6702    2.0398 H   0  0  0  0  0  0  0  0  0  0  0  0
    0.5695   -0.9141    1.8849 H   0  0  0  0  0  0  0  0  0  0  0  0
  1  2  1  0
  1  8  1  0
  1  9  1  0
  1 10  1  0
  2  3  2  0
  2  7  1  0
  3  4  1  0
  3 11  1  0
  4  5  2  0
  4 12  1  0
  5  6  1  0
  5 13  1  0
  6  7  2  0
  6 14  1  0
  7 15  1  0
M  END
>  <reaction>  (1) 
rxn_1435

>  <mol_properties>  (1) 
{"0": {"label": "donator", "atom_type": "Cs"}, "7": {"label": "d_hydrogen", "atom_type": "H0"}}

>  <type>  (1) 
r1h

$$$$

     RDKit          3D

  7  6  0  0  0  0  0  0  0  0999 V2000
   -0.6201    0.0189   -0.0017 C   0  0  0  0  0  0  0  0  0  0  0  0
    0.8589   -0.0553    0.0500 C   0  0  0  0  0  3  0  0  0  0  0  0
   -1.0738   -0.9730   -0.0559 H   0  0  0  0  0  0  0  0  0  0  0  0
   -0.9680    0.5706   -0.8872 H   0  0  0  0  0  0  0  0  0  0  0  0
   -1.0303    0.5369    0.8678 H   0  0  0  0  0  0  0  0  0  0  0  0
    1.3939   -0.8386   -0.4695 H   0  0  0  0  0  0  0  0  0  0  0  0
    1.4394    0.7404    0.4965 H   0  0  0  0  0  0  0  0  0  0  0  0
  1  2  1  0
  1  3  1  0
  1  4  1  0
  1  5  1  0
  2  6  1  0
  2  7  1  0
M  RAD  1   2   2
M  END
>  <reaction>  (2) 
rxn_1435

>  <mol_properties>  (2) 
{"1": {"label": "acceptor", "atom_type": "Cs"}}

>  <type>  (2) 
r2

$$$$

     RDKit          3D

  8  7  0  0  0  0  0  0  0  0999 V2000
    0.7610    0.0250    0.0051 C   0  0  0  0  0  0  0  0  0  0  0  0
   -0.7610   -0.0250   -0.0051 C   0  0  0  0  0  0  0  0  0  0  0  0
    1.1904   -0.9237   -0.3217 H   0  0  0  0  0  0  0  0  0  0  0  0
    1.1359    0.8041   -0.6609 H   0  0  0  0  0  0  0  0  0  0  0  0
    1.1435    0.2336    1.0058 H   0  0  0  0  0  0  0  0  0  0  0  0
   -1.1435   -0.2336   -1.0058 H   0  0  0  0  0  0  0  0  0  0  0  0
   -1.1904    0.9237    0.3216 H   0  0  0  0  0  0  0  0  0  0  0  0
   -1.1359   -0.8041    0.6609 H   0  0  0  0  0  0  0  0  0  0  0  0
  1  2  1  0
  1  3  1  0
  1  4  1  0
  1  5  1  0
  2  6  1  0
  2  7  1  0
  2  8  1  0
M  END
>  <reaction>  (3) 
rxn_1435

>  <mol_properties>  (3) 
{"1": {"label": "acceptor", "atom_type": "Cs"}, "7": {"label": "a_hydrogen", "atom_type": "H0"}}

>  <type>  (3) 
r2h

$$$$

     RDKit          3D

 22 21  0  0  0  0  0  0  0  0999 V2000
   -1.9153   -1.5427    1.3958 C   0  0  0  0  0  0  0  0  0  0  0  0
   -1.0149   -1.4555    2.5937 C   0  0  0  0  0  3  0  0  0  0  0  0
   -2.6861   -2.3096    1.5291 H   0  0  0  0  0  0  0  0  0  0  0  0
   -1.3527   -1.7940    0.4946 H   0  0  0  0  0  0  0  0  0  0  0  0
   -2.4242   -0.5948    1.2117 H   0  0  0  0  0  0  0  0  0  0  0  0
   -0.3945   -2.3289    2.7830 H   0  0  0  0  0  0  0  0  0  0  0  0
   -1.4664   -1.0626    3.5021 H   0  0  0  0  0  0  0  0  0  0  0  0
    0.7750    0.4109    1.8261 C   0  0  0  0  0  0  0  0  0  0  0  0
    0.6622    0.4228    0.3620 C   0  0  0  0  0  0  0  0  0  0  0  0
   -0.2326    1.2789   -0.2852 C   0  0  0  0  0  0  0  0  0  0  0  0
   -0.3960    1.2354   -1.6590 C   0  0  0  0  0  0  0  0  0  0  0  0
    0.3302    0.3316   -2.4217 C   0  0  0  0  0  0  0  0  0  0  0  0
    1.2250   -0.5243   -1.7948 C   0  0  0  0  0  0  0  0  0  0  0  0
    1.3880   -0.4793   -0.4208 C   0  0  0  0  0  0  0  0  0  0  0  0
   -0.0664   -0.4776    2.2608 H   0  0  0  0  0  0  0  0  0  0  0  0
    1.7273    0.0523    2.2108 H   0  0  0  0  0  0  0  0  0  0  0  0
    0.4552    1.3265    2.3188 H   0  0  0  0  0  0  0  0  0  0  0  0
   -0.8061    1.9865    0.3028 H   0  0  0  0  0  0  0  0  0  0  0  0
   -1.0935    1.9110   -2.1386 H   0  0  0  0  0  0  0  0  0  0  0  0
    0.2031    0.2974   -3.4961 H   0  0  0  0  0  0  0  0  0  0  0  0
    1.8000   -1.2304   -2.3811 H   0  0  0  0  0  0  0  0  0  0  0  0
    2.0878   -1.1530    0.0605 H   0  0  0  0  0  0  0  0  0  0  0  0
  1  2  1  0
  1  3  1  0
  1  4  1  0
  1  5  1  0
  2  6  1  0
  2  7  1  0
  8  9  1  0
  8 15  1  0
  8 16  1  0
  8 17  1  0
  9 10  2  0
  9 14  1  0
 10 11  1  0
 10 18  1  0
 11 12  2  0
 11 19  1  0
 12 13  1  0
 12 20  1  0
 13 14  2  0
 13 21  1  0
 14 22  1  0
M  RAD  1   2   2
M  END
>  <reaction>  (4) 
rxn_1435

>  <mol_properties>  (4) 
{"0": {"label": "*4", "atom_type": "Cs"}, "1": {"label": "*3", "atom_type": "Cs"}, "7": {"label": "*1", "atom_type": "Cs"}, "8": {"label": "*0", "atom_type": "Cd"}, "14": {"label": "*2", "atom_type": "H0"}}

>  <type>  (4) 
ts

$$$$

     RDKit          3D

 22 21  0  0  0  0  0  0  0  0999 V2000
   -0.0776   -2.3354    3.3320 C   0  0  0  0  0  0  0  0  0  0  0  0
   -1.0291   -1.5164    2.4702 C   0  0  0  0  0  3  0  0  0  0  0  0
   -0.5839   -2.7311    4.2142 H   0  0  0  0  0  0  0  0  0  0  0  0
    0.7635   -1.7314    3.6769 H   0  0  0  0  0  0  0  0  0  0  0  0
    0.3295   -3.1824    2.7770 H   0  0  0  0  0  0  0  0  0  0  0  0
   -1.4362   -0.6694    3.0251 H   0  0  0  0  0  0  0  0  0  0  0  0
   -1.8702   -2.1204    2.1253 H   0  0  0  0  0  0  0  0  0  0  0  0
    0.1512    0.6180    1.5176 C   0  0  0  0  0  0  0  0  0  0  0  0
    0.1512    0.6180    0.0139 C   0  0  0  0  0  0  0  0  0  0  0  0
    0.1512    1.8123   -0.7002 C   0  0  0  0  0  0  0  0  0  0  0  0
    0.1816    1.8156   -2.0862 C   0  0  0  0  0  0  0  0  0  0  0  0
    0.2111    0.6186   -2.7852 C   0  0  0  0  0  0  0  0  0  0  0  0
    0.2080   -0.5787   -2.0862 C   0  0  0  0  0  0  0  0  0  0  0  0
    0.1775   -0.5761   -0.7002 C   0  0  0  0  0  0  0  0  0  0  0  0
   -0.4387   -0.4488    1.9937 H   0  0  0  0  0  0  0  0  0  0  0  0
    1.1734    0.6292    1.9044 H   0  0  0  0  0  0  0  0  0  0  0  0
   -0.3599    1.4959    1.9143 H   0  0  0  0  0  0  0  0  0  0  0  0
    0.1245    2.7534   -0.1624 H   0  0  0  0  0  0  0  0  0  0  0  0
    0.1790    2.7568   -2.6219 H   0  0  0  0  0  0  0  0  0  0  0  0
    0.2323    0.6189   -3.8676 H   0  0  0  0  0  0  0  0  0  0  0  0
    0.2261   -1.5198   -2.6219 H   0  0  0  0  0  0  0  0  0  0  0  0
    0.1716   -1.5175   -0.1624 H   0  0  0  0  0  0  0  0  0  0  0  0
  1  2  1  0
  1  3  1  0
  1  4  1  0
  1  5  1  0
  2  6  1  0
  2  7  1  0
  8  9  1  0
  8 15  1  0
  8 16  1  0
  8 17  1  0
  9 10  2  0
  9 14  1  0
 10 11  1  0
 10 18  1  0
 11 12  2  0
 11 19  1  0
 12 13  1  0
 12 20  1  0
 13 14  2  0
 13 21  1  0
 14 22  1  0
M  RAD  1   2   2
M  END
>  <reaction>  (5) 
rxn_1435

>  <mol_properties>  (5) 
{"0": {"label": "*4", "atom_type": "Cs"}, "1": {"label": "*3", "atom_type": "Cs"}, "7": {"label": "*1", "atom_type": "Cs"}, "8": {"label": "*0", "atom_type": "Cd"}, "14": {"label": "*2", "atom_type": "H0"}}

>  <type>  (5) 
unop_1

>  <geom_source>  (5) 
Heuristics

$$$$

     RDKit          3D

 22 21  0  0  0  0  0  0  0  0999 V2000
   -0.7773   -2.6513    1.7534 C   0  0  0  0  0  0  0  0  0  0  0  0
   -0.9329   -1.4664    2.6972 C   0  0  0  0  0  3  0  0  0  0  0  0
   -0.9765   -3.5942    2.2656 H   0  0  0  0  0  0  0  0  0  0  0  0
    0.2343   -2.7034    1.3470 H   0  0  0  0  0  0  0  0  0  0  0  0
   -1.4683   -2.5802    0.9115 H   0  0  0  0  0  0  0  0  0  0  0  0
   -0.2419   -1.5375    3.5391 H   0  0  0  0  0  0  0  0  0  0  0  0
   -1.9445   -1.4143    3.1037 H   0  0  0  0  0  0  0  0  0  0  0  0
    0.2473    0.6679    1.7447 C   0  0  0  0  0  0  0  0  0  0  0  0
    0.2473    0.6679    0.2410 C   0  0  0  0  0  0  0  0  0  0  0  0
    0.2473    1.8622   -0.4731 C   0  0  0  0  0  0  0  0  0  0  0  0
    0.2778    1.8656   -1.8591 C   0  0  0  0  0  0  0  0  0  0  0  0
    0.3073    0.6686   -2.5581 C   0  0  0  0  0  0  0  0  0  0  0  0
    0.3042   -0.5288   -1.8591 C   0  0  0  0  0  0  0  0  0  0  0  0
    0.2737   -0.5261   -0.4731 C   0  0  0  0  0  0  0  0  0  0  0  0
   -0.3425   -0.3988    2.2208 H   0  0  0  0  0  0  0  0  0  0  0  0
    1.2696    0.6792    2.1315 H   0  0  0  0  0  0  0  0  0  0  0  0
   -0.2637    1.5458    2.1414 H   0  0  0  0  0  0  0  0  0  0  0  0
    0.2207    2.8033    0.0647 H   0  0  0  0  0  0  0  0  0  0  0  0
    0.2751    2.8068   -2.3948 H   0  0  0  0  0  0  0  0  0  0  0  0
    0.3285    0.6688   -3.6405 H   0  0  0  0  0  0  0  0  0  0  0  0
    0.3223   -1.4699   -2.3948 H   0  0  0  0  0  0  0  0  0  0  0  0
    0.2678   -1.4676    0.0647 H   0  0  0  0  0  0  0  0  0  0  0  0
  1  2  1  0
  1  3  1  0
  1  4  1  0
  1  5  1  0
  2  6  1  0
  2  7  1  0
  8  9  1  0
  8 15  1  0
  8 16  1  0
  8 17  1  0
  9 10  2  0
  9 14  1  0
 10 11  1  0
 10 18  1  0
 11 12  2  0
 11 19  1  0
 12 13  1  0
 12 20  1  0
 13 14  2  0
 13 21  1  0
 14 22  1  0
M  RAD  1   2   2
M  END
>  <reaction>  (6) 
rxn_1435

>  <mol_properties>  (6) 
{"0": {"label": "*4", "atom_type": "Cs"}, "1": {"label": "*3", "atom_type": "Cs"}, "7": {"label": "*1", "atom_type": "Cs"}, "8": {"label": "*0", "atom_type": "Cd"}, "14": {"label": "*2", "atom_type": "H0"}}

>  <type>  (6) 
unop_2

>  <geom_source>  (6) 
Heuristics

$$$$

     RDKit          3D

 22 21  0  0  0  0  0  0  0  0999 V2000
   -0.3937   -1.9694    3.7580 C   0  0  0  0  0  0  0  0  0  0  0  0
   -0.9821   -1.5671    2.4123 C   0  0  0  0  0  3  0  0  0  0  0  0
   -1.1346   -2.4774    4.3780 H   0  0  0  0  0  0  0  0  0  0  0  0
   -0.0408   -1.0979    4.3122 H   0  0  0  0  0  0  0  0  0  0  0  0
    0.4530   -2.6467    3.6333 H   0  0  0  0  0  0  0  0  0  0  0  0
   -1.8288   -0.8898    2.5370 H   0  0  0  0  0  0  0  0  0  0  0  0
   -1.3350   -2.4386    1.8581 H   0  0  0  0  0  0  0  0  0  0  0  0
    0.1982    0.5672    1.4598 C   0  0  0  0  0  0  0  0  0  0  0  0
    0.1982    0.5672   -0.0440 C   0  0  0  0  0  0  0  0  0  0  0  0
    0.1982    1.7615   -0.7580 C   0  0  0  0  0  0  0  0  0  0  0  0
    0.2286    1.7649   -2.1440 C   0  0  0  0  0  0  0  0  0  0  0  0
    0.2581    0.5679   -2.8430 C   0  0  0  0  0  0  0  0  0  0  0  0
    0.2550   -0.6295   -2.1440 C   0  0  0  0  0  0  0  0  0  0  0  0
    0.2245   -0.6268   -0.7580 C   0  0  0  0  0  0  0  0  0  0  0  0
   -0.3917   -0.4995    1.9358 H   0  0  0  0  0  0  0  0  0  0  0  0
    1.2204    0.5785    1.8465 H   0  0  0  0  0  0  0  0  0  0  0  0
   -0.3129    1.4451    1.8565 H   0  0  0  0  0  0  0  0  0  0  0  0
    0.1715    2.7026   -0.2202 H   0  0  0  0  0  0  0  0  0  0  0  0
    0.2260    2.7061   -2.6797 H   0  0  0  0  0  0  0  0  0  0  0  0
    0.2793    0.5681   -3.9254 H   0  0  0  0  0  0  0  0  0  0  0  0
    0.2731   -1.5705   -2.6797 H   0  0  0  0  0  0  0  0  0  0  0  0
    0.2186   -1.5683   -0.2202 H   0  0  0  0  0  0  0  0  0  0  0  0
  1  2  1  0
  1  3  1  0
  1  4  1  0
  1  5  1  0
  2  6  1  0
  2  7  1  0
  8  9  1  0
  8 15  1  0
  8 16  1  0
  8 17  1  0
  9 10  2  0
  9 14  1  0
 10 11  1  0
 10 18  1  0
 11 12  2  0
 11 19  1  0
 12 13  1  0
 12 20  1  0
 13 14  2  0
 13 21  1  0
 14 22  1  0
M  RAD  1   2   2
M  END
>  <reaction>  (7) 
rxn_1435

>  <mol_properties>  (7) 
{"0": {"label": "*4", "atom_type": "Cs"}, "1": {"label": "*3", "atom_type": "Cs"}, "7": {"label": "*1", "atom_type": "Cs"}, "8": {"label": "*0", "atom_type": "Cd"}, "14": {"label": "*2", "atom_type": "H0"}}

>  <type>  (7) 
unop_3

>  <geom_source>  (7) 
Heuristics

$$$$

     RDKit          3D

 22 21  0  0  0  0  0  0  0  0999 V2000
   -2.1796   -1.6885    2.1752 C   0  0  0  0  0  0  0  0  0  0  0  0
   -0.7302   -1.6071    2.6352 C   0  0  0  0  0  3  0  0  0  0  0  0
   -2.8068   -2.1718    2.9264 H   0  0  0  0  0  0  0  0  0  0  0  0
   -2.2700   -2.2618    1.2509 H   0  0  0  0  0  0  0  0  0  0  0  0
   -2.5924   -0.6953    1.9896 H   0  0  0  0  0  0  0  0  0  0  0  0
   -0.3175   -2.6003    2.8208 H   0  0  0  0  0  0  0  0  0  0  0  0
   -0.6399   -1.0338    3.5595 H   0  0  0  0  0  0  0  0  0  0  0  0
    0.4500    0.5272    1.6827 C   0  0  0  0  0  0  0  0  0  0  0  0
    0.4500    0.5272    0.1790 C   0  0  0  0  0  0  0  0  0  0  0  0
    0.4500    1.7215   -0.5351 C   0  0  0  0  0  0  0  0  0  0  0  0
    0.4805    1.7249   -1.9211 C   0  0  0  0  0  0  0  0  0  0  0  0
    0.5100    0.5278   -2.6201 C   0  0  0  0  0  0  0  0  0  0  0  0
    0.5069   -0.6695   -1.9211 C   0  0  0  0  0  0  0  0  0  0  0  0
    0.4763   -0.6668   -0.5351 C   0  0  0  0  0  0  0  0  0  0  0  0
   -0.1399   -0.5395    2.1588 H   0  0  0  0  0  0  0  0  0  0  0  0
    1.4722    0.5384    2.0694 H   0  0  0  0  0  0  0  0  0  0  0  0
   -0.0610    1.4051    2.0794 H   0  0  0  0  0  0  0  0  0  0  0  0
    0.4234    2.6626    0.0027 H   0  0  0  0  0  0  0  0  0  0  0  0
    0.4778    2.6661   -2.4568 H   0  0  0  0  0  0  0  0  0  0  0  0
    0.5311    0.5281   -3.7025 H   0  0  0  0  0  0  0  0  0  0  0  0
    0.5250   -1.6106   -2.4568 H   0  0  0  0  0  0  0  0  0  0  0  0
    0.4705   -1.6083    0.0027 H   0  0  0  0  0  0  0  0  0  0  0  0
  1  2  1  0
  1  3  1  0
  1  4  1  0
  1  5  1  0
  2  6  1  0
  2  7  1  0
  8  9  1  0
  8 15  1  0
  8 16  1  0
  8 17  1  0
  9 10  2  0
  9 14  1  0
 10 11  1  0
 10 18  1  0
 11 12  2  0
 11 19  1  0
 12 13  1  0
 12 20  1  0
 13 14  2  0
 13 21  1  0
 14 22  1  0
M  RAD  1   2   2
M  END
>  <reaction>  (8) 
rxn_1435

>  <mol_properties>  (8) 
{"0": {"label": "*4", "atom_type": "Cs"}, "1": {"label": "*3", "atom_type": "Cs"}, "7": {"label": "*1", "atom_type": "Cs"}, "8": {"label": "*0", "atom_type": "Cd"}, "14": {"label": "*2", "atom_type": "H0"}}

>  <type>  (8) 
unop_4

>  <geom_source>  (8) 
Heuristics

$$$$

     RDKit          3D

 22 21  0  0  0  0  0  0  0  0999 V2000
   -0.9104   -1.6125    3.9150 C   0  0  0  0  0  0  0  0  0  0  0  0
   -0.9113   -1.6141    2.3922 C   0  0  0  0  0  3  0  0  0  0  0  0
   -1.4024   -2.5021    4.3120 H   0  0  0  0  0  0  0  0  0  0  0  0
   -1.4349   -0.7408    4.3102 H   0  0  0  0  0  0  0  0  0  0  0  0
    0.1068   -1.5933    4.3102 H   0  0  0  0  0  0  0  0  0  0  0  0
   -1.9284   -1.6333    1.9970 H   0  0  0  0  0  0  0  0  0  0  0  0
   -0.3868   -2.4858    1.9970 H   0  0  0  0  0  0  0  0  0  0  0  0
    0.2690    0.5203    1.4397 C   0  0  0  0  0  0  0  0  0  0  0  0
    0.2690    0.5203   -0.0641 C   0  0  0  0  0  0  0  0  0  0  0  0
    0.2690    1.7146   -0.7781 C   0  0  0  0  0  0  0  0  0  0  0  0
    0.2994    1.7179   -2.1641 C   0  0  0  0  0  0  0  0  0  0  0  0
    0.3290    0.5209   -2.8631 C   0  0  0  0  0  0  0  0  0  0  0  0
    0.3258   -0.6764   -2.1641 C   0  0  0  0  0  0  0  0  0  0  0  0
    0.2953   -0.6738   -0.7781 C   0  0  0  0  0  0  0  0  0  0  0  0
   -0.3209   -0.5464    1.9157 H   0  0  0  0  0  0  0  0  0  0  0  0
    1.2912    0.5315    1.8264 H   0  0  0  0  0  0  0  0  0  0  0  0
   -0.2421    1.3982    1.8364 H   0  0  0  0  0  0  0  0  0  0  0  0
    0.2424    2.6557   -0.2403 H   0  0  0  0  0  0  0  0  0  0  0  0
    0.2968    2.6592   -2.6998 H   0  0  0  0  0  0  0  0  0  0  0  0
    0.3501    0.5212   -3.9455 H   0  0  0  0  0  0  0  0  0  0  0  0
    0.3439   -1.6175   -2.6998 H   0  0  0  0  0  0  0  0  0  0  0  0
    0.2895   -1.6152   -0.2403 H   0  0  0  0  0  0  0  0  0  0  0  0
  1  2  1  0
  1  3  1  0
  1  4  1  0
  1  5  1  0
  2  6  1  0
  2  7  1  0
  8  9  1  0
  8 15  1  0
  8 16  1  0
  8 17  1  0
  9 10  2  0
  9 14  1  0
 10 11  1  0
 10 18  1  0
 11 12  2  0
 11 19  1  0
 12 13  1  0
 12 20  1  0
 13 14  2  0
 13 21  1  0
 14 22  1  0
M  RAD  1   2   2
M  END
>  <reaction>  (9) 
rxn_1435

>  <mol_properties>  (9) 
{"0": {"label": "*4", "atom_type": "Cs"}, "1": {"label": "*3", "atom_type": "Cs"}, "7": {"label": "*1", "atom_type": "Cs"}, "8": {"label": "*0", "atom_type": "Cd"}, "14": {"label": "*2", "atom_type": "H0"}}

>  <type>  (9) 
unop_5

>  <geom_source>  (9) 
Heuristics

$$$$

     RDKit          3D

 22 21  0  0  0  0  0  0  0  0999 V2000
   -2.2182   -1.4102    2.7528 C   0  0  0  0  0  0  0  0  0  0  0  0
   -0.7274   -1.6467    2.5518 C   0  0  0  0  0  3  0  0  0  0  0  0
   -2.5730   -1.8792    3.6722 H   0  0  0  0  0  0  0  0  0  0  0  0
   -2.7994   -1.8224    1.9260 H   0  0  0  0  0  0  0  0  0  0  0  0
   -2.4448   -0.3445    2.8168 H   0  0  0  0  0  0  0  0  0  0  0  0
   -0.5007   -2.7124    2.4878 H   0  0  0  0  0  0  0  0  0  0  0  0
   -0.1462   -1.2345    3.3786 H   0  0  0  0  0  0  0  0  0  0  0  0
    0.4529    0.4876    1.5993 C   0  0  0  0  0  0  0  0  0  0  0  0
    0.4529    0.4876    0.0956 C   0  0  0  0  0  0  0  0  0  0  0  0
    0.4529    1.6819   -0.6185 C   0  0  0  0  0  0  0  0  0  0  0  0
    0.4833    1.6853   -2.0045 C   0  0  0  0  0  0  0  0  0  0  0  0
    0.5129    0.4883   -2.7035 C   0  0  0  0  0  0  0  0  0  0  0  0
    0.5097   -0.7091   -2.0045 C   0  0  0  0  0  0  0  0  0  0  0  0
    0.4792   -0.7064   -0.6185 C   0  0  0  0  0  0  0  0  0  0  0  0
   -0.1370   -0.5791    2.0754 H   0  0  0  0  0  0  0  0  0  0  0  0
    1.4751    0.4989    1.9861 H   0  0  0  0  0  0  0  0  0  0  0  0
   -0.0581    1.3655    1.9960 H   0  0  0  0  0  0  0  0  0  0  0  0
    0.4263    2.6230   -0.0807 H   0  0  0  0  0  0  0  0  0  0  0  0
    0.4807    2.6265   -2.5402 H   0  0  0  0  0  0  0  0  0  0  0  0
    0.5340    0.4885   -3.7859 H   0  0  0  0  0  0  0  0  0  0  0  0
    0.5279   -1.6501   -2.5402 H   0  0  0  0  0  0  0  0  0  0  0  0
    0.4734   -1.6479   -0.0807 H   0  0  0  0  0  0  0  0  0  0  0  0
  1  2  1  0
  1  3  1  0
  1  4  1  0
  1  5  1  0
  2  6  1  0
  2  7  1  0
  8  9  1  0
  8 15  1  0
  8 16  1  0
  8 17  1  0
  9 10  2  0
  9 14  1  0
 10 11  1  0
 10 18  1  0
 11 12  2  0
 11 19  1  0
 12 13  1  0
 12 20  1  0
 13 14  2  0
 13 21  1  0
 14 22  1  0
M  RAD  1   2   2
M  END
>  <reaction>  (10) 
rxn_1435

>  <mol_properties>  (10) 
{"0": {"label": "*4", "atom_type": "Cs"}, "1": {"label": "*3", "atom_type": "Cs"}, "7": {"label": "*1", "atom_type": "Cs"}, "8": {"label": "*0", "atom_type": "Cd"}, "14": {"label": "*2", "atom_type": "H0"}}

>  <type>  (10) 
unop_6

>  <geom_source>  (10) 
Heuristics

$$$$

     RDKit          3D

 22 21  0  0  0  0  0  0  0  0999 V2000
   -1.9654   -1.2915    3.3320 C   0  0  0  0  0  0  0  0  0  0  0  0
   -0.7659   -1.6619    2.4702 C   0  0  0  0  0  3  0  0  0  0  0  0
   -2.0315   -1.9306    4.2142 H   0  0  0  0  0  0  0  0  0  0  0  0
   -2.8993   -1.3969    2.7770 H   0  0  0  0  0  0  0  0  0  0  0  0
   -1.9010   -0.2580    3.6769 H   0  0  0  0  0  0  0  0  0  0  0  0
   -0.8303   -2.6954    2.1253 H   0  0  0  0  0  0  0  0  0  0  0  0
    0.1679   -1.5564    3.0251 H   0  0  0  0  0  0  0  0  0  0  0  0
    0.4143    0.4724    1.5176 C   0  0  0  0  0  0  0  0  0  0  0  0
    0.4143    0.4724    0.0139 C   0  0  0  0  0  0  0  0  0  0  0  0
    0.4143    1.6668   -0.7002 C   0  0  0  0  0  0  0  0  0  0  0  0
    0.4448    1.6701   -2.0862 C   0  0  0  0  0  0  0  0  0  0  0  0
    0.4743    0.4731   -2.7852 C   0  0  0  0  0  0  0  0  0  0  0  0
    0.4712   -0.7243   -2.0862 C   0  0  0  0  0  0  0  0  0  0  0  0
    0.4407   -0.7216   -0.7002 C   0  0  0  0  0  0  0  0  0  0  0  0
   -0.1755   -0.5943    1.9937 H   0  0  0  0  0  0  0  0  0  0  0  0
    1.4366    0.4837    1.9044 H   0  0  0  0  0  0  0  0  0  0  0  0
   -0.0967    1.3503    1.9143 H   0  0  0  0  0  0  0  0  0  0  0  0
    0.3877    2.6079   -0.1624 H   0  0  0  0  0  0  0  0  0  0  0  0
    0.4421    2.6113   -2.6219 H   0  0  0  0  0  0  0  0  0  0  0  0
    0.4955    0.4733   -3.8676 H   0  0  0  0  0  0  0  0  0  0  0  0
    0.4893   -1.6653   -2.6219 H   0  0  0  0  0  0  0  0  0  0  0  0
    0.4348   -1.6631   -0.1624 H   0  0  0  0  0  0  0  0  0  0  0  0
  1  2  1  0
  1  3  1  0
  1  4  1  0
  1  5  1  0
  2  6  1  0
  2  7  1  0
  8  9  1  0
  8 15  1  0
  8 16  1  0
  8 17  1  0
  9 10  2  0
  9 14  1  0
 10 11  1  0
 10 18  1  0
 11 12  2  0
 11 19  1  0
 12 13  1  0
 12 20  1  0
 13 14  2  0
 13 21  1  0
 14 22  1  0
M  RAD  1   2   2
M  END
>  <reaction>  (11) 
rxn_1435

>  <mol_properties>  (11) 
{"0": {"label": "*4", "atom_type": "Cs"}, "1": {"label": "*3", "atom_type": "Cs"}, "7": {"label": "*1", "atom_type": "Cs"}, "8": {"label": "*0", "atom_type": "Cd"}, "14": {"label": "*2", "atom_type": "H0"}}

>  <type>  (11) 
unop_7

>  <geom_source>  (11) 
Heuristics

$$$$

     RDKit          3D

 22 21  0  0  0  0  0  0  0  0999 V2000
   -0.0438   -2.6126    2.7528 C   0  0  0  0  0  0  0  0  0  0  0  0
   -1.0367   -1.4756    2.5518 C   0  0  0  0  0  3  0  0  0  0  0  0
   -0.2524   -3.1625    3.6722 H   0  0  0  0  0  0  0  0  0  0  0  0
    0.9793   -2.2379    2.8168 H   0  0  0  0  0  0  0  0  0  0  0  0
   -0.0839   -3.3240    1.9260 H   0  0  0  0  0  0  0  0  0  0  0  0
   -0.9965   -0.7643    3.3786 H   0  0  0  0  0  0  0  0  0  0  0  0
   -2.0598   -1.8503    2.4878 H   0  0  0  0  0  0  0  0  0  0  0  0
    0.1435    0.6587    1.5993 C   0  0  0  0  0  0  0  0  0  0  0  0
    0.1435    0.6587    0.0956 C   0  0  0  0  0  0  0  0  0  0  0  0
    0.1435    1.8530   -0.6185 C   0  0  0  0  0  0  0  0  0  0  0  0
    0.1740    1.8564   -2.0045 C   0  0  0  0  0  0  0  0  0  0  0  0
    0.2035    0.6593   -2.7035 C   0  0  0  0  0  0  0  0  0  0  0  0
    0.2004   -0.5380   -2.0045 C   0  0  0  0  0  0  0  0  0  0  0  0
    0.1699   -0.5353   -0.6185 C   0  0  0  0  0  0  0  0  0  0  0  0
   -0.4463   -0.4080    2.0754 H   0  0  0  0  0  0  0  0  0  0  0  0
    1.1658    0.6699    1.9861 H   0  0  0  0  0  0  0  0  0  0  0  0
   -0.3675    1.5366    1.9960 H   0  0  0  0  0  0  0  0  0  0  0  0
    0.1169    2.7941   -0.0807 H   0  0  0  0  0  0  0  0  0  0  0  0
    0.1713    2.7976   -2.5402 H   0  0  0  0  0  0  0  0  0  0  0  0
    0.2247    0.6596   -3.7859 H   0  0  0  0  0  0  0  0  0  0  0  0
    0.2185   -1.4791   -2.5402 H   0  0  0  0  0  0  0  0  0  0  0  0
    0.1640   -1.4768   -0.0807 H   0  0  0  0  0  0  0  0  0  0  0  0
  1  2  1  0
  1  3  1  0
  1  4  1  0
  1  5  1  0
  2  6  1  0
  2  7  1  0
  8  9  1  0
  8 15  1  0
  8 16  1  0
  8 17  1  0
  9 10  2  0
  9 14  1  0
 10 11  1  0
 10 18  1  0
 11 12  2  0
 11 19  1  0
 12 13  1  0
 12 20  1  0
 13 14  2  0
 13 21  1  0
 14 22  1  0
M  RAD  1   2   2
M  END
>  <reaction>  (12) 
rxn_1435

>  <mol_properties>  (12) 
{"0": {"label": "*4", "atom_type": "Cs"}, "1": {"label": "*3", "atom_type": "Cs"}, "7": {"label": "*1", "atom_type": "Cs"}, "8": {"label": "*0", "atom_type": "Cd"}, "14": {"label": "*2", "atom_type": "H0"}}

>  <type>  (12) 
unop_8

>  <geom_source>  (12) 
Heuristics

$$$$

     RDKit          3D

 22 21  0  0  0  0  0  0  0  0999 V2000
   -1.8610   -2.0520    1.7534 C   0  0  0  0  0  0  0  0  0  0  0  0
   -0.7747   -1.5539    2.6972 C   0  0  0  0  0  3  0  0  0  0  0  0
   -2.5537   -2.7221    2.2656 H   0  0  0  0  0  0  0  0  0  0  0  0
   -1.4334   -2.5994    0.9116 H   0  0  0  0  0  0  0  0  0  0  0  0
   -2.4430   -1.2229    1.3470 H   0  0  0  0  0  0  0  0  0  0  0  0
   -0.1928   -2.3830    3.1037 H   0  0  0  0  0  0  0  0  0  0  0  0
   -1.2023   -1.0065    3.5391 H   0  0  0  0  0  0  0  0  0  0  0  0
    0.4055    0.5804    1.7447 C   0  0  0  0  0  0  0  0  0  0  0  0
    0.4055    0.5804    0.2410 C   0  0  0  0  0  0  0  0  0  0  0  0
    0.4055    1.7748   -0.4731 C   0  0  0  0  0  0  0  0  0  0  0  0
    0.4360    1.7781   -1.8591 C   0  0  0  0  0  0  0  0  0  0  0  0
    0.4655    0.5811   -2.5581 C   0  0  0  0  0  0  0  0  0  0  0  0
    0.4624   -0.6163   -1.8591 C   0  0  0  0  0  0  0  0  0  0  0  0
    0.4318   -0.6136   -0.4731 C   0  0  0  0  0  0  0  0  0  0  0  0
   -0.1844   -0.4863    2.2208 H   0  0  0  0  0  0  0  0  0  0  0  0
    1.4277    0.5917    2.1315 H   0  0  0  0  0  0  0  0  0  0  0  0
   -0.1055    1.4583    2.1414 H   0  0  0  0  0  0  0  0  0  0  0  0
    0.3789    2.7159    0.0647 H   0  0  0  0  0  0  0  0  0  0  0  0
    0.4333    2.7193   -2.3948 H   0  0  0  0  0  0  0  0  0  0  0  0
    0.4866    0.5813   -3.6405 H   0  0  0  0  0  0  0  0  0  0  0  0
    0.4805   -1.5573   -2.3948 H   0  0  0  0  0  0  0  0  0  0  0  0
    0.4260   -1.5551    0.0647 H   0  0  0  0  0  0  0  0  0  0  0  0
  1  2  1  0
  1  3  1  0
  1  4  1  0
  1  5  1  0
  2  6  1  0
  2  7  1  0
  8  9  1  0
  8 15  1  0
  8 16  1  0
  8 17  1  0
  9 10  2  0
  9 14  1  0
 10 11  1  0
 10 18  1  0
 11 12  2  0
 11 19  1  0
 12 13  1  0
 12 20  1  0
 13 14  2  0
 13 21  1  0
 14 22  1  0
M  RAD  1   2   2
M  END
>  <reaction>  (13) 
rxn_1435

>  <mol_properties>  (13) 
{"0": {"label": "*4", "atom_type": "Cs"}, "1": {"label": "*3", "atom_type": "Cs"}, "7": {"label": "*1", "atom_type": "Cs"}, "8": {"label": "*0", "atom_type": "Cd"}, "14": {"label": "*2", "atom_type": "H0"}}

>  <type>  (13) 
unop_9

>  <geom_source>  (13) 
Heuristics

$$$$

     RDKit          3D

 22 21  0  0  0  0  0  0  0  0999 V2000
   -0.3000   -2.7279    2.1752 C   0  0  0  0  0  0  0  0  0  0  0  0
   -1.0017   -1.4571    2.6352 C   0  0  0  0  0  3  0  0  0  0  0  0
   -0.3760   -3.5160    2.9264 H   0  0  0  0  0  0  0  0  0  0  0  0
    0.7606   -2.5495    1.9896 H   0  0  0  0  0  0  0  0  0  0  0  0
   -0.7376   -3.1092    1.2509 H   0  0  0  0  0  0  0  0  0  0  0  0
   -0.5641   -1.0757    3.5595 H   0  0  0  0  0  0  0  0  0  0  0  0
   -2.0623   -1.6355    2.8208 H   0  0  0  0  0  0  0  0  0  0  0  0
    0.1786    0.6773    1.6827 C   0  0  0  0  0  0  0  0  0  0  0  0
    0.1786    0.6773    0.1790 C   0  0  0  0  0  0  0  0  0  0  0  0
    0.1786    1.8716   -0.5351 C   0  0  0  0  0  0  0  0  0  0  0  0
    0.2090    1.8750   -1.9211 C   0  0  0  0  0  0  0  0  0  0  0  0
    0.2386    0.6779   -2.6201 C   0  0  0  0  0  0  0  0  0  0  0  0
    0.2354   -0.5194   -1.9211 C   0  0  0  0  0  0  0  0  0  0  0  0
    0.2049   -0.5168   -0.5351 C   0  0  0  0  0  0  0  0  0  0  0  0
   -0.4113   -0.3894    2.1588 H   0  0  0  0  0  0  0  0  0  0  0  0
    1.2008    0.6885    2.0694 H   0  0  0  0  0  0  0  0  0  0  0  0
   -0.3324    1.5552    2.0794 H   0  0  0  0  0  0  0  0  0  0  0  0
    0.1520    2.8127    0.0027 H   0  0  0  0  0  0  0  0  0  0  0  0
    0.2064    2.8162   -2.4568 H   0  0  0  0  0  0  0  0  0  0  0  0
    0.2597    0.6782   -3.7025 H   0  0  0  0  0  0  0  0  0  0  0  0
    0.2535   -1.4605   -2.4568 H   0  0  0  0  0  0  0  0  0  0  0  0
    0.1991   -1.4582    0.0027 H   0  0  0  0  0  0  0  0  0  0  0  0
  1  2  1  0
  1  3  1  0
  1  4  1  0
  1  5  1  0
  2  6  1  0
  2  7  1  0
  8  9  1  0
  8 15  1  0
  8 16  1  0
  8 17  1  0
  9 10  2  0
  9 14  1  0
 10 11  1  0
 10 18  1  0
 11 12  2  0
 11 19  1  0
 12 13  1  0
 12 20  1  0
 13 14  2  0
 13 21  1  0
 14 22  1  0
M  RAD  1   2   2
M  END
>  <reaction>  (14) 
rxn_1435

>  <mol_properties>  (14) 
{"0": {"label": "*4", "atom_type": "Cs"}, "1": {"label": "*3", "atom_type": "Cs"}, "7": {"label": "*1", "atom_type": "Cs"}, "8": {"label": "*0", "atom_type": "Cd"}, "14": {"label": "*2", "atom_type": "H0"}}

>  <type>  (14) 
unop_10

>  <geom_source>  (14) 
Heuristics

$$$$

     RDKit          3D

 22 21  0  0  0  0  0  0  0  0999 V2000
   -1.4874   -1.3647    3.7580 C   0  0  0  0  0  0  0  0  0  0  0  0
   -0.8339   -1.6491    2.4123 C   0  0  0  0  0  3  0  0  0  0  0  0
   -1.5238   -2.2622    4.3780 H   0  0  0  0  0  0  0  0  0  0  0  0
   -2.5112   -1.0076    3.6333 H   0  0  0  0  0  0  0  0  0  0  0  0
   -0.9369   -0.6024    4.3122 H   0  0  0  0  0  0  0  0  0  0  0  0
   -1.3844   -2.4113    1.8581 H   0  0  0  0  0  0  0  0  0  0  0  0
    0.1899   -2.0061    2.5370 H   0  0  0  0  0  0  0  0  0  0  0  0
    0.3464    0.4852    1.4598 C   0  0  0  0  0  0  0  0  0  0  0  0
    0.3464    0.4852   -0.0440 C   0  0  0  0  0  0  0  0  0  0  0  0
    0.3464    1.6796   -0.7580 C   0  0  0  0  0  0  0  0  0  0  0  0
    0.3768    1.6829   -2.1440 C   0  0  0  0  0  0  0  0  0  0  0  0
    0.4063    0.4859   -2.8430 C   0  0  0  0  0  0  0  0  0  0  0  0
    0.4032   -0.7115   -2.1440 C   0  0  0  0  0  0  0  0  0  0  0  0
    0.3727   -0.7088   -0.7580 C   0  0  0  0  0  0  0  0  0  0  0  0
   -0.2435   -0.5815    1.9358 H   0  0  0  0  0  0  0  0  0  0  0  0
    1.3686    0.4965    1.8465 H   0  0  0  0  0  0  0  0  0  0  0  0
   -0.1647    1.3631    1.8565 H   0  0  0  0  0  0  0  0  0  0  0  0
    0.3197    2.6207   -0.2202 H   0  0  0  0  0  0  0  0  0  0  0  0
    0.3742    2.6241   -2.6797 H   0  0  0  0  0  0  0  0  0  0  0  0
    0.4275    0.4861   -3.9254 H   0  0  0  0  0  0  0  0  0  0  0  0
    0.4213   -1.6525   -2.6797 H   0  0  0  0  0  0  0  0  0  0  0  0
    0.3668   -1.6502   -0.2202 H   0  0  0  0  0  0  0  0  0  0  0  0
  1  2  1  0
  1  3  1  0
  1  4  1  0
  1  5  1  0
  2  6  1  0
  2  7  1  0
  8  9  1  0
  8 15  1  0
  8 16  1  0
  8 17  1  0
  9 10  2  0
  9 14  1  0
 10 11  1  0
 10 18  1  0
 11 12  2  0
 11 19  1  0
 12 13  1  0
 12 20  1  0
 13 14  2  0
 13 21  1  0
 14 22  1  0
M  RAD  1   2   2
M  END
>  <reaction>  (15) 
rxn_1435

>  <mol_properties>  (15) 
{"0": {"label": "*4", "atom_type": "Cs"}, "1": {"label": "*3", "atom_type": "Cs"}, "7": {"label": "*1", "atom_type": "Cs"}, "8": {"label": "*0", "atom_type": "Cd"}, "14": {"label": "*2", "atom_type": "H0"}}

>  <type>  (15) 
unop_11

>  <geom_source>  (15) 
Heuristics

$$$$

     RDKit          3D

 22 21  0  0  0  0  0  0  0  0999 V2000
   -1.3481   -2.4040    1.5992 C   0  0  0  0  0  0  0  0  0  0  0  0
   -0.8493   -1.5020    2.7202 C   0  0  0  0  0  3  0  0  0  0  0  0
   -1.8401   -3.2936    1.9963 H   0  0  0  0  0  0  0  0  0  0  0  0
   -0.5257   -2.7371    0.9636 H   0  0  0  0  0  0  0  0  0  0  0  0
   -2.0674   -1.8846    0.9636 H   0  0  0  0  0  0  0  0  0  0  0  0
   -0.1300   -2.0214    3.3558 H   0  0  0  0  0  0  0  0  0  0  0  0
   -1.6716   -1.1688    3.3558 H   0  0  0  0  0  0  0  0  0  0  0  0
    0.3310    0.6324    1.7676 C   0  0  0  0  0  0  0  0  0  0  0  0
    0.3310    0.6324    0.2639 C   0  0  0  0  0  0  0  0  0  0  0  0
    0.3310    1.8267   -0.4502 C   0  0  0  0  0  0  0  0  0  0  0  0
    0.3614    1.8300   -1.8361 C   0  0  0  0  0  0  0  0  0  0  0  0
    0.3909    0.6330   -2.5352 C   0  0  0  0  0  0  0  0  0  0  0  0
    0.3878   -0.5643   -1.8361 C   0  0  0  0  0  0  0  0  0  0  0  0
    0.3573   -0.5617   -0.4502 C   0  0  0  0  0  0  0  0  0  0  0  0
   -0.2589   -0.4344    2.2437 H   0  0  0  0  0  0  0  0  0  0  0  0
    1.3532    0.6436    2.1544 H   0  0  0  0  0  0  0  0  0  0  0  0
   -0.1801    1.5103    2.1644 H   0  0  0  0  0  0  0  0  0  0  0  0
    0.3043    2.7678    0.0877 H   0  0  0  0  0  0  0  0  0  0  0  0
    0.3588    2.7713   -2.3719 H   0  0  0  0  0  0  0  0  0  0  0  0
    0.4121    0.6333   -3.6175 H   0  0  0  0  0  0  0  0  0  0  0  0
    0.4059   -1.5054   -2.3719 H   0  0  0  0  0  0  0  0  0  0  0  0
    0.3514   -1.5031    0.0877 H   0  0  0  0  0  0  0  0  0  0  0  0
  1  2  1  0
  1  3  1  0
  1  4  1  0
  1  5  1  0
  2  6  1  0
  2  7  1  0
  8  9  1  0
  8 15  1  0
  8 16  1  0
  8 17  1  0
  9 10  2  0
  9 14  1  0
 10 11  1  0
 10 18  1  0
 11 12  2  0
 11 19  1  0
 12 13  1  0
 12 20  1  0
 13 14  2  0
 13 21  1  0
 14 22  1  0
M  RAD  1   2   2
M  END
>  <reaction>  (16) 
rxn_1435

>  <mol_properties>  (16) 
{"0": {"label": "*4", "atom_type": "Cs"}, "1": {"label": "*3", "atom_type": "Cs"}, "7": {"label": "*1", "atom_type": "Cs"}, "8": {"label": "*0", "atom_type": "Cd"}, "14": {"label": "*2", "atom_type": "H0"}}

>  <type>  (16) 
unop_12

>  <geom_source>  (16) 
Heuristics

$$$$

     RDKit          3D

 22 21  0  0  0  0  0  0  0  0999 V2000
    3.8056    0.1893    0.0839 C   0  0  0  0  0  0  0  0  0  0  0  0
    2.4485    0.2521    0.7617 C   0  0  0  0  0  0  0  0  0  0  0  0
   -0.8961   -0.2107   -0.4350 C   0  0  0  0  0  0  0  0  0  0  0  0
   -1.1871    0.0388    0.9129 C   0  0  0  0  0  3  0  0  0  0  0  0
   -1.9407   -0.3025   -1.3671 C   0  0  0  0  0  0  0  0  0  0  0  0
   -2.5144    0.1955    1.3261 C   0  0  0  0  0  0  0  0  0  0  0  0
   -3.5536    0.1035    0.3949 C   0  0  0  0  0  0  0  0  0  0  0  0
   -3.2669   -0.1453   -0.9509 C   0  0  0  0  0  0  0  0  0  0  0  0
    0.5226   -0.3770   -0.8696 C   0  0  0  0  0  0  0  0  0  0  0  0
    3.7478    0.6705   -0.9148 H   0  0  0  0  0  0  0  0  0  0  0  0
    4.1131   -0.8701   -0.0404 H   0  0  0  0  0  0  0  0  0  0  0  0
    4.5610    0.7190    0.7017 H   0  0  0  0  0  0  0  0  0  0  0  0
    2.5030   -0.2308    1.7601 H   0  0  0  0  0  0  0  0  0  0  0  0
    2.1374    1.3108    0.8852 H   0  0  0  0  0  0  0  0  0  0  0  0
    1.5632   -0.3734    0.0295 H   0  0  0  0  0  0  0  0  0  0  0  0
   -0.3888    0.1116    1.6413 H   0  0  0  0  0  0  0  0  0  0  0  0
   -2.7373    0.3881    2.3676 H   0  0  0  0  0  0  0  0  0  0  0  0
   -1.7276   -0.4950   -2.4114 H   0  0  0  0  0  0  0  0  0  0  0  0
   -4.5800    0.2250    0.7160 H   0  0  0  0  0  0  0  0  0  0  0  0
   -4.0718   -0.2164   -1.6710 H   0  0  0  0  0  0  0  0  0  0  0  0
    0.7890    0.4029   -1.6135 H   0  0  0  0  0  0  0  0  0  0  0  0
    0.6731   -1.3861   -1.3074 H   0  0  0  0  0  0  0  0  0  0  0  0
  1  2  1  0
  1 10  1  0
  1 11  1  0
  1 12  1  0
  2 13  1  0
  2 14  1  0
  2 15  1  0
  3  9  2  3
  3  4  1  0
  3  5  1  0
  4  6  1  0
  4 16  1  0
  5  8  2  0
  5 18  1  0
  6  7  2  0
  6 17  1  0
  7  8  1  0
  7 19  1  0
  8 20  1  0
  9 21  1  0
  9 22  1  0
M  RAD  1   4   2
M  END
>  <reaction>  (17) 
rxn_1435

>  <mol_properties>  (17) 
{"0": {"label": "*4", "atom_type": "Cs"}, "1": {"label": "*3", "atom_type": "Cs"}, "7": {"label": "*1", "atom_type": "Cs"}, "8": {"label": "*0", "atom_type": "Cd"}, "14": {"label": "*2", "atom_type": "H0"}}

>  <type>  (17) 
unop_13

>  <geom_source>  (17) 
AutoTST

$$$$

     RDKit          3D

 22 21  0  0  0  0  0  0  0  0999 V2000
   -0.7773   -2.6513    1.7534 C   0  0  0  0  0  0  0  0  0  0  0  0
   -0.9329   -1.4664    2.6972 C   0  0  0  0  0  3  0  0  0  0  0  0
   -0.9766   -3.5942    2.2656 H   0  0  0  0  0  0  0  0  0  0  0  0
    0.2343   -2.7034    1.3470 H   0  0  0  0  0  0  0  0  0  0  0  0
   -1.4683   -2.5802    0.9115 H   0  0  0  0  0  0  0  0  0  0  0  0
   -0.2419   -1.5375    3.5391 H   0  0  0  0  0  0  0  0  0  0  0  0
   -1.9445   -1.4143    3.1037 H   0  0  0  0  0  0  0  0  0  0  0  0
    0.2473    0.6679    1.7447 C   0  0  0  0  0  0  0  0  0  0  0  0
    0.2473    0.6679    0.2410 C   0  0  0  0  0  0  0  0  0  0  0  0
    0.2473    1.8622   -0.4731 C   0  0  0  0  0  0  0  0  0  0  0  0
    0.2778    1.8656   -1.8591 C   0  0  0  0  0  0  0  0  0  0  0  0
    0.3073    0.6686   -2.5581 C   0  0  0  0  0  0  0  0  0  0  0  0
    0.3042   -0.5288   -1.8591 C   0  0  0  0  0  0  0  0  0  0  0  0
    0.2737   -0.5261   -0.4731 C   0  0  0  0  0  0  0  0  0  0  0  0
   -0.3425   -0.3988    2.2208 H   0  0  0  0  0  0  0  0  0  0  0  0
    1.2696    0.6792    2.1315 H   0  0  0  0  0  0  0  0  0  0  0  0
   -0.2637    1.5458    2.1414 H   0  0  0  0  0  0  0  0  0  0  0  0
    0.2207    2.8033    0.0647 H   0  0  0  0  0  0  0  0  0  0  0  0
    0.2751    2.8068   -2.3948 H   0  0  0  0  0  0  0  0  0  0  0  0
    0.3285    0.6688   -3.6405 H   0  0  0  0  0  0  0  0  0  0  0  0
    0.3223   -1.4699   -2.3948 H   0  0  0  0  0  0  0  0  0  0  0  0
    0.2678   -1.4676    0.0647 H   0  0  0  0  0  0  0  0  0  0  0  0
  1  2  1  0
  1  3  1  0
  1  4  1  0
  1  5  1  0
  2  6  1  0
  2  7  1  0
  8  9  1  0
  8 15  1  0
  8 16  1  0
  8 17  1  0
  9 10  2  0
  9 14  1  0
 10 11  1  0
 10 18  1  0
 11 12  2  0
 11 19  1  0
 12 13  1  0
 12 20  1  0
 13 14  2  0
 13 21  1  0
 14 22  1  0
M  RAD  1   2   2
M  END
>  <reaction>  (18) 
rxn_1435

>  <mol_properties>  (18) 
{"0": {"label": "*4", "atom_type": "Cs"}, "1": {"label": "*3", "atom_type": "Cs"}, "7": {"label": "*1", "atom_type": "Cs"}, "8": {"label": "*0", "atom_type": "Cd"}, "14": {"label": "*2", "atom_type": "H0"}}

>  <type>  (18) 
unop_14

>  <geom_source>  (18) 
gaussian_log

$$$$
