
     RDKit          3D

  7  6  0  0  0  0  0  0  0  0999 V2000
    1.6964   -0.0938    0.0583 C   0  0  0  0  0  0  0  0  0  0  0  0
    0.5019   -0.0278    0.0173 C   0  0  0  0  0  0  0  0  0  0  0  0
   -0.9505    0.0525   -0.0327 C   0  0  0  0  0  0  0  0  0  0  0  0
    2.7574   -0.1524    0.0947 H   0  0  0  0  0  0  0  0  0  0  0  0
   -1.2692    0.9972   -0.4754 H   0  0  0  0  0  0  0  0  0  0  0  0
   -1.3749   -0.0147    0.9700 H   0  0  0  0  0  0  0  0  0  0  0  0
   -1.3610   -0.7611   -0.6323 H   0  0  0  0  0  0  0  0  0  0  0  0
  1  2  3  0
  1  4  1  0
  2  3  1  0
  3  5  1  0
  3  6  1  0
  3  7  1  0
M  END
>  <reaction>  (1) 
rxn_1221

>  <mol_properties>  (1) 
{"2": {"label": "donator", "atom_type": "Cs"}, "4": {"label": "d_hydrogen", "atom_type": "H0"}}

>  <type>  (1) 
r1h

$$$$

     RDKit          3D

 12 11  0  0  0  0  0  0  0  0999 V2000
   -2.3791    0.4612   -0.5870 C   0  0  0  0  0  0  0  0  0  0  0  0
   -1.3422   -0.3138   -0.1893 C   0  0  0  0  0  0  0  0  0  0  0  0
   -1.4723   -1.6058    0.3589 C   0  0  0  0  0  3  0  0  0  0  0  0
   -0.3798   -2.3973    0.7671 C   0  0  0  0  0  0  0  0  0  0  0  0
   -0.4849   -3.6397    1.2956 C   0  0  0  0  0  0  0  0  0  0  0  0
   -2.2205    1.4472   -1.0017 H   0  0  0  0  0  0  0  0  0  0  0  0
   -3.4026    0.1153   -0.5011 H   0  0  0  0  0  0  0  0  0  0  0  0
   -0.3330    0.0765   -0.2952 H   0  0  0  0  0  0  0  0  0  0  0  0
   -2.4723   -2.0151    0.4735 H   0  0  0  0  0  0  0  0  0  0  0  0
    0.6117   -1.9687    0.6436 H   0  0  0  0  0  0  0  0  0  0  0  0
    0.3893   -4.2030    1.5920 H   0  0  0  0  0  0  0  0  0  0  0  0
   -1.4516   -4.1084    1.4378 H   0  0  0  0  0  0  0  0  0  0  0  0
  1  2  2  3
  1  6  1  0
  1  7  1  0
  2  3  1  0
  2  8  1  0
  3  4  1  0
  3  9  1  0
  4  5  2  3
  4 10  1  0
  5 11  1  0
  5 12  1  0
M  RAD  1   3   2
M  END
>  <reaction>  (2) 
rxn_1221

>  <mol_properties>  (2) 
{"2": {"label": "acceptor", "atom_type": "Cs"}}

>  <type>  (2) 
r2

$$$$

     RDKit          3D

 13 12  0  0  0  0  0  0  0  0999 V2000
    3.0977   -0.3549   -0.5105 C   0  0  0  0  0  0  0  0  0  0  0  0
    2.0556    0.4221   -0.2627 C   0  0  0  0  0  0  0  0  0  0  0  0
    0.6313   -0.0354   -0.2366 C   0  0  0  0  0  0  0  0  0  0  0  0
   -0.2567    0.6038   -1.2694 C   0  0  0  0  0  0  0  0  0  0  0  0
    0.1459    1.3456   -2.2891 C   0  0  0  0  0  0  0  0  0  0  0  0
    4.1081    0.0344   -0.5074 H   0  0  0  0  0  0  0  0  0  0  0  0
    2.9777   -1.4116   -0.7243 H   0  0  0  0  0  0  0  0  0  0  0  0
    2.2171    1.4781   -0.0618 H   0  0  0  0  0  0  0  0  0  0  0  0
    0.5865   -1.1233   -0.3540 H   0  0  0  0  0  0  0  0  0  0  0  0
    0.2065    0.1743    0.7521 H   0  0  0  0  0  0  0  0  0  0  0  0
   -1.3190    0.4126   -1.1445 H   0  0  0  0  0  0  0  0  0  0  0  0
    1.1948    1.5564   -2.4628 H   0  0  0  0  0  0  0  0  0  0  0  0
   -0.5644    1.7621   -2.9918 H   0  0  0  0  0  0  0  0  0  0  0  0
  1  2  2  3
  1  6  1  0
  1  7  1  0
  2  3  1  0
  2  8  1  0
  3  4  1  0
  3  9  1  0
  3 10  1  0
  4  5  2  3
  4 11  1  0
  5 12  1  0
  5 13  1  0
M  END
>  <reaction>  (3) 
rxn_1221

>  <mol_properties>  (3) 
{"0": {"label": "a_hydrogen", "atom_type": "H0"}, "3": {"label": "acceptor", "atom_type": "Cs"}}

>  <type>  (3) 
r2h

$$$$

     RDKit          3D

 19 17  0  0  0  0  0  0  0  0999 V2000
    1.6053   -3.0690   -0.6772 C   0  0  0  0  0  0  0  0  0  0  0  0
    0.6246   -2.3898   -0.8476 C   0  0  0  0  0  0  0  0  0  0  0  0
   -0.4938   -1.5416   -0.9870 C   0  0  0  0  0  3  0  0  0  0  0  0
    2.4611   -3.6865   -0.5484 H   0  0  0  0  0  0  0  0  0  0  0  0
   -0.3052   -0.4793   -0.0524 H   0  0  0  0  0  0  0  0  0  0  0  0
   -1.4467   -1.9378   -0.6488 H   0  0  0  0  0  0  0  0  0  0  0  0
   -0.5503   -0.9701   -1.9089 H   0  0  0  0  0  0  0  0  0  0  0  0
   -2.3385    1.3890    1.3941 C   0  0  0  0  0  0  0  0  0  0  0  0
   -1.2482    1.3810    0.6326 C   0  0  0  0  0  0  0  0  0  0  0  0
   -0.1187    0.4604    0.8077 C   0  0  0  0  0  0  0  0  0  0  0  0
    1.2534    0.9079    0.5128 C   0  0  0  0  0  0  0  0  0  0  0  0
    1.6209    2.1033    0.0601 C   0  0  0  0  0  0  0  0  0  0  0  0
   -3.1614    2.0634    1.1956 H   0  0  0  0  0  0  0  0  0  0  0  0
   -2.4387    0.7255    2.2462 H   0  0  0  0  0  0  0  0  0  0  0  0
   -1.1949    2.0626   -0.2115 H   0  0  0  0  0  0  0  0  0  0  0  0
   -0.1824   -0.1339    1.7207 H   0  0  0  0  0  0  0  0  0  0  0  0
    2.0177    0.1507    0.6624 H   0  0  0  0  0  0  0  0  0  0  0  0
    2.6595    2.3194   -0.1535 H   0  0  0  0  0  0  0  0  0  0  0  0
    0.9127    2.9082   -0.0948 H   0  0  0  0  0  0  0  0  0  0  0  0
  1  2  3  0
  1  4  1  0
  2  3  1  0
  3  6  1  0
  3  7  1  0
  5 10  1  0
  8  9  2  3
  8 13  1  0
  8 14  1  0
  9 10  1  0
  9 15  1  0
 10 11  1  0
 10 16  1  0
 11 12  2  3
 11 17  1  0
 12 18  1  0
 12 19  1  0
M  RAD  1   3   2
M  END
>  <reaction>  (4) 
rxn_1221

>  <mol_properties>  (4) 
{"1": {"label": "*4", "atom_type": "Ct"}, "2": {"label": "*3", "atom_type": "Cs"}, "4": {"label": "*2", "atom_type": "H0"}, "8": {"label": "*0", "atom_type": "Cd"}, "9": {"label": "*1", "atom_type": "Cs"}}

>  <type>  (4) 
ts

$$$$

     RDKit          3D

 19 17  0  0  0  0  0  0  0  0999 V2000
    0.0115   -2.0386   -3.0591 C   0  0  0  0  0  0  0  0  0  0  0  0
    0.0115   -2.0386   -1.8621 C   0  0  0  0  0  0  0  0  0  0  0  0
    0.0115   -2.0386   -0.4066 C   0  0  0  0  0  0  0  0  0  0  0  0
    0.0115   -2.0386   -4.1224 H   0  0  0  0  0  0  0  0  0  0  0  0
    0.1229   -0.8191    0.0558 H   0  0  0  0  0  0  0  0  0  0  0  0
    0.8452   -2.6272   -0.0213 H   0  0  0  0  0  0  0  0  0  0  0  0
   -0.9151   -2.4663   -0.0213 H   0  0  0  0  0  0  0  0  0  0  0  0
   -1.1233    0.3765    2.6216 C   0  0  0  0  0  0  0  0  0  0  0  0
   -0.9661    0.7239    1.3545 C   0  0  0  0  0  0  0  0  0  0  0  0
    0.2349    0.4066    0.5205 C   0  0  0  0  0  3  0  0  0  0  0  0
    0.9940    1.6068    0.0235 C   0  0  0  0  0  0  0  0  0  0  0  0
    0.8175    2.8573    0.4200 C   0  0  0  0  0  0  0  0  0  0  0  0
   -2.0214    0.6292    3.1711 H   0  0  0  0  0  0  0  0  0  0  0  0
   -0.3580   -0.1762    3.1561 H   0  0  0  0  0  0  0  0  0  0  0  0
   -1.7527    1.2853    0.8568 H   0  0  0  0  0  0  0  0  0  0  0  0
    0.9190   -0.2388    1.0816 H   0  0  0  0  0  0  0  0  0  0  0  0
    1.7557    1.3933   -0.7214 H   0  0  0  0  0  0  0  0  0  0  0  0
    1.4159    3.6624    0.0128 H   0  0  0  0  0  0  0  0  0  0  0  0
    0.0782    3.1202    1.1678 H   0  0  0  0  0  0  0  0  0  0  0  0
  1  2  3  0
  1  4  1  0
  2  3  1  0
  3  5  1  0
  3  6  1  0
  3  7  1  0
  8  9  2  3
  8 13  1  0
  8 14  1  0
  9 10  1  0
  9 15  1  0
 10 11  1  0
 10 16  1  0
 11 12  2  3
 11 17  1  0
 12 18  1  0
 12 19  1  0
M  RAD  1  10   2
M  END
>  <reaction>  (5) 
rxn_1221

>  <mol_properties>  (5) 
{"1": {"label": "*4", "atom_type": "Ct"}, "2": {"label": "*3", "atom_type": "Cs"}, "4": {"label": "*2", "atom_type": "H0"}, "8": {"label": "*0", "atom_type": "Cd"}, "9": {"label": "*1", "atom_type": "Cs"}}

>  <type>  (5) 
unop_1

>  <geom_source>  (5) 
Heuristics

$$$$

     RDKit          3D

 19 17  0  0  0  0  0  0  0  0999 V2000
   -0.2145   -2.1356   -2.6725 C   0  0  0  0  0  0  0  0  0  0  0  0
   -0.2145   -2.1356   -1.4755 C   0  0  0  0  0  0  0  0  0  0  0  0
   -0.2145   -2.1356   -0.0201 C   0  0  0  0  0  0  0  0  0  0  0  0
   -0.2145   -2.1356   -3.7358 H   0  0  0  0  0  0  0  0  0  0  0  0
   -0.1030   -0.9161    0.4424 H   0  0  0  0  0  0  0  0  0  0  0  0
    0.6192   -2.7242    0.3653 H   0  0  0  0  0  0  0  0  0  0  0  0
   -1.1411   -2.5633    0.3653 H   0  0  0  0  0  0  0  0  0  0  0  0
   -1.8023    1.8241    0.0788 C   0  0  0  0  0  0  0  0  0  0  0  0
   -0.6144    1.2595   -0.0665 C   0  0  0  0  0  0  0  0  0  0  0  0
    0.0090    0.3096    0.9071 C   0  0  0  0  0  3  0  0  0  0  0  0
    1.2944    0.7901    1.5239 C   0  0  0  0  0  0  0  0  0  0  0  0
    1.7863    2.0162    1.4403 C   0  0  0  0  0  0  0  0  0  0  0  0
   -2.2037    2.4990   -0.6667 H   0  0  0  0  0  0  0  0  0  0  0  0
   -2.4186    1.6297    0.9501 H   0  0  0  0  0  0  0  0  0  0  0  0
   -0.0233    1.4869   -0.9500 H   0  0  0  0  0  0  0  0  0  0  0  0
   -0.7020    0.0740    1.7060 H   0  0  0  0  0  0  0  0  0  0  0  0
    1.8408    0.0413    2.0908 H   0  0  0  0  0  0  0  0  0  0  0  0
    2.7189    2.2783    1.9235 H   0  0  0  0  0  0  0  0  0  0  0  0
    1.2741    2.8010    0.8956 H   0  0  0  0  0  0  0  0  0  0  0  0
  1  2  3  0
  1  4  1  0
  2  3  1  0
  3  5  1  0
  3  6  1  0
  3  7  1  0
  8  9  2  3
  8 13  1  0
  8 14  1  0
  9 10  1  0
  9 15  1  0
 10 11  1  0
 10 16  1  0
 11 12  2  3
 11 17  1  0
 12 18  1  0
 12 19  1  0
M  RAD  1  10   2
M  END
>  <reaction>  (6) 
rxn_1221

>  <mol_properties>  (6) 
{"1": {"label": "*4", "atom_type": "Ct"}, "2": {"label": "*3", "atom_type": "Cs"}, "4": {"label": "*2", "atom_type": "H0"}, "8": {"label": "*0", "atom_type": "Cd"}, "9": {"label": "*1", "atom_type": "Cs"}}

>  <type>  (6) 
unop_2

>  <geom_source>  (6) 
Heuristics

$$$$

     RDKit          3D

 19 17  0  0  0  0  0  0  0  0999 V2000
    0.0079   -2.0167   -3.0939 C   0  0  0  0  0  0  0  0  0  0  0  0
    0.0079   -2.0167   -1.8969 C   0  0  0  0  0  0  0  0  0  0  0  0
    0.0079   -2.0167   -0.4415 C   0  0  0  0  0  0  0  0  0  0  0  0
    0.0079   -2.0167   -4.1572 H   0  0  0  0  0  0  0  0  0  0  0  0
    0.1194   -0.7971    0.0210 H   0  0  0  0  0  0  0  0  0  0  0  0
    0.8417   -2.6052   -0.0561 H   0  0  0  0  0  0  0  0  0  0  0  0
   -0.9186   -2.4444   -0.0561 H   0  0  0  0  0  0  0  0  0  0  0  0
    0.1059    0.3505    2.9834 C   0  0  0  0  0  0  0  0  0  0  0  0
   -0.4707    0.5166    1.8040 C   0  0  0  0  0  0  0  0  0  0  0  0
    0.2314    0.4285    0.4857 C   0  0  0  0  0  3  0  0  0  0  0  0
    0.2237    1.6990   -0.3203 C   0  0  0  0  0  0  0  0  0  0  0  0
   -0.1518    2.8922    0.1126 C   0  0  0  0  0  0  0  0  0  0  0  0
   -0.4588    0.4188    3.9048 H   0  0  0  0  0  0  0  0  0  0  0  0
    1.1662    0.1379    3.0701 H   0  0  0  0  0  0  0  0  0  0  0  0
   -1.5342    0.7372    1.7598 H   0  0  0  0  0  0  0  0  0  0  0  0
    1.2682    0.1094    0.6356 H   0  0  0  0  0  0  0  0  0  0  0  0
    0.5725    1.5963   -1.3443 H   0  0  0  0  0  0  0  0  0  0  0  0
   -0.1182    3.7581   -0.5363 H   0  0  0  0  0  0  0  0  0  0  0  0
   -0.4973    3.0485    1.1280 H   0  0  0  0  0  0  0  0  0  0  0  0
  1  2  3  0
  1  4  1  0
  2  3  1  0
  3  5  1  0
  3  6  1  0
  3  7  1  0
  8  9  2  3
  8 13  1  0
  8 14  1  0
  9 10  1  0
  9 15  1  0
 10 11  1  0
 10 16  1  0
 11 12  2  3
 11 17  1  0
 12 18  1  0
 12 19  1  0
M  RAD  1  10   2
M  END
>  <reaction>  (7) 
rxn_1221

>  <mol_properties>  (7) 
{"1": {"label": "*4", "atom_type": "Ct"}, "2": {"label": "*3", "atom_type": "Cs"}, "4": {"label": "*2", "atom_type": "H0"}, "8": {"label": "*0", "atom_type": "Cd"}, "9": {"label": "*1", "atom_type": "Cs"}}

>  <type>  (7) 
unop_3

>  <geom_source>  (7) 
Heuristics

$$$$

     RDKit          3D

 19 17  0  0  0  0  0  0  0  0999 V2000
   -0.6562   -1.6741   -3.0465 C   0  0  0  0  0  0  0  0  0  0  0  0
   -0.6562   -1.6741   -1.8495 C   0  0  0  0  0  0  0  0  0  0  0  0
   -0.6562   -1.6741   -0.3940 C   0  0  0  0  0  0  0  0  0  0  0  0
   -0.6562   -1.6741   -4.1098 H   0  0  0  0  0  0  0  0  0  0  0  0
   -0.5448   -0.4545    0.0684 H   0  0  0  0  0  0  0  0  0  0  0  0
    0.1775   -2.2626   -0.0087 H   0  0  0  0  0  0  0  0  0  0  0  0
   -1.5828   -2.1018   -0.0087 H   0  0  0  0  0  0  0  0  0  0  0  0
    1.0702    2.6552   -0.1392 C   0  0  0  0  0  0  0  0  0  0  0  0
    0.8514    1.3631    0.0439 C   0  0  0  0  0  0  0  0  0  0  0  0
   -0.4327    0.7711    0.5331 C   0  0  0  0  0  3  0  0  0  0  0  0
   -0.3316    0.0371    1.8426 C   0  0  0  0  0  0  0  0  0  0  0  0
    0.7061    0.0520    2.6642 C   0  0  0  0  0  0  0  0  0  0  0  0
    2.0211    3.0227   -0.5042 H   0  0  0  0  0  0  0  0  0  0  0  0
    0.3034    3.3940    0.0682 H   0  0  0  0  0  0  0  0  0  0  0  0
    1.6486    0.6549   -0.1671 H   0  0  0  0  0  0  0  0  0  0  0  0
   -1.1941    1.5532    0.6222 H   0  0  0  0  0  0  0  0  0  0  0  0
   -1.2103   -0.5413    2.1148 H   0  0  0  0  0  0  0  0  0  0  0  0
    0.6906   -0.5021    3.5941 H   0  0  0  0  0  0  0  0  0  0  0  0
    1.6014    0.6217    2.4430 H   0  0  0  0  0  0  0  0  0  0  0  0
  1  2  3  0
  1  4  1  0
  2  3  1  0
  3  5  1  0
  3  6  1  0
  3  7  1  0
  8  9  2  3
  8 13  1  0
  8 14  1  0
  9 10  1  0
  9 15  1  0
 10 11  1  0
 10 16  1  0
 11 12  2  3
 11 17  1  0
 12 18  1  0
 12 19  1  0
M  RAD  1  10   2
M  END
>  <reaction>  (8) 
rxn_1221

>  <mol_properties>  (8) 
{"1": {"label": "*4", "atom_type": "Ct"}, "2": {"label": "*3", "atom_type": "Cs"}, "4": {"label": "*2", "atom_type": "H0"}, "8": {"label": "*0", "atom_type": "Cd"}, "9": {"label": "*1", "atom_type": "Cs"}}

>  <type>  (8) 
unop_4

>  <geom_source>  (8) 
Heuristics

$$$$

     RDKit          3D

 19 17  0  0  0  0  0  0  0  0999 V2000
    0.1136   -1.9080   -3.1612 C   0  0  0  0  0  0  0  0  0  0  0  0
    0.1136   -1.9080   -1.9641 C   0  0  0  0  0  0  0  0  0  0  0  0
    0.1136   -1.9080   -0.5087 C   0  0  0  0  0  0  0  0  0  0  0  0
    0.1136   -1.9080   -4.2244 H   0  0  0  0  0  0  0  0  0  0  0  0
    0.2250   -0.6884   -0.0463 H   0  0  0  0  0  0  0  0  0  0  0  0
    0.9473   -2.4966   -0.1233 H   0  0  0  0  0  0  0  0  0  0  0  0
   -0.8130   -2.3357   -0.1233 H   0  0  0  0  0  0  0  0  0  0  0  0
    1.3070    0.9443    2.6887 C   0  0  0  0  0  0  0  0  0  0  0  0
    0.3331    0.4942    1.9141 C   0  0  0  0  0  0  0  0  0  0  0  0
    0.3370    0.5372    0.4184 C   0  0  0  0  0  3  0  0  0  0  0  0
   -0.7583    1.3682   -0.1926 C   0  0  0  0  0  0  0  0  0  0  0  0
   -1.5599    2.1972    0.4572 C   0  0  0  0  0  0  0  0  0  0  0  0
    1.2492    0.8776    3.7679 H   0  0  0  0  0  0  0  0  0  0  0  0
    2.2005    1.3952    2.2702 H   0  0  0  0  0  0  0  0  0  0  0  0
   -0.5502    0.0570    2.3724 H   0  0  0  0  0  0  0  0  0  0  0  0
    1.3040    0.9038    0.0582 H   0  0  0  0  0  0  0  0  0  0  0  0
   -0.8701    1.2629   -1.2683 H   0  0  0  0  0  0  0  0  0  0  0  0
   -2.3199    2.7642   -0.0652 H   0  0  0  0  0  0  0  0  0  0  0  0
   -1.4816    2.3452    1.5282 H   0  0  0  0  0  0  0  0  0  0  0  0
  1  2  3  0
  1  4  1  0
  2  3  1  0
  3  5  1  0
  3  6  1  0
  3  7  1  0
  8  9  2  3
  8 13  1  0
  8 14  1  0
  9 10  1  0
  9 15  1  0
 10 11  1  0
 10 16  1  0
 11 12  2  3
 11 17  1  0
 12 18  1  0
 12 19  1  0
M  RAD  1  10   2
M  END
>  <reaction>  (9) 
rxn_1221

>  <mol_properties>  (9) 
{"1": {"label": "*4", "atom_type": "Ct"}, "2": {"label": "*3", "atom_type": "Cs"}, "4": {"label": "*2", "atom_type": "H0"}, "8": {"label": "*0", "atom_type": "Cd"}, "9": {"label": "*1", "atom_type": "Cs"}}

>  <type>  (9) 
unop_5

>  <geom_source>  (9) 
Heuristics

$$$$

     RDKit          3D

 19 17  0  0  0  0  0  0  0  0999 V2000
   -0.4898   -1.5554   -3.2511 C   0  0  0  0  0  0  0  0  0  0  0  0
   -0.4898   -1.5554   -2.0541 C   0  0  0  0  0  0  0  0  0  0  0  0
   -0.4898   -1.5554   -0.5987 C   0  0  0  0  0  0  0  0  0  0  0  0
   -0.4898   -1.5554   -4.3144 H   0  0  0  0  0  0  0  0  0  0  0  0
   -0.3783   -0.3358   -0.1362 H   0  0  0  0  0  0  0  0  0  0  0  0
    0.3439   -2.1439   -0.2133 H   0  0  0  0  0  0  0  0  0  0  0  0
   -1.4164   -1.9831   -0.2133 H   0  0  0  0  0  0  0  0  0  0  0  0
    1.6826    2.4389    0.5786 C   0  0  0  0  0  0  0  0  0  0  0  0
    1.1838    1.2157    0.5009 C   0  0  0  0  0  0  0  0  0  0  0  0
   -0.2663    0.8898    0.3285 C   0  0  0  0  0  3  0  0  0  0  0  0
   -0.8787    0.1142    1.4630 C   0  0  0  0  0  0  0  0  0  0  0  0
   -0.3207   -0.1099    2.6422 C   0  0  0  0  0  0  0  0  0  0  0  0
    2.7452    2.6110    0.6956 H   0  0  0  0  0  0  0  0  0  0  0  0
    1.0446    3.3147    0.5260 H   0  0  0  0  0  0  0  0  0  0  0  0
    1.8556    0.3637    0.5667 H   0  0  0  0  0  0  0  0  0  0  0  0
   -0.8402    1.8101    0.1769 H   0  0  0  0  0  0  0  0  0  0  0  0
   -1.8738   -0.2766    1.2687 H   0  0  0  0  0  0  0  0  0  0  0  0
   -0.8383   -0.6748    3.4070 H   0  0  0  0  0  0  0  0  0  0  0  0
    0.6652    0.2674    2.8883 H   0  0  0  0  0  0  0  0  0  0  0  0
  1  2  3  0
  1  4  1  0
  2  3  1  0
  3  5  1  0
  3  6  1  0
  3  7  1  0
  8  9  2  3
  8 13  1  0
  8 14  1  0
  9 10  1  0
  9 15  1  0
 10 11  1  0
 10 16  1  0
 11 12  2  3
 11 17  1  0
 12 18  1  0
 12 19  1  0
M  RAD  1  10   2
M  END
>  <reaction>  (10) 
rxn_1221

>  <mol_properties>  (10) 
{"1": {"label": "*4", "atom_type": "Ct"}, "2": {"label": "*3", "atom_type": "Cs"}, "4": {"label": "*2", "atom_type": "H0"}, "8": {"label": "*0", "atom_type": "Cd"}, "9": {"label": "*1", "atom_type": "Cs"}}

>  <type>  (10) 
unop_6

>  <geom_source>  (10) 
Heuristics

$$$$

     RDKit          3D

 19 17  0  0  0  0  0  0  0  0999 V2000
   -0.2157   -1.5411   -3.3566 C   0  0  0  0  0  0  0  0  0  0  0  0
   -0.2157   -1.5411   -2.1596 C   0  0  0  0  0  0  0  0  0  0  0  0
   -0.2157   -1.5411   -0.7041 C   0  0  0  0  0  0  0  0  0  0  0  0
   -0.2157   -1.5411   -4.4199 H   0  0  0  0  0  0  0  0  0  0  0  0
   -0.1042   -0.3216   -0.2417 H   0  0  0  0  0  0  0  0  0  0  0  0
    0.6180   -2.1297   -0.3188 H   0  0  0  0  0  0  0  0  0  0  0  0
   -1.1423   -1.9688   -0.3188 H   0  0  0  0  0  0  0  0  0  0  0  0
    1.8730    2.1237    1.3604 C   0  0  0  0  0  0  0  0  0  0  0  0
    1.2465    0.9984    1.0570 C   0  0  0  0  0  0  0  0  0  0  0  0
    0.0078    0.9040    0.2230 C   0  0  0  0  0  3  0  0  0  0  0  0
   -1.1929    0.3441    0.9362 C   0  0  0  0  0  0  0  0  0  0  0  0
   -1.2959    0.1353    2.2392 C   0  0  0  0  0  0  0  0  0  0  0  0
    2.7725    2.1265    1.9633 H   0  0  0  0  0  0  0  0  0  0  0  0
    1.5091    3.0852    1.0143 H   0  0  0  0  0  0  0  0  0  0  0  0
    1.6381    0.0558    1.4307 H   0  0  0  0  0  0  0  0  0  0  0  0
   -0.2465    1.8899   -0.1804 H   0  0  0  0  0  0  0  0  0  0  0  0
   -2.0392    0.1085    0.2968 H   0  0  0  0  0  0  0  0  0  0  0  0
   -2.2040   -0.2660    2.6708 H   0  0  0  0  0  0  0  0  0  0  0  0
   -0.4840    0.3638    2.9200 H   0  0  0  0  0  0  0  0  0  0  0  0
  1  2  3  0
  1  4  1  0
  2  3  1  0
  3  5  1  0
  3  6  1  0
  3  7  1  0
  8  9  2  3
  8 13  1  0
  8 14  1  0
  9 10  1  0
  9 15  1  0
 10 11  1  0
 10 16  1  0
 11 12  2  3
 11 17  1  0
 12 18  1  0
 12 19  1  0
M  RAD  1  10   2
M  END
>  <reaction>  (11) 
rxn_1221

>  <mol_properties>  (11) 
{"1": {"label": "*4", "atom_type": "Ct"}, "2": {"label": "*3", "atom_type": "Cs"}, "4": {"label": "*2", "atom_type": "H0"}, "8": {"label": "*0", "atom_type": "Cd"}, "9": {"label": "*1", "atom_type": "Cs"}}

>  <type>  (11) 
unop_7

>  <geom_source>  (11) 
Heuristics

$$$$

     RDKit          3D

 19 17  0  0  0  0  0  0  0  0999 V2000
    0.0397   -2.0814   -2.9530 C   0  0  0  0  0  0  0  0  0  0  0  0
    0.0397   -2.0814   -1.7560 C   0  0  0  0  0  0  0  0  0  0  0  0
    0.0397   -2.0814   -0.3006 C   0  0  0  0  0  0  0  0  0  0  0  0
    0.0397   -2.0814   -4.0163 H   0  0  0  0  0  0  0  0  0  0  0  0
    0.1512   -0.8619    0.1619 H   0  0  0  0  0  0  0  0  0  0  0  0
    0.8734   -2.6700    0.0848 H   0  0  0  0  0  0  0  0  0  0  0  0
   -0.8869   -2.5091    0.0848 H   0  0  0  0  0  0  0  0  0  0  0  0
   -1.8910    0.7404    1.8424 C   0  0  0  0  0  0  0  0  0  0  0  0
   -1.1038    0.9471    0.7990 C   0  0  0  0  0  0  0  0  0  0  0  0
    0.2632    0.3638    0.6266 C   0  0  0  0  0  3  0  0  0  0  0  0
    1.3758    1.3736    0.5485 C   0  0  0  0  0  0  0  0  0  0  0  0
    1.2739    2.6653    0.8194 C   0  0  0  0  0  0  0  0  0  0  0  0
   -2.8761    1.1854    1.9058 H   0  0  0  0  0  0  0  0  0  0  0  0
   -1.5784    0.1154    2.6722 H   0  0  0  0  0  0  0  0  0  0  0  0
   -1.4502    1.5873   -0.0084 H   0  0  0  0  0  0  0  0  0  0  0  0
    0.4756   -0.3364    1.4414 H   0  0  0  0  0  0  0  0  0  0  0  0
    2.3403    0.9732    0.2485 H   0  0  0  0  0  0  0  0  0  0  0  0
    2.1316    3.3214    0.7437 H   0  0  0  0  0  0  0  0  0  0  0  0
    0.3367    3.1108    1.1325 H   0  0  0  0  0  0  0  0  0  0  0  0
  1  2  3  0
  1  4  1  0
  2  3  1  0
  3  5  1  0
  3  6  1  0
  3  7  1  0
  8  9  2  3
  8 13  1  0
  8 14  1  0
  9 10  1  0
  9 15  1  0
 10 11  1  0
 10 16  1  0
 11 12  2  3
 11 17  1  0
 12 18  1  0
 12 19  1  0
M  RAD  1  10   2
M  END
>  <reaction>  (12) 
rxn_1221

>  <mol_properties>  (12) 
{"1": {"label": "*4", "atom_type": "Ct"}, "2": {"label": "*3", "atom_type": "Cs"}, "4": {"label": "*2", "atom_type": "H0"}, "8": {"label": "*0", "atom_type": "Cd"}, "9": {"label": "*1", "atom_type": "Cs"}}

>  <type>  (12) 
unop_8

>  <geom_source>  (12) 
Heuristics

$$$$

     RDKit          3D

 19 17  0  0  0  0  0  0  0  0999 V2000
   -0.6537   -1.8582   -2.8206 C   0  0  0  0  0  0  0  0  0  0  0  0
   -0.6537   -1.8582   -1.6236 C   0  0  0  0  0  0  0  0  0  0  0  0
   -0.6537   -1.8582   -0.1682 C   0  0  0  0  0  0  0  0  0  0  0  0
   -0.6537   -1.8582   -3.8839 H   0  0  0  0  0  0  0  0  0  0  0  0
   -0.5422   -0.6386    0.2943 H   0  0  0  0  0  0  0  0  0  0  0  0
    0.1800   -2.4467    0.2172 H   0  0  0  0  0  0  0  0  0  0  0  0
   -1.5803   -2.2859    0.2172 H   0  0  0  0  0  0  0  0  0  0  0  0
    0.0788    2.6583   -0.5491 C   0  0  0  0  0  0  0  0  0  0  0  0
    0.3550    1.4082   -0.2146 C   0  0  0  0  0  0  0  0  0  0  0  0
   -0.4302    0.5870    0.7590 C   0  0  0  0  0  3  0  0  0  0  0  0
    0.3351    0.1496    1.9783 C   0  0  0  0  0  0  0  0  0  0  0  0
    1.5286    0.5884    2.3460 C   0  0  0  0  0  0  0  0  0  0  0  0
    0.6817    3.1989   -1.2680 H   0  0  0  0  0  0  0  0  0  0  0  0
   -0.7637    3.1871   -0.1162 H   0  0  0  0  0  0  0  0  0  0  0  0
    1.2136    0.9161   -0.6642 H   0  0  0  0  0  0  0  0  0  0  0  0
   -1.3217    1.1374    1.0778 H   0  0  0  0  0  0  0  0  0  0  0  0
   -0.1686   -0.5874    2.5977 H   0  0  0  0  0  0  0  0  0  0  0  0
    2.0052    0.2231    3.2467 H   0  0  0  0  0  0  0  0  0  0  0  0
    2.0671    1.3306    1.7680 H   0  0  0  0  0  0  0  0  0  0  0  0
  1  2  3  0
  1  4  1  0
  2  3  1  0
  3  5  1  0
  3  6  1  0
  3  7  1  0
  8  9  2  3
  8 13  1  0
  8 14  1  0
  9 10  1  0
  9 15  1  0
 10 11  1  0
 10 16  1  0
 11 12  2  3
 11 17  1  0
 12 18  1  0
 12 19  1  0
M  RAD  1  10   2
M  END
>  <reaction>  (13) 
rxn_1221

>  <mol_properties>  (13) 
{"1": {"label": "*4", "atom_type": "Ct"}, "2": {"label": "*3", "atom_type": "Cs"}, "4": {"label": "*2", "atom_type": "H0"}, "8": {"label": "*0", "atom_type": "Cd"}, "9": {"label": "*1", "atom_type": "Cs"}}

>  <type>  (13) 
unop_9

>  <geom_source>  (13) 
Heuristics

$$$$

     RDKit          3D

 19 17  0  0  0  0  0  0  0  0999 V2000
   -0.0221   -2.1316   -2.7971 C   0  0  0  0  0  0  0  0  0  0  0  0
   -0.0221   -2.1316   -1.6001 C   0  0  0  0  0  0  0  0  0  0  0  0
   -0.0221   -2.1316   -0.1446 C   0  0  0  0  0  0  0  0  0  0  0  0
   -0.0221   -2.1316   -3.8604 H   0  0  0  0  0  0  0  0  0  0  0  0
    0.0894   -0.9121    0.3178 H   0  0  0  0  0  0  0  0  0  0  0  0
    0.8116   -2.7202    0.2407 H   0  0  0  0  0  0  0  0  0  0  0  0
   -0.9487   -2.5594    0.2407 H   0  0  0  0  0  0  0  0  0  0  0  0
   -2.1141    1.2520    0.9181 C   0  0  0  0  0  0  0  0  0  0  0  0
   -0.9542    1.1284    0.2933 C   0  0  0  0  0  0  0  0  0  0  0  0
    0.2014    0.3135    0.7825 C   0  0  0  0  0  3  0  0  0  0  0  0
    1.4494    1.1004    1.0775 C   0  0  0  0  0  0  0  0  0  0  0  0
    1.5405    2.4195    1.1392 C   0  0  0  0  0  0  0  0  0  0  0  0
   -2.9173    1.8515    0.5083 H   0  0  0  0  0  0  0  0  0  0  0  0
   -2.3033    0.7551    1.8637 H   0  0  0  0  0  0  0  0  0  0  0  0
   -0.8005    1.6496   -0.6482 H   0  0  0  0  0  0  0  0  0  0  0  0
   -0.0879   -0.2431    1.6801 H   0  0  0  0  0  0  0  0  0  0  0  0
    2.3377    0.5022    1.2613 H   0  0  0  0  0  0  0  0  0  0  0  0
    2.4814    2.9046    1.3659 H   0  0  0  0  0  0  0  0  0  0  0  0
    0.6815    3.0595    0.9742 H   0  0  0  0  0  0  0  0  0  0  0  0
  1  2  3  0
  1  4  1  0
  2  3  1  0
  3  5  1  0
  3  6  1  0
  3  7  1  0
  8  9  2  3
  8 13  1  0
  8 14  1  0
  9 10  1  0
  9 15  1  0
 10 11  1  0
 10 16  1  0
 11 12  2  3
 11 17  1  0
 12 18  1  0
 12 19  1  0
M  RAD  1  10   2
M  END
>  <reaction>  (14) 
rxn_1221

>  <mol_properties>  (14) 
{"1": {"label": "*4", "atom_type": "Ct"}, "2": {"label": "*3", "atom_type": "Cs"}, "4": {"label": "*2", "atom_type": "H0"}, "8": {"label": "*0", "atom_type": "Cd"}, "9": {"label": "*1", "atom_type": "Cs"}}

>  <type>  (14) 
unop_10

>  <geom_source>  (14) 
Heuristics

$$$$

     RDKit          3D

 19 17  0  0  0  0  0  0  0  0999 V2000
    0.0543   -1.6691   -3.3135 C   0  0  0  0  0  0  0  0  0  0  0  0
    0.0543   -1.6691   -2.1164 C   0  0  0  0  0  0  0  0  0  0  0  0
    0.0543   -1.6691   -0.6610 C   0  0  0  0  0  0  0  0  0  0  0  0
    0.0543   -1.6691   -4.3767 H   0  0  0  0  0  0  0  0  0  0  0  0
    0.1658   -0.4495   -0.1986 H   0  0  0  0  0  0  0  0  0  0  0  0
    0.8880   -2.2577   -0.2756 H   0  0  0  0  0  0  0  0  0  0  0  0
   -0.8723   -2.0968   -0.2756 H   0  0  0  0  0  0  0  0  0  0  0  0
    1.7725    1.6896    2.0527 C   0  0  0  0  0  0  0  0  0  0  0  0
    0.9842    0.7354    1.5845 C   0  0  0  0  0  0  0  0  0  0  0  0
    0.2778    0.7761    0.2661 C   0  0  0  0  0  3  0  0  0  0  0  0
   -1.2241    0.7520    0.3532 C   0  0  0  0  0  0  0  0  0  0  0  0
   -1.9416    0.9046    1.4550 C   0  0  0  0  0  0  0  0  0  0  0  0
    2.2635    1.5982    3.0135 H   0  0  0  0  0  0  0  0  0  0  0  0
    1.9572    2.5982    1.4896 H   0  0  0  0  0  0  0  0  0  0  0  0
    0.8174   -0.1563    2.1833 H   0  0  0  0  0  0  0  0  0  0  0  0
    0.5868    1.6639   -0.2956 H   0  0  0  0  0  0  0  0  0  0  0  0
   -1.7374    0.6034   -0.5929 H   0  0  0  0  0  0  0  0  0  0  0  0
   -3.0235    0.8807    1.4250 H   0  0  0  0  0  0  0  0  0  0  0  0
   -1.4773    1.0661    2.4210 H   0  0  0  0  0  0  0  0  0  0  0  0
  1  2  3  0
  1  4  1  0
  2  3  1  0
  3  5  1  0
  3  6  1  0
  3  7  1  0
  8  9  2  3
  8 13  1  0
  8 14  1  0
  9 10  1  0
  9 15  1  0
 10 11  1  0
 10 16  1  0
 11 12  2  3
 11 17  1  0
 12 18  1  0
 12 19  1  0
M  RAD  1  10   2
M  END
>  <reaction>  (15) 
rxn_1221

>  <mol_properties>  (15) 
{"1": {"label": "*4", "atom_type": "Ct"}, "2": {"label": "*3", "atom_type": "Cs"}, "4": {"label": "*2", "atom_type": "H0"}, "8": {"label": "*0", "atom_type": "Cd"}, "9": {"label": "*1", "atom_type": "Cs"}}

>  <type>  (15) 
unop_11

>  <geom_source>  (15) 
Heuristics

$$$$

     RDKit          3D

 19 17  0  0  0  0  0  0  0  0999 V2000
   -0.4744   -2.0398   -2.6718 C   0  0  0  0  0  0  0  0  0  0  0  0
   -0.4744   -2.0398   -1.4748 C   0  0  0  0  0  0  0  0  0  0  0  0
   -0.4744   -2.0398   -0.0194 C   0  0  0  0  0  0  0  0  0  0  0  0
   -0.4744   -2.0398   -3.7351 H   0  0  0  0  0  0  0  0  0  0  0  0
   -0.3629   -0.8202    0.4431 H   0  0  0  0  0  0  0  0  0  0  0  0
    0.3593   -2.6284    0.3660 H   0  0  0  0  0  0  0  0  0  0  0  0
   -1.4010   -2.4675    0.3660 H   0  0  0  0  0  0  0  0  0  0  0  0
   -1.0056    2.3531   -0.4695 C   0  0  0  0  0  0  0  0  0  0  0  0
   -0.1639    1.3576   -0.2431 C   0  0  0  0  0  0  0  0  0  0  0  0
   -0.2509    0.4054    0.9078 C   0  0  0  0  0  3  0  0  0  0  0  0
    0.9237    0.4410    1.8474 C   0  0  0  0  0  0  0  0  0  0  0  0
    1.8842    1.3516    1.8572 C   0  0  0  0  0  0  0  0  0  0  0  0
   -0.8943    3.0053   -1.3268 H   0  0  0  0  0  0  0  0  0  0  0  0
   -1.8398    2.5513    0.1951 H   0  0  0  0  0  0  0  0  0  0  0  0
    0.6649    1.1974   -0.9280 H   0  0  0  0  0  0  0  0  0  0  0  0
   -1.1673    0.5915    1.4777 H   0  0  0  0  0  0  0  0  0  0  0  0
    0.9524   -0.3623    2.5786 H   0  0  0  0  0  0  0  0  0  0  0  0
    2.6917    1.3044    2.5767 H   0  0  0  0  0  0  0  0  0  0  0  0
    1.8949    2.1778    1.1557 H   0  0  0  0  0  0  0  0  0  0  0  0
  1  2  3  0
  1  4  1  0
  2  3  1  0
  3  5  1  0
  3  6  1  0
  3  7  1  0
  8  9  2  3
  8 13  1  0
  8 14  1  0
  9 10  1  0
  9 15  1  0
 10 11  1  0
 10 16  1  0
 11 12  2  3
 11 17  1  0
 12 18  1  0
 12 19  1  0
M  RAD  1  10   2
M  END
>  <reaction>  (16) 
rxn_1221

>  <mol_properties>  (16) 
{"1": {"label": "*4", "atom_type": "Ct"}, "2": {"label": "*3", "atom_type": "Cs"}, "4": {"label": "*2", "atom_type": "H0"}, "8": {"label": "*0", "atom_type": "Cd"}, "9": {"label": "*1", "atom_type": "Cs"}}

>  <type>  (16) 
unop_12

>  <geom_source>  (16) 
Heuristics

$$$$

     RDKit          3D

 19 17  0  0  0  0  0  0  0  0999 V2000
   -0.4757   -0.1043    0.1040 C   0  0  0  0  0  3  0  0  0  0  0  0
   -0.1391    1.2538   -0.4414 C   0  0  0  0  0  0  0  0  0  0  0  0
   -1.8608   -0.5176   -0.3032 C   0  0  0  0  0  0  0  0  0  0  0  0
   -0.5399    2.3767    0.1615 C   0  0  0  0  0  0  0  0  0  0  0  0
   -2.9455   -0.0983    0.3546 C   0  0  0  0  0  0  0  0  0  0  0  0
    1.5586   -1.7345   -0.4248 C   0  0  0  0  0  0  0  0  0  0  0  0
    2.7334   -0.9903    0.0296 C   0  0  0  0  0  0  0  0  0  0  0  0
    3.7012   -0.3769    0.4040 C   0  0  0  0  0  0  0  0  0  0  0  0
   -0.3576   -0.1328    1.2097 H   0  0  0  0  0  0  0  0  0  0  0  0
    0.4574   -1.0552   -0.4606 H   0  0  0  0  0  0  0  0  0  0  0  0
    0.4538    1.3205   -1.3483 H   0  0  0  0  0  0  0  0  0  0  0  0
   -1.9791   -1.1826   -1.1530 H   0  0  0  0  0  0  0  0  0  0  0  0
   -1.1234    2.3443    1.0761 H   0  0  0  0  0  0  0  0  0  0  0  0
   -0.2768    3.3418   -0.2591 H   0  0  0  0  0  0  0  0  0  0  0  0
   -3.9316   -0.4185    0.0342 H   0  0  0  0  0  0  0  0  0  0  0  0
   -2.8605    0.5571    1.2156 H   0  0  0  0  0  0  0  0  0  0  0  0
    1.8247   -2.3375   -1.3173 H   0  0  0  0  0  0  0  0  0  0  0  0
    1.2102   -2.4074    0.3856 H   0  0  0  0  0  0  0  0  0  0  0  0
    4.5509    0.1617    0.7327 H   0  0  0  0  0  0  0  0  0  0  0  0
  1  2  1  0
  1  3  1  0
  1  9  1  0
  2  4  2  3
  2 11  1  0
  3  5  2  3
  3 12  1  0
  4 13  1  0
  4 14  1  0
  5 15  1  0
  5 16  1  0
  6  7  1  0
  6 10  1  0
  6 17  1  0
  6 18  1  0
  7  8  3  0
  8 19  1  0
M  RAD  1   1   2
M  END
>  <reaction>  (17) 
rxn_1221

>  <mol_properties>  (17) 
{"1": {"label": "*4", "atom_type": "Ct"}, "2": {"label": "*3", "atom_type": "Cs"}, "4": {"label": "*2", "atom_type": "H0"}, "8": {"label": "*0", "atom_type": "Cd"}, "9": {"label": "*1", "atom_type": "Cs"}}

>  <type>  (17) 
unop_13

>  <geom_source>  (17) 
AutoTST

$$$$
