
     RDKit          3D

 14 13  0  0  0  0  0  0  0  0999 V2000
   -0.7647   -1.2352   -0.0349 C   0  0  0  0  0  0  0  0  0  0  0  0
    0.0570   -0.0126    0.3624 C   0  0  0  0  0  0  0  0  0  0  0  0
    1.4161   -0.0194   -0.3307 C   0  0  0  0  0  0  0  0  0  0  0  0
   -0.7023    1.2765    0.0630 C   0  0  0  0  0  0  0  0  0  0  0  0
   -0.2387   -2.1618    0.2041 H   0  0  0  0  0  0  0  0  0  0  0  0
   -0.9624   -1.2316   -1.1108 H   0  0  0  0  0  0  0  0  0  0  0  0
   -1.7273   -1.2512    0.4805 H   0  0  0  0  0  0  0  0  0  0  0  0
    0.2295   -0.0590    1.4432 H   0  0  0  0  0  0  0  0  0  0  0  0
    1.2933    0.0260   -1.4168 H   0  0  0  0  0  0  0  0  0  0  0  0
    2.0207    0.8381   -0.0278 H   0  0  0  0  0  0  0  0  0  0  0  0
    1.9766   -0.9269   -0.0966 H   0  0  0  0  0  0  0  0  0  0  0  0
   -1.6638    1.3002    0.5800 H   0  0  0  0  0  0  0  0  0  0  0  0
   -0.8979    1.3663   -1.0096 H   0  0  0  0  0  0  0  0  0  0  0  0
   -0.1313    2.1545    0.3721 H   0  0  0  0  0  0  0  0  0  0  0  0
  1  2  1  0
  1  5  1  0
  1  6  1  0
  1  7  1  0
  2  3  1  0
  2  4  1  0
  2  8  1  0
  3  9  1  0
  3 10  1  0
  3 11  1  0
  4 12  1  0
  4 13  1  0
  4 14  1  0
M  END
>  <reaction>  (1) 
rxn_991

>  <mol_properties>  (1) 
{"1": {"label": "donator", "atom_type": "Cs"}, "7": {"label": "d_hydrogen", "atom_type": "H0"}}

>  <type>  (1) 
r1h

$$$$

     RDKit          3D

  6  5  0  0  0  0  0  0  0  0999 V2000
   -0.5036    0.1196    0.0353 C   0  0  0  0  0  0  0  0  0  0  0  0
    0.9526    0.1121    0.2227 C   0  0  0  0  0  3  0  0  0  0  0  0
    2.2066   -0.6670   -0.2771 S   0  0  0  0  0  0  0  0  0  0  0  0
   -0.8527   -0.6450   -0.6654 H   0  0  0  0  0  0  0  0  0  0  0  0
   -0.8134    1.1060   -0.3189 H   0  0  0  0  0  0  0  0  0  0  0  0
   -0.9894   -0.0257    1.0035 H   0  0  0  0  0  0  0  0  0  0  0  0
  1  2  1  0
  1  4  1  0
  1  5  1  0
  1  6  1  0
  2  3  2  0
M  RAD  1   2   2
M  END
>  <reaction>  (2) 
rxn_991

>  <mol_properties>  (2) 
{"1": {"label": "acceptor", "atom_type": "CS"}}

>  <type>  (2) 
r2

$$$$

     RDKit          3D

  7  6  0  0  0  0  0  0  0  0999 V2000
   -0.6782    0.0507    0.0301 C   0  0  0  0  0  0  0  0  0  0  0  0
    0.8092    0.0996    0.0213 C   0  0  0  0  0  0  0  0  0  0  0  0
    1.7473    0.7521    1.1507 S   0  0  0  0  0  0  0  0  0  0  0  0
   -1.0667    0.5456   -0.8653 H   0  0  0  0  0  0  0  0  0  0  0  0
   -1.0112   -0.9904   -0.0239 H   0  0  0  0  0  0  0  0  0  0  0  0
   -1.0920    0.5225    0.9188 H   0  0  0  0  0  0  0  0  0  0  0  0
    1.2740   -0.3620   -0.8520 H   0  0  0  0  0  0  0  0  0  0  0  0
  1  2  1  0
  1  4  1  0
  1  5  1  0
  1  6  1  0
  2  3  2  0
  2  7  1  0
M  END
>  <reaction>  (3) 
rxn_991

>  <mol_properties>  (3) 
{"1": {"label": "acceptor", "atom_type": "CS"}, "6": {"label": "a_hydrogen", "atom_type": "H0"}}

>  <type>  (3) 
r2h

$$$$

     RDKit          3D

 20 18  0  0  0  0  0  0  0  0999 V2000
    1.5078   -1.5313   -0.2938 C   0  0  0  0  0  0  0  0  0  0  0  0
    1.3654   -0.0562   -0.2735 C   0  0  0  0  0  0  0  0  0  0  0  0
    2.4658    1.0821   -0.1278 S   0  0  0  0  0  0  0  0  0  0  0  0
    2.5403   -1.8578   -0.1645 H   0  0  0  0  0  0  0  0  0  0  0  0
    1.1183   -1.9130   -1.2425 H   0  0  0  0  0  0  0  0  0  0  0  0
    0.8808   -1.9660    0.4900 H   0  0  0  0  0  0  0  0  0  0  0  0
   -1.0579    1.2192   -2.1935 C   0  0  0  0  0  0  0  0  0  0  0  0
   -1.1681    0.7294   -0.7718 C   0  0  0  0  0  3  0  0  0  0  0  0
   -1.3867    1.8204    0.2454 C   0  0  0  0  0  0  0  0  0  0  0  0
   -2.0434   -0.4855   -0.5906 C   0  0  0  0  0  0  0  0  0  0  0  0
   -0.2993    1.9997   -2.2822 H   0  0  0  0  0  0  0  0  0  0  0  0
   -2.0105    1.6415   -2.5365 H   0  0  0  0  0  0  0  0  0  0  0  0
   -0.7941    0.4085   -2.8767 H   0  0  0  0  0  0  0  0  0  0  0  0
    0.0868    0.3117   -0.4860 H   0  0  0  0  0  0  0  0  0  0  0  0
   -2.3632    2.2993    0.1001 H   0  0  0  0  0  0  0  0  0  0  0  0
   -1.3609    1.4268    1.2638 H   0  0  0  0  0  0  0  0  0  0  0  0
   -0.6209    2.5942    0.1617 H   0  0  0  0  0  0  0  0  0  0  0  0
   -1.7641   -1.2872   -1.2783 H   0  0  0  0  0  0  0  0  0  0  0  0
   -3.0952   -0.2412   -0.7853 H   0  0  0  0  0  0  0  0  0  0  0  0
   -1.9837   -0.8724    0.4293 H   0  0  0  0  0  0  0  0  0  0  0  0
  1  2  1  0
  1  4  1  0
  1  5  1  0
  1  6  1  0
  2  3  2  0
  2 14  1  0
  7  8  1  0
  7 11  1  0
  7 12  1  0
  7 13  1  0
  8  9  1  0
  8 10  1  0
  9 15  1  0
  9 16  1  0
  9 17  1  0
 10 18  1  0
 10 19  1  0
 10 20  1  0
M  RAD  1   8   2
M  END
>  <reaction>  (4) 
rxn_991

>  <mol_properties>  (4) 
{"1": {"label": "*1", "atom_type": "CS"}, "2": {"label": "*0", "atom_type": "S2d"}, "6": {"label": "*4", "atom_type": "Cs"}, "7": {"label": "*3", "atom_type": "Cs"}, "13": {"label": "*2", "atom_type": "H0"}}

>  <type>  (4) 
ts

$$$$

     RDKit          3D

 20 18  0  0  0  0  0  0  0  0999 V2000
    2.1043    0.4993    1.1098 C   0  0  0  0  0  0  0  0  0  0  0  0
    1.2166   -0.3554    0.2754 C   0  0  0  0  0  0  0  0  0  0  0  0
    0.8774   -1.9058    0.5256 S   0  0  0  0  0  0  0  0  0  0  0  0
    2.5236   -0.0527    1.9483 H   0  0  0  0  0  0  0  0  0  0  0  0
    1.5410    1.3613    1.4803 H   0  0  0  0  0  0  0  0  0  0  0  0
    2.9128    0.9017    0.4916 H   0  0  0  0  0  0  0  0  0  0  0  0
   -0.9869    0.8193   -2.0581 C   0  0  0  0  0  0  0  0  0  0  0  0
   -0.9869    0.8193   -0.5324 C   0  0  0  0  0  3  0  0  0  0  0  0
   -0.9869    2.2440    0.0136 C   0  0  0  0  0  0  0  0  0  0  0  0
   -2.1698    0.0253    0.0137 C   0  0  0  0  0  0  0  0  0  0  0  0
   -0.1262    1.3615   -2.4552 H   0  0  0  0  0  0  0  0  0  0  0  0
   -1.8909    1.3014   -2.4419 H   0  0  0  0  0  0  0  0  0  0  0  0
   -0.9576   -0.1975   -2.4552 H   0  0  0  0  0  0  0  0  0  0  0  0
    0.1167    0.2310   -0.1278 H   0  0  0  0  0  0  0  0  0  0  0  0
   -1.8910    2.7748   -0.2990 H   0  0  0  0  0  0  0  0  0  0  0  0
   -0.9574    2.2509    1.1052 H   0  0  0  0  0  0  0  0  0  0  0  0
   -0.1263    2.8088   -0.3507 H   0  0  0  0  0  0  0  0  0  0  0  0
   -2.1590   -1.0042   -0.3506 H   0  0  0  0  0  0  0  0  0  0  0  0
   -3.1144    0.4799   -0.2990 H   0  0  0  0  0  0  0  0  0  0  0  0
   -2.1590   -0.0030    1.1053 H   0  0  0  0  0  0  0  0  0  0  0  0
  1  2  1  0
  1  4  1  0
  1  5  1  0
  1  6  1  0
  2  3  2  0
  2 14  1  0
  7  8  1  0
  7 11  1  0
  7 12  1  0
  7 13  1  0
  8  9  1  0
  8 10  1  0
  9 15  1  0
  9 16  1  0
  9 17  1  0
 10 18  1  0
 10 19  1  0
 10 20  1  0
M  RAD  1   8   2
M  END
>  <reaction>  (5) 
rxn_991

>  <mol_properties>  (5) 
{"1": {"label": "*1", "atom_type": "CS"}, "2": {"label": "*0", "atom_type": "S2d"}, "6": {"label": "*4", "atom_type": "Cs"}, "7": {"label": "*3", "atom_type": "Cs"}, "13": {"label": "*2", "atom_type": "H0"}}

>  <type>  (5) 
unop_1

>  <geom_source>  (5) 
Heuristics

$$$$

     RDKit          3D

 20 18  0  0  0  0  0  0  0  0999 V2000
    2.2265   -0.4167   -0.7657 C   0  0  0  0  0  0  0  0  0  0  0  0
    1.0699   -0.5667    0.1585 C   0  0  0  0  0  0  0  0  0  0  0  0
    1.1363   -0.9939    1.7059 S   0  0  0  0  0  0  0  0  0  0  0  0
    3.1700   -0.6347   -0.2697 H   0  0  0  0  0  0  0  0  0  0  0  0
    2.2467    0.6017   -1.1658 H   0  0  0  0  0  0  0  0  0  0  0  0
    2.0987   -1.0830   -1.6245 H   0  0  0  0  0  0  0  0  0  0  0  0
   -1.1337    0.6080   -2.1750 C   0  0  0  0  0  0  0  0  0  0  0  0
   -1.1337    0.6080   -0.6493 C   0  0  0  0  0  3  0  0  0  0  0  0
   -1.1337    2.0326   -0.1033 C   0  0  0  0  0  0  0  0  0  0  0  0
   -2.3165   -0.1861   -0.1033 C   0  0  0  0  0  0  0  0  0  0  0  0
   -0.2730    1.1502   -2.5721 H   0  0  0  0  0  0  0  0  0  0  0  0
   -2.0376    1.0900   -2.5588 H   0  0  0  0  0  0  0  0  0  0  0  0
   -1.1043   -0.4089   -2.5721 H   0  0  0  0  0  0  0  0  0  0  0  0
   -0.0300    0.0196   -0.2447 H   0  0  0  0  0  0  0  0  0  0  0  0
   -2.0377    2.5635   -0.4159 H   0  0  0  0  0  0  0  0  0  0  0  0
   -1.1042    2.0395    0.9883 H   0  0  0  0  0  0  0  0  0  0  0  0
   -0.2730    2.5975   -0.4677 H   0  0  0  0  0  0  0  0  0  0  0  0
   -2.3057   -1.2155   -0.4675 H   0  0  0  0  0  0  0  0  0  0  0  0
   -3.2611    0.2686   -0.4159 H   0  0  0  0  0  0  0  0  0  0  0  0
   -2.3057   -0.2143    0.9883 H   0  0  0  0  0  0  0  0  0  0  0  0
  1  2  1  0
  1  4  1  0
  1  5  1  0
  1  6  1  0
  2  3  2  0
  2 14  1  0
  7  8  1  0
  7 11  1  0
  7 12  1  0
  7 13  1  0
  8  9  1  0
  8 10  1  0
  9 15  1  0
  9 16  1  0
  9 17  1  0
 10 18  1  0
 10 19  1  0
 10 20  1  0
M  RAD  1   8   2
M  END
>  <reaction>  (6) 
rxn_991

>  <mol_properties>  (6) 
{"1": {"label": "*1", "atom_type": "CS"}, "2": {"label": "*0", "atom_type": "S2d"}, "6": {"label": "*4", "atom_type": "Cs"}, "7": {"label": "*3", "atom_type": "Cs"}, "13": {"label": "*2", "atom_type": "H0"}}

>  <type>  (6) 
unop_2

>  <geom_source>  (6) 
Heuristics

$$$$

     RDKit          3D

 20 18  0  0  0  0  0  0  0  0999 V2000
    1.6527    0.1660    1.7461 C   0  0  0  0  0  0  0  0  0  0  0  0
    1.1325   -0.3234    0.4405 C   0  0  0  0  0  0  0  0  0  0  0  0
    1.2833   -1.8109   -0.1476 S   0  0  0  0  0  0  0  0  0  0  0  0
    2.1714   -0.6184    2.2932 H   0  0  0  0  0  0  0  0  0  0  0  0
    0.8250    0.5512    2.3496 H   0  0  0  0  0  0  0  0  0  0  0  0
    2.3303    1.0088    1.5783 H   0  0  0  0  0  0  0  0  0  0  0  0
   -1.0711    0.8514   -1.8930 C   0  0  0  0  0  0  0  0  0  0  0  0
   -1.0711    0.8514   -0.3673 C   0  0  0  0  0  3  0  0  0  0  0  0
   -1.0711    2.2760    0.1787 C   0  0  0  0  0  0  0  0  0  0  0  0
   -2.2539    0.0573    0.1788 C   0  0  0  0  0  0  0  0  0  0  0  0
   -0.2103    1.3935   -2.2900 H   0  0  0  0  0  0  0  0  0  0  0  0
   -1.9750    1.3334   -2.2768 H   0  0  0  0  0  0  0  0  0  0  0  0
   -1.0417   -0.1655   -2.2900 H   0  0  0  0  0  0  0  0  0  0  0  0
    0.0326    0.2630    0.0373 H   0  0  0  0  0  0  0  0  0  0  0  0
   -1.9751    2.8068   -0.1339 H   0  0  0  0  0  0  0  0  0  0  0  0
   -1.0415    2.2829    1.2703 H   0  0  0  0  0  0  0  0  0  0  0  0
   -0.2104    2.8408   -0.1856 H   0  0  0  0  0  0  0  0  0  0  0  0
   -2.2431   -0.9721   -0.1854 H   0  0  0  0  0  0  0  0  0  0  0  0
   -3.1985    0.5119   -0.1339 H   0  0  0  0  0  0  0  0  0  0  0  0
   -2.2431    0.0291    1.2704 H   0  0  0  0  0  0  0  0  0  0  0  0
  1  2  1  0
  1  4  1  0
  1  5  1  0
  1  6  1  0
  2  3  2  0
  2 14  1  0
  7  8  1  0
  7 11  1  0
  7 12  1  0
  7 13  1  0
  8  9  1  0
  8 10  1  0
  9 15  1  0
  9 16  1  0
  9 17  1  0
 10 18  1  0
 10 19  1  0
 10 20  1  0
M  RAD  1   8   2
M  END
>  <reaction>  (7) 
rxn_991

>  <mol_properties>  (7) 
{"1": {"label": "*1", "atom_type": "CS"}, "2": {"label": "*0", "atom_type": "S2d"}, "6": {"label": "*4", "atom_type": "Cs"}, "7": {"label": "*3", "atom_type": "Cs"}, "13": {"label": "*2", "atom_type": "H0"}}

>  <type>  (7) 
unop_3

>  <geom_source>  (7) 
Heuristics

$$$$

     RDKit          3D

 20 18  0  0  0  0  0  0  0  0999 V2000
    1.2268   -2.0523   -0.3114 C   0  0  0  0  0  0  0  0  0  0  0  0
    1.0742   -0.6430    0.1416 C   0  0  0  0  0  0  0  0  0  0  0  0
    1.6204   -0.0206    1.5184 S   0  0  0  0  0  0  0  0  0  0  0  0
    1.7711   -2.6525    0.4146 H   0  0  0  0  0  0  0  0  0  0  0  0
    1.7485   -2.0739   -1.2732 H   0  0  0  0  0  0  0  0  0  0  0  0
    0.2393   -2.4904   -0.4862 H   0  0  0  0  0  0  0  0  0  0  0  0
   -1.1294    0.5318   -2.1920 C   0  0  0  0  0  0  0  0  0  0  0  0
   -1.1294    0.5318   -0.6662 C   0  0  0  0  0  3  0  0  0  0  0  0
   -1.1294    1.9564   -0.1202 C   0  0  0  0  0  0  0  0  0  0  0  0
   -2.3122   -0.2623   -0.1202 C   0  0  0  0  0  0  0  0  0  0  0  0
   -0.2686    1.0739   -2.5890 H   0  0  0  0  0  0  0  0  0  0  0  0
   -2.0333    1.0138   -2.5757 H   0  0  0  0  0  0  0  0  0  0  0  0
   -1.1000   -0.4851   -2.5890 H   0  0  0  0  0  0  0  0  0  0  0  0
   -0.0257   -0.0566   -0.2616 H   0  0  0  0  0  0  0  0  0  0  0  0
   -2.0334    2.4872   -0.4328 H   0  0  0  0  0  0  0  0  0  0  0  0
   -1.0998    1.9633    0.9714 H   0  0  0  0  0  0  0  0  0  0  0  0
   -0.2687    2.5212   -0.4846 H   0  0  0  0  0  0  0  0  0  0  0  0
   -2.3014   -1.2917   -0.4844 H   0  0  0  0  0  0  0  0  0  0  0  0
   -3.2568    0.1923   -0.4329 H   0  0  0  0  0  0  0  0  0  0  0  0
   -2.3014   -0.2905    0.9714 H   0  0  0  0  0  0  0  0  0  0  0  0
  1  2  1  0
  1  4  1  0
  1  5  1  0
  1  6  1  0
  2  3  2  0
  2 14  1  0
  7  8  1  0
  7 11  1  0
  7 12  1  0
  7 13  1  0
  8  9  1  0
  8 10  1  0
  9 15  1  0
  9 16  1  0
  9 17  1  0
 10 18  1  0
 10 19  1  0
 10 20  1  0
M  RAD  1   8   2
M  END
>  <reaction>  (8) 
rxn_991

>  <mol_properties>  (8) 
{"1": {"label": "*1", "atom_type": "CS"}, "2": {"label": "*0", "atom_type": "S2d"}, "6": {"label": "*4", "atom_type": "Cs"}, "7": {"label": "*3", "atom_type": "Cs"}, "13": {"label": "*2", "atom_type": "H0"}}

>  <type>  (8) 
unop_4

>  <geom_source>  (8) 
Heuristics

$$$$

     RDKit          3D

 20 18  0  0  0  0  0  0  0  0999 V2000
    1.0933   -0.5828    2.0339 C   0  0  0  0  0  0  0  0  0  0  0  0
    0.9406   -0.5014    0.5559 C   0  0  0  0  0  0  0  0  0  0  0  0
    1.9769   -1.0539   -0.5406 S   0  0  0  0  0  0  0  0  0  0  0  0
    2.0202   -1.0770    2.3170 H   0  0  0  0  0  0  0  0  0  0  0  0
    0.2423   -1.1220    2.4614 H   0  0  0  0  0  0  0  0  0  0  0  0
    1.0666    0.4243    2.4614 H   0  0  0  0  0  0  0  0  0  0  0  0
   -1.2630    0.6733   -1.7777 C   0  0  0  0  0  0  0  0  0  0  0  0
   -1.2630    0.6733   -0.2520 C   0  0  0  0  0  3  0  0  0  0  0  0
   -1.2630    2.0980    0.2941 C   0  0  0  0  0  0  0  0  0  0  0  0
   -2.4458   -0.1208    0.2941 C   0  0  0  0  0  0  0  0  0  0  0  0
   -0.4022    1.2155   -2.1747 H   0  0  0  0  0  0  0  0  0  0  0  0
   -2.1669    1.1553   -2.1615 H   0  0  0  0  0  0  0  0  0  0  0  0
   -1.2336   -0.3436   -2.1747 H   0  0  0  0  0  0  0  0  0  0  0  0
   -0.1593    0.0849    0.1527 H   0  0  0  0  0  0  0  0  0  0  0  0
   -2.1670    2.6288   -0.0186 H   0  0  0  0  0  0  0  0  0  0  0  0
   -1.2334    2.1048    1.3857 H   0  0  0  0  0  0  0  0  0  0  0  0
   -0.4023    2.6628   -0.0703 H   0  0  0  0  0  0  0  0  0  0  0  0
   -2.4350   -1.1502   -0.0701 H   0  0  0  0  0  0  0  0  0  0  0  0
   -3.3904    0.3339   -0.0186 H   0  0  0  0  0  0  0  0  0  0  0  0
   -2.4350   -0.1490    1.3857 H   0  0  0  0  0  0  0  0  0  0  0  0
  1  2  1  0
  1  4  1  0
  1  5  1  0
  1  6  1  0
  2  3  2  0
  2 14  1  0
  7  8  1  0
  7 11  1  0
  7 12  1  0
  7 13  1  0
  8  9  1  0
  8 10  1  0
  9 15  1  0
  9 16  1  0
  9 17  1  0
 10 18  1  0
 10 19  1  0
 10 20  1  0
M  RAD  1   8   2
M  END
>  <reaction>  (9) 
rxn_991

>  <mol_properties>  (9) 
{"1": {"label": "*1", "atom_type": "CS"}, "2": {"label": "*0", "atom_type": "S2d"}, "6": {"label": "*4", "atom_type": "Cs"}, "7": {"label": "*3", "atom_type": "Cs"}, "13": {"label": "*2", "atom_type": "H0"}}

>  <type>  (9) 
unop_5

>  <geom_source>  (9) 
Heuristics

$$$$

     RDKit          3D

 20 18  0  0  0  0  0  0  0  0999 V2000
    0.9251   -2.2151    0.3628 C   0  0  0  0  0  0  0  0  0  0  0  0
    1.0415   -0.7438    0.1721 C   0  0  0  0  0  0  0  0  0  0  0  0
    1.8405    0.2791    1.1190 S   0  0  0  0  0  0  0  0  0  0  0  0
    1.4594   -2.5504    1.2493 H   0  0  0  0  0  0  0  0  0  0  0  0
    1.3147   -2.7313   -0.5200 H   0  0  0  0  0  0  0  0  0  0  0  0
   -0.1306   -2.4924    0.4415 H   0  0  0  0  0  0  0  0  0  0  0  0
   -1.1621    0.4309   -2.1614 C   0  0  0  0  0  0  0  0  0  0  0  0
   -1.1621    0.4309   -0.6357 C   0  0  0  0  0  3  0  0  0  0  0  0
   -1.1621    1.8556   -0.0896 C   0  0  0  0  0  0  0  0  0  0  0  0
   -2.3449   -0.3631   -0.0896 C   0  0  0  0  0  0  0  0  0  0  0  0
   -0.3013    0.9731   -2.5584 H   0  0  0  0  0  0  0  0  0  0  0  0
   -2.0660    0.9130   -2.5452 H   0  0  0  0  0  0  0  0  0  0  0  0
   -1.1327   -0.5859   -2.5584 H   0  0  0  0  0  0  0  0  0  0  0  0
   -0.0584   -0.1575   -0.2311 H   0  0  0  0  0  0  0  0  0  0  0  0
   -2.0661    2.3864   -0.4023 H   0  0  0  0  0  0  0  0  0  0  0  0
   -1.1325    1.8625    1.0020 H   0  0  0  0  0  0  0  0  0  0  0  0
   -0.3014    2.4204   -0.4540 H   0  0  0  0  0  0  0  0  0  0  0  0
   -2.3341   -1.3926   -0.4538 H   0  0  0  0  0  0  0  0  0  0  0  0
   -3.2895    0.0915   -0.4023 H   0  0  0  0  0  0  0  0  0  0  0  0
   -2.3341   -0.3914    1.0020 H   0  0  0  0  0  0  0  0  0  0  0  0
  1  2  1  0
  1  4  1  0
  1  5  1  0
  1  6  1  0
  2  3  2  0
  2 14  1  0
  7  8  1  0
  7 11  1  0
  7 12  1  0
  7 13  1  0
  8  9  1  0
  8 10  1  0
  9 15  1  0
  9 16  1  0
  9 17  1  0
 10 18  1  0
 10 19  1  0
 10 20  1  0
M  RAD  1   8   2
M  END
>  <reaction>  (10) 
rxn_991

>  <mol_properties>  (10) 
{"1": {"label": "*1", "atom_type": "CS"}, "2": {"label": "*0", "atom_type": "S2d"}, "6": {"label": "*4", "atom_type": "Cs"}, "7": {"label": "*3", "atom_type": "Cs"}, "13": {"label": "*2", "atom_type": "H0"}}

>  <type>  (10) 
unop_6

>  <geom_source>  (10) 
Heuristics

$$$$

     RDKit          3D

 20 18  0  0  0  0  0  0  0  0999 V2000
    0.7584   -2.0254    1.1098 C   0  0  0  0  0  0  0  0  0  0  0  0
    0.9732   -0.8120    0.2754 C   0  0  0  0  0  0  0  0  0  0  0  0
    2.0714    0.3338    0.5256 S   0  0  0  0  0  0  0  0  0  0  0  0
    1.4503   -2.0659    1.9483 H   0  0  0  0  0  0  0  0  0  0  0  0
    0.8749   -2.9209    0.4917 H   0  0  0  0  0  0  0  0  0  0  0  0
   -0.2713   -2.0382    1.4802 H   0  0  0  0  0  0  0  0  0  0  0  0
   -1.2304    0.3627   -2.0581 C   0  0  0  0  0  0  0  0  0  0  0  0
   -1.2304    0.3627   -0.5324 C   0  0  0  0  0  3  0  0  0  0  0  0
   -1.2304    1.7874    0.0136 C   0  0  0  0  0  0  0  0  0  0  0  0
   -2.4132   -0.4313    0.0137 C   0  0  0  0  0  0  0  0  0  0  0  0
   -0.3696    0.9049   -2.4552 H   0  0  0  0  0  0  0  0  0  0  0  0
   -2.1343    0.8447   -2.4419 H   0  0  0  0  0  0  0  0  0  0  0  0
   -1.2010   -0.6541   -2.4552 H   0  0  0  0  0  0  0  0  0  0  0  0
   -0.1267   -0.2257   -0.1278 H   0  0  0  0  0  0  0  0  0  0  0  0
   -2.1344    2.3182   -0.2990 H   0  0  0  0  0  0  0  0  0  0  0  0
   -1.2008    1.7942    1.1052 H   0  0  0  0  0  0  0  0  0  0  0  0
   -0.3697    2.3522   -0.3507 H   0  0  0  0  0  0  0  0  0  0  0  0
   -2.4024   -1.4608   -0.3506 H   0  0  0  0  0  0  0  0  0  0  0  0
   -3.3578    0.0233   -0.2990 H   0  0  0  0  0  0  0  0  0  0  0  0
   -2.4024   -0.4596    1.1053 H   0  0  0  0  0  0  0  0  0  0  0  0
  1  2  1  0
  1  4  1  0
  1  5  1  0
  1  6  1  0
  2  3  2  0
  2 14  1  0
  7  8  1  0
  7 11  1  0
  7 12  1  0
  7 13  1  0
  8  9  1  0
  8 10  1  0
  9 15  1  0
  9 16  1  0
  9 17  1  0
 10 18  1  0
 10 19  1  0
 10 20  1  0
M  RAD  1   8   2
M  END
>  <reaction>  (11) 
rxn_991

>  <mol_properties>  (11) 
{"1": {"label": "*1", "atom_type": "CS"}, "2": {"label": "*0", "atom_type": "S2d"}, "6": {"label": "*4", "atom_type": "Cs"}, "7": {"label": "*3", "atom_type": "Cs"}, "13": {"label": "*2", "atom_type": "H0"}}

>  <type>  (11) 
unop_7

>  <geom_source>  (11) 
Heuristics

$$$$

     RDKit          3D

 20 18  0  0  0  0  0  0  0  0999 V2000
    2.3547    0.4666    0.3628 C   0  0  0  0  0  0  0  0  0  0  0  0
    1.1980   -0.4501    0.1721 C   0  0  0  0  0  0  0  0  0  0  0  0
    0.7942   -1.6837    1.1190 S   0  0  0  0  0  0  0  0  0  0  0  0
    2.9309    0.2098    1.2492 H   0  0  0  0  0  0  0  0  0  0  0  0
    1.9965    1.4977    0.4415 H   0  0  0  0  0  0  0  0  0  0  0  0
    3.0004    0.4309   -0.5200 H   0  0  0  0  0  0  0  0  0  0  0  0
   -1.0055    0.7246   -2.1614 C   0  0  0  0  0  0  0  0  0  0  0  0
   -1.0055    0.7246   -0.6357 C   0  0  0  0  0  3  0  0  0  0  0  0
   -1.0055    2.1493   -0.0896 C   0  0  0  0  0  0  0  0  0  0  0  0
   -2.1883   -0.0694   -0.0896 C   0  0  0  0  0  0  0  0  0  0  0  0
   -0.1448    1.2668   -2.5584 H   0  0  0  0  0  0  0  0  0  0  0  0
   -1.9094    1.2067   -2.5452 H   0  0  0  0  0  0  0  0  0  0  0  0
   -0.9761   -0.2922   -2.5584 H   0  0  0  0  0  0  0  0  0  0  0  0
    0.0982    0.1363   -0.2311 H   0  0  0  0  0  0  0  0  0  0  0  0
   -1.9095    2.6801   -0.4023 H   0  0  0  0  0  0  0  0  0  0  0  0
   -0.9760    2.1562    1.0020 H   0  0  0  0  0  0  0  0  0  0  0  0
   -0.1448    2.7141   -0.4540 H   0  0  0  0  0  0  0  0  0  0  0  0
   -2.1776   -1.0989   -0.4538 H   0  0  0  0  0  0  0  0  0  0  0  0
   -3.1329    0.3852   -0.4023 H   0  0  0  0  0  0  0  0  0  0  0  0
   -2.1775   -0.0977    1.0020 H   0  0  0  0  0  0  0  0  0  0  0  0
  1  2  1  0
  1  4  1  0
  1  5  1  0
  1  6  1  0
  2  3  2  0
  2 14  1  0
  7  8  1  0
  7 11  1  0
  7 12  1  0
  7 13  1  0
  8  9  1  0
  8 10  1  0
  9 15  1  0
  9 16  1  0
  9 17  1  0
 10 18  1  0
 10 19  1  0
 10 20  1  0
M  RAD  1   8   2
M  END
>  <reaction>  (12) 
rxn_991

>  <mol_properties>  (12) 
{"1": {"label": "*1", "atom_type": "CS"}, "2": {"label": "*0", "atom_type": "S2d"}, "6": {"label": "*4", "atom_type": "Cs"}, "7": {"label": "*3", "atom_type": "Cs"}, "13": {"label": "*2", "atom_type": "H0"}}

>  <type>  (12) 
unop_8

>  <geom_source>  (12) 
Heuristics

$$$$

     RDKit          3D

 20 18  0  0  0  0  0  0  0  0999 V2000
    1.5870   -1.6163   -0.7657 C   0  0  0  0  0  0  0  0  0  0  0  0
    1.0669   -0.5724    0.1585 C   0  0  0  0  0  0  0  0  0  0  0  0
    1.4585   -0.3894    1.7059 S   0  0  0  0  0  0  0  0  0  0  0  0
    2.2938   -2.2782   -0.2697 H   0  0  0  0  0  0  0  0  0  0  0  0
    2.0690   -1.1388   -1.6244 H   0  0  0  0  0  0  0  0  0  0  0  0
    0.7527   -2.2007   -1.1658 H   0  0  0  0  0  0  0  0  0  0  0  0
   -1.1367    0.6024   -2.1750 C   0  0  0  0  0  0  0  0  0  0  0  0
   -1.1367    0.6024   -0.6493 C   0  0  0  0  0  3  0  0  0  0  0  0
   -1.1367    2.0270   -0.1033 C   0  0  0  0  0  0  0  0  0  0  0  0
   -2.3195   -0.1917   -0.1033 C   0  0  0  0  0  0  0  0  0  0  0  0
   -0.2759    1.1446   -2.5721 H   0  0  0  0  0  0  0  0  0  0  0  0
   -2.0406    1.0844   -2.5588 H   0  0  0  0  0  0  0  0  0  0  0  0
   -1.1073   -0.4145   -2.5721 H   0  0  0  0  0  0  0  0  0  0  0  0
   -0.0330    0.0140   -0.2447 H   0  0  0  0  0  0  0  0  0  0  0  0
   -2.0407    2.5579   -0.4159 H   0  0  0  0  0  0  0  0  0  0  0  0
   -1.1071    2.0339    0.9883 H   0  0  0  0  0  0  0  0  0  0  0  0
   -0.2760    2.5918   -0.4676 H   0  0  0  0  0  0  0  0  0  0  0  0
   -2.3087   -1.2211   -0.4675 H   0  0  0  0  0  0  0  0  0  0  0  0
   -3.2641    0.2630   -0.4159 H   0  0  0  0  0  0  0  0  0  0  0  0
   -2.3087   -0.2199    0.9883 H   0  0  0  0  0  0  0  0  0  0  0  0
  1  2  1  0
  1  4  1  0
  1  5  1  0
  1  6  1  0
  2  3  2  0
  2 14  1  0
  7  8  1  0
  7 11  1  0
  7 12  1  0
  7 13  1  0
  8  9  1  0
  8 10  1  0
  9 15  1  0
  9 16  1  0
  9 17  1  0
 10 18  1  0
 10 19  1  0
 10 20  1  0
M  RAD  1   8   2
M  END
>  <reaction>  (13) 
rxn_991

>  <mol_properties>  (13) 
{"1": {"label": "*1", "atom_type": "CS"}, "2": {"label": "*0", "atom_type": "S2d"}, "6": {"label": "*4", "atom_type": "Cs"}, "7": {"label": "*3", "atom_type": "Cs"}, "13": {"label": "*2", "atom_type": "H0"}}

>  <type>  (13) 
unop_9

>  <geom_source>  (13) 
Heuristics

$$$$

     RDKit          3D

 20 18  0  0  0  0  0  0  0  0999 V2000
    2.3877    0.1253   -0.3114 C   0  0  0  0  0  0  0  0  0  0  0  0
    1.1326   -0.5335    0.1416 C   0  0  0  0  0  0  0  0  0  0  0  0
    0.9203   -1.3339    1.5184 S   0  0  0  0  0  0  0  0  0  0  0  0
    3.1895    0.0080    0.4146 H   0  0  0  0  0  0  0  0  0  0  0  0
    2.2010    1.1894   -0.4862 H   0  0  0  0  0  0  0  0  0  0  0  0
    2.6964   -0.2958   -1.2732 H   0  0  0  0  0  0  0  0  0  0  0  0
   -1.0710    0.6413   -2.1920 C   0  0  0  0  0  0  0  0  0  0  0  0
   -1.0710    0.6413   -0.6662 C   0  0  0  0  0  3  0  0  0  0  0  0
   -1.0710    2.0659   -0.1202 C   0  0  0  0  0  0  0  0  0  0  0  0
   -2.2538   -0.1528   -0.1202 C   0  0  0  0  0  0  0  0  0  0  0  0
   -0.2102    1.1835   -2.5890 H   0  0  0  0  0  0  0  0  0  0  0  0
   -1.9749    1.1233   -2.5757 H   0  0  0  0  0  0  0  0  0  0  0  0
   -1.0416   -0.3756   -2.5890 H   0  0  0  0  0  0  0  0  0  0  0  0
    0.0327    0.0529   -0.2616 H   0  0  0  0  0  0  0  0  0  0  0  0
   -1.9750    2.5968   -0.4328 H   0  0  0  0  0  0  0  0  0  0  0  0
   -1.0414    2.0728    0.9714 H   0  0  0  0  0  0  0  0  0  0  0  0
   -0.2103    2.6307   -0.4846 H   0  0  0  0  0  0  0  0  0  0  0  0
   -2.2430   -1.1822   -0.4844 H   0  0  0  0  0  0  0  0  0  0  0  0
   -3.1984    0.3019   -0.4329 H   0  0  0  0  0  0  0  0  0  0  0  0
   -2.2430   -0.1810    0.9714 H   0  0  0  0  0  0  0  0  0  0  0  0
  1  2  1  0
  1  4  1  0
  1  5  1  0
  1  6  1  0
  2  3  2  0
  2 14  1  0
  7  8  1  0
  7 11  1  0
  7 12  1  0
  7 13  1  0
  8  9  1  0
  8 10  1  0
  9 15  1  0
  9 16  1  0
  9 17  1  0
 10 18  1  0
 10 19  1  0
 10 20  1  0
M  RAD  1   8   2
M  END
>  <reaction>  (14) 
rxn_991

>  <mol_properties>  (14) 
{"1": {"label": "*1", "atom_type": "CS"}, "2": {"label": "*0", "atom_type": "S2d"}, "6": {"label": "*4", "atom_type": "Cs"}, "7": {"label": "*3", "atom_type": "Cs"}, "13": {"label": "*2", "atom_type": "H0"}}

>  <type>  (14) 
unop_10

>  <geom_source>  (14) 
Heuristics

$$$$

     RDKit          3D

 20 18  0  0  0  0  0  0  0  0999 V2000
    0.7834   -1.4647    1.7461 C   0  0  0  0  0  0  0  0  0  0  0  0
    0.8997   -0.7600    0.4405 C   0  0  0  0  0  0  0  0  0  0  0  0
    2.2188   -0.0561   -0.1476 S   0  0  0  0  0  0  0  0  0  0  0  0
    1.7238   -1.4581    2.2932 H   0  0  0  0  0  0  0  0  0  0  0  0
    0.4614   -2.4971    1.5783 H   0  0  0  0  0  0  0  0  0  0  0  0
    0.0022   -0.9921    2.3496 H   0  0  0  0  0  0  0  0  0  0  0  0
   -1.3038    0.4147   -1.8930 C   0  0  0  0  0  0  0  0  0  0  0  0
   -1.3038    0.4147   -0.3673 C   0  0  0  0  0  3  0  0  0  0  0  0
   -1.3038    1.8394    0.1787 C   0  0  0  0  0  0  0  0  0  0  0  0
   -2.4867   -0.3794    0.1788 C   0  0  0  0  0  0  0  0  0  0  0  0
   -0.4431    0.9569   -2.2900 H   0  0  0  0  0  0  0  0  0  0  0  0
   -2.2078    0.8967   -2.2768 H   0  0  0  0  0  0  0  0  0  0  0  0
   -1.2745   -0.6022   -2.2900 H   0  0  0  0  0  0  0  0  0  0  0  0
   -0.2002   -0.1737    0.0373 H   0  0  0  0  0  0  0  0  0  0  0  0
   -2.2078    2.3702   -0.1339 H   0  0  0  0  0  0  0  0  0  0  0  0
   -1.2743    1.8462    1.2703 H   0  0  0  0  0  0  0  0  0  0  0  0
   -0.4432    2.4042   -0.1856 H   0  0  0  0  0  0  0  0  0  0  0  0
   -2.4759   -1.4088   -0.1854 H   0  0  0  0  0  0  0  0  0  0  0  0
   -3.4313    0.0753   -0.1339 H   0  0  0  0  0  0  0  0  0  0  0  0
   -2.4759   -0.4076    1.2704 H   0  0  0  0  0  0  0  0  0  0  0  0
  1  2  1  0
  1  4  1  0
  1  5  1  0
  1  6  1  0
  2  3  2  0
  2 14  1  0
  7  8  1  0
  7 11  1  0
  7 12  1  0
  7 13  1  0
  8  9  1  0
  8 10  1  0
  9 15  1  0
  9 16  1  0
  9 17  1  0
 10 18  1  0
 10 19  1  0
 10 20  1  0
M  RAD  1   8   2
M  END
>  <reaction>  (15) 
rxn_991

>  <mol_properties>  (15) 
{"1": {"label": "*1", "atom_type": "CS"}, "2": {"label": "*0", "atom_type": "S2d"}, "6": {"label": "*4", "atom_type": "Cs"}, "7": {"label": "*3", "atom_type": "Cs"}, "13": {"label": "*2", "atom_type": "H0"}}

>  <type>  (15) 
unop_11

>  <geom_source>  (15) 
Heuristics

$$$$

     RDKit          3D

 20 18  0  0  0  0  0  0  0  0999 V2000
    1.9373   -1.0328   -0.9229 C   0  0  0  0  0  0  0  0  0  0  0  0
    1.0497   -0.5596    0.1738 C   0  0  0  0  0  0  0  0  0  0  0  0
    1.3230   -0.7053    1.7503 S   0  0  0  0  0  0  0  0  0  0  0  0
    2.8350   -1.5114   -0.5371 H   0  0  0  0  0  0  0  0  0  0  0  0
    2.2148   -0.1878   -1.5607 H   0  0  0  0  0  0  0  0  0  0  0  0
    1.3904   -1.7341   -1.5607 H   0  0  0  0  0  0  0  0  0  0  0  0
   -1.1539    0.6152   -2.1598 C   0  0  0  0  0  0  0  0  0  0  0  0
   -1.1539    0.6152   -0.6341 C   0  0  0  0  0  3  0  0  0  0  0  0
   -1.1539    2.0398   -0.0880 C   0  0  0  0  0  0  0  0  0  0  0  0
   -2.3367   -0.1789   -0.0880 C   0  0  0  0  0  0  0  0  0  0  0  0
   -0.2931    1.1573   -2.5568 H   0  0  0  0  0  0  0  0  0  0  0  0
   -2.0578    1.0972   -2.5436 H   0  0  0  0  0  0  0  0  0  0  0  0
   -1.1245   -0.4017   -2.5568 H   0  0  0  0  0  0  0  0  0  0  0  0
   -0.0502    0.0268   -0.2295 H   0  0  0  0  0  0  0  0  0  0  0  0
   -2.0579    2.5706   -0.4007 H   0  0  0  0  0  0  0  0  0  0  0  0
   -1.1243    2.0467    1.0036 H   0  0  0  0  0  0  0  0  0  0  0  0
   -0.2932    2.6046   -0.4524 H   0  0  0  0  0  0  0  0  0  0  0  0
   -2.3259   -1.2084   -0.4522 H   0  0  0  0  0  0  0  0  0  0  0  0
   -3.2813    0.2757   -0.4007 H   0  0  0  0  0  0  0  0  0  0  0  0
   -2.3259   -0.2071    1.0036 H   0  0  0  0  0  0  0  0  0  0  0  0
  1  2  1  0
  1  4  1  0
  1  5  1  0
  1  6  1  0
  2  3  2  0
  2 14  1  0
  7  8  1  0
  7 11  1  0
  7 12  1  0
  7 13  1  0
  8  9  1  0
  8 10  1  0
  9 15  1  0
  9 16  1  0
  9 17  1  0
 10 18  1  0
 10 19  1  0
 10 20  1  0
M  RAD  1   8   2
M  END
>  <reaction>  (16) 
rxn_991

>  <mol_properties>  (16) 
{"1": {"label": "*1", "atom_type": "CS"}, "2": {"label": "*0", "atom_type": "S2d"}, "6": {"label": "*4", "atom_type": "Cs"}, "7": {"label": "*3", "atom_type": "Cs"}, "13": {"label": "*2", "atom_type": "H0"}}

>  <type>  (16) 
unop_12

>  <geom_source>  (16) 
Heuristics

$$$$

     RDKit          3D

 20 18  0  0  0  0  0  0  0  0999 V2000
    2.6293    0.8225   -0.9738 S   0  0  0  0  0  0  0  0  0  0  0  0
   -0.9674    0.6981    1.0619 C   0  0  0  0  0  0  0  0  0  0  0  0
   -1.5330   -1.1983   -0.5092 C   0  0  0  0  0  0  0  0  0  0  0  0
   -0.9856    1.0884   -1.4345 C   0  0  0  0  0  0  0  0  0  0  0  0
    2.5073   -0.6781    1.0829 C   0  0  0  0  0  0  0  0  0  0  0  0
   -0.7161    0.0808   -0.3152 C   0  0  0  0  0  3  0  0  0  0  0  0
    1.8699   -0.0351   -0.1080 C   0  0  0  0  0  0  0  0  0  0  0  0
    3.3449   -1.3349    0.7642 H   0  0  0  0  0  0  0  0  0  0  0  0
    1.7534   -1.2957    1.6134 H   0  0  0  0  0  0  0  0  0  0  0  0
    2.8879    0.0972    1.7819 H   0  0  0  0  0  0  0  0  0  0  0  0
   -0.3242    1.5928    1.1990 H   0  0  0  0  0  0  0  0  0  0  0  0
   -2.0325    0.9966    1.1694 H   0  0  0  0  0  0  0  0  0  0  0  0
   -0.7136   -0.0340    1.8572 H   0  0  0  0  0  0  0  0  0  0  0  0
   -1.2800   -1.9332    0.2838 H   0  0  0  0  0  0  0  0  0  0  0  0
   -1.2929   -1.6555   -1.4922 H   0  0  0  0  0  0  0  0  0  0  0  0
   -2.6215   -0.9785   -0.4669 H   0  0  0  0  0  0  0  0  0  0  0  0
   -0.7448    0.6346   -2.4188 H   0  0  0  0  0  0  0  0  0  0  0  0
   -0.3424    1.9837   -1.3011 H   0  0  0  0  0  0  0  0  0  0  0  0
   -2.0514    1.4031   -1.4306 H   0  0  0  0  0  0  0  0  0  0  0  0
    0.6127   -0.2546   -0.3636 H   0  0  0  0  0  0  0  0  0  0  0  0
  1  7  2  0
  2  6  1  0
  2 11  1  0
  2 12  1  0
  2 13  1  0
  3  6  1  0
  3 14  1  0
  3 15  1  0
  3 16  1  0
  4  6  1  0
  4 17  1  0
  4 18  1  0
  4 19  1  0
  5  7  1  0
  5  8  1  0
  5  9  1  0
  5 10  1  0
  7 20  1  0
M  RAD  1   6   2
M  END
>  <reaction>  (17) 
rxn_991

>  <mol_properties>  (17) 
{"1": {"label": "*1", "atom_type": "CS"}, "2": {"label": "*0", "atom_type": "S2d"}, "6": {"label": "*4", "atom_type": "Cs"}, "7": {"label": "*3", "atom_type": "Cs"}, "13": {"label": "*2", "atom_type": "H0"}}

>  <type>  (17) 
unop_13

>  <geom_source>  (17) 
AutoTST

$$$$
