
     RDKit          3D

  7  6  0  0  0  0  0  0  0  0999 V2000
    1.2985   -0.0065   -0.2721 C   0  0  0  0  0  0  0  0  0  0  0  0
    0.0000    0.0000   -0.2926 C   0  0  0  0  0  0  0  0  0  0  0  0
   -1.2985    0.0065   -0.3130 C   0  0  0  0  0  0  0  0  0  0  0  0
    1.8444   -0.7551    0.2895 H   0  0  0  0  0  0  0  0  0  0  0  0
    1.8693    0.7364   -0.8162 H   0  0  0  0  0  0  0  0  0  0  0  0
   -1.8658    0.5623    0.4239 H   0  0  0  0  0  0  0  0  0  0  0  0
   -1.8479   -0.5437   -1.0675 H   0  0  0  0  0  0  0  0  0  0  0  0
  1  2  2  0
  1  4  1  0
  1  5  1  0
  2  3  2  0
  3  6  1  0
  3  7  1  0
M  END
>  <reaction>  (1) 
rxn_1818

>  <mol_properties>  (1) 
{"0": {"label": "donator", "atom_type": "Cd"}, "3": {"label": "d_hydrogen", "atom_type": "H0"}}

>  <type>  (1) 
r1h

$$$$

     RDKit          3D

 12 11  0  0  0  0  0  0  0  0999 V2000
   -0.9951    0.1196   -0.8321 C   0  0  0  0  0  0  0  0  0  0  0  0
   -0.3760    0.2571    0.5231 C   0  0  0  0  0  3  0  0  0  0  0  0
    0.9330   -0.1537    0.7810 C   0  0  0  0  0  0  0  0  0  0  0  0
    1.5987   -0.1880    1.9734 C   0  0  0  0  0  0  0  0  0  0  0  0
   -1.4483    0.9449    1.7152 S   0  0  0  0  0  0  0  0  0  0  0  0
   -1.9164   -0.4696   -0.7936 H   0  0  0  0  0  0  0  0  0  0  0  0
   -1.2565    1.0958   -1.2506 H   0  0  0  0  0  0  0  0  0  0  0  0
   -0.3088   -0.3780   -1.5170 H   0  0  0  0  0  0  0  0  0  0  0  0
    1.4783   -0.4898   -0.0971 H   0  0  0  0  0  0  0  0  0  0  0  0
    2.6278   -0.5153    2.0142 H   0  0  0  0  0  0  0  0  0  0  0  0
    1.1316    0.0690    2.9151 H   0  0  0  0  0  0  0  0  0  0  0  0
   -0.5306    1.3052    2.6211 H   0  0  0  0  0  0  0  0  0  0  0  0
  1  2  1  0
  1  6  1  0
  1  7  1  0
  1  8  1  0
  2  3  1  0
  2  5  1  0
  3  4  2  3
  3  9  1  0
  4 10  1  0
  4 11  1  0
  5 12  1  0
M  RAD  1   2   2
M  END
>  <reaction>  (2) 
rxn_1818

>  <mol_properties>  (2) 
{"1": {"label": "acceptor", "atom_type": "Cs"}}

>  <type>  (2) 
r2

$$$$

     RDKit          3D

 13 12  0  0  0  0  0  0  0  0999 V2000
   -1.1828    0.8269   -0.1645 C   0  0  0  0  0  0  0  0  0  0  0  0
   -0.4827   -0.4584   -0.5736 C   0  0  1  0  0  0  0  0  0  0  0  0
   -0.9759   -1.7030    0.1030 C   0  0  0  0  0  0  0  0  0  0  0  0
   -2.0084   -1.7831    0.9287 C   0  0  0  0  0  0  0  0  0  0  0  0
   -0.4908   -0.7025   -2.3913 S   0  0  0  0  0  0  0  0  0  0  0  0
   -1.0941    0.9860    0.9125 H   0  0  0  0  0  0  0  0  0  0  0  0
   -0.7405    1.6784   -0.6793 H   0  0  0  0  0  0  0  0  0  0  0  0
   -2.2437    0.7943   -0.4195 H   0  0  0  0  0  0  0  0  0  0  0  0
    0.5870   -0.3637   -0.3637 H   0  0  0  0  0  0  0  0  0  0  0  0
   -0.4209   -2.6026   -0.1443 H   0  0  0  0  0  0  0  0  0  0  0  0
   -2.2982   -2.7315    1.3623 H   0  0  0  0  0  0  0  0  0  0  0  0
   -2.5999   -0.9190    1.2055 H   0  0  0  0  0  0  0  0  0  0  0  0
   -1.8040   -0.9489   -2.4971 H   0  0  0  0  0  0  0  0  0  0  0  0
  1  2  1  0
  1  6  1  0
  1  7  1  0
  1  8  1  0
  2  3  1  0
  2  5  1  0
  2  9  1  1
  3  4  2  3
  3 10  1  0
  4 11  1  0
  4 12  1  0
  5 13  1  0
M  END
>  <reaction>  (3) 
rxn_1818

>  <mol_properties>  (3) 
{"1": {"label": "acceptor", "atom_type": "Cs"}, "12": {"label": "a_hydrogen", "atom_type": "H0"}}

>  <type>  (3) 
r2h

$$$$

     RDKit          3D

 19 17  0  0  0  0  0  0  0  0999 V2000
   -1.3510    0.6918    1.4508 C   0  0  0  0  0  0  0  0  0  0  0  0
   -0.2196   -0.0489    0.7762 C   0  0  1  0  0  0  0  0  0  0  0  0
    0.9150   -0.4755    1.6198 C   0  0  0  0  0  0  0  0  0  0  0  0
    1.0963   -0.1579    2.8968 C   0  0  0  0  0  0  0  0  0  0  0  0
   -0.8655   -1.3102   -0.3219 S   0  0  0  0  0  0  0  0  0  0  0  0
   -1.8456    0.0680    2.1996 H   0  0  0  0  0  0  0  0  0  0  0  0
   -0.9700    1.5851    1.9479 H   0  0  0  0  0  0  0  0  0  0  0  0
   -2.0926    1.0081    0.7170 H   0  0  0  0  0  0  0  0  0  0  0  0
    1.6743   -1.0661    1.1153 H   0  0  0  0  0  0  0  0  0  0  0  0
    1.9807   -0.4844    3.4282 H   0  0  0  0  0  0  0  0  0  0  0  0
    0.3751    0.4236    3.4576 H   0  0  0  0  0  0  0  0  0  0  0  0
    0.3149   -1.7710   -0.7573 H   0  0  0  0  0  0  0  0  0  0  0  0
    0.7930    1.7792   -0.9094 C   0  0  0  0  0  0  0  0  0  0  0  0
    0.6323    1.4859   -2.1303 C   0  0  0  0  0  0  0  0  0  0  0  0
    0.4114    1.0819   -3.3689 C   0  0  0  0  0  3  0  0  0  0  0  0
    0.2878    0.8113   -0.0270 H   0  0  0  0  0  0  0  0  0  0  0  0
    1.2374    2.5989   -0.3705 H   0  0  0  0  0  0  0  0  0  0  0  0
   -0.4993    1.3528   -3.8874 H   0  0  0  0  0  0  0  0  0  0  0  0
    1.1437    0.4864   -3.8992 H   0  0  0  0  0  0  0  0  0  0  0  0
  1  2  1  0
  1  6  1  0
  1  7  1  0
  1  8  1  0
  2  3  1  0
  2  5  1  0
  2 16  1  6
  3  4  2  3
  3  9  1  0
  4 10  1  0
  4 11  1  0
  5 12  1  0
 13 14  3  0
 13 17  1  0
 14 15  1  0
 15 18  1  0
 15 19  1  0
M  RAD  1  15   2
M  END
>  <reaction>  (4) 
rxn_1818

>  <mol_properties>  (4) 
{"1": {"label": "*1", "atom_type": "Cs"}, "4": {"label": "*0", "atom_type": "S2s"}, "12": {"label": "*3", "atom_type": "Ct"}, "13": {"label": "*4", "atom_type": "Ct"}, "15": {"label": "*2", "atom_type": "H0"}}

>  <type>  (4) 
ts

$$$$

     RDKit          3D

 19 17  0  0  0  0  0  0  0  0999 V2000
    0.8423   -1.4172    1.4198 C   0  0  0  0  0  0  0  0  0  0  0  0
   -0.1252   -0.6329    0.5491 C   0  0  0  0  0  3  0  0  0  0  0  0
   -1.4408   -1.3029    0.2845 C   0  0  0  0  0  0  0  0  0  0  0  0
   -1.8536   -2.4443    0.8149 C   0  0  0  0  0  0  0  0  0  0  0  0
   -0.4159    1.0608    1.1901 S   0  0  0  0  0  0  0  0  0  0  0  0
    0.4285   -1.5820    2.4163 H   0  0  0  0  0  0  0  0  0  0  0  0
    1.0578   -2.3905    0.9731 H   0  0  0  0  0  0  0  0  0  0  0  0
    1.7778   -0.8713    1.5316 H   0  0  0  0  0  0  0  0  0  0  0  0
   -2.0937   -0.7651   -0.3958 H   0  0  0  0  0  0  0  0  0  0  0  0
   -2.8285   -2.8470    0.5720 H   0  0  0  0  0  0  0  0  0  0  0  0
   -1.2458   -3.0191    1.5028 H   0  0  0  0  0  0  0  0  0  0  0  0
   -1.1139    0.6870    2.2716 H   0  0  0  0  0  0  0  0  0  0  0  0
    1.2087    1.1659   -0.7978 C   0  0  0  0  0  0  0  0  0  0  0  0
    1.2087    1.1659   -2.0965 C   0  0  0  0  0  0  0  0  0  0  0  0
    1.2087    1.1659   -3.3951 C   0  0  0  0  0  0  0  0  0  0  0  0
    0.5451    0.2710   -0.1277 H   0  0  0  0  0  0  0  0  0  0  0  0
    1.7617    1.9117   -0.2394 H   0  0  0  0  0  0  0  0  0  0  0  0
    0.4629    1.7189   -3.9535 H   0  0  0  0  0  0  0  0  0  0  0  0
    1.9545    0.6129   -3.9535 H   0  0  0  0  0  0  0  0  0  0  0  0
  1  2  1  0
  1  6  1  0
  1  7  1  0
  1  8  1  0
  2  3  1  0
  2  5  1  0
  3  4  2  3
  3  9  1  0
  4 10  1  0
  4 11  1  0
  5 12  1  0
 13 14  2  0
 13 16  1  0
 13 17  1  0
 14 15  2  0
 15 18  1  0
 15 19  1  0
M  RAD  1   2   2
M  END
>  <reaction>  (5) 
rxn_1818

>  <mol_properties>  (5) 
{"1": {"label": "*1", "atom_type": "Cs"}, "4": {"label": "*0", "atom_type": "S2s"}, "12": {"label": "*3", "atom_type": "Ct"}, "13": {"label": "*4", "atom_type": "Ct"}, "15": {"label": "*2", "atom_type": "H0"}}

>  <type>  (5) 
unop_1

>  <geom_source>  (5) 
Heuristics

$$$$

     RDKit          3D

 19 17  0  0  0  0  0  0  0  0999 V2000
   -0.4331   -1.6836   -0.3556 C   0  0  0  0  0  0  0  0  0  0  0  0
   -0.3756   -0.3998    0.4557 C   0  0  0  0  0  3  0  0  0  0  0  0
   -1.6400   -0.0371    1.1765 C   0  0  0  0  0  0  0  0  0  0  0  0
   -2.7379   -0.7751    1.2418 C   0  0  0  0  0  0  0  0  0  0  0  0
    1.0290   -0.3889    1.6351 S   0  0  0  0  0  0  0  0  0  0  0  0
   -0.6238   -2.5455    0.2865 H   0  0  0  0  0  0  0  0  0  0  0  0
   -1.2286   -1.6300   -1.1024 H   0  0  0  0  0  0  0  0  0  0  0  0
    0.5135   -1.8498   -0.8673 H   0  0  0  0  0  0  0  0  0  0  0  0
   -1.6083    0.9169    1.6935 H   0  0  0  0  0  0  0  0  0  0  0  0
   -3.6018   -0.4343    1.7976 H   0  0  0  0  0  0  0  0  0  0  0  0
   -2.8223   -1.7364    0.7499 H   0  0  0  0  0  0  0  0  0  0  0  0
    0.5323   -1.3227    2.4583 H   0  0  0  0  0  0  0  0  0  0  0  0
    0.9583    1.3989   -0.8912 C   0  0  0  0  0  0  0  0  0  0  0  0
    0.9583    1.3989   -2.1899 C   0  0  0  0  0  0  0  0  0  0  0  0
    0.9583    1.3989   -3.4886 C   0  0  0  0  0  0  0  0  0  0  0  0
    0.2946    0.5040   -0.2211 H   0  0  0  0  0  0  0  0  0  0  0  0
    1.5113    2.1447   -0.3328 H   0  0  0  0  0  0  0  0  0  0  0  0
    0.2125    1.9519   -4.0470 H   0  0  0  0  0  0  0  0  0  0  0  0
    1.7040    0.8459   -4.0470 H   0  0  0  0  0  0  0  0  0  0  0  0
  1  2  1  0
  1  6  1  0
  1  7  1  0
  1  8  1  0
  2  3  1  0
  2  5  1  0
  3  4  2  3
  3  9  1  0
  4 10  1  0
  4 11  1  0
  5 12  1  0
 13 14  2  0
 13 16  1  0
 13 17  1  0
 14 15  2  0
 15 18  1  0
 15 19  1  0
M  RAD  1   2   2
M  END
>  <reaction>  (6) 
rxn_1818

>  <mol_properties>  (6) 
{"1": {"label": "*1", "atom_type": "Cs"}, "4": {"label": "*0", "atom_type": "S2s"}, "12": {"label": "*3", "atom_type": "Ct"}, "13": {"label": "*4", "atom_type": "Ct"}, "15": {"label": "*2", "atom_type": "H0"}}

>  <type>  (6) 
unop_2

>  <geom_source>  (6) 
Heuristics

$$$$

     RDKit          3D

 19 17  0  0  0  0  0  0  0  0999 V2000
    0.6771   -0.7717    2.0231 C   0  0  0  0  0  0  0  0  0  0  0  0
   -0.0294   -0.5183    0.7017 C   0  0  0  0  0  3  0  0  0  0  0  0
   -0.7637   -1.6942    0.1290 C   0  0  0  0  0  0  0  0  0  0  0  0
   -0.9246   -2.8715    0.7140 C   0  0  0  0  0  0  0  0  0  0  0  0
   -1.1544    0.9279    0.7847 S   0  0  0  0  0  0  0  0  0  0  0  0
   -0.0363   -1.0395    2.8046 H   0  0  0  0  0  0  0  0  0  0  0  0
    1.3975   -1.5867    1.9228 H   0  0  0  0  0  0  0  0  0  0  0  0
    1.2073    0.1231    2.3457 H   0  0  0  0  0  0  0  0  0  0  0  0
   -1.2035   -1.5207   -0.8482 H   0  0  0  0  0  0  0  0  0  0  0  0
   -1.4822   -3.6605    0.2261 H   0  0  0  0  0  0  0  0  0  0  0  0
   -0.5122   -3.0971    1.6897 H   0  0  0  0  0  0  0  0  0  0  0  0
   -2.0646    0.3558    1.5850 H   0  0  0  0  0  0  0  0  0  0  0  0
    1.3045    1.2805   -0.6452 C   0  0  0  0  0  0  0  0  0  0  0  0
    1.3045    1.2805   -1.9438 C   0  0  0  0  0  0  0  0  0  0  0  0
    1.3045    1.2805   -3.2425 C   0  0  0  0  0  0  0  0  0  0  0  0
    0.6409    0.3856    0.0249 H   0  0  0  0  0  0  0  0  0  0  0  0
    1.8575    2.0262   -0.0868 H   0  0  0  0  0  0  0  0  0  0  0  0
    0.5587    1.8335   -3.8009 H   0  0  0  0  0  0  0  0  0  0  0  0
    2.0503    0.7275   -3.8009 H   0  0  0  0  0  0  0  0  0  0  0  0
  1  2  1  0
  1  6  1  0
  1  7  1  0
  1  8  1  0
  2  3  1  0
  2  5  1  0
  3  4  2  3
  3  9  1  0
  4 10  1  0
  4 11  1  0
  5 12  1  0
 13 14  2  0
 13 16  1  0
 13 17  1  0
 14 15  2  0
 15 18  1  0
 15 19  1  0
M  RAD  1   2   2
M  END
>  <reaction>  (7) 
rxn_1818

>  <mol_properties>  (7) 
{"1": {"label": "*1", "atom_type": "Cs"}, "4": {"label": "*0", "atom_type": "S2s"}, "12": {"label": "*3", "atom_type": "Ct"}, "13": {"label": "*4", "atom_type": "Ct"}, "15": {"label": "*2", "atom_type": "H0"}}

>  <type>  (7) 
unop_3

>  <geom_source>  (7) 
Heuristics

$$$$

     RDKit          3D

 19 17  0  0  0  0  0  0  0  0999 V2000
   -1.8499   -0.2895    0.0981 C   0  0  0  0  0  0  0  0  0  0  0  0
   -0.3772   -0.3927    0.4587 C   0  0  0  0  0  3  0  0  0  0  0  0
    0.0631    0.4558    1.6147 C   0  0  0  0  0  0  0  0  0  0  0  0
   -0.7248    1.1892    2.3865 C   0  0  0  0  0  0  0  0  0  0  0  0
    0.1477   -2.1282    0.7351 S   0  0  0  0  0  0  0  0  0  0  0  0
   -2.4805   -0.6254    0.9234 H   0  0  0  0  0  0  0  0  0  0  0  0
   -2.1156    0.7435   -0.1376 H   0  0  0  0  0  0  0  0  0  0  0  0
   -2.0714   -0.9117   -0.7676 H   0  0  0  0  0  0  0  0  0  0  0  0
    1.1293    0.4275    1.8164 H   0  0  0  0  0  0  0  0  0  0  0  0
   -0.3163    1.7630    3.2083 H   0  0  0  0  0  0  0  0  0  0  0  0
   -1.7954    1.2498    2.2337 H   0  0  0  0  0  0  0  0  0  0  0  0
   -0.5250   -2.3006    1.8815 H   0  0  0  0  0  0  0  0  0  0  0  0
    0.9566    1.4061   -0.8882 C   0  0  0  0  0  0  0  0  0  0  0  0
    0.9566    1.4061   -2.1868 C   0  0  0  0  0  0  0  0  0  0  0  0
    0.9566    1.4061   -3.4855 C   0  0  0  0  0  0  0  0  0  0  0  0
    0.2930    0.5112   -0.2181 H   0  0  0  0  0  0  0  0  0  0  0  0
    1.5096    2.1519   -0.3298 H   0  0  0  0  0  0  0  0  0  0  0  0
    0.2109    1.9591   -4.0439 H   0  0  0  0  0  0  0  0  0  0  0  0
    1.7024    0.8531   -4.0439 H   0  0  0  0  0  0  0  0  0  0  0  0
  1  2  1  0
  1  6  1  0
  1  7  1  0
  1  8  1  0
  2  3  1  0
  2  5  1  0
  3  4  2  3
  3  9  1  0
  4 10  1  0
  4 11  1  0
  5 12  1  0
 13 14  2  0
 13 16  1  0
 13 17  1  0
 14 15  2  0
 15 18  1  0
 15 19  1  0
M  RAD  1   2   2
M  END
>  <reaction>  (8) 
rxn_1818

>  <mol_properties>  (8) 
{"1": {"label": "*1", "atom_type": "Cs"}, "4": {"label": "*0", "atom_type": "S2s"}, "12": {"label": "*3", "atom_type": "Ct"}, "13": {"label": "*4", "atom_type": "Ct"}, "15": {"label": "*2", "atom_type": "H0"}}

>  <type>  (8) 
unop_4

>  <geom_source>  (8) 
Heuristics

$$$$

     RDKit          3D

 19 17  0  0  0  0  0  0  0  0999 V2000
    0.0546   -0.0125    2.2926 C   0  0  0  0  0  0  0  0  0  0  0  0
   -0.1339   -0.2667    0.8063 C   0  0  0  0  0  3  0  0  0  0  0  0
    0.3017   -1.6188    0.3245 C   0  0  0  0  0  0  0  0  0  0  0  0
    0.7314   -2.6147    1.0846 C   0  0  0  0  0  0  0  0  0  0  0  0
   -1.8558    0.0542    0.2622 S   0  0  0  0  0  0  0  0  0  0  0  0
   -0.5416   -0.7062    2.8882 H   0  0  0  0  0  0  0  0  0  0  0  0
    1.1034   -0.1345    2.5726 H   0  0  0  0  0  0  0  0  0  0  0  0
   -0.2572    0.9997    2.5453 H   0  0  0  0  0  0  0  0  0  0  0  0
    0.2282   -1.7619   -0.7491 H   0  0  0  0  0  0  0  0  0  0  0  0
    1.0150   -3.5630    0.6466 H   0  0  0  0  0  0  0  0  0  0  0  0
    0.8194   -2.5286    2.1607 H   0  0  0  0  0  0  0  0  0  0  0  0
   -2.4023   -0.9976    0.8879 H   0  0  0  0  0  0  0  0  0  0  0  0
    1.1999    1.5320   -0.5406 C   0  0  0  0  0  0  0  0  0  0  0  0
    1.1999    1.5320   -1.8393 C   0  0  0  0  0  0  0  0  0  0  0  0
    1.1999    1.5320   -3.1380 C   0  0  0  0  0  0  0  0  0  0  0  0
    0.5363    0.6371    0.1295 H   0  0  0  0  0  0  0  0  0  0  0  0
    1.7530    2.2778    0.0178 H   0  0  0  0  0  0  0  0  0  0  0  0
    0.4542    2.0851   -3.6964 H   0  0  0  0  0  0  0  0  0  0  0  0
    1.9457    0.9790   -3.6964 H   0  0  0  0  0  0  0  0  0  0  0  0
  1  2  1  0
  1  6  1  0
  1  7  1  0
  1  8  1  0
  2  3  1  0
  2  5  1  0
  3  4  2  3
  3  9  1  0
  4 10  1  0
  4 11  1  0
  5 12  1  0
 13 14  2  0
 13 16  1  0
 13 17  1  0
 14 15  2  0
 15 18  1  0
 15 19  1  0
M  RAD  1   2   2
M  END
>  <reaction>  (9) 
rxn_1818

>  <mol_properties>  (9) 
{"1": {"label": "*1", "atom_type": "Cs"}, "4": {"label": "*0", "atom_type": "S2s"}, "12": {"label": "*3", "atom_type": "Ct"}, "13": {"label": "*4", "atom_type": "Ct"}, "15": {"label": "*2", "atom_type": "H0"}}

>  <type>  (9) 
unop_5

>  <geom_source>  (9) 
Heuristics

$$$$

     RDKit          3D

 19 17  0  0  0  0  0  0  0  0999 V2000
   -1.8702    0.1755    0.7434 C   0  0  0  0  0  0  0  0  0  0  0  0
   -0.4635   -0.3397    0.4884 C   0  0  0  0  0  3  0  0  0  0  0  0
    0.5829    0.1449    1.4476 C   0  0  0  0  0  0  0  0  0  0  0  0
    0.3682    0.8834    2.5259 C   0  0  0  0  0  0  0  0  0  0  0  0
   -0.4045   -2.1701    0.3876 S   0  0  0  0  0  0  0  0  0  0  0  0
   -2.2376   -0.1522    1.7177 H   0  0  0  0  0  0  0  0  0  0  0  0
   -1.8889    1.2675    0.7198 H   0  0  0  0  0  0  0  0  0  0  0  0
   -2.5538   -0.2004   -0.0163 H   0  0  0  0  0  0  0  0  0  0  0  0
    1.5940   -0.1728    1.2126 H   0  0  0  0  0  0  0  0  0  0  0  0
    1.1885    1.1773    3.1680 H   0  0  0  0  0  0  0  0  0  0  0  0
   -0.6200    1.2235    2.8103 H   0  0  0  0  0  0  0  0  0  0  0  0
   -0.6484   -2.3932    1.6866 H   0  0  0  0  0  0  0  0  0  0  0  0
    0.8704    1.4591   -0.8585 C   0  0  0  0  0  0  0  0  0  0  0  0
    0.8704    1.4591   -2.1572 C   0  0  0  0  0  0  0  0  0  0  0  0
    0.8704    1.4591   -3.4559 C   0  0  0  0  0  0  0  0  0  0  0  0
    0.2068    0.5641   -0.1884 H   0  0  0  0  0  0  0  0  0  0  0  0
    1.4234    2.2048   -0.3001 H   0  0  0  0  0  0  0  0  0  0  0  0
    0.1246    2.0121   -4.0143 H   0  0  0  0  0  0  0  0  0  0  0  0
    1.6161    0.9061   -4.0143 H   0  0  0  0  0  0  0  0  0  0  0  0
  1  2  1  0
  1  6  1  0
  1  7  1  0
  1  8  1  0
  2  3  1  0
  2  5  1  0
  3  4  2  3
  3  9  1  0
  4 10  1  0
  4 11  1  0
  5 12  1  0
 13 14  2  0
 13 16  1  0
 13 17  1  0
 14 15  2  0
 15 18  1  0
 15 19  1  0
M  RAD  1   2   2
M  END
>  <reaction>  (10) 
rxn_1818

>  <mol_properties>  (10) 
{"1": {"label": "*1", "atom_type": "Cs"}, "4": {"label": "*0", "atom_type": "S2s"}, "12": {"label": "*3", "atom_type": "Ct"}, "13": {"label": "*4", "atom_type": "Ct"}, "15": {"label": "*2", "atom_type": "H0"}}

>  <type>  (10) 
unop_6

>  <geom_source>  (10) 
Heuristics

$$$$

     RDKit          3D

 19 17  0  0  0  0  0  0  0  0999 V2000
   -1.5277    0.4562    1.4569 C   0  0  0  0  0  0  0  0  0  0  0  0
   -0.4962   -0.2418    0.5862 C   0  0  0  0  0  3  0  0  0  0  0  0
    0.8901   -0.3041    1.1556 C   0  0  0  0  0  0  0  0  0  0  0  0
    1.2544    0.0995    2.3634 C   0  0  0  0  0  0  0  0  0  0  0  0
   -1.0332   -1.9240    0.0906 S   0  0  0  0  0  0  0  0  0  0  0  0
   -1.6588   -0.0668    2.4059 H   0  0  0  0  0  0  0  0  0  0  0  0
   -1.2183    1.4818    1.6708 H   0  0  0  0  0  0  0  0  0  0  0  0
   -2.4924    0.4822    0.9525 H   0  0  0  0  0  0  0  0  0  0  0  0
    1.6317   -0.7411    0.4942 H   0  0  0  0  0  0  0  0  0  0  0  0
    2.2810    0.0043    2.6927 H   0  0  0  0  0  0  0  0  0  0  0  0
    0.5554    0.5376    3.0653 H   0  0  0  0  0  0  0  0  0  0  0  0
   -0.9211   -2.4746    1.3075 H   0  0  0  0  0  0  0  0  0  0  0  0
    0.8377    1.5570   -0.7607 C   0  0  0  0  0  0  0  0  0  0  0  0
    0.8377    1.5570   -2.0594 C   0  0  0  0  0  0  0  0  0  0  0  0
    0.8377    1.5570   -3.3581 C   0  0  0  0  0  0  0  0  0  0  0  0
    0.1741    0.6621   -0.0906 H   0  0  0  0  0  0  0  0  0  0  0  0
    1.3907    2.3028   -0.2023 H   0  0  0  0  0  0  0  0  0  0  0  0
    0.0919    2.1100   -3.9165 H   0  0  0  0  0  0  0  0  0  0  0  0
    1.5835    1.0040   -3.9165 H   0  0  0  0  0  0  0  0  0  0  0  0
  1  2  1  0
  1  6  1  0
  1  7  1  0
  1  8  1  0
  2  3  1  0
  2  5  1  0
  3  4  2  3
  3  9  1  0
  4 10  1  0
  4 11  1  0
  5 12  1  0
 13 14  2  0
 13 16  1  0
 13 17  1  0
 14 15  2  0
 15 18  1  0
 15 19  1  0
M  RAD  1   2   2
M  END
>  <reaction>  (11) 
rxn_1818

>  <mol_properties>  (11) 
{"1": {"label": "*1", "atom_type": "Cs"}, "4": {"label": "*0", "atom_type": "S2s"}, "12": {"label": "*3", "atom_type": "Ct"}, "13": {"label": "*4", "atom_type": "Ct"}, "15": {"label": "*2", "atom_type": "H0"}}

>  <type>  (11) 
unop_7

>  <geom_source>  (11) 
Heuristics

$$$$

     RDKit          3D

 19 17  0  0  0  0  0  0  0  0999 V2000
    0.6387   -1.8011    0.7063 C   0  0  0  0  0  0  0  0  0  0  0  0
   -0.2629   -0.6047    0.4512 C   0  0  0  0  0  3  0  0  0  0  0  0
   -1.7341   -0.8697    0.5748 C   0  0  0  0  0  0  0  0  0  0  0  0
   -2.2898   -2.0037    0.9743 C   0  0  0  0  0  0  0  0  0  0  0  0
    0.1911    0.8377    1.4893 S   0  0  0  0  0  0  0  0  0  0  0  0
    0.5246   -2.1678    1.7281 H   0  0  0  0  0  0  0  0  0  0  0  0
    0.3970   -2.6165    0.0207 H   0  0  0  0  0  0  0  0  0  0  0  0
    1.6823   -1.5249    0.5639 H   0  0  0  0  0  0  0  0  0  0  0  0
   -2.3687   -0.0264    0.3208 H   0  0  0  0  0  0  0  0  0  0  0  0
   -3.3658   -2.0988    1.0431 H   0  0  0  0  0  0  0  0  0  0  0  0
   -1.7048   -2.8742    1.2447 H   0  0  0  0  0  0  0  0  0  0  0  0
   -0.2163    0.3111    2.6526 H   0  0  0  0  0  0  0  0  0  0  0  0
    1.0710    1.1941   -0.8957 C   0  0  0  0  0  0  0  0  0  0  0  0
    1.0710    1.1941   -2.1943 C   0  0  0  0  0  0  0  0  0  0  0  0
    1.0710    1.1941   -3.4930 C   0  0  0  0  0  0  0  0  0  0  0  0
    0.4073    0.2992   -0.2256 H   0  0  0  0  0  0  0  0  0  0  0  0
    1.6240    1.9399   -0.3372 H   0  0  0  0  0  0  0  0  0  0  0  0
    0.3252    1.7471   -4.0514 H   0  0  0  0  0  0  0  0  0  0  0  0
    1.8167    0.6411   -4.0514 H   0  0  0  0  0  0  0  0  0  0  0  0
  1  2  1  0
  1  6  1  0
  1  7  1  0
  1  8  1  0
  2  3  1  0
  2  5  1  0
  3  4  2  3
  3  9  1  0
  4 10  1  0
  4 11  1  0
  5 12  1  0
 13 14  2  0
 13 16  1  0
 13 17  1  0
 14 15  2  0
 15 18  1  0
 15 19  1  0
M  RAD  1   2   2
M  END
>  <reaction>  (12) 
rxn_1818

>  <mol_properties>  (12) 
{"1": {"label": "*1", "atom_type": "Cs"}, "4": {"label": "*0", "atom_type": "S2s"}, "12": {"label": "*3", "atom_type": "Ct"}, "13": {"label": "*4", "atom_type": "Ct"}, "15": {"label": "*2", "atom_type": "H0"}}

>  <type>  (12) 
unop_8

>  <geom_source>  (12) 
Heuristics

$$$$

     RDKit          3D

 19 17  0  0  0  0  0  0  0  0999 V2000
   -1.5296   -0.8127   -0.3371 C   0  0  0  0  0  0  0  0  0  0  0  0
   -0.3179   -0.3849    0.4741 C   0  0  0  0  0  3  0  0  0  0  0  0
   -0.6026    0.5521    1.6104 C   0  0  0  0  0  0  0  0  0  0  0  0
   -1.8015    0.9455    2.0131 C   0  0  0  0  0  0  0  0  0  0  0  0
    0.6461   -1.8196    1.0874 S   0  0  0  0  0  0  0  0  0  0  0  0
   -2.2421   -1.3617    0.2813 H   0  0  0  0  0  0  0  0  0  0  0  0
   -2.0387    0.0588   -0.7548 H   0  0  0  0  0  0  0  0  0  0  0  0
   -1.2256   -1.4633   -1.1558 H   0  0  0  0  0  0  0  0  0  0  0  0
    0.2784    0.9058    2.1367 H   0  0  0  0  0  0  0  0  0  0  0  0
   -1.9099    1.6184    2.8539 H   0  0  0  0  0  0  0  0  0  0  0  0
   -2.7136    0.6197    1.5281 H   0  0  0  0  0  0  0  0  0  0  0  0
   -0.2654   -2.2347    1.9781 H   0  0  0  0  0  0  0  0  0  0  0  0
    1.0160    1.4139   -0.8728 C   0  0  0  0  0  0  0  0  0  0  0  0
    1.0160    1.4139   -2.1715 C   0  0  0  0  0  0  0  0  0  0  0  0
    1.0160    1.4139   -3.4701 C   0  0  0  0  0  0  0  0  0  0  0  0
    0.3523    0.5190   -0.2027 H   0  0  0  0  0  0  0  0  0  0  0  0
    1.5690    2.1597   -0.3144 H   0  0  0  0  0  0  0  0  0  0  0  0
    0.2702    1.9669   -4.0285 H   0  0  0  0  0  0  0  0  0  0  0  0
    1.7617    0.8609   -4.0285 H   0  0  0  0  0  0  0  0  0  0  0  0
  1  2  1  0
  1  6  1  0
  1  7  1  0
  1  8  1  0
  2  3  1  0
  2  5  1  0
  3  4  2  3
  3  9  1  0
  4 10  1  0
  4 11  1  0
  5 12  1  0
 13 14  2  0
 13 16  1  0
 13 17  1  0
 14 15  2  0
 15 18  1  0
 15 19  1  0
M  RAD  1   2   2
M  END
>  <reaction>  (13) 
rxn_1818

>  <mol_properties>  (13) 
{"1": {"label": "*1", "atom_type": "Cs"}, "4": {"label": "*0", "atom_type": "S2s"}, "12": {"label": "*3", "atom_type": "Ct"}, "13": {"label": "*4", "atom_type": "Ct"}, "15": {"label": "*2", "atom_type": "H0"}}

>  <type>  (13) 
unop_9

>  <geom_source>  (13) 
Heuristics

$$$$

     RDKit          3D

 19 17  0  0  0  0  0  0  0  0999 V2000
    0.1664   -1.8819    0.0671 C   0  0  0  0  0  0  0  0  0  0  0  0
   -0.3600   -0.5027    0.4277 C   0  0  0  0  0  3  0  0  0  0  0  0
   -1.7881   -0.4582    0.8843 C   0  0  0  0  0  0  0  0  0  0  0  0
   -2.5731   -1.5054    1.0881 C   0  0  0  0  0  0  0  0  0  0  0  0
    0.7051    0.3449    1.6570 S   0  0  0  0  0  0  0  0  0  0  0  0
    0.1483   -2.5475    0.9321 H   0  0  0  0  0  0  0  0  0  0  0  0
   -0.4410   -2.3299   -0.7226 H   0  0  0  0  0  0  0  0  0  0  0  0
    1.1956   -1.8141   -0.2821 H   0  0  0  0  0  0  0  0  0  0  0  0
   -2.1727    0.5397    1.0703 H   0  0  0  0  0  0  0  0  0  0  0  0
   -3.5917   -1.3755    1.4302 H   0  0  0  0  0  0  0  0  0  0  0  0
   -2.2396   -2.5227    0.9236 H   0  0  0  0  0  0  0  0  0  0  0  0
    0.3925   -0.4501    2.6899 H   0  0  0  0  0  0  0  0  0  0  0  0
    0.9739    1.2961   -0.9192 C   0  0  0  0  0  0  0  0  0  0  0  0
    0.9739    1.2961   -2.2179 C   0  0  0  0  0  0  0  0  0  0  0  0
    0.9739    1.2961   -3.5166 C   0  0  0  0  0  0  0  0  0  0  0  0
    0.3103    0.4012   -0.2491 H   0  0  0  0  0  0  0  0  0  0  0  0
    1.5269    2.0418   -0.3608 H   0  0  0  0  0  0  0  0  0  0  0  0
    0.2281    1.8491   -4.0750 H   0  0  0  0  0  0  0  0  0  0  0  0
    1.7196    0.7431   -4.0750 H   0  0  0  0  0  0  0  0  0  0  0  0
  1  2  1  0
  1  6  1  0
  1  7  1  0
  1  8  1  0
  2  3  1  0
  2  5  1  0
  3  4  2  3
  3  9  1  0
  4 10  1  0
  4 11  1  0
  5 12  1  0
 13 14  2  0
 13 16  1  0
 13 17  1  0
 14 15  2  0
 15 18  1  0
 15 19  1  0
M  RAD  1   2   2
M  END
>  <reaction>  (14) 
rxn_1818

>  <mol_properties>  (14) 
{"1": {"label": "*1", "atom_type": "Cs"}, "4": {"label": "*0", "atom_type": "S2s"}, "12": {"label": "*3", "atom_type": "Ct"}, "13": {"label": "*4", "atom_type": "Ct"}, "15": {"label": "*2", "atom_type": "H0"}}

>  <type>  (14) 
unop_10

>  <geom_source>  (14) 
Heuristics

$$$$

     RDKit          3D

 19 17  0  0  0  0  0  0  0  0999 V2000
   -0.8370    0.4367    2.0505 C   0  0  0  0  0  0  0  0  0  0  0  0
   -0.3894   -0.1657    0.7291 C   0  0  0  0  0  3  0  0  0  0  0  0
    0.9067   -0.9196    0.7719 C   0  0  0  0  0  0  0  0  0  0  0  0
    1.6203   -1.1798    1.8570 C   0  0  0  0  0  0  0  0  0  0  0  0
   -1.6877   -1.2178   -0.0269 S   0  0  0  0  0  0  0  0  0  0  0  0
   -1.0118   -0.3403    2.7969 H   0  0  0  0  0  0  0  0  0  0  0  0
   -0.0771    1.1192    2.4378 H   0  0  0  0  0  0  0  0  0  0  0  0
   -1.7658    0.9894    1.9183 H   0  0  0  0  0  0  0  0  0  0  0  0
    1.2505   -1.2835   -0.1913 H   0  0  0  0  0  0  0  0  0  0  0  0
    2.5421   -1.7433    1.7915 H   0  0  0  0  0  0  0  0  0  0  0  0
    1.3217   -0.8457    2.8431 H   0  0  0  0  0  0  0  0  0  0  0  0
   -1.6123   -2.2079    0.8734 H   0  0  0  0  0  0  0  0  0  0  0  0
    0.9445    1.6330   -0.6178 C   0  0  0  0  0  0  0  0  0  0  0  0
    0.9445    1.6330   -1.9165 C   0  0  0  0  0  0  0  0  0  0  0  0
    0.9445    1.6330   -3.2152 C   0  0  0  0  0  0  0  0  0  0  0  0
    0.2809    0.7381    0.0523 H   0  0  0  0  0  0  0  0  0  0  0  0
    1.4975    2.3788   -0.0594 H   0  0  0  0  0  0  0  0  0  0  0  0
    0.1987    2.1860   -3.7736 H   0  0  0  0  0  0  0  0  0  0  0  0
    1.6903    1.0800   -3.7736 H   0  0  0  0  0  0  0  0  0  0  0  0
  1  2  1  0
  1  6  1  0
  1  7  1  0
  1  8  1  0
  2  3  1  0
  2  5  1  0
  3  4  2  3
  3  9  1  0
  4 10  1  0
  4 11  1  0
  5 12  1  0
 13 14  2  0
 13 16  1  0
 13 17  1  0
 14 15  2  0
 15 18  1  0
 15 19  1  0
M  RAD  1   2   2
M  END
>  <reaction>  (15) 
rxn_1818

>  <mol_properties>  (15) 
{"1": {"label": "*1", "atom_type": "Cs"}, "4": {"label": "*0", "atom_type": "S2s"}, "12": {"label": "*3", "atom_type": "Ct"}, "13": {"label": "*4", "atom_type": "Ct"}, "15": {"label": "*2", "atom_type": "H0"}}

>  <type>  (15) 
unop_11

>  <geom_source>  (15) 
Heuristics

$$$$

     RDKit          3D

 19 17  0  0  0  0  0  0  0  0999 V2000
   -1.0259   -1.2974   -0.4935 C   0  0  0  0  0  0  0  0  0  0  0  0
   -0.3322   -0.3619    0.4828 C   0  0  0  0  0  3  0  0  0  0  0  0
   -1.2375    0.3569    1.4387 C   0  0  0  0  0  0  0  0  0  0  0  0
   -2.5430    0.1717    1.5631 C   0  0  0  0  0  0  0  0  0  0  0  0
    1.0042   -1.2027    1.4160 S   0  0  0  0  0  0  0  0  0  0  0  0
   -1.5412   -2.1027    0.0333 H   0  0  0  0  0  0  0  0  0  0  0  0
   -1.7613   -0.7527   -1.0900 H   0  0  0  0  0  0  0  0  0  0  0  0
   -0.2983   -1.7488   -1.1661 H   0  0  0  0  0  0  0  0  0  0  0  0
   -0.7379    1.0745    2.0821 H   0  0  0  0  0  0  0  0  0  0  0  0
   -3.1147    0.7314    2.2920 H   0  0  0  0  0  0  0  0  0  0  0  0
   -3.0909   -0.5346    0.9513 H   0  0  0  0  0  0  0  0  0  0  0  0
    0.1976   -1.9755    2.1567 H   0  0  0  0  0  0  0  0  0  0  0  0
    1.0016    1.4369   -0.8641 C   0  0  0  0  0  0  0  0  0  0  0  0
    1.0016    1.4369   -2.1628 C   0  0  0  0  0  0  0  0  0  0  0  0
    1.0016    1.4369   -3.4615 C   0  0  0  0  0  0  0  0  0  0  0  0
    0.3380    0.5420   -0.1940 H   0  0  0  0  0  0  0  0  0  0  0  0
    1.5546    2.1826   -0.3057 H   0  0  0  0  0  0  0  0  0  0  0  0
    0.2559    1.9899   -4.0199 H   0  0  0  0  0  0  0  0  0  0  0  0
    1.7474    0.8839   -4.0199 H   0  0  0  0  0  0  0  0  0  0  0  0
  1  2  1  0
  1  6  1  0
  1  7  1  0
  1  8  1  0
  2  3  1  0
  2  5  1  0
  3  4  2  3
  3  9  1  0
  4 10  1  0
  4 11  1  0
  5 12  1  0
 13 14  2  0
 13 16  1  0
 13 17  1  0
 14 15  2  0
 15 18  1  0
 15 19  1  0
M  RAD  1   2   2
M  END
>  <reaction>  (16) 
rxn_1818

>  <mol_properties>  (16) 
{"1": {"label": "*1", "atom_type": "Cs"}, "4": {"label": "*0", "atom_type": "S2s"}, "12": {"label": "*3", "atom_type": "Ct"}, "13": {"label": "*4", "atom_type": "Ct"}, "15": {"label": "*2", "atom_type": "H0"}}

>  <type>  (16) 
unop_12

>  <geom_source>  (16) 
Heuristics

$$$$

     RDKit          3D

 19 17  0  0  0  0  0  0  0  0999 V2000
   -1.5864   -1.2396    1.9093 S   0  0  0  0  0  0  0  0  0  0  0  0
   -0.9559   -0.6069    0.3203 C   0  0  0  0  0  3  0  0  0  0  0  0
   -1.0363   -1.7091   -0.7338 C   0  0  0  0  0  0  0  0  0  0  0  0
   -1.7468    0.6027   -0.1041 C   0  0  0  0  0  0  0  0  0  0  0  0
   -1.3081    1.4149   -1.0696 C   0  0  0  0  0  0  0  0  0  0  0  0
    3.1777    0.9540   -0.3768 C   0  0  0  0  0  0  0  0  0  0  0  0
    2.2609    0.5135    0.4368 C   0  0  0  0  0  0  0  0  0  0  0  0
    1.3440    0.0730    1.2504 C   0  0  0  0  0  0  0  0  0  0  0  0
    0.3766   -0.2463    0.4970 H   0  0  0  0  0  0  0  0  0  0  0  0
   -2.0917   -2.0150   -0.8994 H   0  0  0  0  0  0  0  0  0  0  0  0
   -0.4525   -2.5923   -0.3988 H   0  0  0  0  0  0  0  0  0  0  0  0
   -0.6058   -1.3552   -1.6943 H   0  0  0  0  0  0  0  0  0  0  0  0
   -2.6793    0.8442    0.3985 H   0  0  0  0  0  0  0  0  0  0  0  0
   -0.3718    1.2187   -1.5832 H   0  0  0  0  0  0  0  0  0  0  0  0
   -1.8881    2.2883   -1.3496 H   0  0  0  0  0  0  0  0  0  0  0  0
    3.6657    0.2735   -1.0611 H   0  0  0  0  0  0  0  0  0  0  0  0
    3.4516    2.0001   -0.3675 H   0  0  0  0  0  0  0  0  0  0  0  0
   -1.1782   -0.0894    2.6115 H   0  0  0  0  0  0  0  0  0  0  0  0
    1.6245   -0.3289    2.2144 H   0  0  0  0  0  0  0  0  0  0  0  0
  1  2  1  0
  1 18  1  0
  2  3  1  0
  2  4  1  0
  3 10  1  0
  3 11  1  0
  3 12  1  0
  4  5  2  3
  4 13  1  0
  5 14  1  0
  5 15  1  0
  6  7  2  0
  6 16  1  0
  6 17  1  0
  7  8  2  0
  8  9  1  0
  8 19  1  0
M  RAD  1   2   2
M  END
>  <reaction>  (17) 
rxn_1818

>  <mol_properties>  (17) 
{"1": {"label": "*1", "atom_type": "Cs"}, "4": {"label": "*0", "atom_type": "S2s"}, "12": {"label": "*3", "atom_type": "Ct"}, "13": {"label": "*4", "atom_type": "Ct"}, "15": {"label": "*2", "atom_type": "H0"}}

>  <type>  (17) 
unop_13

>  <geom_source>  (17) 
AutoTST

$$$$
