
     RDKit          3D

  9  8  0  0  0  0  0  0  0  0999 V2000
   -2.1022   -0.6873    0.3932 C   0  0  0  0  0  0  0  0  0  0  0  0
   -1.2072   -0.1086   -0.1482 C   0  0  0  0  0  0  0  0  0  0  0  0
   -0.1242    0.6105   -0.8193 C   0  0  0  0  0  0  0  0  0  0  0  0
    1.2067    0.1106   -0.4741 C   0  0  0  0  0  0  0  0  0  0  0  0
    2.3005   -0.2875   -0.2012 C   0  0  0  0  0  0  0  0  0  0  0  0
   -2.8942   -1.2059    0.8778 H   0  0  0  0  0  0  0  0  0  0  0  0
   -0.1862    1.6723   -0.5649 H   0  0  0  0  0  0  0  0  0  0  0  0
   -0.2641    0.5418   -1.9017 H   0  0  0  0  0  0  0  0  0  0  0  0
    3.2709   -0.6459    0.0455 H   0  0  0  0  0  0  0  0  0  0  0  0
  1  2  3  0
  1  6  1  0
  2  3  1  0
  3  4  1  0
  3  7  1  0
  3  8  1  0
  4  5  3  0
  5  9  1  0
M  END
>  <reaction>  (1) 
rxn_1367

>  <mol_properties>  (1) 
{"2": {"label": "donator", "atom_type": "Cs"}, "6": {"label": "d_hydrogen", "atom_type": "H0"}}

>  <type>  (1) 
r1h

$$$$

     RDKit          3D

  5  4  0  0  0  0  0  0  0  0999 V2000
   -0.5642    0.0794    0.0348 C   0  0  0  0  0  3  0  0  0  0  0  0
    1.0624    0.5420    0.2853 S   0  0  0  0  0  0  0  0  0  0  0  0
   -1.3257    0.7631    0.3741 H   0  0  0  0  0  0  0  0  0  0  0  0
   -0.8236   -0.8519   -0.4401 H   0  0  0  0  0  0  0  0  0  0  0  0
    1.6511   -0.5325   -0.2540 H   0  0  0  0  0  0  0  0  0  0  0  0
  1  2  1  0
  1  3  1  0
  1  4  1  0
  2  5  1  0
M  RAD  1   1   2
M  END
>  <reaction>  (2) 
rxn_1367

>  <mol_properties>  (2) 
{"0": {"label": "acceptor", "atom_type": "Cs"}}

>  <type>  (2) 
r2

$$$$

     RDKit          3D

  6  5  0  0  0  0  0  0  0  0999 V2000
   -0.5072   -0.0291   -0.0097 C   0  0  0  0  0  0  0  0  0  0  0  0
    1.1321   -0.1527   -0.7687 S   0  0  0  0  0  0  0  0  0  0  0  0
   -0.6174   -0.7330    0.8127 H   0  0  0  0  0  0  0  0  0  0  0  0
   -0.5863    0.9827    0.3845 H   0  0  0  0  0  0  0  0  0  0  0  0
   -1.2962   -0.1800   -0.7434 H   0  0  0  0  0  0  0  0  0  0  0  0
    1.0312   -1.4237   -1.1764 H   0  0  0  0  0  0  0  0  0  0  0  0
  1  2  1  0
  1  3  1  0
  1  4  1  0
  1  5  1  0
  2  6  1  0
M  END
>  <reaction>  (3) 
rxn_1367

>  <mol_properties>  (3) 
{"0": {"label": "a_hydrogen", "atom_type": "H0"}, "1": {"label": "acceptor", "atom_type": "Cs"}}

>  <type>  (3) 
r2h

$$$$

     RDKit          3D

 14 12  0  0  0  0  0  0  0  0999 V2000
    0.3881   -2.1384   -2.3826 C   0  0  0  0  0  0  0  0  0  0  0  0
    0.0814   -1.7957   -1.2750 C   0  0  0  0  0  0  0  0  0  0  0  0
   -0.2199   -1.3472    0.0563 C   0  0  0  0  0  0  0  0  0  0  0  0
   -1.4778   -0.6819    0.2501 C   0  0  0  0  0  0  0  0  0  0  0  0
   -2.4919   -0.0689    0.4401 C   0  0  0  0  0  0  0  0  0  0  0  0
    0.6411   -2.4547   -3.3658 H   0  0  0  0  0  0  0  0  0  0  0  0
    0.6666   -0.4391    0.3423 H   0  0  0  0  0  0  0  0  0  0  0  0
   -0.0175   -2.0997    0.8187 H   0  0  0  0  0  0  0  0  0  0  0  0
   -3.4095    0.4448    0.5978 H   0  0  0  0  0  0  0  0  0  0  0  0
    1.5253    0.6375    0.6401 C   0  0  0  0  0  3  0  0  0  0  0  0
    1.0311    1.3360    2.1657 S   0  0  0  0  0  0  0  0  0  0  0  0
    2.5089    0.1829    0.7106 H   0  0  0  0  0  0  0  0  0  0  0  0
    1.3886    1.2586   -0.2402 H   0  0  0  0  0  0  0  0  0  0  0  0
   -0.1234    1.8666    1.7406 H   0  0  0  0  0  0  0  0  0  0  0  0
  1  2  3  0
  1  6  1  0
  2  3  1  0
  3  4  1  0
  3  7  1  0
  3  8  1  0
  4  5  3  0
  5  9  1  0
 10 11  1  0
 10 12  1  0
 10 13  1  0
 11 14  1  0
M  RAD  1  10   2
M  END
>  <reaction>  (4) 
rxn_1367

>  <mol_properties>  (4) 
{"1": {"label": "*0", "atom_type": "Ct"}, "2": {"label": "*1", "atom_type": "Cs"}, "6": {"label": "*2", "atom_type": "H0"}, "9": {"label": "*3", "atom_type": "Cs"}, "10": {"label": "*4", "atom_type": "S2s"}}

>  <type>  (4) 
ts

$$$$

     RDKit          3D

 14 12  0  0  0  0  0  0  0  0999 V2000
   -0.0730   -1.2231   -3.0360 C   0  0  0  0  0  0  0  0  0  0  0  0
   -0.0730   -1.2231   -1.8405 C   0  0  0  0  0  0  0  0  0  0  0  0
   -0.0730   -1.2231   -0.3775 C   0  0  0  0  0  3  0  0  0  0  0  0
   -1.3870   -0.9475    0.2036 C   0  0  0  0  0  0  0  0  0  0  0  0
   -2.4607   -0.7223    0.6785 C   0  0  0  0  0  0  0  0  0  0  0  0
   -0.0730   -1.2231   -4.0995 H   0  0  0  0  0  0  0  0  0  0  0  0
    0.7852   -0.3287    0.0535 H   0  0  0  0  0  0  0  0  0  0  0  0
    0.2824   -2.1929   -0.0183 H   0  0  0  0  0  0  0  0  0  0  0  0
   -3.4159   -0.5219    1.1010 H   0  0  0  0  0  0  0  0  0  0  0  0
    1.6389    0.5611    0.4824 C   0  0  0  0  0  0  0  0  0  0  0  0
    0.8250    1.8220    1.4954 S   0  0  0  0  0  0  0  0  0  0  0  0
    1.7575   -0.3137    1.1196 H   0  0  0  0  0  0  0  0  0  0  0  0
    2.6231    0.8899    0.1553 H   0  0  0  0  0  0  0  0  0  0  0  0
    0.7743    2.7791    0.5609 H   0  0  0  0  0  0  0  0  0  0  0  0
  1  2  3  0
  1  6  1  0
  2  3  1  0
  3  4  1  0
  3  8  1  0
  4  5  3  0
  5  9  1  0
  7 10  1  0
 10 11  1  0
 10 12  1  0
 10 13  1  0
 11 14  1  0
M  RAD  1   3   2
M  END
>  <reaction>  (5) 
rxn_1367

>  <mol_properties>  (5) 
{"1": {"label": "*0", "atom_type": "Ct"}, "2": {"label": "*1", "atom_type": "Cs"}, "6": {"label": "*2", "atom_type": "H0"}, "9": {"label": "*3", "atom_type": "Cs"}, "10": {"label": "*4", "atom_type": "S2s"}}

>  <type>  (5) 
unop_1

>  <geom_source>  (5) 
Heuristics

$$$$

     RDKit          3D

 14 12  0  0  0  0  0  0  0  0999 V2000
   -0.3615   -1.2499   -2.3988 C   0  0  0  0  0  0  0  0  0  0  0  0
   -0.3615   -1.2499   -1.2033 C   0  0  0  0  0  0  0  0  0  0  0  0
   -0.3615   -1.2499    0.2597 C   0  0  0  0  0  3  0  0  0  0  0  0
   -1.6755   -0.9742    0.8409 C   0  0  0  0  0  0  0  0  0  0  0  0
   -2.7492   -0.7490    1.3158 C   0  0  0  0  0  0  0  0  0  0  0  0
   -0.3615   -1.2499   -3.4623 H   0  0  0  0  0  0  0  0  0  0  0  0
    0.4967   -0.3555    0.6908 H   0  0  0  0  0  0  0  0  0  0  0  0
   -0.0061   -2.2197    0.6189 H   0  0  0  0  0  0  0  0  0  0  0  0
   -3.7044   -0.5487    1.7382 H   0  0  0  0  0  0  0  0  0  0  0  0
    1.3504    0.5344    1.1196 C   0  0  0  0  0  0  0  0  0  0  0  0
    1.5056    1.9138   -0.0429 S   0  0  0  0  0  0  0  0  0  0  0  0
    0.6875    0.8759    1.9129 H   0  0  0  0  0  0  0  0  0  0  0  0
    2.3121    0.2744    1.5570 H   0  0  0  0  0  0  0  0  0  0  0  0
    2.3292    1.3102   -0.9084 H   0  0  0  0  0  0  0  0  0  0  0  0
  1  2  3  0
  1  6  1  0
  2  3  1  0
  3  4  1  0
  3  8  1  0
  4  5  3  0
  5  9  1  0
  7 10  1  0
 10 11  1  0
 10 12  1  0
 10 13  1  0
 11 14  1  0
M  RAD  1   3   2
M  END
>  <reaction>  (6) 
rxn_1367

>  <mol_properties>  (6) 
{"1": {"label": "*0", "atom_type": "Ct"}, "2": {"label": "*1", "atom_type": "Cs"}, "6": {"label": "*2", "atom_type": "H0"}, "9": {"label": "*3", "atom_type": "Cs"}, "10": {"label": "*4", "atom_type": "S2s"}}

>  <type>  (6) 
unop_2

>  <geom_source>  (6) 
Heuristics

$$$$

     RDKit          3D

 14 12  0  0  0  0  0  0  0  0999 V2000
   -0.1586   -1.0568   -3.2074 C   0  0  0  0  0  0  0  0  0  0  0  0
   -0.1586   -1.0568   -2.0119 C   0  0  0  0  0  0  0  0  0  0  0  0
   -0.1586   -1.0568   -0.5489 C   0  0  0  0  0  3  0  0  0  0  0  0
   -1.4726   -0.7812    0.0323 C   0  0  0  0  0  0  0  0  0  0  0  0
   -2.5463   -0.5560    0.5072 C   0  0  0  0  0  0  0  0  0  0  0  0
   -0.1586   -1.0568   -4.2709 H   0  0  0  0  0  0  0  0  0  0  0  0
    0.6996   -0.1624   -0.1179 H   0  0  0  0  0  0  0  0  0  0  0  0
    0.1968   -2.0267   -0.1897 H   0  0  0  0  0  0  0  0  0  0  0  0
   -3.5015   -0.3556    0.9296 H   0  0  0  0  0  0  0  0  0  0  0  0
    1.5533    0.7274    0.3110 C   0  0  0  0  0  0  0  0  0  0  0  0
    1.0444    1.4147    1.9069 S   0  0  0  0  0  0  0  0  0  0  0  0
    2.1612   -0.1477    0.5346 H   0  0  0  0  0  0  0  0  0  0  0  0
    2.1570    1.4365   -0.2517 H   0  0  0  0  0  0  0  0  0  0  0  0
    0.3342    2.4427    1.4265 H   0  0  0  0  0  0  0  0  0  0  0  0
  1  2  3  0
  1  6  1  0
  2  3  1  0
  3  4  1  0
  3  8  1  0
  4  5  3  0
  5  9  1  0
  7 10  1  0
 10 11  1  0
 10 12  1  0
 10 13  1  0
 11 14  1  0
M  RAD  1   3   2
M  END
>  <reaction>  (7) 
rxn_1367

>  <mol_properties>  (7) 
{"1": {"label": "*0", "atom_type": "Ct"}, "2": {"label": "*1", "atom_type": "Cs"}, "6": {"label": "*2", "atom_type": "H0"}, "9": {"label": "*3", "atom_type": "Cs"}, "10": {"label": "*4", "atom_type": "S2s"}}

>  <type>  (7) 
unop_3

>  <geom_source>  (7) 
Heuristics

$$$$

     RDKit          3D

 14 12  0  0  0  0  0  0  0  0999 V2000
   -0.7998   -0.7311   -2.5778 C   0  0  0  0  0  0  0  0  0  0  0  0
   -0.7998   -0.7311   -1.3823 C   0  0  0  0  0  0  0  0  0  0  0  0
   -0.7998   -0.7311    0.0807 C   0  0  0  0  0  3  0  0  0  0  0  0
   -2.1139   -0.4555    0.6618 C   0  0  0  0  0  0  0  0  0  0  0  0
   -3.1876   -0.2303    1.1367 C   0  0  0  0  0  0  0  0  0  0  0  0
   -0.7998   -0.7311   -3.6413 H   0  0  0  0  0  0  0  0  0  0  0  0
    0.0583    0.1633    0.5117 H   0  0  0  0  0  0  0  0  0  0  0  0
   -0.4445   -1.7009    0.4399 H   0  0  0  0  0  0  0  0  0  0  0  0
   -4.1428   -0.0299    1.5592 H   0  0  0  0  0  0  0  0  0  0  0  0
    0.9120    1.0531    0.9406 C   0  0  0  0  0  0  0  0  0  0  0  0
    2.5889    0.6917    0.3610 S   0  0  0  0  0  0  0  0  0  0  0  0
    0.8506    2.1353    1.0437 H   0  0  0  0  0  0  0  0  0  0  0  0
    0.7215    0.5993    1.9108 H   0  0  0  0  0  0  0  0  0  0  0  0
    2.4610   -0.6394    0.3012 H   0  0  0  0  0  0  0  0  0  0  0  0
  1  2  3  0
  1  6  1  0
  2  3  1  0
  3  4  1  0
  3  8  1  0
  4  5  3  0
  5  9  1  0
  7 10  1  0
 10 11  1  0
 10 12  1  0
 10 13  1  0
 11 14  1  0
M  RAD  1   3   2
M  END
>  <reaction>  (8) 
rxn_1367

>  <mol_properties>  (8) 
{"1": {"label": "*0", "atom_type": "Ct"}, "2": {"label": "*1", "atom_type": "Cs"}, "6": {"label": "*2", "atom_type": "H0"}, "9": {"label": "*3", "atom_type": "Cs"}, "10": {"label": "*4", "atom_type": "S2s"}}

>  <type>  (8) 
unop_4

>  <geom_source>  (8) 
Heuristics

$$$$

     RDKit          3D

 14 12  0  0  0  0  0  0  0  0999 V2000
   -0.3148   -0.8692   -3.2732 C   0  0  0  0  0  0  0  0  0  0  0  0
   -0.3148   -0.8692   -2.0777 C   0  0  0  0  0  0  0  0  0  0  0  0
   -0.3148   -0.8692   -0.6147 C   0  0  0  0  0  3  0  0  0  0  0  0
   -1.6288   -0.5936   -0.0335 C   0  0  0  0  0  0  0  0  0  0  0  0
   -2.7026   -0.3684    0.4414 C   0  0  0  0  0  0  0  0  0  0  0  0
   -0.3148   -0.8692   -4.3367 H   0  0  0  0  0  0  0  0  0  0  0  0
    0.5433    0.0252   -0.1837 H   0  0  0  0  0  0  0  0  0  0  0  0
    0.0405   -1.8391   -0.2555 H   0  0  0  0  0  0  0  0  0  0  0  0
   -3.6578   -0.1681    0.8638 H   0  0  0  0  0  0  0  0  0  0  0  0
    1.3971    0.9150    0.2452 C   0  0  0  0  0  0  0  0  0  0  0  0
    1.4451    0.9651    2.0545 S   0  0  0  0  0  0  0  0  0  0  0  0
    2.3951    0.6254   -0.0795 H   0  0  0  0  0  0  0  0  0  0  0  0
    1.1647    1.8924   -0.1725 H   0  0  0  0  0  0  0  0  0  0  0  0
    0.1705    1.3270    2.2448 H   0  0  0  0  0  0  0  0  0  0  0  0
  1  2  3  0
  1  6  1  0
  2  3  1  0
  3  4  1  0
  3  8  1  0
  4  5  3  0
  5  9  1  0
  7 10  1  0
 10 11  1  0
 10 12  1  0
 10 13  1  0
 11 14  1  0
M  RAD  1   3   2
M  END
>  <reaction>  (9) 
rxn_1367

>  <mol_properties>  (9) 
{"1": {"label": "*0", "atom_type": "Ct"}, "2": {"label": "*1", "atom_type": "Cs"}, "6": {"label": "*2", "atom_type": "H0"}, "9": {"label": "*3", "atom_type": "Cs"}, "10": {"label": "*4", "atom_type": "S2s"}}

>  <type>  (9) 
unop_5

>  <geom_source>  (9) 
Heuristics

$$$$

     RDKit          3D

 14 12  0  0  0  0  0  0  0  0999 V2000
   -0.7869   -0.6282   -2.8131 C   0  0  0  0  0  0  0  0  0  0  0  0
   -0.7869   -0.6282   -1.6176 C   0  0  0  0  0  0  0  0  0  0  0  0
   -0.7869   -0.6282   -0.1546 C   0  0  0  0  0  3  0  0  0  0  0  0
   -2.1009   -0.3526    0.4265 C   0  0  0  0  0  0  0  0  0  0  0  0
   -3.1747   -0.1274    0.9014 C   0  0  0  0  0  0  0  0  0  0  0  0
   -0.7869   -0.6282   -3.8766 H   0  0  0  0  0  0  0  0  0  0  0  0
    0.0713    0.2662    0.2764 H   0  0  0  0  0  0  0  0  0  0  0  0
   -0.4315   -1.5981    0.2046 H   0  0  0  0  0  0  0  0  0  0  0  0
   -4.1299    0.0729    1.3239 H   0  0  0  0  0  0  0  0  0  0  0  0
    0.9250    1.1560    0.7053 C   0  0  0  0  0  0  0  0  0  0  0  0
    2.5732    0.4383    0.9220 S   0  0  0  0  0  0  0  0  0  0  0  0
    1.0712    2.2286    0.5891 H   0  0  0  0  0  0  0  0  0  0  0  0
    0.2990    0.9821    1.5780 H   0  0  0  0  0  0  0  0  0  0  0  0
    2.1848   -0.8369    1.0430 H   0  0  0  0  0  0  0  0  0  0  0  0
  1  2  3  0
  1  6  1  0
  2  3  1  0
  3  4  1  0
  3  8  1  0
  4  5  3  0
  5  9  1  0
  7 10  1  0
 10 11  1  0
 10 12  1  0
 10 13  1  0
 11 14  1  0
M  RAD  1   3   2
M  END
>  <reaction>  (10) 
rxn_1367

>  <mol_properties>  (10) 
{"1": {"label": "*0", "atom_type": "Ct"}, "2": {"label": "*1", "atom_type": "Cs"}, "6": {"label": "*2", "atom_type": "H0"}, "9": {"label": "*3", "atom_type": "Cs"}, "10": {"label": "*4", "atom_type": "S2s"}}

>  <type>  (10) 
unop_6

>  <geom_source>  (10) 
Heuristics

$$$$

     RDKit          3D

 14 12  0  0  0  0  0  0  0  0999 V2000
   -0.6788   -0.6192   -3.0468 C   0  0  0  0  0  0  0  0  0  0  0  0
   -0.6788   -0.6192   -1.8513 C   0  0  0  0  0  0  0  0  0  0  0  0
   -0.6788   -0.6192   -0.3883 C   0  0  0  0  0  3  0  0  0  0  0  0
   -1.9929   -0.3436    0.1929 C   0  0  0  0  0  0  0  0  0  0  0  0
   -3.0666   -0.1183    0.6678 C   0  0  0  0  0  0  0  0  0  0  0  0
   -0.6788   -0.6192   -4.1102 H   0  0  0  0  0  0  0  0  0  0  0  0
    0.1793    0.2752    0.0428 H   0  0  0  0  0  0  0  0  0  0  0  0
   -0.3235   -1.5890   -0.0291 H   0  0  0  0  0  0  0  0  0  0  0  0
   -4.0218    0.0820    1.0903 H   0  0  0  0  0  0  0  0  0  0  0  0
    1.0330    1.1651    0.4716 C   0  0  0  0  0  0  0  0  0  0  0  0
    2.3265    0.4040    1.4846 S   0  0  0  0  0  0  0  0  0  0  0  0
    1.4411    2.1085    0.1125 H   0  0  0  0  0  0  0  0  0  0  0  0
    0.1405    1.3723    1.0583 H   0  0  0  0  0  0  0  0  0  0  0  0
    1.6489   -0.7017    1.8166 H   0  0  0  0  0  0  0  0  0  0  0  0
  1  2  3  0
  1  6  1  0
  2  3  1  0
  3  4  1  0
  3  8  1  0
  4  5  3  0
  5  9  1  0
  7 10  1  0
 10 11  1  0
 10 12  1  0
 10 13  1  0
 11 14  1  0
M  RAD  1   3   2
M  END
>  <reaction>  (11) 
rxn_1367

>  <mol_properties>  (11) 
{"1": {"label": "*0", "atom_type": "Ct"}, "2": {"label": "*1", "atom_type": "Cs"}, "6": {"label": "*2", "atom_type": "H0"}, "9": {"label": "*3", "atom_type": "Cs"}, "10": {"label": "*4", "atom_type": "S2s"}}

>  <type>  (11) 
unop_7

>  <geom_source>  (11) 
Heuristics

$$$$

     RDKit          3D

 14 12  0  0  0  0  0  0  0  0999 V2000
   -0.0833   -1.3256   -2.8025 C   0  0  0  0  0  0  0  0  0  0  0  0
   -0.0833   -1.3256   -1.6070 C   0  0  0  0  0  0  0  0  0  0  0  0
   -0.0833   -1.3256   -0.1440 C   0  0  0  0  0  3  0  0  0  0  0  0
   -1.3974   -1.0500    0.4372 C   0  0  0  0  0  0  0  0  0  0  0  0
   -2.4711   -0.8248    0.9121 C   0  0  0  0  0  0  0  0  0  0  0  0
   -0.0833   -1.3256   -3.8660 H   0  0  0  0  0  0  0  0  0  0  0  0
    0.7748   -0.4312    0.2870 H   0  0  0  0  0  0  0  0  0  0  0  0
    0.2720   -2.2955    0.2152 H   0  0  0  0  0  0  0  0  0  0  0  0
   -3.4263   -0.6244    1.3345 H   0  0  0  0  0  0  0  0  0  0  0  0
    1.6285    0.4586    0.7159 C   0  0  0  0  0  0  0  0  0  0  0  0
    0.8433    2.0757    0.9326 S   0  0  0  0  0  0  0  0  0  0  0  0
    1.3510   -0.1352    1.5852 H   0  0  0  0  0  0  0  0  0  0  0  0
    2.7127    0.5453    0.6848 H   0  0  0  0  0  0  0  0  0  0  0  0
    1.2926    2.6318   -0.1991 H   0  0  0  0  0  0  0  0  0  0  0  0
  1  2  3  0
  1  6  1  0
  2  3  1  0
  3  4  1  0
  3  8  1  0
  4  5  3  0
  5  9  1  0
  7 10  1  0
 10 11  1  0
 10 12  1  0
 10 13  1  0
 11 14  1  0
M  RAD  1   3   2
M  END
>  <reaction>  (12) 
rxn_1367

>  <mol_properties>  (12) 
{"1": {"label": "*0", "atom_type": "Ct"}, "2": {"label": "*1", "atom_type": "Cs"}, "6": {"label": "*2", "atom_type": "H0"}, "9": {"label": "*3", "atom_type": "Cs"}, "10": {"label": "*4", "atom_type": "S2s"}}

>  <type>  (12) 
unop_8

>  <geom_source>  (12) 
Heuristics

$$$$

     RDKit          3D

 14 12  0  0  0  0  0  0  0  0999 V2000
   -0.7147   -0.9000   -2.4040 C   0  0  0  0  0  0  0  0  0  0  0  0
   -0.7147   -0.9000   -1.2085 C   0  0  0  0  0  0  0  0  0  0  0  0
   -0.7147   -0.9000    0.2545 C   0  0  0  0  0  3  0  0  0  0  0  0
   -2.0287   -0.6244    0.8357 C   0  0  0  0  0  0  0  0  0  0  0  0
   -3.1025   -0.3992    1.3106 C   0  0  0  0  0  0  0  0  0  0  0  0
   -0.7147   -0.9000   -3.4674 H   0  0  0  0  0  0  0  0  0  0  0  0
    0.1434   -0.0056    0.6856 H   0  0  0  0  0  0  0  0  0  0  0  0
   -0.3593   -1.8699    0.6137 H   0  0  0  0  0  0  0  0  0  0  0  0
   -4.0577   -0.1989    1.7331 H   0  0  0  0  0  0  0  0  0  0  0  0
    0.9972    0.8842    1.1144 C   0  0  0  0  0  0  0  0  0  0  0  0
    2.3691    1.0963   -0.0481 S   0  0  0  0  0  0  0  0  0  0  0  0
    0.7029    1.8850    1.4262 H   0  0  0  0  0  0  0  0  0  0  0  0
    1.3056    0.3220    1.9933 H   0  0  0  0  0  0  0  0  0  0  0  0
    2.5746   -0.2019   -0.3016 H   0  0  0  0  0  0  0  0  0  0  0  0
  1  2  3  0
  1  6  1  0
  2  3  1  0
  3  4  1  0
  3  8  1  0
  4  5  3  0
  5  9  1  0
  7 10  1  0
 10 11  1  0
 10 12  1  0
 10 13  1  0
 11 14  1  0
M  RAD  1   3   2
M  END
>  <reaction>  (13) 
rxn_1367

>  <mol_properties>  (13) 
{"1": {"label": "*0", "atom_type": "Ct"}, "2": {"label": "*1", "atom_type": "Cs"}, "6": {"label": "*2", "atom_type": "H0"}, "9": {"label": "*3", "atom_type": "Cs"}, "10": {"label": "*4", "atom_type": "S2s"}}

>  <type>  (13) 
unop_9

>  <geom_source>  (13) 
Heuristics

$$$$

     RDKit          3D

 14 12  0  0  0  0  0  0  0  0999 V2000
   -0.1888   -1.3359   -2.5690 C   0  0  0  0  0  0  0  0  0  0  0  0
   -0.1888   -1.3359   -1.3735 C   0  0  0  0  0  0  0  0  0  0  0  0
   -0.1888   -1.3359    0.0895 C   0  0  0  0  0  3  0  0  0  0  0  0
   -1.5028   -1.0603    0.6707 C   0  0  0  0  0  0  0  0  0  0  0  0
   -2.5766   -0.8351    1.1456 C   0  0  0  0  0  0  0  0  0  0  0  0
   -0.1888   -1.3359   -3.6325 H   0  0  0  0  0  0  0  0  0  0  0  0
    0.6693   -0.4415    0.5205 H   0  0  0  0  0  0  0  0  0  0  0  0
    0.1666   -2.3057    0.4487 H   0  0  0  0  0  0  0  0  0  0  0  0
   -3.5318   -0.6347    1.5680 H   0  0  0  0  0  0  0  0  0  0  0  0
    1.5231    0.4484    0.9494 C   0  0  0  0  0  0  0  0  0  0  0  0
    1.0926    2.1088    0.3698 S   0  0  0  0  0  0  0  0  0  0  0  0
    0.9627    0.2906    1.8694 H   0  0  0  0  0  0  0  0  0  0  0  0
    2.5854    0.3686    1.1704 H   0  0  0  0  0  0  0  0  0  0  0  0
    1.8578    2.1053   -0.7285 H   0  0  0  0  0  0  0  0  0  0  0  0
  1  2  3  0
  1  6  1  0
  2  3  1  0
  3  4  1  0
  3  8  1  0
  4  5  3  0
  5  9  1  0
  7 10  1  0
 10 11  1  0
 10 12  1  0
 10 13  1  0
 11 14  1  0
M  RAD  1   3   2
M  END
>  <reaction>  (14) 
rxn_1367

>  <mol_properties>  (14) 
{"1": {"label": "*0", "atom_type": "Ct"}, "2": {"label": "*1", "atom_type": "Cs"}, "6": {"label": "*2", "atom_type": "H0"}, "9": {"label": "*3", "atom_type": "Cs"}, "10": {"label": "*4", "atom_type": "S2s"}}

>  <type>  (14) 
unop_10

>  <geom_source>  (14) 
Heuristics

$$$$

     RDKit          3D

 14 12  0  0  0  0  0  0  0  0999 V2000
   -0.5049   -0.7074   -3.2155 C   0  0  0  0  0  0  0  0  0  0  0  0
   -0.5049   -0.7074   -2.0200 C   0  0  0  0  0  0  0  0  0  0  0  0
   -0.5049   -0.7074   -0.5570 C   0  0  0  0  0  3  0  0  0  0  0  0
   -1.8189   -0.4318    0.0241 C   0  0  0  0  0  0  0  0  0  0  0  0
   -2.8927   -0.2066    0.4990 C   0  0  0  0  0  0  0  0  0  0  0  0
   -0.5049   -0.7074   -4.2790 H   0  0  0  0  0  0  0  0  0  0  0  0
    0.3532    0.1870   -0.1260 H   0  0  0  0  0  0  0  0  0  0  0  0
   -0.1496   -1.6772   -0.1978 H   0  0  0  0  0  0  0  0  0  0  0  0
   -3.8479   -0.0062    0.9215 H   0  0  0  0  0  0  0  0  0  0  0  0
    1.2070    1.0768    0.3028 C   0  0  0  0  0  0  0  0  0  0  0  0
    1.9147    0.5968    1.8988 S   0  0  0  0  0  0  0  0  0  0  0  0
    1.9874    1.6207   -0.2268 H   0  0  0  0  0  0  0  0  0  0  0  0
    0.3496    1.7344    0.4310 H   0  0  0  0  0  0  0  0  0  0  0  0
    0.8357   -0.0356    2.3759 H   0  0  0  0  0  0  0  0  0  0  0  0
  1  2  3  0
  1  6  1  0
  2  3  1  0
  3  4  1  0
  3  8  1  0
  4  5  3  0
  5  9  1  0
  7 10  1  0
 10 11  1  0
 10 12  1  0
 10 13  1  0
 11 14  1  0
M  RAD  1   3   2
M  END
>  <reaction>  (15) 
rxn_1367

>  <mol_properties>  (15) 
{"1": {"label": "*0", "atom_type": "Ct"}, "2": {"label": "*1", "atom_type": "Cs"}, "6": {"label": "*2", "atom_type": "H0"}, "9": {"label": "*3", "atom_type": "Cs"}, "10": {"label": "*4", "atom_type": "S2s"}}

>  <type>  (15) 
unop_11

>  <geom_source>  (15) 
Heuristics

$$$$

     RDKit          3D

 14 12  0  0  0  0  0  0  0  0999 V2000
   -0.5542   -1.0901   -2.3383 C   0  0  0  0  0  0  0  0  0  0  0  0
   -0.5542   -1.0901   -1.1428 C   0  0  0  0  0  0  0  0  0  0  0  0
   -0.5542   -1.0901    0.3202 C   0  0  0  0  0  3  0  0  0  0  0  0
   -1.8683   -0.8145    0.9014 C   0  0  0  0  0  0  0  0  0  0  0  0
   -2.9420   -0.5893    1.3763 C   0  0  0  0  0  0  0  0  0  0  0  0
   -0.5542   -1.0901   -3.4018 H   0  0  0  0  0  0  0  0  0  0  0  0
    0.3039   -0.1957    0.7512 H   0  0  0  0  0  0  0  0  0  0  0  0
   -0.1989   -2.0599    0.6794 H   0  0  0  0  0  0  0  0  0  0  0  0
   -3.8972   -0.3889    1.7987 H   0  0  0  0  0  0  0  0  0  0  0  0
    1.1576    0.6942    1.1801 C   0  0  0  0  0  0  0  0  0  0  0  0
    1.9725    1.5435   -0.1958 S   0  0  0  0  0  0  0  0  0  0  0  0
    0.6155    1.4590    1.7338 H   0  0  0  0  0  0  0  0  0  0  0  0
    1.8831    0.2307    1.8454 H   0  0  0  0  0  0  0  0  0  0  0  0
    2.5614    0.4669   -0.7306 H   0  0  0  0  0  0  0  0  0  0  0  0
  1  2  3  0
  1  6  1  0
  2  3  1  0
  3  4  1  0
  3  8  1  0
  4  5  3  0
  5  9  1  0
  7 10  1  0
 10 11  1  0
 10 12  1  0
 10 13  1  0
 11 14  1  0
M  RAD  1   3   2
M  END
>  <reaction>  (16) 
rxn_1367

>  <mol_properties>  (16) 
{"1": {"label": "*0", "atom_type": "Ct"}, "2": {"label": "*1", "atom_type": "Cs"}, "6": {"label": "*2", "atom_type": "H0"}, "9": {"label": "*3", "atom_type": "Cs"}, "10": {"label": "*4", "atom_type": "S2s"}}

>  <type>  (16) 
unop_12

>  <geom_source>  (16) 
Heuristics

$$$$

     RDKit          3D

 14 12  0  0  0  0  0  0  0  0999 V2000
    3.0460    0.2853    0.6821 S   0  0  0  0  0  0  0  0  0  0  0  0
    1.8430   -0.7220   -0.2294 C   0  0  0  0  0  0  0  0  0  0  0  0
   -0.5186    0.2344    0.3011 C   0  0  0  0  0  3  0  0  0  0  0  0
   -1.4052   -0.8914    0.6017 C   0  0  0  0  0  0  0  0  0  0  0  0
   -1.2584    1.2657   -0.4290 C   0  0  0  0  0  0  0  0  0  0  0  0
   -2.1338   -1.8195    0.8499 C   0  0  0  0  0  0  0  0  0  0  0  0
   -1.8658    2.1160   -1.0304 C   0  0  0  0  0  0  0  0  0  0  0  0
    2.2289   -0.9316   -1.2484 H   0  0  0  0  0  0  0  0  0  0  0  0
    1.6825   -1.6795    0.3073 H   0  0  0  0  0  0  0  0  0  0  0  0
    0.7210   -0.0846   -0.3150 H   0  0  0  0  0  0  0  0  0  0  0  0
   -0.1266    0.6600    1.2478 H   0  0  0  0  0  0  0  0  0  0  0  0
    2.9595    1.3391   -0.2473 H   0  0  0  0  0  0  0  0  0  0  0  0
   -2.7734   -2.6341    1.0678 H   0  0  0  0  0  0  0  0  0  0  0  0
   -2.3991    2.8623   -1.5583 H   0  0  0  0  0  0  0  0  0  0  0  0
  1  2  1  0
  1 12  1  0
  2  8  1  0
  2  9  1  0
  2 10  1  0
  3  4  1  0
  3  5  1  0
  3 11  1  0
  4  6  3  0
  5  7  3  0
  6 13  1  0
  7 14  1  0
M  RAD  1   3   2
M  END
>  <reaction>  (17) 
rxn_1367

>  <mol_properties>  (17) 
{"1": {"label": "*0", "atom_type": "Ct"}, "2": {"label": "*1", "atom_type": "Cs"}, "6": {"label": "*2", "atom_type": "H0"}, "9": {"label": "*3", "atom_type": "Cs"}, "10": {"label": "*4", "atom_type": "S2s"}}

>  <type>  (17) 
unop_13

>  <geom_source>  (17) 
AutoTST

$$$$

     RDKit          3D

 14 12  0  0  0  0  0  0  0  0999 V2000
   -0.3615   -1.2498   -2.3988 C   0  0  0  0  0  0  0  0  0  0  0  0
   -0.3615   -1.2498   -1.2033 C   0  0  0  0  0  0  0  0  0  0  0  0
   -0.3615   -1.2498    0.2597 C   0  0  0  0  0  3  0  0  0  0  0  0
   -1.6755   -0.9742    0.8409 C   0  0  0  0  0  0  0  0  0  0  0  0
   -2.7492   -0.7490    1.3158 C   0  0  0  0  0  0  0  0  0  0  0  0
   -0.3615   -1.2498   -3.4623 H   0  0  0  0  0  0  0  0  0  0  0  0
    0.4967   -0.3555    0.6908 H   0  0  0  0  0  0  0  0  0  0  0  0
   -0.0061   -2.2197    0.6189 H   0  0  0  0  0  0  0  0  0  0  0  0
   -3.7044   -0.5487    1.7383 H   0  0  0  0  0  0  0  0  0  0  0  0
    1.3504    0.5344    1.1196 C   0  0  0  0  0  0  0  0  0  0  0  0
    1.5056    1.9139   -0.0429 S   0  0  0  0  0  0  0  0  0  0  0  0
    0.6875    0.8759    1.9129 H   0  0  0  0  0  0  0  0  0  0  0  0
    2.3121    0.2744    1.5570 H   0  0  0  0  0  0  0  0  0  0  0  0
    2.3292    1.3102   -0.9084 H   0  0  0  0  0  0  0  0  0  0  0  0
  1  2  3  0
  1  6  1  0
  2  3  1  0
  3  4  1  0
  3  8  1  0
  4  5  3  0
  5  9  1  0
  7 10  1  0
 10 11  1  0
 10 12  1  0
 10 13  1  0
 11 14  1  0
M  RAD  1   3   2
M  END
>  <reaction>  (18) 
rxn_1367

>  <mol_properties>  (18) 
{"1": {"label": "*0", "atom_type": "Ct"}, "2": {"label": "*1", "atom_type": "Cs"}, "6": {"label": "*2", "atom_type": "H0"}, "9": {"label": "*3", "atom_type": "Cs"}, "10": {"label": "*4", "atom_type": "S2s"}}

>  <type>  (18) 
unop_14

>  <geom_source>  (18) 
gaussian_log

$$$$
