
     RDKit          3D

  9  8  0  0  0  0  0  0  0  0999 V2000
    1.1303   -0.2933   -0.7510 C   0  0  0  0  0  0  0  0  0  0  0  0
    0.2866    0.4560   -0.0588 C   0  0  0  0  0  0  0  0  0  0  0  0
   -0.9719   -0.0331    0.5823 C   0  0  0  0  0  0  0  0  0  0  0  0
    2.0274    0.1230   -1.1916 H   0  0  0  0  0  0  0  0  0  0  0  0
    0.9532   -1.3530   -0.9023 H   0  0  0  0  0  0  0  0  0  0  0  0
    0.5065    1.5132    0.0659 H   0  0  0  0  0  0  0  0  0  0  0  0
   -0.9526    0.1426    1.6610 H   0  0  0  0  0  0  0  0  0  0  0  0
   -1.1182   -1.1002    0.4106 H   0  0  0  0  0  0  0  0  0  0  0  0
   -1.8412    0.5010    0.1901 H   0  0  0  0  0  0  0  0  0  0  0  0
  1  2  2  3
  1  4  1  0
  1  5  1  0
  2  3  1  0
  2  6  1  0
  3  7  1  0
  3  8  1  0
  3  9  1  0
M  END
>  <reaction>  (1) 
rxn_1624

>  <mol_properties>  (1) 
{"1": {"label": "donator", "atom_type": "Cd"}, "5": {"label": "d_hydrogen", "atom_type": "H0"}}

>  <type>  (1) 
r1h

$$$$

     RDKit          3D

  5  4  0  0  0  0  0  0  0  0999 V2000
   -0.5642    0.0794    0.0348 C   0  0  0  0  0  3  0  0  0  0  0  0
    1.0624    0.5420    0.2853 S   0  0  0  0  0  0  0  0  0  0  0  0
   -1.3257    0.7631    0.3741 H   0  0  0  0  0  0  0  0  0  0  0  0
   -0.8236   -0.8519   -0.4401 H   0  0  0  0  0  0  0  0  0  0  0  0
    1.6511   -0.5325   -0.2540 H   0  0  0  0  0  0  0  0  0  0  0  0
  1  2  1  0
  1  3  1  0
  1  4  1  0
  2  5  1  0
M  RAD  1   1   2
M  END
>  <reaction>  (2) 
rxn_1624

>  <mol_properties>  (2) 
{"0": {"label": "acceptor", "atom_type": "Cs"}}

>  <type>  (2) 
r2

$$$$

     RDKit          3D

  6  5  0  0  0  0  0  0  0  0999 V2000
   -0.5072   -0.0291   -0.0097 C   0  0  0  0  0  0  0  0  0  0  0  0
    1.1321   -0.1527   -0.7687 S   0  0  0  0  0  0  0  0  0  0  0  0
   -0.6174   -0.7330    0.8127 H   0  0  0  0  0  0  0  0  0  0  0  0
   -0.5863    0.9827    0.3845 H   0  0  0  0  0  0  0  0  0  0  0  0
   -1.2962   -0.1800   -0.7434 H   0  0  0  0  0  0  0  0  0  0  0  0
    1.0312   -1.4237   -1.1764 H   0  0  0  0  0  0  0  0  0  0  0  0
  1  2  1  0
  1  3  1  0
  1  4  1  0
  1  5  1  0
  2  6  1  0
M  END
>  <reaction>  (3) 
rxn_1624

>  <mol_properties>  (3) 
{"0": {"label": "acceptor", "atom_type": "Cs"}, "5": {"label": "a_hydrogen", "atom_type": "H0"}}

>  <type>  (3) 
r2h

$$$$

     RDKit          3D

 14 12  0  0  0  0  0  0  0  0999 V2000
    0.1211   -0.8203    1.0186 C   0  0  0  0  0  0  0  0  0  0  0  0
   -0.1694   -2.0735   -0.2063 S   0  0  0  0  0  0  0  0  0  0  0  0
    1.1323   -0.9298    1.4040 H   0  0  0  0  0  0  0  0  0  0  0  0
   -0.6143   -0.8059    1.8200 H   0  0  0  0  0  0  0  0  0  0  0  0
   -1.4386   -1.7470   -0.4829 H   0  0  0  0  0  0  0  0  0  0  0  0
    0.1190    1.4697   -1.4877 C   0  0  0  0  0  0  0  0  0  0  0  0
    0.0382    1.5818   -0.1816 C   0  0  0  0  0  3  0  0  0  0  0  0
   -0.0991    2.7626    0.7021 C   0  0  0  0  0  0  0  0  0  0  0  0
    0.2229    0.5008   -1.9657 H   0  0  0  0  0  0  0  0  0  0  0  0
    0.0878    2.3425   -2.1389 H   0  0  0  0  0  0  0  0  0  0  0  0
    0.0847    0.3499    0.4768 H   0  0  0  0  0  0  0  0  0  0  0  0
   -1.0084    2.6969    1.3043 H   0  0  0  0  0  0  0  0  0  0  0  0
   -0.1397    3.6885    0.1199 H   0  0  0  0  0  0  0  0  0  0  0  0
    0.7428    2.8312    1.3950 H   0  0  0  0  0  0  0  0  0  0  0  0
  1  2  1  0
  1  3  1  0
  1  4  1  0
  1 11  1  0
  2  5  1  0
  6  7  2  3
  6  9  1  0
  6 10  1  0
  7  8  1  0
  8 12  1  0
  8 13  1  0
  8 14  1  0
M  RAD  1   7   2
M  END
>  <reaction>  (4) 
rxn_1624

>  <mol_properties>  (4) 
{"0": {"label": "*1", "atom_type": "Cs"}, "1": {"label": "*0", "atom_type": "S2s"}, "5": {"label": "*4", "atom_type": "Cd"}, "6": {"label": "*3", "atom_type": "Cd"}, "10": {"label": "*2", "atom_type": "H0"}}

>  <type>  (4) 
ts

$$$$

     RDKit          3D

 14 12  0  0  0  0  0  0  0  0999 V2000
   -0.5355   -1.2077    0.2682 C   0  0  0  0  0  3  0  0  0  0  0  0
    0.9248   -1.3799    1.3248 S   0  0  0  0  0  0  0  0  0  0  0  0
   -1.2267   -0.5598    0.8047 H   0  0  0  0  0  0  0  0  0  0  0  0
   -1.0180   -2.1681    0.0992 H   0  0  0  0  0  0  0  0  0  0  0  0
    1.6239   -2.1823    0.5129 H   0  0  0  0  0  0  0  0  0  0  0  0
   -0.5355    1.0797   -2.3126 C   0  0  0  0  0  0  0  0  0  0  0  0
   -0.5355    1.0797   -0.9888 C   0  0  0  0  0  0  0  0  0  0  0  0
   -0.5355    2.3018   -0.1283 C   0  0  0  0  0  0  0  0  0  0  0  0
   -0.5355    0.1569   -2.8791 H   0  0  0  0  0  0  0  0  0  0  0  0
   -0.5355    2.0053   -2.8786 H   0  0  0  0  0  0  0  0  0  0  0  0
   -0.5355   -0.0635   -0.3606 H   0  0  0  0  0  0  0  0  0  0  0  0
   -1.4132    2.3190    0.5229 H   0  0  0  0  0  0  0  0  0  0  0  0
   -0.5355    3.2123   -0.7289 H   0  0  0  0  0  0  0  0  0  0  0  0
    0.3422    2.3189    0.5229 H   0  0  0  0  0  0  0  0  0  0  0  0
  1  2  1  0
  1  3  1  0
  1  4  1  0
  2  5  1  0
  6  7  2  3
  6  9  1  0
  6 10  1  0
  7  8  1  0
  7 11  1  0
  8 12  1  0
  8 13  1  0
  8 14  1  0
M  RAD  1   1   2
M  END
>  <reaction>  (5) 
rxn_1624

>  <mol_properties>  (5) 
{"0": {"label": "*1", "atom_type": "Cs"}, "1": {"label": "*0", "atom_type": "S2s"}, "5": {"label": "*4", "atom_type": "Cd"}, "6": {"label": "*3", "atom_type": "Cd"}, "10": {"label": "*2", "atom_type": "H0"}}

>  <type>  (5) 
unop_1

>  <geom_source>  (5) 
Heuristics

$$$$

     RDKit          3D

 14 12  0  0  0  0  0  0  0  0999 V2000
   -0.2990   -0.8057    1.0060 C   0  0  0  0  0  3  0  0  0  0  0  0
    0.5441   -2.0872    0.0440 S   0  0  0  0  0  0  0  0  0  0  0  0
    0.4158   -0.4636    1.7526 H   0  0  0  0  0  0  0  0  0  0  0  0
   -1.1730   -1.2041    1.5171 H   0  0  0  0  0  0  0  0  0  0  0  0
   -0.4681   -2.3645   -0.7869 H   0  0  0  0  0  0  0  0  0  0  0  0
   -0.2990    1.4817   -1.5748 C   0  0  0  0  0  0  0  0  0  0  0  0
   -0.2990    1.4817   -0.2510 C   0  0  0  0  0  0  0  0  0  0  0  0
   -0.2990    2.7039    0.6095 C   0  0  0  0  0  0  0  0  0  0  0  0
   -0.2990    0.5590   -2.1413 H   0  0  0  0  0  0  0  0  0  0  0  0
   -0.2990    2.4073   -2.1408 H   0  0  0  0  0  0  0  0  0  0  0  0
   -0.2990    0.3385    0.3772 H   0  0  0  0  0  0  0  0  0  0  0  0
   -1.1767    2.7210    1.2607 H   0  0  0  0  0  0  0  0  0  0  0  0
   -0.2990    3.6143    0.0089 H   0  0  0  0  0  0  0  0  0  0  0  0
    0.5787    2.7210    1.2607 H   0  0  0  0  0  0  0  0  0  0  0  0
  1  2  1  0
  1  3  1  0
  1  4  1  0
  2  5  1  0
  6  7  2  3
  6  9  1  0
  6 10  1  0
  7  8  1  0
  7 11  1  0
  8 12  1  0
  8 13  1  0
  8 14  1  0
M  RAD  1   1   2
M  END
>  <reaction>  (6) 
rxn_1624

>  <mol_properties>  (6) 
{"0": {"label": "*1", "atom_type": "Cs"}, "1": {"label": "*0", "atom_type": "S2s"}, "5": {"label": "*4", "atom_type": "Cd"}, "6": {"label": "*3", "atom_type": "Cd"}, "10": {"label": "*2", "atom_type": "H0"}}

>  <type>  (6) 
unop_2

>  <geom_source>  (6) 
Heuristics

$$$$

     RDKit          3D

 14 12  0  0  0  0  0  0  0  0999 V2000
   -0.3149   -1.3181    0.0701 C   0  0  0  0  0  3  0  0  0  0  0  0
    0.5282   -1.1930    1.6676 S   0  0  0  0  0  0  0  0  0  0  0  0
   -1.3595   -1.0730    0.2554 H   0  0  0  0  0  0  0  0  0  0  0  0
   -0.2596   -2.3286   -0.3293 H   0  0  0  0  0  0  0  0  0  0  0  0
    1.7523   -1.5199    1.2358 H   0  0  0  0  0  0  0  0  0  0  0  0
   -0.3149    0.9693   -2.5106 C   0  0  0  0  0  0  0  0  0  0  0  0
   -0.3149    0.9693   -1.1869 C   0  0  0  0  0  0  0  0  0  0  0  0
   -0.3149    2.1915   -0.3264 C   0  0  0  0  0  0  0  0  0  0  0  0
   -0.3149    0.0466   -3.0771 H   0  0  0  0  0  0  0  0  0  0  0  0
   -0.3149    1.8949   -3.0766 H   0  0  0  0  0  0  0  0  0  0  0  0
   -0.3149   -0.1739   -0.5587 H   0  0  0  0  0  0  0  0  0  0  0  0
   -1.1926    2.2086    0.3248 H   0  0  0  0  0  0  0  0  0  0  0  0
   -0.3149    3.1019   -0.9270 H   0  0  0  0  0  0  0  0  0  0  0  0
    0.5628    2.2086    0.3249 H   0  0  0  0  0  0  0  0  0  0  0  0
  1  2  1  0
  1  3  1  0
  1  4  1  0
  2  5  1  0
  6  7  2  3
  6  9  1  0
  6 10  1  0
  7  8  1  0
  7 11  1  0
  8 12  1  0
  8 13  1  0
  8 14  1  0
M  RAD  1   1   2
M  END
>  <reaction>  (7) 
rxn_1624

>  <mol_properties>  (7) 
{"0": {"label": "*1", "atom_type": "Cs"}, "1": {"label": "*0", "atom_type": "S2s"}, "5": {"label": "*4", "atom_type": "Cd"}, "6": {"label": "*3", "atom_type": "Cd"}, "10": {"label": "*2", "atom_type": "H0"}}

>  <type>  (7) 
unop_3

>  <geom_source>  (7) 
Heuristics

$$$$

     RDKit          3D

 14 12  0  0  0  0  0  0  0  0999 V2000
    0.5433   -0.9301    0.8006 C   0  0  0  0  0  3  0  0  0  0  0  0
   -0.9170   -1.9144    0.3796 S   0  0  0  0  0  0  0  0  0  0  0  0
    1.3368   -1.6408    1.0256 H   0  0  0  0  0  0  0  0  0  0  0  0
    0.3666   -0.3150    1.6805 H   0  0  0  0  0  0  0  0  0  0  0  0
   -1.7463   -0.8900    0.1453 H   0  0  0  0  0  0  0  0  0  0  0  0
    0.5433    1.3573   -1.7802 C   0  0  0  0  0  0  0  0  0  0  0  0
    0.5433    1.3573   -0.4564 C   0  0  0  0  0  0  0  0  0  0  0  0
    0.5433    2.5795    0.4041 C   0  0  0  0  0  0  0  0  0  0  0  0
    0.5433    0.4346   -2.3466 H   0  0  0  0  0  0  0  0  0  0  0  0
    0.5433    2.2829   -2.3462 H   0  0  0  0  0  0  0  0  0  0  0  0
    0.5433    0.2141    0.1718 H   0  0  0  0  0  0  0  0  0  0  0  0
   -0.3345    2.5966    1.0553 H   0  0  0  0  0  0  0  0  0  0  0  0
    0.5433    3.4899   -0.1965 H   0  0  0  0  0  0  0  0  0  0  0  0
    1.4210    2.5966    1.0553 H   0  0  0  0  0  0  0  0  0  0  0  0
  1  2  1  0
  1  3  1  0
  1  4  1  0
  2  5  1  0
  6  7  2  3
  6  9  1  0
  6 10  1  0
  7  8  1  0
  7 11  1  0
  8 12  1  0
  8 13  1  0
  8 14  1  0
M  RAD  1   1   2
M  END
>  <reaction>  (8) 
rxn_1624

>  <mol_properties>  (8) 
{"0": {"label": "*1", "atom_type": "Cs"}, "1": {"label": "*0", "atom_type": "S2s"}, "5": {"label": "*4", "atom_type": "Cd"}, "6": {"label": "*3", "atom_type": "Cd"}, "10": {"label": "*2", "atom_type": "H0"}}

>  <type>  (8) 
unop_4

>  <geom_source>  (8) 
Heuristics

$$$$

     RDKit          3D

 14 12  0  0  0  0  0  0  0  0999 V2000
   -0.0124   -1.3652   -0.0051 C   0  0  0  0  0  3  0  0  0  0  0  0
   -0.0124   -1.1313    1.7904 S   0  0  0  0  0  0  0  0  0  0  0  0
   -0.9331   -1.8947   -0.2447 H   0  0  0  0  0  0  0  0  0  0  0  0
    0.8320   -1.9717   -0.3259 H   0  0  0  0  0  0  0  0  0  0  0  0
    1.1579   -0.4870    1.8743 H   0  0  0  0  0  0  0  0  0  0  0  0
   -0.0124    0.9222   -2.5859 C   0  0  0  0  0  0  0  0  0  0  0  0
   -0.0124    0.9222   -1.2621 C   0  0  0  0  0  0  0  0  0  0  0  0
   -0.0124    2.1444   -0.4016 C   0  0  0  0  0  0  0  0  0  0  0  0
   -0.0124   -0.0005   -3.1524 H   0  0  0  0  0  0  0  0  0  0  0  0
   -0.0124    1.8478   -3.1519 H   0  0  0  0  0  0  0  0  0  0  0  0
   -0.0124   -0.2209   -0.6339 H   0  0  0  0  0  0  0  0  0  0  0  0
   -0.8901    2.1615    0.2496 H   0  0  0  0  0  0  0  0  0  0  0  0
   -0.0124    3.0548   -1.0022 H   0  0  0  0  0  0  0  0  0  0  0  0
    0.8653    2.1615    0.2496 H   0  0  0  0  0  0  0  0  0  0  0  0
  1  2  1  0
  1  3  1  0
  1  4  1  0
  2  5  1  0
  6  7  2  3
  6  9  1  0
  6 10  1  0
  7  8  1  0
  7 11  1  0
  8 12  1  0
  8 13  1  0
  8 14  1  0
M  RAD  1   1   2
M  END
>  <reaction>  (9) 
rxn_1624

>  <mol_properties>  (9) 
{"0": {"label": "*1", "atom_type": "Cs"}, "1": {"label": "*0", "atom_type": "S2s"}, "5": {"label": "*4", "atom_type": "Cd"}, "6": {"label": "*3", "atom_type": "Cd"}, "10": {"label": "*2", "atom_type": "H0"}}

>  <type>  (9) 
unop_5

>  <geom_source>  (9) 
Heuristics

$$$$

     RDKit          3D

 14 12  0  0  0  0  0  0  0  0999 V2000
    0.6204   -1.0813    0.5287 C   0  0  0  0  0  3  0  0  0  0  0  0
   -1.0658   -1.6596    0.8465 S   0  0  0  0  0  0  0  0  0  0  0  0
    1.2575   -1.9637    0.5604 H   0  0  0  0  0  0  0  0  0  0  0  0
    0.9517   -0.3846    1.2958 H   0  0  0  0  0  0  0  0  0  0  0  0
   -1.6684   -0.4670    0.7671 H   0  0  0  0  0  0  0  0  0  0  0  0
    0.6204    1.2060   -2.0521 C   0  0  0  0  0  0  0  0  0  0  0  0
    0.6204    1.2060   -0.7283 C   0  0  0  0  0  0  0  0  0  0  0  0
    0.6204    2.4282    0.1322 C   0  0  0  0  0  0  0  0  0  0  0  0
    0.6204    0.2833   -2.6186 H   0  0  0  0  0  0  0  0  0  0  0  0
    0.6204    2.1316   -2.6181 H   0  0  0  0  0  0  0  0  0  0  0  0
    0.6204    0.0629   -0.1001 H   0  0  0  0  0  0  0  0  0  0  0  0
   -0.2573    2.4453    0.7834 H   0  0  0  0  0  0  0  0  0  0  0  0
    0.6204    3.3387   -0.4684 H   0  0  0  0  0  0  0  0  0  0  0  0
    1.4981    2.4453    0.7834 H   0  0  0  0  0  0  0  0  0  0  0  0
  1  2  1  0
  1  3  1  0
  1  4  1  0
  2  5  1  0
  6  7  2  3
  6  9  1  0
  6 10  1  0
  7  8  1  0
  7 11  1  0
  8 12  1  0
  8 13  1  0
  8 14  1  0
M  RAD  1   1   2
M  END
>  <reaction>  (10) 
rxn_1624

>  <mol_properties>  (10) 
{"0": {"label": "*1", "atom_type": "Cs"}, "1": {"label": "*0", "atom_type": "S2s"}, "5": {"label": "*4", "atom_type": "Cd"}, "6": {"label": "*3", "atom_type": "Cd"}, "10": {"label": "*2", "atom_type": "H0"}}

>  <type>  (10) 
unop_6

>  <geom_source>  (10) 
Heuristics

$$$$

     RDKit          3D

 14 12  0  0  0  0  0  0  0  0999 V2000
    0.5310   -1.2300    0.2584 C   0  0  0  0  0  3  0  0  0  0  0  0
   -0.9292   -1.4022    1.3150 S   0  0  0  0  0  0  0  0  0  0  0  0
    0.8897   -2.2397    0.0653 H   0  0  0  0  0  0  0  0  0  0  0  0
    1.3185   -0.6702    0.7585 H   0  0  0  0  0  0  0  0  0  0  0  0
   -1.2057   -0.0976    1.4306 H   0  0  0  0  0  0  0  0  0  0  0  0
    0.5310    1.0574   -2.3224 C   0  0  0  0  0  0  0  0  0  0  0  0
    0.5310    1.0574   -0.9986 C   0  0  0  0  0  0  0  0  0  0  0  0
    0.5310    2.2795   -0.1381 C   0  0  0  0  0  0  0  0  0  0  0  0
    0.5310    0.1346   -2.8889 H   0  0  0  0  0  0  0  0  0  0  0  0
    0.5310    1.9830   -2.8884 H   0  0  0  0  0  0  0  0  0  0  0  0
    0.5310   -0.0858   -0.3704 H   0  0  0  0  0  0  0  0  0  0  0  0
   -0.3467    2.2967    0.5131 H   0  0  0  0  0  0  0  0  0  0  0  0
    0.5310    3.1900   -0.7387 H   0  0  0  0  0  0  0  0  0  0  0  0
    1.4087    2.2967    0.5131 H   0  0  0  0  0  0  0  0  0  0  0  0
  1  2  1  0
  1  3  1  0
  1  4  1  0
  2  5  1  0
  6  7  2  3
  6  9  1  0
  6 10  1  0
  7  8  1  0
  7 11  1  0
  8 12  1  0
  8 13  1  0
  8 14  1  0
M  RAD  1   1   2
M  END
>  <reaction>  (11) 
rxn_1624

>  <mol_properties>  (11) 
{"0": {"label": "*1", "atom_type": "Cs"}, "1": {"label": "*0", "atom_type": "S2s"}, "5": {"label": "*4", "atom_type": "Cd"}, "6": {"label": "*3", "atom_type": "Cd"}, "10": {"label": "*2", "atom_type": "H0"}}

>  <type>  (11) 
unop_7

>  <geom_source>  (11) 
Heuristics

$$$$

     RDKit          3D

 14 12  0  0  0  0  0  0  0  0999 V2000
   -0.6146   -1.0593    0.5384 C   0  0  0  0  0  3  0  0  0  0  0  0
    1.0715   -1.6375    0.8562 S   0  0  0  0  0  0  0  0  0  0  0  0
   -0.8255   -0.3021    1.2918 H   0  0  0  0  0  0  0  0  0  0  0  0
   -1.3369   -1.8661    0.6436 H   0  0  0  0  0  0  0  0  0  0  0  0
    1.1323   -2.5290   -0.1406 H   0  0  0  0  0  0  0  0  0  0  0  0
   -0.6146    1.2281   -2.0424 C   0  0  0  0  0  0  0  0  0  0  0  0
   -0.6146    1.2281   -0.7186 C   0  0  0  0  0  0  0  0  0  0  0  0
   -0.6146    2.4503    0.1419 C   0  0  0  0  0  0  0  0  0  0  0  0
   -0.6146    0.3053   -2.6089 H   0  0  0  0  0  0  0  0  0  0  0  0
   -0.6146    2.1537   -2.6084 H   0  0  0  0  0  0  0  0  0  0  0  0
   -0.6146    0.0849   -0.0904 H   0  0  0  0  0  0  0  0  0  0  0  0
   -1.4924    2.4674    0.7931 H   0  0  0  0  0  0  0  0  0  0  0  0
   -0.6146    3.3607   -0.4587 H   0  0  0  0  0  0  0  0  0  0  0  0
    0.2631    2.4674    0.7931 H   0  0  0  0  0  0  0  0  0  0  0  0
  1  2  1  0
  1  3  1  0
  1  4  1  0
  2  5  1  0
  6  7  2  3
  6  9  1  0
  6 10  1  0
  7  8  1  0
  7 11  1  0
  8 12  1  0
  8 13  1  0
  8 14  1  0
M  RAD  1   1   2
M  END
>  <reaction>  (12) 
rxn_1624

>  <mol_properties>  (12) 
{"0": {"label": "*1", "atom_type": "Cs"}, "1": {"label": "*0", "atom_type": "S2s"}, "5": {"label": "*4", "atom_type": "Cd"}, "6": {"label": "*3", "atom_type": "Cd"}, "10": {"label": "*2", "atom_type": "H0"}}

>  <type>  (12) 
unop_8

>  <geom_source>  (12) 
Heuristics

$$$$

     RDKit          3D

 14 12  0  0  0  0  0  0  0  0999 V2000
    0.3208   -0.8165    1.0012 C   0  0  0  0  0  3  0  0  0  0  0  0
   -0.5223   -2.0980    0.0393 S   0  0  0  0  0  0  0  0  0  0  0  0
    1.2260   -1.2755    1.3953 H   0  0  0  0  0  0  0  0  0  0  0  0
   -0.2910   -0.4802    1.8357 H   0  0  0  0  0  0  0  0  0  0  0  0
   -1.5694   -1.3570   -0.3434 H   0  0  0  0  0  0  0  0  0  0  0  0
    0.3208    1.4709   -1.5795 C   0  0  0  0  0  0  0  0  0  0  0  0
    0.3208    1.4709   -0.2558 C   0  0  0  0  0  0  0  0  0  0  0  0
    0.3208    2.6931    0.6047 C   0  0  0  0  0  0  0  0  0  0  0  0
    0.3208    0.5482   -2.1460 H   0  0  0  0  0  0  0  0  0  0  0  0
    0.3208    2.3965   -2.1455 H   0  0  0  0  0  0  0  0  0  0  0  0
    0.3208    0.3278    0.3724 H   0  0  0  0  0  0  0  0  0  0  0  0
   -0.5569    2.7102    1.2559 H   0  0  0  0  0  0  0  0  0  0  0  0
    0.3208    3.6035    0.0041 H   0  0  0  0  0  0  0  0  0  0  0  0
    1.1985    2.7102    1.2559 H   0  0  0  0  0  0  0  0  0  0  0  0
  1  2  1  0
  1  3  1  0
  1  4  1  0
  2  5  1  0
  6  7  2  3
  6  9  1  0
  6 10  1  0
  7  8  1  0
  7 11  1  0
  8 12  1  0
  8 13  1  0
  8 14  1  0
M  RAD  1   1   2
M  END
>  <reaction>  (13) 
rxn_1624

>  <mol_properties>  (13) 
{"0": {"label": "*1", "atom_type": "Cs"}, "1": {"label": "*0", "atom_type": "S2s"}, "5": {"label": "*4", "atom_type": "Cd"}, "6": {"label": "*3", "atom_type": "Cd"}, "10": {"label": "*2", "atom_type": "H0"}}

>  <type>  (13) 
unop_9

>  <geom_source>  (13) 
Heuristics

$$$$

     RDKit          3D

 14 12  0  0  0  0  0  0  0  0999 V2000
   -0.5286   -0.9118    0.8087 C   0  0  0  0  0  3  0  0  0  0  0  0
    0.9316   -1.8961    0.3876 S   0  0  0  0  0  0  0  0  0  0  0  0
   -0.2335   -0.2633    1.6320 H   0  0  0  0  0  0  0  0  0  0  0  0
   -1.3504   -1.5433    1.1399 H   0  0  0  0  0  0  0  0  0  0  0  0
    0.3770   -2.5994   -0.6072 H   0  0  0  0  0  0  0  0  0  0  0  0
   -0.5286    1.3756   -1.7721 C   0  0  0  0  0  0  0  0  0  0  0  0
   -0.5286    1.3756   -0.4484 C   0  0  0  0  0  0  0  0  0  0  0  0
   -0.5286    2.5978    0.4122 C   0  0  0  0  0  0  0  0  0  0  0  0
   -0.5286    0.4529   -2.3386 H   0  0  0  0  0  0  0  0  0  0  0  0
   -0.5286    2.3012   -2.3381 H   0  0  0  0  0  0  0  0  0  0  0  0
   -0.5286    0.2324    0.1799 H   0  0  0  0  0  0  0  0  0  0  0  0
   -1.4063    2.6149    1.0634 H   0  0  0  0  0  0  0  0  0  0  0  0
   -0.5286    3.5082   -0.1884 H   0  0  0  0  0  0  0  0  0  0  0  0
    0.3491    2.6149    1.0634 H   0  0  0  0  0  0  0  0  0  0  0  0
  1  2  1  0
  1  3  1  0
  1  4  1  0
  2  5  1  0
  6  7  2  3
  6  9  1  0
  6 10  1  0
  7  8  1  0
  7 11  1  0
  8 12  1  0
  8 13  1  0
  8 14  1  0
M  RAD  1   1   2
M  END
>  <reaction>  (14) 
rxn_1624

>  <mol_properties>  (14) 
{"0": {"label": "*1", "atom_type": "Cs"}, "1": {"label": "*0", "atom_type": "S2s"}, "5": {"label": "*4", "atom_type": "Cd"}, "6": {"label": "*3", "atom_type": "Cd"}, "10": {"label": "*2", "atom_type": "H0"}}

>  <type>  (14) 
unop_10

>  <geom_source>  (14) 
Heuristics

$$$$

     RDKit          3D

 14 12  0  0  0  0  0  0  0  0999 V2000
    0.2984   -1.3349    0.0627 C   0  0  0  0  0  3  0  0  0  0  0  0
   -0.5447   -1.2099    1.6602 S   0  0  0  0  0  0  0  0  0  0  0  0
    0.1117   -2.3431   -0.3036 H   0  0  0  0  0  0  0  0  0  0  0  0
    1.3722   -1.1961    0.1692 H   0  0  0  0  0  0  0  0  0  0  0  0
   -0.2039    0.0562    1.9296 H   0  0  0  0  0  0  0  0  0  0  0  0
    0.2984    0.9525   -2.5181 C   0  0  0  0  0  0  0  0  0  0  0  0
    0.2984    0.9525   -1.1943 C   0  0  0  0  0  0  0  0  0  0  0  0
    0.2984    2.1746   -0.3338 C   0  0  0  0  0  0  0  0  0  0  0  0
    0.2984    0.0297   -3.0845 H   0  0  0  0  0  0  0  0  0  0  0  0
    0.2984    1.8781   -3.0841 H   0  0  0  0  0  0  0  0  0  0  0  0
    0.2984   -0.1907   -0.5661 H   0  0  0  0  0  0  0  0  0  0  0  0
   -0.5794    2.1917    0.3174 H   0  0  0  0  0  0  0  0  0  0  0  0
    0.2984    3.0851   -0.9344 H   0  0  0  0  0  0  0  0  0  0  0  0
    1.1761    2.1917    0.3174 H   0  0  0  0  0  0  0  0  0  0  0  0
  1  2  1  0
  1  3  1  0
  1  4  1  0
  2  5  1  0
  6  7  2  3
  6  9  1  0
  6 10  1  0
  7  8  1  0
  7 11  1  0
  8 12  1  0
  8 13  1  0
  8 14  1  0
M  RAD  1   1   2
M  END
>  <reaction>  (15) 
rxn_1624

>  <mol_properties>  (15) 
{"0": {"label": "*1", "atom_type": "Cs"}, "1": {"label": "*0", "atom_type": "S2s"}, "5": {"label": "*4", "atom_type": "Cd"}, "6": {"label": "*3", "atom_type": "Cd"}, "10": {"label": "*2", "atom_type": "H0"}}

>  <type>  (15) 
unop_11

>  <geom_source>  (15) 
Heuristics

$$$$

     RDKit          3D

 14 12  0  0  0  0  0  0  0  0999 V2000
    0.0124   -0.7707    1.0765 C   0  0  0  0  0  3  0  0  0  0  0  0
    0.0124   -2.1611   -0.0834 S   0  0  0  0  0  0  0  0  0  0  0  0
    0.9331   -0.8524    1.6520 H   0  0  0  0  0  0  0  0  0  0  0  0
   -0.8320   -0.8250    1.7605 H   0  0  0  0  0  0  0  0  0  0  0  0
   -1.1579   -1.8864   -0.6723 H   0  0  0  0  0  0  0  0  0  0  0  0
    0.0124    1.5166   -1.5042 C   0  0  0  0  0  0  0  0  0  0  0  0
    0.0124    1.5166   -0.1805 C   0  0  0  0  0  0  0  0  0  0  0  0
    0.0124    2.7388    0.6800 C   0  0  0  0  0  0  0  0  0  0  0  0
    0.0124    0.5939   -2.0707 H   0  0  0  0  0  0  0  0  0  0  0  0
    0.0124    2.4422   -2.0702 H   0  0  0  0  0  0  0  0  0  0  0  0
    0.0124    0.3735    0.4477 H   0  0  0  0  0  0  0  0  0  0  0  0
   -0.8653    2.7559    1.3313 H   0  0  0  0  0  0  0  0  0  0  0  0
    0.0124    3.6493    0.0794 H   0  0  0  0  0  0  0  0  0  0  0  0
    0.8901    2.7559    1.3313 H   0  0  0  0  0  0  0  0  0  0  0  0
  1  2  1  0
  1  3  1  0
  1  4  1  0
  2  5  1  0
  6  7  2  3
  6  9  1  0
  6 10  1  0
  7  8  1  0
  7 11  1  0
  8 12  1  0
  8 13  1  0
  8 14  1  0
M  RAD  1   1   2
M  END
>  <reaction>  (16) 
rxn_1624

>  <mol_properties>  (16) 
{"0": {"label": "*1", "atom_type": "Cs"}, "1": {"label": "*0", "atom_type": "S2s"}, "5": {"label": "*4", "atom_type": "Cd"}, "6": {"label": "*3", "atom_type": "Cd"}, "10": {"label": "*2", "atom_type": "H0"}}

>  <type>  (16) 
unop_12

>  <geom_source>  (16) 
Heuristics

$$$$

     RDKit          3D

 14 12  0  0  0  0  0  0  0  0999 V2000
    3.0823    0.3943   -0.5226 S   0  0  0  0  0  0  0  0  0  0  0  0
   -1.4438    0.3333   -1.0111 C   0  0  0  0  0  0  0  0  0  0  0  0
    1.5890   -0.6027   -0.2611 C   0  0  0  0  0  3  0  0  0  0  0  0
   -1.2942    0.0605    1.4405 C   0  0  0  0  0  0  0  0  0  0  0  0
   -0.7170    0.4180    0.2928 C   0  0  0  0  0  0  0  0  0  0  0  0
    1.7784   -1.3562    0.5310 H   0  0  0  0  0  0  0  0  0  0  0  0
    1.3215   -1.1204   -1.2051 H   0  0  0  0  0  0  0  0  0  0  0  0
    0.5348    0.2279    0.1275 H   0  0  0  0  0  0  0  0  0  0  0  0
   -2.3465    0.9797   -0.9861 H   0  0  0  0  0  0  0  0  0  0  0  0
   -1.7440   -0.7169   -1.2116 H   0  0  0  0  0  0  0  0  0  0  0  0
   -0.7739    0.6794   -1.8248 H   0  0  0  0  0  0  0  0  0  0  0  0
   -0.7367    0.1353    2.3674 H   0  0  0  0  0  0  0  0  0  0  0  0
   -2.3165   -0.3054    1.4622 H   0  0  0  0  0  0  0  0  0  0  0  0
    3.0666    0.8732    0.8010 H   0  0  0  0  0  0  0  0  0  0  0  0
  1  3  1  0
  1 14  1  0
  2  5  1  0
  2  9  1  0
  2 10  1  0
  2 11  1  0
  3  6  1  0
  3  7  1  0
  4  5  2  3
  4 12  1  0
  4 13  1  0
  5  8  1  0
M  RAD  1   3   2
M  END
>  <reaction>  (17) 
rxn_1624

>  <mol_properties>  (17) 
{"0": {"label": "*1", "atom_type": "Cs"}, "1": {"label": "*0", "atom_type": "S2s"}, "5": {"label": "*4", "atom_type": "Cd"}, "6": {"label": "*3", "atom_type": "Cd"}, "10": {"label": "*2", "atom_type": "H0"}}

>  <type>  (17) 
unop_13

>  <geom_source>  (17) 
AutoTST

$$$$
