
     RDKit          3D

 13 12  0  0  0  0  0  0  0  0999 V2000
    2.2975   -0.6134    0.7685 C   0  0  0  0  0  0  0  0  0  0  0  0
    1.1676   -0.5248    0.3802 C   0  0  0  0  0  0  0  0  0  0  0  0
   -0.2109   -0.3926   -0.0948 C   0  0  0  0  0  0  0  0  0  0  0  0
   -0.2501    0.2584   -1.4808 C   0  0  0  0  0  0  0  0  0  0  0  0
   -1.0633    0.3831    0.9141 C   0  0  0  0  0  0  0  0  0  0  0  0
    3.2999   -0.6974    1.1133 H   0  0  0  0  0  0  0  0  0  0  0  0
   -0.6209   -1.4038   -0.1814 H   0  0  0  0  0  0  0  0  0  0  0  0
    0.3402   -0.3102   -2.1992 H   0  0  0  0  0  0  0  0  0  0  0  0
    0.1511    1.2724   -1.4369 H   0  0  0  0  0  0  0  0  0  0  0  0
   -1.2791    0.3109   -1.8407 H   0  0  0  0  0  0  0  0  0  0  0  0
   -0.6861    1.4008    1.0287 H   0  0  0  0  0  0  0  0  0  0  0  0
   -1.0492   -0.0971    1.8924 H   0  0  0  0  0  0  0  0  0  0  0  0
   -2.0971    0.4363    0.5680 H   0  0  0  0  0  0  0  0  0  0  0  0
  1  2  3  0
  1  6  1  0
  2  3  1  0
  3  4  1  0
  3  5  1  0
  3  7  1  0
  4  8  1  0
  4  9  1  0
  4 10  1  0
  5 11  1  0
  5 12  1  0
  5 13  1  0
M  END
>  <reaction>  (1) 
rxn_1336

>  <mol_properties>  (1) 
{"2": {"label": "donator", "atom_type": "Cs"}, "6": {"label": "d_hydrogen", "atom_type": "H0"}}

>  <type>  (1) 
r1h

$$$$

     RDKit          3D

  7  6  0  0  0  0  0  0  0  0999 V2000
   -2.0652    0.3855   -0.2963 S   0  0  0  0  0  0  0  0  0  0  0  0
   -0.7169   -0.5853    0.1792 C   0  0  0  0  0  3  0  0  0  0  0  0
    0.5987   -0.2168    0.0254 C   0  0  0  0  0  0  0  0  0  0  0  0
    1.7547    0.1211   -0.1163 C   0  0  0  0  0  0  0  0  0  0  0  0
   -1.3643    1.4227   -0.7731 H   0  0  0  0  0  0  0  0  0  0  0  0
   -0.9781   -1.5363    0.6220 H   0  0  0  0  0  0  0  0  0  0  0  0
    2.7711    0.4089   -0.2366 H   0  0  0  0  0  0  0  0  0  0  0  0
  1  2  1  0
  1  5  1  0
  2  3  1  0
  2  6  1  0
  3  4  3  0
  4  7  1  0
M  RAD  1   2   2
M  END
>  <reaction>  (2) 
rxn_1336

>  <mol_properties>  (2) 
{"1": {"label": "acceptor", "atom_type": "Cs"}}

>  <type>  (2) 
r2

$$$$

     RDKit          3D

  8  7  0  0  0  0  0  0  0  0999 V2000
   -0.7014    1.0753    1.5530 S   0  0  0  0  0  0  0  0  0  0  0  0
   -0.3105   -0.4583    0.6462 C   0  0  0  0  0  0  0  0  0  0  0  0
    0.0935   -0.2424   -0.7319 C   0  0  0  0  0  0  0  0  0  0  0  0
    0.4431   -0.0604   -1.8621 C   0  0  0  0  0  0  0  0  0  0  0  0
    0.4994    1.6466    1.3970 H   0  0  0  0  0  0  0  0  0  0  0  0
   -1.2277   -1.0477    0.6819 H   0  0  0  0  0  0  0  0  0  0  0  0
    0.4563   -1.0151    1.1841 H   0  0  0  0  0  0  0  0  0  0  0  0
    0.7474    0.1020   -2.8681 H   0  0  0  0  0  0  0  0  0  0  0  0
  1  2  1  0
  1  5  1  0
  2  3  1  0
  2  6  1  0
  2  7  1  0
  3  4  3  0
  4  8  1  0
M  END
>  <reaction>  (3) 
rxn_1336

>  <mol_properties>  (3) 
{"1": {"label": "acceptor", "atom_type": "Cs"}, "7": {"label": "a_hydrogen", "atom_type": "H0"}}

>  <type>  (3) 
r2h

$$$$

     RDKit          3D

 20 18  0  0  0  0  0  0  0  0999 V2000
    1.6257   -1.6992    0.2428 S   0  0  0  0  0  0  0  0  0  0  0  0
    0.3462   -0.9121    1.2024 C   0  0  0  0  0  3  0  0  0  0  0  0
   -0.9631   -1.4663    1.1597 C   0  0  0  0  0  0  0  0  0  0  0  0
   -2.0916   -1.8705    1.0713 C   0  0  0  0  0  0  0  0  0  0  0  0
    0.9721   -1.6507   -0.9269 H   0  0  0  0  0  0  0  0  0  0  0  0
    0.7183   -0.7045    2.2032 H   0  0  0  0  0  0  0  0  0  0  0  0
   -3.0835   -2.2478    1.0059 H   0  0  0  0  0  0  0  0  0  0  0  0
   -0.2637    0.8340   -2.4201 C   0  0  0  0  0  0  0  0  0  0  0  0
   -0.1045    1.1820   -1.2791 C   0  0  0  0  0  0  0  0  0  0  0  0
    0.0864    1.5272    0.0935 C   0  0  0  0  0  0  0  0  0  0  0  0
   -1.1293    2.1025    0.7886 C   0  0  0  0  0  0  0  0  0  0  0  0
    1.4063    2.1959    0.4132 C   0  0  0  0  0  0  0  0  0  0  0  0
   -0.4090    0.5497   -3.4344 H   0  0  0  0  0  0  0  0  0  0  0  0
    0.2143    0.3234    0.6654 H   0  0  0  0  0  0  0  0  0  0  0  0
   -2.0101    1.4864    0.6087 H   0  0  0  0  0  0  0  0  0  0  0  0
   -1.3386    3.1141    0.4287 H   0  0  0  0  0  0  0  0  0  0  0  0
   -0.9571    2.1562    1.8654 H   0  0  0  0  0  0  0  0  0  0  0  0
    1.4335    3.2123    0.0100 H   0  0  0  0  0  0  0  0  0  0  0  0
    2.2402    1.6378   -0.0127 H   0  0  0  0  0  0  0  0  0  0  0  0
    1.5443    2.2592    1.4944 H   0  0  0  0  0  0  0  0  0  0  0  0
  1  2  1  0
  1  5  1  0
  2  3  1  0
  2  6  1  0
  3  4  3  0
  4  7  1  0
  8  9  3  0
  8 13  1  0
  9 10  1  0
 10 11  1  0
 10 12  1  0
 10 14  1  0
 11 15  1  0
 11 16  1  0
 11 17  1  0
 12 18  1  0
 12 19  1  0
 12 20  1  0
M  RAD  1   2   2
M  END
>  <reaction>  (4) 
rxn_1336

>  <mol_properties>  (4) 
{"0": {"label": "*4", "atom_type": "S2s"}, "1": {"label": "*3", "atom_type": "Cs"}, "8": {"label": "*0", "atom_type": "Ct"}, "9": {"label": "*1", "atom_type": "Cs"}, "13": {"label": "*2", "atom_type": "H0"}}

>  <type>  (4) 
ts

$$$$

     RDKit          3D

 20 18  0  0  0  0  0  0  0  0999 V2000
    1.3098   -1.1610    1.5304 S   0  0  0  0  0  0  0  0  0  0  0  0
   -0.2165   -0.9875    0.5467 C   0  0  0  0  0  0  0  0  0  0  0  0
   -0.7362   -2.2441    0.0370 C   0  0  0  0  0  0  0  0  0  0  0  0
   -1.1645   -3.2799   -0.3832 C   0  0  0  0  0  0  0  0  0  0  0  0
    0.7962   -1.9862    2.4511 H   0  0  0  0  0  0  0  0  0  0  0  0
   -0.9774   -0.4810    1.1397 H   0  0  0  0  0  0  0  0  0  0  0  0
   -1.5451   -4.2001   -0.7565 H   0  0  0  0  0  0  0  0  0  0  0  0
   -0.2164    1.4816   -2.9295 C   0  0  0  0  0  0  0  0  0  0  0  0
   -0.2164    1.4816   -1.7315 C   0  0  0  0  0  0  0  0  0  0  0  0
   -0.2164    1.5055   -0.2676 C   0  0  0  0  0  3  0  0  0  0  0  0
   -1.4825    2.1820    0.2667 C   0  0  0  0  0  0  0  0  0  0  0  0
    1.0497    2.1819    0.2667 C   0  0  0  0  0  0  0  0  0  0  0  0
   -0.2164    1.4816   -3.9929 H   0  0  0  0  0  0  0  0  0  0  0  0
   -0.2165    0.2568    0.1402 H   0  0  0  0  0  0  0  0  0  0  0  0
   -2.3796    1.6827   -0.0992 H   0  0  0  0  0  0  0  0  0  0  0  0
   -1.5199    3.2255   -0.0508 H   0  0  0  0  0  0  0  0  0  0  0  0
   -1.4899    2.1540    1.3578 H   0  0  0  0  0  0  0  0  0  0  0  0
    1.0871    3.2254   -0.0508 H   0  0  0  0  0  0  0  0  0  0  0  0
    1.9467    1.6826   -0.0992 H   0  0  0  0  0  0  0  0  0  0  0  0
    1.0570    2.1539    1.3578 H   0  0  0  0  0  0  0  0  0  0  0  0
  1  2  1  0
  1  5  1  0
  2  3  1  0
  2  6  1  0
  2 14  1  0
  3  4  3  0
  4  7  1  0
  8  9  3  0
  8 13  1  0
  9 10  1  0
 10 11  1  0
 10 12  1  0
 11 15  1  0
 11 16  1  0
 11 17  1  0
 12 18  1  0
 12 19  1  0
 12 20  1  0
M  RAD  1  10   2
M  END
>  <reaction>  (5) 
rxn_1336

>  <mol_properties>  (5) 
{"0": {"label": "*4", "atom_type": "S2s"}, "1": {"label": "*3", "atom_type": "Cs"}, "8": {"label": "*0", "atom_type": "Ct"}, "9": {"label": "*1", "atom_type": "Cs"}, "13": {"label": "*2", "atom_type": "H0"}}

>  <type>  (5) 
unop_1

>  <geom_source>  (5) 
Heuristics

$$$$

     RDKit          3D

 20 18  0  0  0  0  0  0  0  0999 V2000
    0.9709   -1.8760   -0.4869 S   0  0  0  0  0  0  0  0  0  0  0  0
    0.0897   -0.9551    0.8179 C   0  0  0  0  0  0  0  0  0  0  0  0
   -1.0756   -1.6447    1.3428 C   0  0  0  0  0  0  0  0  0  0  0  0
   -2.0360   -2.2131    1.7756 C   0  0  0  0  0  0  0  0  0  0  0  0
    1.2303   -2.9622    0.2517 H   0  0  0  0  0  0  0  0  0  0  0  0
    0.7799   -0.7176    1.6268 H   0  0  0  0  0  0  0  0  0  0  0  0
   -2.8893   -2.7181    2.1600 H   0  0  0  0  0  0  0  0  0  0  0  0
    0.0897    1.5140   -2.6584 C   0  0  0  0  0  0  0  0  0  0  0  0
    0.0897    1.5140   -1.4603 C   0  0  0  0  0  0  0  0  0  0  0  0
    0.0897    1.5379    0.0035 C   0  0  0  0  0  3  0  0  0  0  0  0
   -1.1764    2.2144    0.5378 C   0  0  0  0  0  0  0  0  0  0  0  0
    1.3559    2.2144    0.5378 C   0  0  0  0  0  0  0  0  0  0  0  0
    0.0897    1.5140   -3.7217 H   0  0  0  0  0  0  0  0  0  0  0  0
    0.0897    0.2893    0.4114 H   0  0  0  0  0  0  0  0  0  0  0  0
   -2.0734    1.7151    0.1719 H   0  0  0  0  0  0  0  0  0  0  0  0
   -1.2137    3.2579    0.2203 H   0  0  0  0  0  0  0  0  0  0  0  0
   -1.1837    2.1864    1.6289 H   0  0  0  0  0  0  0  0  0  0  0  0
    1.3932    3.2579    0.2203 H   0  0  0  0  0  0  0  0  0  0  0  0
    2.2529    1.7150    0.1719 H   0  0  0  0  0  0  0  0  0  0  0  0
    1.3632    2.1864    1.6289 H   0  0  0  0  0  0  0  0  0  0  0  0
  1  2  1  0
  1  5  1  0
  2  3  1  0
  2  6  1  0
  2 14  1  0
  3  4  3  0
  4  7  1  0
  8  9  3  0
  8 13  1  0
  9 10  1  0
 10 11  1  0
 10 12  1  0
 11 15  1  0
 11 16  1  0
 11 17  1  0
 12 18  1  0
 12 19  1  0
 12 20  1  0
M  RAD  1  10   2
M  END
>  <reaction>  (6) 
rxn_1336

>  <mol_properties>  (6) 
{"0": {"label": "*4", "atom_type": "S2s"}, "1": {"label": "*3", "atom_type": "Cs"}, "8": {"label": "*0", "atom_type": "Ct"}, "9": {"label": "*1", "atom_type": "Cs"}, "13": {"label": "*2", "atom_type": "H0"}}

>  <type>  (6) 
unop_2

>  <geom_source>  (6) 
Heuristics

$$$$

     RDKit          3D

 20 18  0  0  0  0  0  0  0  0999 V2000
    0.6289   -1.0150    2.0725 S   0  0  0  0  0  0  0  0  0  0  0  0
   -0.2523   -1.0418    0.4756 C   0  0  0  0  0  0  0  0  0  0  0  0
   -0.0420   -2.2551   -0.2942 C   0  0  0  0  0  0  0  0  0  0  0  0
    0.1313   -3.2552   -0.9288 C   0  0  0  0  0  0  0  0  0  0  0  0
    0.0584   -2.1185    2.5718 H   0  0  0  0  0  0  0  0  0  0  0  0
   -1.3174   -0.8853    0.6437 H   0  0  0  0  0  0  0  0  0  0  0  0
    0.2853   -4.1437   -1.4925 H   0  0  0  0  0  0  0  0  0  0  0  0
   -0.2523    1.4272   -3.0006 C   0  0  0  0  0  0  0  0  0  0  0  0
   -0.2523    1.4272   -1.8025 C   0  0  0  0  0  0  0  0  0  0  0  0
   -0.2523    1.4512   -0.3387 C   0  0  0  0  0  3  0  0  0  0  0  0
   -1.5184    2.1277    0.1956 C   0  0  0  0  0  0  0  0  0  0  0  0
    1.0139    2.1276    0.1956 C   0  0  0  0  0  0  0  0  0  0  0  0
   -0.2523    1.4272   -4.0639 H   0  0  0  0  0  0  0  0  0  0  0  0
   -0.2523    0.2025    0.0692 H   0  0  0  0  0  0  0  0  0  0  0  0
   -2.4154    1.6283   -0.1703 H   0  0  0  0  0  0  0  0  0  0  0  0
   -1.5557    3.1712   -0.1219 H   0  0  0  0  0  0  0  0  0  0  0  0
   -1.5257    2.0996    1.2867 H   0  0  0  0  0  0  0  0  0  0  0  0
    1.0512    3.1711   -0.1219 H   0  0  0  0  0  0  0  0  0  0  0  0
    1.9109    1.6283   -0.1703 H   0  0  0  0  0  0  0  0  0  0  0  0
    1.0212    2.0996    1.2867 H   0  0  0  0  0  0  0  0  0  0  0  0
  1  2  1  0
  1  5  1  0
  2  3  1  0
  2  6  1  0
  2 14  1  0
  3  4  3  0
  4  7  1  0
  8  9  3  0
  8 13  1  0
  9 10  1  0
 10 11  1  0
 10 12  1  0
 11 15  1  0
 11 16  1  0
 11 17  1  0
 12 18  1  0
 12 19  1  0
 12 20  1  0
M  RAD  1  10   2
M  END
>  <reaction>  (7) 
rxn_1336

>  <mol_properties>  (7) 
{"0": {"label": "*4", "atom_type": "S2s"}, "1": {"label": "*3", "atom_type": "Cs"}, "8": {"label": "*0", "atom_type": "Ct"}, "9": {"label": "*1", "atom_type": "Cs"}, "13": {"label": "*2", "atom_type": "H0"}}

>  <type>  (7) 
unop_3

>  <geom_source>  (7) 
Heuristics

$$$$

     RDKit          3D

 20 18  0  0  0  0  0  0  0  0999 V2000
   -1.1222   -2.0597   -0.2199 S   0  0  0  0  0  0  0  0  0  0  0  0
    0.4041   -1.3391    0.4717 C   0  0  0  0  0  0  0  0  0  0  0  0
    0.2284   -0.7245    1.7757 C   0  0  0  0  0  0  0  0  0  0  0  0
    0.0837   -0.2180    2.8505 C   0  0  0  0  0  0  0  0  0  0  0  0
   -1.3522   -2.9089    0.7893 H   0  0  0  0  0  0  0  0  0  0  0  0
    1.1795   -2.1031    0.5195 H   0  0  0  0  0  0  0  0  0  0  0  0
   -0.0449    0.2320    3.8055 H   0  0  0  0  0  0  0  0  0  0  0  0
    0.4041    1.1300   -3.0046 C   0  0  0  0  0  0  0  0  0  0  0  0
    0.4041    1.1300   -1.8065 C   0  0  0  0  0  0  0  0  0  0  0  0
    0.4041    1.1540   -0.3427 C   0  0  0  0  0  3  0  0  0  0  0  0
   -0.8620    1.8304    0.1917 C   0  0  0  0  0  0  0  0  0  0  0  0
    1.6702    1.8304    0.1917 C   0  0  0  0  0  0  0  0  0  0  0  0
    0.4041    1.1300   -4.0679 H   0  0  0  0  0  0  0  0  0  0  0  0
    0.4041   -0.0947    0.0652 H   0  0  0  0  0  0  0  0  0  0  0  0
   -1.7591    1.3311   -0.1743 H   0  0  0  0  0  0  0  0  0  0  0  0
   -0.8994    2.8739   -0.1259 H   0  0  0  0  0  0  0  0  0  0  0  0
   -0.8693    1.8024    1.2827 H   0  0  0  0  0  0  0  0  0  0  0  0
    1.7076    2.8739   -0.1259 H   0  0  0  0  0  0  0  0  0  0  0  0
    2.5673    1.3311   -0.1743 H   0  0  0  0  0  0  0  0  0  0  0  0
    1.6776    1.8024    1.2827 H   0  0  0  0  0  0  0  0  0  0  0  0
  1  2  1  0
  1  5  1  0
  2  3  1  0
  2  6  1  0
  2 14  1  0
  3  4  3  0
  4  7  1  0
  8  9  3  0
  8 13  1  0
  9 10  1  0
 10 11  1  0
 10 12  1  0
 11 15  1  0
 11 16  1  0
 11 17  1  0
 12 18  1  0
 12 19  1  0
 12 20  1  0
M  RAD  1  10   2
M  END
>  <reaction>  (8) 
rxn_1336

>  <mol_properties>  (8) 
{"0": {"label": "*4", "atom_type": "S2s"}, "1": {"label": "*3", "atom_type": "Cs"}, "8": {"label": "*0", "atom_type": "Ct"}, "9": {"label": "*1", "atom_type": "Cs"}, "13": {"label": "*2", "atom_type": "H0"}}

>  <type>  (8) 
unop_4

>  <geom_source>  (8) 
Heuristics

$$$$

     RDKit          3D

 20 18  0  0  0  0  0  0  0  0999 V2000
   -0.2928   -1.0855    2.1923 S   0  0  0  0  0  0  0  0  0  0  0  0
   -0.2928   -1.1858    0.3711 C   0  0  0  0  0  0  0  0  0  0  0  0
    0.8487   -1.8935   -0.1812 C   0  0  0  0  0  0  0  0  0  0  0  0
    1.7896   -2.4769   -0.6363 C   0  0  0  0  0  0  0  0  0  0  0  0
   -0.2751   -2.4064    2.4105 H   0  0  0  0  0  0  0  0  0  0  0  0
   -1.2194   -1.6471    0.0308 H   0  0  0  0  0  0  0  0  0  0  0  0
    2.6256   -2.9952   -1.0407 H   0  0  0  0  0  0  0  0  0  0  0  0
   -0.2928    1.2833   -3.1052 C   0  0  0  0  0  0  0  0  0  0  0  0
   -0.2928    1.2833   -1.9071 C   0  0  0  0  0  0  0  0  0  0  0  0
   -0.2928    1.3073   -0.4433 C   0  0  0  0  0  3  0  0  0  0  0  0
   -1.5589    1.9837    0.0910 C   0  0  0  0  0  0  0  0  0  0  0  0
    0.9734    1.9837    0.0910 C   0  0  0  0  0  0  0  0  0  0  0  0
   -0.2928    1.2833   -4.1685 H   0  0  0  0  0  0  0  0  0  0  0  0
   -0.2928    0.0586   -0.0354 H   0  0  0  0  0  0  0  0  0  0  0  0
   -2.4559    1.4844   -0.2749 H   0  0  0  0  0  0  0  0  0  0  0  0
   -1.5962    3.0273   -0.2265 H   0  0  0  0  0  0  0  0  0  0  0  0
   -1.5662    1.9557    1.1821 H   0  0  0  0  0  0  0  0  0  0  0  0
    1.0107    3.0272   -0.2265 H   0  0  0  0  0  0  0  0  0  0  0  0
    1.8704    1.4844   -0.2749 H   0  0  0  0  0  0  0  0  0  0  0  0
    0.9807    1.9557    1.1821 H   0  0  0  0  0  0  0  0  0  0  0  0
  1  2  1  0
  1  5  1  0
  2  3  1  0
  2  6  1  0
  2 14  1  0
  3  4  3  0
  4  7  1  0
  8  9  3  0
  8 13  1  0
  9 10  1  0
 10 11  1  0
 10 12  1  0
 11 15  1  0
 11 16  1  0
 11 17  1  0
 12 18  1  0
 12 19  1  0
 12 20  1  0
M  RAD  1  10   2
M  END
>  <reaction>  (9) 
rxn_1336

>  <mol_properties>  (9) 
{"0": {"label": "*4", "atom_type": "S2s"}, "1": {"label": "*3", "atom_type": "Cs"}, "8": {"label": "*0", "atom_type": "Ct"}, "9": {"label": "*1", "atom_type": "Cs"}, "13": {"label": "*2", "atom_type": "H0"}}

>  <type>  (9) 
unop_5

>  <geom_source>  (9) 
Heuristics

$$$$

     RDKit          3D

 20 18  0  0  0  0  0  0  0  0999 V2000
   -1.4872   -1.8775    0.4605 S   0  0  0  0  0  0  0  0  0  0  0  0
    0.2752   -1.4305    0.3144 C   0  0  0  0  0  0  0  0  0  0  0  0
    0.7998   -0.7146    1.4639 C   0  0  0  0  0  0  0  0  0  0  0  0
    1.2321   -0.1245    2.4113 C   0  0  0  0  0  0  0  0  0  0  0  0
   -1.3612   -2.6013    1.5798 H   0  0  0  0  0  0  0  0  0  0  0  0
    0.8655   -2.3278    0.1312 H   0  0  0  0  0  0  0  0  0  0  0  0
    1.6163    0.3998    3.2531 H   0  0  0  0  0  0  0  0  0  0  0  0
    0.2752    1.0386   -3.1618 C   0  0  0  0  0  0  0  0  0  0  0  0
    0.2752    1.0386   -1.9637 C   0  0  0  0  0  0  0  0  0  0  0  0
    0.2752    1.0625   -0.4999 C   0  0  0  0  0  3  0  0  0  0  0  0
   -0.9909    1.7390    0.0344 C   0  0  0  0  0  0  0  0  0  0  0  0
    1.5414    1.7390    0.0344 C   0  0  0  0  0  0  0  0  0  0  0  0
    0.2752    1.0386   -4.2251 H   0  0  0  0  0  0  0  0  0  0  0  0
    0.2752   -0.1861   -0.0920 H   0  0  0  0  0  0  0  0  0  0  0  0
   -1.8879    1.2397   -0.3315 H   0  0  0  0  0  0  0  0  0  0  0  0
   -1.0282    2.7825   -0.2831 H   0  0  0  0  0  0  0  0  0  0  0  0
   -0.9982    1.7110    1.1255 H   0  0  0  0  0  0  0  0  0  0  0  0
    1.5787    2.7825   -0.2831 H   0  0  0  0  0  0  0  0  0  0  0  0
    2.4384    1.2396   -0.3315 H   0  0  0  0  0  0  0  0  0  0  0  0
    1.5487    1.7110    1.1255 H   0  0  0  0  0  0  0  0  0  0  0  0
  1  2  1  0
  1  5  1  0
  2  3  1  0
  2  6  1  0
  2 14  1  0
  3  4  3  0
  4  7  1  0
  8  9  3  0
  8 13  1  0
  9 10  1  0
 10 11  1  0
 10 12  1  0
 11 15  1  0
 11 16  1  0
 11 17  1  0
 12 18  1  0
 12 19  1  0
 12 20  1  0
M  RAD  1  10   2
M  END
>  <reaction>  (10) 
rxn_1336

>  <mol_properties>  (10) 
{"0": {"label": "*4", "atom_type": "S2s"}, "1": {"label": "*3", "atom_type": "Cs"}, "8": {"label": "*0", "atom_type": "Ct"}, "9": {"label": "*1", "atom_type": "Cs"}, "13": {"label": "*2", "atom_type": "H0"}}

>  <type>  (10) 
unop_6

>  <geom_source>  (10) 
Heuristics

$$$$

     RDKit          3D

 20 18  0  0  0  0  0  0  0  0999 V2000
   -1.4634   -1.6264    1.2100 S   0  0  0  0  0  0  0  0  0  0  0  0
    0.0629   -1.4530    0.2264 C   0  0  0  0  0  0  0  0  0  0  0  0
    1.1813   -0.8947    0.9656 C   0  0  0  0  0  0  0  0  0  0  0  0
    2.1031   -0.4345    1.5749 C   0  0  0  0  0  0  0  0  0  0  0  0
   -0.9406   -2.4236    2.1501 H   0  0  0  0  0  0  0  0  0  0  0  0
    0.3378   -2.4198   -0.1945 H   0  0  0  0  0  0  0  0  0  0  0  0
    2.9221   -0.0256    2.1162 H   0  0  0  0  0  0  0  0  0  0  0  0
    0.0629    1.0161   -3.2499 C   0  0  0  0  0  0  0  0  0  0  0  0
    0.0629    1.0161   -2.0518 C   0  0  0  0  0  0  0  0  0  0  0  0
    0.0629    1.0400   -0.5880 C   0  0  0  0  0  3  0  0  0  0  0  0
   -1.2032    1.7165   -0.0536 C   0  0  0  0  0  0  0  0  0  0  0  0
    1.3290    1.7164   -0.0536 C   0  0  0  0  0  0  0  0  0  0  0  0
    0.0629    1.0161   -4.3132 H   0  0  0  0  0  0  0  0  0  0  0  0
    0.0629   -0.2087   -0.1801 H   0  0  0  0  0  0  0  0  0  0  0  0
   -2.1003    1.2172   -0.4196 H   0  0  0  0  0  0  0  0  0  0  0  0
   -1.2405    2.7600   -0.3712 H   0  0  0  0  0  0  0  0  0  0  0  0
   -1.2105    1.6885    1.0374 H   0  0  0  0  0  0  0  0  0  0  0  0
    1.3664    2.7599   -0.3712 H   0  0  0  0  0  0  0  0  0  0  0  0
    2.2261    1.2171   -0.4196 H   0  0  0  0  0  0  0  0  0  0  0  0
    1.3364    1.6884    1.0374 H   0  0  0  0  0  0  0  0  0  0  0  0
  1  2  1  0
  1  5  1  0
  2  3  1  0
  2  6  1  0
  2 14  1  0
  3  4  3  0
  4  7  1  0
  8  9  3  0
  8 13  1  0
  9 10  1  0
 10 11  1  0
 10 12  1  0
 11 15  1  0
 11 16  1  0
 11 17  1  0
 12 18  1  0
 12 19  1  0
 12 20  1  0
M  RAD  1  10   2
M  END
>  <reaction>  (11) 
rxn_1336

>  <mol_properties>  (11) 
{"0": {"label": "*4", "atom_type": "S2s"}, "1": {"label": "*3", "atom_type": "Cs"}, "8": {"label": "*0", "atom_type": "Ct"}, "9": {"label": "*1", "atom_type": "Cs"}, "13": {"label": "*2", "atom_type": "H0"}}

>  <type>  (11) 
unop_7

>  <geom_source>  (11) 
Heuristics

$$$$

     RDKit          3D

 20 18  0  0  0  0  0  0  0  0999 V2000
    1.5807   -1.4014    0.7881 S   0  0  0  0  0  0  0  0  0  0  0  0
   -0.1816   -0.9543    0.6421 C   0  0  0  0  0  0  0  0  0  0  0  0
   -1.0713   -2.0950    0.5140 C   0  0  0  0  0  0  0  0  0  0  0  0
   -1.8045   -3.0351    0.4084 C   0  0  0  0  0  0  0  0  0  0  0  0
    1.4491   -2.1539    1.8877 H   0  0  0  0  0  0  0  0  0  0  0  0
   -0.4756   -0.3446    1.4960 H   0  0  0  0  0  0  0  0  0  0  0  0
   -2.4560   -3.8704    0.3145 H   0  0  0  0  0  0  0  0  0  0  0  0
   -0.1816    1.5148   -2.8342 C   0  0  0  0  0  0  0  0  0  0  0  0
   -0.1816    1.5148   -1.6361 C   0  0  0  0  0  0  0  0  0  0  0  0
   -0.1816    1.5387   -0.1723 C   0  0  0  0  0  3  0  0  0  0  0  0
   -1.4477    2.2152    0.3621 C   0  0  0  0  0  0  0  0  0  0  0  0
    1.0846    2.2151    0.3621 C   0  0  0  0  0  0  0  0  0  0  0  0
   -0.1816    1.5148   -3.8975 H   0  0  0  0  0  0  0  0  0  0  0  0
   -0.1816    0.2900    0.2356 H   0  0  0  0  0  0  0  0  0  0  0  0
   -2.3447    1.7159   -0.0038 H   0  0  0  0  0  0  0  0  0  0  0  0
   -1.4850    3.2587    0.0446 H   0  0  0  0  0  0  0  0  0  0  0  0
   -1.4550    2.1872    1.4531 H   0  0  0  0  0  0  0  0  0  0  0  0
    1.1219    3.2586    0.0446 H   0  0  0  0  0  0  0  0  0  0  0  0
    1.9816    1.7158   -0.0038 H   0  0  0  0  0  0  0  0  0  0  0  0
    1.0919    2.1871    1.4532 H   0  0  0  0  0  0  0  0  0  0  0  0
  1  2  1  0
  1  5  1  0
  2  3  1  0
  2  6  1  0
  2 14  1  0
  3  4  3  0
  4  7  1  0
  8  9  3  0
  8 13  1  0
  9 10  1  0
 10 11  1  0
 10 12  1  0
 11 15  1  0
 11 16  1  0
 11 17  1  0
 12 18  1  0
 12 19  1  0
 12 20  1  0
M  RAD  1  10   2
M  END
>  <reaction>  (12) 
rxn_1336

>  <mol_properties>  (12) 
{"0": {"label": "*4", "atom_type": "S2s"}, "1": {"label": "*3", "atom_type": "Cs"}, "8": {"label": "*0", "atom_type": "Ct"}, "9": {"label": "*1", "atom_type": "Cs"}, "13": {"label": "*2", "atom_type": "H0"}}

>  <type>  (12) 
unop_8

>  <geom_source>  (12) 
Heuristics

$$$$

     RDKit          3D

 20 18  0  0  0  0  0  0  0  0999 V2000
   -0.4662   -2.1206   -0.6552 S   0  0  0  0  0  0  0  0  0  0  0  0
    0.4150   -1.1996    0.6496 C   0  0  0  0  0  0  0  0  0  0  0  0
   -0.3877   -0.9358    1.8307 C   0  0  0  0  0  0  0  0  0  0  0  0
   -1.0494   -0.7184    2.8042 C   0  0  0  0  0  0  0  0  0  0  0  0
   -0.7561   -3.1919    0.0936 H   0  0  0  0  0  0  0  0  0  0  0  0
    1.3222   -1.7361    0.9260 H   0  0  0  0  0  0  0  0  0  0  0  0
   -1.6372   -0.5252    3.6691 H   0  0  0  0  0  0  0  0  0  0  0  0
    0.4150    1.2695   -2.8267 C   0  0  0  0  0  0  0  0  0  0  0  0
    0.4150    1.2695   -1.6286 C   0  0  0  0  0  0  0  0  0  0  0  0
    0.4150    1.2934   -0.1648 C   0  0  0  0  0  3  0  0  0  0  0  0
   -0.8511    1.9699    0.3696 C   0  0  0  0  0  0  0  0  0  0  0  0
    1.6812    1.9698    0.3696 C   0  0  0  0  0  0  0  0  0  0  0  0
    0.4150    1.2695   -3.8900 H   0  0  0  0  0  0  0  0  0  0  0  0
    0.4150    0.0447    0.2431 H   0  0  0  0  0  0  0  0  0  0  0  0
   -1.7481    1.4706    0.0036 H   0  0  0  0  0  0  0  0  0  0  0  0
   -0.8884    3.0134    0.0520 H   0  0  0  0  0  0  0  0  0  0  0  0
   -0.8584    1.9419    1.4606 H   0  0  0  0  0  0  0  0  0  0  0  0
    1.7185    3.0133    0.0520 H   0  0  0  0  0  0  0  0  0  0  0  0
    2.5782    1.4705    0.0036 H   0  0  0  0  0  0  0  0  0  0  0  0
    1.6885    1.9418    1.4606 H   0  0  0  0  0  0  0  0  0  0  0  0
  1  2  1  0
  1  5  1  0
  2  3  1  0
  2  6  1  0
  2 14  1  0
  3  4  3  0
  4  7  1  0
  8  9  3  0
  8 13  1  0
  9 10  1  0
 10 11  1  0
 10 12  1  0
 11 15  1  0
 11 16  1  0
 11 17  1  0
 12 18  1  0
 12 19  1  0
 12 20  1  0
M  RAD  1  10   2
M  END
>  <reaction>  (13) 
rxn_1336

>  <mol_properties>  (13) 
{"0": {"label": "*4", "atom_type": "S2s"}, "1": {"label": "*3", "atom_type": "Cs"}, "8": {"label": "*0", "atom_type": "Ct"}, "9": {"label": "*1", "atom_type": "Cs"}, "13": {"label": "*2", "atom_type": "H0"}}

>  <type>  (13) 
unop_9

>  <geom_source>  (13) 
Heuristics

$$$$

     RDKit          3D

 20 18  0  0  0  0  0  0  0  0999 V2000
    1.4398   -1.6545    0.0589 S   0  0  0  0  0  0  0  0  0  0  0  0
   -0.0864   -0.9339    0.7505 C   0  0  0  0  0  0  0  0  0  0  0  0
   -1.1494   -1.8992    0.9673 C   0  0  0  0  0  0  0  0  0  0  0  0
   -2.0256   -2.6949    1.1460 C   0  0  0  0  0  0  0  0  0  0  0  0
    1.6506   -2.5282    1.0513 H   0  0  0  0  0  0  0  0  0  0  0  0
    0.1436   -0.4154    1.6809 H   0  0  0  0  0  0  0  0  0  0  0  0
   -2.8041   -3.4019    1.3048 H   0  0  0  0  0  0  0  0  0  0  0  0
   -0.0864    1.5352   -2.7257 C   0  0  0  0  0  0  0  0  0  0  0  0
   -0.0864    1.5352   -1.5276 C   0  0  0  0  0  0  0  0  0  0  0  0
   -0.0864    1.5592   -0.0638 C   0  0  0  0  0  3  0  0  0  0  0  0
   -1.3525    2.2356    0.4705 C   0  0  0  0  0  0  0  0  0  0  0  0
    1.1798    2.2356    0.4705 C   0  0  0  0  0  0  0  0  0  0  0  0
   -0.0864    1.5352   -3.7891 H   0  0  0  0  0  0  0  0  0  0  0  0
   -0.0864    0.3105    0.3440 H   0  0  0  0  0  0  0  0  0  0  0  0
   -2.2495    1.7363    0.1046 H   0  0  0  0  0  0  0  0  0  0  0  0
   -1.3898    3.2791    0.1530 H   0  0  0  0  0  0  0  0  0  0  0  0
   -1.3598    2.2076    1.5616 H   0  0  0  0  0  0  0  0  0  0  0  0
    1.2171    3.2791    0.1530 H   0  0  0  0  0  0  0  0  0  0  0  0
    2.0768    1.7363    0.1046 H   0  0  0  0  0  0  0  0  0  0  0  0
    1.1871    2.2076    1.5616 H   0  0  0  0  0  0  0  0  0  0  0  0
  1  2  1  0
  1  5  1  0
  2  3  1  0
  2  6  1  0
  2 14  1  0
  3  4  3  0
  4  7  1  0
  8  9  3  0
  8 13  1  0
  9 10  1  0
 10 11  1  0
 10 12  1  0
 11 15  1  0
 11 16  1  0
 11 17  1  0
 12 18  1  0
 12 19  1  0
 12 20  1  0
M  RAD  1  10   2
M  END
>  <reaction>  (14) 
rxn_1336

>  <mol_properties>  (14) 
{"0": {"label": "*4", "atom_type": "S2s"}, "1": {"label": "*3", "atom_type": "Cs"}, "8": {"label": "*0", "atom_type": "Ct"}, "9": {"label": "*1", "atom_type": "Cs"}, "13": {"label": "*2", "atom_type": "H0"}}

>  <type>  (14) 
unop_10

>  <geom_source>  (14) 
Heuristics

$$$$

     RDKit          3D

 20 18  0  0  0  0  0  0  0  0999 V2000
   -1.0534   -1.3472    1.8438 S   0  0  0  0  0  0  0  0  0  0  0  0
   -0.1722   -1.3741    0.2470 C   0  0  0  0  0  0  0  0  0  0  0  0
    1.2726   -1.2919    0.3686 C   0  0  0  0  0  0  0  0  0  0  0  0
    2.4634   -1.2242    0.4689 C   0  0  0  0  0  0  0  0  0  0  0  0
   -0.4574   -2.4307    2.3570 H   0  0  0  0  0  0  0  0  0  0  0  0
   -0.4506   -2.2692   -0.3086 H   0  0  0  0  0  0  0  0  0  0  0  0
    3.5214   -1.1640    0.5580 H   0  0  0  0  0  0  0  0  0  0  0  0
   -0.1722    1.0950   -3.2293 C   0  0  0  0  0  0  0  0  0  0  0  0
   -0.1722    1.0950   -2.0312 C   0  0  0  0  0  0  0  0  0  0  0  0
   -0.1722    1.1189   -0.5674 C   0  0  0  0  0  3  0  0  0  0  0  0
   -1.4383    1.7954   -0.0330 C   0  0  0  0  0  0  0  0  0  0  0  0
    1.0939    1.7953   -0.0330 C   0  0  0  0  0  0  0  0  0  0  0  0
   -0.1722    1.0950   -4.2926 H   0  0  0  0  0  0  0  0  0  0  0  0
   -0.1722   -0.1297   -0.1595 H   0  0  0  0  0  0  0  0  0  0  0  0
   -2.3354    1.2961   -0.3990 H   0  0  0  0  0  0  0  0  0  0  0  0
   -1.4756    2.8389   -0.3506 H   0  0  0  0  0  0  0  0  0  0  0  0
   -1.4456    1.7674    1.0580 H   0  0  0  0  0  0  0  0  0  0  0  0
    1.1313    2.8389   -0.3506 H   0  0  0  0  0  0  0  0  0  0  0  0
    1.9910    1.2960   -0.3990 H   0  0  0  0  0  0  0  0  0  0  0  0
    1.1013    1.7673    1.0580 H   0  0  0  0  0  0  0  0  0  0  0  0
  1  2  1  0
  1  5  1  0
  2  3  1  0
  2  6  1  0
  2 14  1  0
  3  4  3  0
  4  7  1  0
  8  9  3  0
  8 13  1  0
  9 10  1  0
 10 11  1  0
 10 12  1  0
 11 15  1  0
 11 16  1  0
 11 17  1  0
 12 18  1  0
 12 19  1  0
 12 20  1  0
M  RAD  1  10   2
M  END
>  <reaction>  (15) 
rxn_1336

>  <mol_properties>  (15) 
{"0": {"label": "*4", "atom_type": "S2s"}, "1": {"label": "*3", "atom_type": "Cs"}, "8": {"label": "*0", "atom_type": "Ct"}, "9": {"label": "*1", "atom_type": "Cs"}, "13": {"label": "*2", "atom_type": "H0"}}

>  <type>  (15) 
unop_11

>  <geom_source>  (15) 
Heuristics

$$$$

     RDKit          3D

 20 18  0  0  0  0  0  0  0  0999 V2000
    0.2927   -2.0447   -0.7440 S   0  0  0  0  0  0  0  0  0  0  0  0
    0.2928   -1.0505    0.7852 C   0  0  0  0  0  0  0  0  0  0  0  0
   -0.8488   -1.2958    1.6487 C   0  0  0  0  0  0  0  0  0  0  0  0
   -1.7897   -1.4979    2.3605 C   0  0  0  0  0  0  0  0  0  0  0  0
    0.2750   -3.2397   -0.1404 H   0  0  0  0  0  0  0  0  0  0  0  0
    1.2194   -1.2220    1.3322 H   0  0  0  0  0  0  0  0  0  0  0  0
   -2.6256   -1.6775    2.9928 H   0  0  0  0  0  0  0  0  0  0  0  0
    0.2928    1.4186   -2.6911 C   0  0  0  0  0  0  0  0  0  0  0  0
    0.2928    1.4186   -1.4930 C   0  0  0  0  0  0  0  0  0  0  0  0
    0.2928    1.4425   -0.0292 C   0  0  0  0  0  3  0  0  0  0  0  0
   -0.9733    2.1190    0.5052 C   0  0  0  0  0  0  0  0  0  0  0  0
    1.5589    2.1190    0.5052 C   0  0  0  0  0  0  0  0  0  0  0  0
    0.2928    1.4186   -3.7544 H   0  0  0  0  0  0  0  0  0  0  0  0
    0.2928    0.1939    0.3787 H   0  0  0  0  0  0  0  0  0  0  0  0
   -1.8704    1.6197    0.1392 H   0  0  0  0  0  0  0  0  0  0  0  0
   -1.0107    3.1625    0.1876 H   0  0  0  0  0  0  0  0  0  0  0  0
   -0.9806    2.0910    1.5962 H   0  0  0  0  0  0  0  0  0  0  0  0
    1.5963    3.1625    0.1876 H   0  0  0  0  0  0  0  0  0  0  0  0
    2.4560    1.6196    0.1392 H   0  0  0  0  0  0  0  0  0  0  0  0
    1.5663    2.0910    1.5962 H   0  0  0  0  0  0  0  0  0  0  0  0
  1  2  1  0
  1  5  1  0
  2  3  1  0
  2  6  1  0
  2 14  1  0
  3  4  3  0
  4  7  1  0
  8  9  3  0
  8 13  1  0
  9 10  1  0
 10 11  1  0
 10 12  1  0
 11 15  1  0
 11 16  1  0
 11 17  1  0
 12 18  1  0
 12 19  1  0
 12 20  1  0
M  RAD  1  10   2
M  END
>  <reaction>  (16) 
rxn_1336

>  <mol_properties>  (16) 
{"0": {"label": "*4", "atom_type": "S2s"}, "1": {"label": "*3", "atom_type": "Cs"}, "8": {"label": "*0", "atom_type": "Ct"}, "9": {"label": "*1", "atom_type": "Cs"}, "13": {"label": "*2", "atom_type": "H0"}}

>  <type>  (16) 
unop_12

>  <geom_source>  (16) 
Heuristics

$$$$

     RDKit          3D

 20 18  0  0  0  0  0  0  0  0999 V2000
    1.9826    1.2786    1.8261 S   0  0  0  0  0  0  0  0  0  0  0  0
   -1.3658    1.5477   -0.0095 C   0  0  0  0  0  0  0  0  0  0  0  0
   -1.0882   -0.3330   -1.6737 C   0  0  0  0  0  0  0  0  0  0  0  0
    1.4459   -0.1968    0.9131 C   0  0  0  0  0  3  0  0  0  0  0  0
   -0.8790    0.1161   -0.2284 C   0  0  0  0  0  0  0  0  0  0  0  0
    2.5586   -0.7207    0.1186 C   0  0  0  0  0  0  0  0  0  0  0  0
   -1.5494   -0.8054    0.7012 C   0  0  0  0  0  0  0  0  0  0  0  0
    3.4739   -1.1525   -0.5364 C   0  0  0  0  0  0  0  0  0  0  0  0
   -2.0982   -1.5612    1.4637 C   0  0  0  0  0  0  0  0  0  0  0  0
    1.1126   -0.9723    1.6331 H   0  0  0  0  0  0  0  0  0  0  0  0
    0.4129    0.1266    0.0909 H   0  0  0  0  0  0  0  0  0  0  0  0
   -2.4560    1.6288   -0.2113 H   0  0  0  0  0  0  0  0  0  0  0  0
   -1.1660    1.8598    1.0377 H   0  0  0  0  0  0  0  0  0  0  0  0
   -0.8202    2.2393   -0.6856 H   0  0  0  0  0  0  0  0  0  0  0  0
   -0.5405    0.3443   -2.3624 H   0  0  0  0  0  0  0  0  0  0  0  0
   -2.1680   -0.3223   -1.9377 H   0  0  0  0  0  0  0  0  0  0  0  0
   -0.6906   -1.3610   -1.8123 H   0  0  0  0  0  0  0  0  0  0  0  0
    2.1379    2.0397    0.6514 H   0  0  0  0  0  0  0  0  0  0  0  0
    4.2775   -1.5314   -1.1114 H   0  0  0  0  0  0  0  0  0  0  0  0
   -2.5801   -2.2244    2.1329 H   0  0  0  0  0  0  0  0  0  0  0  0
  1  4  1  0
  1 18  1  0
  2  5  1  0
  2 12  1  0
  2 13  1  0
  2 14  1  0
  3  5  1  0
  3 15  1  0
  3 16  1  0
  3 17  1  0
  4  6  1  0
  4 10  1  0
  5  7  1  0
  5 11  1  0
  6  8  3  0
  7  9  3  0
  8 19  1  0
  9 20  1  0
M  RAD  1   4   2
M  END
>  <reaction>  (17) 
rxn_1336

>  <mol_properties>  (17) 
{"0": {"label": "*4", "atom_type": "S2s"}, "1": {"label": "*3", "atom_type": "Cs"}, "8": {"label": "*0", "atom_type": "Ct"}, "9": {"label": "*1", "atom_type": "Cs"}, "13": {"label": "*2", "atom_type": "H0"}}

>  <type>  (17) 
unop_13

>  <geom_source>  (17) 
AutoTST

$$$$
