
     RDKit          3D

 12 11  0  0  0  0  0  0  0  0999 V2000
    1.2394   -0.3763   -0.3020 C   0  0  0  0  0  0  0  0  0  0  0  0
    0.1007    0.3024    0.4464 C   0  0  0  0  0  0  0  0  0  0  0  0
   -0.1187    2.0399   -0.0725 S   0  0  0  0  0  0  0  0  0  0  0  0
   -1.1974   -0.4877    0.3552 C   0  0  0  0  0  0  0  0  0  0  0  0
    2.1681    0.1850   -0.2048 H   0  0  0  0  0  0  0  0  0  0  0  0
    1.0030   -0.4604   -1.3656 H   0  0  0  0  0  0  0  0  0  0  0  0
    1.3993   -1.3856    0.0859 H   0  0  0  0  0  0  0  0  0  0  0  0
    0.3797    0.4050    1.4982 H   0  0  0  0  0  0  0  0  0  0  0  0
   -0.4500    1.7774   -1.3452 H   0  0  0  0  0  0  0  0  0  0  0  0
   -1.0545   -1.4977    0.7478 H   0  0  0  0  0  0  0  0  0  0  0  0
   -1.5206   -0.5758   -0.6849 H   0  0  0  0  0  0  0  0  0  0  0  0
   -1.9957   -0.0054    0.9183 H   0  0  0  0  0  0  0  0  0  0  0  0
  1  2  1  0
  1  5  1  0
  1  6  1  0
  1  7  1  0
  2  4  1  0
  2  3  1  0
  2  8  1  0
  3  9  1  0
  4 10  1  0
  4 11  1  0
  4 12  1  0
M  END
>  <reaction>  (1) 
rxn_1915

>  <mol_properties>  (1) 
{"1": {"label": "donator", "atom_type": "Cs"}, "7": {"label": "d_hydrogen", "atom_type": "H0"}}

>  <type>  (1) 
r1h

$$$$

     RDKit          3D

 12 11  0  0  0  0  0  0  0  0999 V2000
   -2.3791    0.4612   -0.5870 C   0  0  0  0  0  0  0  0  0  0  0  0
   -1.3422   -0.3138   -0.1893 C   0  0  0  0  0  0  0  0  0  0  0  0
   -1.4723   -1.6058    0.3589 C   0  0  0  0  0  3  0  0  0  0  0  0
   -0.3798   -2.3973    0.7671 C   0  0  0  0  0  0  0  0  0  0  0  0
   -0.4849   -3.6397    1.2956 C   0  0  0  0  0  0  0  0  0  0  0  0
   -2.2205    1.4472   -1.0017 H   0  0  0  0  0  0  0  0  0  0  0  0
   -3.4026    0.1153   -0.5011 H   0  0  0  0  0  0  0  0  0  0  0  0
   -0.3330    0.0765   -0.2952 H   0  0  0  0  0  0  0  0  0  0  0  0
   -2.4723   -2.0151    0.4735 H   0  0  0  0  0  0  0  0  0  0  0  0
    0.6117   -1.9687    0.6436 H   0  0  0  0  0  0  0  0  0  0  0  0
    0.3893   -4.2030    1.5920 H   0  0  0  0  0  0  0  0  0  0  0  0
   -1.4516   -4.1084    1.4378 H   0  0  0  0  0  0  0  0  0  0  0  0
  1  2  2  3
  1  6  1  0
  1  7  1  0
  2  3  1  0
  2  8  1  0
  3  4  1  0
  3  9  1  0
  4  5  2  3
  4 10  1  0
  5 11  1  0
  5 12  1  0
M  RAD  1   3   2
M  END
>  <reaction>  (2) 
rxn_1915

>  <mol_properties>  (2) 
{"2": {"label": "acceptor", "atom_type": "Cs"}}

>  <type>  (2) 
r2

$$$$

     RDKit          3D

 13 12  0  0  0  0  0  0  0  0999 V2000
    3.0977   -0.3549   -0.5105 C   0  0  0  0  0  0  0  0  0  0  0  0
    2.0556    0.4221   -0.2627 C   0  0  0  0  0  0  0  0  0  0  0  0
    0.6313   -0.0354   -0.2366 C   0  0  0  0  0  0  0  0  0  0  0  0
   -0.2567    0.6038   -1.2694 C   0  0  0  0  0  0  0  0  0  0  0  0
    0.1459    1.3456   -2.2891 C   0  0  0  0  0  0  0  0  0  0  0  0
    4.1081    0.0344   -0.5074 H   0  0  0  0  0  0  0  0  0  0  0  0
    2.9777   -1.4116   -0.7243 H   0  0  0  0  0  0  0  0  0  0  0  0
    2.2171    1.4781   -0.0618 H   0  0  0  0  0  0  0  0  0  0  0  0
    0.5865   -1.1233   -0.3540 H   0  0  0  0  0  0  0  0  0  0  0  0
    0.2065    0.1743    0.7521 H   0  0  0  0  0  0  0  0  0  0  0  0
   -1.3190    0.4126   -1.1445 H   0  0  0  0  0  0  0  0  0  0  0  0
    1.1948    1.5564   -2.4628 H   0  0  0  0  0  0  0  0  0  0  0  0
   -0.5644    1.7621   -2.9918 H   0  0  0  0  0  0  0  0  0  0  0  0
  1  2  2  3
  1  6  1  0
  1  7  1  0
  2  3  1  0
  2  8  1  0
  3  4  1  0
  3  9  1  0
  3 10  1  0
  4  5  2  3
  4 11  1  0
  5 12  1  0
  5 13  1  0
M  END
>  <reaction>  (3) 
rxn_1915

>  <mol_properties>  (3) 
{"0": {"label": "a_hydrogen", "atom_type": "H0"}, "3": {"label": "acceptor", "atom_type": "Cs"}}

>  <type>  (3) 
r2h

$$$$

     RDKit          3D

 24 22  0  0  0  0  0  0  0  0999 V2000
    0.8645   -0.0488   -2.2847 C   0  0  0  0  0  0  0  0  0  0  0  0
    1.0258    0.4395   -0.8705 C   0  0  0  0  0  3  0  0  0  0  0  0
    2.4961   -0.1944   -0.1024 S   0  0  0  0  0  0  0  0  0  0  0  0
    0.7152    1.8911   -0.6316 C   0  0  0  0  0  0  0  0  0  0  0  0
    1.0275   -1.1251   -2.3597 H   0  0  0  0  0  0  0  0  0  0  0  0
    1.5655    0.4490   -2.9637 H   0  0  0  0  0  0  0  0  0  0  0  0
   -0.1483    0.1691   -2.6305 H   0  0  0  0  0  0  0  0  0  0  0  0
   -0.0501   -0.1920   -0.1811 H   0  0  0  0  0  0  0  0  0  0  0  0
    2.3272    0.4035    1.0853 H   0  0  0  0  0  0  0  0  0  0  0  0
   -0.2593    2.1358   -1.0607 H   0  0  0  0  0  0  0  0  0  0  0  0
    1.4658    2.5392   -1.0957 H   0  0  0  0  0  0  0  0  0  0  0  0
    0.6830    2.1193    0.4358 H   0  0  0  0  0  0  0  0  0  0  0  0
   -3.0088   -0.1707   -1.0216 C   0  0  0  0  0  0  0  0  0  0  0  0
   -2.2055    0.1489   -0.0100 C   0  0  0  0  0  0  0  0  0  0  0  0
   -1.0694   -0.6648    0.4426 C   0  0  0  0  0  0  0  0  0  0  0  0
   -0.6387   -0.6200    1.8489 C   0  0  0  0  0  0  0  0  0  0  0  0
   -0.9716    0.2824    2.7717 C   0  0  0  0  0  0  0  0  0  0  0  0
   -3.8093    0.4857   -1.3370 H   0  0  0  0  0  0  0  0  0  0  0  0
   -2.8964   -1.1062   -1.5592 H   0  0  0  0  0  0  0  0  0  0  0  0
   -2.3619    1.0988    0.4927 H   0  0  0  0  0  0  0  0  0  0  0  0
   -1.0841   -1.6775    0.0382 H   0  0  0  0  0  0  0  0  0  0  0  0
    0.0700   -1.3949    2.1268 H   0  0  0  0  0  0  0  0  0  0  0  0
   -0.5542    0.2329    3.7689 H   0  0  0  0  0  0  0  0  0  0  0  0
   -1.6766    1.0822    2.5804 H   0  0  0  0  0  0  0  0  0  0  0  0
  1  2  1  0
  1  5  1  0
  1  6  1  0
  1  7  1  0
  2  4  1  0
  2  3  1  0
  3  9  1  0
  4 10  1  0
  4 11  1  0
  4 12  1  0
  8 15  1  0
 13 14  2  3
 13 18  1  0
 13 19  1  0
 14 15  1  0
 14 20  1  0
 15 16  1  0
 15 21  1  0
 16 17  2  3
 16 22  1  0
 17 23  1  0
 17 24  1  0
M  RAD  1   2   2
M  END
>  <reaction>  (4) 
rxn_1915

>  <mol_properties>  (4) 
{"1": {"label": "*3", "atom_type": "Cs"}, "2": {"label": "*4", "atom_type": "S2s"}, "7": {"label": "*2", "atom_type": "H0"}, "13": {"label": "*0", "atom_type": "Cd"}, "14": {"label": "*1", "atom_type": "Cs"}}

>  <type>  (4) 
ts

$$$$

     RDKit          3D

 24 22  0  0  0  0  0  0  0  0999 V2000
    0.9368    0.9879   -2.1939 C   0  0  0  0  0  0  0  0  0  0  0  0
    0.9368    0.9879   -0.6715 C   0  0  0  0  0  0  0  0  0  0  0  0
    2.2919   -0.0284    0.0120 S   0  0  0  0  0  0  0  0  0  0  0  0
    0.9368    2.3979   -0.0975 C   0  0  0  0  0  0  0  0  0  0  0  0
    0.9083   -0.0264   -2.5905 H   0  0  0  0  0  0  0  0  0  0  0  0
    1.8352    1.4776   -2.5774 H   0  0  0  0  0  0  0  0  0  0  0  0
    0.0699    1.5353   -2.5727 H   0  0  0  0  0  0  0  0  0  0  0  0
   -0.1311    0.3560   -0.2465 H   0  0  0  0  0  0  0  0  0  0  0  0
    3.2978    0.7074   -0.4829 H   0  0  0  0  0  0  0  0  0  0  0  0
    0.0699    2.9552   -0.4617 H   0  0  0  0  0  0  0  0  0  0  0  0
    1.8352    2.9378   -0.4065 H   0  0  0  0  0  0  0  0  0  0  0  0
    0.9083    2.3828    0.9914 H   0  0  0  0  0  0  0  0  0  0  0  0
   -0.4388   -1.3946    2.2847 C   0  0  0  0  0  0  0  0  0  0  0  0
   -0.7785   -1.4504    1.0070 C   0  0  0  0  0  0  0  0  0  0  0  0
   -1.2022   -0.2778    0.1798 C   0  0  0  0  0  3  0  0  0  0  0  0
   -2.6058   -0.3570   -0.3563 C   0  0  0  0  0  0  0  0  0  0  0  0
   -3.5264   -1.2381    0.0019 C   0  0  0  0  0  0  0  0  0  0  0  0
   -0.1325   -2.2793    2.8286 H   0  0  0  0  0  0  0  0  0  0  0  0
   -0.4532   -0.4591    2.8338 H   0  0  0  0  0  0  0  0  0  0  0  0
   -0.7596   -2.4088    0.4944 H   0  0  0  0  0  0  0  0  0  0  0  0
   -1.0947    0.6456    0.7586 H   0  0  0  0  0  0  0  0  0  0  0  0
   -2.8588    0.3973   -1.0964 H   0  0  0  0  0  0  0  0  0  0  0  0
   -4.5181   -1.2177   -0.4317 H   0  0  0  0  0  0  0  0  0  0  0  0
   -3.3266   -2.0032    0.7433 H   0  0  0  0  0  0  0  0  0  0  0  0
  1  2  1  0
  1  5  1  0
  1  6  1  0
  1  7  1  0
  2  4  1  0
  2  3  1  0
  2  8  1  0
  3  9  1  0
  4 10  1  0
  4 11  1  0
  4 12  1  0
 13 14  2  3
 13 18  1  0
 13 19  1  0
 14 15  1  0
 14 20  1  0
 15 16  1  0
 15 21  1  0
 16 17  2  3
 16 22  1  0
 17 23  1  0
 17 24  1  0
M  RAD  1  15   2
M  END
>  <reaction>  (5) 
rxn_1915

>  <mol_properties>  (5) 
{"1": {"label": "*3", "atom_type": "Cs"}, "2": {"label": "*4", "atom_type": "S2s"}, "7": {"label": "*2", "atom_type": "H0"}, "13": {"label": "*0", "atom_type": "Cd"}, "14": {"label": "*1", "atom_type": "Cs"}}

>  <type>  (5) 
unop_1

>  <geom_source>  (5) 
Heuristics

$$$$

     RDKit          3D

 24 22  0  0  0  0  0  0  0  0999 V2000
    1.0869    0.8887   -1.9020 C   0  0  0  0  0  0  0  0  0  0  0  0
    1.0869    0.8887   -0.3796 C   0  0  0  0  0  0  0  0  0  0  0  0
    2.4420   -0.1276    0.3039 S   0  0  0  0  0  0  0  0  0  0  0  0
    1.0869    2.2987    0.1944 C   0  0  0  0  0  0  0  0  0  0  0  0
    1.0584   -0.1256   -2.2986 H   0  0  0  0  0  0  0  0  0  0  0  0
    1.9853    1.3784   -2.2855 H   0  0  0  0  0  0  0  0  0  0  0  0
    0.2200    1.4361   -2.2808 H   0  0  0  0  0  0  0  0  0  0  0  0
    0.0190    0.2568    0.0454 H   0  0  0  0  0  0  0  0  0  0  0  0
    3.4479    0.6082   -0.1910 H   0  0  0  0  0  0  0  0  0  0  0  0
    0.2200    2.8560   -0.1698 H   0  0  0  0  0  0  0  0  0  0  0  0
    1.9853    2.8386   -0.1146 H   0  0  0  0  0  0  0  0  0  0  0  0
    1.0584    2.2837    1.2833 H   0  0  0  0  0  0  0  0  0  0  0  0
   -1.1968   -2.7186   -0.3979 C   0  0  0  0  0  0  0  0  0  0  0  0
   -1.4309   -1.4228   -0.5291 C   0  0  0  0  0  0  0  0  0  0  0  0
   -1.0521   -0.3770    0.4717 C   0  0  0  0  0  3  0  0  0  0  0  0
   -2.2105    0.3742    1.0697 C   0  0  0  0  0  0  0  0  0  0  0  0
   -3.4896    0.0567    0.9468 C   0  0  0  0  0  0  0  0  0  0  0  0
   -1.4887   -3.4273   -1.1628 H   0  0  0  0  0  0  0  0  0  0  0  0
   -0.7018   -3.1183    0.4807 H   0  0  0  0  0  0  0  0  0  0  0  0
   -1.9376   -1.0628   -1.4208 H   0  0  0  0  0  0  0  0  0  0  0  0
   -0.4664   -0.8282    1.2795 H   0  0  0  0  0  0  0  0  0  0  0  0
   -1.9387    1.2464    1.6579 H   0  0  0  0  0  0  0  0  0  0  0  0
   -4.2609    0.6518    1.4190 H   0  0  0  0  0  0  0  0  0  0  0  0
   -3.8111   -0.8092    0.3796 H   0  0  0  0  0  0  0  0  0  0  0  0
  1  2  1  0
  1  5  1  0
  1  6  1  0
  1  7  1  0
  2  4  1  0
  2  3  1  0
  2  8  1  0
  3  9  1  0
  4 10  1  0
  4 11  1  0
  4 12  1  0
 13 14  2  3
 13 18  1  0
 13 19  1  0
 14 15  1  0
 14 20  1  0
 15 16  1  0
 15 21  1  0
 16 17  2  3
 16 22  1  0
 17 23  1  0
 17 24  1  0
M  RAD  1  15   2
M  END
>  <reaction>  (6) 
rxn_1915

>  <mol_properties>  (6) 
{"1": {"label": "*3", "atom_type": "Cs"}, "2": {"label": "*4", "atom_type": "S2s"}, "7": {"label": "*2", "atom_type": "H0"}, "13": {"label": "*0", "atom_type": "Cd"}, "14": {"label": "*1", "atom_type": "Cs"}}

>  <type>  (6) 
unop_2

>  <geom_source>  (6) 
Heuristics

$$$$

     RDKit          3D

 24 22  0  0  0  0  0  0  0  0999 V2000
    0.9257    0.9765   -2.2204 C   0  0  0  0  0  0  0  0  0  0  0  0
    0.9257    0.9765   -0.6981 C   0  0  0  0  0  0  0  0  0  0  0  0
    2.2809   -0.0398   -0.0145 S   0  0  0  0  0  0  0  0  0  0  0  0
    0.9257    2.3865   -0.1241 C   0  0  0  0  0  0  0  0  0  0  0  0
    0.8972   -0.0377   -2.6171 H   0  0  0  0  0  0  0  0  0  0  0  0
    1.8242    1.4663   -2.6040 H   0  0  0  0  0  0  0  0  0  0  0  0
    0.0588    1.5239   -2.5993 H   0  0  0  0  0  0  0  0  0  0  0  0
   -0.1422    0.3446   -0.2731 H   0  0  0  0  0  0  0  0  0  0  0  0
    3.2868    0.6960   -0.5094 H   0  0  0  0  0  0  0  0  0  0  0  0
    0.0588    2.9438   -0.4883 H   0  0  0  0  0  0  0  0  0  0  0  0
    1.8242    2.9264   -0.4331 H   0  0  0  0  0  0  0  0  0  0  0  0
    0.8972    2.3715    0.9649 H   0  0  0  0  0  0  0  0  0  0  0  0
   -1.1433   -0.3847    2.6525 C   0  0  0  0  0  0  0  0  0  0  0  0
   -0.9088   -0.9308    1.4702 C   0  0  0  0  0  0  0  0  0  0  0  0
   -1.2133   -0.2891    0.1532 C   0  0  0  0  0  3  0  0  0  0  0  0
   -2.2166   -1.0261   -0.6917 C   0  0  0  0  0  0  0  0  0  0  0  0
   -2.9752   -2.0357   -0.2948 C   0  0  0  0  0  0  0  0  0  0  0  0
   -0.8926   -0.8971    3.5729 H   0  0  0  0  0  0  0  0  0  0  0  0
   -1.5940    0.5979    2.7428 H   0  0  0  0  0  0  0  0  0  0  0  0
   -0.4638   -1.9213    1.4222 H   0  0  0  0  0  0  0  0  0  0  0  0
   -1.5656    0.7358    0.3100 H   0  0  0  0  0  0  0  0  0  0  0  0
   -2.3102   -0.6671   -1.7129 H   0  0  0  0  0  0  0  0  0  0  0  0
   -3.6792   -2.5049   -0.9702 H   0  0  0  0  0  0  0  0  0  0  0  0
   -2.9267   -2.4233    0.7163 H   0  0  0  0  0  0  0  0  0  0  0  0
  1  2  1  0
  1  5  1  0
  1  6  1  0
  1  7  1  0
  2  4  1  0
  2  3  1  0
  2  8  1  0
  3  9  1  0
  4 10  1  0
  4 11  1  0
  4 12  1  0
 13 14  2  3
 13 18  1  0
 13 19  1  0
 14 15  1  0
 14 20  1  0
 15 16  1  0
 15 21  1  0
 16 17  2  3
 16 22  1  0
 17 23  1  0
 17 24  1  0
M  RAD  1  15   2
M  END
>  <reaction>  (7) 
rxn_1915

>  <mol_properties>  (7) 
{"1": {"label": "*3", "atom_type": "Cs"}, "2": {"label": "*4", "atom_type": "S2s"}, "7": {"label": "*2", "atom_type": "H0"}, "13": {"label": "*0", "atom_type": "Cd"}, "14": {"label": "*1", "atom_type": "Cs"}}

>  <type>  (7) 
unop_3

>  <geom_source>  (7) 
Heuristics

$$$$

     RDKit          3D

 24 22  0  0  0  0  0  0  0  0999 V2000
    1.0080    0.4229   -2.1915 C   0  0  0  0  0  0  0  0  0  0  0  0
    1.0080    0.4229   -0.6691 C   0  0  0  0  0  0  0  0  0  0  0  0
    2.3631   -0.5934    0.0144 S   0  0  0  0  0  0  0  0  0  0  0  0
    1.0080    1.8329   -0.0951 C   0  0  0  0  0  0  0  0  0  0  0  0
    0.9795   -0.5913   -2.5881 H   0  0  0  0  0  0  0  0  0  0  0  0
    1.9064    0.9127   -2.5750 H   0  0  0  0  0  0  0  0  0  0  0  0
    0.1411    0.9704   -2.5703 H   0  0  0  0  0  0  0  0  0  0  0  0
   -0.0599   -0.2089   -0.2441 H   0  0  0  0  0  0  0  0  0  0  0  0
    3.3690    0.1425   -0.4805 H   0  0  0  0  0  0  0  0  0  0  0  0
    0.1411    2.3902   -0.4593 H   0  0  0  0  0  0  0  0  0  0  0  0
    1.9064    2.3728   -0.4041 H   0  0  0  0  0  0  0  0  0  0  0  0
    0.9795    1.8179    0.9938 H   0  0  0  0  0  0  0  0  0  0  0  0
   -3.5195   -0.7162   -0.5523 C   0  0  0  0  0  0  0  0  0  0  0  0
   -2.3493   -0.1403   -0.3288 C   0  0  0  0  0  0  0  0  0  0  0  0
   -1.1310   -0.8427    0.1822 C   0  0  0  0  0  3  0  0  0  0  0  0
   -0.6304   -0.3519    1.5135 C   0  0  0  0  0  0  0  0  0  0  0  0
   -1.2720    0.4677    2.3313 C   0  0  0  0  0  0  0  0  0  0  0  0
   -4.3641   -0.1546   -0.9312 H   0  0  0  0  0  0  0  0  0  0  0  0
   -3.6748   -1.7735   -0.3657 H   0  0  0  0  0  0  0  0  0  0  0  0
   -2.2366    0.9238   -0.5200 H   0  0  0  0  0  0  0  0  0  0  0  0
   -1.3213   -1.9191    0.2492 H   0  0  0  0  0  0  0  0  0  0  0  0
    0.3454   -0.7301    1.8059 H   0  0  0  0  0  0  0  0  0  0  0  0
   -0.8387    0.7648    3.2778 H   0  0  0  0  0  0  0  0  0  0  0  0
   -2.2517    0.8636    2.0900 H   0  0  0  0  0  0  0  0  0  0  0  0
  1  2  1  0
  1  5  1  0
  1  6  1  0
  1  7  1  0
  2  4  1  0
  2  3  1  0
  2  8  1  0
  3  9  1  0
  4 10  1  0
  4 11  1  0
  4 12  1  0
 13 14  2  3
 13 18  1  0
 13 19  1  0
 14 15  1  0
 14 20  1  0
 15 16  1  0
 15 21  1  0
 16 17  2  3
 16 22  1  0
 17 23  1  0
 17 24  1  0
M  RAD  1  15   2
M  END
>  <reaction>  (8) 
rxn_1915

>  <mol_properties>  (8) 
{"1": {"label": "*3", "atom_type": "Cs"}, "2": {"label": "*4", "atom_type": "S2s"}, "7": {"label": "*2", "atom_type": "H0"}, "13": {"label": "*0", "atom_type": "Cd"}, "14": {"label": "*1", "atom_type": "Cs"}}

>  <type>  (8) 
unop_4

>  <geom_source>  (8) 
Heuristics

$$$$

     RDKit          3D

 24 22  0  0  0  0  0  0  0  0999 V2000
    0.8149    0.9938   -2.2735 C   0  0  0  0  0  0  0  0  0  0  0  0
    0.8149    0.9938   -0.7511 C   0  0  0  0  0  0  0  0  0  0  0  0
    2.1701   -0.0225   -0.0675 S   0  0  0  0  0  0  0  0  0  0  0  0
    0.8149    2.4038   -0.1771 C   0  0  0  0  0  0  0  0  0  0  0  0
    0.7864   -0.0204   -2.6701 H   0  0  0  0  0  0  0  0  0  0  0  0
    1.7133    1.4835   -2.6570 H   0  0  0  0  0  0  0  0  0  0  0  0
   -0.0520    1.5412   -2.6523 H   0  0  0  0  0  0  0  0  0  0  0  0
   -0.2530    0.3619   -0.3261 H   0  0  0  0  0  0  0  0  0  0  0  0
    3.1759    0.7133   -0.5625 H   0  0  0  0  0  0  0  0  0  0  0  0
   -0.0520    2.9611   -0.5413 H   0  0  0  0  0  0  0  0  0  0  0  0
    1.7133    2.9437   -0.4861 H   0  0  0  0  0  0  0  0  0  0  0  0
    0.7864    2.3888    0.9118 H   0  0  0  0  0  0  0  0  0  0  0  0
   -2.2824    0.2404    2.3540 C   0  0  0  0  0  0  0  0  0  0  0  0
   -1.3269   -0.2735    1.5964 C   0  0  0  0  0  0  0  0  0  0  0  0
   -1.3241   -0.2719    0.1002 C   0  0  0  0  0  3  0  0  0  0  0  0
   -1.3399   -1.6365   -0.5332 C   0  0  0  0  0  0  0  0  0  0  0  0
   -1.5598   -2.7818    0.0930 C   0  0  0  0  0  0  0  0  0  0  0  0
   -2.2234    0.2155    3.4349 H   0  0  0  0  0  0  0  0  0  0  0  0
   -3.1597    0.7075    1.9192 H   0  0  0  0  0  0  0  0  0  0  0  0
   -0.4678   -0.7411    2.0706 H   0  0  0  0  0  0  0  0  0  0  0  0
   -2.1776    0.3032   -0.2740 H   0  0  0  0  0  0  0  0  0  0  0  0
   -1.1604   -1.6485   -1.6047 H   0  0  0  0  0  0  0  0  0  0  0  0
   -1.5603   -3.7215   -0.4446 H   0  0  0  0  0  0  0  0  0  0  0  0
   -1.7541   -2.8218    1.1586 H   0  0  0  0  0  0  0  0  0  0  0  0
  1  2  1  0
  1  5  1  0
  1  6  1  0
  1  7  1  0
  2  4  1  0
  2  3  1  0
  2  8  1  0
  3  9  1  0
  4 10  1  0
  4 11  1  0
  4 12  1  0
 13 14  2  3
 13 18  1  0
 13 19  1  0
 14 15  1  0
 14 20  1  0
 15 16  1  0
 15 21  1  0
 16 17  2  3
 16 22  1  0
 17 23  1  0
 17 24  1  0
M  RAD  1  15   2
M  END
>  <reaction>  (9) 
rxn_1915

>  <mol_properties>  (9) 
{"1": {"label": "*3", "atom_type": "Cs"}, "2": {"label": "*4", "atom_type": "S2s"}, "7": {"label": "*2", "atom_type": "H0"}, "13": {"label": "*0", "atom_type": "Cd"}, "14": {"label": "*1", "atom_type": "Cs"}}

>  <type>  (9) 
unop_5

>  <geom_source>  (9) 
Heuristics

$$$$

     RDKit          3D

 24 22  0  0  0  0  0  0  0  0999 V2000
    0.8672    0.4743   -2.3476 C   0  0  0  0  0  0  0  0  0  0  0  0
    0.8672    0.4743   -0.8253 C   0  0  0  0  0  0  0  0  0  0  0  0
    2.2223   -0.5419   -0.1417 S   0  0  0  0  0  0  0  0  0  0  0  0
    0.8672    1.8843   -0.2513 C   0  0  0  0  0  0  0  0  0  0  0  0
    0.8387   -0.5399   -2.7443 H   0  0  0  0  0  0  0  0  0  0  0  0
    1.7656    0.9641   -2.7312 H   0  0  0  0  0  0  0  0  0  0  0  0
    0.0003    1.0218   -2.7265 H   0  0  0  0  0  0  0  0  0  0  0  0
   -0.2007   -0.1575   -0.4003 H   0  0  0  0  0  0  0  0  0  0  0  0
    3.2282    0.1939   -0.6366 H   0  0  0  0  0  0  0  0  0  0  0  0
    0.0003    2.4416   -0.6155 H   0  0  0  0  0  0  0  0  0  0  0  0
    1.7656    2.4243   -0.5603 H   0  0  0  0  0  0  0  0  0  0  0  0
    0.8387    1.8693    0.8377 H   0  0  0  0  0  0  0  0  0  0  0  0
   -3.6746   -0.1217    0.2226 C   0  0  0  0  0  0  0  0  0  0  0  0
   -2.3894    0.1909    0.1841 C   0  0  0  0  0  0  0  0  0  0  0  0
   -1.2718   -0.7913    0.0260 C   0  0  0  0  0  3  0  0  0  0  0  0
   -0.3151   -0.8518    1.1857 C   0  0  0  0  0  0  0  0  0  0  0  0
   -0.4917   -0.2869    2.3696 C   0  0  0  0  0  0  0  0  0  0  0  0
   -4.4393    0.6372    0.3312 H   0  0  0  0  0  0  0  0  0  0  0  0
   -4.0094   -1.1507    0.1448 H   0  0  0  0  0  0  0  0  0  0  0  0
   -2.0940    1.2331    0.2743 H   0  0  0  0  0  0  0  0  0  0  0  0
   -1.6775   -1.7927   -0.1523 H   0  0  0  0  0  0  0  0  0  0  0  0
    0.5893   -1.4268    1.0064 H   0  0  0  0  0  0  0  0  0  0  0  0
    0.2486   -0.3880    3.1530 H   0  0  0  0  0  0  0  0  0  0  0  0
   -1.3811    0.2877    2.6012 H   0  0  0  0  0  0  0  0  0  0  0  0
  1  2  1  0
  1  5  1  0
  1  6  1  0
  1  7  1  0
  2  4  1  0
  2  3  1  0
  2  8  1  0
  3  9  1  0
  4 10  1  0
  4 11  1  0
  4 12  1  0
 13 14  2  3
 13 18  1  0
 13 19  1  0
 14 15  1  0
 14 20  1  0
 15 16  1  0
 15 21  1  0
 16 17  2  3
 16 22  1  0
 17 23  1  0
 17 24  1  0
M  RAD  1  15   2
M  END
>  <reaction>  (10) 
rxn_1915

>  <mol_properties>  (10) 
{"1": {"label": "*3", "atom_type": "Cs"}, "2": {"label": "*4", "atom_type": "S2s"}, "7": {"label": "*2", "atom_type": "H0"}, "13": {"label": "*0", "atom_type": "Cd"}, "14": {"label": "*1", "atom_type": "Cs"}}

>  <type>  (10) 
unop_6

>  <geom_source>  (10) 
Heuristics

$$$$

     RDKit          3D

 24 22  0  0  0  0  0  0  0  0999 V2000
    0.7406    0.6357   -2.4274 C   0  0  0  0  0  0  0  0  0  0  0  0
    0.7406    0.6357   -0.9051 C   0  0  0  0  0  0  0  0  0  0  0  0
    2.0957   -0.3806   -0.2215 S   0  0  0  0  0  0  0  0  0  0  0  0
    0.7406    2.0457   -0.3311 C   0  0  0  0  0  0  0  0  0  0  0  0
    0.7121   -0.3786   -2.8241 H   0  0  0  0  0  0  0  0  0  0  0  0
    1.6390    1.1254   -2.8110 H   0  0  0  0  0  0  0  0  0  0  0  0
   -0.1263    1.1831   -2.8063 H   0  0  0  0  0  0  0  0  0  0  0  0
   -0.3273    0.0038   -0.4801 H   0  0  0  0  0  0  0  0  0  0  0  0
    3.1016    0.3552   -0.7164 H   0  0  0  0  0  0  0  0  0  0  0  0
   -0.1263    2.6030   -0.6953 H   0  0  0  0  0  0  0  0  0  0  0  0
    1.6390    2.5856   -0.6401 H   0  0  0  0  0  0  0  0  0  0  0  0
    0.7121    2.0307    0.7579 H   0  0  0  0  0  0  0  0  0  0  0  0
   -3.5090    0.1505    1.0401 C   0  0  0  0  0  0  0  0  0  0  0  0
   -2.2223    0.3058    0.7734 C   0  0  0  0  0  0  0  0  0  0  0  0
   -1.3984   -0.6300   -0.0538 C   0  0  0  0  0  3  0  0  0  0  0  0
   -0.2608   -1.2870    0.6797 C   0  0  0  0  0  0  0  0  0  0  0  0
   -0.0662   -1.2689    1.9889 C   0  0  0  0  0  0  0  0  0  0  0  0
   -4.0540    0.8685    1.6400 H   0  0  0  0  0  0  0  0  0  0  0  0
   -4.0658   -0.7018    0.6654 H   0  0  0  0  0  0  0  0  0  0  0  0
   -1.6977    1.1691    1.1749 H   0  0  0  0  0  0  0  0  0  0  0  0
   -2.0375   -1.4067   -0.4867 H   0  0  0  0  0  0  0  0  0  0  0  0
    0.4426   -1.8252    0.0503 H   0  0  0  0  0  0  0  0  0  0  0  0
    0.7791   -1.7771    2.4352 H   0  0  0  0  0  0  0  0  0  0  0  0
   -0.7448   -0.7552    2.6600 H   0  0  0  0  0  0  0  0  0  0  0  0
  1  2  1  0
  1  5  1  0
  1  6  1  0
  1  7  1  0
  2  4  1  0
  2  3  1  0
  2  8  1  0
  3  9  1  0
  4 10  1  0
  4 11  1  0
  4 12  1  0
 13 14  2  3
 13 18  1  0
 13 19  1  0
 14 15  1  0
 14 20  1  0
 15 16  1  0
 15 21  1  0
 16 17  2  3
 16 22  1  0
 17 23  1  0
 17 24  1  0
M  RAD  1  15   2
M  END
>  <reaction>  (11) 
rxn_1915

>  <mol_properties>  (11) 
{"1": {"label": "*3", "atom_type": "Cs"}, "2": {"label": "*4", "atom_type": "S2s"}, "7": {"label": "*2", "atom_type": "H0"}, "13": {"label": "*0", "atom_type": "Cd"}, "14": {"label": "*1", "atom_type": "Cs"}}

>  <type>  (11) 
unop_7

>  <geom_source>  (11) 
Heuristics

$$$$

     RDKit          3D

 24 22  0  0  0  0  0  0  0  0999 V2000
    0.9483    1.0225   -2.1136 C   0  0  0  0  0  0  0  0  0  0  0  0
    0.9483    1.0225   -0.5912 C   0  0  0  0  0  0  0  0  0  0  0  0
    2.3034    0.0062    0.0923 S   0  0  0  0  0  0  0  0  0  0  0  0
    0.9483    2.4325   -0.0172 C   0  0  0  0  0  0  0  0  0  0  0  0
    0.9197    0.0082   -2.5102 H   0  0  0  0  0  0  0  0  0  0  0  0
    1.8467    1.5122   -2.4971 H   0  0  0  0  0  0  0  0  0  0  0  0
    0.0813    1.5699   -2.4924 H   0  0  0  0  0  0  0  0  0  0  0  0
   -0.1196    0.3906   -0.1662 H   0  0  0  0  0  0  0  0  0  0  0  0
    3.3093    0.7420   -0.4026 H   0  0  0  0  0  0  0  0  0  0  0  0
    0.0813    2.9898   -0.3814 H   0  0  0  0  0  0  0  0  0  0  0  0
    1.8467    2.9724   -0.3262 H   0  0  0  0  0  0  0  0  0  0  0  0
    0.9197    2.4175    1.0717 H   0  0  0  0  0  0  0  0  0  0  0  0
   -0.2673   -2.2293    1.4697 C   0  0  0  0  0  0  0  0  0  0  0  0
   -0.8677   -1.6956    0.4182 C   0  0  0  0  0  0  0  0  0  0  0  0
   -1.1907   -0.2432    0.2601 C   0  0  0  0  0  3  0  0  0  0  0  0
   -2.6582    0.0691    0.1476 C   0  0  0  0  0  0  0  0  0  0  0  0
   -3.6524   -0.7737    0.3787 C   0  0  0  0  0  0  0  0  0  0  0  0
   -0.0529   -3.2893    1.5221 H   0  0  0  0  0  0  0  0  0  0  0  0
    0.0339   -1.6233    2.3175 H   0  0  0  0  0  0  0  0  0  0  0  0
   -1.1621   -2.3383   -0.4076 H   0  0  0  0  0  0  0  0  0  0  0  0
   -0.7696    0.3259    1.0955 H   0  0  0  0  0  0  0  0  0  0  0  0
   -2.8904    1.0902   -0.1426 H   0  0  0  0  0  0  0  0  0  0  0  0
   -4.6842   -0.4611    0.2804 H   0  0  0  0  0  0  0  0  0  0  0  0
   -3.4732   -1.7991    0.6806 H   0  0  0  0  0  0  0  0  0  0  0  0
  1  2  1  0
  1  5  1  0
  1  6  1  0
  1  7  1  0
  2  4  1  0
  2  3  1  0
  2  8  1  0
  3  9  1  0
  4 10  1  0
  4 11  1  0
  4 12  1  0
 13 14  2  3
 13 18  1  0
 13 19  1  0
 14 15  1  0
 14 20  1  0
 15 16  1  0
 15 21  1  0
 16 17  2  3
 16 22  1  0
 17 23  1  0
 17 24  1  0
M  RAD  1  15   2
M  END
>  <reaction>  (12) 
rxn_1915

>  <mol_properties>  (12) 
{"1": {"label": "*3", "atom_type": "Cs"}, "2": {"label": "*4", "atom_type": "S2s"}, "7": {"label": "*2", "atom_type": "H0"}, "13": {"label": "*0", "atom_type": "Cd"}, "14": {"label": "*1", "atom_type": "Cs"}}

>  <type>  (12) 
unop_8

>  <geom_source>  (12) 
Heuristics

$$$$

     RDKit          3D

 24 22  0  0  0  0  0  0  0  0999 V2000
    1.1140    0.5024   -2.0182 C   0  0  0  0  0  0  0  0  0  0  0  0
    1.1140    0.5024   -0.4959 C   0  0  0  0  0  0  0  0  0  0  0  0
    2.4692   -0.5139    0.1877 S   0  0  0  0  0  0  0  0  0  0  0  0
    1.1140    1.9124    0.0781 C   0  0  0  0  0  0  0  0  0  0  0  0
    1.0855   -0.5118   -2.4149 H   0  0  0  0  0  0  0  0  0  0  0  0
    2.0125    0.9922   -2.4018 H   0  0  0  0  0  0  0  0  0  0  0  0
    0.2471    1.0499   -2.3971 H   0  0  0  0  0  0  0  0  0  0  0  0
    0.0461   -0.1295   -0.0709 H   0  0  0  0  0  0  0  0  0  0  0  0
    3.4751    0.2220   -0.3073 H   0  0  0  0  0  0  0  0  0  0  0  0
    0.2471    2.4697   -0.2861 H   0  0  0  0  0  0  0  0  0  0  0  0
    2.0125    2.4523   -0.2309 H   0  0  0  0  0  0  0  0  0  0  0  0
    1.0855    1.8974    1.1670 H   0  0  0  0  0  0  0  0  0  0  0  0
   -2.9663   -1.5420   -1.0176 C   0  0  0  0  0  0  0  0  0  0  0  0
   -2.1240   -0.5918   -0.6453 C   0  0  0  0  0  0  0  0  0  0  0  0
   -1.0250   -0.7632    0.3554 C   0  0  0  0  0  3  0  0  0  0  0  0
   -1.1512    0.0939    1.5855 C   0  0  0  0  0  0  0  0  0  0  0  0
   -2.2152    0.7989    1.9360 C   0  0  0  0  0  0  0  0  0  0  0  0
   -3.7380   -1.3582   -1.7546 H   0  0  0  0  0  0  0  0  0  0  0  0
   -2.9132   -2.5414   -0.5988 H   0  0  0  0  0  0  0  0  0  0  0  0
   -2.2158    0.3994   -1.0820 H   0  0  0  0  0  0  0  0  0  0  0  0
   -0.9576   -1.8131    0.6595 H   0  0  0  0  0  0  0  0  0  0  0  0
   -0.2757    0.1071    2.2288 H   0  0  0  0  0  0  0  0  0  0  0  0
   -2.2222    1.3848    2.8463 H   0  0  0  0  0  0  0  0  0  0  0  0
   -3.1164    0.8103    1.3338 H   0  0  0  0  0  0  0  0  0  0  0  0
  1  2  1  0
  1  5  1  0
  1  6  1  0
  1  7  1  0
  2  4  1  0
  2  3  1  0
  2  8  1  0
  3  9  1  0
  4 10  1  0
  4 11  1  0
  4 12  1  0
 13 14  2  3
 13 18  1  0
 13 19  1  0
 14 15  1  0
 14 20  1  0
 15 16  1  0
 15 21  1  0
 16 17  2  3
 16 22  1  0
 17 23  1  0
 17 24  1  0
M  RAD  1  15   2
M  END
>  <reaction>  (13) 
rxn_1915

>  <mol_properties>  (13) 
{"1": {"label": "*3", "atom_type": "Cs"}, "2": {"label": "*4", "atom_type": "S2s"}, "7": {"label": "*2", "atom_type": "H0"}, "13": {"label": "*0", "atom_type": "Cd"}, "14": {"label": "*1", "atom_type": "Cs"}}

>  <type>  (13) 
unop_9

>  <geom_source>  (13) 
Heuristics

$$$$

     RDKit          3D

 24 22  0  0  0  0  0  0  0  0999 V2000
    1.0027    1.0052   -1.9957 C   0  0  0  0  0  0  0  0  0  0  0  0
    1.0027    1.0052   -0.4733 C   0  0  0  0  0  0  0  0  0  0  0  0
    2.3578   -0.0111    0.2102 S   0  0  0  0  0  0  0  0  0  0  0  0
    1.0027    2.4151    0.1007 C   0  0  0  0  0  0  0  0  0  0  0  0
    0.9741   -0.0091   -2.3923 H   0  0  0  0  0  0  0  0  0  0  0  0
    1.9011    1.4949   -2.3792 H   0  0  0  0  0  0  0  0  0  0  0  0
    0.1357    1.5526   -2.3745 H   0  0  0  0  0  0  0  0  0  0  0  0
   -0.0652    0.3733   -0.0483 H   0  0  0  0  0  0  0  0  0  0  0  0
    3.3637    0.7247   -0.2847 H   0  0  0  0  0  0  0  0  0  0  0  0
    0.1357    2.9724   -0.2635 H   0  0  0  0  0  0  0  0  0  0  0  0
    1.9011    2.9551   -0.2083 H   0  0  0  0  0  0  0  0  0  0  0  0
    0.9741    2.4001    1.1896 H   0  0  0  0  0  0  0  0  0  0  0  0
   -0.5448   -2.6891    0.4910 C   0  0  0  0  0  0  0  0  0  0  0  0
   -1.1071   -1.6665   -0.1330 C   0  0  0  0  0  0  0  0  0  0  0  0
   -1.1363   -0.2605    0.3780 C   0  0  0  0  0  3  0  0  0  0  0  0
   -2.5124    0.2862    0.6450 C   0  0  0  0  0  0  0  0  0  0  0  0
   -3.6362   -0.4129    0.6656 C   0  0  0  0  0  0  0  0  0  0  0  0
   -0.5495   -3.6846    0.0651 H   0  0  0  0  0  0  0  0  0  0  0  0
   -0.0567   -2.5667    1.4520 H   0  0  0  0  0  0  0  0  0  0  0  0
   -1.5942   -1.8321   -1.0905 H   0  0  0  0  0  0  0  0  0  0  0  0
   -0.5399   -0.1835    1.2932 H   0  0  0  0  0  0  0  0  0  0  0  0
   -2.5526    1.3535    0.8446 H   0  0  0  0  0  0  0  0  0  0  0  0
   -4.5862    0.0624    0.8745 H   0  0  0  0  0  0  0  0  0  0  0  0
   -3.6475   -1.4813    0.4833 H   0  0  0  0  0  0  0  0  0  0  0  0
  1  2  1  0
  1  5  1  0
  1  6  1  0
  1  7  1  0
  2  4  1  0
  2  3  1  0
  2  8  1  0
  3  9  1  0
  4 10  1  0
  4 11  1  0
  4 12  1  0
 13 14  2  3
 13 18  1  0
 13 19  1  0
 14 15  1  0
 14 20  1  0
 15 16  1  0
 15 21  1  0
 16 17  2  3
 16 22  1  0
 17 23  1  0
 17 24  1  0
M  RAD  1  15   2
M  END
>  <reaction>  (14) 
rxn_1915

>  <mol_properties>  (14) 
{"1": {"label": "*3", "atom_type": "Cs"}, "2": {"label": "*4", "atom_type": "S2s"}, "7": {"label": "*2", "atom_type": "H0"}, "13": {"label": "*0", "atom_type": "Cd"}, "14": {"label": "*1", "atom_type": "Cs"}}

>  <type>  (14) 
unop_10

>  <geom_source>  (14) 
Heuristics

$$$$

     RDKit          3D

 24 22  0  0  0  0  0  0  0  0999 V2000
    0.6991    0.8550   -2.3928 C   0  0  0  0  0  0  0  0  0  0  0  0
    0.6991    0.8550   -0.8704 C   0  0  0  0  0  0  0  0  0  0  0  0
    2.0542   -0.1613   -0.1869 S   0  0  0  0  0  0  0  0  0  0  0  0
    0.6991    2.2650   -0.2964 C   0  0  0  0  0  0  0  0  0  0  0  0
    0.6705   -0.1592   -2.7894 H   0  0  0  0  0  0  0  0  0  0  0  0
    1.5975    1.3448   -2.7763 H   0  0  0  0  0  0  0  0  0  0  0  0
   -0.1679    1.4025   -2.7716 H   0  0  0  0  0  0  0  0  0  0  0  0
   -0.3688    0.2231   -0.4454 H   0  0  0  0  0  0  0  0  0  0  0  0
    3.0601    0.5746   -0.6818 H   0  0  0  0  0  0  0  0  0  0  0  0
   -0.1679    2.8223   -0.6606 H   0  0  0  0  0  0  0  0  0  0  0  0
    1.5975    2.8049   -0.6054 H   0  0  0  0  0  0  0  0  0  0  0  0
    0.6705    2.2500    0.7925 H   0  0  0  0  0  0  0  0  0  0  0  0
   -3.1029    0.2383    1.7341 C   0  0  0  0  0  0  0  0  0  0  0  0
   -1.8558    0.1651    1.2978 C   0  0  0  0  0  0  0  0  0  0  0  0
   -1.4399   -0.4106   -0.0191 C   0  0  0  0  0  3  0  0  0  0  0  0
   -0.5436   -1.6156    0.0728 C   0  0  0  0  0  0  0  0  0  0  0  0
   -0.2766   -2.3040    1.1714 C   0  0  0  0  0  0  0  0  0  0  0  0
   -3.3420    0.6747    2.6958 H   0  0  0  0  0  0  0  0  0  0  0  0
   -3.9323   -0.1348    1.1427 H   0  0  0  0  0  0  0  0  0  0  0  0
   -1.0515    0.5422    1.9244 H   0  0  0  0  0  0  0  0  0  0  0  0
   -2.3252   -0.6708   -0.6090 H   0  0  0  0  0  0  0  0  0  0  0  0
   -0.0973   -1.9297   -0.8667 H   0  0  0  0  0  0  0  0  0  0  0  0
    0.3770   -3.1666    1.1453 H   0  0  0  0  0  0  0  0  0  0  0  0
   -0.7051   -2.0373    2.1307 H   0  0  0  0  0  0  0  0  0  0  0  0
  1  2  1  0
  1  5  1  0
  1  6  1  0
  1  7  1  0
  2  4  1  0
  2  3  1  0
  2  8  1  0
  3  9  1  0
  4 10  1  0
  4 11  1  0
  4 12  1  0
 13 14  2  3
 13 18  1  0
 13 19  1  0
 14 15  1  0
 14 20  1  0
 15 16  1  0
 15 21  1  0
 16 17  2  3
 16 22  1  0
 17 23  1  0
 17 24  1  0
M  RAD  1  15   2
M  END
>  <reaction>  (15) 
rxn_1915

>  <mol_properties>  (15) 
{"1": {"label": "*3", "atom_type": "Cs"}, "2": {"label": "*4", "atom_type": "S2s"}, "7": {"label": "*2", "atom_type": "H0"}, "13": {"label": "*0", "atom_type": "Cd"}, "14": {"label": "*1", "atom_type": "Cs"}}

>  <type>  (15) 
unop_11

>  <geom_source>  (15) 
Heuristics

$$$$

     RDKit          3D

 24 22  0  0  0  0  0  0  0  0999 V2000
    1.1426    0.6890   -1.9031 C   0  0  0  0  0  0  0  0  0  0  0  0
    1.1426    0.6890   -0.3808 C   0  0  0  0  0  0  0  0  0  0  0  0
    2.4978   -0.3273    0.3028 S   0  0  0  0  0  0  0  0  0  0  0  0
    1.1426    2.0990    0.1932 C   0  0  0  0  0  0  0  0  0  0  0  0
    1.1141   -0.3252   -2.2998 H   0  0  0  0  0  0  0  0  0  0  0  0
    2.0411    1.1788   -2.2867 H   0  0  0  0  0  0  0  0  0  0  0  0
    0.2757    1.2365   -2.2820 H   0  0  0  0  0  0  0  0  0  0  0  0
    0.0748    0.0571    0.0442 H   0  0  0  0  0  0  0  0  0  0  0  0
    3.5037    0.4086   -0.1921 H   0  0  0  0  0  0  0  0  0  0  0  0
    0.2757    2.6563   -0.1710 H   0  0  0  0  0  0  0  0  0  0  0  0
    2.0411    2.6389   -0.1158 H   0  0  0  0  0  0  0  0  0  0  0  0
    1.1141    2.0840    1.2822 H   0  0  0  0  0  0  0  0  0  0  0  0
   -2.0960   -2.3066   -0.9642 C   0  0  0  0  0  0  0  0  0  0  0  0
   -1.7881   -1.0451   -0.7095 C   0  0  0  0  0  0  0  0  0  0  0  0
   -0.9963   -0.5766    0.4705 C   0  0  0  0  0  3  0  0  0  0  0  0
   -1.7379    0.3399    1.4053 C   0  0  0  0  0  0  0  0  0  0  0  0
   -3.0384    0.5856    1.3842 C   0  0  0  0  0  0  0  0  0  0  0  0
   -2.6666   -2.5844   -1.8415 H   0  0  0  0  0  0  0  0  0  0  0  0
   -1.7860   -3.1094   -0.3037 H   0  0  0  0  0  0  0  0  0  0  0  0
   -2.1251   -0.2686   -1.3915 H   0  0  0  0  0  0  0  0  0  0  0  0
   -0.6259   -1.4375    1.0369 H   0  0  0  0  0  0  0  0  0  0  0  0
   -1.1234    0.8217    2.1608 H   0  0  0  0  0  0  0  0  0  0  0  0
   -3.4920    1.2565    2.1026 H   0  0  0  0  0  0  0  0  0  0  0  0
   -3.6954    0.1219    0.6574 H   0  0  0  0  0  0  0  0  0  0  0  0
  1  2  1  0
  1  5  1  0
  1  6  1  0
  1  7  1  0
  2  4  1  0
  2  3  1  0
  2  8  1  0
  3  9  1  0
  4 10  1  0
  4 11  1  0
  4 12  1  0
 13 14  2  3
 13 18  1  0
 13 19  1  0
 14 15  1  0
 14 20  1  0
 15 16  1  0
 15 21  1  0
 16 17  2  3
 16 22  1  0
 17 23  1  0
 17 24  1  0
M  RAD  1  15   2
M  END
>  <reaction>  (16) 
rxn_1915

>  <mol_properties>  (16) 
{"1": {"label": "*3", "atom_type": "Cs"}, "2": {"label": "*4", "atom_type": "S2s"}, "7": {"label": "*2", "atom_type": "H0"}, "13": {"label": "*0", "atom_type": "Cd"}, "14": {"label": "*1", "atom_type": "Cs"}}

>  <type>  (16) 
unop_12

>  <geom_source>  (16) 
Heuristics

$$$$

     RDKit          3D

 24 22  0  0  0  0  0  0  0  0999 V2000
   -2.5588    0.7480    1.5937 S   0  0  0  0  0  0  0  0  0  0  0  0
    1.0618    0.0454   -0.4786 C   0  0  0  0  0  3  0  0  0  0  0  0
   -2.0623    0.6803   -1.1166 C   0  0  0  0  0  0  0  0  0  0  0  0
   -1.2911   -1.2918    0.2540 C   0  0  0  0  0  0  0  0  0  0  0  0
   -1.4841    0.2212    0.2197 C   0  0  0  0  0  0  0  0  0  0  0  0
    1.9678    1.0180    0.2227 C   0  0  0  0  0  0  0  0  0  0  0  0
    1.6441   -1.3385   -0.4806 C   0  0  0  0  0  0  0  0  0  0  0  0
    1.6041    2.2917    0.3842 C   0  0  0  0  0  0  0  0  0  0  0  0
    1.6833   -2.0782    0.6307 C   0  0  0  0  0  0  0  0  0  0  0  0
    0.9188    0.3784   -1.5291 H   0  0  0  0  0  0  0  0  0  0  0  0
   -0.2075    0.0229    0.1628 H   0  0  0  0  0  0  0  0  0  0  0  0
   -3.0657    0.2329   -1.2827 H   0  0  0  0  0  0  0  0  0  0  0  0
   -2.1524    1.7866   -1.1269 H   0  0  0  0  0  0  0  0  0  0  0  0
   -1.3872    0.3797   -1.9453 H   0  0  0  0  0  0  0  0  0  0  0  0
   -0.8409   -1.5891    1.2243 H   0  0  0  0  0  0  0  0  0  0  0  0
   -2.2644   -1.8134    0.1304 H   0  0  0  0  0  0  0  0  0  0  0  0
   -0.6031   -1.6051   -0.5593 H   0  0  0  0  0  0  0  0  0  0  0  0
    2.9304    0.6926    0.6092 H   0  0  0  0  0  0  0  0  0  0  0  0
    2.0244   -1.7529   -1.4097 H   0  0  0  0  0  0  0  0  0  0  0  0
    2.2654    2.9853    0.8933 H   0  0  0  0  0  0  0  0  0  0  0  0
    0.6491    2.6509    0.0121 H   0  0  0  0  0  0  0  0  0  0  0  0
    1.3019   -1.6924    1.5715 H   0  0  0  0  0  0  0  0  0  0  0  0
    2.1012   -3.0792    0.6025 H   0  0  0  0  0  0  0  0  0  0  0  0
   -2.2348    2.1066    1.4176 H   0  0  0  0  0  0  0  0  0  0  0  0
  1  5  1  0
  1 24  1  0
  2  6  1  0
  2  7  1  0
  2 10  1  0
  3  5  1  0
  3 12  1  0
  3 13  1  0
  3 14  1  0
  4  5  1  0
  4 15  1  0
  4 16  1  0
  4 17  1  0
  5 11  1  0
  6  8  2  3
  6 18  1  0
  7  9  2  3
  7 19  1  0
  8 20  1  0
  8 21  1  0
  9 22  1  0
  9 23  1  0
M  RAD  1   2   2
M  END
>  <reaction>  (17) 
rxn_1915

>  <mol_properties>  (17) 
{"1": {"label": "*3", "atom_type": "Cs"}, "2": {"label": "*4", "atom_type": "S2s"}, "7": {"label": "*2", "atom_type": "H0"}, "13": {"label": "*0", "atom_type": "Cd"}, "14": {"label": "*1", "atom_type": "Cs"}}

>  <type>  (17) 
unop_13

>  <geom_source>  (17) 
AutoTST

$$$$
