
     RDKit          3D

  7  6  0  0  0  0  0  0  0  0999 V2000
   -0.8134   -0.1164    0.3300 C   0  0  0  0  0  0  0  0  0  0  0  0
    0.2313    0.4515   -0.2553 C   0  0  0  0  0  0  0  0  0  0  0  0
    1.4449   -0.1043   -0.4662 O   0  0  0  0  0  0  0  0  0  0  0  0
   -1.7342    0.4365    0.4394 H   0  0  0  0  0  0  0  0  0  0  0  0
   -0.7819   -1.1311    0.7105 H   0  0  0  0  0  0  0  0  0  0  0  0
    0.2022    1.4650   -0.6362 H   0  0  0  0  0  0  0  0  0  0  0  0
    1.4512   -1.0012   -0.1223 H   0  0  0  0  0  0  0  0  0  0  0  0
  1  2  2  3
  1  4  1  0
  1  5  1  0
  2  3  1  0
  2  6  1  0
  3  7  1  0
M  END
>  <reaction>  (1) 
rxn_690

>  <mol_properties>  (1) 
{"2": {"label": "donator", "atom_type": "O2s"}, "6": {"label": "d_hydrogen", "atom_type": "H0"}}

>  <type>  (1) 
r1h

$$$$

     RDKit          3D

  1  0  0  0  0  0  0  0  0  0999 V2000
    0.0000    0.0000    0.0000 H   0  0  0  0  0 15  0  0  0  0  0  0
M  END
>  <reaction>  (2) 
rxn_690

>  <mol_properties>  (2) 
{"0": {"label": "acceptor", "atom_type": "H0"}}

>  <type>  (2) 
r2

$$$$

     RDKit          3D

  2  1  0  0  0  0  0  0  0  0999 V2000
    0.0000    0.0000    0.3721 H   0  0  0  0  0  0  0  0  0  0  0  0
    0.0000    0.0000   -0.3721 H   0  0  0  0  0  0  0  0  0  0  0  0
  1  2  1  0
M  END
>  <reaction>  (3) 
rxn_690

>  <mol_properties>  (3) 
{"0": {"label": "acceptor", "atom_type": "H0"}, "1": {"label": "a_hydrogen", "atom_type": "H0"}}

>  <type>  (3) 
r2h

$$$$

     RDKit          3D

  8  6  0  0  0  0  0  0  0  0999 V2000
    0.4114    2.3709   -0.0145 H   0  0  0  0  0 15  0  0  0  0  0  0
   -0.0833   -0.5233   -1.2187 C   0  0  0  0  0  0  0  0  0  0  0  0
   -0.0571   -0.4476    0.1129 C   0  0  0  0  0  0  0  0  0  0  0  0
   -0.3575    0.6141    0.8561 O   0  0  0  0  0  0  0  0  0  0  0  0
    0.1791   -1.4489   -1.7097 H   0  0  0  0  0  0  0  0  0  0  0  0
   -0.3107    0.3396   -1.8320 H   0  0  0  0  0  0  0  0  0  0  0  0
    0.2499   -1.3011    0.7154 H   0  0  0  0  0  0  0  0  0  0  0  0
   -0.0318    1.6016    0.3605 H   0  0  0  0  0  0  0  0  0  0  0  0
  2  3  2  3
  2  5  1  0
  2  6  1  0
  3  4  1  0
  3  7  1  0
  4  8  1  0
M  END
>  <reaction>  (4) 
rxn_690

>  <mol_properties>  (4) 
{"0": {"label": "*1", "atom_type": "H0"}, "2": {"label": "*4", "atom_type": "Cd"}, "3": {"label": "*3", "atom_type": "O2s"}, "7": {"label": "*2", "atom_type": "H0"}}

>  <type>  (4) 
ts

$$$$

     RDKit          3D

  8  6  0  0  0  0  0  0  0  0999 V2000
    0.0000    2.3140   -0.1802 H   0  0  0  0  0 15  0  0  0  0  0  0
   -0.0000   -0.4708   -1.1859 C   0  0  0  0  0  0  0  0  0  0  0  0
   -0.0000   -0.4708    0.1394 C   0  0  0  0  0  0  0  0  0  0  0  0
   -0.0000    0.6096    0.9511 O   0  0  0  0  0  0  0  0  0  0  0  0
   -0.0000   -1.4072   -1.7231 H   0  0  0  0  0  0  0  0  0  0  0  0
    0.0000    0.4464   -1.7638 H   0  0  0  0  0  0  0  0  0  0  0  0
   -0.0000   -1.3859    0.7190 H   0  0  0  0  0  0  0  0  0  0  0  0
    0.0000    1.5700    0.3136 H   0  0  0  0  0  0  0  0  0  0  0  0
  2  3  2  3
  2  5  1  0
  2  6  1  0
  3  4  1  0
  3  7  1  0
  4  8  1  0
M  END
>  <reaction>  (5) 
rxn_690

>  <mol_properties>  (5) 
{"0": {"label": "*1", "atom_type": "H0"}, "2": {"label": "*4", "atom_type": "Cd"}, "3": {"label": "*3", "atom_type": "O2s"}, "7": {"label": "*2", "atom_type": "H0"}}

>  <type>  (5) 
unop_1

>  <geom_source>  (5) 
Heuristics

$$$$

     RDKit          3D

  8  6  0  0  0  0  0  0  0  0999 V2000
    1.0508   -0.2322   -0.0965 O   0  0  0  0  0  0  0  0  0  0  0  0
   -0.2767   -0.6369   -0.0385 C   0  0  0  0  0  0  0  0  0  0  0  0
   -1.2209    0.2187    0.3298 C   0  0  0  0  0  0  0  0  0  0  0  0
   -0.5372   -1.6554   -0.2956 H   0  0  0  0  0  0  0  0  0  0  0  0
   -0.9679    1.2390    0.5885 H   0  0  0  0  0  0  0  0  0  0  0  0
   -2.2548   -0.0982    0.3745 H   0  0  0  0  0  0  0  0  0  0  0  0
    1.8339    0.1555   -0.1226 H   0  0  0  0  0  0  0  0  0  0  0  0
    2.3729    1.0095   -0.7396 H   0  0  0  0  0 15  0  0  0  0  0  0
  1  2  1  0
  1  7  1  0
  2  3  2  3
  2  4  1  0
  3  5  1  0
  3  6  1  0
M  END
>  <reaction>  (6) 
rxn_690

>  <mol_properties>  (6) 
{"0": {"label": "*1", "atom_type": "H0"}, "2": {"label": "*4", "atom_type": "Cd"}, "3": {"label": "*3", "atom_type": "O2s"}, "7": {"label": "*2", "atom_type": "H0"}}

>  <type>  (6) 
unop_2

>  <geom_source>  (6) 
AutoTST

$$$$
