
     RDKit          3D

  7  6  0  0  0  0  0  0  0  0999 V2000
   -0.6782    0.0507    0.0301 C   0  0  0  0  0  0  0  0  0  0  0  0
    0.8092    0.0996    0.0213 C   0  0  0  0  0  0  0  0  0  0  0  0
    1.7473    0.7521    1.1507 S   0  0  0  0  0  0  0  0  0  0  0  0
   -1.0667    0.5456   -0.8653 H   0  0  0  0  0  0  0  0  0  0  0  0
   -1.0112   -0.9904   -0.0239 H   0  0  0  0  0  0  0  0  0  0  0  0
   -1.0920    0.5225    0.9188 H   0  0  0  0  0  0  0  0  0  0  0  0
    1.2740   -0.3620   -0.8520 H   0  0  0  0  0  0  0  0  0  0  0  0
  1  2  1  0
  1  4  1  0
  1  5  1  0
  1  6  1  0
  2  3  2  0
  2  7  1  0
M  END
>  <reaction>  (1) 
rxn_1970

>  <mol_properties>  (1) 
{"0": {"label": "donator", "atom_type": "Cs"}, "3": {"label": "d_hydrogen", "atom_type": "H0"}}

>  <type>  (1) 
r1h

$$$$

     RDKit          3D

  8  7  0  0  0  0  0  0  0  0999 V2000
    1.4098   -0.3617   -0.1137 C   0  0  0  0  0  0  0  0  0  0  0  0
    0.1829   -0.1715   -0.5109 C   0  0  0  0  0  3  0  0  0  0  0  0
   -1.1129    0.2669    0.0153 C   0  0  0  0  0  0  0  0  0  0  0  0
    2.1881   -0.7137   -0.7829 H   0  0  0  0  0  0  0  0  0  0  0  0
    1.7065   -0.1722    0.9205 H   0  0  0  0  0  0  0  0  0  0  0  0
   -1.8665   -0.5154   -0.0958 H   0  0  0  0  0  0  0  0  0  0  0  0
   -1.0351    0.5163    1.0818 H   0  0  0  0  0  0  0  0  0  0  0  0
   -1.4726    1.1513   -0.5143 H   0  0  0  0  0  0  0  0  0  0  0  0
  1  2  2  3
  1  4  1  0
  1  5  1  0
  2  3  1  0
  3  6  1  0
  3  7  1  0
  3  8  1  0
M  RAD  1   2   2
M  END
>  <reaction>  (2) 
rxn_1970

>  <mol_properties>  (2) 
{"1": {"label": "acceptor", "atom_type": "Cd"}}

>  <type>  (2) 
r2

$$$$

     RDKit          3D

  9  8  0  0  0  0  0  0  0  0999 V2000
    1.1303   -0.2933   -0.7510 C   0  0  0  0  0  0  0  0  0  0  0  0
    0.2866    0.4560   -0.0588 C   0  0  0  0  0  0  0  0  0  0  0  0
   -0.9719   -0.0331    0.5823 C   0  0  0  0  0  0  0  0  0  0  0  0
    2.0274    0.1230   -1.1916 H   0  0  0  0  0  0  0  0  0  0  0  0
    0.9532   -1.3530   -0.9023 H   0  0  0  0  0  0  0  0  0  0  0  0
    0.5065    1.5132    0.0659 H   0  0  0  0  0  0  0  0  0  0  0  0
   -0.9526    0.1426    1.6610 H   0  0  0  0  0  0  0  0  0  0  0  0
   -1.1182   -1.1002    0.4106 H   0  0  0  0  0  0  0  0  0  0  0  0
   -1.8412    0.5010    0.1901 H   0  0  0  0  0  0  0  0  0  0  0  0
  1  2  2  3
  1  4  1  0
  1  5  1  0
  2  3  1  0
  2  6  1  0
  3  7  1  0
  3  8  1  0
  3  9  1  0
M  END
>  <reaction>  (3) 
rxn_1970

>  <mol_properties>  (3) 
{"1": {"label": "acceptor", "atom_type": "Cd"}, "8": {"label": "a_hydrogen", "atom_type": "H0"}}

>  <type>  (3) 
r2h

$$$$

     RDKit          3D

 15 13  0  0  0  0  0  0  0  0999 V2000
   -1.4659   -0.6369    1.9703 C   0  0  0  0  0  0  0  0  0  0  0  0
   -1.0815    0.5948    1.7601 C   0  0  0  0  0  3  0  0  0  0  0  0
   -1.4332    1.9279    2.2791 C   0  0  0  0  0  0  0  0  0  0  0  0
   -1.0350   -1.4693    1.4223 H   0  0  0  0  0  0  0  0  0  0  0  0
   -2.2407   -0.8738    2.6982 H   0  0  0  0  0  0  0  0  0  0  0  0
   -1.7987    2.5736    1.4780 H   0  0  0  0  0  0  0  0  0  0  0  0
   -2.2153    1.8500    3.0414 H   0  0  0  0  0  0  0  0  0  0  0  0
   -0.5652    2.4160    2.7271 H   0  0  0  0  0  0  0  0  0  0  0  0
    0.8406    0.5792   -0.1863 C   0  0  0  0  0  0  0  0  0  0  0  0
    1.1436   -0.8234   -0.4087 C   0  0  0  0  0  0  0  0  0  0  0  0
    0.4946   -1.7666   -1.5599 S   0  0  0  0  0  0  0  0  0  0  0  0
   -0.0033    0.6096    0.7018 H   0  0  0  0  0  0  0  0  0  0  0  0
    1.6625    1.1540    0.2399 H   0  0  0  0  0  0  0  0  0  0  0  0
    0.3614    1.0732   -1.0283 H   0  0  0  0  0  0  0  0  0  0  0  0
    1.8397   -1.2677    0.3043 H   0  0  0  0  0  0  0  0  0  0  0  0
  1  2  2  3
  1  4  1  0
  1  5  1  0
  2  3  1  0
  3  6  1  0
  3  7  1  0
  3  8  1  0
  9 10  1  0
  9 12  1  0
  9 13  1  0
  9 14  1  0
 10 11  2  0
 10 15  1  0
M  RAD  1   2   2
M  END
>  <reaction>  (4) 
rxn_1970

>  <mol_properties>  (4) 
{"0": {"label": "*4", "atom_type": "Cd"}, "1": {"label": "*3", "atom_type": "Cd"}, "8": {"label": "*1", "atom_type": "Cs"}, "9": {"label": "*0", "atom_type": "CS"}, "11": {"label": "*2", "atom_type": "H0"}}

>  <type>  (4) 
ts

$$$$

     RDKit          3D

 15 13  0  0  0  0  0  0  0  0999 V2000
   -0.9278    0.3466    3.0476 C   0  0  0  0  0  0  0  0  0  0  0  0
   -1.1123    0.3675    1.7369 C   0  0  0  0  0  0  0  0  0  0  0  0
   -2.1196    1.2100    1.0230 C   0  0  0  0  0  0  0  0  0  0  0  0
   -0.1788   -0.2881    3.5042 H   0  0  0  0  0  0  0  0  0  0  0  0
   -1.5210    0.9655    3.7126 H   0  0  0  0  0  0  0  0  0  0  0  0
   -2.8138    0.5870    0.4531 H   0  0  0  0  0  0  0  0  0  0  0  0
   -2.6970    1.8180    1.7206 H   0  0  0  0  0  0  0  0  0  0  0  0
   -1.6319    1.8767    0.3072 H   0  0  0  0  0  0  0  0  0  0  0  0
    0.9834    0.4318    0.1696 C   0  0  0  0  0  0  0  0  0  0  0  0
    0.9834   -0.7666   -0.7126 C   0  0  0  0  0  0  0  0  0  0  0  0
    0.9834   -0.7666   -2.3192 S   0  0  0  0  0  1  0  0  0  0  0  0
   -0.0680    0.3995    0.9559 H   0  0  0  0  0  0  0  0  0  0  0  0
    1.8595    0.4049    0.8248 H   0  0  0  0  0  0  0  0  0  0  0  0
    0.9833    1.3556   -0.4050 H   0  0  0  0  0  0  0  0  0  0  0  0
    0.9834   -1.7211   -0.1826 H   0  0  0  0  0  0  0  0  0  0  0  0
  1  2  2  3
  1  4  1  0
  1  5  1  0
  2  3  1  0
  2 12  1  0
  3  6  1  0
  3  7  1  0
  3  8  1  0
  9 10  2  3
  9 13  1  0
  9 14  1  0
 10 11  1  0
 10 15  1  0
M  RAD  1  11   2
M  END
>  <reaction>  (5) 
rxn_1970

>  <mol_properties>  (5) 
{"0": {"label": "*4", "atom_type": "Cd"}, "1": {"label": "*3", "atom_type": "Cd"}, "8": {"label": "*1", "atom_type": "Cs"}, "9": {"label": "*0", "atom_type": "CS"}, "11": {"label": "*2", "atom_type": "H0"}}

>  <type>  (5) 
unop_1

>  <geom_source>  (5) 
Heuristics

$$$$

     RDKit          3D

 15 13  0  0  0  0  0  0  0  0999 V2000
   -1.6169   -0.7094    2.0182 C   0  0  0  0  0  0  0  0  0  0  0  0
   -1.1262    0.4660    1.6577 C   0  0  0  0  0  0  0  0  0  0  0  0
   -1.4100    1.7637    2.3430 C   0  0  0  0  0  0  0  0  0  0  0  0
   -1.3719   -1.6153    1.4781 H   0  0  0  0  0  0  0  0  0  0  0  0
   -2.2832   -0.8079    2.8688 H   0  0  0  0  0  0  0  0  0  0  0  0
   -1.8678    2.4764    1.6522 H   0  0  0  0  0  0  0  0  0  0  0  0
   -2.0816    1.6279    3.1916 H   0  0  0  0  0  0  0  0  0  0  0  0
   -0.4862    2.2225    2.7049 H   0  0  0  0  0  0  0  0  0  0  0  0
    0.9694    0.5303    0.0904 C   0  0  0  0  0  0  0  0  0  0  0  0
    0.9694   -0.6682   -0.7918 C   0  0  0  0  0  0  0  0  0  0  0  0
    0.9694   -0.6682   -2.3984 S   0  0  0  0  0  1  0  0  0  0  0  0
   -0.0820    0.4980    0.8767 H   0  0  0  0  0  0  0  0  0  0  0  0
    1.8456    0.5034    0.7456 H   0  0  0  0  0  0  0  0  0  0  0  0
    0.9694    1.4541   -0.4842 H   0  0  0  0  0  0  0  0  0  0  0  0
    0.9694   -1.6226   -0.2618 H   0  0  0  0  0  0  0  0  0  0  0  0
  1  2  2  3
  1  4  1  0
  1  5  1  0
  2  3  1  0
  2 12  1  0
  3  6  1  0
  3  7  1  0
  3  8  1  0
  9 10  2  3
  9 13  1  0
  9 14  1  0
 10 11  1  0
 10 15  1  0
M  RAD  1  11   2
M  END
>  <reaction>  (6) 
rxn_1970

>  <mol_properties>  (6) 
{"0": {"label": "*4", "atom_type": "Cd"}, "1": {"label": "*3", "atom_type": "Cd"}, "8": {"label": "*1", "atom_type": "Cs"}, "9": {"label": "*0", "atom_type": "CS"}, "11": {"label": "*2", "atom_type": "H0"}}

>  <type>  (6) 
unop_2

>  <geom_source>  (6) 
Heuristics

$$$$

     RDKit          3D

 15 13  0  0  0  0  0  0  0  0999 V2000
   -0.9817    0.9774    2.9729 C   0  0  0  0  0  0  0  0  0  0  0  0
   -1.0632    0.4177    1.7760 C   0  0  0  0  0  0  0  0  0  0  0  0
   -2.2876    0.3934    0.9190 C   0  0  0  0  0  0  0  0  0  0  0  0
   -0.0624    0.9606    3.5446 H   0  0  0  0  0  0  0  0  0  0  0  0
   -1.8339    1.4739    3.4248 H   0  0  0  0  0  0  0  0  0  0  0  0
   -2.5886   -0.6342    0.6999 H   0  0  0  0  0  0  0  0  0  0  0  0
   -3.1232    0.9003    1.4032 H   0  0  0  0  0  0  0  0  0  0  0  0
   -2.0997    0.8799   -0.0416 H   0  0  0  0  0  0  0  0  0  0  0  0
    1.0324    0.4821    0.2087 C   0  0  0  0  0  0  0  0  0  0  0  0
    1.0324   -0.7164   -0.6735 C   0  0  0  0  0  0  0  0  0  0  0  0
    1.0324   -0.7164   -2.2801 S   0  0  0  0  0  1  0  0  0  0  0  0
   -0.0189    0.4498    0.9950 H   0  0  0  0  0  0  0  0  0  0  0  0
    1.9086    0.4552    0.8640 H   0  0  0  0  0  0  0  0  0  0  0  0
    1.0324    1.4059   -0.3659 H   0  0  0  0  0  0  0  0  0  0  0  0
    1.0324   -1.6708   -0.1435 H   0  0  0  0  0  0  0  0  0  0  0  0
  1  2  2  3
  1  4  1  0
  1  5  1  0
  2  3  1  0
  2 12  1  0
  3  6  1  0
  3  7  1  0
  3  8  1  0
  9 10  2  3
  9 13  1  0
  9 14  1  0
 10 11  1  0
 10 15  1  0
M  RAD  1  11   2
M  END
>  <reaction>  (7) 
rxn_1970

>  <mol_properties>  (7) 
{"0": {"label": "*4", "atom_type": "Cd"}, "1": {"label": "*3", "atom_type": "Cd"}, "8": {"label": "*1", "atom_type": "Cs"}, "9": {"label": "*0", "atom_type": "CS"}, "11": {"label": "*2", "atom_type": "H0"}}

>  <type>  (7) 
unop_3

>  <geom_source>  (7) 
Heuristics

$$$$

     RDKit          3D

 15 13  0  0  0  0  0  0  0  0999 V2000
   -2.3248    0.3887    1.1461 C   0  0  0  0  0  0  0  0  0  0  0  0
   -1.1195    0.3991    1.6933 C   0  0  0  0  0  0  0  0  0  0  0  0
   -0.7750    1.0295    3.0041 C   0  0  0  0  0  0  0  0  0  0  0  0
   -2.5091   -0.0866    0.1908 H   0  0  0  0  0  0  0  0  0  0  0  0
   -3.1726    0.8564    1.6354 H   0  0  0  0  0  0  0  0  0  0  0  0
   -0.0085    1.7982    2.8764 H   0  0  0  0  0  0  0  0  0  0  0  0
   -1.6489    1.4893    3.4673 H   0  0  0  0  0  0  0  0  0  0  0  0
   -0.3679    0.2886    3.6969 H   0  0  0  0  0  0  0  0  0  0  0  0
    0.9762    0.4635    0.1260 C   0  0  0  0  0  0  0  0  0  0  0  0
    0.9762   -0.7350   -0.7562 C   0  0  0  0  0  0  0  0  0  0  0  0
    0.9762   -0.7350   -2.3629 S   0  0  0  0  0  1  0  0  0  0  0  0
   -0.0752    0.4312    0.9123 H   0  0  0  0  0  0  0  0  0  0  0  0
    1.8523    0.4366    0.7812 H   0  0  0  0  0  0  0  0  0  0  0  0
    0.9762    1.3873   -0.4487 H   0  0  0  0  0  0  0  0  0  0  0  0
    0.9762   -1.6894   -0.2263 H   0  0  0  0  0  0  0  0  0  0  0  0
  1  2  2  3
  1  4  1  0
  1  5  1  0
  2  3  1  0
  2 12  1  0
  3  6  1  0
  3  7  1  0
  3  8  1  0
  9 10  2  3
  9 13  1  0
  9 14  1  0
 10 11  1  0
 10 15  1  0
M  RAD  1  11   2
M  END
>  <reaction>  (8) 
rxn_1970

>  <mol_properties>  (8) 
{"0": {"label": "*4", "atom_type": "Cd"}, "1": {"label": "*3", "atom_type": "Cd"}, "8": {"label": "*1", "atom_type": "Cs"}, "9": {"label": "*0", "atom_type": "CS"}, "11": {"label": "*2", "atom_type": "H0"}}

>  <type>  (8) 
unop_4

>  <geom_source>  (8) 
Heuristics

$$$$

     RDKit          3D

 15 13  0  0  0  0  0  0  0  0999 V2000
   -1.2543    1.5213    2.5813 C   0  0  0  0  0  0  0  0  0  0  0  0
   -1.0742    0.5351    1.7167 C   0  0  0  0  0  0  0  0  0  0  0  0
   -1.9823   -0.6405    1.5510 C   0  0  0  0  0  0  0  0  0  0  0  0
   -0.5573    2.3469    2.6521 H   0  0  0  0  0  0  0  0  0  0  0  0
   -2.1076    1.5380    3.2511 H   0  0  0  0  0  0  0  0  0  0  0  0
   -1.4453   -1.5752    1.7319 H   0  0  0  0  0  0  0  0  0  0  0  0
   -2.8276   -0.5913    2.2385 H   0  0  0  0  0  0  0  0  0  0  0  0
   -2.3709   -0.6910    0.5306 H   0  0  0  0  0  0  0  0  0  0  0  0
    1.0214    0.5995    0.1495 C   0  0  0  0  0  0  0  0  0  0  0  0
    1.0214   -0.5990   -0.7327 C   0  0  0  0  0  0  0  0  0  0  0  0
    1.0214   -0.5990   -2.3394 S   0  0  0  0  0  1  0  0  0  0  0  0
   -0.0300    0.5672    0.9357 H   0  0  0  0  0  0  0  0  0  0  0  0
    1.8976    0.5726    0.8047 H   0  0  0  0  0  0  0  0  0  0  0  0
    1.0214    1.5233   -0.4252 H   0  0  0  0  0  0  0  0  0  0  0  0
    1.0214   -1.5534   -0.2028 H   0  0  0  0  0  0  0  0  0  0  0  0
  1  2  2  3
  1  4  1  0
  1  5  1  0
  2  3  1  0
  2 12  1  0
  3  6  1  0
  3  7  1  0
  3  8  1  0
  9 10  2  3
  9 13  1  0
  9 14  1  0
 10 11  1  0
 10 15  1  0
M  RAD  1  11   2
M  END
>  <reaction>  (9) 
rxn_1970

>  <mol_properties>  (9) 
{"0": {"label": "*4", "atom_type": "Cd"}, "1": {"label": "*3", "atom_type": "Cd"}, "8": {"label": "*1", "atom_type": "Cs"}, "9": {"label": "*0", "atom_type": "CS"}, "11": {"label": "*2", "atom_type": "H0"}}

>  <type>  (9) 
unop_5

>  <geom_source>  (9) 
Heuristics

$$$$

     RDKit          3D

 15 13  0  0  0  0  0  0  0  0999 V2000
   -2.2854    0.9685    1.2491 C   0  0  0  0  0  0  0  0  0  0  0  0
   -1.1633    0.3998    1.6612 C   0  0  0  0  0  0  0  0  0  0  0  0
   -0.6166    0.4819    3.0500 C   0  0  0  0  0  0  0  0  0  0  0  0
   -2.6277    0.8707    0.2265 H   0  0  0  0  0  0  0  0  0  0  0  0
   -2.9035    1.5539    1.9217 H   0  0  0  0  0  0  0  0  0  0  0  0
    0.3797    0.9316    3.0497 H   0  0  0  0  0  0  0  0  0  0  0  0
   -1.2617    1.0766    3.6979 H   0  0  0  0  0  0  0  0  0  0  0  0
   -0.5140   -0.5146    3.4871 H   0  0  0  0  0  0  0  0  0  0  0  0
    0.9323    0.4641    0.0940 C   0  0  0  0  0  0  0  0  0  0  0  0
    0.9323   -0.7344   -0.7882 C   0  0  0  0  0  0  0  0  0  0  0  0
    0.9323   -0.7344   -2.3949 S   0  0  0  0  0  1  0  0  0  0  0  0
   -0.1191    0.4318    0.8803 H   0  0  0  0  0  0  0  0  0  0  0  0
    1.8085    0.4372    0.7492 H   0  0  0  0  0  0  0  0  0  0  0  0
    0.9323    1.3879   -0.4807 H   0  0  0  0  0  0  0  0  0  0  0  0
    0.9323   -1.6888   -0.2583 H   0  0  0  0  0  0  0  0  0  0  0  0
  1  2  2  3
  1  4  1  0
  1  5  1  0
  2  3  1  0
  2 12  1  0
  3  6  1  0
  3  7  1  0
  3  8  1  0
  9 10  2  3
  9 13  1  0
  9 14  1  0
 10 11  1  0
 10 15  1  0
M  RAD  1  11   2
M  END
>  <reaction>  (10) 
rxn_1970

>  <mol_properties>  (10) 
{"0": {"label": "*4", "atom_type": "Cd"}, "1": {"label": "*3", "atom_type": "Cd"}, "8": {"label": "*1", "atom_type": "Cs"}, "9": {"label": "*0", "atom_type": "CS"}, "11": {"label": "*2", "atom_type": "H0"}}

>  <type>  (10) 
unop_6

>  <geom_source>  (10) 
Heuristics

$$$$

     RDKit          3D

 15 13  0  0  0  0  0  0  0  0999 V2000
   -2.0697    1.4376    1.5655 C   0  0  0  0  0  0  0  0  0  0  0  0
   -1.1947    0.4463    1.6299 C   0  0  0  0  0  0  0  0  0  0  0  0
   -0.6794   -0.1660    2.8923 C   0  0  0  0  0  0  0  0  0  0  0  0
   -2.4038    1.8375    0.6164 H   0  0  0  0  0  0  0  0  0  0  0  0
   -2.4842    1.8858    2.4624 H   0  0  0  0  0  0  0  0  0  0  0  0
    0.4078   -0.0720    2.9545 H   0  0  0  0  0  0  0  0  0  0  0  0
   -1.1161    0.3077    3.7724 H   0  0  0  0  0  0  0  0  0  0  0  0
   -0.9073   -1.2345    2.9276 H   0  0  0  0  0  0  0  0  0  0  0  0
    0.9009    0.5106    0.0626 C   0  0  0  0  0  0  0  0  0  0  0  0
    0.9009   -0.6879   -0.8196 C   0  0  0  0  0  0  0  0  0  0  0  0
    0.9009   -0.6879   -2.4263 S   0  0  0  0  0  1  0  0  0  0  0  0
   -0.1505    0.4783    0.8489 H   0  0  0  0  0  0  0  0  0  0  0  0
    1.7770    0.4837    0.7178 H   0  0  0  0  0  0  0  0  0  0  0  0
    0.9009    1.4344   -0.5121 H   0  0  0  0  0  0  0  0  0  0  0  0
    0.9009   -1.6423   -0.2897 H   0  0  0  0  0  0  0  0  0  0  0  0
  1  2  2  3
  1  4  1  0
  1  5  1  0
  2  3  1  0
  2 12  1  0
  3  6  1  0
  3  7  1  0
  3  8  1  0
  9 10  2  3
  9 13  1  0
  9 14  1  0
 10 11  1  0
 10 15  1  0
M  RAD  1  11   2
M  END
>  <reaction>  (11) 
rxn_1970

>  <mol_properties>  (11) 
{"0": {"label": "*4", "atom_type": "Cd"}, "1": {"label": "*3", "atom_type": "Cd"}, "8": {"label": "*1", "atom_type": "Cs"}, "9": {"label": "*0", "atom_type": "CS"}, "11": {"label": "*2", "atom_type": "H0"}}

>  <type>  (11) 
unop_7

>  <geom_source>  (11) 
Heuristics

$$$$

     RDKit          3D

 15 13  0  0  0  0  0  0  0  0999 V2000
   -1.0444   -0.2172    2.8598 C   0  0  0  0  0  0  0  0  0  0  0  0
   -1.1457    0.3829    1.6842 C   0  0  0  0  0  0  0  0  0  0  0  0
   -1.8613    1.6712    1.4344 C   0  0  0  0  0  0  0  0  0  0  0  0
   -0.5105   -1.1521    2.9744 H   0  0  0  0  0  0  0  0  0  0  0  0
   -1.4932    0.2065    3.7520 H   0  0  0  0  0  0  0  0  0  0  0  0
   -2.6606    1.5362    0.7011 H   0  0  0  0  0  0  0  0  0  0  0  0
   -2.2995    2.0680    2.3510 H   0  0  0  0  0  0  0  0  0  0  0  0
   -1.1799    2.4216    1.0255 H   0  0  0  0  0  0  0  0  0  0  0  0
    0.9500    0.4472    0.1169 C   0  0  0  0  0  0  0  0  0  0  0  0
    0.9500   -0.7512   -0.7653 C   0  0  0  0  0  0  0  0  0  0  0  0
    0.9500   -0.7512   -2.3720 S   0  0  0  0  0  1  0  0  0  0  0  0
   -0.1014    0.4149    0.9032 H   0  0  0  0  0  0  0  0  0  0  0  0
    1.8261    0.4203    0.7721 H   0  0  0  0  0  0  0  0  0  0  0  0
    0.9499    1.3710   -0.4578 H   0  0  0  0  0  0  0  0  0  0  0  0
    0.9500   -1.7057   -0.2354 H   0  0  0  0  0  0  0  0  0  0  0  0
  1  2  2  3
  1  4  1  0
  1  5  1  0
  2  3  1  0
  2 12  1  0
  3  6  1  0
  3  7  1  0
  3  8  1  0
  9 10  2  3
  9 13  1  0
  9 14  1  0
 10 11  1  0
 10 15  1  0
M  RAD  1  11   2
M  END
>  <reaction>  (12) 
rxn_1970

>  <mol_properties>  (12) 
{"0": {"label": "*4", "atom_type": "Cd"}, "1": {"label": "*3", "atom_type": "Cd"}, "8": {"label": "*1", "atom_type": "Cs"}, "9": {"label": "*0", "atom_type": "CS"}, "11": {"label": "*2", "atom_type": "H0"}}

>  <type>  (12) 
unop_8

>  <geom_source>  (12) 
Heuristics

$$$$

     RDKit          3D

 15 13  0  0  0  0  0  0  0  0999 V2000
   -2.1938   -0.1583    1.2694 C   0  0  0  0  0  0  0  0  0  0  0  0
   -1.0915    0.4328    1.7028 C   0  0  0  0  0  0  0  0  0  0  0  0
   -1.0227    1.3937    2.8457 C   0  0  0  0  0  0  0  0  0  0  0  0
   -2.1765   -0.8466    0.4338 H   0  0  0  0  0  0  0  0  0  0  0  0
   -3.1557    0.0258    1.7363 H   0  0  0  0  0  0  0  0  0  0  0  0
   -0.6300    2.3598    2.5184 H   0  0  0  0  0  0  0  0  0  0  0  0
   -2.0053    1.5551    3.2905 H   0  0  0  0  0  0  0  0  0  0  0  0
   -0.3489    1.0252    3.6235 H   0  0  0  0  0  0  0  0  0  0  0  0
    1.0042    0.4971    0.1355 C   0  0  0  0  0  0  0  0  0  0  0  0
    1.0042   -0.7014   -0.7467 C   0  0  0  0  0  0  0  0  0  0  0  0
    1.0042   -0.7014   -2.3533 S   0  0  0  0  0  1  0  0  0  0  0  0
   -0.0472    0.4648    0.9218 H   0  0  0  0  0  0  0  0  0  0  0  0
    1.8803    0.4702    0.7908 H   0  0  0  0  0  0  0  0  0  0  0  0
    1.0041    1.4209   -0.4391 H   0  0  0  0  0  0  0  0  0  0  0  0
    1.0042   -1.6558   -0.2167 H   0  0  0  0  0  0  0  0  0  0  0  0
  1  2  2  3
  1  4  1  0
  1  5  1  0
  2  3  1  0
  2 12  1  0
  3  6  1  0
  3  7  1  0
  3  8  1  0
  9 10  2  3
  9 13  1  0
  9 14  1  0
 10 11  1  0
 10 15  1  0
M  RAD  1  11   2
M  END
>  <reaction>  (13) 
rxn_1970

>  <mol_properties>  (13) 
{"0": {"label": "*4", "atom_type": "Cd"}, "1": {"label": "*3", "atom_type": "Cd"}, "8": {"label": "*1", "atom_type": "Cs"}, "9": {"label": "*0", "atom_type": "CS"}, "11": {"label": "*2", "atom_type": "H0"}}

>  <type>  (13) 
unop_9

>  <geom_source>  (13) 
Heuristics

$$$$

     RDKit          3D

 15 13  0  0  0  0  0  0  0  0999 V2000
   -1.2955   -0.5947    2.4819 C   0  0  0  0  0  0  0  0  0  0  0  0
   -1.1496    0.4280    1.6541 C   0  0  0  0  0  0  0  0  0  0  0  0
   -1.6077    1.8251    1.9233 C   0  0  0  0  0  0  0  0  0  0  0  0
   -0.9405   -1.5852    2.2267 H   0  0  0  0  0  0  0  0  0  0  0  0
   -1.7766   -0.4773    3.4472 H   0  0  0  0  0  0  0  0  0  0  0  0
   -2.3205    2.1540    1.1627 H   0  0  0  0  0  0  0  0  0  0  0  0
   -2.0858    1.9067    2.9002 H   0  0  0  0  0  0  0  0  0  0  0  0
   -0.7669    2.5228    1.8920 H   0  0  0  0  0  0  0  0  0  0  0  0
    0.9460    0.4923    0.0868 C   0  0  0  0  0  0  0  0  0  0  0  0
    0.9460   -0.7062   -0.7954 C   0  0  0  0  0  0  0  0  0  0  0  0
    0.9460   -0.7062   -2.4020 S   0  0  0  0  0  1  0  0  0  0  0  0
   -0.1054    0.4600    0.8731 H   0  0  0  0  0  0  0  0  0  0  0  0
    1.8221    0.4654    0.7420 H   0  0  0  0  0  0  0  0  0  0  0  0
    0.9460    1.4161   -0.4878 H   0  0  0  0  0  0  0  0  0  0  0  0
    0.9460   -1.6606   -0.2654 H   0  0  0  0  0  0  0  0  0  0  0  0
  1  2  2  3
  1  4  1  0
  1  5  1  0
  2  3  1  0
  2 12  1  0
  3  6  1  0
  3  7  1  0
  3  8  1  0
  9 10  2  3
  9 13  1  0
  9 14  1  0
 10 11  1  0
 10 15  1  0
M  RAD  1  11   2
M  END
>  <reaction>  (14) 
rxn_1970

>  <mol_properties>  (14) 
{"0": {"label": "*4", "atom_type": "Cd"}, "1": {"label": "*3", "atom_type": "Cd"}, "8": {"label": "*1", "atom_type": "Cs"}, "9": {"label": "*0", "atom_type": "CS"}, "11": {"label": "*2", "atom_type": "H0"}}

>  <type>  (14) 
unop_10

>  <geom_source>  (14) 
Heuristics

$$$$

     RDKit          3D

 15 13  0  0  0  0  0  0  0  0999 V2000
   -1.7046    1.6681    2.0345 C   0  0  0  0  0  0  0  0  0  0  0  0
   -1.1745    0.5241    1.6316 C   0  0  0  0  0  0  0  0  0  0  0  0
   -1.1126   -0.7291    2.4440 C   0  0  0  0  0  0  0  0  0  0  0  0
   -1.7180    2.5423    1.3958 H   0  0  0  0  0  0  0  0  0  0  0  0
   -2.1454    1.7715    3.0205 H   0  0  0  0  0  0  0  0  0  0  0  0
   -0.0776   -1.0519    2.5828 H   0  0  0  0  0  0  0  0  0  0  0  0
   -1.5638   -0.5895    3.4272 H   0  0  0  0  0  0  0  0  0  0  0  0
   -1.6340   -1.5462    1.9388 H   0  0  0  0  0  0  0  0  0  0  0  0
    0.9211    0.5884    0.0643 C   0  0  0  0  0  0  0  0  0  0  0  0
    0.9211   -0.6101   -0.8179 C   0  0  0  0  0  0  0  0  0  0  0  0
    0.9211   -0.6101   -2.4246 S   0  0  0  0  0  1  0  0  0  0  0  0
   -0.1302    0.5561    0.8506 H   0  0  0  0  0  0  0  0  0  0  0  0
    1.7973    0.5615    0.7195 H   0  0  0  0  0  0  0  0  0  0  0  0
    0.9211    1.5122   -0.5104 H   0  0  0  0  0  0  0  0  0  0  0  0
    0.9212   -1.5645   -0.2880 H   0  0  0  0  0  0  0  0  0  0  0  0
  1  2  2  3
  1  4  1  0
  1  5  1  0
  2  3  1  0
  2 12  1  0
  3  6  1  0
  3  7  1  0
  3  8  1  0
  9 10  2  3
  9 13  1  0
  9 14  1  0
 10 11  1  0
 10 15  1  0
M  RAD  1  11   2
M  END
>  <reaction>  (15) 
rxn_1970

>  <mol_properties>  (15) 
{"0": {"label": "*4", "atom_type": "Cd"}, "1": {"label": "*3", "atom_type": "Cd"}, "8": {"label": "*1", "atom_type": "Cs"}, "9": {"label": "*0", "atom_type": "CS"}, "11": {"label": "*2", "atom_type": "H0"}}

>  <type>  (15) 
unop_11

>  <geom_source>  (15) 
Heuristics

$$$$

     RDKit          3D

 15 13  0  0  0  0  0  0  0  0999 V2000
   -1.9375   -0.5505    1.5827 C   0  0  0  0  0  0  0  0  0  0  0  0
   -1.0967    0.4669    1.6838 C   0  0  0  0  0  0  0  0  0  0  0  0
   -1.2400    1.6103    2.6359 C   0  0  0  0  0  0  0  0  0  0  0  0
   -1.7765   -1.3498    0.8703 H   0  0  0  0  0  0  0  0  0  0  0  0
   -2.8195   -0.6206    2.2107 H   0  0  0  0  0  0  0  0  0  0  0  0
   -1.2989    2.5597    2.0974 H   0  0  0  0  0  0  0  0  0  0  0  0
   -2.1354    1.5077    3.2502 H   0  0  0  0  0  0  0  0  0  0  0  0
   -0.3733    1.6754    3.2987 H   0  0  0  0  0  0  0  0  0  0  0  0
    0.9989    0.5312    0.1166 C   0  0  0  0  0  0  0  0  0  0  0  0
    0.9989   -0.6672   -0.7656 C   0  0  0  0  0  0  0  0  0  0  0  0
    0.9989   -0.6672   -2.3723 S   0  0  0  0  0  1  0  0  0  0  0  0
   -0.0525    0.4990    0.9028 H   0  0  0  0  0  0  0  0  0  0  0  0
    1.8751    0.5044    0.7718 H   0  0  0  0  0  0  0  0  0  0  0  0
    0.9989    1.4550   -0.4581 H   0  0  0  0  0  0  0  0  0  0  0  0
    0.9989   -1.6217   -0.2357 H   0  0  0  0  0  0  0  0  0  0  0  0
  1  2  2  3
  1  4  1  0
  1  5  1  0
  2  3  1  0
  2 12  1  0
  3  6  1  0
  3  7  1  0
  3  8  1  0
  9 10  2  3
  9 13  1  0
  9 14  1  0
 10 11  1  0
 10 15  1  0
M  RAD  1  11   2
M  END
>  <reaction>  (16) 
rxn_1970

>  <mol_properties>  (16) 
{"0": {"label": "*4", "atom_type": "Cd"}, "1": {"label": "*3", "atom_type": "Cd"}, "8": {"label": "*1", "atom_type": "Cs"}, "9": {"label": "*0", "atom_type": "CS"}, "11": {"label": "*2", "atom_type": "H0"}}

>  <type>  (16) 
unop_12

>  <geom_source>  (16) 
Heuristics

$$$$

     RDKit          3D

 15 13  0  0  0  0  0  0  0  0999 V2000
    3.1250   -0.2164    2.0782 S   0  0  0  0  0  1  0  0  0  0  0  0
   -1.6785    1.2481   -0.0765 C   0  0  0  0  0  0  0  0  0  0  0  0
   -0.9881   -0.0771   -0.1551 C   0  0  0  0  0  0  0  0  0  0  0  0
   -1.6117   -1.1547   -0.6349 C   0  0  0  0  0  0  0  0  0  0  0  0
    1.5635    0.2086    0.1231 C   0  0  0  0  0  0  0  0  0  0  0  0
    2.5838   -0.6325    0.8168 C   0  0  0  0  0  0  0  0  0  0  0  0
   -1.9876    1.5759   -1.0915 H   0  0  0  0  0  0  0  0  0  0  0  0
   -2.5731    1.1719    0.5770 H   0  0  0  0  0  0  0  0  0  0  0  0
   -0.9847    2.0020    0.3495 H   0  0  0  0  0  0  0  0  0  0  0  0
    0.2187   -0.1775    0.2441 H   0  0  0  0  0  0  0  0  0  0  0  0
   -2.6393   -1.0975   -0.9816 H   0  0  0  0  0  0  0  0  0  0  0  0
   -1.0899   -2.1045   -0.6818 H   0  0  0  0  0  0  0  0  0  0  0  0
    2.8714   -1.5924    0.4004 H   0  0  0  0  0  0  0  0  0  0  0  0
    1.1764   -0.3259   -0.7695 H   0  0  0  0  0  0  0  0  0  0  0  0
    2.0142    1.1719   -0.1981 H   0  0  0  0  0  0  0  0  0  0  0  0
  1  6  1  0
  2  3  1  0
  2  7  1  0
  2  8  1  0
  2  9  1  0
  3  4  2  3
  3 10  1  0
  4 11  1  0
  4 12  1  0
  5  6  2  3
  5 14  1  0
  5 15  1  0
  6 13  1  0
M  RAD  1   1   2
M  END
>  <reaction>  (17) 
rxn_1970

>  <mol_properties>  (17) 
{"0": {"label": "*4", "atom_type": "Cd"}, "1": {"label": "*3", "atom_type": "Cd"}, "8": {"label": "*1", "atom_type": "Cs"}, "9": {"label": "*0", "atom_type": "CS"}, "11": {"label": "*2", "atom_type": "H0"}}

>  <type>  (17) 
unop_13

>  <geom_source>  (17) 
AutoTST

$$$$
