
     RDKit          3D

 13 12  0  0  0  0  0  0  0  0999 V2000
    2.2975   -0.6134    0.7685 C   0  0  0  0  0  0  0  0  0  0  0  0
    1.1676   -0.5248    0.3802 C   0  0  0  0  0  0  0  0  0  0  0  0
   -0.2109   -0.3926   -0.0948 C   0  0  0  0  0  0  0  0  0  0  0  0
   -0.2501    0.2584   -1.4808 C   0  0  0  0  0  0  0  0  0  0  0  0
   -1.0633    0.3831    0.9141 C   0  0  0  0  0  0  0  0  0  0  0  0
    3.2999   -0.6974    1.1133 H   0  0  0  0  0  0  0  0  0  0  0  0
   -0.6209   -1.4038   -0.1814 H   0  0  0  0  0  0  0  0  0  0  0  0
    0.3402   -0.3102   -2.1992 H   0  0  0  0  0  0  0  0  0  0  0  0
    0.1511    1.2724   -1.4369 H   0  0  0  0  0  0  0  0  0  0  0  0
   -1.2791    0.3109   -1.8407 H   0  0  0  0  0  0  0  0  0  0  0  0
   -0.6861    1.4008    1.0287 H   0  0  0  0  0  0  0  0  0  0  0  0
   -1.0492   -0.0971    1.8924 H   0  0  0  0  0  0  0  0  0  0  0  0
   -2.0971    0.4363    0.5680 H   0  0  0  0  0  0  0  0  0  0  0  0
  1  2  3  0
  1  6  1  0
  2  3  1  0
  3  4  1  0
  3  5  1  0
  3  7  1  0
  4  8  1  0
  4  9  1  0
  4 10  1  0
  5 11  1  0
  5 12  1  0
  5 13  1  0
M  END
>  <reaction>  (1) 
rxn_1317

>  <mol_properties>  (1) 
{"2": {"label": "donator", "atom_type": "Cs"}, "6": {"label": "d_hydrogen", "atom_type": "H0"}}

>  <type>  (1) 
r1h

$$$$

     RDKit          3D

 20 20  0  0  0  0  0  0  0  0999 V2000
   -2.4774    0.8083    0.1488 C   0  0  0  0  0  0  0  0  0  0  0  0
   -1.4172   -0.1696   -0.2476 C   0  0  0  0  0  3  0  0  0  0  0  0
   -0.2904    0.2932   -1.1156 C   0  0  0  0  0  0  0  0  0  0  0  0
   -1.4797   -1.5204    0.1947 C   0  0  0  0  0  0  0  0  0  0  0  0
   -0.4907   -2.4664   -0.1650 C   0  0  0  0  0  0  0  0  0  0  0  0
   -0.5559   -3.7750    0.2665 C   0  0  0  0  0  0  0  0  0  0  0  0
   -1.6038   -4.2041    1.0733 C   0  0  0  0  0  0  0  0  0  0  0  0
   -2.5899   -3.2959    1.4424 C   0  0  0  0  0  0  0  0  0  0  0  0
   -2.5339   -1.9852    1.0162 C   0  0  0  0  0  0  0  0  0  0  0  0
   -3.4697    0.4933   -0.1924 H   0  0  0  0  0  0  0  0  0  0  0  0
   -2.5434    0.9184    1.2368 H   0  0  0  0  0  0  0  0  0  0  0  0
   -2.2829    1.7944   -0.2706 H   0  0  0  0  0  0  0  0  0  0  0  0
   -0.2452   -0.2661   -2.0565 H   0  0  0  0  0  0  0  0  0  0  0  0
   -0.3905    1.3487   -1.3647 H   0  0  0  0  0  0  0  0  0  0  0  0
    0.6811    0.1589   -0.6274 H   0  0  0  0  0  0  0  0  0  0  0  0
    0.3373   -2.1635   -0.7918 H   0  0  0  0  0  0  0  0  0  0  0  0
    0.2187   -4.4725   -0.0281 H   0  0  0  0  0  0  0  0  0  0  0  0
   -1.6513   -5.2316    1.4097 H   0  0  0  0  0  0  0  0  0  0  0  0
   -3.4116   -3.6175    2.0706 H   0  0  0  0  0  0  0  0  0  0  0  0
   -3.3164   -1.3029    1.3205 H   0  0  0  0  0  0  0  0  0  0  0  0
  1  2  1  0
  1 10  1  0
  1 11  1  0
  1 12  1  0
  2  3  1  0
  2  4  1  0
  3 13  1  0
  3 14  1  0
  3 15  1  0
  4  5  2  0
  4  9  1  0
  5  6  1  0
  5 16  1  0
  6  7  2  0
  6 17  1  0
  7  8  1  0
  7 18  1  0
  8  9  2  0
  8 19  1  0
  9 20  1  0
M  RAD  1   2   2
M  END
>  <reaction>  (2) 
rxn_1317

>  <mol_properties>  (2) 
{"1": {"label": "acceptor", "atom_type": "Cs"}}

>  <type>  (2) 
r2

$$$$

     RDKit          3D

 21 21  0  0  0  0  0  0  0  0999 V2000
   -1.3695    1.3367   -1.0719 C   0  0  0  0  0  0  0  0  0  0  0  0
   -1.4091   -0.0981   -0.5428 C   0  0  0  0  0  0  0  0  0  0  0  0
   -0.1819   -0.3999    0.3191 C   0  0  0  0  0  0  0  0  0  0  0  0
   -1.5636   -1.1028   -1.6652 C   0  0  0  0  0  0  0  0  0  0  0  0
   -0.5920   -1.2314   -2.6553 C   0  0  0  0  0  0  0  0  0  0  0  0
   -0.7353   -2.1509   -3.6809 C   0  0  0  0  0  0  0  0  0  0  0  0
   -1.8582   -2.9642   -3.7377 C   0  0  0  0  0  0  0  0  0  0  0  0
   -2.8325   -2.8475   -2.7602 C   0  0  0  0  0  0  0  0  0  0  0  0
   -2.6828   -1.9241   -1.7351 C   0  0  0  0  0  0  0  0  0  0  0  0
   -0.4920    1.4974   -1.7025 H   0  0  0  0  0  0  0  0  0  0  0  0
   -2.2553    1.5607   -1.6679 H   0  0  0  0  0  0  0  0  0  0  0  0
   -1.3211    2.0496   -0.2461 H   0  0  0  0  0  0  0  0  0  0  0  0
   -2.2930   -0.1918    0.0948 H   0  0  0  0  0  0  0  0  0  0  0  0
   -0.1215    0.2955    1.1588 H   0  0  0  0  0  0  0  0  0  0  0  0
   -0.2200   -1.4155    0.7159 H   0  0  0  0  0  0  0  0  0  0  0  0
    0.7383   -0.3016   -0.2615 H   0  0  0  0  0  0  0  0  0  0  0  0
    0.2915   -0.6040   -2.6263 H   0  0  0  0  0  0  0  0  0  0  0  0
    0.0326   -2.2338   -4.4401 H   0  0  0  0  0  0  0  0  0  0  0  0
   -1.9712   -3.6833   -4.5391 H   0  0  0  0  0  0  0  0  0  0  0  0
   -3.7135   -3.4765   -2.7932 H   0  0  0  0  0  0  0  0  0  0  0  0
   -3.4509   -1.8400   -0.9743 H   0  0  0  0  0  0  0  0  0  0  0  0
  1  2  1  0
  1 10  1  0
  1 11  1  0
  1 12  1  0
  2  3  1  0
  2  4  1  0
  2 13  1  0
  3 14  1  0
  3 15  1  0
  3 16  1  0
  4  5  2  0
  4  9  1  0
  5  6  1  0
  5 17  1  0
  6  7  2  0
  6 18  1  0
  7  8  1  0
  7 19  1  0
  8  9  2  0
  8 20  1  0
  9 21  1  0
M  END
>  <reaction>  (3) 
rxn_1317

>  <mol_properties>  (3) 
{"0": {"label": "a_hydrogen", "atom_type": "H0"}, "2": {"label": "acceptor", "atom_type": "Cs"}}

>  <type>  (3) 
r2h

$$$$

     RDKit          3D

 33 32  0  0  0  0  0  0  0  0999 V2000
    2.2650    0.8156   -3.4867 C   0  0  0  0  0  0  0  0  0  0  0  0
    1.7119    1.0844   -2.4518 C   0  0  0  0  0  0  0  0  0  0  0  0
    1.0334    1.3436   -1.2225 C   0  0  0  0  0  3  0  0  0  0  0  0
   -0.1845    2.2365   -1.3336 C   0  0  0  0  0  0  0  0  0  0  0  0
    1.9231    1.6268   -0.0307 C   0  0  0  0  0  0  0  0  0  0  0  0
    2.7606    0.5957   -4.4011 H   0  0  0  0  0  0  0  0  0  0  0  0
    0.4987    0.1445   -0.8890 H   0  0  0  0  0  0  0  0  0  0  0  0
   -0.8404    1.9119   -2.1419 H   0  0  0  0  0  0  0  0  0  0  0  0
    0.1097    3.2715   -1.5335 H   0  0  0  0  0  0  0  0  0  0  0  0
   -0.7458    2.2208   -0.3975 H   0  0  0  0  0  0  0  0  0  0  0  0
    2.3475    2.6336   -0.0914 H   0  0  0  0  0  0  0  0  0  0  0  0
    2.7481    0.9165    0.0236 H   0  0  0  0  0  0  0  0  0  0  0  0
    1.3437    1.5571    0.8924 H   0  0  0  0  0  0  0  0  0  0  0  0
   -1.0201   -1.2715   -1.6480 C   0  0  0  0  0  0  0  0  0  0  0  0
    0.0004   -1.0471   -0.5531 C   0  0  0  0  0  0  0  0  0  0  0  0
    1.2204   -1.9263   -0.7059 C   0  0  0  0  0  0  0  0  0  0  0  0
   -0.5123   -0.8324    0.8212 C   0  0  0  0  0  0  0  0  0  0  0  0
    0.1995   -1.2604    1.9476 C   0  0  0  0  0  0  0  0  0  0  0  0
   -0.2535   -1.0002    3.2307 C   0  0  0  0  0  0  0  0  0  0  0  0
   -1.4319   -0.2999    3.4322 C   0  0  0  0  0  0  0  0  0  0  0  0
   -2.1552    0.1318    2.3296 C   0  0  0  0  0  0  0  0  0  0  0  0
   -1.7042   -0.1315    1.0488 C   0  0  0  0  0  0  0  0  0  0  0  0
   -1.8252   -0.5382   -1.6356 H   0  0  0  0  0  0  0  0  0  0  0  0
   -0.5368   -1.2112   -2.6248 H   0  0  0  0  0  0  0  0  0  0  0  0
   -1.4740   -2.2639   -1.5566 H   0  0  0  0  0  0  0  0  0  0  0  0
    1.0012   -2.9639   -0.4318 H   0  0  0  0  0  0  0  0  0  0  0  0
    1.5570   -1.9149   -1.7430 H   0  0  0  0  0  0  0  0  0  0  0  0
    2.0544   -1.5860   -0.0906 H   0  0  0  0  0  0  0  0  0  0  0  0
    1.1200   -1.8142    1.8258 H   0  0  0  0  0  0  0  0  0  0  0  0
    0.3207   -1.3511    4.0794 H   0  0  0  0  0  0  0  0  0  0  0  0
   -1.7852   -0.0955    4.4347 H   0  0  0  0  0  0  0  0  0  0  0  0
   -3.0798    0.6785    2.4679 H   0  0  0  0  0  0  0  0  0  0  0  0
   -2.2884    0.2241    0.2108 H   0  0  0  0  0  0  0  0  0  0  0  0
  1  2  3  0
  1  6  1  0
  2  3  1  0
  3  4  1  0
  3  5  1  0
  4  8  1  0
  4  9  1  0
  4 10  1  0
  5 11  1  0
  5 12  1  0
  5 13  1  0
  7 15  1  0
 14 15  1  0
 14 23  1  0
 14 24  1  0
 14 25  1  0
 15 16  1  0
 15 17  1  0
 16 26  1  0
 16 27  1  0
 16 28  1  0
 17 18  2  0
 17 22  1  0
 18 19  1  0
 18 29  1  0
 19 20  2  0
 19 30  1  0
 20 21  1  0
 20 31  1  0
 21 22  2  0
 21 32  1  0
 22 33  1  0
M  RAD  1   3   2
M  END
>  <reaction>  (4) 
rxn_1317

>  <mol_properties>  (4) 
{"1": {"label": "*4", "atom_type": "Ct"}, "2": {"label": "*3", "atom_type": "Cs"}, "6": {"label": "*2", "atom_type": "H0"}, "14": {"label": "*1", "atom_type": "Cs"}, "16": {"label": "*0", "atom_type": "Cd"}}

>  <type>  (4) 
ts

$$$$

     RDKit          3D

 33 32  0  0  0  0  0  0  0  0999 V2000
    0.3887    2.4610   -2.6499 C   0  0  0  0  0  0  0  0  0  0  0  0
    0.3887    2.4610   -1.4518 C   0  0  0  0  0  0  0  0  0  0  0  0
    0.3887    2.4850    0.0120 C   0  0  0  0  0  3  0  0  0  0  0  0
   -0.8774    3.1614    0.5463 C   0  0  0  0  0  0  0  0  0  0  0  0
    1.6548    3.1614    0.5463 C   0  0  0  0  0  0  0  0  0  0  0  0
    0.3887    2.4610   -3.7132 H   0  0  0  0  0  0  0  0  0  0  0  0
    0.3887    1.2363    0.4199 H   0  0  0  0  0  0  0  0  0  0  0  0
   -1.7744    2.6621    0.1804 H   0  0  0  0  0  0  0  0  0  0  0  0
   -0.9147    4.2049    0.2288 H   0  0  0  0  0  0  0  0  0  0  0  0
   -0.8847    3.1334    1.6374 H   0  0  0  0  0  0  0  0  0  0  0  0
    1.6922    4.2049    0.2288 H   0  0  0  0  0  0  0  0  0  0  0  0
    2.5519    2.6621    0.1804 H   0  0  0  0  0  0  0  0  0  0  0  0
    1.6622    3.1334    1.6374 H   0  0  0  0  0  0  0  0  0  0  0  0
    1.6512   -0.2257    1.6642 C   0  0  0  0  0  0  0  0  0  0  0  0
    0.3887   -0.0115    0.8275 C   0  0  0  0  0  0  0  0  0  0  0  0
   -0.6971    0.6941    1.6418 C   0  0  0  0  0  0  0  0  0  0  0  0
   -0.1145   -1.3106    0.2338 C   0  0  0  0  0  0  0  0  0  0  0  0
   -0.5333   -2.3601    1.0487 C   0  0  0  0  0  0  0  0  0  0  0  0
   -0.9931   -3.5473    0.5037 C   0  0  0  0  0  0  0  0  0  0  0  0
   -1.0437   -3.7100   -0.8734 C   0  0  0  0  0  0  0  0  0  0  0  0
   -0.6305   -2.6752   -1.6961 C   0  0  0  0  0  0  0  0  0  0  0  0
   -0.1708   -1.4881   -1.1436 C   0  0  0  0  0  0  0  0  0  0  0  0
    2.4345   -0.7083    1.0780 H   0  0  0  0  0  0  0  0  0  0  0  0
    2.0350    0.7283    2.0319 H   0  0  0  0  0  0  0  0  0  0  0  0
    1.4441   -0.8577    2.5309 H   0  0  0  0  0  0  0  0  0  0  0  0
   -0.9887    0.0952    2.5077 H   0  0  0  0  0  0  0  0  0  0  0  0
   -0.3370    1.6573    2.0093 H   0  0  0  0  0  0  0  0  0  0  0  0
   -1.5900    0.8680    1.0395 H   0  0  0  0  0  0  0  0  0  0  0  0
   -0.5005   -2.2500    2.1266 H   0  0  0  0  0  0  0  0  0  0  0  0
   -1.3137   -4.3500    1.1563 H   0  0  0  0  0  0  0  0  0  0  0  0
   -1.4030   -4.6378   -1.3004 H   0  0  0  0  0  0  0  0  0  0  0  0
   -0.6651   -2.7898   -2.7724 H   0  0  0  0  0  0  0  0  0  0  0  0
    0.1505   -0.6835   -1.7957 H   0  0  0  0  0  0  0  0  0  0  0  0
  1  2  3  0
  1  6  1  0
  2  3  1  0
  3  4  1  0
  3  5  1  0
  4  8  1  0
  4  9  1  0
  4 10  1  0
  5 11  1  0
  5 12  1  0
  5 13  1  0
  7 15  1  0
 14 15  1  0
 14 23  1  0
 14 24  1  0
 14 25  1  0
 15 16  1  0
 15 17  1  0
 16 26  1  0
 16 27  1  0
 16 28  1  0
 17 18  2  0
 17 22  1  0
 18 19  1  0
 18 29  1  0
 19 20  2  0
 19 30  1  0
 20 21  1  0
 20 31  1  0
 21 22  2  0
 21 32  1  0
 22 33  1  0
M  RAD  1   3   2
M  END
>  <reaction>  (5) 
rxn_1317

>  <mol_properties>  (5) 
{"1": {"label": "*4", "atom_type": "Ct"}, "2": {"label": "*3", "atom_type": "Cs"}, "6": {"label": "*2", "atom_type": "H0"}, "14": {"label": "*1", "atom_type": "Cs"}, "16": {"label": "*0", "atom_type": "Cd"}}

>  <type>  (5) 
unop_1

>  <geom_source>  (5) 
Heuristics

$$$$

     RDKit          3D

 33 32  0  0  0  0  0  0  0  0999 V2000
    0.8835    2.0447   -3.3695 C   0  0  0  0  0  0  0  0  0  0  0  0
    0.8835    2.0447   -2.1714 C   0  0  0  0  0  0  0  0  0  0  0  0
    0.8835    2.0686   -0.7076 C   0  0  0  0  0  3  0  0  0  0  0  0
   -0.3826    2.7451   -0.1732 C   0  0  0  0  0  0  0  0  0  0  0  0
    2.1496    2.7451   -0.1732 C   0  0  0  0  0  0  0  0  0  0  0  0
    0.8835    2.0447   -4.4328 H   0  0  0  0  0  0  0  0  0  0  0  0
    0.8835    0.8200   -0.2997 H   0  0  0  0  0  0  0  0  0  0  0  0
   -1.2796    2.2458   -0.5392 H   0  0  0  0  0  0  0  0  0  0  0  0
   -0.4199    3.7886   -0.4908 H   0  0  0  0  0  0  0  0  0  0  0  0
   -0.3899    2.7171    0.9178 H   0  0  0  0  0  0  0  0  0  0  0  0
    2.1870    3.7886   -0.4908 H   0  0  0  0  0  0  0  0  0  0  0  0
    3.0467    2.2457   -0.5392 H   0  0  0  0  0  0  0  0  0  0  0  0
    2.1570    2.7171    0.9178 H   0  0  0  0  0  0  0  0  0  0  0  0
    1.6124   -1.2603   -0.9483 C   0  0  0  0  0  0  0  0  0  0  0  0
    0.8835   -0.4278    0.1079 C   0  0  0  0  0  0  0  0  0  0  0  0
    1.8069   -0.1001    1.2826 C   0  0  0  0  0  0  0  0  0  0  0  0
   -0.3898   -1.1043    0.5707 C   0  0  0  0  0  0  0  0  0  0  0  0
   -0.3563   -2.3411    1.2110 C   0  0  0  0  0  0  0  0  0  0  0  0
   -1.5220   -2.9581    1.6335 C   0  0  0  0  0  0  0  0  0  0  0  0
   -2.7506   -2.3481    1.4233 C   0  0  0  0  0  0  0  0  0  0  0  0
   -2.7994   -1.1183    0.7880 C   0  0  0  0  0  0  0  0  0  0  0  0
   -1.6276   -0.5054    0.3672 C   0  0  0  0  0  0  0  0  0  0  0  0
    0.9619   -1.4755   -1.7973 H   0  0  0  0  0  0  0  0  0  0  0  0
    2.4931   -0.7294   -1.3156 H   0  0  0  0  0  0  0  0  0  0  0  0
    1.9472   -2.2137   -0.5330 H   0  0  0  0  0  0  0  0  0  0  0  0
    2.1487   -1.0117    1.7782 H   0  0  0  0  0  0  0  0  0  0  0  0
    2.6895    0.4425    0.9379 H   0  0  0  0  0  0  0  0  0  0  0  0
    1.2952    0.5129    2.0260 H   0  0  0  0  0  0  0  0  0  0  0  0
    0.5948   -2.8318    1.3833 H   0  0  0  0  0  0  0  0  0  0  0  0
   -1.4723   -3.9197    2.1292 H   0  0  0  0  0  0  0  0  0  0  0  0
   -3.6624   -2.8296    1.7532 H   0  0  0  0  0  0  0  0  0  0  0  0
   -3.7519   -0.6319    0.6181 H   0  0  0  0  0  0  0  0  0  0  0  0
   -1.6758    0.4574   -0.1293 H   0  0  0  0  0  0  0  0  0  0  0  0
  1  2  3  0
  1  6  1  0
  2  3  1  0
  3  4  1  0
  3  5  1  0
  4  8  1  0
  4  9  1  0
  4 10  1  0
  5 11  1  0
  5 12  1  0
  5 13  1  0
  7 15  1  0
 14 15  1  0
 14 23  1  0
 14 24  1  0
 14 25  1  0
 15 16  1  0
 15 17  1  0
 16 26  1  0
 16 27  1  0
 16 28  1  0
 17 18  2  0
 17 22  1  0
 18 19  1  0
 18 29  1  0
 19 20  2  0
 19 30  1  0
 20 21  1  0
 20 31  1  0
 21 22  2  0
 21 32  1  0
 22 33  1  0
M  RAD  1   3   2
M  END
>  <reaction>  (6) 
rxn_1317

>  <mol_properties>  (6) 
{"1": {"label": "*4", "atom_type": "Ct"}, "2": {"label": "*3", "atom_type": "Cs"}, "6": {"label": "*2", "atom_type": "H0"}, "14": {"label": "*1", "atom_type": "Cs"}, "16": {"label": "*0", "atom_type": "Cd"}}

>  <type>  (6) 
unop_2

>  <geom_source>  (6) 
Heuristics

$$$$

     RDKit          3D

 33 32  0  0  0  0  0  0  0  0999 V2000
   -0.1591    2.4362   -2.4506 C   0  0  0  0  0  0  0  0  0  0  0  0
   -0.1591    2.4362   -1.2525 C   0  0  0  0  0  0  0  0  0  0  0  0
   -0.1591    2.4602    0.2113 C   0  0  0  0  0  3  0  0  0  0  0  0
   -1.4252    3.1367    0.7457 C   0  0  0  0  0  0  0  0  0  0  0  0
    1.1071    3.1366    0.7457 C   0  0  0  0  0  0  0  0  0  0  0  0
   -0.1591    2.4362   -3.5139 H   0  0  0  0  0  0  0  0  0  0  0  0
   -0.1591    1.2115    0.6192 H   0  0  0  0  0  0  0  0  0  0  0  0
   -2.3222    2.6373    0.3797 H   0  0  0  0  0  0  0  0  0  0  0  0
   -1.4625    4.1802    0.4281 H   0  0  0  0  0  0  0  0  0  0  0  0
   -1.4325    3.1086    1.8367 H   0  0  0  0  0  0  0  0  0  0  0  0
    1.1444    4.1801    0.4281 H   0  0  0  0  0  0  0  0  0  0  0  0
    2.0041    2.6373    0.3797 H   0  0  0  0  0  0  0  0  0  0  0  0
    1.1144    3.1086    1.8367 H   0  0  0  0  0  0  0  0  0  0  0  0
    0.5698   -0.0847    2.3708 C   0  0  0  0  0  0  0  0  0  0  0  0
   -0.1591   -0.0363    1.0268 C   0  0  0  0  0  0  0  0  0  0  0  0
   -1.6600    0.1843    1.2234 C   0  0  0  0  0  0  0  0  0  0  0  0
    0.1194   -1.2713    0.1960 C   0  0  0  0  0  0  0  0  0  0  0  0
   -0.2605   -2.5369    0.6375 C   0  0  0  0  0  0  0  0  0  0  0  0
   -0.0049   -3.6651   -0.1238 C   0  0  0  0  0  0  0  0  0  0  0  0
    0.6388   -3.5503   -1.3478 C   0  0  0  0  0  0  0  0  0  0  0  0
    1.0224   -2.2985   -1.7997 C   0  0  0  0  0  0  0  0  0  0  0  0
    0.7632   -1.1720   -1.0319 C   0  0  0  0  0  0  0  0  0  0  0  0
    1.6434   -0.2192    2.2314 H   0  0  0  0  0  0  0  0  0  0  0  0
    0.4085    0.8398    2.9290 H   0  0  0  0  0  0  0  0  0  0  0  0
    0.2056   -0.9121    2.9842 H   0  0  0  0  0  0  0  0  0  0  0  0
   -2.1044   -0.6333    1.7955 H   0  0  0  0  0  0  0  0  0  0  0  0
   -1.8438    1.1116    1.7700 H   0  0  0  0  0  0  0  0  0  0  0  0
   -2.1780    0.2420    0.2649 H   0  0  0  0  0  0  0  0  0  0  0  0
   -0.7643   -2.6448    1.5913 H   0  0  0  0  0  0  0  0  0  0  0  0
   -0.3092   -4.6391    0.2391 H   0  0  0  0  0  0  0  0  0  0  0  0
    0.8391   -4.4317   -1.9437 H   0  0  0  0  0  0  0  0  0  0  0  0
    1.5255   -2.1956   -2.7532 H   0  0  0  0  0  0  0  0  0  0  0  0
    1.0673   -0.1961   -1.3939 H   0  0  0  0  0  0  0  0  0  0  0  0
  1  2  3  0
  1  6  1  0
  2  3  1  0
  3  4  1  0
  3  5  1  0
  4  8  1  0
  4  9  1  0
  4 10  1  0
  5 11  1  0
  5 12  1  0
  5 13  1  0
  7 15  1  0
 14 15  1  0
 14 23  1  0
 14 24  1  0
 14 25  1  0
 15 16  1  0
 15 17  1  0
 16 26  1  0
 16 27  1  0
 16 28  1  0
 17 18  2  0
 17 22  1  0
 18 19  1  0
 18 29  1  0
 19 20  2  0
 19 30  1  0
 20 21  1  0
 20 31  1  0
 21 22  2  0
 21 32  1  0
 22 33  1  0
M  RAD  1   3   2
M  END
>  <reaction>  (7) 
rxn_1317

>  <mol_properties>  (7) 
{"1": {"label": "*4", "atom_type": "Ct"}, "2": {"label": "*3", "atom_type": "Cs"}, "6": {"label": "*2", "atom_type": "H0"}, "14": {"label": "*1", "atom_type": "Cs"}, "16": {"label": "*0", "atom_type": "Cd"}}

>  <type>  (7) 
unop_3

>  <geom_source>  (7) 
Heuristics

$$$$

     RDKit          3D

 33 31  0  0  0  0  0  0  0  0999 V2000
    0.2269    1.0255   -4.0018 C   0  0  0  0  0  3  0  0  0  0  0  0
    0.2269    1.0255   -2.8037 C   0  0  0  0  0  0  0  0  0  0  0  0
    0.2269    1.0494   -1.3399 C   0  0  0  0  0  3  0  0  0  0  0  0
   -1.0392    1.7259   -0.8055 C   0  0  0  0  0  0  0  0  0  0  0  0
    1.4930    1.7258   -0.8055 C   0  0  0  0  0  3  0  0  0  0  0  0
    0.2269    1.0255   -5.0651 H   0  0  0  0  0  0  0  0  0  0  0  0
    0.2268   -0.1992   -0.9320 H   0  0  0  0  0  0  0  0  0  0  0  0
   -1.9363    1.2266   -1.1714 H   0  0  0  0  0  0  0  0  0  0  0  0
   -1.0766    2.7694   -1.1230 H   0  0  0  0  0  0  0  0  0  0  0  0
   -1.0466    1.6979    0.2855 H   0  0  0  0  0  0  0  0  0  0  0  0
    1.5304    2.7693   -1.1230 H   0  0  0  0  0  0  0  0  0  0  0  0
    2.3900    1.2265   -1.1714 H   0  0  0  0  0  0  0  0  0  0  0  0
    1.5003    1.6978    0.2855 H   0  0  0  0  0  0  0  0  0  0  0  0
   -1.0357   -2.1138   -1.0734 C   0  0  0  0  0  0  0  0  0  0  0  0
    0.2268   -1.4470   -0.5244 C   0  0  0  0  0  0  0  0  0  0  0  0
    1.3670   -2.4577   -0.3878 C   0  0  0  0  0  0  0  0  0  0  0  0
   -0.0434   -0.7306    0.7821 C   0  0  0  0  0  0  0  0  0  0  0  0
   -0.4656   -1.4281    1.9118 C   0  0  0  0  0  0  0  0  0  0  0  0
   -0.7122   -0.7710    3.1057 C   0  0  0  0  0  0  0  0  0  0  0  0
   -0.5409    0.6032    3.1947 C   0  0  0  0  0  0  0  0  0  0  0  0
   -0.1216    1.3098    2.0797 C   0  0  0  0  0  0  0  0  0  0  0  0
    0.1237    0.6453    0.8863 C   0  0  0  0  0  0  0  0  0  0  0  0
   -1.8428   -1.3897   -1.1928 H   0  0  0  0  0  0  0  0  0  0  0  0
   -0.8373   -2.5712   -2.0449 H   0  0  0  0  0  0  0  0  0  0  0  0
   -1.3876   -2.8996   -0.4009 H   0  0  0  0  0  0  0  0  0  0  0  0
    1.1015   -3.2558    0.3093 H   0  0  0  0  0  0  0  0  0  0  0  0
    1.5896   -2.9185   -1.3524 H   0  0  0  0  0  0  0  0  0  0  0  0
    2.2748   -1.9789   -0.0180 H   0  0  0  0  0  0  0  0  0  0  0  0
   -0.6044   -2.5019    1.8600 H   0  0  0  0  0  0  0  0  0  0  0  0
   -1.0396   -1.3334    3.9714 H   0  0  0  0  0  0  0  0  0  0  0  0
   -0.7334    1.1177    4.1275 H   0  0  0  0  0  0  0  0  0  0  0  0
    0.0158    2.3825    2.1362 H   0  0  0  0  0  0  0  0  0  0  0  0
    0.4517    1.2070    0.0187 H   0  0  0  0  0  0  0  0  0  0  0  0
  1  2  2  0
  1  6  1  0
  2  3  2  0
  3  4  1  0
  4  8  1  0
  4  9  1  0
  4 10  1  0
  5 11  1  0
  5 12  1  0
  5 13  1  0
  7 15  1  0
 14 15  1  0
 14 23  1  0
 14 24  1  0
 14 25  1  0
 15 16  1  0
 15 17  1  0
 16 26  1  0
 16 27  1  0
 16 28  1  0
 17 18  2  0
 17 22  1  0
 18 19  1  0
 18 29  1  0
 19 20  2  0
 19 30  1  0
 20 21  1  0
 20 31  1  0
 21 22  2  0
 21 32  1  0
 22 33  1  0
M  CHG  2   1   1   3  -1
M  RAD  1   5   2
M  END
>  <reaction>  (8) 
rxn_1317

>  <mol_properties>  (8) 
{"1": {"label": "*4", "atom_type": "Ct"}, "2": {"label": "*3", "atom_type": "Cs"}, "6": {"label": "*2", "atom_type": "H0"}, "14": {"label": "*1", "atom_type": "Cs"}, "16": {"label": "*0", "atom_type": "Cd"}}

>  <type>  (8) 
unop_4

>  <geom_source>  (8) 
Heuristics

$$$$

     RDKit          3D

 33 32  0  0  0  0  0  0  0  0999 V2000
   -0.8990    2.0333   -2.6272 C   0  0  0  0  0  0  0  0  0  0  0  0
   -0.8990    2.0333   -1.4291 C   0  0  0  0  0  0  0  0  0  0  0  0
   -0.8990    2.0572    0.0347 C   0  0  0  0  0  3  0  0  0  0  0  0
   -2.1651    2.7337    0.5691 C   0  0  0  0  0  0  0  0  0  0  0  0
    0.3671    2.7337    0.5691 C   0  0  0  0  0  0  0  0  0  0  0  0
   -0.8990    2.0333   -3.6905 H   0  0  0  0  0  0  0  0  0  0  0  0
   -0.8990    0.8086    0.4426 H   0  0  0  0  0  0  0  0  0  0  0  0
   -3.0622    2.2344    0.2031 H   0  0  0  0  0  0  0  0  0  0  0  0
   -2.2024    3.7772    0.2515 H   0  0  0  0  0  0  0  0  0  0  0  0
   -2.1724    2.7057    1.6601 H   0  0  0  0  0  0  0  0  0  0  0  0
    0.4045    3.7772    0.2515 H   0  0  0  0  0  0  0  0  0  0  0  0
    1.2642    2.2343    0.2031 H   0  0  0  0  0  0  0  0  0  0  0  0
    0.3745    2.7057    1.6601 H   0  0  0  0  0  0  0  0  0  0  0  0
   -0.8990   -0.4270    2.3799 C   0  0  0  0  0  0  0  0  0  0  0  0
   -0.8990   -0.4392    0.8502 C   0  0  0  0  0  0  0  0  0  0  0  0
   -2.1645   -1.1044    0.3060 C   0  0  0  0  0  0  0  0  0  0  0  0
    0.3535   -1.0861    0.2972 C   0  0  0  0  0  0  0  0  0  0  0  0
    0.6471   -2.4234    0.5549 C   0  0  0  0  0  0  0  0  0  0  0  0
    1.7932   -3.0131    0.0482 C   0  0  0  0  0  0  0  0  0  0  0  0
    2.6730   -2.2742   -0.7300 C   0  0  0  0  0  0  0  0  0  0  0  0
    2.3942   -0.9436   -0.9945 C   0  0  0  0  0  0  0  0  0  0  0  0
    1.2440   -0.3587   -0.4837 C   0  0  0  0  0  0  0  0  0  0  0  0
   -0.0080    0.0675    2.7693 H   0  0  0  0  0  0  0  0  0  0  0  0
   -1.7778    0.0981    2.7600 H   0  0  0  0  0  0  0  0  0  0  0  0
   -0.9196   -1.4435    2.7796 H   0  0  0  0  0  0  0  0  0  0  0  0
   -2.2305   -2.1453    0.6312 H   0  0  0  0  0  0  0  0  0  0  0  0
   -3.0559   -0.5862    0.6652 H   0  0  0  0  0  0  0  0  0  0  0  0
   -2.1766   -1.0935   -0.7848 H   0  0  0  0  0  0  0  0  0  0  0  0
   -0.0292   -3.0153    1.1609 H   0  0  0  0  0  0  0  0  0  0  0  0
    2.0015   -4.0543    0.2612 H   0  0  0  0  0  0  0  0  0  0  0  0
    3.5692   -2.7343   -1.1266 H   0  0  0  0  0  0  0  0  0  0  0  0
    3.0729   -0.3562   -1.6005 H   0  0  0  0  0  0  0  0  0  0  0  0
    1.0342    0.6837   -0.6962 H   0  0  0  0  0  0  0  0  0  0  0  0
  1  2  3  0
  1  6  1  0
  2  3  1  0
  3  4  1  0
  3  5  1  0
  4  8  1  0
  4  9  1  0
  4 10  1  0
  5 11  1  0
  5 12  1  0
  5 13  1  0
  7 15  1  0
 14 15  1  0
 14 23  1  0
 14 24  1  0
 14 25  1  0
 15 16  1  0
 15 17  1  0
 16 26  1  0
 16 27  1  0
 16 28  1  0
 17 18  2  0
 17 22  1  0
 18 19  1  0
 18 29  1  0
 19 20  2  0
 19 30  1  0
 20 21  1  0
 20 31  1  0
 21 22  2  0
 21 32  1  0
 22 33  1  0
M  RAD  1   3   2
M  END
>  <reaction>  (9) 
rxn_1317

>  <mol_properties>  (9) 
{"1": {"label": "*4", "atom_type": "Ct"}, "2": {"label": "*3", "atom_type": "Cs"}, "6": {"label": "*2", "atom_type": "H0"}, "14": {"label": "*1", "atom_type": "Cs"}, "16": {"label": "*0", "atom_type": "Cd"}}

>  <type>  (9) 
unop_5

>  <geom_source>  (9) 
Heuristics

$$$$

     RDKit          3D

 33 31  0  0  0  0  0  0  0  0999 V2000
   -0.3136    0.9213   -3.9257 C   0  0  0  0  0  3  0  0  0  0  0  0
   -0.3136    0.9213   -2.7276 C   0  0  0  0  0  0  0  0  0  0  0  0
   -0.3136    0.9452   -1.2638 C   0  0  0  0  0  3  0  0  0  0  0  0
   -1.5797    1.6217   -0.7294 C   0  0  0  0  0  0  0  0  0  0  0  0
    0.9525    1.6216   -0.7294 C   0  0  0  0  0  3  0  0  0  0  0  0
   -0.3136    0.9213   -4.9890 H   0  0  0  0  0  0  0  0  0  0  0  0
   -0.3136   -0.3035   -0.8559 H   0  0  0  0  0  0  0  0  0  0  0  0
   -2.4768    1.1224   -1.0954 H   0  0  0  0  0  0  0  0  0  0  0  0
   -1.6170    2.6652   -1.0469 H   0  0  0  0  0  0  0  0  0  0  0  0
   -1.5870    1.5937    0.3616 H   0  0  0  0  0  0  0  0  0  0  0  0
    0.9899    2.6651   -1.0469 H   0  0  0  0  0  0  0  0  0  0  0  0
    1.8496    1.1223   -1.0954 H   0  0  0  0  0  0  0  0  0  0  0  0
    0.9599    1.5936    0.3616 H   0  0  0  0  0  0  0  0  0  0  0  0
   -1.7715   -1.9917   -0.3044 C   0  0  0  0  0  0  0  0  0  0  0  0
   -0.3136   -1.5513   -0.4483 C   0  0  0  0  0  0  0  0  0  0  0  0
    0.6057   -2.7553   -0.6607 C   0  0  0  0  0  0  0  0  0  0  0  0
    0.1334   -0.7083    0.7276 C   0  0  0  0  0  0  0  0  0  0  0  0
    0.1593   -1.2302    2.0191 C   0  0  0  0  0  0  0  0  0  0  0  0
    0.5685   -0.4575    3.0931 C   0  0  0  0  0  0  0  0  0  0  0  0
    0.9618    0.8587    2.8968 C   0  0  0  0  0  0  0  0  0  0  0  0
    0.9412    1.3910    1.6183 C   0  0  0  0  0  0  0  0  0  0  0  0
    0.5301    0.6115    0.5464 C   0  0  0  0  0  0  0  0  0  0  0  0
   -2.4311   -1.1324   -0.1757 H   0  0  0  0  0  0  0  0  0  0  0  0
   -2.0950   -2.5444   -1.1889 H   0  0  0  0  0  0  0  0  0  0  0  0
   -1.8996   -2.6449    0.5618 H   0  0  0  0  0  0  0  0  0  0  0  0
    0.5632   -3.4359    0.1927 H   0  0  0  0  0  0  0  0  0  0  0  0
    0.3061   -3.3156   -1.5488 H   0  0  0  0  0  0  0  0  0  0  0  0
    1.6429   -2.4409   -0.7863 H   0  0  0  0  0  0  0  0  0  0  0  0
   -0.1446   -2.2565    2.1905 H   0  0  0  0  0  0  0  0  0  0  0  0
    0.5808   -0.8839    4.0886 H   0  0  0  0  0  0  0  0  0  0  0  0
    1.2818    1.4635    3.7358 H   0  0  0  0  0  0  0  0  0  0  0  0
    1.2457    2.4169    1.4519 H   0  0  0  0  0  0  0  0  0  0  0  0
    0.5173    1.0370   -0.4509 H   0  0  0  0  0  0  0  0  0  0  0  0
  1  2  2  0
  1  6  1  0
  2  3  2  0
  3  4  1  0
  4  8  1  0
  4  9  1  0
  4 10  1  0
  5 11  1  0
  5 12  1  0
  5 33  1  0
  7 15  1  0
 13 22  1  0
 14 15  1  0
 14 23  1  0
 14 24  1  0
 14 25  1  0
 15 16  1  0
 15 17  1  0
 16 26  1  0
 16 27  1  0
 16 28  1  0
 17 18  2  0
 17 22  1  0
 18 19  1  0
 18 29  1  0
 19 20  2  0
 19 30  1  0
 20 21  1  0
 20 31  1  0
 21 22  2  0
 21 32  1  0
M  CHG  2   1   1   3  -1
M  RAD  1   5   2
M  END
>  <reaction>  (10) 
rxn_1317

>  <mol_properties>  (10) 
{"1": {"label": "*4", "atom_type": "Ct"}, "2": {"label": "*3", "atom_type": "Cs"}, "6": {"label": "*2", "atom_type": "H0"}, "14": {"label": "*1", "atom_type": "Cs"}, "16": {"label": "*0", "atom_type": "Cd"}}

>  <type>  (10) 
unop_6

>  <geom_source>  (10) 
Heuristics

$$$$

     RDKit          3D

 33 31  0  0  0  0  0  0  0  0999 V2000
   -0.8031    1.0210   -3.6437 C   0  0  0  0  0  3  0  0  0  0  0  0
   -0.8031    1.0210   -2.4456 C   0  0  0  0  0  0  0  0  0  0  0  0
   -0.8031    1.0450   -0.9818 C   0  0  0  0  0  3  0  0  0  0  0  0
   -2.0692    1.7214   -0.4474 C   0  0  0  0  0  0  0  0  0  0  0  0
    0.4631    1.7214   -0.4474 C   0  0  0  0  0  0  0  0  0  0  0  0
   -0.8031    1.0210   -4.7070 H   0  0  0  0  0  0  0  0  0  0  0  0
   -0.8031   -0.2037   -0.5739 H   0  0  0  0  0  0  0  0  0  0  0  0
   -2.9662    1.2221   -0.8134 H   0  0  0  0  0  0  0  0  0  0  0  0
   -2.1065    2.7649   -0.7650 H   0  0  0  0  0  0  0  0  0  0  0  0
   -2.0765    1.6934    0.6436 H   0  0  0  0  0  0  0  0  0  0  0  0
    0.5004    2.7649   -0.7650 H   0  0  0  0  0  0  0  0  0  0  0  0
    1.3601    1.2221   -0.8134 H   0  0  0  0  0  0  0  0  0  0  0  0
    0.4704    1.6934    0.6436 H   0  0  0  0  0  0  0  0  0  0  0  0
   -2.0656   -1.6656    0.6705 C   0  0  0  0  0  0  0  0  0  0  0  0
   -0.8031   -1.4515   -0.1663 C   0  0  0  0  0  0  0  0  0  0  0  0
   -0.3006   -2.7728   -0.7507 C   0  0  0  0  0  0  0  0  0  0  0  0
    0.2774   -0.7443    0.6246 C   0  0  0  0  0  0  0  0  0  0  0  0
    0.8316   -1.3235    1.7641 C   0  0  0  0  0  0  0  0  0  0  0  0
    1.8196   -0.6750    2.4860 C   0  0  0  0  0  0  0  0  0  0  0  0
    2.2758    0.5716    2.0814 C   0  0  0  0  0  0  0  0  0  0  0  0
    1.7341    1.1597    0.9504 C   0  0  0  0  0  0  0  0  0  0  0  0
    0.7442    0.5045    0.2315 C   0  0  0  0  0  3  0  0  0  0  0  0
   -2.4382   -0.7209    1.0692 H   0  0  0  0  0  0  0  0  0  0  0  0
   -2.8544   -2.1192    0.0668 H   0  0  0  0  0  0  0  0  0  0  0  0
   -1.8680   -2.3306    1.5144 H   0  0  0  0  0  0  0  0  0  0  0  0
   -0.0395   -3.4776    0.0421 H   0  0  0  0  0  0  0  0  0  0  0  0
   -1.0716   -3.2376   -1.3687 H   0  0  0  0  0  0  0  0  0  0  0  0
    0.5867   -2.6184   -1.3665 H   0  0  0  0  0  0  0  0  0  0  0  0
    0.4870   -2.2967    2.0943 H   0  0  0  0  0  0  0  0  0  0  0  0
    2.2362   -1.1440    3.3688 H   0  0  0  0  0  0  0  0  0  0  0  0
    3.0481    1.0793    2.6450 H   0  0  0  0  0  0  0  0  0  0  0  0
    2.0815    2.1322    0.6243 H   0  0  0  0  0  0  0  0  0  0  0  0
    0.3262    0.9729   -0.6526 H   0  0  0  0  0  0  0  0  0  0  0  0
  1  2  2  0
  1  6  1  0
  2  3  2  0
  3  4  1  0
  4  8  1  0
  4  9  1  0
  4 10  1  0
  5 11  1  0
  5 12  1  0
  5 13  1  0
  5 33  1  0
  7 15  1  0
 14 15  1  0
 14 23  1  0
 14 24  1  0
 14 25  1  0
 15 16  1  0
 15 17  1  0
 16 26  1  0
 16 27  1  0
 16 28  1  0
 17 18  2  0
 17 22  1  0
 18 19  1  0
 18 29  1  0
 19 20  2  0
 19 30  1  0
 20 21  1  0
 20 31  1  0
 21 22  2  0
 21 32  1  0
M  CHG  2   1   1   3  -1
M  RAD  1  22   2
M  END
>  <reaction>  (11) 
rxn_1317

>  <mol_properties>  (11) 
{"1": {"label": "*4", "atom_type": "Ct"}, "2": {"label": "*3", "atom_type": "Cs"}, "6": {"label": "*2", "atom_type": "H0"}, "14": {"label": "*1", "atom_type": "Cs"}, "16": {"label": "*0", "atom_type": "Cd"}}

>  <type>  (11) 
unop_7

>  <geom_source>  (11) 
Heuristics

$$$$

     RDKit          3D

 33 32  0  0  0  0  0  0  0  0999 V2000
    0.6537    2.3744   -2.9228 C   0  0  0  0  0  0  0  0  0  0  0  0
    0.6537    2.3744   -1.7247 C   0  0  0  0  0  0  0  0  0  0  0  0
    0.6537    2.3983   -0.2609 C   0  0  0  0  0  3  0  0  0  0  0  0
   -0.6124    3.0748    0.2734 C   0  0  0  0  0  0  0  0  0  0  0  0
    1.9199    3.0748    0.2734 C   0  0  0  0  0  0  0  0  0  0  0  0
    0.6537    2.3744   -3.9861 H   0  0  0  0  0  0  0  0  0  0  0  0
    0.6537    1.1497    0.1469 H   0  0  0  0  0  0  0  0  0  0  0  0
   -1.5094    2.5755   -0.0925 H   0  0  0  0  0  0  0  0  0  0  0  0
   -0.6497    4.1183   -0.0441 H   0  0  0  0  0  0  0  0  0  0  0  0
   -0.6197    3.0468    1.3645 H   0  0  0  0  0  0  0  0  0  0  0  0
    1.9572    4.1183   -0.0441 H   0  0  0  0  0  0  0  0  0  0  0  0
    2.8169    2.5754   -0.0925 H   0  0  0  0  0  0  0  0  0  0  0  0
    1.9272    3.0468    1.3645 H   0  0  0  0  0  0  0  0  0  0  0  0
    2.1115   -0.5386    0.6984 C   0  0  0  0  0  0  0  0  0  0  0  0
    0.6537   -0.0981    0.5546 C   0  0  0  0  0  0  0  0  0  0  0  0
    0.2130    0.7433    1.7537 C   0  0  0  0  0  0  0  0  0  0  0  0
   -0.2671   -1.2797    0.3333 C   0  0  0  0  0  0  0  0  0  0  0  0
   -0.4042   -2.2762    1.2972 C   0  0  0  0  0  0  0  0  0  0  0  0
   -1.2469   -3.3560    1.0928 C   0  0  0  0  0  0  0  0  0  0  0  0
   -1.9731   -3.4619   -0.0849 C   0  0  0  0  0  0  0  0  0  0  0  0
   -1.8469   -2.4788   -1.0523 C   0  0  0  0  0  0  0  0  0  0  0  0
   -1.0007   -1.3993   -0.8413 C   0  0  0  0  0  0  0  0  0  0  0  0
    2.4341   -1.1196   -0.1668 H   0  0  0  0  0  0  0  0  0  0  0  0
    2.7675    0.3291    0.7942 H   0  0  0  0  0  0  0  0  0  0  0  0
    2.2474   -1.1586    1.5876 H   0  0  0  0  0  0  0  0  0  0  0  0
    0.2806    0.1694    2.6808 H   0  0  0  0  0  0  0  0  0  0  0  0
    0.8499    1.6239    1.8600 H   0  0  0  0  0  0  0  0  0  0  0  0
   -0.8195    1.0773    1.6416 H   0  0  0  0  0  0  0  0  0  0  0  0
    0.1556   -2.2093    2.2231 H   0  0  0  0  0  0  0  0  0  0  0  0
   -1.3380   -4.1191    1.8560 H   0  0  0  0  0  0  0  0  0  0  0  0
   -2.6321   -4.3057   -0.2456 H   0  0  0  0  0  0  0  0  0  0  0  0
   -2.4082   -2.5499   -1.9758 H   0  0  0  0  0  0  0  0  0  0  0  0
   -0.9085   -0.6345   -1.6045 H   0  0  0  0  0  0  0  0  0  0  0  0
  1  2  3  0
  1  6  1  0
  2  3  1  0
  3  4  1  0
  3  5  1  0
  4  8  1  0
  4  9  1  0
  4 10  1  0
  5 11  1  0
  5 12  1  0
  5 13  1  0
  7 15  1  0
 14 15  1  0
 14 23  1  0
 14 24  1  0
 14 25  1  0
 15 16  1  0
 15 17  1  0
 16 26  1  0
 16 27  1  0
 16 28  1  0
 17 18  2  0
 17 22  1  0
 18 19  1  0
 18 29  1  0
 19 20  2  0
 19 30  1  0
 20 21  1  0
 20 31  1  0
 21 22  2  0
 21 32  1  0
 22 33  1  0
M  RAD  1   3   2
M  END
>  <reaction>  (12) 
rxn_1317

>  <mol_properties>  (12) 
{"1": {"label": "*4", "atom_type": "Ct"}, "2": {"label": "*3", "atom_type": "Cs"}, "6": {"label": "*2", "atom_type": "H0"}, "14": {"label": "*1", "atom_type": "Cs"}, "16": {"label": "*0", "atom_type": "Cd"}}

>  <type>  (12) 
unop_8

>  <geom_source>  (12) 
Heuristics

$$$$

     RDKit          3D

 33 31  0  0  0  0  0  0  0  0999 V2000
    0.6805    1.3146   -3.8733 C   0  0  0  0  0  3  0  0  0  0  0  0
    0.6805    1.3146   -2.6753 C   0  0  0  0  0  0  0  0  0  0  0  0
    0.6805    1.3385   -1.2114 C   0  0  0  0  0  3  0  0  0  0  0  0
   -0.5856    2.0150   -0.6771 C   0  0  0  0  0  3  0  0  0  0  0  0
    1.9466    2.0150   -0.6771 C   0  0  0  0  0  0  0  0  0  0  0  0
    0.6805    1.3146   -4.9367 H   0  0  0  0  0  0  0  0  0  0  0  0
    0.6805    0.0899   -0.8036 H   0  0  0  0  0  0  0  0  0  0  0  0
   -1.4827    1.5157   -1.0430 H   0  0  0  0  0  0  0  0  0  0  0  0
   -0.6229    3.0585   -0.9946 H   0  0  0  0  0  0  0  0  0  0  0  0
   -0.5929    1.9870    0.4140 H   0  0  0  0  0  0  0  0  0  0  0  0
    1.9840    3.0585   -0.9946 H   0  0  0  0  0  0  0  0  0  0  0  0
    2.8437    1.5156   -1.0430 H   0  0  0  0  0  0  0  0  0  0  0  0
    1.9540    1.9870    0.4140 H   0  0  0  0  0  0  0  0  0  0  0  0
   -0.0484   -1.9904   -1.4522 C   0  0  0  0  0  0  0  0  0  0  0  0
    0.6805   -1.1579   -0.3960 C   0  0  0  0  0  0  0  0  0  0  0  0
    1.9585   -1.8579    0.0696 C   0  0  0  0  0  0  0  0  0  0  0  0
   -0.2252   -0.8172    0.7688 C   0  0  0  0  0  0  0  0  0  0  0  0
   -0.7696   -1.8156    1.5737 C   0  0  0  0  0  0  0  0  0  0  0  0
   -1.5977   -1.5018    2.6385 C   0  0  0  0  0  0  0  0  0  0  0  0
   -1.8997   -0.1772    2.9214 C   0  0  0  0  0  0  0  0  0  0  0  0
   -1.3657    0.8260    2.1299 C   0  0  0  0  0  0  0  0  0  0  0  0
   -0.5366    0.5048    1.0644 C   0  0  0  0  0  0  0  0  0  0  0  0
   -0.9481   -1.4819   -1.8018 H   0  0  0  0  0  0  0  0  0  0  0  0
    0.5995   -2.1732   -2.3119 H   0  0  0  0  0  0  0  0  0  0  0  0
   -0.3476   -2.9604   -1.0484 H   0  0  0  0  0  0  0  0  0  0  0  0
    1.7315   -2.8231    0.5281 H   0  0  0  0  0  0  0  0  0  0  0  0
    2.6267   -2.0393   -0.7748 H   0  0  0  0  0  0  0  0  0  0  0  0
    2.4913   -1.2548    0.8062 H   0  0  0  0  0  0  0  0  0  0  0  0
   -0.5441   -2.8555    1.3669 H   0  0  0  0  0  0  0  0  0  0  0  0
   -2.0098   -2.2942    3.2510 H   0  0  0  0  0  0  0  0  0  0  0  0
   -2.5469    0.0690    3.7536 H   0  0  0  0  0  0  0  0  0  0  0  0
   -1.5938    1.8636    2.3403 H   0  0  0  0  0  0  0  0  0  0  0  0
   -0.1233    1.2972    0.4503 H   0  0  0  0  0  0  0  0  0  0  0  0
  1  2  2  0
  1  6  1  0
  2  3  2  0
  3  5  1  0
  4  8  1  0
  4  9  1  0
  4 10  1  0
  5 11  1  0
  5 12  1  0
  5 13  1  0
  7 15  1  0
 14 15  1  0
 14 23  1  0
 14 24  1  0
 14 25  1  0
 15 16  1  0
 15 17  1  0
 16 26  1  0
 16 27  1  0
 16 28  1  0
 17 18  2  0
 17 22  1  0
 18 19  1  0
 18 29  1  0
 19 20  2  0
 19 30  1  0
 20 21  1  0
 20 31  1  0
 21 22  2  0
 21 32  1  0
 22 33  1  0
M  CHG  2   1   1   3  -1
M  RAD  1   4   2
M  END
>  <reaction>  (13) 
rxn_1317

>  <mol_properties>  (13) 
{"1": {"label": "*4", "atom_type": "Ct"}, "2": {"label": "*3", "atom_type": "Cs"}, "6": {"label": "*2", "atom_type": "H0"}, "14": {"label": "*1", "atom_type": "Cs"}, "16": {"label": "*0", "atom_type": "Cd"}}

>  <type>  (13) 
unop_9

>  <geom_source>  (13) 
Heuristics

$$$$

     RDKit          3D

 33 32  0  0  0  0  0  0  0  0999 V2000
    0.7860    2.2482   -3.1579 C   0  0  0  0  0  0  0  0  0  0  0  0
    0.7860    2.2482   -1.9598 C   0  0  0  0  0  0  0  0  0  0  0  0
    0.7860    2.2722   -0.4960 C   0  0  0  0  0  3  0  0  0  0  0  0
   -0.4802    2.9486    0.0383 C   0  0  0  0  0  0  0  0  0  0  0  0
    2.0521    2.9486    0.0383 C   0  0  0  0  0  0  0  0  0  0  0  0
    0.7860    2.2482   -4.2212 H   0  0  0  0  0  0  0  0  0  0  0  0
    0.7859    1.0235   -0.0881 H   0  0  0  0  0  0  0  0  0  0  0  0
   -1.3772    2.4493   -0.3276 H   0  0  0  0  0  0  0  0  0  0  0  0
   -0.5175    3.9922   -0.2792 H   0  0  0  0  0  0  0  0  0  0  0  0
   -0.4875    2.9206    1.1294 H   0  0  0  0  0  0  0  0  0  0  0  0
    2.0895    3.9921   -0.2792 H   0  0  0  0  0  0  0  0  0  0  0  0
    2.9491    2.4493   -0.3276 H   0  0  0  0  0  0  0  0  0  0  0  0
    2.0594    2.9206    1.1294 H   0  0  0  0  0  0  0  0  0  0  0  0
    2.0484   -0.8911   -0.2295 C   0  0  0  0  0  0  0  0  0  0  0  0
    0.7859   -0.2243    0.3195 C   0  0  0  0  0  0  0  0  0  0  0  0
    1.0713    0.4862    1.6438 C   0  0  0  0  0  0  0  0  0  0  0  0
   -0.3549   -1.2115    0.4503 C   0  0  0  0  0  0  0  0  0  0  0  0
   -0.2636   -2.3084    1.3044 C   0  0  0  0  0  0  0  0  0  0  0  0
   -1.3080   -3.2100    1.4225 C   0  0  0  0  0  0  0  0  0  0  0  0
   -2.4704   -3.0325    0.6856 C   0  0  0  0  0  0  0  0  0  0  0  0
   -2.5755   -1.9466   -0.1676 C   0  0  0  0  0  0  0  0  0  0  0  0
   -1.5252   -1.0467   -0.2813 C   0  0  0  0  0  0  0  0  0  0  0  0
    1.8518   -1.3789   -1.1853 H   0  0  0  0  0  0  0  0  0  0  0  0
    2.8400   -0.1533   -0.3762 H   0  0  0  0  0  0  0  0  0  0  0  0
    2.4235   -1.6489    0.4622 H   0  0  0  0  0  0  0  0  0  0  0  0
    1.4112   -0.2221    2.4029 H   0  0  0  0  0  0  0  0  0  0  0  0
    1.8530    1.2379    1.5160 H   0  0  0  0  0  0  0  0  0  0  0  0
    0.1772    0.9815    2.0251 H   0  0  0  0  0  0  0  0  0  0  0  0
    0.6372   -2.4623    1.8874 H   0  0  0  0  0  0  0  0  0  0  0  0
   -1.2153   -4.0557    2.0927 H   0  0  0  0  0  0  0  0  0  0  0  0
   -3.2875   -3.7368    0.7773 H   0  0  0  0  0  0  0  0  0  0  0  0
   -3.4774   -1.7969   -0.7481 H   0  0  0  0  0  0  0  0  0  0  0  0
   -1.6167   -0.1995   -0.9520 H   0  0  0  0  0  0  0  0  0  0  0  0
  1  2  3  0
  1  6  1  0
  2  3  1  0
  3  4  1  0
  3  5  1  0
  4  8  1  0
  4  9  1  0
  4 10  1  0
  5 11  1  0
  5 12  1  0
  5 13  1  0
  7 15  1  0
 14 15  1  0
 14 23  1  0
 14 24  1  0
 14 25  1  0
 15 16  1  0
 15 17  1  0
 16 26  1  0
 16 27  1  0
 16 28  1  0
 17 18  2  0
 17 22  1  0
 18 19  1  0
 18 29  1  0
 19 20  2  0
 19 30  1  0
 20 21  1  0
 20 31  1  0
 21 22  2  0
 21 32  1  0
 22 33  1  0
M  RAD  1   3   2
M  END
>  <reaction>  (14) 
rxn_1317

>  <mol_properties>  (14) 
{"1": {"label": "*4", "atom_type": "Ct"}, "2": {"label": "*3", "atom_type": "Cs"}, "6": {"label": "*2", "atom_type": "H0"}, "14": {"label": "*1", "atom_type": "Cs"}, "16": {"label": "*0", "atom_type": "Cd"}}

>  <type>  (14) 
unop_10

>  <geom_source>  (14) 
Heuristics

$$$$

     RDKit          3D

 33 31  0  0  0  0  0  0  0  0999 V2000
   -1.1075    1.3859   -3.1754 C   0  0  0  0  0  3  0  0  0  0  0  0
   -1.1075    1.3859   -1.9773 C   0  0  0  0  0  0  0  0  0  0  0  0
   -1.1075    1.4099   -0.5135 C   0  0  0  0  0  3  0  0  0  0  0  0
   -2.3736    2.0863    0.0208 C   0  0  0  0  0  0  0  0  0  0  0  0
    0.1586    2.0863    0.0208 C   0  0  0  0  0  3  0  0  0  0  0  0
   -1.1075    1.3859   -4.2387 H   0  0  0  0  0  0  0  0  0  0  0  0
   -1.1075    0.1612   -0.1056 H   0  0  0  0  0  0  0  0  0  0  0  0
   -3.2707    1.5870   -0.3451 H   0  0  0  0  0  0  0  0  0  0  0  0
   -2.4110    3.1299   -0.2967 H   0  0  0  0  0  0  0  0  0  0  0  0
   -2.3810    2.0583    1.1119 H   0  0  0  0  0  0  0  0  0  0  0  0
    0.1960    3.1298   -0.2967 H   0  0  0  0  0  0  0  0  0  0  0  0
    1.0556    1.5870   -0.3451 H   0  0  0  0  0  0  0  0  0  0  0  0
    0.1659    2.0583    1.1119 H   0  0  0  0  0  0  0  0  0  0  0  0
   -1.8365   -1.1350    1.6460 C   0  0  0  0  0  0  0  0  0  0  0  0
   -1.1076   -1.0866    0.3020 C   0  0  0  0  0  0  0  0  0  0  0  0
   -1.3896   -2.3444   -0.5217 C   0  0  0  0  0  0  0  0  0  0  0  0
    0.3787   -0.8583    0.4810 C   0  0  0  0  0  0  0  0  0  0  0  0
    1.1723   -1.7808    1.1593 C   0  0  0  0  0  0  0  0  0  0  0  0
    2.5314   -1.5701    1.3220 C   0  0  0  0  0  0  0  0  0  0  0  0
    3.1273   -0.4274    0.8074 C   0  0  0  0  0  0  0  0  0  0  0  0
    2.3509    0.4986    0.1307 C   0  0  0  0  0  0  0  0  0  0  0  0
    0.9895    0.2814   -0.0289 C   0  0  0  0  0  0  0  0  0  0  0  0
   -1.6547   -0.2284    2.2250 H   0  0  0  0  0  0  0  0  0  0  0  0
   -2.9132   -1.2371    1.4957 H   0  0  0  0  0  0  0  0  0  0  0  0
   -1.5013   -1.9864    2.2428 H   0  0  0  0  0  0  0  0  0  0  0  0
   -1.0383   -3.2392   -0.0028 H   0  0  0  0  0  0  0  0  0  0  0  0
   -2.4618   -2.4586   -0.6938 H   0  0  0  0  0  0  0  0  0  0  0  0
   -0.8887   -2.3010   -1.4899 H   0  0  0  0  0  0  0  0  0  0  0  0
    0.7232   -2.6789    1.5678 H   0  0  0  0  0  0  0  0  0  0  0  0
    3.1291   -2.3007    1.8528 H   0  0  0  0  0  0  0  0  0  0  0  0
    4.1897   -0.2618    0.9340 H   0  0  0  0  0  0  0  0  0  0  0  0
    2.8040    1.3944   -0.2757 H   0  0  0  0  0  0  0  0  0  0  0  0
    0.3898    1.0121   -0.5601 H   0  0  0  0  0  0  0  0  0  0  0  0
  1  2  2  0
  1  6  1  0
  2  3  2  0
  3  4  1  0
  4  8  1  0
  4  9  1  0
  4 10  1  0
  5 11  1  0
  5 12  1  0
  5 13  1  0
  7 15  1  0
 14 15  1  0
 14 23  1  0
 14 24  1  0
 14 25  1  0
 15 16  1  0
 15 17  1  0
 16 26  1  0
 16 27  1  0
 16 28  1  0
 17 18  2  0
 17 22  1  0
 18 19  1  0
 18 29  1  0
 19 20  2  0
 19 30  1  0
 20 21  1  0
 20 31  1  0
 21 22  2  0
 21 32  1  0
 22 33  1  0
M  CHG  2   1   1   3  -1
M  RAD  1   5   2
M  END
>  <reaction>  (15) 
rxn_1317

>  <mol_properties>  (15) 
{"1": {"label": "*4", "atom_type": "Ct"}, "2": {"label": "*3", "atom_type": "Cs"}, "6": {"label": "*2", "atom_type": "H0"}, "14": {"label": "*1", "atom_type": "Cs"}, "16": {"label": "*0", "atom_type": "Cd"}}

>  <type>  (15) 
unop_11

>  <geom_source>  (15) 
Heuristics

$$$$

     RDKit          3D

 33 32  0  0  0  0  0  0  0  0999 V2000
    0.8990    1.7094   -3.6185 C   0  0  0  0  0  0  0  0  0  0  0  0
    0.8990    1.7094   -2.4204 C   0  0  0  0  0  0  0  0  0  0  0  0
    0.8990    1.7334   -0.9566 C   0  0  0  0  0  3  0  0  0  0  0  0
   -0.3671    2.4099   -0.4223 C   0  0  0  0  0  0  0  0  0  0  0  0
    2.1652    2.4098   -0.4223 C   0  0  0  0  0  0  0  0  0  0  0  0
    0.8990    1.7094   -4.6818 H   0  0  0  0  0  0  0  0  0  0  0  0
    0.8990    0.4847   -0.5487 H   0  0  0  0  0  0  0  0  0  0  0  0
   -1.2641    1.9106   -0.7882 H   0  0  0  0  0  0  0  0  0  0  0  0
   -0.4044    3.4534   -0.7398 H   0  0  0  0  0  0  0  0  0  0  0  0
   -0.3744    2.3819    0.6688 H   0  0  0  0  0  0  0  0  0  0  0  0
    2.2025    3.4533   -0.7398 H   0  0  0  0  0  0  0  0  0  0  0  0
    3.0622    1.9105   -0.7882 H   0  0  0  0  0  0  0  0  0  0  0  0
    2.1725    2.3818    0.6688 H   0  0  0  0  0  0  0  0  0  0  0  0
    0.8990   -1.6562   -1.3830 C   0  0  0  0  0  0  0  0  0  0  0  0
    0.8990   -0.7631   -0.1411 C   0  0  0  0  0  0  0  0  0  0  0  0
    2.1644   -0.9788    0.6908 C   0  0  0  0  0  0  0  0  0  0  0  0
   -0.3536   -0.9587    0.6871 C   0  0  0  0  0  0  0  0  0  0  0  0
   -0.6472   -2.1902    1.2685 C   0  0  0  0  0  0  0  0  0  0  0  0
   -1.7933   -2.3671    2.0256 C   0  0  0  0  0  0  0  0  0  0  0  0
   -2.6731   -1.3113    2.2176 C   0  0  0  0  0  0  0  0  0  0  0  0
   -2.3942   -0.0811    1.6456 C   0  0  0  0  0  0  0  0  0  0  0  0
   -1.2440    0.0894    0.8880 C   0  0  0  0  0  0  0  0  0  0  0  0
    0.0079   -1.4870   -1.9893 H   0  0  0  0  0  0  0  0  0  0  0  0
    1.7777   -1.4568   -1.9998 H   0  0  0  0  0  0  0  0  0  0  0  0
    0.9195   -2.7127   -1.1056 H   0  0  0  0  0  0  0  0  0  0  0  0
    2.2305   -2.0109    1.0428 H   0  0  0  0  0  0  0  0  0  0  0  0
    3.0559   -0.7726    0.0949 H   0  0  0  0  0  0  0  0  0  0  0  0
    2.1766   -0.3260    1.5648 H   0  0  0  0  0  0  0  0  0  0  0  0
    0.0291   -3.0258    1.1288 H   0  0  0  0  0  0  0  0  0  0  0  0
   -2.0016   -3.3333    2.4683 H   0  0  0  0  0  0  0  0  0  0  0  0
   -3.5693   -1.4485    2.8092 H   0  0  0  0  0  0  0  0  0  0  0  0
   -3.0729    0.7508    1.7879 H   0  0  0  0  0  0  0  0  0  0  0  0
   -1.0341    1.0563    0.4442 H   0  0  0  0  0  0  0  0  0  0  0  0
  1  2  3  0
  1  6  1  0
  2  3  1  0
  3  4  1  0
  3  5  1  0
  4  8  1  0
  4  9  1  0
  4 10  1  0
  5 11  1  0
  5 12  1  0
  5 13  1  0
  7 15  1  0
 14 15  1  0
 14 23  1  0
 14 24  1  0
 14 25  1  0
 15 16  1  0
 15 17  1  0
 16 26  1  0
 16 27  1  0
 16 28  1  0
 17 18  2  0
 17 22  1  0
 18 19  1  0
 18 29  1  0
 19 20  2  0
 19 30  1  0
 20 21  1  0
 20 31  1  0
 21 22  2  0
 21 32  1  0
 22 33  1  0
M  RAD  1   3   2
M  END
>  <reaction>  (16) 
rxn_1317

>  <mol_properties>  (16) 
{"1": {"label": "*4", "atom_type": "Ct"}, "2": {"label": "*3", "atom_type": "Cs"}, "6": {"label": "*2", "atom_type": "H0"}, "14": {"label": "*1", "atom_type": "Cs"}, "16": {"label": "*0", "atom_type": "Cd"}}

>  <type>  (16) 
unop_12

>  <geom_source>  (16) 
Heuristics

$$$$

     RDKit          3D

 33 32  0  0  0  0  0  0  0  0999 V2000
    0.1902   -0.3219   -0.8429 C   0  0  0  0  0  0  0  0  0  0  0  0
   -0.1263   -1.8206   -0.8799 C   0  0  0  0  0  0  0  0  0  0  0  0
    0.2692    0.2619   -2.2572 C   0  0  0  0  0  0  0  0  0  0  0  0
   -1.8766   -0.3414    1.6216 C   0  0  0  0  0  0  0  0  0  0  0  0
   -3.2805   -0.5170   -0.4717 C   0  0  0  0  0  0  0  0  0  0  0  0
    1.4631   -0.0501   -0.0664 C   0  0  0  0  0  0  0  0  0  0  0  0
   -2.1067    0.1874    0.2068 C   0  0  0  0  0  3  0  0  0  0  0  0
    1.4185    0.7311    1.1020 C   0  0  0  0  0  0  0  0  0  0  0  0
    2.7020   -0.5678   -0.4935 C   0  0  0  0  0  0  0  0  0  0  0  0
    2.5865    0.9885    1.8266 C   0  0  0  0  0  0  0  0  0  0  0  0
    3.8090    0.4701    1.3937 C   0  0  0  0  0  0  0  0  0  0  0  0
    3.8665   -0.3073    0.2348 C   0  0  0  0  0  0  0  0  0  0  0  0
   -2.3189    1.6425    0.2271 C   0  0  0  0  0  0  0  0  0  0  0  0
   -2.4922    2.8356    0.2433 C   0  0  0  0  0  0  0  0  0  0  0  0
   -0.8339    0.2721   -0.2388 H   0  0  0  0  0  0  0  0  0  0  0  0
    0.6481   -2.3812   -1.4453 H   0  0  0  0  0  0  0  0  0  0  0  0
   -1.1105   -1.9861   -1.3670 H   0  0  0  0  0  0  0  0  0  0  0  0
   -0.1800   -2.2217    0.1545 H   0  0  0  0  0  0  0  0  0  0  0  0
    1.0537   -0.2449   -2.8583 H   0  0  0  0  0  0  0  0  0  0  0  0
    0.4978    1.3477   -2.2063 H   0  0  0  0  0  0  0  0  0  0  0  0
   -0.7073    0.1375   -2.7715 H   0  0  0  0  0  0  0  0  0  0  0  0
   -0.9952    0.1602    2.0749 H   0  0  0  0  0  0  0  0  0  0  0  0
   -1.6732   -1.4325    1.5883 H   0  0  0  0  0  0  0  0  0  0  0  0
   -2.7676   -0.1583    2.2608 H   0  0  0  0  0  0  0  0  0  0  0  0
   -4.2240   -0.3404    0.0891 H   0  0  0  0  0  0  0  0  0  0  0  0
   -3.3994   -0.1404   -1.5100 H   0  0  0  0  0  0  0  0  0  0  0  0
   -3.0878   -1.6094   -0.5209 H   0  0  0  0  0  0  0  0  0  0  0  0
    0.4821    1.1431    1.4561 H   0  0  0  0  0  0  0  0  0  0  0  0
    2.5434    1.5908    2.7249 H   0  0  0  0  0  0  0  0  0  0  0  0
    2.7686   -1.1725   -1.3886 H   0  0  0  0  0  0  0  0  0  0  0  0
    4.7117    0.6707    1.9562 H   0  0  0  0  0  0  0  0  0  0  0  0
    4.8144   -0.7086   -0.0998 H   0  0  0  0  0  0  0  0  0  0  0  0
   -2.6445    3.8827    0.2576 H   0  0  0  0  0  0  0  0  0  0  0  0
  1  2  1  0
  1  3  1  0
  1  6  1  0
  1 15  1  0
  2 16  1  0
  2 17  1  0
  2 18  1  0
  3 19  1  0
  3 20  1  0
  3 21  1  0
  4  7  1  0
  4 22  1  0
  4 23  1  0
  4 24  1  0
  5  7  1  0
  5 25  1  0
  5 26  1  0
  5 27  1  0
  6  8  2  0
  6  9  1  0
  7 13  1  0
  8 10  1  0
  8 28  1  0
  9 12  2  0
  9 30  1  0
 10 11  2  0
 10 29  1  0
 11 12  1  0
 11 31  1  0
 12 32  1  0
 13 14  3  0
 14 33  1  0
M  RAD  1   7   2
M  END
>  <reaction>  (17) 
rxn_1317

>  <mol_properties>  (17) 
{"1": {"label": "*4", "atom_type": "Ct"}, "2": {"label": "*3", "atom_type": "Cs"}, "6": {"label": "*2", "atom_type": "H0"}, "14": {"label": "*1", "atom_type": "Cs"}, "16": {"label": "*0", "atom_type": "Cd"}}

>  <type>  (17) 
unop_13

>  <geom_source>  (17) 
AutoTST

$$$$
