
     RDKit          3D

  9  8  0  0  0  0  0  0  0  0999 V2000
   -0.8818   -0.3578    0.1297 C   0  0  0  0  0  0  0  0  0  0  0  0
    0.6153   -0.3021   -0.1188 C   0  0  0  0  0  0  0  0  0  0  0  0
    1.5354   -1.7170    0.5545 S   0  0  0  0  0  0  0  0  0  0  0  0
   -1.1018   -0.3317    1.1984 H   0  0  0  0  0  0  0  0  0  0  0  0
   -1.3114   -1.2723   -0.2799 H   0  0  0  0  0  0  0  0  0  0  0  0
   -1.3767    0.4976   -0.3363 H   0  0  0  0  0  0  0  0  0  0  0  0
    1.0467    0.6194    0.2718 H   0  0  0  0  0  0  0  0  0  0  0  0
    0.8295   -0.3275   -1.1882 H   0  0  0  0  0  0  0  0  0  0  0  0
    1.2306   -1.5077    1.8423 H   0  0  0  0  0  0  0  0  0  0  0  0
  1  2  1  0
  1  4  1  0
  1  5  1  0
  1  6  1  0
  2  3  1  0
  2  7  1  0
  2  8  1  0
  3  9  1  0
M  END
>  <reaction>  (1) 
rxn_1883

>  <mol_properties>  (1) 
{"1": {"label": "donator", "atom_type": "Cs"}, "6": {"label": "d_hydrogen", "atom_type": "H0"}}

>  <type>  (1) 
r1h

$$$$

     RDKit          3D

  9  8  0  0  0  0  0  0  0  0999 V2000
    1.8963   -0.1405   -0.2150 C   0  0  0  0  0  0  0  0  0  0  0  0
    0.6340    0.1486   -0.2254 C   0  0  0  0  0  3  0  0  0  0  0  0
   -0.6770    0.4501   -0.2373 C   0  0  0  0  0  0  0  0  0  0  0  0
   -1.6600   -0.2303    0.4662 C   0  0  0  0  0  0  0  0  0  0  0  0
    2.3274   -0.8354   -0.9313 H   0  0  0  0  0  0  0  0  0  0  0  0
    2.5751    0.2988    0.5117 H   0  0  0  0  0  0  0  0  0  0  0  0
   -0.9723    1.2966   -0.8520 H   0  0  0  0  0  0  0  0  0  0  0  0
   -2.6934    0.0777    0.4015 H   0  0  0  0  0  0  0  0  0  0  0  0
   -1.4140   -1.0782    1.0904 H   0  0  0  0  0  0  0  0  0  0  0  0
  1  2  2  3
  1  5  1  0
  1  6  1  0
  2  3  1  0
  3  4  2  3
  3  7  1  0
  4  8  1  0
  4  9  1  0
M  RAD  1   2   2
M  END
>  <reaction>  (2) 
rxn_1883

>  <mol_properties>  (2) 
{"1": {"label": "acceptor", "atom_type": "Cd"}}

>  <type>  (2) 
r2

$$$$

     RDKit          3D

 10  9  0  0  0  0  0  0  0  0999 V2000
    1.8334    0.0847   -0.1062 C   0  0  0  0  0  0  0  0  0  0  0  0
    0.5993   -0.4071   -0.0750 C   0  0  0  0  0  0  0  0  0  0  0  0
   -0.5993    0.4071    0.0750 C   0  0  0  0  0  0  0  0  0  0  0  0
   -1.8334   -0.0847    0.1062 C   0  0  0  0  0  0  0  0  0  0  0  0
    2.0179    1.1498   -0.0189 H   0  0  0  0  0  0  0  0  0  0  0  0
    2.6972   -0.5572   -0.2194 H   0  0  0  0  0  0  0  0  0  0  0  0
    0.4465   -1.4793   -0.1649 H   0  0  0  0  0  0  0  0  0  0  0  0
   -0.4465    1.4793    0.1649 H   0  0  0  0  0  0  0  0  0  0  0  0
   -2.0179   -1.1498    0.0189 H   0  0  0  0  0  0  0  0  0  0  0  0
   -2.6972    0.5572    0.2194 H   0  0  0  0  0  0  0  0  0  0  0  0
  1  2  2  3
  1  5  1  0
  1  6  1  0
  2  3  1  0
  2  7  1  0
  3  4  2  3
  3  8  1  0
  4  9  1  0
  4 10  1  0
M  END
>  <reaction>  (3) 
rxn_1883

>  <mol_properties>  (3) 
{"0": {"label": "a_hydrogen", "atom_type": "H0"}, "2": {"label": "acceptor", "atom_type": "Cd"}}

>  <type>  (3) 
r2h

$$$$

     RDKit          3D

 18 16  0  0  0  0  0  0  0  0999 V2000
   -2.0876   -0.3246   -0.8613 C   0  0  0  0  0  0  0  0  0  0  0  0
   -0.9142    0.5684   -0.5386 C   0  0  0  0  0  0  0  0  0  0  0  0
   -0.3353    1.6378   -1.8479 S   0  0  0  0  0  0  0  0  0  0  0  0
   -1.8502   -0.9952   -1.6897 H   0  0  0  0  0  0  0  0  0  0  0  0
   -2.9644    0.2614   -1.1456 H   0  0  0  0  0  0  0  0  0  0  0  0
   -2.3474   -0.9339    0.0071 H   0  0  0  0  0  0  0  0  0  0  0  0
    0.0370   -0.1901   -0.1866 H   0  0  0  0  0  0  0  0  0  0  0  0
   -1.0807    1.1972    0.3358 H   0  0  0  0  0  0  0  0  0  0  0  0
   -0.0429    0.6693   -2.7277 H   0  0  0  0  0  0  0  0  0  0  0  0
    0.5737   -2.4180    0.2000 C   0  0  0  0  0  0  0  0  0  0  0  0
    0.9938   -1.1679    0.2351 C   0  0  0  0  0  3  0  0  0  0  0  0
    2.2653   -0.6298    0.6658 C   0  0  0  0  0  0  0  0  0  0  0  0
    2.6274    0.6437    0.5455 C   0  0  0  0  0  0  0  0  0  0  0  0
   -0.4209   -2.6810   -0.1412 H   0  0  0  0  0  0  0  0  0  0  0  0
    1.2163   -3.2404    0.5108 H   0  0  0  0  0  0  0  0  0  0  0  0
    2.9545   -1.3437    1.1175 H   0  0  0  0  0  0  0  0  0  0  0  0
    3.5965    0.9834    0.8870 H   0  0  0  0  0  0  0  0  0  0  0  0
    1.9725    1.3765    0.0889 H   0  0  0  0  0  0  0  0  0  0  0  0
  1  2  1  0
  1  4  1  0
  1  5  1  0
  1  6  1  0
  2  3  1  0
  2  7  1  0
  2  8  1  0
  3  9  1  0
 10 11  2  3
 10 14  1  0
 10 15  1  0
 11 12  1  0
 12 13  2  3
 12 16  1  0
 13 17  1  0
 13 18  1  0
M  RAD  1  11   2
M  END
>  <reaction>  (4) 
rxn_1883

>  <mol_properties>  (4) 
{"1": {"label": "*1", "atom_type": "Cs"}, "2": {"label": "*0", "atom_type": "S2s"}, "6": {"label": "*2", "atom_type": "H0"}, "10": {"label": "*3", "atom_type": "Cd"}, "11": {"label": "*4", "atom_type": "Cd"}}

>  <type>  (4) 
ts

$$$$

     RDKit          3D

 18 16  0  0  0  0  0  0  0  0999 V2000
   -1.1654   -0.0110   -2.1691 C   0  0  0  0  0  0  0  0  0  0  0  0
   -1.1654   -0.0110   -0.6505 C   0  0  0  0  0  3  0  0  0  0  0  0
   -1.1654    1.6464    0.0945 S   0  0  0  0  0  0  0  0  0  0  0  0
   -0.2587    0.4544   -2.5599 H   0  0  0  0  0  0  0  0  0  0  0  0
   -2.0213    0.5402   -2.5592 H   0  0  0  0  0  0  0  0  0  0  0  0
   -1.2084   -1.0344   -2.5494 H   0  0  0  0  0  0  0  0  0  0  0  0
   -0.1535   -0.6903   -0.1763 H   0  0  0  0  0  0  0  0  0  0  0  0
   -2.0730   -0.4780   -0.2653 H   0  0  0  0  0  0  0  0  0  0  0  0
    0.0094    2.0480   -0.4090 H   0  0  0  0  0  0  0  0  0  0  0  0
    0.4207   -2.5950    0.5620 C   0  0  0  0  0  0  0  0  0  0  0  0
    0.8555   -1.3677    0.2964 C   0  0  0  0  0  0  0  0  0  0  0  0
    1.7900   -0.6336    1.1393 C   0  0  0  0  0  0  0  0  0  0  0  0
    2.2248    0.5937    0.8737 C   0  0  0  0  0  0  0  0  0  0  0  0
   -0.2745   -3.1044   -0.0923 H   0  0  0  0  0  0  0  0  0  0  0  0
    0.7487   -3.1299    1.4465 H   0  0  0  0  0  0  0  0  0  0  0  0
    2.1369   -1.1440    2.0337 H   0  0  0  0  0  0  0  0  0  0  0  0
    2.9200    1.1031    1.5280 H   0  0  0  0  0  0  0  0  0  0  0  0
    1.8968    1.1286   -0.0109 H   0  0  0  0  0  0  0  0  0  0  0  0
  1  2  1  0
  1  4  1  0
  1  5  1  0
  1  6  1  0
  2  3  1  0
  2  8  1  0
  3  9  1  0
  7 11  1  0
 10 11  2  3
 10 14  1  0
 10 15  1  0
 11 12  1  0
 12 13  2  3
 12 16  1  0
 13 17  1  0
 13 18  1  0
M  RAD  1   2   2
M  END
>  <reaction>  (5) 
rxn_1883

>  <mol_properties>  (5) 
{"1": {"label": "*1", "atom_type": "Cs"}, "2": {"label": "*0", "atom_type": "S2s"}, "6": {"label": "*2", "atom_type": "H0"}, "10": {"label": "*3", "atom_type": "Cd"}, "11": {"label": "*4", "atom_type": "Cd"}}

>  <type>  (5) 
unop_1

>  <geom_source>  (5) 
Heuristics

$$$$

     RDKit          3D

 18 16  0  0  0  0  0  0  0  0999 V2000
   -1.2339    0.1649   -1.7754 C   0  0  0  0  0  0  0  0  0  0  0  0
   -1.2339    0.1649   -0.2568 C   0  0  0  0  0  3  0  0  0  0  0  0
   -1.2339    1.8222    0.4882 S   0  0  0  0  0  0  0  0  0  0  0  0
   -0.3272    0.6303   -2.1662 H   0  0  0  0  0  0  0  0  0  0  0  0
   -2.0898    0.7161   -2.1655 H   0  0  0  0  0  0  0  0  0  0  0  0
   -1.2769   -0.8585   -2.1557 H   0  0  0  0  0  0  0  0  0  0  0  0
   -0.2220   -0.5145    0.2174 H   0  0  0  0  0  0  0  0  0  0  0  0
   -2.1415   -0.3022    0.1284 H   0  0  0  0  0  0  0  0  0  0  0  0
   -0.0591    2.2239   -0.0153 H   0  0  0  0  0  0  0  0  0  0  0  0
    0.7596   -1.5031    1.9817 C   0  0  0  0  0  0  0  0  0  0  0  0
    0.7870   -1.1919    0.6901 C   0  0  0  0  0  0  0  0  0  0  0  0
    1.9918   -1.2147   -0.1286 C   0  0  0  0  0  0  0  0  0  0  0  0
    2.0192   -0.9034   -1.4202 C   0  0  0  0  0  0  0  0  0  0  0  0
   -0.1588   -1.4728    2.5531 H   0  0  0  0  0  0  0  0  0  0  0  0
    1.6597   -1.7992    2.5092 H   0  0  0  0  0  0  0  0  0  0  0  0
    2.9105   -1.5077    0.3724 H   0  0  0  0  0  0  0  0  0  0  0  0
    2.9377   -0.9338   -1.9916 H   0  0  0  0  0  0  0  0  0  0  0  0
    1.1191   -0.6074   -1.9477 H   0  0  0  0  0  0  0  0  0  0  0  0
  1  2  1  0
  1  4  1  0
  1  5  1  0
  1  6  1  0
  2  3  1  0
  2  8  1  0
  3  9  1  0
  7 11  1  0
 10 11  2  3
 10 14  1  0
 10 15  1  0
 11 12  1  0
 12 13  2  3
 12 16  1  0
 13 17  1  0
 13 18  1  0
M  RAD  1   2   2
M  END
>  <reaction>  (6) 
rxn_1883

>  <mol_properties>  (6) 
{"1": {"label": "*1", "atom_type": "Cs"}, "2": {"label": "*0", "atom_type": "S2s"}, "6": {"label": "*2", "atom_type": "H0"}, "10": {"label": "*3", "atom_type": "Cd"}, "11": {"label": "*4", "atom_type": "Cd"}}

>  <type>  (6) 
unop_2

>  <geom_source>  (6) 
Heuristics

$$$$

     RDKit          3D

 18 16  0  0  0  0  0  0  0  0999 V2000
   -1.0696    0.0618   -2.2715 C   0  0  0  0  0  0  0  0  0  0  0  0
   -1.0696    0.0618   -0.7528 C   0  0  0  0  0  3  0  0  0  0  0  0
   -1.0696    1.7192   -0.0079 S   0  0  0  0  0  0  0  0  0  0  0  0
   -0.1629    0.5272   -2.6623 H   0  0  0  0  0  0  0  0  0  0  0  0
   -1.9255    0.6130   -2.6616 H   0  0  0  0  0  0  0  0  0  0  0  0
   -1.1126   -0.9615   -2.6518 H   0  0  0  0  0  0  0  0  0  0  0  0
   -0.0576   -0.6175   -0.2787 H   0  0  0  0  0  0  0  0  0  0  0  0
   -1.9772   -0.4052   -0.3677 H   0  0  0  0  0  0  0  0  0  0  0  0
    0.1053    2.1209   -0.5114 H   0  0  0  0  0  0  0  0  0  0  0  0
    0.9446   -2.5580   -0.2188 C   0  0  0  0  0  0  0  0  0  0  0  0
    0.9513   -1.2949    0.1941 C   0  0  0  0  0  0  0  0  0  0  0  0
    1.4757   -0.8609    1.4821 C   0  0  0  0  0  0  0  0  0  0  0  0
    1.4824    0.4022    1.8949 C   0  0  0  0  0  0  0  0  0  0  0  0
    0.5447   -2.8369   -1.1848 H   0  0  0  0  0  0  0  0  0  0  0  0
    1.3410   -3.3553    0.4004 H   0  0  0  0  0  0  0  0  0  0  0  0
    1.8801   -1.6378    2.1253 H   0  0  0  0  0  0  0  0  0  0  0  0
    1.8823    0.6811    2.8610 H   0  0  0  0  0  0  0  0  0  0  0  0
    1.0860    1.1994    1.2758 H   0  0  0  0  0  0  0  0  0  0  0  0
  1  2  1  0
  1  4  1  0
  1  5  1  0
  1  6  1  0
  2  3  1  0
  2  8  1  0
  3  9  1  0
  7 11  1  0
 10 11  2  3
 10 14  1  0
 10 15  1  0
 11 12  1  0
 12 13  2  3
 12 16  1  0
 13 17  1  0
 13 18  1  0
M  RAD  1   2   2
M  END
>  <reaction>  (7) 
rxn_1883

>  <mol_properties>  (7) 
{"1": {"label": "*1", "atom_type": "Cs"}, "2": {"label": "*0", "atom_type": "S2s"}, "6": {"label": "*2", "atom_type": "H0"}, "10": {"label": "*3", "atom_type": "Cd"}, "11": {"label": "*4", "atom_type": "Cd"}}

>  <type>  (7) 
unop_3

>  <geom_source>  (7) 
Heuristics

$$$$

     RDKit          3D

 18 16  0  0  0  0  0  0  0  0999 V2000
   -0.9625    0.4932   -1.8820 C   0  0  0  0  0  0  0  0  0  0  0  0
   -0.9625    0.4932   -0.3634 C   0  0  0  0  0  3  0  0  0  0  0  0
   -0.9625    2.1505    0.3816 S   0  0  0  0  0  0  0  0  0  0  0  0
   -0.0559    0.9586   -2.2728 H   0  0  0  0  0  0  0  0  0  0  0  0
   -1.8185    1.0444   -2.2721 H   0  0  0  0  0  0  0  0  0  0  0  0
   -1.0056   -0.5302   -2.2623 H   0  0  0  0  0  0  0  0  0  0  0  0
    0.0494   -0.1862    0.1108 H   0  0  0  0  0  0  0  0  0  0  0  0
   -1.8701    0.0261    0.0218 H   0  0  0  0  0  0  0  0  0  0  0  0
    0.2123    2.5522   -0.1219 H   0  0  0  0  0  0  0  0  0  0  0  0
    1.4960   -0.3798    1.7413 C   0  0  0  0  0  0  0  0  0  0  0  0
    1.0584   -0.8635    0.5835 C   0  0  0  0  0  0  0  0  0  0  0  0
    1.1256   -2.2701    0.2100 C   0  0  0  0  0  0  0  0  0  0  0  0
    0.6881   -2.7538   -0.9478 C   0  0  0  0  0  0  0  0  0  0  0  0
    1.4265    0.6737    1.9784 H   0  0  0  0  0  0  0  0  0  0  0  0
    1.9392   -1.0264    2.4907 H   0  0  0  0  0  0  0  0  0  0  0  0
    1.5651   -2.9433    0.9411 H   0  0  0  0  0  0  0  0  0  0  0  0
    0.7575   -3.8073   -1.1848 H   0  0  0  0  0  0  0  0  0  0  0  0
    0.2449   -2.1072   -1.6971 H   0  0  0  0  0  0  0  0  0  0  0  0
  1  2  1  0
  1  4  1  0
  1  5  1  0
  1  6  1  0
  2  3  1  0
  2  8  1  0
  3  9  1  0
  7 11  1  0
 10 11  2  3
 10 14  1  0
 10 15  1  0
 11 12  1  0
 12 13  2  3
 12 16  1  0
 13 17  1  0
 13 18  1  0
M  RAD  1   2   2
M  END
>  <reaction>  (8) 
rxn_1883

>  <mol_properties>  (8) 
{"1": {"label": "*1", "atom_type": "Cs"}, "2": {"label": "*0", "atom_type": "S2s"}, "6": {"label": "*2", "atom_type": "H0"}, "10": {"label": "*3", "atom_type": "Cd"}, "11": {"label": "*4", "atom_type": "Cd"}}

>  <type>  (8) 
unop_4

>  <geom_source>  (8) 
Heuristics

$$$$

     RDKit          3D

 18 16  0  0  0  0  0  0  0  0999 V2000
   -0.9756    0.1789   -2.3076 C   0  0  0  0  0  0  0  0  0  0  0  0
   -0.9756    0.1789   -0.7889 C   0  0  0  0  0  3  0  0  0  0  0  0
   -0.9756    1.8363   -0.0440 S   0  0  0  0  0  0  0  0  0  0  0  0
   -0.0689    0.6443   -2.6984 H   0  0  0  0  0  0  0  0  0  0  0  0
   -1.8315    0.7301   -2.6977 H   0  0  0  0  0  0  0  0  0  0  0  0
   -1.0187   -0.8445   -2.6879 H   0  0  0  0  0  0  0  0  0  0  0  0
    0.0363   -0.5004   -0.3148 H   0  0  0  0  0  0  0  0  0  0  0  0
   -1.8832   -0.2881   -0.4038 H   0  0  0  0  0  0  0  0  0  0  0  0
    0.1992    2.2380   -0.5475 H   0  0  0  0  0  0  0  0  0  0  0  0
    1.9009   -1.7522   -0.6811 C   0  0  0  0  0  0  0  0  0  0  0  0
    1.0453   -1.1778    0.1580 C   0  0  0  0  0  0  0  0  0  0  0  0
    1.1533   -1.2503    1.6090 C   0  0  0  0  0  0  0  0  0  0  0  0
    0.2977   -0.6759    2.4480 C   0  0  0  0  0  0  0  0  0  0  0  0
    1.7830   -1.6731   -1.7538 H   0  0  0  0  0  0  0  0  0  0  0  0
    2.7494   -2.3219   -0.3182 H   0  0  0  0  0  0  0  0  0  0  0  0
    1.9941   -1.8148    2.0030 H   0  0  0  0  0  0  0  0  0  0  0  0
    0.4156   -0.7550    3.5207 H   0  0  0  0  0  0  0  0  0  0  0  0
   -0.5508   -0.1063    2.0852 H   0  0  0  0  0  0  0  0  0  0  0  0
  1  2  1  0
  1  4  1  0
  1  5  1  0
  1  6  1  0
  2  3  1  0
  2  8  1  0
  3  9  1  0
  7 11  1  0
 10 11  2  3
 10 14  1  0
 10 15  1  0
 11 12  1  0
 12 13  2  3
 12 16  1  0
 13 17  1  0
 13 18  1  0
M  RAD  1   2   2
M  END
>  <reaction>  (9) 
rxn_1883

>  <mol_properties>  (9) 
{"1": {"label": "*1", "atom_type": "Cs"}, "2": {"label": "*0", "atom_type": "S2s"}, "6": {"label": "*2", "atom_type": "H0"}, "10": {"label": "*3", "atom_type": "Cd"}, "11": {"label": "*4", "atom_type": "Cd"}}

>  <type>  (9) 
unop_5

>  <geom_source>  (9) 
Heuristics

$$$$

     RDKit          3D

 18 16  0  0  0  0  0  0  0  0999 V2000
   -0.8934    0.4940   -2.0264 C   0  0  0  0  0  0  0  0  0  0  0  0
   -0.8934    0.4940   -0.5078 C   0  0  0  0  0  3  0  0  0  0  0  0
   -0.8934    2.1514    0.2372 S   0  0  0  0  0  0  0  0  0  0  0  0
    0.0132    0.9595   -2.4172 H   0  0  0  0  0  0  0  0  0  0  0  0
   -1.7494    1.0452   -2.4165 H   0  0  0  0  0  0  0  0  0  0  0  0
   -0.9365   -0.5293   -2.4067 H   0  0  0  0  0  0  0  0  0  0  0  0
    0.1185   -0.1853   -0.0336 H   0  0  0  0  0  0  0  0  0  0  0  0
   -1.8010    0.0270   -0.1226 H   0  0  0  0  0  0  0  0  0  0  0  0
    0.2814    2.5531   -0.2663 H   0  0  0  0  0  0  0  0  0  0  0  0
    1.8148   -0.0739    1.2585 C   0  0  0  0  0  0  0  0  0  0  0  0
    1.1275   -0.8627    0.4391 C   0  0  0  0  0  0  0  0  0  0  0  0
    0.9009   -2.2825    0.6738 C   0  0  0  0  0  0  0  0  0  0  0  0
    0.2136   -3.0713   -0.1456 C   0  0  0  0  0  0  0  0  0  0  0  0
    1.9593    0.9771    1.0454 H   0  0  0  0  0  0  0  0  0  0  0  0
    2.2559   -0.4577    2.1719 H   0  0  0  0  0  0  0  0  0  0  0  0
    1.3310   -2.6965    1.5818 H   0  0  0  0  0  0  0  0  0  0  0  0
    0.0691   -4.1223    0.0675 H   0  0  0  0  0  0  0  0  0  0  0  0
   -0.2275   -2.6875   -1.0589 H   0  0  0  0  0  0  0  0  0  0  0  0
  1  2  1  0
  1  4  1  0
  1  5  1  0
  1  6  1  0
  2  3  1  0
  2  8  1  0
  3  9  1  0
  7 11  1  0
 10 11  2  3
 10 14  1  0
 10 15  1  0
 11 12  1  0
 12 13  2  3
 12 16  1  0
 13 17  1  0
 13 18  1  0
M  RAD  1   2   2
M  END
>  <reaction>  (10) 
rxn_1883

>  <mol_properties>  (10) 
{"1": {"label": "*1", "atom_type": "Cs"}, "2": {"label": "*0", "atom_type": "S2s"}, "6": {"label": "*2", "atom_type": "H0"}, "10": {"label": "*3", "atom_type": "Cd"}, "11": {"label": "*4", "atom_type": "Cd"}}

>  <type>  (10) 
unop_6

>  <geom_source>  (10) 
Heuristics

$$$$

     RDKit          3D

 18 16  0  0  0  0  0  0  0  0999 V2000
   -0.8717    0.4265   -2.1691 C   0  0  0  0  0  0  0  0  0  0  0  0
   -0.8717    0.4265   -0.6505 C   0  0  0  0  0  3  0  0  0  0  0  0
   -0.8717    2.0838    0.0945 S   0  0  0  0  0  0  0  0  0  0  0  0
    0.0350    0.8919   -2.5599 H   0  0  0  0  0  0  0  0  0  0  0  0
   -1.7276    0.9777   -2.5592 H   0  0  0  0  0  0  0  0  0  0  0  0
   -0.9147   -0.5969   -2.5494 H   0  0  0  0  0  0  0  0  0  0  0  0
    0.1402   -0.2529   -0.1763 H   0  0  0  0  0  0  0  0  0  0  0  0
   -1.7793   -0.0406   -0.2653 H   0  0  0  0  0  0  0  0  0  0  0  0
    0.3031    2.4855   -0.4090 H   0  0  0  0  0  0  0  0  0  0  0  0
    2.1205   -0.0631    0.5620 C   0  0  0  0  0  0  0  0  0  0  0  0
    1.1492   -0.9303    0.2964 C   0  0  0  0  0  0  0  0  0  0  0  0
    0.8236   -2.0730    1.1393 C   0  0  0  0  0  0  0  0  0  0  0  0
   -0.1477   -2.9402    0.8737 C   0  0  0  0  0  0  0  0  0  0  0  0
    2.3288    0.7732   -0.0923 H   0  0  0  0  0  0  0  0  0  0  0  0
    2.7398   -0.1641    1.4465 H   0  0  0  0  0  0  0  0  0  0  0  0
    1.4274   -2.2009    2.0337 H   0  0  0  0  0  0  0  0  0  0  0  0
   -0.3559   -3.7765    1.5280 H   0  0  0  0  0  0  0  0  0  0  0  0
   -0.7669   -2.8392   -0.0109 H   0  0  0  0  0  0  0  0  0  0  0  0
  1  2  1  0
  1  4  1  0
  1  5  1  0
  1  6  1  0
  2  3  1  0
  2  8  1  0
  3  9  1  0
  7 11  1  0
 10 11  2  3
 10 14  1  0
 10 15  1  0
 11 12  1  0
 12 13  2  3
 12 16  1  0
 13 17  1  0
 13 18  1  0
M  RAD  1   2   2
M  END
>  <reaction>  (11) 
rxn_1883

>  <mol_properties>  (11) 
{"1": {"label": "*1", "atom_type": "Cs"}, "2": {"label": "*0", "atom_type": "S2s"}, "6": {"label": "*2", "atom_type": "H0"}, "10": {"label": "*3", "atom_type": "Cd"}, "11": {"label": "*4", "atom_type": "Cd"}}

>  <type>  (11) 
unop_7

>  <geom_source>  (11) 
Heuristics

$$$$

     RDKit          3D

 18 16  0  0  0  0  0  0  0  0999 V2000
   -1.2361   -0.0165   -2.0264 C   0  0  0  0  0  0  0  0  0  0  0  0
   -1.2361   -0.0165   -0.5078 C   0  0  0  0  0  3  0  0  0  0  0  0
   -1.2361    1.6409    0.2372 S   0  0  0  0  0  0  0  0  0  0  0  0
   -0.3295    0.4489   -2.4172 H   0  0  0  0  0  0  0  0  0  0  0  0
   -2.0921    0.5347   -2.4165 H   0  0  0  0  0  0  0  0  0  0  0  0
   -1.2792   -1.0398   -2.4067 H   0  0  0  0  0  0  0  0  0  0  0  0
   -0.2242   -0.6958   -0.0336 H   0  0  0  0  0  0  0  0  0  0  0  0
   -2.1437   -0.4835   -0.1226 H   0  0  0  0  0  0  0  0  0  0  0  0
   -0.0613    2.0426   -0.2663 H   0  0  0  0  0  0  0  0  0  0  0  0
    0.3150   -2.3080    1.2585 C   0  0  0  0  0  0  0  0  0  0  0  0
    0.7848   -1.3732    0.4391 C   0  0  0  0  0  0  0  0  0  0  0  0
    2.0131   -0.6258    0.6738 C   0  0  0  0  0  0  0  0  0  0  0  0
    2.4829    0.3089   -0.1456 C   0  0  0  0  0  0  0  0  0  0  0  0
   -0.6031   -2.8397    1.0454 H   0  0  0  0  0  0  0  0  0  0  0  0
    0.8372   -2.5709    2.1719 H   0  0  0  0  0  0  0  0  0  0  0  0
    2.5591   -0.8672    1.5818 H   0  0  0  0  0  0  0  0  0  0  0  0
    3.4009    0.8406    0.0675 H   0  0  0  0  0  0  0  0  0  0  0  0
    1.9606    0.5718   -1.0589 H   0  0  0  0  0  0  0  0  0  0  0  0
  1  2  1  0
  1  4  1  0
  1  5  1  0
  1  6  1  0
  2  3  1  0
  2  8  1  0
  3  9  1  0
  7 11  1  0
 10 11  2  3
 10 14  1  0
 10 15  1  0
 11 12  1  0
 12 13  2  3
 12 16  1  0
 13 17  1  0
 13 18  1  0
M  RAD  1   2   2
M  END
>  <reaction>  (12) 
rxn_1883

>  <mol_properties>  (12) 
{"1": {"label": "*1", "atom_type": "Cs"}, "2": {"label": "*0", "atom_type": "S2s"}, "6": {"label": "*2", "atom_type": "H0"}, "10": {"label": "*3", "atom_type": "Cd"}, "11": {"label": "*4", "atom_type": "Cd"}}

>  <type>  (12) 
unop_8

>  <geom_source>  (12) 
Heuristics

$$$$

     RDKit          3D

 18 16  0  0  0  0  0  0  0  0999 V2000
   -1.0604    0.4233   -1.7754 C   0  0  0  0  0  0  0  0  0  0  0  0
   -1.0604    0.4233   -0.2568 C   0  0  0  0  0  3  0  0  0  0  0  0
   -1.0604    2.0806    0.4882 S   0  0  0  0  0  0  0  0  0  0  0  0
   -0.1537    0.8887   -2.1662 H   0  0  0  0  0  0  0  0  0  0  0  0
   -1.9164    0.9745   -2.1655 H   0  0  0  0  0  0  0  0  0  0  0  0
   -1.1035   -0.6001   -2.1557 H   0  0  0  0  0  0  0  0  0  0  0  0
   -0.0485   -0.2561    0.2174 H   0  0  0  0  0  0  0  0  0  0  0  0
   -1.9680   -0.0438    0.1284 H   0  0  0  0  0  0  0  0  0  0  0  0
    0.1144    2.4823   -0.0153 H   0  0  0  0  0  0  0  0  0  0  0  0
    1.2382   -0.7902    1.9817 C   0  0  0  0  0  0  0  0  0  0  0  0
    0.9605   -0.9334    0.6901 C   0  0  0  0  0  0  0  0  0  0  0  0
    1.4378   -2.0399   -0.1286 C   0  0  0  0  0  0  0  0  0  0  0  0
    1.1601   -2.1831   -1.4202 C   0  0  0  0  0  0  0  0  0  0  0  0
    0.8624    0.0484    2.5531 H   0  0  0  0  0  0  0  0  0  0  0  0
    1.8531   -1.5112    2.5092 H   0  0  0  0  0  0  0  0  0  0  0  0
    2.0569   -2.7792    0.3724 H   0  0  0  0  0  0  0  0  0  0  0  0
    1.5360   -3.0217   -1.9916 H   0  0  0  0  0  0  0  0  0  0  0  0
    0.5453   -1.4621   -1.9477 H   0  0  0  0  0  0  0  0  0  0  0  0
  1  2  1  0
  1  4  1  0
  1  5  1  0
  1  6  1  0
  2  3  1  0
  2  8  1  0
  3  9  1  0
  7 11  1  0
 10 11  2  3
 10 14  1  0
 10 15  1  0
 11 12  1  0
 12 13  2  3
 12 16  1  0
 13 17  1  0
 13 18  1  0
M  RAD  1   2   2
M  END
>  <reaction>  (13) 
rxn_1883

>  <mol_properties>  (13) 
{"1": {"label": "*1", "atom_type": "Cs"}, "2": {"label": "*0", "atom_type": "S2s"}, "6": {"label": "*2", "atom_type": "H0"}, "10": {"label": "*3", "atom_type": "Cd"}, "11": {"label": "*4", "atom_type": "Cd"}}

>  <type>  (13) 
unop_9

>  <geom_source>  (13) 
Heuristics

$$$$

     RDKit          3D

 18 16  0  0  0  0  0  0  0  0999 V2000
   -1.2615    0.0478   -1.8820 C   0  0  0  0  0  0  0  0  0  0  0  0
   -1.2615    0.0478   -0.3634 C   0  0  0  0  0  3  0  0  0  0  0  0
   -1.2615    1.7052    0.3816 S   0  0  0  0  0  0  0  0  0  0  0  0
   -0.3549    0.5132   -2.2728 H   0  0  0  0  0  0  0  0  0  0  0  0
   -2.1175    0.5990   -2.2721 H   0  0  0  0  0  0  0  0  0  0  0  0
   -1.3046   -0.9756   -2.2623 H   0  0  0  0  0  0  0  0  0  0  0  0
   -0.2496   -0.6315    0.1108 H   0  0  0  0  0  0  0  0  0  0  0  0
   -2.1691   -0.4192    0.0218 H   0  0  0  0  0  0  0  0  0  0  0  0
   -0.0867    2.1068   -0.1219 H   0  0  0  0  0  0  0  0  0  0  0  0
    0.4774   -1.8971    1.7413 C   0  0  0  0  0  0  0  0  0  0  0  0
    0.7594   -1.3089    0.5835 C   0  0  0  0  0  0  0  0  0  0  0  0
    2.0867   -0.8386    0.2100 C   0  0  0  0  0  0  0  0  0  0  0  0
    2.3687   -0.2504   -0.9478 C   0  0  0  0  0  0  0  0  0  0  0  0
   -0.5240   -2.2317    1.9784 H   0  0  0  0  0  0  0  0  0  0  0  0
    1.2436   -2.0625    2.4907 H   0  0  0  0  0  0  0  0  0  0  0  0
    2.8761   -0.9904    0.9411 H   0  0  0  0  0  0  0  0  0  0  0  0
    3.3701    0.0842   -1.1848 H   0  0  0  0  0  0  0  0  0  0  0  0
    1.6024   -0.0850   -1.6971 H   0  0  0  0  0  0  0  0  0  0  0  0
  1  2  1  0
  1  4  1  0
  1  5  1  0
  1  6  1  0
  2  3  1  0
  2  8  1  0
  3  9  1  0
  7 11  1  0
 10 11  2  3
 10 14  1  0
 10 15  1  0
 11 12  1  0
 12 13  2  3
 12 16  1  0
 13 17  1  0
 13 18  1  0
M  RAD  1   2   2
M  END
>  <reaction>  (14) 
rxn_1883

>  <mol_properties>  (14) 
{"1": {"label": "*1", "atom_type": "Cs"}, "2": {"label": "*0", "atom_type": "S2s"}, "6": {"label": "*2", "atom_type": "H0"}, "10": {"label": "*3", "atom_type": "Cd"}, "11": {"label": "*4", "atom_type": "Cd"}}

>  <type>  (14) 
unop_10

>  <geom_source>  (14) 
Heuristics

$$$$

     RDKit          3D

 18 16  0  0  0  0  0  0  0  0999 V2000
   -0.9028    0.3102   -2.2715 C   0  0  0  0  0  0  0  0  0  0  0  0
   -0.9028    0.3102   -0.7528 C   0  0  0  0  0  3  0  0  0  0  0  0
   -0.9028    1.9676   -0.0079 S   0  0  0  0  0  0  0  0  0  0  0  0
    0.0039    0.7756   -2.6623 H   0  0  0  0  0  0  0  0  0  0  0  0
   -1.7588    0.8614   -2.6616 H   0  0  0  0  0  0  0  0  0  0  0  0
   -0.9459   -0.7131   -2.6518 H   0  0  0  0  0  0  0  0  0  0  0  0
    0.1091   -0.3691   -0.2787 H   0  0  0  0  0  0  0  0  0  0  0  0
   -1.8104   -0.1568   -0.3677 H   0  0  0  0  0  0  0  0  0  0  0  0
    0.2720    2.3693   -0.5114 H   0  0  0  0  0  0  0  0  0  0  0  0
    2.2846   -0.5620   -0.2188 C   0  0  0  0  0  0  0  0  0  0  0  0
    1.1181   -1.0465    0.1941 C   0  0  0  0  0  0  0  0  0  0  0  0
    0.9150   -1.6961    1.4821 C   0  0  0  0  0  0  0  0  0  0  0  0
   -0.2516   -2.1806    1.8949 C   0  0  0  0  0  0  0  0  0  0  0  0
    2.3913   -0.0863   -1.1848 H   0  0  0  0  0  0  0  0  0  0  0  0
    3.1726   -0.6270    0.4004 H   0  0  0  0  0  0  0  0  0  0  0  0
    1.7872   -1.7763    2.1253 H   0  0  0  0  0  0  0  0  0  0  0  0
   -0.3582   -2.6564    2.8610 H   0  0  0  0  0  0  0  0  0  0  0  0
   -1.1395   -2.1156    1.2758 H   0  0  0  0  0  0  0  0  0  0  0  0
  1  2  1  0
  1  4  1  0
  1  5  1  0
  1  6  1  0
  2  3  1  0
  2  8  1  0
  3  9  1  0
  7 11  1  0
 10 11  2  3
 10 14  1  0
 10 15  1  0
 11 12  1  0
 12 13  2  3
 12 16  1  0
 13 17  1  0
 13 18  1  0
M  RAD  1   2   2
M  END
>  <reaction>  (15) 
rxn_1883

>  <mol_properties>  (15) 
{"1": {"label": "*1", "atom_type": "Cs"}, "2": {"label": "*0", "atom_type": "S2s"}, "6": {"label": "*2", "atom_type": "H0"}, "10": {"label": "*3", "atom_type": "Cd"}, "11": {"label": "*4", "atom_type": "Cd"}}

>  <type>  (15) 
unop_11

>  <geom_source>  (15) 
Heuristics

$$$$

     RDKit          3D

 18 16  0  0  0  0  0  0  0  0999 V2000
   -1.1601    0.3028   -1.7362 C   0  0  0  0  0  0  0  0  0  0  0  0
   -1.1601    0.3028   -0.2176 C   0  0  0  0  0  3  0  0  0  0  0  0
   -1.1601    1.9602    0.5274 S   0  0  0  0  0  0  0  0  0  0  0  0
   -0.2535    0.7682   -2.1270 H   0  0  0  0  0  0  0  0  0  0  0  0
   -2.0161    0.8540   -2.1263 H   0  0  0  0  0  0  0  0  0  0  0  0
   -1.2032   -0.7206   -2.1165 H   0  0  0  0  0  0  0  0  0  0  0  0
   -0.1482   -0.3765    0.2566 H   0  0  0  0  0  0  0  0  0  0  0  0
   -2.0677   -0.1643    0.1676 H   0  0  0  0  0  0  0  0  0  0  0  0
    0.0147    2.3618    0.0239 H   0  0  0  0  0  0  0  0  0  0  0  0
    1.0207   -1.1613    2.0442 C   0  0  0  0  0  0  0  0  0  0  0  0
    0.8608   -1.0539    0.7293 C   0  0  0  0  0  0  0  0  0  0  0  0
    1.7545   -1.6539   -0.2524 C   0  0  0  0  0  0  0  0  0  0  0  0
    1.5945   -1.5465   -1.5672 C   0  0  0  0  0  0  0  0  0  0  0  0
    0.3320   -0.6989    2.7390 H   0  0  0  0  0  0  0  0  0  0  0  0
    1.8497   -1.7178    2.4674 H   0  0  0  0  0  0  0  0  0  0  0  0
    2.5953   -2.2184    0.1416 H   0  0  0  0  0  0  0  0  0  0  0  0
    2.2833   -2.0089   -2.2620 H   0  0  0  0  0  0  0  0  0  0  0  0
    0.7655   -0.9900   -1.9904 H   0  0  0  0  0  0  0  0  0  0  0  0
  1  2  1  0
  1  4  1  0
  1  5  1  0
  1  6  1  0
  2  3  1  0
  2  8  1  0
  3  9  1  0
  7 11  1  0
 10 11  2  3
 10 14  1  0
 10 15  1  0
 11 12  1  0
 12 13  2  3
 12 16  1  0
 13 17  1  0
 13 18  1  0
M  RAD  1   2   2
M  END
>  <reaction>  (16) 
rxn_1883

>  <mol_properties>  (16) 
{"1": {"label": "*1", "atom_type": "Cs"}, "2": {"label": "*0", "atom_type": "S2s"}, "6": {"label": "*2", "atom_type": "H0"}, "10": {"label": "*3", "atom_type": "Cd"}, "11": {"label": "*4", "atom_type": "Cd"}}

>  <type>  (16) 
unop_12

>  <geom_source>  (16) 
Heuristics

$$$$

     RDKit          3D

 18 16  0  0  0  0  0  0  0  0999 V2000
   -2.4771    0.7799    1.8708 S   0  0  0  0  0  0  0  0  0  0  0  0
   -1.9708    0.0304   -0.7212 C   0  0  0  0  0  0  0  0  0  0  0  0
    0.9667    0.4539   -0.3304 C   0  0  0  0  0  0  0  0  0  0  0  0
    2.0497   -0.5310   -0.1918 C   0  0  0  0  0  0  0  0  0  0  0  0
   -1.3764   -0.0349    0.6755 C   0  0  0  0  0  3  0  0  0  0  0  0
    0.9993    1.3848   -1.2788 C   0  0  0  0  0  0  0  0  0  0  0  0
    2.0130   -1.4603    0.7580 C   0  0  0  0  0  0  0  0  0  0  0  0
   -2.9516   -0.4904   -0.7461 H   0  0  0  0  0  0  0  0  0  0  0  0
   -2.1055    1.0894   -1.0260 H   0  0  0  0  0  0  0  0  0  0  0  0
   -1.2816   -0.4625   -1.4380 H   0  0  0  0  0  0  0  0  0  0  0  0
    0.0192    0.4236    0.4326 H   0  0  0  0  0  0  0  0  0  0  0  0
    2.8944   -0.5057   -0.8705 H   0  0  0  0  0  0  0  0  0  0  0  0
   -1.2237   -1.0939    0.9732 H   0  0  0  0  0  0  0  0  0  0  0  0
    0.1904    2.0984   -1.3605 H   0  0  0  0  0  0  0  0  0  0  0  0
    1.8245    1.4459   -1.9777 H   0  0  0  0  0  0  0  0  0  0  0  0
    1.1861   -1.5182    1.4551 H   0  0  0  0  0  0  0  0  0  0  0  0
    2.8194   -2.1769    0.8447 H   0  0  0  0  0  0  0  0  0  0  0  0
   -1.5760    0.5676    2.9310 H   0  0  0  0  0  0  0  0  0  0  0  0
  1  5  1  0
  1 18  1  0
  2  5  1  0
  2  8  1  0
  2  9  1  0
  2 10  1  0
  3  6  2  3
  3  4  1  0
  3 11  1  0
  4  7  2  3
  4 12  1  0
  5 13  1  0
  6 14  1  0
  6 15  1  0
  7 16  1  0
  7 17  1  0
M  RAD  1   5   2
M  END
>  <reaction>  (17) 
rxn_1883

>  <mol_properties>  (17) 
{"1": {"label": "*1", "atom_type": "Cs"}, "2": {"label": "*0", "atom_type": "S2s"}, "6": {"label": "*2", "atom_type": "H0"}, "10": {"label": "*3", "atom_type": "Cd"}, "11": {"label": "*4", "atom_type": "Cd"}}

>  <type>  (17) 
unop_13

>  <geom_source>  (17) 
AutoTST

$$$$
