
     RDKit          3D

  5  4  0  0  0  0  0  0  0  0999 V2000
    0.0000    0.0000    0.0000 C   0  0  0  0  0  0  0  0  0  0  0  0
   -0.6486   -0.7720   -0.4113 H   0  0  0  0  0  0  0  0  0  0  0  0
   -0.3482    0.9787   -0.3267 H   0  0  0  0  0  0  0  0  0  0  0  0
   -0.0223   -0.0487    1.0876 H   0  0  0  0  0  0  0  0  0  0  0  0
    1.0191   -0.1580   -0.3496 H   0  0  0  0  0  0  0  0  0  0  0  0
  1  2  1  0
  1  3  1  0
  1  4  1  0
  1  5  1  0
M  END
>  <reaction>  (1) 
rxn_844

>  <mol_properties>  (1) 
{"0": {"label": "donator", "atom_type": "Cs"}, "1": {"label": "d_hydrogen", "atom_type": "H0"}}

>  <type>  (1) 
r1h

$$$$

     RDKit          3D

  9  8  0  0  0  0  0  0  0  0999 V2000
    1.8963   -0.1405   -0.2150 C   0  0  0  0  0  0  0  0  0  0  0  0
    0.6340    0.1486   -0.2254 C   0  0  0  0  0  3  0  0  0  0  0  0
   -0.6770    0.4501   -0.2373 C   0  0  0  0  0  0  0  0  0  0  0  0
   -1.6600   -0.2303    0.4662 C   0  0  0  0  0  0  0  0  0  0  0  0
    2.3274   -0.8354   -0.9313 H   0  0  0  0  0  0  0  0  0  0  0  0
    2.5751    0.2988    0.5117 H   0  0  0  0  0  0  0  0  0  0  0  0
   -0.9723    1.2966   -0.8520 H   0  0  0  0  0  0  0  0  0  0  0  0
   -2.6934    0.0777    0.4015 H   0  0  0  0  0  0  0  0  0  0  0  0
   -1.4140   -1.0782    1.0904 H   0  0  0  0  0  0  0  0  0  0  0  0
  1  2  2  3
  1  5  1  0
  1  6  1  0
  2  3  1  0
  3  4  2  3
  3  7  1  0
  4  8  1  0
  4  9  1  0
M  RAD  1   2   2
M  END
>  <reaction>  (2) 
rxn_844

>  <mol_properties>  (2) 
{"1": {"label": "acceptor", "atom_type": "Cd"}}

>  <type>  (2) 
r2

$$$$

     RDKit          3D

 10  9  0  0  0  0  0  0  0  0999 V2000
    1.8334    0.0847   -0.1062 C   0  0  0  0  0  0  0  0  0  0  0  0
    0.5993   -0.4071   -0.0750 C   0  0  0  0  0  0  0  0  0  0  0  0
   -0.5993    0.4071    0.0750 C   0  0  0  0  0  0  0  0  0  0  0  0
   -1.8334   -0.0847    0.1062 C   0  0  0  0  0  0  0  0  0  0  0  0
    2.0179    1.1498   -0.0189 H   0  0  0  0  0  0  0  0  0  0  0  0
    2.6972   -0.5572   -0.2194 H   0  0  0  0  0  0  0  0  0  0  0  0
    0.4465   -1.4793   -0.1649 H   0  0  0  0  0  0  0  0  0  0  0  0
   -0.4465    1.4793    0.1649 H   0  0  0  0  0  0  0  0  0  0  0  0
   -2.0179   -1.1498    0.0189 H   0  0  0  0  0  0  0  0  0  0  0  0
   -2.6972    0.5572    0.2194 H   0  0  0  0  0  0  0  0  0  0  0  0
  1  2  2  3
  1  5  1  0
  1  6  1  0
  2  3  1  0
  2  7  1  0
  3  4  2  3
  3  8  1  0
  4  9  1  0
  4 10  1  0
M  END
>  <reaction>  (3) 
rxn_844

>  <mol_properties>  (3) 
{"1": {"label": "acceptor", "atom_type": "Cd"}, "9": {"label": "a_hydrogen", "atom_type": "H0"}}

>  <type>  (3) 
r2h

$$$$

     RDKit          3D

 14 12  0  0  0  0  0  0  0  0999 V2000
    0.9111    0.4229    1.6393 C   0  0  0  0  0  0  0  0  0  0  0  0
    0.2415    0.2099    0.5217 C   0  0  0  0  0  3  0  0  0  0  0  0
   -0.5380    1.1402   -0.2669 C   0  0  0  0  0  0  0  0  0  0  0  0
   -1.1802    0.8248   -1.3871 C   0  0  0  0  0  0  0  0  0  0  0  0
    1.4594   -0.3708    2.1334 H   0  0  0  0  0  0  0  0  0  0  0  0
    0.9380    1.4046    2.1077 H   0  0  0  0  0  0  0  0  0  0  0  0
   -0.5843    2.1626    0.1072 H   0  0  0  0  0  0  0  0  0  0  0  0
   -1.7491    1.5629   -1.9369 H   0  0  0  0  0  0  0  0  0  0  0  0
   -1.1546   -0.1823   -1.7861 H   0  0  0  0  0  0  0  0  0  0  0  0
    0.3546   -2.2956   -0.3953 C   0  0  0  0  0  0  0  0  0  0  0  0
    0.2837   -1.0479    0.0390 H   0  0  0  0  0  0  0  0  0  0  0  0
   -0.6704   -2.6553   -0.4132 H   0  0  0  0  0  0  0  0  0  0  0  0
    0.8095   -2.2347   -1.3800 H   0  0  0  0  0  0  0  0  0  0  0  0
    0.9763   -2.8091    0.3328 H   0  0  0  0  0  0  0  0  0  0  0  0
  1  2  2  3
  1  5  1  0
  1  6  1  0
  2  3  1  0
  3  4  2  3
  3  7  1  0
  4  8  1  0
  4  9  1  0
 10 11  1  0
 10 12  1  0
 10 13  1  0
 10 14  1  0
M  RAD  1   2   2
M  END
>  <reaction>  (4) 
rxn_844

>  <mol_properties>  (4) 
{"1": {"label": "*3", "atom_type": "Cd"}, "2": {"label": "*4", "atom_type": "Cd"}, "9": {"label": "*1", "atom_type": "Cs"}, "10": {"label": "*2", "atom_type": "H0"}, "11": {"label": "*0", "atom_type": "H0"}}

>  <type>  (4) 
ts

$$$$

     RDKit          3D

 14 12  0  0  0  0  0  0  0  0999 V2000
    1.7002    0.7371    0.1184 C   0  0  0  0  0  0  0  0  0  0  0  0
    0.4389    0.4059   -0.1370 C   0  0  0  0  0  0  0  0  0  0  0  0
   -0.6914    0.7986    0.6940 C   0  0  0  0  0  0  0  0  0  0  0  0
   -1.9528    0.4674    0.4386 C   0  0  0  0  0  0  0  0  0  0  0  0
    2.5106    0.4236   -0.5265 H   0  0  0  0  0  0  0  0  0  0  0  0
    1.9615    1.3348    0.9847 H   0  0  0  0  0  0  0  0  0  0  0  0
   -0.4610    1.3987    1.5702 H   0  0  0  0  0  0  0  0  0  0  0  0
   -2.7632    0.7809    1.0835 H   0  0  0  0  0  0  0  0  0  0  0  0
   -2.2141   -0.1303   -0.4277 H   0  0  0  0  0  0  0  0  0  0  0  0
    0.4389   -2.0555   -1.0072 C   0  0  0  0  0  3  0  0  0  0  0  0
    0.4389   -0.8235   -0.5717 H   0  0  0  0  0  0  0  0  0  0  0  0
    1.3280   -2.5688   -0.6442 H   0  0  0  0  0  0  0  0  0  0  0  0
   -0.4502   -2.5688   -0.6442 H   0  0  0  0  0  0  0  0  0  0  0  0
    0.4389   -2.0555   -2.0962 H   0  0  0  0  0  0  0  0  0  0  0  0
  1  2  2  3
  1  5  1  0
  1  6  1  0
  2  3  1  0
  2 11  1  0
  3  4  2  3
  3  7  1  0
  4  8  1  0
  4  9  1  0
 10 12  1  0
 10 13  1  0
 10 14  1  0
M  RAD  1  10   2
M  END
>  <reaction>  (5) 
rxn_844

>  <mol_properties>  (5) 
{"1": {"label": "*3", "atom_type": "Cd"}, "2": {"label": "*4", "atom_type": "Cd"}, "9": {"label": "*1", "atom_type": "Cs"}, "10": {"label": "*2", "atom_type": "H0"}, "11": {"label": "*0", "atom_type": "H0"}}

>  <type>  (5) 
unop_1

>  <geom_source>  (5) 
Heuristics

$$$$

     RDKit          3D

 14 12  0  0  0  0  0  0  0  0999 V2000
    0.5329    0.3593    1.8129 C   0  0  0  0  0  0  0  0  0  0  0  0
    0.2592    0.1684    0.5266 C   0  0  0  0  0  0  0  0  0  0  0  0
   -0.3933    1.1554   -0.3233 C   0  0  0  0  0  0  0  0  0  0  0  0
   -0.6670    0.9645   -1.6096 C   0  0  0  0  0  0  0  0  0  0  0  0
    1.0197   -0.4020    2.4082 H   0  0  0  0  0  0  0  0  0  0  0  0
    0.2770    1.2876    2.3116 H   0  0  0  0  0  0  0  0  0  0  0  0
   -0.6621    2.0966    0.1485 H   0  0  0  0  0  0  0  0  0  0  0  0
   -1.1538    1.7258   -2.2050 H   0  0  0  0  0  0  0  0  0  0  0  0
   -0.4111    0.0362   -2.1084 H   0  0  0  0  0  0  0  0  0  0  0  0
    0.2592   -2.2930   -0.3437 C   0  0  0  0  0  3  0  0  0  0  0  0
    0.2592   -1.0610    0.0919 H   0  0  0  0  0  0  0  0  0  0  0  0
    1.1483   -2.8063    0.0193 H   0  0  0  0  0  0  0  0  0  0  0  0
   -0.6299   -2.8063    0.0193 H   0  0  0  0  0  0  0  0  0  0  0  0
    0.2592   -2.2930   -1.4326 H   0  0  0  0  0  0  0  0  0  0  0  0
  1  2  2  3
  1  5  1  0
  1  6  1  0
  2  3  1  0
  2 11  1  0
  3  4  2  3
  3  7  1  0
  4  8  1  0
  4  9  1  0
 10 12  1  0
 10 13  1  0
 10 14  1  0
M  RAD  1  10   2
M  END
>  <reaction>  (6) 
rxn_844

>  <mol_properties>  (6) 
{"1": {"label": "*3", "atom_type": "Cd"}, "2": {"label": "*4", "atom_type": "Cd"}, "9": {"label": "*1", "atom_type": "Cs"}, "10": {"label": "*2", "atom_type": "H0"}, "11": {"label": "*0", "atom_type": "H0"}}

>  <type>  (6) 
unop_2

>  <geom_source>  (6) 
Heuristics

$$$$

     RDKit          3D

 14 12  0  0  0  0  0  0  0  0999 V2000
    1.3016    1.1507   -0.7438 C   0  0  0  0  0  0  0  0  0  0  0  0
    0.2492    0.4654   -0.3095 C   0  0  0  0  0  0  0  0  0  0  0  0
   -0.4034    0.6989    0.9720 C   0  0  0  0  0  0  0  0  0  0  0  0
   -1.4558    0.0137    1.4063 C   0  0  0  0  0  0  0  0  0  0  0  0
    1.7561    0.9441   -1.7039 H   0  0  0  0  0  0  0  0  0  0  0  0
    1.7426    1.9431   -0.1491 H   0  0  0  0  0  0  0  0  0  0  0  0
    0.0162    1.4874    1.5909 H   0  0  0  0  0  0  0  0  0  0  0  0
   -1.9103    0.2203    2.3664 H   0  0  0  0  0  0  0  0  0  0  0  0
   -1.8968   -0.7788    0.8116 H   0  0  0  0  0  0  0  0  0  0  0  0
    0.2492   -1.9960   -1.1797 C   0  0  0  0  0  3  0  0  0  0  0  0
    0.2492   -0.7640   -0.7441 H   0  0  0  0  0  0  0  0  0  0  0  0
    1.1383   -2.5093   -0.8167 H   0  0  0  0  0  0  0  0  0  0  0  0
   -0.6399   -2.5093   -0.8167 H   0  0  0  0  0  0  0  0  0  0  0  0
    0.2492   -1.9960   -2.2686 H   0  0  0  0  0  0  0  0  0  0  0  0
  1  2  2  3
  1  5  1  0
  1  6  1  0
  2  3  1  0
  2 11  1  0
  3  4  2  3
  3  7  1  0
  4  8  1  0
  4  9  1  0
 10 12  1  0
 10 13  1  0
 10 14  1  0
M  RAD  1  10   2
M  END
>  <reaction>  (7) 
rxn_844

>  <mol_properties>  (7) 
{"1": {"label": "*3", "atom_type": "Cd"}, "2": {"label": "*4", "atom_type": "Cd"}, "9": {"label": "*1", "atom_type": "Cs"}, "10": {"label": "*2", "atom_type": "H0"}, "11": {"label": "*0", "atom_type": "H0"}}

>  <type>  (7) 
unop_3

>  <geom_source>  (7) 
Heuristics

$$$$

     RDKit          3D

 14 12  0  0  0  0  0  0  0  0999 V2000
   -1.0923    0.3630    1.5012 C   0  0  0  0  0  0  0  0  0  0  0  0
   -0.4468    0.2333    0.3469 C   0  0  0  0  0  0  0  0  0  0  0  0
    0.6835    1.0611   -0.0526 C   0  0  0  0  0  0  0  0  0  0  0  0
    1.3290    0.9314   -1.2069 C   0  0  0  0  0  0  0  0  0  0  0  0
   -1.9283   -0.2742    1.7583 H   0  0  0  0  0  0  0  0  0  0  0  0
   -0.8025    1.1144    2.2275 H   0  0  0  0  0  0  0  0  0  0  0  0
    0.9975    1.8236    0.6551 H   0  0  0  0  0  0  0  0  0  0  0  0
    2.1650    1.5686   -1.4640 H   0  0  0  0  0  0  0  0  0  0  0  0
    1.0392    0.1800   -1.9332 H   0  0  0  0  0  0  0  0  0  0  0  0
   -0.4468   -2.2281   -0.5233 C   0  0  0  0  0  3  0  0  0  0  0  0
   -0.4468   -0.9961   -0.0878 H   0  0  0  0  0  0  0  0  0  0  0  0
    0.4423   -2.7414   -0.1604 H   0  0  0  0  0  0  0  0  0  0  0  0
   -1.3359   -2.7414   -0.1604 H   0  0  0  0  0  0  0  0  0  0  0  0
   -0.4468   -2.2281   -1.6123 H   0  0  0  0  0  0  0  0  0  0  0  0
  1  2  2  3
  1  5  1  0
  1  6  1  0
  2  3  1  0
  2 11  1  0
  3  4  2  3
  3  7  1  0
  4  8  1  0
  4  9  1  0
 10 12  1  0
 10 13  1  0
 10 14  1  0
M  RAD  1  10   2
M  END
>  <reaction>  (8) 
rxn_844

>  <mol_properties>  (8) 
{"1": {"label": "*3", "atom_type": "Cd"}, "2": {"label": "*4", "atom_type": "Cd"}, "9": {"label": "*1", "atom_type": "Cs"}, "10": {"label": "*2", "atom_type": "H0"}, "11": {"label": "*0", "atom_type": "H0"}}

>  <type>  (8) 
unop_4

>  <geom_source>  (8) 
Heuristics

$$$$

     RDKit          3D

 14 12  0  0  0  0  0  0  0  0999 V2000
   -0.0000    1.4887   -1.2409 C   0  0  0  0  0  0  0  0  0  0  0  0
   -0.0000    0.4848   -0.3702 C   0  0  0  0  0  0  0  0  0  0  0  0
   -0.0000    0.6600    1.0761 C   0  0  0  0  0  0  0  0  0  0  0  0
    0.0000   -0.3439    1.9468 C   0  0  0  0  0  0  0  0  0  0  0  0
    0.0000    1.3133   -2.3087 H   0  0  0  0  0  0  0  0  0  0  0  0
    0.0000    2.5215   -0.9101 H   0  0  0  0  0  0  0  0  0  0  0  0
   -0.0000    1.6845    1.4383 H   0  0  0  0  0  0  0  0  0  0  0  0
    0.0000   -0.1685    3.0146 H   0  0  0  0  0  0  0  0  0  0  0  0
   -0.0000   -1.3767    1.6160 H   0  0  0  0  0  0  0  0  0  0  0  0
   -0.0000   -1.9766   -1.2404 C   0  0  0  0  0  3  0  0  0  0  0  0
   -0.0000   -0.7446   -0.8049 H   0  0  0  0  0  0  0  0  0  0  0  0
    0.8891   -2.4899   -0.8775 H   0  0  0  0  0  0  0  0  0  0  0  0
   -0.8891   -2.4899   -0.8775 H   0  0  0  0  0  0  0  0  0  0  0  0
   -0.0000   -1.9766   -2.3294 H   0  0  0  0  0  0  0  0  0  0  0  0
  1  2  2  3
  1  5  1  0
  1  6  1  0
  2  3  1  0
  2 11  1  0
  3  4  2  3
  3  7  1  0
  4  8  1  0
  4  9  1  0
 10 12  1  0
 10 13  1  0
 10 14  1  0
M  RAD  1  10   2
M  END
>  <reaction>  (9) 
rxn_844

>  <mol_properties>  (9) 
{"1": {"label": "*3", "atom_type": "Cd"}, "2": {"label": "*4", "atom_type": "Cd"}, "9": {"label": "*1", "atom_type": "Cs"}, "10": {"label": "*2", "atom_type": "H0"}, "11": {"label": "*0", "atom_type": "H0"}}

>  <type>  (9) 
unop_5

>  <geom_source>  (9) 
Heuristics

$$$$

     RDKit          3D

 14 12  0  0  0  0  0  0  0  0999 V2000
   -1.5501    0.4770    0.9185 C   0  0  0  0  0  0  0  0  0  0  0  0
   -0.5122    0.3206    0.1035 C   0  0  0  0  0  0  0  0  0  0  0  0
    0.7930    0.9308    0.3193 C   0  0  0  0  0  0  0  0  0  0  0  0
    1.8310    0.7744   -0.4956 C   0  0  0  0  0  0  0  0  0  0  0  0
   -2.5033    0.0047    0.7200 H   0  0  0  0  0  0  0  0  0  0  0  0
   -1.4773    1.0853    1.8133 H   0  0  0  0  0  0  0  0  0  0  0  0
    0.8969    1.5467    1.2085 H   0  0  0  0  0  0  0  0  0  0  0  0
    2.7841    1.2466   -0.2972 H   0  0  0  0  0  0  0  0  0  0  0  0
    1.7581    0.1660   -1.3904 H   0  0  0  0  0  0  0  0  0  0  0  0
   -0.5122   -2.1409   -0.7667 C   0  0  0  0  0  3  0  0  0  0  0  0
   -0.5122   -0.9089   -0.3311 H   0  0  0  0  0  0  0  0  0  0  0  0
    0.3770   -2.6542   -0.4037 H   0  0  0  0  0  0  0  0  0  0  0  0
   -1.4013   -2.6542   -0.4037 H   0  0  0  0  0  0  0  0  0  0  0  0
   -0.5122   -2.1409   -1.8556 H   0  0  0  0  0  0  0  0  0  0  0  0
  1  2  2  3
  1  5  1  0
  1  6  1  0
  2  3  1  0
  2 11  1  0
  3  4  2  3
  3  7  1  0
  4  8  1  0
  4  9  1  0
 10 12  1  0
 10 13  1  0
 10 14  1  0
M  RAD  1  10   2
M  END
>  <reaction>  (10) 
rxn_844

>  <mol_properties>  (10) 
{"1": {"label": "*3", "atom_type": "Cd"}, "2": {"label": "*4", "atom_type": "Cd"}, "9": {"label": "*1", "atom_type": "Cs"}, "10": {"label": "*2", "atom_type": "H0"}, "11": {"label": "*0", "atom_type": "H0"}}

>  <type>  (10) 
unop_6

>  <geom_source>  (10) 
Heuristics

$$$$

     RDKit          3D

 14 12  0  0  0  0  0  0  0  0999 V2000
   -1.7002    0.7371    0.1184 C   0  0  0  0  0  0  0  0  0  0  0  0
   -0.4389    0.4059   -0.1370 C   0  0  0  0  0  0  0  0  0  0  0  0
    0.6914    0.7986    0.6940 C   0  0  0  0  0  0  0  0  0  0  0  0
    1.9528    0.4674    0.4386 C   0  0  0  0  0  0  0  0  0  0  0  0
   -2.5106    0.4236   -0.5265 H   0  0  0  0  0  0  0  0  0  0  0  0
   -1.9615    1.3348    0.9847 H   0  0  0  0  0  0  0  0  0  0  0  0
    0.4610    1.3987    1.5702 H   0  0  0  0  0  0  0  0  0  0  0  0
    2.7632    0.7809    1.0835 H   0  0  0  0  0  0  0  0  0  0  0  0
    2.2141   -0.1303   -0.4277 H   0  0  0  0  0  0  0  0  0  0  0  0
   -0.4389   -2.0555   -1.0072 C   0  0  0  0  0  3  0  0  0  0  0  0
   -0.4389   -0.8235   -0.5717 H   0  0  0  0  0  0  0  0  0  0  0  0
    0.4502   -2.5688   -0.6442 H   0  0  0  0  0  0  0  0  0  0  0  0
   -1.3280   -2.5688   -0.6442 H   0  0  0  0  0  0  0  0  0  0  0  0
   -0.4389   -2.0555   -2.0962 H   0  0  0  0  0  0  0  0  0  0  0  0
  1  2  2  3
  1  5  1  0
  1  6  1  0
  2  3  1  0
  2 11  1  0
  3  4  2  3
  3  7  1  0
  4  8  1  0
  4  9  1  0
 10 12  1  0
 10 13  1  0
 10 14  1  0
M  RAD  1  10   2
M  END
>  <reaction>  (11) 
rxn_844

>  <mol_properties>  (11) 
{"1": {"label": "*3", "atom_type": "Cd"}, "2": {"label": "*4", "atom_type": "Cd"}, "9": {"label": "*1", "atom_type": "Cs"}, "10": {"label": "*2", "atom_type": "H0"}, "11": {"label": "*0", "atom_type": "H0"}}

>  <type>  (11) 
unop_7

>  <geom_source>  (11) 
Heuristics

$$$$

     RDKit          3D

 14 12  0  0  0  0  0  0  0  0999 V2000
    1.5501    0.4770    0.9185 C   0  0  0  0  0  0  0  0  0  0  0  0
    0.5122    0.3206    0.1035 C   0  0  0  0  0  0  0  0  0  0  0  0
   -0.7930    0.9308    0.3193 C   0  0  0  0  0  0  0  0  0  0  0  0
   -1.8310    0.7744   -0.4956 C   0  0  0  0  0  0  0  0  0  0  0  0
    2.5033    0.0047    0.7200 H   0  0  0  0  0  0  0  0  0  0  0  0
    1.4773    1.0853    1.8133 H   0  0  0  0  0  0  0  0  0  0  0  0
   -0.8969    1.5467    1.2085 H   0  0  0  0  0  0  0  0  0  0  0  0
   -2.7841    1.2466   -0.2972 H   0  0  0  0  0  0  0  0  0  0  0  0
   -1.7581    0.1660   -1.3904 H   0  0  0  0  0  0  0  0  0  0  0  0
    0.5122   -2.1409   -0.7667 C   0  0  0  0  0  3  0  0  0  0  0  0
    0.5122   -0.9089   -0.3311 H   0  0  0  0  0  0  0  0  0  0  0  0
    1.4013   -2.6542   -0.4037 H   0  0  0  0  0  0  0  0  0  0  0  0
   -0.3770   -2.6542   -0.4037 H   0  0  0  0  0  0  0  0  0  0  0  0
    0.5122   -2.1409   -1.8556 H   0  0  0  0  0  0  0  0  0  0  0  0
  1  2  2  3
  1  5  1  0
  1  6  1  0
  2  3  1  0
  2 11  1  0
  3  4  2  3
  3  7  1  0
  4  8  1  0
  4  9  1  0
 10 12  1  0
 10 13  1  0
 10 14  1  0
M  RAD  1  10   2
M  END
>  <reaction>  (12) 
rxn_844

>  <mol_properties>  (12) 
{"1": {"label": "*3", "atom_type": "Cd"}, "2": {"label": "*4", "atom_type": "Cd"}, "9": {"label": "*1", "atom_type": "Cs"}, "10": {"label": "*2", "atom_type": "H0"}, "11": {"label": "*0", "atom_type": "H0"}}

>  <type>  (12) 
unop_8

>  <geom_source>  (12) 
Heuristics

$$$$

     RDKit          3D

 14 12  0  0  0  0  0  0  0  0999 V2000
   -0.5329    0.3593    1.8129 C   0  0  0  0  0  0  0  0  0  0  0  0
   -0.2592    0.1684    0.5266 C   0  0  0  0  0  0  0  0  0  0  0  0
    0.3933    1.1554   -0.3233 C   0  0  0  0  0  0  0  0  0  0  0  0
    0.6670    0.9645   -1.6096 C   0  0  0  0  0  0  0  0  0  0  0  0
   -1.0197   -0.4020    2.4082 H   0  0  0  0  0  0  0  0  0  0  0  0
   -0.2770    1.2876    2.3116 H   0  0  0  0  0  0  0  0  0  0  0  0
    0.6621    2.0966    0.1485 H   0  0  0  0  0  0  0  0  0  0  0  0
    1.1538    1.7258   -2.2050 H   0  0  0  0  0  0  0  0  0  0  0  0
    0.4111    0.0362   -2.1084 H   0  0  0  0  0  0  0  0  0  0  0  0
   -0.2592   -2.2930   -0.3437 C   0  0  0  0  0  3  0  0  0  0  0  0
   -0.2592   -1.0610    0.0919 H   0  0  0  0  0  0  0  0  0  0  0  0
    0.6299   -2.8063    0.0193 H   0  0  0  0  0  0  0  0  0  0  0  0
   -1.1483   -2.8063    0.0193 H   0  0  0  0  0  0  0  0  0  0  0  0
   -0.2592   -2.2930   -1.4326 H   0  0  0  0  0  0  0  0  0  0  0  0
  1  2  2  3
  1  5  1  0
  1  6  1  0
  2  3  1  0
  2 11  1  0
  3  4  2  3
  3  7  1  0
  4  8  1  0
  4  9  1  0
 10 12  1  0
 10 13  1  0
 10 14  1  0
M  RAD  1  10   2
M  END
>  <reaction>  (13) 
rxn_844

>  <mol_properties>  (13) 
{"1": {"label": "*3", "atom_type": "Cd"}, "2": {"label": "*4", "atom_type": "Cd"}, "9": {"label": "*1", "atom_type": "Cs"}, "10": {"label": "*2", "atom_type": "H0"}, "11": {"label": "*0", "atom_type": "H0"}}

>  <type>  (13) 
unop_9

>  <geom_source>  (13) 
Heuristics

$$$$

     RDKit          3D

 14 12  0  0  0  0  0  0  0  0999 V2000
    1.0923    0.3630    1.5012 C   0  0  0  0  0  0  0  0  0  0  0  0
    0.4468    0.2333    0.3469 C   0  0  0  0  0  0  0  0  0  0  0  0
   -0.6835    1.0611   -0.0526 C   0  0  0  0  0  0  0  0  0  0  0  0
   -1.3290    0.9314   -1.2069 C   0  0  0  0  0  0  0  0  0  0  0  0
    1.9283   -0.2742    1.7583 H   0  0  0  0  0  0  0  0  0  0  0  0
    0.8025    1.1144    2.2275 H   0  0  0  0  0  0  0  0  0  0  0  0
   -0.9975    1.8236    0.6551 H   0  0  0  0  0  0  0  0  0  0  0  0
   -2.1650    1.5686   -1.4640 H   0  0  0  0  0  0  0  0  0  0  0  0
   -1.0392    0.1800   -1.9332 H   0  0  0  0  0  0  0  0  0  0  0  0
    0.4468   -2.2281   -0.5233 C   0  0  0  0  0  3  0  0  0  0  0  0
    0.4468   -0.9961   -0.0878 H   0  0  0  0  0  0  0  0  0  0  0  0
    1.3359   -2.7414   -0.1604 H   0  0  0  0  0  0  0  0  0  0  0  0
   -0.4423   -2.7414   -0.1604 H   0  0  0  0  0  0  0  0  0  0  0  0
    0.4468   -2.2281   -1.6123 H   0  0  0  0  0  0  0  0  0  0  0  0
  1  2  2  3
  1  5  1  0
  1  6  1  0
  2  3  1  0
  2 11  1  0
  3  4  2  3
  3  7  1  0
  4  8  1  0
  4  9  1  0
 10 12  1  0
 10 13  1  0
 10 14  1  0
M  RAD  1  10   2
M  END
>  <reaction>  (14) 
rxn_844

>  <mol_properties>  (14) 
{"1": {"label": "*3", "atom_type": "Cd"}, "2": {"label": "*4", "atom_type": "Cd"}, "9": {"label": "*1", "atom_type": "Cs"}, "10": {"label": "*2", "atom_type": "H0"}, "11": {"label": "*0", "atom_type": "H0"}}

>  <type>  (14) 
unop_10

>  <geom_source>  (14) 
Heuristics

$$$$

     RDKit          3D

 14 12  0  0  0  0  0  0  0  0999 V2000
   -1.3016    1.1507   -0.7438 C   0  0  0  0  0  0  0  0  0  0  0  0
   -0.2492    0.4654   -0.3095 C   0  0  0  0  0  0  0  0  0  0  0  0
    0.4034    0.6989    0.9720 C   0  0  0  0  0  0  0  0  0  0  0  0
    1.4558    0.0137    1.4063 C   0  0  0  0  0  0  0  0  0  0  0  0
   -1.7561    0.9441   -1.7039 H   0  0  0  0  0  0  0  0  0  0  0  0
   -1.7426    1.9431   -0.1491 H   0  0  0  0  0  0  0  0  0  0  0  0
   -0.0162    1.4874    1.5909 H   0  0  0  0  0  0  0  0  0  0  0  0
    1.9103    0.2203    2.3664 H   0  0  0  0  0  0  0  0  0  0  0  0
    1.8968   -0.7788    0.8116 H   0  0  0  0  0  0  0  0  0  0  0  0
   -0.2492   -1.9960   -1.1797 C   0  0  0  0  0  3  0  0  0  0  0  0
   -0.2492   -0.7640   -0.7441 H   0  0  0  0  0  0  0  0  0  0  0  0
    0.6399   -2.5093   -0.8167 H   0  0  0  0  0  0  0  0  0  0  0  0
   -1.1383   -2.5093   -0.8167 H   0  0  0  0  0  0  0  0  0  0  0  0
   -0.2492   -1.9960   -2.2686 H   0  0  0  0  0  0  0  0  0  0  0  0
  1  2  2  3
  1  5  1  0
  1  6  1  0
  2  3  1  0
  2 11  1  0
  3  4  2  3
  3  7  1  0
  4  8  1  0
  4  9  1  0
 10 12  1  0
 10 13  1  0
 10 14  1  0
M  RAD  1  10   2
M  END
>  <reaction>  (15) 
rxn_844

>  <mol_properties>  (15) 
{"1": {"label": "*3", "atom_type": "Cd"}, "2": {"label": "*4", "atom_type": "Cd"}, "9": {"label": "*1", "atom_type": "Cs"}, "10": {"label": "*2", "atom_type": "H0"}, "11": {"label": "*0", "atom_type": "H0"}}

>  <type>  (15) 
unop_11

>  <geom_source>  (15) 
Heuristics

$$$$

     RDKit          3D

 14 12  0  0  0  0  0  0  0  0999 V2000
    0.0000    0.3779    1.9009 C   0  0  0  0  0  0  0  0  0  0  0  0
    0.0000    0.1444    0.5927 C   0  0  0  0  0  0  0  0  0  0  0  0
    0.0000    1.1897   -0.4221 C   0  0  0  0  0  0  0  0  0  0  0  0
    0.0000    0.9562   -1.7303 C   0  0  0  0  0  0  0  0  0  0  0  0
   -0.0000   -0.4296    2.6212 H   0  0  0  0  0  0  0  0  0  0  0  0
   -0.0000    1.3891    2.2927 H   0  0  0  0  0  0  0  0  0  0  0  0
    0.0000    2.2142   -0.0599 H   0  0  0  0  0  0  0  0  0  0  0  0
   -0.0000    1.7637   -2.4506 H   0  0  0  0  0  0  0  0  0  0  0  0
    0.0000   -0.0550   -2.1222 H   0  0  0  0  0  0  0  0  0  0  0  0
    0.0000   -2.3170   -0.2776 C   0  0  0  0  0  3  0  0  0  0  0  0
    0.0000   -1.0850    0.1580 H   0  0  0  0  0  0  0  0  0  0  0  0
    0.8891   -2.8304    0.0854 H   0  0  0  0  0  0  0  0  0  0  0  0
   -0.8891   -2.8304    0.0854 H   0  0  0  0  0  0  0  0  0  0  0  0
    0.0000   -2.3170   -1.3665 H   0  0  0  0  0  0  0  0  0  0  0  0
  1  2  2  3
  1  5  1  0
  1  6  1  0
  2  3  1  0
  2 11  1  0
  3  4  2  3
  3  7  1  0
  4  8  1  0
  4  9  1  0
 10 12  1  0
 10 13  1  0
 10 14  1  0
M  RAD  1  10   2
M  END
>  <reaction>  (16) 
rxn_844

>  <mol_properties>  (16) 
{"1": {"label": "*3", "atom_type": "Cd"}, "2": {"label": "*4", "atom_type": "Cd"}, "9": {"label": "*1", "atom_type": "Cs"}, "10": {"label": "*2", "atom_type": "H0"}, "11": {"label": "*0", "atom_type": "H0"}}

>  <type>  (16) 
unop_12

>  <geom_source>  (16) 
Heuristics

$$$$

     RDKit          3D

 14 12  0  0  0  0  0  0  0  0999 V2000
   -1.1403   -0.7286    0.3918 C   0  0  0  0  0  0  0  0  0  0  0  0
   -0.1311    0.3047    0.0720 C   0  0  0  0  0  0  0  0  0  0  0  0
   -2.4193   -0.6918    0.0134 C   0  0  0  0  0  0  0  0  0  0  0  0
   -0.3648    1.4099   -0.6366 C   0  0  0  0  0  0  0  0  0  0  0  0
    2.4044   -0.1824    0.2689 C   0  0  0  0  0  3  0  0  0  0  0  0
   -0.8076   -1.5758    0.9778 H   0  0  0  0  0  0  0  0  0  0  0  0
    1.0872    0.1127    0.5238 H   0  0  0  0  0  0  0  0  0  0  0  0
   -2.8327    0.1156   -0.5720 H   0  0  0  0  0  0  0  0  0  0  0  0
   -3.0826   -1.4984    0.2978 H   0  0  0  0  0  0  0  0  0  0  0  0
    0.4450    2.1045   -0.8149 H   0  0  0  0  0  0  0  0  0  0  0  0
   -1.3347    1.6488   -1.0464 H   0  0  0  0  0  0  0  0  0  0  0  0
    2.2238   -0.9584   -0.5030 H   0  0  0  0  0  0  0  0  0  0  0  0
    2.8632   -0.6508    1.1639 H   0  0  0  0  0  0  0  0  0  0  0  0
    3.0897    0.5901   -0.1365 H   0  0  0  0  0  0  0  0  0  0  0  0
  1  3  2  3
  1  2  1  0
  1  6  1  0
  2  4  2  3
  2  7  1  0
  3  8  1  0
  3  9  1  0
  4 10  1  0
  4 11  1  0
  5 12  1  0
  5 13  1  0
  5 14  1  0
M  RAD  1   5   2
M  END
>  <reaction>  (17) 
rxn_844

>  <mol_properties>  (17) 
{"1": {"label": "*3", "atom_type": "Cd"}, "2": {"label": "*4", "atom_type": "Cd"}, "9": {"label": "*1", "atom_type": "Cs"}, "10": {"label": "*2", "atom_type": "H0"}, "11": {"label": "*0", "atom_type": "H0"}}

>  <type>  (17) 
unop_13

>  <geom_source>  (17) 
AutoTST

$$$$
