
     RDKit          3D

 18 18  0  0  0  0  0  0  0  0999 V2000
   -2.4852    0.3210   -0.3966 C   0  0  0  0  0  0  0  0  0  0  0  0
   -1.5917   -0.2708    0.6941 C   0  0  0  0  0  0  0  0  0  0  0  0
   -0.1292   -0.1692    0.3493 C   0  0  0  0  0  0  0  0  0  0  0  0
    0.6099    0.9558    0.7015 C   0  0  0  0  0  0  0  0  0  0  0  0
    1.9447    1.0728    0.3458 C   0  0  0  0  0  0  0  0  0  0  0  0
    2.5646    0.0613   -0.3720 C   0  0  0  0  0  0  0  0  0  0  0  0
    1.8399   -1.0657   -0.7287 C   0  0  0  0  0  0  0  0  0  0  0  0
    0.5055   -1.1769   -0.3700 C   0  0  0  0  0  0  0  0  0  0  0  0
   -2.3325   -0.1971   -1.3452 H   0  0  0  0  0  0  0  0  0  0  0  0
   -2.2554    1.3763   -0.5546 H   0  0  0  0  0  0  0  0  0  0  0  0
   -3.5397    0.2376   -0.1280 H   0  0  0  0  0  0  0  0  0  0  0  0
   -1.7801    0.2462    1.6380 H   0  0  0  0  0  0  0  0  0  0  0  0
   -1.8568   -1.3190    0.8516 H   0  0  0  0  0  0  0  0  0  0  0  0
    0.1327    1.7497    1.2656 H   0  0  0  0  0  0  0  0  0  0  0  0
    2.5033    1.9550    0.6330 H   0  0  0  0  0  0  0  0  0  0  0  0
    3.6077    0.1491   -0.6484 H   0  0  0  0  0  0  0  0  0  0  0  0
    2.3163   -1.8632   -1.2854 H   0  0  0  0  0  0  0  0  0  0  0  0
   -0.0540   -2.0629   -0.6500 H   0  0  0  0  0  0  0  0  0  0  0  0
  1  2  1  0
  1  9  1  0
  1 10  1  0
  1 11  1  0
  2  3  1  0
  2 12  1  0
  2 13  1  0
  3  4  2  0
  3  8  1  0
  4  5  1  0
  4 14  1  0
  5  6  2  0
  5 15  1  0
  6  7  1  0
  6 16  1  0
  7  8  2  0
  7 17  1  0
  8 18  1  0
M  END
>  <reaction>  (1) 
rxn_1504

>  <mol_properties>  (1) 
{"1": {"label": "donator", "atom_type": "Cs"}, "11": {"label": "d_hydrogen", "atom_type": "H0"}}

>  <type>  (1) 
r1h

$$$$

     RDKit          3D

 12 11  0  0  0  0  0  0  0  0999 V2000
    2.7049    0.9350   -0.4404 S   0  0  0  0  0  1  0  0  0  0  0  0
    1.0313    1.0813   -0.4080 C   0  0  0  0  0  0  0  0  0  0  0  0
    0.1364    0.1019   -0.0473 C   0  0  0  0  0  0  0  0  0  0  0  0
    0.5360   -1.2679    0.3784 C   0  0  0  0  0  0  0  0  0  0  0  0
   -1.3304    0.3842   -0.0689 C   0  0  0  0  0  0  0  0  0  0  0  0
    0.6069    2.0398   -0.6990 H   0  0  0  0  0  0  0  0  0  0  0  0
    0.1578   -1.4699    1.3849 H   0  0  0  0  0  0  0  0  0  0  0  0
    0.0783   -2.0109   -0.2814 H   0  0  0  0  0  0  0  0  0  0  0  0
    1.6154   -1.3973    0.3689 H   0  0  0  0  0  0  0  0  0  0  0  0
   -1.8406   -0.3126   -0.7406 H   0  0  0  0  0  0  0  0  0  0  0  0
   -1.5514    1.4016   -0.3887 H   0  0  0  0  0  0  0  0  0  0  0  0
   -1.7610    0.2281    0.9247 H   0  0  0  0  0  0  0  0  0  0  0  0
  1  2  1  0
  2  3  2  3
  2  6  1  0
  3  4  1  0
  3  5  1  0
  4  7  1  0
  4  8  1  0
  4  9  1  0
  5 10  1  0
  5 11  1  0
  5 12  1  0
M  RAD  1   1   2
M  END
>  <reaction>  (2) 
rxn_1504

>  <mol_properties>  (2) 
{"2": {"label": "acceptor", "atom_type": "Cs"}}

>  <type>  (2) 
r2

$$$$

     RDKit          3D

 13 12  0  0  0  0  0  0  0  0999 V2000
    2.7452   -1.1134   -0.3601 S   0  0  0  0  0  0  0  0  0  0  0  0
    1.4120   -0.4899    0.2856 C   0  0  0  0  0  0  0  0  0  0  0  0
    0.1714   -0.0257   -0.4180 C   0  0  0  0  0  0  0  0  0  0  0  0
   -0.0717    1.4493   -0.0658 C   0  0  0  0  0  0  0  0  0  0  0  0
    0.1609   -0.2576   -1.9191 C   0  0  0  0  0  0  0  0  0  0  0  0
    1.3665   -0.3550    1.3690 H   0  0  0  0  0  0  0  0  0  0  0  0
   -0.6453   -0.6023    0.0382 H   0  0  0  0  0  0  0  0  0  0  0  0
    0.7161    2.0755   -0.4895 H   0  0  0  0  0  0  0  0  0  0  0  0
   -0.0915    1.6095    1.0136 H   0  0  0  0  0  0  0  0  0  0  0  0
   -1.0268    1.7797   -0.4755 H   0  0  0  0  0  0  0  0  0  0  0  0
    0.3131   -1.3093   -2.1616 H   0  0  0  0  0  0  0  0  0  0  0  0
    0.9567    0.3095   -2.4051 H   0  0  0  0  0  0  0  0  0  0  0  0
   -0.7945    0.0619   -2.3384 H   0  0  0  0  0  0  0  0  0  0  0  0
  1  2  2  0
  2  3  1  0
  2  6  1  0
  3  4  1  0
  3  5  1  0
  3  7  1  0
  4  8  1  0
  4  9  1  0
  4 10  1  0
  5 11  1  0
  5 12  1  0
  5 13  1  0
M  END
>  <reaction>  (3) 
rxn_1504

>  <mol_properties>  (3) 
{"2": {"label": "acceptor", "atom_type": "Cs"}, "12": {"label": "a_hydrogen", "atom_type": "H0"}}

>  <type>  (3) 
r2h

$$$$

     RDKit          3D

 30 29  0  0  0  0  0  0  0  0999 V2000
   -2.6142   -0.9258   -1.2414 S   0  0  0  0  0  0  0  0  0  0  0  0
   -1.7561   -0.5615    0.1004 C   0  0  0  0  0  0  0  0  0  0  0  0
   -0.6679   -1.3170    0.6850 C   0  0  0  0  0  0  0  0  0  0  0  0
   -0.4258   -1.0529    2.1598 C   0  0  0  0  0  0  0  0  0  0  0  0
   -0.4838   -2.7550    0.2598 C   0  0  0  0  0  0  0  0  0  0  0  0
   -1.9678    0.3812    0.6070 H   0  0  0  0  0  0  0  0  0  0  0  0
   -1.1707   -1.5684    2.7716 H   0  0  0  0  0  0  0  0  0  0  0  0
    0.5592   -1.4165    2.4592 H   0  0  0  0  0  0  0  0  0  0  0  0
   -0.4778    0.0139    2.3843 H   0  0  0  0  0  0  0  0  0  0  0  0
    0.4940   -3.1229    0.5770 H   0  0  0  0  0  0  0  0  0  0  0  0
   -0.5740   -2.8631   -0.8200 H   0  0  0  0  0  0  0  0  0  0  0  0
   -1.2488   -3.3870    0.7188 H   0  0  0  0  0  0  0  0  0  0  0  0
    1.3766   -0.5974   -1.8335 C   0  0  0  0  0  0  0  0  0  0  0  0
    1.4581   -0.0635   -0.4328 C   0  0  0  0  0  0  0  0  0  0  0  0
    1.1133    1.3155   -0.1248 C   0  0  0  0  0  0  0  0  0  0  0  0
    0.2477    2.0595   -0.9354 C   0  0  0  0  0  3  0  0  0  0  0  0
   -0.1339    3.3407   -0.5742 C   0  0  0  0  0  0  0  0  0  0  0  0
    0.3342    3.9077    0.6016 C   0  0  0  0  0  0  0  0  0  0  0  0
    1.1915    3.1814    1.4197 C   0  0  0  0  0  0  0  0  0  0  0  0
    1.5717    1.9024    1.0631 C   0  0  0  0  0  0  0  0  0  0  0  0
    2.0344   -0.0363   -2.5046 H   0  0  0  0  0  0  0  0  0  0  0  0
    0.3624   -0.5318   -2.2334 H   0  0  0  0  0  0  0  0  0  0  0  0
    1.6748   -1.6447   -1.8639 H   0  0  0  0  0  0  0  0  0  0  0  0
    0.3261   -0.7212    0.1598 H   0  0  0  0  0  0  0  0  0  0  0  0
    2.2614   -0.4715    0.1767 H   0  0  0  0  0  0  0  0  0  0  0  0
   -0.1366    1.6298   -1.8511 H   0  0  0  0  0  0  0  0  0  0  0  0
   -0.8055    3.8983   -1.2146 H   0  0  0  0  0  0  0  0  0  0  0  0
    0.0340    4.9095    0.8806 H   0  0  0  0  0  0  0  0  0  0  0  0
    1.5630    3.6173    2.3386 H   0  0  0  0  0  0  0  0  0  0  0  0
    2.2369    1.3378    1.7068 H   0  0  0  0  0  0  0  0  0  0  0  0
  1  2  2  0
  2  3  1  0
  2  6  1  0
  3  4  1  0
  3  5  1  0
  3 24  1  0
  4  7  1  0
  4  8  1  0
  4  9  1  0
  5 10  1  0
  5 11  1  0
  5 12  1  0
 13 14  1  0
 13 21  1  0
 13 22  1  0
 13 23  1  0
 14 15  2  3
 14 25  1  0
 15 16  1  0
 15 20  1  0
 16 17  1  0
 16 26  1  0
 17 18  2  0
 17 27  1  0
 18 19  1  0
 18 28  1  0
 19 20  2  0
 19 29  1  0
 20 30  1  0
M  RAD  1  16   2
M  END
>  <reaction>  (4) 
rxn_1504

>  <mol_properties>  (4) 
{"1": {"label": "*0", "atom_type": "CS"}, "2": {"label": "*1", "atom_type": "Cs"}, "13": {"label": "*3", "atom_type": "Cd"}, "14": {"label": "*4", "atom_type": "Cd"}, "23": {"label": "*2", "atom_type": "H0"}}

>  <type>  (4) 
ts

$$$$

     RDKit          3D

 30 29  0  0  0  0  0  0  0  0999 V2000
   -0.2678   -2.7398    2.0839 S   0  0  0  0  0  1  0  0  0  0  0  0
   -0.6836   -2.7415    0.5314 C   0  0  0  0  0  0  0  0  0  0  0  0
   -1.2381   -1.6089   -0.2804 C   0  0  0  0  0  0  0  0  0  0  0  0
   -2.5917   -2.0386   -0.8651 C   0  0  0  0  0  0  0  0  0  0  0  0
   -1.3346   -0.2818    0.4524 C   0  0  0  0  0  0  0  0  0  0  0  0
   -0.5801   -3.6676   -0.0392 H   0  0  0  0  0  0  0  0  0  0  0  0
   -3.3256   -2.1690   -0.0672 H   0  0  0  0  0  0  0  0  0  0  0  0
   -2.9639   -1.2748   -1.5487 H   0  0  0  0  0  0  0  0  0  0  0  0
   -2.5149   -2.9782   -1.4150 H   0  0  0  0  0  0  0  0  0  0  0  0
   -1.6982    0.4921   -0.2254 H   0  0  0  0  0  0  0  0  0  0  0  0
   -0.3667    0.0276    0.8467 H   0  0  0  0  0  0  0  0  0  0  0  0
   -2.0245   -0.3530    1.2950 H   0  0  0  0  0  0  0  0  0  0  0  0
    0.8719   -0.3051   -2.6836 C   0  0  0  0  0  0  0  0  0  0  0  0
    0.8719   -0.3051   -1.1545 C   0  0  0  0  0  0  0  0  0  0  0  0
    0.8719    1.0892   -0.5851 C   0  0  0  0  0  0  0  0  0  0  0  0
   -0.3226    1.7582   -0.3373 C   0  0  0  0  0  0  0  0  0  0  0  0
   -0.3259    3.0584    0.1436 C   0  0  0  0  0  0  0  0  0  0  0  0
    0.8719    3.7137    0.3854 C   0  0  0  0  0  0  0  0  0  0  0  0
    2.0697    3.0584    0.1436 C   0  0  0  0  0  0  0  0  0  0  0  0
    2.0665    1.7582   -0.3373 C   0  0  0  0  0  0  0  0  0  0  0  0
    1.7532    0.2100   -3.0704 H   0  0  0  0  0  0  0  0  0  0  0  0
   -0.0093    0.2100   -3.0704 H   0  0  0  0  0  0  0  0  0  0  0  0
    0.8719   -1.3235   -3.0759 H   0  0  0  0  0  0  0  0  0  0  0  0
   -0.1800   -0.9551   -0.7187 H   0  0  0  0  0  0  0  0  0  0  0  0
    1.7486   -0.8467   -0.7914 H   0  0  0  0  0  0  0  0  0  0  0  0
   -1.2635    1.2510   -0.5211 H   0  0  0  0  0  0  0  0  0  0  0  0
   -1.2666    3.5601    0.3335 H   0  0  0  0  0  0  0  0  0  0  0  0
    0.8719    4.7281    0.7637 H   0  0  0  0  0  0  0  0  0  0  0  0
    3.0105    3.5601    0.3335 H   0  0  0  0  0  0  0  0  0  0  0  0
    3.0074    1.2510   -0.5211 H   0  0  0  0  0  0  0  0  0  0  0  0
  1  2  1  0
  2  3  2  3
  2  6  1  0
  3  4  1  0
  3  5  1  0
  4  7  1  0
  4  8  1  0
  4  9  1  0
  5 10  1  0
  5 11  1  0
  5 12  1  0
 13 14  1  0
 13 21  1  0
 13 22  1  0
 13 23  1  0
 14 15  1  0
 14 24  1  0
 14 25  1  0
 15 16  2  0
 15 20  1  0
 16 17  1  0
 16 26  1  0
 17 18  2  0
 17 27  1  0
 18 19  1  0
 18 28  1  0
 19 20  2  0
 19 29  1  0
 20 30  1  0
M  RAD  1   1   2
M  END
>  <reaction>  (5) 
rxn_1504

>  <mol_properties>  (5) 
{"1": {"label": "*0", "atom_type": "CS"}, "2": {"label": "*1", "atom_type": "Cs"}, "13": {"label": "*3", "atom_type": "Cd"}, "14": {"label": "*4", "atom_type": "Cd"}, "23": {"label": "*2", "atom_type": "H0"}}

>  <type>  (5) 
unop_1

>  <geom_source>  (5) 
Heuristics

$$$$

     RDKit          3D

 30 29  0  0  0  0  0  0  0  0999 V2000
   -1.0893   -3.9282   -0.7167 S   0  0  0  0  0  1  0  0  0  0  0  0
   -1.3718   -2.3469   -0.7691 C   0  0  0  0  0  0  0  0  0  0  0  0
   -1.0877   -1.3196    0.2861 C   0  0  0  0  0  0  0  0  0  0  0  0
   -2.4011   -0.6117    0.6503 C   0  0  0  0  0  0  0  0  0  0  0  0
   -0.3692   -1.8462    1.5166 C   0  0  0  0  0  0  0  0  0  0  0  0
   -1.8429   -1.9266   -1.6609 H   0  0  0  0  0  0  0  0  0  0  0  0
   -3.0833   -1.3075    1.1431 H   0  0  0  0  0  0  0  0  0  0  0  0
   -2.2042    0.2143    1.3346 H   0  0  0  0  0  0  0  0  0  0  0  0
   -2.9022   -0.2097   -0.2320 H   0  0  0  0  0  0  0  0  0  0  0  0
   -0.1595   -1.0257    2.2047 H   0  0  0  0  0  0  0  0  0  0  0  0
    0.5718   -2.3288    1.2533 H   0  0  0  0  0  0  0  0  0  0  0  0
   -0.9817   -2.5840    2.0377 H   0  0  0  0  0  0  0  0  0  0  0  0
    1.0223   -0.0158   -2.1170 C   0  0  0  0  0  0  0  0  0  0  0  0
    1.0223   -0.0158   -0.5879 C   0  0  0  0  0  0  0  0  0  0  0  0
    1.0223    1.3784   -0.0185 C   0  0  0  0  0  0  0  0  0  0  0  0
   -0.1722    2.0474    0.2292 C   0  0  0  0  0  0  0  0  0  0  0  0
   -0.1755    3.3476    0.7102 C   0  0  0  0  0  0  0  0  0  0  0  0
    1.0223    4.0030    0.9520 C   0  0  0  0  0  0  0  0  0  0  0  0
    2.2201    3.3476    0.7102 C   0  0  0  0  0  0  0  0  0  0  0  0
    2.2169    2.0474    0.2292 C   0  0  0  0  0  0  0  0  0  0  0  0
    1.9036    0.4992   -2.5039 H   0  0  0  0  0  0  0  0  0  0  0  0
    0.1411    0.4992   -2.5039 H   0  0  0  0  0  0  0  0  0  0  0  0
    1.0223   -1.0343   -2.5093 H   0  0  0  0  0  0  0  0  0  0  0  0
   -0.0296   -0.6659   -0.1522 H   0  0  0  0  0  0  0  0  0  0  0  0
    1.8990   -0.5575   -0.2248 H   0  0  0  0  0  0  0  0  0  0  0  0
   -1.1131    1.5402    0.0455 H   0  0  0  0  0  0  0  0  0  0  0  0
   -1.1163    3.8493    0.9001 H   0  0  0  0  0  0  0  0  0  0  0  0
    1.0223    5.0173    1.3303 H   0  0  0  0  0  0  0  0  0  0  0  0
    3.1609    3.8493    0.9001 H   0  0  0  0  0  0  0  0  0  0  0  0
    3.1578    1.5402    0.0455 H   0  0  0  0  0  0  0  0  0  0  0  0
  1  2  1  0
  2  3  2  3
  2  6  1  0
  3  4  1  0
  3  5  1  0
  4  7  1  0
  4  8  1  0
  4  9  1  0
  5 10  1  0
  5 11  1  0
  5 12  1  0
 13 14  1  0
 13 21  1  0
 13 22  1  0
 13 23  1  0
 14 15  1  0
 14 24  1  0
 14 25  1  0
 15 16  2  0
 15 20  1  0
 16 17  1  0
 16 26  1  0
 17 18  2  0
 17 27  1  0
 18 19  1  0
 18 28  1  0
 19 20  2  0
 19 29  1  0
 20 30  1  0
M  RAD  1   1   2
M  END
>  <reaction>  (6) 
rxn_1504

>  <mol_properties>  (6) 
{"1": {"label": "*0", "atom_type": "CS"}, "2": {"label": "*1", "atom_type": "Cs"}, "13": {"label": "*3", "atom_type": "Cd"}, "14": {"label": "*4", "atom_type": "Cd"}, "23": {"label": "*2", "atom_type": "H0"}}

>  <type>  (6) 
unop_2

>  <geom_source>  (6) 
Heuristics

$$$$

     RDKit          3D

 30 29  0  0  0  0  0  0  0  0999 V2000
   -0.9359   -1.8015    2.4692 S   0  0  0  0  0  1  0  0  0  0  0  0
   -0.6623   -2.3696    0.9908 C   0  0  0  0  0  0  0  0  0  0  0  0
   -1.0879   -1.7808   -0.3213 C   0  0  0  0  0  0  0  0  0  0  0  0
   -1.9342   -2.8176   -1.0748 C   0  0  0  0  0  0  0  0  0  0  0  0
   -1.7931   -0.4389   -0.2233 C   0  0  0  0  0  0  0  0  0  0  0  0
   -0.1141   -3.3084    0.8818 H   0  0  0  0  0  0  0  0  0  0  0  0
   -2.8764   -2.9913   -0.5510 H   0  0  0  0  0  0  0  0  0  0  0  0
   -2.1638   -2.4561   -2.0778 H   0  0  0  0  0  0  0  0  0  0  0  0
   -1.4147   -3.7728   -1.1686 H   0  0  0  0  0  0  0  0  0  0  0  0
   -2.0199   -0.0638   -1.2226 H   0  0  0  0  0  0  0  0  0  0  0  0
   -1.1788    0.2979    0.2939 H   0  0  0  0  0  0  0  0  0  0  0  0
   -2.7293   -0.5319    0.3298 H   0  0  0  0  0  0  0  0  0  0  0  0
    1.0221   -0.4770   -2.7245 C   0  0  0  0  0  0  0  0  0  0  0  0
    1.0221   -0.4770   -1.1954 C   0  0  0  0  0  0  0  0  0  0  0  0
    1.0221    0.9173   -0.6260 C   0  0  0  0  0  0  0  0  0  0  0  0
   -0.1724    1.5862   -0.3782 C   0  0  0  0  0  0  0  0  0  0  0  0
   -0.1757    2.8864    0.1027 C   0  0  0  0  0  0  0  0  0  0  0  0
    1.0221    3.5418    0.3445 C   0  0  0  0  0  0  0  0  0  0  0  0
    2.2199    2.8864    0.1027 C   0  0  0  0  0  0  0  0  0  0  0  0
    2.2166    1.5862   -0.3782 C   0  0  0  0  0  0  0  0  0  0  0  0
    1.9034    0.0381   -3.1113 H   0  0  0  0  0  0  0  0  0  0  0  0
    0.1408    0.0381   -3.1113 H   0  0  0  0  0  0  0  0  0  0  0  0
    1.0221   -1.4954   -3.1168 H   0  0  0  0  0  0  0  0  0  0  0  0
   -0.0299   -1.1270   -0.7596 H   0  0  0  0  0  0  0  0  0  0  0  0
    1.8987   -1.0187   -0.8322 H   0  0  0  0  0  0  0  0  0  0  0  0
   -1.1133    1.0791   -0.5620 H   0  0  0  0  0  0  0  0  0  0  0  0
   -1.1165    3.3881    0.2926 H   0  0  0  0  0  0  0  0  0  0  0  0
    1.0221    4.5561    0.7229 H   0  0  0  0  0  0  0  0  0  0  0  0
    3.1607    3.3881    0.2926 H   0  0  0  0  0  0  0  0  0  0  0  0
    3.1575    1.0791   -0.5620 H   0  0  0  0  0  0  0  0  0  0  0  0
  1  2  1  0
  2  3  2  3
  2  6  1  0
  3  4  1  0
  3  5  1  0
  4  7  1  0
  4  8  1  0
  4  9  1  0
  5 10  1  0
  5 11  1  0
  5 12  1  0
 13 14  1  0
 13 21  1  0
 13 22  1  0
 13 23  1  0
 14 15  1  0
 14 24  1  0
 14 25  1  0
 15 16  2  0
 15 20  1  0
 16 17  1  0
 16 26  1  0
 17 18  2  0
 17 27  1  0
 18 19  1  0
 18 28  1  0
 19 20  2  0
 19 29  1  0
 20 30  1  0
M  RAD  1   1   2
M  END
>  <reaction>  (7) 
rxn_1504

>  <mol_properties>  (7) 
{"1": {"label": "*0", "atom_type": "CS"}, "2": {"label": "*1", "atom_type": "Cs"}, "13": {"label": "*3", "atom_type": "Cd"}, "14": {"label": "*4", "atom_type": "Cd"}, "23": {"label": "*2", "atom_type": "H0"}}

>  <type>  (7) 
unop_3

>  <geom_source>  (7) 
Heuristics

$$$$

     RDKit          3D

 30 29  0  0  0  0  0  0  0  0999 V2000
   -3.3165   -1.6306   -0.6156 S   0  0  0  0  0  1  0  0  0  0  0  0
   -1.8348   -1.0799   -0.3250 C   0  0  0  0  0  0  0  0  0  0  0  0
   -0.6602   -1.8293    0.2299 C   0  0  0  0  0  0  0  0  0  0  0  0
   -0.1811   -1.1196    1.5049 C   0  0  0  0  0  0  0  0  0  0  0  0
   -0.8974   -3.3115    0.4631 C   0  0  0  0  0  0  0  0  0  0  0  0
   -1.6157   -0.0289   -0.5284 H   0  0  0  0  0  0  0  0  0  0  0  0
   -0.9349   -1.2009    2.2906 H   0  0  0  0  0  0  0  0  0  0  0  0
    0.7390   -1.5800    1.8667 H   0  0  0  0  0  0  0  0  0  0  0  0
    0.0155   -0.0606    1.3289 H   0  0  0  0  0  0  0  0  0  0  0  0
    0.0202   -3.7840    0.8174 H   0  0  0  0  0  0  0  0  0  0  0  0
   -1.2169   -3.8130   -0.4502 H   0  0  0  0  0  0  0  0  0  0  0  0
   -1.6756   -3.4669    1.2122 H   0  0  0  0  0  0  0  0  0  0  0  0
    1.4499   -0.5255   -2.1732 C   0  0  0  0  0  0  0  0  0  0  0  0
    1.4499   -0.5255   -0.6441 C   0  0  0  0  0  0  0  0  0  0  0  0
    1.4499    0.8688   -0.0747 C   0  0  0  0  0  0  0  0  0  0  0  0
    0.2553    1.5377    0.1730 C   0  0  0  0  0  0  0  0  0  0  0  0
    0.2521    2.8379    0.6540 C   0  0  0  0  0  0  0  0  0  0  0  0
    1.4499    3.4933    0.8958 C   0  0  0  0  0  0  0  0  0  0  0  0
    2.6477    2.8379    0.6540 C   0  0  0  0  0  0  0  0  0  0  0  0
    2.6444    1.5377    0.1730 C   0  0  0  0  0  0  0  0  0  0  0  0
    2.3311   -0.0105   -2.5600 H   0  0  0  0  0  0  0  0  0  0  0  0
    0.5686   -0.0105   -2.5600 H   0  0  0  0  0  0  0  0  0  0  0  0
    1.4499   -1.5439   -2.5655 H   0  0  0  0  0  0  0  0  0  0  0  0
    0.3979   -1.1755   -0.2083 H   0  0  0  0  0  0  0  0  0  0  0  0
    2.3265   -1.0672   -0.2810 H   0  0  0  0  0  0  0  0  0  0  0  0
   -0.6856    1.0305   -0.0107 H   0  0  0  0  0  0  0  0  0  0  0  0
   -0.6887    3.3396    0.8439 H   0  0  0  0  0  0  0  0  0  0  0  0
    1.4499    4.5076    1.2741 H   0  0  0  0  0  0  0  0  0  0  0  0
    3.5884    3.3396    0.8439 H   0  0  0  0  0  0  0  0  0  0  0  0
    3.5853    1.0305   -0.0107 H   0  0  0  0  0  0  0  0  0  0  0  0
  1  2  1  0
  2  3  2  3
  2  6  1  0
  3  4  1  0
  3  5  1  0
  4  7  1  0
  4  8  1  0
  4  9  1  0
  5 10  1  0
  5 11  1  0
  5 12  1  0
 13 14  1  0
 13 21  1  0
 13 22  1  0
 13 23  1  0
 14 15  1  0
 14 24  1  0
 14 25  1  0
 15 16  2  0
 15 20  1  0
 16 17  1  0
 16 26  1  0
 17 18  2  0
 17 27  1  0
 18 19  1  0
 18 28  1  0
 19 20  2  0
 19 29  1  0
 20 30  1  0
M  RAD  1   1   2
M  END
>  <reaction>  (8) 
rxn_1504

>  <mol_properties>  (8) 
{"1": {"label": "*0", "atom_type": "CS"}, "2": {"label": "*1", "atom_type": "Cs"}, "13": {"label": "*3", "atom_type": "Cd"}, "14": {"label": "*4", "atom_type": "Cd"}, "23": {"label": "*2", "atom_type": "H0"}}

>  <type>  (8) 
unop_4

>  <geom_source>  (8) 
Heuristics

$$$$

     RDKit          3D

 30 29  0  0  0  0  0  0  0  0999 V2000
   -1.8993   -1.2114    2.2756 S   0  0  0  0  0  1  0  0  0  0  0  0
   -0.8186   -1.7810    1.2313 C   0  0  0  0  0  0  0  0  0  0  0  0
   -0.9182   -1.8426   -0.2640 C   0  0  0  0  0  0  0  0  0  0  0  0
   -0.7566   -3.3038   -0.7084 C   0  0  0  0  0  0  0  0  0  0  0  0
   -2.1680   -1.2084   -0.8499 C   0  0  0  0  0  0  0  0  0  0  0  0
    0.1142   -2.1998    1.6165 H   0  0  0  0  0  0  0  0  0  0  0  0
   -1.6052   -3.9003   -0.3675 H   0  0  0  0  0  0  0  0  0  0  0  0
   -0.7148   -3.3619   -1.7967 H   0  0  0  0  0  0  0  0  0  0  0  0
    0.1562   -3.7495   -0.3092 H   0  0  0  0  0  0  0  0  0  0  0  0
   -2.1324   -1.2535   -1.9396 H   0  0  0  0  0  0  0  0  0  0  0  0
   -2.2657   -0.1658   -0.5477 H   0  0  0  0  0  0  0  0  0  0  0  0
   -3.0638   -1.7329   -0.5131 H   0  0  0  0  0  0  0  0  0  0  0  0
    1.1918   -0.5388   -2.6671 C   0  0  0  0  0  0  0  0  0  0  0  0
    1.1918   -0.5388   -1.1380 C   0  0  0  0  0  0  0  0  0  0  0  0
    1.1918    0.8555   -0.5686 C   0  0  0  0  0  0  0  0  0  0  0  0
   -0.0027    1.5244   -0.3209 C   0  0  0  0  0  0  0  0  0  0  0  0
   -0.0060    2.8246    0.1601 C   0  0  0  0  0  0  0  0  0  0  0  0
    1.1918    3.4800    0.4019 C   0  0  0  0  0  0  0  0  0  0  0  0
    2.3896    2.8246    0.1601 C   0  0  0  0  0  0  0  0  0  0  0  0
    2.3863    1.5244   -0.3209 C   0  0  0  0  0  0  0  0  0  0  0  0
    2.0731   -0.0237   -3.0540 H   0  0  0  0  0  0  0  0  0  0  0  0
    0.3105   -0.0237   -3.0540 H   0  0  0  0  0  0  0  0  0  0  0  0
    1.1918   -1.5572   -3.0595 H   0  0  0  0  0  0  0  0  0  0  0  0
    0.1398   -1.1888   -0.7023 H   0  0  0  0  0  0  0  0  0  0  0  0
    2.0684   -1.0805   -0.7749 H   0  0  0  0  0  0  0  0  0  0  0  0
   -0.9436    1.0173   -0.5046 H   0  0  0  0  0  0  0  0  0  0  0  0
   -0.9468    3.3263    0.3500 H   0  0  0  0  0  0  0  0  0  0  0  0
    1.1918    4.4943    0.7802 H   0  0  0  0  0  0  0  0  0  0  0  0
    3.3304    3.3263    0.3500 H   0  0  0  0  0  0  0  0  0  0  0  0
    3.3272    1.0173   -0.5046 H   0  0  0  0  0  0  0  0  0  0  0  0
  1  2  1  0
  2  3  2  3
  2  6  1  0
  3  4  1  0
  3  5  1  0
  4  7  1  0
  4  8  1  0
  4  9  1  0
  5 10  1  0
  5 11  1  0
  5 12  1  0
 13 14  1  0
 13 21  1  0
 13 22  1  0
 13 23  1  0
 14 15  1  0
 14 24  1  0
 14 25  1  0
 15 16  2  0
 15 20  1  0
 16 17  1  0
 16 26  1  0
 17 18  2  0
 17 27  1  0
 18 19  1  0
 18 28  1  0
 19 20  2  0
 19 29  1  0
 20 30  1  0
M  RAD  1   1   2
M  END
>  <reaction>  (9) 
rxn_1504

>  <mol_properties>  (9) 
{"1": {"label": "*0", "atom_type": "CS"}, "2": {"label": "*1", "atom_type": "Cs"}, "13": {"label": "*3", "atom_type": "Cd"}, "14": {"label": "*4", "atom_type": "Cd"}, "23": {"label": "*2", "atom_type": "H0"}}

>  <type>  (9) 
unop_5

>  <geom_source>  (9) 
Heuristics

$$$$

     RDKit          3D

 30 29  0  0  0  0  0  0  0  0999 V2000
   -3.3472   -1.0880    0.2689 S   0  0  0  0  0  1  0  0  0  0  0  0
   -1.7578   -0.8699    0.1721 C   0  0  0  0  0  0  0  0  0  0  0  0
   -0.6860   -1.9110    0.0437 C   0  0  0  0  0  0  0  0  0  0  0  0
    0.2906   -1.7600    1.2194 C   0  0  0  0  0  0  0  0  0  0  0  0
   -1.1906   -3.3373   -0.0924 C   0  0  0  0  0  0  0  0  0  0  0  0
   -1.3636    0.1482    0.2170 H   0  0  0  0  0  0  0  0  0  0  0  0
   -0.2048   -2.0128    2.1591 H   0  0  0  0  0  0  0  0  0  0  0  0
    1.1392   -2.4326    1.0902 H   0  0  0  0  0  0  0  0  0  0  0  0
    0.6736   -0.7411    1.2989 H   0  0  0  0  0  0  0  0  0  0  0  0
   -0.3492   -4.0182   -0.2309 H   0  0  0  0  0  0  0  0  0  0  0  0
   -1.8666   -3.4422   -0.9409 H   0  0  0  0  0  0  0  0  0  0  0  0
   -1.7367   -3.6429    0.8017 H   0  0  0  0  0  0  0  0  0  0  0  0
    1.4240   -0.6073   -2.3595 C   0  0  0  0  0  0  0  0  0  0  0  0
    1.4240   -0.6073   -0.8304 C   0  0  0  0  0  0  0  0  0  0  0  0
    1.4240    0.7870   -0.2610 C   0  0  0  0  0  0  0  0  0  0  0  0
    0.2295    1.4560   -0.0132 C   0  0  0  0  0  0  0  0  0  0  0  0
    0.2262    2.7562    0.4677 C   0  0  0  0  0  0  0  0  0  0  0  0
    1.4240    3.4115    0.7095 C   0  0  0  0  0  0  0  0  0  0  0  0
    2.6218    2.7562    0.4677 C   0  0  0  0  0  0  0  0  0  0  0  0
    2.6186    1.4560   -0.0132 C   0  0  0  0  0  0  0  0  0  0  0  0
    2.3053   -0.0922   -2.7463 H   0  0  0  0  0  0  0  0  0  0  0  0
    0.5428   -0.0922   -2.7463 H   0  0  0  0  0  0  0  0  0  0  0  0
    1.4240   -1.6257   -2.7518 H   0  0  0  0  0  0  0  0  0  0  0  0
    0.3721   -1.2573   -0.3946 H   0  0  0  0  0  0  0  0  0  0  0  0
    2.3007   -1.1489   -0.4672 H   0  0  0  0  0  0  0  0  0  0  0  0
   -0.7114    0.9488   -0.1970 H   0  0  0  0  0  0  0  0  0  0  0  0
   -0.7146    3.2579    0.6576 H   0  0  0  0  0  0  0  0  0  0  0  0
    1.4240    4.4259    1.0879 H   0  0  0  0  0  0  0  0  0  0  0  0
    3.5626    3.2579    0.6576 H   0  0  0  0  0  0  0  0  0  0  0  0
    3.5595    0.9488   -0.1970 H   0  0  0  0  0  0  0  0  0  0  0  0
  1  2  1  0
  2  3  2  3
  2  6  1  0
  3  4  1  0
  3  5  1  0
  4  7  1  0
  4  8  1  0
  4  9  1  0
  5 10  1  0
  5 11  1  0
  5 12  1  0
 13 14  1  0
 13 21  1  0
 13 22  1  0
 13 23  1  0
 14 15  1  0
 14 24  1  0
 14 25  1  0
 15 16  2  0
 15 20  1  0
 16 17  1  0
 16 26  1  0
 17 18  2  0
 17 27  1  0
 18 19  1  0
 18 28  1  0
 19 20  2  0
 19 29  1  0
 20 30  1  0
M  RAD  1   1   2
M  END
>  <reaction>  (10) 
rxn_1504

>  <mol_properties>  (10) 
{"1": {"label": "*0", "atom_type": "CS"}, "2": {"label": "*1", "atom_type": "Cs"}, "13": {"label": "*3", "atom_type": "Cd"}, "14": {"label": "*4", "atom_type": "Cd"}, "23": {"label": "*2", "atom_type": "H0"}}

>  <type>  (10) 
unop_6

>  <geom_source>  (10) 
Heuristics

$$$$

     RDKit          3D

 30 29  0  0  0  0  0  0  0  0999 V2000
   -3.0690   -0.9432    1.1348 S   0  0  0  0  0  1  0  0  0  0  0  0
   -1.5223   -0.8966    0.7005 C   0  0  0  0  0  0  0  0  0  0  0  0
   -0.7574   -1.8992   -0.1113 C   0  0  0  0  0  0  0  0  0  0  0  0
    0.4406   -2.3906    0.7147 C   0  0  0  0  0  0  0  0  0  0  0  0
   -1.5848   -3.0539   -0.6494 C   0  0  0  0  0  0  0  0  0  0  0  0
   -0.9095   -0.0538    1.0292 H   0  0  0  0  0  0  0  0  0  0  0  0
    0.0967   -2.9643    1.5777 H   0  0  0  0  0  0  0  0  0  0  0  0
    1.0748   -3.0369    0.1069 H   0  0  0  0  0  0  0  0  0  0  0  0
    1.0497   -1.5607    1.0772 H   0  0  0  0  0  0  0  0  0  0  0  0
   -0.9613   -3.7027   -1.2666 H   0  0  0  0  0  0  0  0  0  0  0  0
   -2.4209   -2.6991   -1.2518 H   0  0  0  0  0  0  0  0  0  0  0  0
   -1.9978   -3.6490    0.1669 H   0  0  0  0  0  0  0  0  0  0  0  0
    1.3527   -0.5954   -2.5145 C   0  0  0  0  0  0  0  0  0  0  0  0
    1.3527   -0.5954   -0.9854 C   0  0  0  0  0  0  0  0  0  0  0  0
    1.3527    0.7989   -0.4160 C   0  0  0  0  0  0  0  0  0  0  0  0
    0.1581    1.4678   -0.1682 C   0  0  0  0  0  0  0  0  0  0  0  0
    0.1548    2.7680    0.3127 C   0  0  0  0  0  0  0  0  0  0  0  0
    1.3527    3.4234    0.5545 C   0  0  0  0  0  0  0  0  0  0  0  0
    2.5505    2.7680    0.3127 C   0  0  0  0  0  0  0  0  0  0  0  0
    2.5472    1.4678   -0.1682 C   0  0  0  0  0  0  0  0  0  0  0  0
    2.2339   -0.0804   -2.9013 H   0  0  0  0  0  0  0  0  0  0  0  0
    0.4714   -0.0804   -2.9013 H   0  0  0  0  0  0  0  0  0  0  0  0
    1.3527   -1.6138   -2.9068 H   0  0  0  0  0  0  0  0  0  0  0  0
    0.3007   -1.2454   -0.5496 H   0  0  0  0  0  0  0  0  0  0  0  0
    2.2293   -1.1371   -0.6223 H   0  0  0  0  0  0  0  0  0  0  0  0
   -0.7828    0.9606   -0.3520 H   0  0  0  0  0  0  0  0  0  0  0  0
   -0.7859    3.2697    0.5026 H   0  0  0  0  0  0  0  0  0  0  0  0
    1.3527    4.4377    0.9328 H   0  0  0  0  0  0  0  0  0  0  0  0
    3.4912    3.2697    0.5026 H   0  0  0  0  0  0  0  0  0  0  0  0
    3.4881    0.9606   -0.3520 H   0  0  0  0  0  0  0  0  0  0  0  0
  1  2  1  0
  2  3  2  3
  2  6  1  0
  3  4  1  0
  3  5  1  0
  4  7  1  0
  4  8  1  0
  4  9  1  0
  5 10  1  0
  5 11  1  0
  5 12  1  0
 13 14  1  0
 13 21  1  0
 13 22  1  0
 13 23  1  0
 14 15  1  0
 14 24  1  0
 14 25  1  0
 15 16  2  0
 15 20  1  0
 16 17  1  0
 16 26  1  0
 17 18  2  0
 17 27  1  0
 18 19  1  0
 18 28  1  0
 19 20  2  0
 19 29  1  0
 20 30  1  0
M  RAD  1   1   2
M  END
>  <reaction>  (11) 
rxn_1504

>  <mol_properties>  (11) 
{"1": {"label": "*0", "atom_type": "CS"}, "2": {"label": "*1", "atom_type": "Cs"}, "13": {"label": "*3", "atom_type": "Cd"}, "14": {"label": "*4", "atom_type": "Cd"}, "23": {"label": "*2", "atom_type": "H0"}}

>  <type>  (11) 
unop_7

>  <geom_source>  (11) 
Heuristics

$$$$

     RDKit          3D

 30 29  0  0  0  0  0  0  0  0999 V2000
   -0.0951   -3.5495    1.2405 S   0  0  0  0  0  1  0  0  0  0  0  0
   -0.8411   -2.8527   -0.0010 C   0  0  0  0  0  0  0  0  0  0  0  0
   -1.2927   -1.4283   -0.1294 C   0  0  0  0  0  0  0  0  0  0  0  0
   -2.8049   -1.4135   -0.3977 C   0  0  0  0  0  0  0  0  0  0  0  0
   -0.9165   -0.5288    1.0354 C   0  0  0  0  0  0  0  0  0  0  0  0
   -1.0828   -3.4598   -0.8767 H   0  0  0  0  0  0  0  0  0  0  0  0
   -3.3488   -1.7800    0.4752 H   0  0  0  0  0  0  0  0  0  0  0  0
   -3.1387   -0.3961   -0.6045 H   0  0  0  0  0  0  0  0  0  0  0  0
   -3.0703   -2.0384   -1.2523 H   0  0  0  0  0  0  0  0  0  0  0  0
   -1.2386    0.4943    0.8349 H   0  0  0  0  0  0  0  0  0  0  0  0
    0.1598   -0.5275    1.2072 H   0  0  0  0  0  0  0  0  0  0  0  0
   -1.3952   -0.8658    1.9565 H   0  0  0  0  0  0  0  0  0  0  0  0
    0.8173   -0.1245   -2.5326 C   0  0  0  0  0  0  0  0  0  0  0  0
    0.8173   -0.1245   -1.0035 C   0  0  0  0  0  0  0  0  0  0  0  0
    0.8173    1.2698   -0.4341 C   0  0  0  0  0  0  0  0  0  0  0  0
   -0.3772    1.9388   -0.1863 C   0  0  0  0  0  0  0  0  0  0  0  0
   -0.3805    3.2390    0.2946 C   0  0  0  0  0  0  0  0  0  0  0  0
    0.8173    3.8943    0.5364 C   0  0  0  0  0  0  0  0  0  0  0  0
    2.0151    3.2390    0.2946 C   0  0  0  0  0  0  0  0  0  0  0  0
    2.0118    1.9388   -0.1863 C   0  0  0  0  0  0  0  0  0  0  0  0
    1.6986    0.3906   -2.9194 H   0  0  0  0  0  0  0  0  0  0  0  0
   -0.0640    0.3906   -2.9194 H   0  0  0  0  0  0  0  0  0  0  0  0
    0.8173   -1.1429   -2.9249 H   0  0  0  0  0  0  0  0  0  0  0  0
   -0.2347   -0.7745   -0.5677 H   0  0  0  0  0  0  0  0  0  0  0  0
    1.6939   -0.6661   -0.6403 H   0  0  0  0  0  0  0  0  0  0  0  0
   -1.3181    1.4316   -0.3701 H   0  0  0  0  0  0  0  0  0  0  0  0
   -1.3213    3.7407    0.4845 H   0  0  0  0  0  0  0  0  0  0  0  0
    0.8173    4.9087    0.9148 H   0  0  0  0  0  0  0  0  0  0  0  0
    2.9559    3.7407    0.4845 H   0  0  0  0  0  0  0  0  0  0  0  0
    2.9527    1.4316   -0.3701 H   0  0  0  0  0  0  0  0  0  0  0  0
  1  2  1  0
  2  3  2  3
  2  6  1  0
  3  4  1  0
  3  5  1  0
  4  7  1  0
  4  8  1  0
  4  9  1  0
  5 10  1  0
  5 11  1  0
  5 12  1  0
 13 14  1  0
 13 21  1  0
 13 22  1  0
 13 23  1  0
 14 15  1  0
 14 24  1  0
 14 25  1  0
 15 16  2  0
 15 20  1  0
 16 17  1  0
 16 26  1  0
 17 18  2  0
 17 27  1  0
 18 19  1  0
 18 28  1  0
 19 20  2  0
 19 29  1  0
 20 30  1  0
M  RAD  1   1   2
M  END
>  <reaction>  (12) 
rxn_1504

>  <mol_properties>  (12) 
{"1": {"label": "*0", "atom_type": "CS"}, "2": {"label": "*1", "atom_type": "Cs"}, "13": {"label": "*3", "atom_type": "Cd"}, "14": {"label": "*4", "atom_type": "Cd"}, "23": {"label": "*2", "atom_type": "H0"}}

>  <type>  (12) 
unop_8

>  <geom_source>  (12) 
Heuristics

$$$$

     RDKit          3D

 30 29  0  0  0  0  0  0  0  0999 V2000
   -2.8602   -2.4996   -1.2151 S   0  0  0  0  0  1  0  0  0  0  0  0
   -1.7693   -1.4475   -0.6803 C   0  0  0  0  0  0  0  0  0  0  0  0
   -0.7235   -1.6530    0.3749 C   0  0  0  0  0  0  0  0  0  0  0  0
   -0.9266   -0.6058    1.4800 C   0  0  0  0  0  0  0  0  0  0  0  0
   -0.6490   -3.0618    0.9380 C   0  0  0  0  0  0  0  0  0  0  0  0
   -1.7627   -0.4386   -1.0998 H   0  0  0  0  0  0  0  0  0  0  0  0
   -1.8655   -0.7874    2.0069 H   0  0  0  0  0  0  0  0  0  0  0  0
   -0.1131   -0.6628    2.2041 H   0  0  0  0  0  0  0  0  0  0  0  0
   -0.9520    0.4081    1.0768 H   0  0  0  0  0  0  0  0  0  0  0  0
    0.1680   -3.1322    1.6579 H   0  0  0  0  0  0  0  0  0  0  0  0
   -0.4840   -3.7978    0.1512 H   0  0  0  0  0  0  0  0  0  0  0  0
   -1.5783   -3.3267    1.4453 H   0  0  0  0  0  0  0  0  0  0  0  0
    1.3865   -0.3492   -2.0282 C   0  0  0  0  0  0  0  0  0  0  0  0
    1.3865   -0.3492   -0.4991 C   0  0  0  0  0  0  0  0  0  0  0  0
    1.3865    1.0451    0.0703 C   0  0  0  0  0  0  0  0  0  0  0  0
    0.1920    1.7140    0.3180 C   0  0  0  0  0  0  0  0  0  0  0  0
    0.1887    3.0142    0.7990 C   0  0  0  0  0  0  0  0  0  0  0  0
    1.3865    3.6696    1.0408 C   0  0  0  0  0  0  0  0  0  0  0  0
    2.5843    3.0142    0.7990 C   0  0  0  0  0  0  0  0  0  0  0  0
    2.5811    1.7140    0.3180 C   0  0  0  0  0  0  0  0  0  0  0  0
    2.2678    0.1659   -2.4151 H   0  0  0  0  0  0  0  0  0  0  0  0
    0.5053    0.1659   -2.4151 H   0  0  0  0  0  0  0  0  0  0  0  0
    1.3865   -1.3676   -2.4205 H   0  0  0  0  0  0  0  0  0  0  0  0
    0.3346   -0.9992   -0.0634 H   0  0  0  0  0  0  0  0  0  0  0  0
    2.2632   -0.8909   -0.1360 H   0  0  0  0  0  0  0  0  0  0  0  0
   -0.7489    1.2069    0.1343 H   0  0  0  0  0  0  0  0  0  0  0  0
   -0.7521    3.5159    0.9889 H   0  0  0  0  0  0  0  0  0  0  0  0
    1.3865    4.6839    1.4191 H   0  0  0  0  0  0  0  0  0  0  0  0
    3.5251    3.5159    0.9889 H   0  0  0  0  0  0  0  0  0  0  0  0
    3.5220    1.2069    0.1343 H   0  0  0  0  0  0  0  0  0  0  0  0
  1  2  1  0
  2  3  2  3
  2  6  1  0
  3  4  1  0
  3  5  1  0
  4  7  1  0
  4  8  1  0
  4  9  1  0
  5 10  1  0
  5 11  1  0
  5 12  1  0
 13 14  1  0
 13 21  1  0
 13 22  1  0
 13 23  1  0
 14 15  1  0
 14 24  1  0
 14 25  1  0
 15 16  2  0
 15 20  1  0
 16 17  1  0
 16 26  1  0
 17 18  2  0
 17 27  1  0
 18 19  1  0
 18 28  1  0
 19 20  2  0
 19 29  1  0
 20 30  1  0
M  RAD  1   1   2
M  END
>  <reaction>  (13) 
rxn_1504

>  <mol_properties>  (13) 
{"1": {"label": "*0", "atom_type": "CS"}, "2": {"label": "*1", "atom_type": "Cs"}, "13": {"label": "*3", "atom_type": "Cd"}, "14": {"label": "*4", "atom_type": "Cd"}, "23": {"label": "*2", "atom_type": "H0"}}

>  <type>  (13) 
unop_9

>  <geom_source>  (13) 
Heuristics

$$$$

     RDKit          3D

 30 29  0  0  0  0  0  0  0  0999 V2000
   -0.3934   -3.9779    0.2110 S   0  0  0  0  0  1  0  0  0  0  0  0
   -1.0942   -2.7031   -0.4723 C   0  0  0  0  0  0  0  0  0  0  0  0
   -1.2390   -1.3173    0.0827 C   0  0  0  0  0  0  0  0  0  0  0  0
   -2.7317   -0.9589    0.1291 C   0  0  0  0  0  0  0  0  0  0  0  0
   -0.5609   -1.0892    1.4227 C   0  0  0  0  0  0  0  0  0  0  0  0
   -1.5492   -2.8196   -1.4589 H   0  0  0  0  0  0  0  0  0  0  0  0
   -3.2499   -1.5853    0.8581 H   0  0  0  0  0  0  0  0  0  0  0  0
   -2.8577    0.0832    0.4249 H   0  0  0  0  0  0  0  0  0  0  0  0
   -3.2113   -1.0969   -0.8415 H   0  0  0  0  0  0  0  0  0  0  0  0
   -0.6736   -0.0465    1.7242 H   0  0  0  0  0  0  0  0  0  0  0  0
    0.5022   -1.3253    1.3773 H   0  0  0  0  0  0  0  0  0  0  0  0
   -1.0045   -1.7203    2.1946 H   0  0  0  0  0  0  0  0  0  0  0  0
    0.8711   -0.0135   -2.3205 C   0  0  0  0  0  0  0  0  0  0  0  0
    0.8711   -0.0135   -0.7914 C   0  0  0  0  0  0  0  0  0  0  0  0
    0.8711    1.3808   -0.2220 C   0  0  0  0  0  0  0  0  0  0  0  0
   -0.3235    2.0498    0.0258 C   0  0  0  0  0  0  0  0  0  0  0  0
   -0.3267    3.3500    0.5067 C   0  0  0  0  0  0  0  0  0  0  0  0
    0.8711    4.0053    0.7485 C   0  0  0  0  0  0  0  0  0  0  0  0
    2.0689    3.3500    0.5067 C   0  0  0  0  0  0  0  0  0  0  0  0
    2.0656    2.0498    0.0258 C   0  0  0  0  0  0  0  0  0  0  0  0
    1.7523    0.5016   -2.7073 H   0  0  0  0  0  0  0  0  0  0  0  0
   -0.0102    0.5016   -2.7073 H   0  0  0  0  0  0  0  0  0  0  0  0
    0.8711   -1.0319   -2.7128 H   0  0  0  0  0  0  0  0  0  0  0  0
   -0.1809   -0.6635   -0.3556 H   0  0  0  0  0  0  0  0  0  0  0  0
    1.7477   -0.5551   -0.4282 H   0  0  0  0  0  0  0  0  0  0  0  0
   -1.2644    1.5426   -0.1580 H   0  0  0  0  0  0  0  0  0  0  0  0
   -1.2675    3.8517    0.6966 H   0  0  0  0  0  0  0  0  0  0  0  0
    0.8711    5.0197    1.1269 H   0  0  0  0  0  0  0  0  0  0  0  0
    3.0097    3.8517    0.6966 H   0  0  0  0  0  0  0  0  0  0  0  0
    3.0065    1.5426   -0.1580 H   0  0  0  0  0  0  0  0  0  0  0  0
  1  2  1  0
  2  3  2  3
  2  6  1  0
  3  4  1  0
  3  5  1  0
  4  7  1  0
  4  8  1  0
  4  9  1  0
  5 10  1  0
  5 11  1  0
  5 12  1  0
 13 14  1  0
 13 21  1  0
 13 22  1  0
 13 23  1  0
 14 15  1  0
 14 24  1  0
 14 25  1  0
 15 16  2  0
 15 20  1  0
 16 17  1  0
 16 26  1  0
 17 18  2  0
 17 27  1  0
 18 19  1  0
 18 28  1  0
 19 20  2  0
 19 29  1  0
 20 30  1  0
M  RAD  1   1   2
M  END
>  <reaction>  (14) 
rxn_1504

>  <mol_properties>  (14) 
{"1": {"label": "*0", "atom_type": "CS"}, "2": {"label": "*1", "atom_type": "Cs"}, "13": {"label": "*3", "atom_type": "Cd"}, "14": {"label": "*4", "atom_type": "Cd"}, "23": {"label": "*2", "atom_type": "H0"}}

>  <type>  (14) 
unop_10

>  <geom_source>  (14) 
Heuristics

$$$$

     RDKit          3D

 30 29  0  0  0  0  0  0  0  0999 V2000
   -2.6111   -1.0398    1.7931 S   0  0  0  0  0  1  0  0  0  0  0  0
   -1.1654   -1.2080    1.1112 C   0  0  0  0  0  0  0  0  0  0  0  0
   -0.8293   -1.8520   -0.2009 C   0  0  0  0  0  0  0  0  0  0  0  0
    0.1750   -2.9864    0.0505 C   0  0  0  0  0  0  0  0  0  0  0  0
   -2.0260   -2.3250   -1.0081 C   0  0  0  0  0  0  0  0  0  0  0  0
   -0.2871   -0.8340    1.6429 H   0  0  0  0  0  0  0  0  0  0  0  0
   -0.2952   -3.7902    0.6206 H   0  0  0  0  0  0  0  0  0  0  0  0
    0.5197   -3.3986   -0.8985 H   0  0  0  0  0  0  0  0  0  0  0  0
    1.0474   -2.6387    0.6066 H   0  0  0  0  0  0  0  0  0  0  0  0
   -1.6927   -2.7318   -1.9642 H   0  0  0  0  0  0  0  0  0  0  0  0
   -2.7244   -1.5108   -1.2009 H   0  0  0  0  0  0  0  0  0  0  0  0
   -2.5709   -3.1051   -0.4737 H   0  0  0  0  0  0  0  0  0  0  0  0
    1.2807   -0.5482   -2.6040 C   0  0  0  0  0  0  0  0  0  0  0  0
    1.2807   -0.5482   -1.0749 C   0  0  0  0  0  0  0  0  0  0  0  0
    1.2807    0.8461   -0.5055 C   0  0  0  0  0  0  0  0  0  0  0  0
    0.0862    1.5150   -0.2578 C   0  0  0  0  0  0  0  0  0  0  0  0
    0.0829    2.8152    0.2232 C   0  0  0  0  0  0  0  0  0  0  0  0
    1.2807    3.4706    0.4650 C   0  0  0  0  0  0  0  0  0  0  0  0
    2.4785    2.8152    0.2232 C   0  0  0  0  0  0  0  0  0  0  0  0
    2.4752    1.5150   -0.2578 C   0  0  0  0  0  0  0  0  0  0  0  0
    2.1620   -0.0332   -2.9909 H   0  0  0  0  0  0  0  0  0  0  0  0
    0.3994   -0.0332   -2.9909 H   0  0  0  0  0  0  0  0  0  0  0  0
    1.2807   -1.5666   -2.9964 H   0  0  0  0  0  0  0  0  0  0  0  0
    0.2288   -1.1982   -0.6392 H   0  0  0  0  0  0  0  0  0  0  0  0
    2.1574   -1.0899   -0.7118 H   0  0  0  0  0  0  0  0  0  0  0  0
   -0.8547    1.0078   -0.4415 H   0  0  0  0  0  0  0  0  0  0  0  0
   -0.8579    3.3169    0.4131 H   0  0  0  0  0  0  0  0  0  0  0  0
    1.2807    4.4849    0.8433 H   0  0  0  0  0  0  0  0  0  0  0  0
    3.4193    3.3169    0.4131 H   0  0  0  0  0  0  0  0  0  0  0  0
    3.4161    1.0078   -0.4415 H   0  0  0  0  0  0  0  0  0  0  0  0
  1  2  1  0
  2  3  2  3
  2  6  1  0
  3  4  1  0
  3  5  1  0
  4  7  1  0
  4  8  1  0
  4  9  1  0
  5 10  1  0
  5 11  1  0
  5 12  1  0
 13 14  1  0
 13 21  1  0
 13 22  1  0
 13 23  1  0
 14 15  1  0
 14 24  1  0
 14 25  1  0
 15 16  2  0
 15 20  1  0
 16 17  1  0
 16 26  1  0
 17 18  2  0
 17 27  1  0
 18 19  1  0
 18 28  1  0
 19 20  2  0
 19 29  1  0
 20 30  1  0
M  RAD  1   1   2
M  END
>  <reaction>  (15) 
rxn_1504

>  <mol_properties>  (15) 
{"1": {"label": "*0", "atom_type": "CS"}, "2": {"label": "*1", "atom_type": "Cs"}, "13": {"label": "*3", "atom_type": "Cd"}, "14": {"label": "*4", "atom_type": "Cd"}, "23": {"label": "*2", "atom_type": "H0"}}

>  <type>  (15) 
unop_11

>  <geom_source>  (15) 
Heuristics

$$$$

     RDKit          3D

 30 29  0  0  0  0  0  0  0  0999 V2000
   -2.0204   -3.3868   -1.2617 S   0  0  0  0  0  1  0  0  0  0  0  0
   -1.6059   -1.8932   -0.8367 C   0  0  0  0  0  0  0  0  0  0  0  0
   -0.8860   -1.4485    0.4016 C   0  0  0  0  0  0  0  0  0  0  0  0
   -1.7650   -0.4305    1.1432 C   0  0  0  0  0  0  0  0  0  0  0  0
   -0.4284   -2.5721    1.3157 C   0  0  0  0  0  0  0  0  0  0  0  0
   -1.8763   -1.0652   -1.4963 H   0  0  0  0  0  0  0  0  0  0  0  0
   -2.6654   -0.9147    1.5268 H   0  0  0  0  0  0  0  0  0  0  0  0
   -1.2188   -0.0091    1.9879 H   0  0  0  0  0  0  0  0  0  0  0  0
   -2.0701    0.3907    0.4923 H   0  0  0  0  0  0  0  0  0  0  0  0
    0.1272   -2.1617    2.1605 H   0  0  0  0  0  0  0  0  0  0  0  0
    0.2118   -3.2794    0.7888 H   0  0  0  0  0  0  0  0  0  0  0  0
   -1.2828   -3.1291    1.7039 H   0  0  0  0  0  0  0  0  0  0  0  0
    1.2240   -0.1447   -2.0015 C   0  0  0  0  0  0  0  0  0  0  0  0
    1.2240   -0.1447   -0.4724 C   0  0  0  0  0  0  0  0  0  0  0  0
    1.2240    1.2496    0.0970 C   0  0  0  0  0  0  0  0  0  0  0  0
    0.0295    1.9186    0.3447 C   0  0  0  0  0  0  0  0  0  0  0  0
    0.0262    3.2188    0.8257 C   0  0  0  0  0  0  0  0  0  0  0  0
    1.2240    3.8741    1.0675 C   0  0  0  0  0  0  0  0  0  0  0  0
    2.4218    3.2188    0.8257 C   0  0  0  0  0  0  0  0  0  0  0  0
    2.4185    1.9186    0.3447 C   0  0  0  0  0  0  0  0  0  0  0  0
    2.1053    0.3704   -2.3883 H   0  0  0  0  0  0  0  0  0  0  0  0
    0.3427    0.3704   -2.3883 H   0  0  0  0  0  0  0  0  0  0  0  0
    1.2240   -1.1631   -2.3938 H   0  0  0  0  0  0  0  0  0  0  0  0
    0.1720   -0.7947   -0.0366 H   0  0  0  0  0  0  0  0  0  0  0  0
    2.1006   -0.6863   -0.1093 H   0  0  0  0  0  0  0  0  0  0  0  0
   -0.9114    1.4114    0.1610 H   0  0  0  0  0  0  0  0  0  0  0  0
   -0.9146    3.7205    1.0156 H   0  0  0  0  0  0  0  0  0  0  0  0
    1.2240    4.8885    1.4458 H   0  0  0  0  0  0  0  0  0  0  0  0
    3.3626    3.7205    1.0156 H   0  0  0  0  0  0  0  0  0  0  0  0
    3.3594    1.4114    0.1610 H   0  0  0  0  0  0  0  0  0  0  0  0
  1  2  1  0
  2  3  2  3
  2  6  1  0
  3  4  1  0
  3  5  1  0
  4  7  1  0
  4  8  1  0
  4  9  1  0
  5 10  1  0
  5 11  1  0
  5 12  1  0
 13 14  1  0
 13 21  1  0
 13 22  1  0
 13 23  1  0
 14 15  1  0
 14 24  1  0
 14 25  1  0
 15 16  2  0
 15 20  1  0
 16 17  1  0
 16 26  1  0
 17 18  2  0
 17 27  1  0
 18 19  1  0
 18 28  1  0
 19 20  2  0
 19 29  1  0
 20 30  1  0
M  RAD  1   1   2
M  END
>  <reaction>  (16) 
rxn_1504

>  <mol_properties>  (16) 
{"1": {"label": "*0", "atom_type": "CS"}, "2": {"label": "*1", "atom_type": "Cs"}, "13": {"label": "*3", "atom_type": "Cd"}, "14": {"label": "*4", "atom_type": "Cd"}, "23": {"label": "*2", "atom_type": "H0"}}

>  <type>  (16) 
unop_12

>  <geom_source>  (16) 
Heuristics

$$$$

     RDKit          3D

 30 29  0  0  0  0  0  0  0  0999 V2000
   -4.2628   -0.0480    1.6701 S   0  0  0  0  0  0  0  0  0  0  0  0
   -1.9538   -0.4109    0.5524 C   0  0  0  0  0  0  0  0  0  0  0  0
   -1.8824   -1.9321    0.7324 C   0  0  0  0  0  0  0  0  0  0  0  0
   -2.3644   -0.0395   -0.8777 C   0  0  0  0  0  0  0  0  0  0  0  0
   -0.4702    1.8715   -0.4859 C   0  0  0  0  0  0  0  0  0  0  0  0
    1.4725    0.4319    0.1329 C   0  0  0  0  0  0  0  0  0  0  0  0
    0.2046    1.0675    0.6177 C   0  0  0  0  0  0  0  0  0  0  0  0
    1.4626   -0.9072   -0.2821 C   0  0  0  0  0  3  0  0  0  0  0  0
    2.6635    1.1723    0.0600 C   0  0  0  0  0  0  0  0  0  0  0  0
    2.6358   -1.5045   -0.7547 C   0  0  0  0  0  0  0  0  0  0  0  0
    3.8212   -0.7658   -0.8192 C   0  0  0  0  0  0  0  0  0  0  0  0
    3.8348    0.5719   -0.4130 C   0  0  0  0  0  0  0  0  0  0  0  0
   -2.8536    0.2370    1.5832 C   0  0  0  0  0  0  0  0  0  0  0  0
   -0.7405    0.0604    0.7432 H   0  0  0  0  0  0  0  0  0  0  0  0
   -1.5718   -2.1771    1.7704 H   0  0  0  0  0  0  0  0  0  0  0  0
   -1.1313   -2.3603    0.0354 H   0  0  0  0  0  0  0  0  0  0  0  0
   -2.8677   -2.4035    0.5284 H   0  0  0  0  0  0  0  0  0  0  0  0
   -3.3630   -0.4585   -1.1263 H   0  0  0  0  0  0  0  0  0  0  0  0
   -1.6208   -0.4381   -1.5999 H   0  0  0  0  0  0  0  0  0  0  0  0
   -2.3976    1.0653   -0.9880 H   0  0  0  0  0  0  0  0  0  0  0  0
   -1.4223    2.2934   -0.1023 H   0  0  0  0  0  0  0  0  0  0  0  0
   -0.6961    1.2151   -1.3529 H   0  0  0  0  0  0  0  0  0  0  0  0
    0.1861    2.7056   -0.8140 H   0  0  0  0  0  0  0  0  0  0  0  0
    0.3997    1.7105    1.5032 H   0  0  0  0  0  0  0  0  0  0  0  0
    0.5483   -1.4862   -0.2399 H   0  0  0  0  0  0  0  0  0  0  0  0
    2.6257   -2.5391   -1.0724 H   0  0  0  0  0  0  0  0  0  0  0  0
    2.6830    2.2104    0.3680 H   0  0  0  0  0  0  0  0  0  0  0  0
    4.7281   -1.2291   -1.1857 H   0  0  0  0  0  0  0  0  0  0  0  0
    4.7521    1.1439   -0.4664 H   0  0  0  0  0  0  0  0  0  0  0  0
   -2.4195    0.9430    2.2832 H   0  0  0  0  0  0  0  0  0  0  0  0
  1 13  2  0
  2  3  1  0
  2  4  1  0
  2 13  1  0
  2 14  1  0
  3 15  1  0
  3 16  1  0
  3 17  1  0
  4 18  1  0
  4 19  1  0
  4 20  1  0
  5  7  1  0
  5 21  1  0
  5 22  1  0
  5 23  1  0
  6  7  2  3
  6  8  1  0
  6  9  1  0
  7 24  1  0
  8 10  1  0
  8 25  1  0
  9 12  2  0
  9 27  1  0
 10 11  2  0
 10 26  1  0
 11 12  1  0
 11 28  1  0
 12 29  1  0
 13 30  1  0
M  RAD  1   8   2
M  END
>  <reaction>  (17) 
rxn_1504

>  <mol_properties>  (17) 
{"1": {"label": "*0", "atom_type": "CS"}, "2": {"label": "*1", "atom_type": "Cs"}, "13": {"label": "*3", "atom_type": "Cd"}, "14": {"label": "*4", "atom_type": "Cd"}, "23": {"label": "*2", "atom_type": "H0"}}

>  <type>  (17) 
unop_13

>  <geom_source>  (17) 
AutoTST

$$$$
