
     RDKit          3D

  7  6  0  0  0  0  0  0  0  0999 V2000
    1.1790    0.0623    0.2249 N   0  0  0  0  0  0  0  0  0  0  0  0
    0.0806   -0.7371    0.2750 N   0  0  0  0  0  0  0  0  0  0  0  0
    0.2345   -1.9592    0.5674 C   0  0  0  0  0  0  0  0  0  0  0  0
    1.0160    0.8617   -0.3633 H   0  0  0  0  0  0  0  0  0  0  0  0
    2.0560   -0.4061    0.0238 H   0  0  0  0  0  0  0  0  0  0  0  0
   -0.6510   -2.5755    0.6538 H   0  0  0  0  0  0  0  0  0  0  0  0
    1.2139   -2.4141    0.7430 H   0  0  0  0  0  0  0  0  0  0  0  0
  1  2  1  0
  1  4  1  0
  1  5  1  0
  2  3  2  3
  3  6  1  0
  3  7  1  0
M  END
>  <reaction>  (1) 
rxn_722

>  <mol_properties>  (1) 
{"0": {"label": "donator", "atom_type": "N3s"}, "3": {"label": "d_hydrogen", "atom_type": "H0"}}

>  <type>  (1) 
r1h

$$$$

     RDKit          3D

  3  2  0  0  0  0  0  0  0  0999 V2000
    0.0002    0.4233    0.0000 N   0  0  0  0  0  2  0  0  0  0  0  0
   -0.8051   -0.2112    0.0000 H   0  0  0  0  0  0  0  0  0  0  0  0
    0.8049   -0.2121    0.0000 H   0  0  0  0  0  0  0  0  0  0  0  0
  1  2  1  0
  1  3  1  0
M  RAD  1   1   2
M  END
>  <reaction>  (2) 
rxn_722

>  <mol_properties>  (2) 
{"0": {"label": "acceptor", "atom_type": "N3s"}}

>  <type>  (2) 
r2

$$$$

     RDKit          3D

  4  3  0  0  0  0  0  0  0  0999 V2000
    0.0006   -0.0009    0.2762 N   0  0  0  0  0  0  0  0  0  0  0  0
   -0.4188    0.8439   -0.0883 H   0  0  0  0  0  0  0  0  0  0  0  0
   -0.5215   -0.7840   -0.0936 H   0  0  0  0  0  0  0  0  0  0  0  0
    0.9397   -0.0590   -0.0943 H   0  0  0  0  0  0  0  0  0  0  0  0
  1  2  1  0
  1  3  1  0
  1  4  1  0
M  END
>  <reaction>  (3) 
rxn_722

>  <mol_properties>  (3) 
{"0": {"label": "acceptor", "atom_type": "N3s"}, "3": {"label": "a_hydrogen", "atom_type": "H0"}}

>  <type>  (3) 
r2h

$$$$

     RDKit          3D

 10  8  0  0  0  0  0  0  0  0999 V2000
   -0.2692    0.4122    2.2552 N   0  0  0  0  0  2  0  0  0  0  0  0
   -1.2869    0.4672    2.2833 H   0  0  0  0  0  0  0  0  0  0  0  0
   -0.0552   -0.5848    2.2347 H   0  0  0  0  0  0  0  0  0  0  0  0
    0.1799    0.8683   -0.0871 N   0  0  0  0  0  0  0  0  0  0  0  0
    0.6581   -0.2848   -0.5912 N   0  0  0  0  0  0  0  0  0  0  0  0
    0.3687   -0.6106   -1.7854 C   0  0  0  0  0  0  0  0  0  0  0  0
    0.1225    0.8345    1.1125 H   0  0  0  0  0  0  0  0  0  0  0  0
   -0.7220    1.1339   -0.4914 H   0  0  0  0  0  0  0  0  0  0  0  0
    0.8038   -1.5175   -2.1859 H   0  0  0  0  0  0  0  0  0  0  0  0
   -0.2781   -0.0048   -2.4265 H   0  0  0  0  0  0  0  0  0  0  0  0
  1  2  1  0
  1  3  1  0
  4  5  1  0
  4  7  1  0
  4  8  1  0
  5  6  2  3
  6  9  1  0
  6 10  1  0
M  RAD  1   1   2
M  END
>  <reaction>  (4) 
rxn_722

>  <mol_properties>  (4) 
{"0": {"label": "*3", "atom_type": "N3s"}, "1": {"label": "*4", "atom_type": "H0"}, "3": {"label": "*1", "atom_type": "N3s"}, "4": {"label": "*0", "atom_type": "N3d"}, "6": {"label": "*2", "atom_type": "H0"}}

>  <type>  (4) 
ts

$$$$

     RDKit          3D

 10  8  0  0  0  0  0  0  0  0999 V2000
   -0.6589    0.3595    2.2378 N   0  0  0  0  0  2  0  0  0  0  0  0
    0.0608    0.6413    2.8899 H   0  0  0  0  0  0  0  0  0  0  0  0
   -0.9902    1.2614    1.9226 H   0  0  0  0  0  0  0  0  0  0  0  0
    0.2500    0.5875    0.0062 N   0  0  0  0  0  0  0  0  0  0  0  0
    0.2500   -0.6065   -0.6436 N   0  0  0  0  0  0  0  0  0  0  0  0
    0.2500   -0.6065   -1.9096 C   0  0  0  0  0  0  0  0  0  0  0  0
   -0.2032    0.4738    1.1190 H   0  0  0  0  0  0  0  0  0  0  0  0
   -0.1469    1.3679   -0.5061 H   0  0  0  0  0  0  0  0  0  0  0  0
    0.3007   -1.5612   -2.4169 H   0  0  0  0  0  0  0  0  0  0  0  0
    0.2096    0.3083   -2.5083 H   0  0  0  0  0  0  0  0  0  0  0  0
  1  2  1  0
  1  3  1  0
  4  5  1  0
  4  7  1  0
  4  8  1  0
  5  6  2  3
  6  9  1  0
  6 10  1  0
M  RAD  1   1   2
M  END
>  <reaction>  (5) 
rxn_722

>  <mol_properties>  (5) 
{"0": {"label": "*3", "atom_type": "N3s"}, "1": {"label": "*4", "atom_type": "H0"}, "3": {"label": "*1", "atom_type": "N3s"}, "4": {"label": "*0", "atom_type": "N3d"}, "6": {"label": "*2", "atom_type": "H0"}}

>  <type>  (5) 
unop_1

>  <geom_source>  (5) 
Heuristics

$$$$

     RDKit          3D

 10  8  0  0  0  0  0  0  0  0999 V2000
   -0.6679    0.3832    2.2369 N   0  0  0  0  0  2  0  0  0  0  0  0
   -0.4610   -0.5539    2.5556 H   0  0  0  0  0  0  0  0  0  0  0  0
    0.0507    1.0911    2.3090 H   0  0  0  0  0  0  0  0  0  0  0  0
    0.2410    0.6112    0.0053 N   0  0  0  0  0  0  0  0  0  0  0  0
    0.2410   -0.5828   -0.6445 N   0  0  0  0  0  0  0  0  0  0  0  0
    0.2410   -0.5828   -1.9105 C   0  0  0  0  0  0  0  0  0  0  0  0
   -0.2122    0.4975    1.1181 H   0  0  0  0  0  0  0  0  0  0  0  0
   -0.1559    1.3916   -0.5070 H   0  0  0  0  0  0  0  0  0  0  0  0
    0.2917   -1.5375   -2.4178 H   0  0  0  0  0  0  0  0  0  0  0  0
    0.2006    0.3320   -2.5092 H   0  0  0  0  0  0  0  0  0  0  0  0
  1  2  1  0
  1  3  1  0
  4  5  1  0
  4  7  1  0
  4  8  1  0
  5  6  2  3
  6  9  1  0
  6 10  1  0
M  RAD  1   1   2
M  END
>  <reaction>  (6) 
rxn_722

>  <mol_properties>  (6) 
{"0": {"label": "*3", "atom_type": "N3s"}, "1": {"label": "*4", "atom_type": "H0"}, "3": {"label": "*1", "atom_type": "N3s"}, "4": {"label": "*0", "atom_type": "N3d"}, "6": {"label": "*2", "atom_type": "H0"}}

>  <type>  (6) 
unop_2

>  <geom_source>  (6) 
Heuristics

$$$$

     RDKit          3D

 10  8  0  0  0  0  0  0  0  0999 V2000
   -0.6471    0.3572    2.2376 N   0  0  0  0  0  2  0  0  0  0  0  0
   -0.1998    1.0516    2.8209 H   0  0  0  0  0  0  0  0  0  0  0  0
   -1.4063    0.9832    2.0043 H   0  0  0  0  0  0  0  0  0  0  0  0
    0.2617    0.5852    0.0060 N   0  0  0  0  0  0  0  0  0  0  0  0
    0.2617   -0.6088   -0.6438 N   0  0  0  0  0  0  0  0  0  0  0  0
    0.2617   -0.6088   -1.9098 C   0  0  0  0  0  0  0  0  0  0  0  0
   -0.1914    0.4715    1.1187 H   0  0  0  0  0  0  0  0  0  0  0  0
   -0.1351    1.3656   -0.5063 H   0  0  0  0  0  0  0  0  0  0  0  0
    0.3124   -1.5635   -2.4171 H   0  0  0  0  0  0  0  0  0  0  0  0
    0.2213    0.3060   -2.5085 H   0  0  0  0  0  0  0  0  0  0  0  0
  1  2  1  0
  1  3  1  0
  4  5  1  0
  4  7  1  0
  4  8  1  0
  5  6  2  3
  6  9  1  0
  6 10  1  0
M  RAD  1   1   2
M  END
>  <reaction>  (7) 
rxn_722

>  <mol_properties>  (7) 
{"0": {"label": "*3", "atom_type": "N3s"}, "1": {"label": "*4", "atom_type": "H0"}, "3": {"label": "*1", "atom_type": "N3s"}, "4": {"label": "*0", "atom_type": "N3d"}, "6": {"label": "*2", "atom_type": "H0"}}

>  <type>  (7) 
unop_3

>  <geom_source>  (7) 
Heuristics

$$$$

     RDKit          3D

 10  8  0  0  0  0  0  0  0  0999 V2000
   -0.6454    0.3916    2.2321 N   0  0  0  0  0  2  0  0  0  0  0  0
   -1.5937    0.0525    2.1414 H   0  0  0  0  0  0  0  0  0  0  0  0
   -0.1146    0.0019    2.9996 H   0  0  0  0  0  0  0  0  0  0  0  0
    0.2635    0.6196    0.0005 N   0  0  0  0  0  0  0  0  0  0  0  0
    0.2635   -0.5744   -0.6493 N   0  0  0  0  0  0  0  0  0  0  0  0
    0.2635   -0.5744   -1.9153 C   0  0  0  0  0  0  0  0  0  0  0  0
   -0.1897    0.5059    1.1133 H   0  0  0  0  0  0  0  0  0  0  0  0
   -0.1333    1.4000   -0.5118 H   0  0  0  0  0  0  0  0  0  0  0  0
    0.3142   -1.5291   -2.4226 H   0  0  0  0  0  0  0  0  0  0  0  0
    0.2231    0.3404   -2.5140 H   0  0  0  0  0  0  0  0  0  0  0  0
  1  2  1  0
  1  3  1  0
  4  5  1  0
  4  7  1  0
  4  8  1  0
  5  6  2  3
  6  9  1  0
  6 10  1  0
M  RAD  1   1   2
M  END
>  <reaction>  (8) 
rxn_722

>  <mol_properties>  (8) 
{"0": {"label": "*3", "atom_type": "N3s"}, "1": {"label": "*4", "atom_type": "H0"}, "3": {"label": "*1", "atom_type": "N3s"}, "4": {"label": "*0", "atom_type": "N3d"}, "6": {"label": "*2", "atom_type": "H0"}}

>  <type>  (8) 
unop_4

>  <geom_source>  (8) 
Heuristics

$$$$

     RDKit          3D

 10  8  0  0  0  0  0  0  0  0999 V2000
   -0.6359    0.3641    2.2339 N   0  0  0  0  0  2  0  0  0  0  0  0
   -0.6114    1.2774    2.6674 H   0  0  0  0  0  0  0  0  0  0  0  0
   -1.6384    0.3605    2.3665 H   0  0  0  0  0  0  0  0  0  0  0  0
    0.2729    0.5921    0.0024 N   0  0  0  0  0  0  0  0  0  0  0  0
    0.2729   -0.6019   -0.6474 N   0  0  0  0  0  0  0  0  0  0  0  0
    0.2729   -0.6019   -1.9135 C   0  0  0  0  0  0  0  0  0  0  0  0
   -0.1803    0.4784    1.1151 H   0  0  0  0  0  0  0  0  0  0  0  0
   -0.1239    1.3725   -0.5100 H   0  0  0  0  0  0  0  0  0  0  0  0
    0.3236   -1.5566   -2.4207 H   0  0  0  0  0  0  0  0  0  0  0  0
    0.2325    0.3129   -2.5121 H   0  0  0  0  0  0  0  0  0  0  0  0
  1  2  1  0
  1  3  1  0
  4  5  1  0
  4  7  1  0
  4  8  1  0
  5  6  2  3
  6  9  1  0
  6 10  1  0
M  RAD  1   1   2
M  END
>  <reaction>  (9) 
rxn_722

>  <mol_properties>  (9) 
{"0": {"label": "*3", "atom_type": "N3s"}, "1": {"label": "*4", "atom_type": "H0"}, "3": {"label": "*1", "atom_type": "N3s"}, "4": {"label": "*0", "atom_type": "N3d"}, "6": {"label": "*2", "atom_type": "H0"}}

>  <type>  (9) 
unop_5

>  <geom_source>  (9) 
Heuristics

$$$$

     RDKit          3D

 10  8  0  0  0  0  0  0  0  0999 V2000
   -0.6390    0.3864    2.2309 N   0  0  0  0  0  2  0  0  0  0  0  0
   -1.6362    0.5431    2.1709 H   0  0  0  0  0  0  0  0  0  0  0  0
   -0.4397   -0.1857    3.0406 H   0  0  0  0  0  0  0  0  0  0  0  0
    0.2699    0.6143   -0.0007 N   0  0  0  0  0  0  0  0  0  0  0  0
    0.2699   -0.5797   -0.6505 N   0  0  0  0  0  0  0  0  0  0  0  0
    0.2699   -0.5797   -1.9165 C   0  0  0  0  0  0  0  0  0  0  0  0
   -0.1833    0.5006    1.1120 H   0  0  0  0  0  0  0  0  0  0  0  0
   -0.1270    1.3947   -0.5130 H   0  0  0  0  0  0  0  0  0  0  0  0
    0.3206   -1.5344   -2.4238 H   0  0  0  0  0  0  0  0  0  0  0  0
    0.2295    0.3352   -2.5152 H   0  0  0  0  0  0  0  0  0  0  0  0
  1  2  1  0
  1  3  1  0
  4  5  1  0
  4  7  1  0
  4  8  1  0
  5  6  2  3
  6  9  1  0
  6 10  1  0
M  RAD  1   1   2
M  END
>  <reaction>  (10) 
rxn_722

>  <mol_properties>  (10) 
{"0": {"label": "*3", "atom_type": "N3s"}, "1": {"label": "*4", "atom_type": "H0"}, "3": {"label": "*1", "atom_type": "N3s"}, "4": {"label": "*0", "atom_type": "N3d"}, "6": {"label": "*2", "atom_type": "H0"}}

>  <type>  (10) 
unop_6

>  <geom_source>  (10) 
Heuristics

$$$$

     RDKit          3D

 10  8  0  0  0  0  0  0  0  0999 V2000
   -0.6357    0.3800    2.2296 N   0  0  0  0  0  2  0  0  0  0  0  0
   -1.4452    0.9828    2.2917 H   0  0  0  0  0  0  0  0  0  0  0  0
   -0.8189   -0.2593    2.9914 H   0  0  0  0  0  0  0  0  0  0  0  0
    0.2732    0.6080   -0.0020 N   0  0  0  0  0  0  0  0  0  0  0  0
    0.2732   -0.5861   -0.6517 N   0  0  0  0  0  0  0  0  0  0  0  0
    0.2732   -0.5861   -1.9178 C   0  0  0  0  0  0  0  0  0  0  0  0
   -0.1800    0.4943    1.1108 H   0  0  0  0  0  0  0  0  0  0  0  0
   -0.1237    1.3884   -0.5143 H   0  0  0  0  0  0  0  0  0  0  0  0
    0.3238   -1.5407   -2.4251 H   0  0  0  0  0  0  0  0  0  0  0  0
    0.2327    0.3288   -2.5164 H   0  0  0  0  0  0  0  0  0  0  0  0
  1  2  1  0
  1  3  1  0
  4  5  1  0
  4  7  1  0
  4  8  1  0
  5  6  2  3
  6  9  1  0
  6 10  1  0
M  RAD  1   1   2
M  END
>  <reaction>  (11) 
rxn_722

>  <mol_properties>  (11) 
{"0": {"label": "*3", "atom_type": "N3s"}, "1": {"label": "*4", "atom_type": "H0"}, "3": {"label": "*1", "atom_type": "N3s"}, "4": {"label": "*0", "atom_type": "N3d"}, "6": {"label": "*2", "atom_type": "H0"}}

>  <type>  (11) 
unop_7

>  <geom_source>  (11) 
Heuristics

$$$$

     RDKit          3D

 10  8  0  0  0  0  0  0  0  0999 V2000
   -0.6661    0.3666    2.2376 N   0  0  0  0  0  2  0  0  0  0  0  0
    0.1025    0.1526    2.8589 H   0  0  0  0  0  0  0  0  0  0  0  0
   -0.6152    1.3398    1.9675 H   0  0  0  0  0  0  0  0  0  0  0  0
    0.2428    0.5946    0.0060 N   0  0  0  0  0  0  0  0  0  0  0  0
    0.2428   -0.5994   -0.6438 N   0  0  0  0  0  0  0  0  0  0  0  0
    0.2428   -0.5994   -1.9099 C   0  0  0  0  0  0  0  0  0  0  0  0
   -0.2104    0.4809    1.1187 H   0  0  0  0  0  0  0  0  0  0  0  0
   -0.1541    1.3750   -0.5064 H   0  0  0  0  0  0  0  0  0  0  0  0
    0.2934   -1.5541   -2.4171 H   0  0  0  0  0  0  0  0  0  0  0  0
    0.2023    0.3154   -2.5085 H   0  0  0  0  0  0  0  0  0  0  0  0
  1  2  1  0
  1  3  1  0
  4  5  1  0
  4  7  1  0
  4  8  1  0
  5  6  2  3
  6  9  1  0
  6 10  1  0
M  RAD  1   1   2
M  END
>  <reaction>  (12) 
rxn_722

>  <mol_properties>  (12) 
{"0": {"label": "*3", "atom_type": "N3s"}, "1": {"label": "*4", "atom_type": "H0"}, "3": {"label": "*1", "atom_type": "N3s"}, "4": {"label": "*0", "atom_type": "N3d"}, "6": {"label": "*2", "atom_type": "H0"}}

>  <type>  (12) 
unop_8

>  <geom_source>  (12) 
Heuristics

$$$$

     RDKit          3D

 10  8  0  0  0  0  0  0  0  0999 V2000
   -0.6543    0.3933    2.2334 N   0  0  0  0  0  2  0  0  0  0  0  0
   -1.3303   -0.3584    2.2114 H   0  0  0  0  0  0  0  0  0  0  0  0
    0.1397    0.3152    2.8547 H   0  0  0  0  0  0  0  0  0  0  0  0
    0.2545    0.6213    0.0018 N   0  0  0  0  0  0  0  0  0  0  0  0
    0.2545   -0.5728   -0.6480 N   0  0  0  0  0  0  0  0  0  0  0  0
    0.2545   -0.5728   -1.9140 C   0  0  0  0  0  0  0  0  0  0  0  0
   -0.1987    0.5076    1.1146 H   0  0  0  0  0  0  0  0  0  0  0  0
   -0.1423    1.4017   -0.5105 H   0  0  0  0  0  0  0  0  0  0  0  0
    0.3052   -1.5274   -2.4213 H   0  0  0  0  0  0  0  0  0  0  0  0
    0.2141    0.3421   -2.5127 H   0  0  0  0  0  0  0  0  0  0  0  0
  1  2  1  0
  1  3  1  0
  4  5  1  0
  4  7  1  0
  4  8  1  0
  5  6  2  3
  6  9  1  0
  6 10  1  0
M  RAD  1   1   2
M  END
>  <reaction>  (13) 
rxn_722

>  <mol_properties>  (13) 
{"0": {"label": "*3", "atom_type": "N3s"}, "1": {"label": "*4", "atom_type": "H0"}, "3": {"label": "*1", "atom_type": "N3s"}, "4": {"label": "*0", "atom_type": "N3d"}, "6": {"label": "*2", "atom_type": "H0"}}

>  <type>  (13) 
unop_9

>  <geom_source>  (13) 
Heuristics

$$$$

     RDKit          3D

 10  8  0  0  0  0  0  0  0  0999 V2000
   -0.6689    0.3751    2.2375 N   0  0  0  0  0  2  0  0  0  0  0  0
   -0.0880   -0.2851    2.7368 H   0  0  0  0  0  0  0  0  0  0  0  0
   -0.2636    1.2902    2.0932 H   0  0  0  0  0  0  0  0  0  0  0  0
    0.2400    0.6031    0.0059 N   0  0  0  0  0  0  0  0  0  0  0  0
    0.2400   -0.5910   -0.6439 N   0  0  0  0  0  0  0  0  0  0  0  0
    0.2400   -0.5910   -1.9099 C   0  0  0  0  0  0  0  0  0  0  0  0
   -0.2132    0.4894    1.1187 H   0  0  0  0  0  0  0  0  0  0  0  0
   -0.1569    1.3835   -0.5064 H   0  0  0  0  0  0  0  0  0  0  0  0
    0.2906   -1.5456   -2.4172 H   0  0  0  0  0  0  0  0  0  0  0  0
    0.1995    0.3239   -2.5086 H   0  0  0  0  0  0  0  0  0  0  0  0
  1  2  1  0
  1  3  1  0
  4  5  1  0
  4  7  1  0
  4  8  1  0
  5  6  2  3
  6  9  1  0
  6 10  1  0
M  RAD  1   1   2
M  END
>  <reaction>  (14) 
rxn_722

>  <mol_properties>  (14) 
{"0": {"label": "*3", "atom_type": "N3s"}, "1": {"label": "*4", "atom_type": "H0"}, "3": {"label": "*1", "atom_type": "N3s"}, "4": {"label": "*0", "atom_type": "N3d"}, "6": {"label": "*2", "atom_type": "H0"}}

>  <type>  (14) 
unop_10

>  <geom_source>  (14) 
Heuristics

$$$$

     RDKit          3D

 10  8  0  0  0  0  0  0  0  0999 V2000
   -0.6342    0.3734    2.2298 N   0  0  0  0  0  2  0  0  0  0  0  0
   -1.0697    1.2532    2.4724 H   0  0  0  0  0  0  0  0  0  0  0  0
   -1.2827   -0.1517    2.8009 H   0  0  0  0  0  0  0  0  0  0  0  0
    0.2747    0.6014   -0.0018 N   0  0  0  0  0  0  0  0  0  0  0  0
    0.2747   -0.5926   -0.6516 N   0  0  0  0  0  0  0  0  0  0  0  0
    0.2747   -0.5926   -1.9176 C   0  0  0  0  0  0  0  0  0  0  0  0
   -0.1785    0.4877    1.1110 H   0  0  0  0  0  0  0  0  0  0  0  0
   -0.1222    1.3818   -0.5141 H   0  0  0  0  0  0  0  0  0  0  0  0
    0.3254   -1.5473   -2.4249 H   0  0  0  0  0  0  0  0  0  0  0  0
    0.2343    0.3222   -2.5163 H   0  0  0  0  0  0  0  0  0  0  0  0
  1  2  1  0
  1  3  1  0
  4  5  1  0
  4  7  1  0
  4  8  1  0
  5  6  2  3
  6  9  1  0
  6 10  1  0
M  RAD  1   1   2
M  END
>  <reaction>  (15) 
rxn_722

>  <mol_properties>  (15) 
{"0": {"label": "*3", "atom_type": "N3s"}, "1": {"label": "*4", "atom_type": "H0"}, "3": {"label": "*1", "atom_type": "N3s"}, "4": {"label": "*0", "atom_type": "N3d"}, "6": {"label": "*2", "atom_type": "H0"}}

>  <type>  (15) 
unop_11

>  <geom_source>  (15) 
Heuristics

$$$$

     RDKit          3D

 10  8  0  0  0  0  0  0  0  0999 V2000
   -0.6629    0.3900    2.2352 N   0  0  0  0  0  2  0  0  0  0  0  0
   -0.9161   -0.5806    2.3631 H   0  0  0  0  0  0  0  0  0  0  0  0
    0.2189    0.7276    2.5972 H   0  0  0  0  0  0  0  0  0  0  0  0
    0.2460    0.6180    0.0036 N   0  0  0  0  0  0  0  0  0  0  0  0
    0.2460   -0.5761   -0.6461 N   0  0  0  0  0  0  0  0  0  0  0  0
    0.2460   -0.5761   -1.9122 C   0  0  0  0  0  0  0  0  0  0  0  0
   -0.2072    0.5043    1.1164 H   0  0  0  0  0  0  0  0  0  0  0  0
   -0.1509    1.3984   -0.5087 H   0  0  0  0  0  0  0  0  0  0  0  0
    0.2966   -1.5307   -2.4195 H   0  0  0  0  0  0  0  0  0  0  0  0
    0.2055    0.3388   -2.5108 H   0  0  0  0  0  0  0  0  0  0  0  0
  1  2  1  0
  1  3  1  0
  4  5  1  0
  4  7  1  0
  4  8  1  0
  5  6  2  3
  6  9  1  0
  6 10  1  0
M  RAD  1   1   2
M  END
>  <reaction>  (16) 
rxn_722

>  <mol_properties>  (16) 
{"0": {"label": "*3", "atom_type": "N3s"}, "1": {"label": "*4", "atom_type": "H0"}, "3": {"label": "*1", "atom_type": "N3s"}, "4": {"label": "*0", "atom_type": "N3d"}, "6": {"label": "*2", "atom_type": "H0"}}

>  <type>  (16) 
unop_12

>  <geom_source>  (16) 
Heuristics

$$$$
