
     RDKit          3D

 15 14  0  0  0  0  0  0  0  0999 V2000
    1.2256    1.5264    0.0439 C   0  0  0  0  0  0  0  0  0  0  0  0
    0.6563    0.3367   -0.1047 C   0  0  0  0  0  0  0  0  0  0  0  0
    1.3138   -0.9209    0.3875 C   0  0  0  0  0  0  0  0  0  0  0  0
   -0.6798    0.1250   -0.7678 C   0  0  0  0  0  0  0  0  0  0  0  0
   -1.3887    1.3662   -1.2845 C   0  0  0  0  0  0  0  0  0  0  0  0
    0.7600    2.4381   -0.3072 H   0  0  0  0  0  0  0  0  0  0  0  0
    2.1894    1.6275    0.5285 H   0  0  0  0  0  0  0  0  0  0  0  0
    0.6755   -1.4317    1.1141 H   0  0  0  0  0  0  0  0  0  0  0  0
    2.2751   -0.7173    0.8583 H   0  0  0  0  0  0  0  0  0  0  0  0
    1.4755   -1.6206   -0.4374 H   0  0  0  0  0  0  0  0  0  0  0  0
   -0.5366   -0.5842   -1.5914 H   0  0  0  0  0  0  0  0  0  0  0  0
   -1.3287   -0.3970   -0.0551 H   0  0  0  0  0  0  0  0  0  0  0  0
   -0.7898    1.8817   -2.0375 H   0  0  0  0  0  0  0  0  0  0  0  0
   -1.5941    2.0717   -0.4774 H   0  0  0  0  0  0  0  0  0  0  0  0
   -2.3411    1.0970   -1.7428 H   0  0  0  0  0  0  0  0  0  0  0  0
  1  2  2  3
  1  6  1  0
  1  7  1  0
  2  3  1  0
  2  4  1  0
  3  8  1  0
  3  9  1  0
  3 10  1  0
  4  5  1  0
  4 11  1  0
  4 12  1  0
  5 13  1  0
  5 14  1  0
  5 15  1  0
M  END
>  <reaction>  (1) 
rxn_103

>  <mol_properties>  (1) 
{"3": {"label": "donator", "atom_type": "Cs"}, "10": {"label": "d_hydrogen", "atom_type": "H0"}}

>  <type>  (1) 
r1h

$$$$

     RDKit          3D

  3  2  0  0  0  0  0  0  0  0999 V2000
    0.0002    0.4233    0.0000 N   0  0  0  0  0  2  0  0  0  0  0  0
   -0.8051   -0.2112    0.0000 H   0  0  0  0  0  0  0  0  0  0  0  0
    0.8049   -0.2121    0.0000 H   0  0  0  0  0  0  0  0  0  0  0  0
  1  2  1  0
  1  3  1  0
M  RAD  1   1   2
M  END
>  <reaction>  (2) 
rxn_103

>  <mol_properties>  (2) 
{"0": {"label": "acceptor", "atom_type": "N3s"}}

>  <type>  (2) 
r2

$$$$

     RDKit          3D

  4  3  0  0  0  0  0  0  0  0999 V2000
    0.0006   -0.0009    0.2762 N   0  0  0  0  0  0  0  0  0  0  0  0
   -0.4188    0.8439   -0.0883 H   0  0  0  0  0  0  0  0  0  0  0  0
   -0.5215   -0.7840   -0.0936 H   0  0  0  0  0  0  0  0  0  0  0  0
    0.9397   -0.0590   -0.0943 H   0  0  0  0  0  0  0  0  0  0  0  0
  1  2  1  0
  1  3  1  0
  1  4  1  0
M  END
>  <reaction>  (3) 
rxn_103

>  <mol_properties>  (3) 
{"0": {"label": "acceptor", "atom_type": "N3s"}, "3": {"label": "a_hydrogen", "atom_type": "H0"}}

>  <type>  (3) 
r2h

$$$$

     RDKit          3D

 18 16  0  0  0  0  0  0  0  0999 V2000
    1.5663   -0.3943    1.9271 N   0  0  0  0  0  2  0  0  0  0  0  0
    1.6915   -1.3971    2.0839 H   0  0  0  0  0  0  0  0  0  0  0  0
    2.2139   -0.1816    1.1642 H   0  0  0  0  0  0  0  0  0  0  0  0
   -0.1181    0.7813   -1.7228 C   0  0  0  0  0  0  0  0  0  0  0  0
   -0.4592    0.7040   -0.4369 C   0  0  0  0  0  0  0  0  0  0  0  0
   -0.7913    1.9246    0.3733 C   0  0  0  0  0  0  0  0  0  0  0  0
   -0.4981   -0.5725    0.3170 C   0  0  0  0  0  0  0  0  0  0  0  0
   -0.2969   -1.8695   -0.4287 C   0  0  0  0  0  0  0  0  0  0  0  0
    0.1212   -0.0960   -2.3099 H   0  0  0  0  0  0  0  0  0  0  0  0
   -0.0811    1.7356   -2.2340 H   0  0  0  0  0  0  0  0  0  0  0  0
   -1.8169    1.8694    0.7481 H   0  0  0  0  0  0  0  0  0  0  0  0
   -0.6875    2.8378   -0.2117 H   0  0  0  0  0  0  0  0  0  0  0  0
   -0.1364    1.9892    1.2461 H   0  0  0  0  0  0  0  0  0  0  0  0
    0.4079   -0.4533    1.1475 H   0  0  0  0  0  0  0  0  0  0  0  0
   -1.3607   -0.6069    0.9876 H   0  0  0  0  0  0  0  0  0  0  0  0
    0.6646   -1.8893   -0.9451 H   0  0  0  0  0  0  0  0  0  0  0  0
   -1.0794   -2.0213   -1.1769 H   0  0  0  0  0  0  0  0  0  0  0  0
   -0.3248   -2.7156    0.2590 H   0  0  0  0  0  0  0  0  0  0  0  0
  1  2  1  0
  1  3  1  0
  4  5  2  3
  4  9  1  0
  4 10  1  0
  5  6  1  0
  5  7  1  0
  6 11  1  0
  6 12  1  0
  6 13  1  0
  7  8  1  0
  7 14  1  0
  7 15  1  0
  8 16  1  0
  8 17  1  0
  8 18  1  0
M  RAD  1   1   2
M  END
>  <reaction>  (4) 
rxn_103

>  <mol_properties>  (4) 
{"0": {"label": "*3", "atom_type": "N3s"}, "1": {"label": "*4", "atom_type": "H0"}, "4": {"label": "*0", "atom_type": "Cd"}, "6": {"label": "*1", "atom_type": "Cs"}, "13": {"label": "*2", "atom_type": "H0"}}

>  <type>  (4) 
ts

$$$$

     RDKit          3D

 18 16  0  0  0  0  0  0  0  0999 V2000
    1.6352   -0.4988    1.8467 N   0  0  0  0  0  0  0  0  0  0  0  0
    1.2916   -0.5276    2.7973 H   0  0  0  0  0  0  0  0  0  0  0  0
    1.5620   -1.4744    1.5910 H   0  0  0  0  0  0  0  0  0  0  0  0
   -0.3703    0.6562   -1.8552 C   0  0  0  0  0  0  0  0  0  0  0  0
   -0.3703    0.6562   -0.5280 C   0  0  0  0  0  0  0  0  0  0  0  0
   -0.3703    1.9335    0.2622 C   0  0  0  0  0  0  0  0  0  0  0  0
   -0.3703   -0.5964    0.3091 C   0  0  0  0  0  3  0  0  0  0  0  0
   -0.3703   -1.9180   -0.4415 C   0  0  0  0  0  0  0  0  0  0  0  0
   -0.3703   -0.2587   -2.4334 H   0  0  0  0  0  0  0  0  0  0  0  0
   -0.3703    1.5847   -2.4135 H   0  0  0  0  0  0  0  0  0  0  0  0
   -1.2482    1.9856    0.9124 H   0  0  0  0  0  0  0  0  0  0  0  0
   -0.3703    2.8098   -0.3853 H   0  0  0  0  0  0  0  0  0  0  0  0
    0.5076    1.9856    0.9124 H   0  0  0  0  0  0  0  0  0  0  0  0
    0.6729   -0.5457    1.1089 H   0  0  0  0  0  0  0  0  0  0  0  0
   -1.2396   -0.5541    0.9756 H   0  0  0  0  0  0  0  0  0  0  0  0
    0.5125   -2.0148   -1.0762 H   0  0  0  0  0  0  0  0  0  0  0  0
   -1.2530   -2.0148   -1.0762 H   0  0  0  0  0  0  0  0  0  0  0  0
   -0.3703   -2.7535    0.2596 H   0  0  0  0  0  0  0  0  0  0  0  0
  1  2  1  0
  1  3  1  0
  1 14  1  0
  4  5  2  3
  4  9  1  0
  4 10  1  0
  5  6  1  0
  5  7  1  0
  6 11  1  0
  6 12  1  0
  6 13  1  0
  7  8  1  0
  7 15  1  0
  8 16  1  0
  8 17  1  0
  8 18  1  0
M  RAD  1   7   2
M  END
>  <reaction>  (5) 
rxn_103

>  <mol_properties>  (5) 
{"0": {"label": "*3", "atom_type": "N3s"}, "1": {"label": "*4", "atom_type": "H0"}, "4": {"label": "*0", "atom_type": "Cd"}, "6": {"label": "*1", "atom_type": "Cs"}, "13": {"label": "*2", "atom_type": "H0"}}

>  <type>  (5) 
unop_1

>  <geom_source>  (5) 
Heuristics

$$$$

     RDKit          3D

 18 16  0  0  0  0  0  0  0  0999 V2000
    1.6365   -0.5165    1.8463 N   0  0  0  0  0  0  0  0  0  0  0  0
    1.8237    0.4580    2.0410 H   0  0  0  0  0  0  0  0  0  0  0  0
    0.9142   -0.9877    2.3743 H   0  0  0  0  0  0  0  0  0  0  0  0
   -0.3689    0.6385   -1.8555 C   0  0  0  0  0  0  0  0  0  0  0  0
   -0.3689    0.6385   -0.5283 C   0  0  0  0  0  0  0  0  0  0  0  0
   -0.3689    1.9159    0.2619 C   0  0  0  0  0  0  0  0  0  0  0  0
   -0.3689   -0.6141    0.3088 C   0  0  0  0  0  3  0  0  0  0  0  0
   -0.3689   -1.9357   -0.4419 C   0  0  0  0  0  0  0  0  0  0  0  0
   -0.3689   -0.2763   -2.4338 H   0  0  0  0  0  0  0  0  0  0  0  0
   -0.3689    1.5671   -2.4138 H   0  0  0  0  0  0  0  0  0  0  0  0
   -1.2468    1.9680    0.9121 H   0  0  0  0  0  0  0  0  0  0  0  0
   -0.3689    2.7922   -0.3857 H   0  0  0  0  0  0  0  0  0  0  0  0
    0.5090    1.9680    0.9121 H   0  0  0  0  0  0  0  0  0  0  0  0
    0.6743   -0.5633    1.1086 H   0  0  0  0  0  0  0  0  0  0  0  0
   -1.2382   -0.5718    0.9753 H   0  0  0  0  0  0  0  0  0  0  0  0
    0.5138   -2.0324   -1.0765 H   0  0  0  0  0  0  0  0  0  0  0  0
   -1.2516   -2.0324   -1.0765 H   0  0  0  0  0  0  0  0  0  0  0  0
   -0.3689   -2.7712    0.2593 H   0  0  0  0  0  0  0  0  0  0  0  0
  1  2  1  0
  1  3  1  0
  1 14  1  0
  4  5  2  3
  4  9  1  0
  4 10  1  0
  5  6  1  0
  5  7  1  0
  6 11  1  0
  6 12  1  0
  6 13  1  0
  7  8  1  0
  7 15  1  0
  8 16  1  0
  8 17  1  0
  8 18  1  0
M  RAD  1   7   2
M  END
>  <reaction>  (6) 
rxn_103

>  <mol_properties>  (6) 
{"0": {"label": "*3", "atom_type": "N3s"}, "1": {"label": "*4", "atom_type": "H0"}, "4": {"label": "*0", "atom_type": "Cd"}, "6": {"label": "*1", "atom_type": "Cs"}, "13": {"label": "*2", "atom_type": "H0"}}

>  <type>  (6) 
unop_2

>  <geom_source>  (6) 
Heuristics

$$$$

     RDKit          3D

 18 16  0  0  0  0  0  0  0  0999 V2000
    1.6285   -0.4950    1.8500 N   0  0  0  0  0  0  0  0  0  0  0  0
    1.3904   -0.9997    2.6933 H   0  0  0  0  0  0  0  0  0  0  0  0
    2.0157   -1.3221    1.4157 H   0  0  0  0  0  0  0  0  0  0  0  0
   -0.3769    0.6600   -1.8519 C   0  0  0  0  0  0  0  0  0  0  0  0
   -0.3769    0.6600   -0.5246 C   0  0  0  0  0  0  0  0  0  0  0  0
   -0.3769    1.9374    0.2655 C   0  0  0  0  0  0  0  0  0  0  0  0
   -0.3769   -0.5926    0.3125 C   0  0  0  0  0  3  0  0  0  0  0  0
   -0.3769   -1.9142   -0.4382 C   0  0  0  0  0  0  0  0  0  0  0  0
   -0.3769   -0.2549   -2.4301 H   0  0  0  0  0  0  0  0  0  0  0  0
   -0.3769    1.5886   -2.4101 H   0  0  0  0  0  0  0  0  0  0  0  0
   -1.2548    1.9895    0.9158 H   0  0  0  0  0  0  0  0  0  0  0  0
   -0.3769    2.8137   -0.3820 H   0  0  0  0  0  0  0  0  0  0  0  0
    0.5010    1.9895    0.9157 H   0  0  0  0  0  0  0  0  0  0  0  0
    0.6662   -0.5418    1.1122 H   0  0  0  0  0  0  0  0  0  0  0  0
   -1.2462   -0.5503    0.9790 H   0  0  0  0  0  0  0  0  0  0  0  0
    0.5058   -2.0110   -1.0728 H   0  0  0  0  0  0  0  0  0  0  0  0
   -1.2596   -2.0110   -1.0728 H   0  0  0  0  0  0  0  0  0  0  0  0
   -0.3769   -2.7497    0.2629 H   0  0  0  0  0  0  0  0  0  0  0  0
  1  2  1  0
  1  3  1  0
  1 14  1  0
  4  5  2  3
  4  9  1  0
  4 10  1  0
  5  6  1  0
  5  7  1  0
  6 11  1  0
  6 12  1  0
  6 13  1  0
  7  8  1  0
  7 15  1  0
  8 16  1  0
  8 17  1  0
  8 18  1  0
M  RAD  1   7   2
M  END
>  <reaction>  (7) 
rxn_103

>  <mol_properties>  (7) 
{"0": {"label": "*3", "atom_type": "N3s"}, "1": {"label": "*4", "atom_type": "H0"}, "4": {"label": "*0", "atom_type": "Cd"}, "6": {"label": "*1", "atom_type": "Cs"}, "13": {"label": "*2", "atom_type": "H0"}}

>  <type>  (7) 
unop_3

>  <geom_source>  (7) 
Heuristics

$$$$

     RDKit          3D

 18 16  0  0  0  0  0  0  0  0999 V2000
    1.6204   -0.5178    1.8518 N   0  0  0  0  0  0  0  0  0  0  0  0
    2.4468   -0.4655    1.2713 H   0  0  0  0  0  0  0  0  0  0  0  0
    1.6387    0.0500    2.6883 H   0  0  0  0  0  0  0  0  0  0  0  0
   -0.3850    0.6371   -1.8501 C   0  0  0  0  0  0  0  0  0  0  0  0
   -0.3850    0.6371   -0.5228 C   0  0  0  0  0  0  0  0  0  0  0  0
   -0.3850    1.9145    0.2673 C   0  0  0  0  0  0  0  0  0  0  0  0
   -0.3850   -0.6154    0.3143 C   0  0  0  0  0  3  0  0  0  0  0  0
   -0.3850   -1.9371   -0.4364 C   0  0  0  0  0  0  0  0  0  0  0  0
   -0.3850   -0.2777   -2.4283 H   0  0  0  0  0  0  0  0  0  0  0  0
   -0.3850    1.5657   -2.4083 H   0  0  0  0  0  0  0  0  0  0  0  0
   -1.2630    1.9666    0.9175 H   0  0  0  0  0  0  0  0  0  0  0  0
   -0.3850    2.7908   -0.3802 H   0  0  0  0  0  0  0  0  0  0  0  0
    0.4929    1.9666    0.9175 H   0  0  0  0  0  0  0  0  0  0  0  0
    0.6581   -0.5647    1.1140 H   0  0  0  0  0  0  0  0  0  0  0  0
   -1.2543   -0.5731    0.9807 H   0  0  0  0  0  0  0  0  0  0  0  0
    0.4977   -2.0338   -1.0711 H   0  0  0  0  0  0  0  0  0  0  0  0
   -1.2678   -2.0338   -1.0711 H   0  0  0  0  0  0  0  0  0  0  0  0
   -0.3850   -2.7726    0.2647 H   0  0  0  0  0  0  0  0  0  0  0  0
  1  2  1  0
  1  3  1  0
  1 14  1  0
  4  5  2  3
  4  9  1  0
  4 10  1  0
  5  6  1  0
  5  7  1  0
  6 11  1  0
  6 12  1  0
  6 13  1  0
  7  8  1  0
  7 15  1  0
  8 16  1  0
  8 17  1  0
  8 18  1  0
M  RAD  1   7   2
M  END
>  <reaction>  (8) 
rxn_103

>  <mol_properties>  (8) 
{"0": {"label": "*3", "atom_type": "N3s"}, "1": {"label": "*4", "atom_type": "H0"}, "4": {"label": "*0", "atom_type": "Cd"}, "6": {"label": "*1", "atom_type": "Cs"}, "13": {"label": "*2", "atom_type": "H0"}}

>  <type>  (8) 
unop_4

>  <geom_source>  (8) 
Heuristics

$$$$

     RDKit          3D

 18 16  0  0  0  0  0  0  0  0999 V2000
    1.6197   -0.4975    1.8523 N   0  0  0  0  0  0  0  0  0  0  0  0
    1.6155   -1.3398    2.4119 H   0  0  0  0  0  0  0  0  0  0  0  0
    2.5294   -0.7686    1.5038 H   0  0  0  0  0  0  0  0  0  0  0  0
   -0.3858    0.6574   -1.8495 C   0  0  0  0  0  0  0  0  0  0  0  0
   -0.3858    0.6574   -0.5223 C   0  0  0  0  0  0  0  0  0  0  0  0
   -0.3858    1.9348    0.2678 C   0  0  0  0  0  0  0  0  0  0  0  0
   -0.3858   -0.5952    0.3148 C   0  0  0  0  0  3  0  0  0  0  0  0
   -0.3858   -1.9168   -0.4359 C   0  0  0  0  0  0  0  0  0  0  0  0
   -0.3858   -0.2574   -2.4278 H   0  0  0  0  0  0  0  0  0  0  0  0
   -0.3858    1.5860   -2.4078 H   0  0  0  0  0  0  0  0  0  0  0  0
   -1.2637    1.9869    0.9181 H   0  0  0  0  0  0  0  0  0  0  0  0
   -0.3858    2.8111   -0.3797 H   0  0  0  0  0  0  0  0  0  0  0  0
    0.4922    1.9869    0.9181 H   0  0  0  0  0  0  0  0  0  0  0  0
    0.6574   -0.5444    1.1146 H   0  0  0  0  0  0  0  0  0  0  0  0
   -1.2550   -0.5528    0.9813 H   0  0  0  0  0  0  0  0  0  0  0  0
    0.4970   -2.0135   -1.0705 H   0  0  0  0  0  0  0  0  0  0  0  0
   -1.2685   -2.0135   -1.0705 H   0  0  0  0  0  0  0  0  0  0  0  0
   -0.3858   -2.7523    0.2653 H   0  0  0  0  0  0  0  0  0  0  0  0
  1  2  1  0
  1  3  1  0
  1 14  1  0
  4  5  2  3
  4  9  1  0
  4 10  1  0
  5  6  1  0
  5  7  1  0
  6 11  1  0
  6 12  1  0
  6 13  1  0
  7  8  1  0
  7 15  1  0
  8 16  1  0
  8 17  1  0
  8 18  1  0
M  RAD  1   7   2
M  END
>  <reaction>  (9) 
rxn_103

>  <mol_properties>  (9) 
{"0": {"label": "*3", "atom_type": "N3s"}, "1": {"label": "*4", "atom_type": "H0"}, "4": {"label": "*0", "atom_type": "Cd"}, "6": {"label": "*1", "atom_type": "Cs"}, "13": {"label": "*2", "atom_type": "H0"}}

>  <type>  (9) 
unop_5

>  <geom_source>  (9) 
Heuristics

$$$$

     RDKit          3D

 18 16  0  0  0  0  0  0  0  0999 V2000
    1.6170   -0.5131    1.8524 N   0  0  0  0  0  0  0  0  0  0  0  0
    2.3921   -0.9476    1.3697 H   0  0  0  0  0  0  0  0  0  0  0  0
    1.9746    0.1385    2.5381 H   0  0  0  0  0  0  0  0  0  0  0  0
   -0.3884    0.6419   -1.8495 C   0  0  0  0  0  0  0  0  0  0  0  0
   -0.3884    0.6419   -0.5222 C   0  0  0  0  0  0  0  0  0  0  0  0
   -0.3884    1.9192    0.2679 C   0  0  0  0  0  0  0  0  0  0  0  0
   -0.3884   -0.6107    0.3149 C   0  0  0  0  0  3  0  0  0  0  0  0
   -0.3884   -1.9323   -0.4358 C   0  0  0  0  0  0  0  0  0  0  0  0
   -0.3884   -0.2730   -2.4277 H   0  0  0  0  0  0  0  0  0  0  0  0
   -0.3884    1.5704   -2.4077 H   0  0  0  0  0  0  0  0  0  0  0  0
   -1.2663    1.9713    0.9182 H   0  0  0  0  0  0  0  0  0  0  0  0
   -0.3884    2.7955   -0.3796 H   0  0  0  0  0  0  0  0  0  0  0  0
    0.4895    1.9713    0.9182 H   0  0  0  0  0  0  0  0  0  0  0  0
    0.6547   -0.5600    1.1147 H   0  0  0  0  0  0  0  0  0  0  0  0
   -1.2577   -0.5684    0.9814 H   0  0  0  0  0  0  0  0  0  0  0  0
    0.4943   -2.0291   -1.0704 H   0  0  0  0  0  0  0  0  0  0  0  0
   -1.2711   -2.0291   -1.0704 H   0  0  0  0  0  0  0  0  0  0  0  0
   -0.3884   -2.7678    0.2654 H   0  0  0  0  0  0  0  0  0  0  0  0
  1  2  1  0
  1  3  1  0
  1 14  1  0
  4  5  2  3
  4  9  1  0
  4 10  1  0
  5  6  1  0
  5  7  1  0
  6 11  1  0
  6 12  1  0
  6 13  1  0
  7  8  1  0
  7 15  1  0
  8 16  1  0
  8 17  1  0
  8 18  1  0
M  RAD  1   7   2
M  END
>  <reaction>  (10) 
rxn_103

>  <mol_properties>  (10) 
{"0": {"label": "*3", "atom_type": "N3s"}, "1": {"label": "*4", "atom_type": "H0"}, "4": {"label": "*0", "atom_type": "Cd"}, "6": {"label": "*1", "atom_type": "Cs"}, "13": {"label": "*2", "atom_type": "H0"}}

>  <type>  (10) 
unop_6

>  <geom_source>  (10) 
Heuristics

$$$$

     RDKit          3D

 18 16  0  0  0  0  0  0  0  0999 V2000
    1.6156   -0.5083    1.8519 N   0  0  0  0  0  0  0  0  0  0  0  0
    2.1965   -1.3100    1.6459 H   0  0  0  0  0  0  0  0  0  0  0  0
    2.2858    0.0971    2.3067 H   0  0  0  0  0  0  0  0  0  0  0  0
   -0.3898    0.6467   -1.8500 C   0  0  0  0  0  0  0  0  0  0  0  0
   -0.3898    0.6467   -0.5227 C   0  0  0  0  0  0  0  0  0  0  0  0
   -0.3898    1.9241    0.2674 C   0  0  0  0  0  0  0  0  0  0  0  0
   -0.3898   -0.6059    0.3143 C   0  0  0  0  0  3  0  0  0  0  0  0
   -0.3898   -1.9275   -0.4363 C   0  0  0  0  0  0  0  0  0  0  0  0
   -0.3898   -0.2681   -2.4282 H   0  0  0  0  0  0  0  0  0  0  0  0
   -0.3898    1.5753   -2.4082 H   0  0  0  0  0  0  0  0  0  0  0  0
   -1.2677    1.9762    0.9176 H   0  0  0  0  0  0  0  0  0  0  0  0
   -0.3898    2.8004   -0.3801 H   0  0  0  0  0  0  0  0  0  0  0  0
    0.4881    1.9762    0.9176 H   0  0  0  0  0  0  0  0  0  0  0  0
    0.6533   -0.5551    1.1141 H   0  0  0  0  0  0  0  0  0  0  0  0
   -1.2591   -0.5636    0.9808 H   0  0  0  0  0  0  0  0  0  0  0  0
    0.4929   -2.0242   -1.0710 H   0  0  0  0  0  0  0  0  0  0  0  0
   -1.2725   -2.0242   -1.0710 H   0  0  0  0  0  0  0  0  0  0  0  0
   -0.3898   -2.7630    0.2648 H   0  0  0  0  0  0  0  0  0  0  0  0
  1  2  1  0
  1  3  1  0
  1 14  1  0
  4  5  2  3
  4  9  1  0
  4 10  1  0
  5  6  1  0
  5  7  1  0
  6 11  1  0
  6 12  1  0
  6 13  1  0
  7  8  1  0
  7 15  1  0
  8 16  1  0
  8 17  1  0
  8 18  1  0
M  RAD  1   7   2
M  END
>  <reaction>  (11) 
rxn_103

>  <mol_properties>  (11) 
{"0": {"label": "*3", "atom_type": "N3s"}, "1": {"label": "*4", "atom_type": "H0"}, "4": {"label": "*0", "atom_type": "Cd"}, "6": {"label": "*1", "atom_type": "Cs"}, "13": {"label": "*2", "atom_type": "H0"}}

>  <type>  (11) 
unop_7

>  <geom_source>  (11) 
Heuristics

$$$$

     RDKit          3D

 18 16  0  0  0  0  0  0  0  0999 V2000
    1.6382   -0.5050    1.8451 N   0  0  0  0  0  0  0  0  0  0  0  0
    1.3459   -0.0470    2.6980 H   0  0  0  0  0  0  0  0  0  0  0  0
    1.2505   -1.4386    1.8185 H   0  0  0  0  0  0  0  0  0  0  0  0
   -0.3672    0.6500   -1.8567 C   0  0  0  0  0  0  0  0  0  0  0  0
   -0.3672    0.6500   -0.5295 C   0  0  0  0  0  0  0  0  0  0  0  0
   -0.3672    1.9273    0.2606 C   0  0  0  0  0  0  0  0  0  0  0  0
   -0.3672   -0.6026    0.3076 C   0  0  0  0  0  3  0  0  0  0  0  0
   -0.3672   -1.9242   -0.4431 C   0  0  0  0  0  0  0  0  0  0  0  0
   -0.3672   -0.2649   -2.4350 H   0  0  0  0  0  0  0  0  0  0  0  0
   -0.3672    1.5785   -2.4150 H   0  0  0  0  0  0  0  0  0  0  0  0
   -1.2451    1.9794    0.9109 H   0  0  0  0  0  0  0  0  0  0  0  0
   -0.3672    2.8036   -0.3869 H   0  0  0  0  0  0  0  0  0  0  0  0
    0.5107    1.9794    0.9109 H   0  0  0  0  0  0  0  0  0  0  0  0
    0.6760   -0.5518    1.1074 H   0  0  0  0  0  0  0  0  0  0  0  0
   -1.2365   -0.5603    0.9741 H   0  0  0  0  0  0  0  0  0  0  0  0
    0.5155   -2.0210   -1.0777 H   0  0  0  0  0  0  0  0  0  0  0  0
   -1.2499   -2.0210   -1.0777 H   0  0  0  0  0  0  0  0  0  0  0  0
   -0.3672   -2.7597    0.2581 H   0  0  0  0  0  0  0  0  0  0  0  0
  1  2  1  0
  1  3  1  0
  1 14  1  0
  4  5  2  3
  4  9  1  0
  4 10  1  0
  5  6  1  0
  5  7  1  0
  6 11  1  0
  6 12  1  0
  6 13  1  0
  7  8  1  0
  7 15  1  0
  8 16  1  0
  8 17  1  0
  8 18  1  0
M  RAD  1   7   2
M  END
>  <reaction>  (12) 
rxn_103

>  <mol_properties>  (12) 
{"0": {"label": "*3", "atom_type": "N3s"}, "1": {"label": "*4", "atom_type": "H0"}, "4": {"label": "*0", "atom_type": "Cd"}, "6": {"label": "*1", "atom_type": "Cs"}, "13": {"label": "*2", "atom_type": "H0"}}

>  <type>  (12) 
unop_8

>  <geom_source>  (12) 
Heuristics

$$$$

     RDKit          3D

 18 16  0  0  0  0  0  0  0  0999 V2000
    1.6259   -0.5207    1.8499 N   0  0  0  0  0  0  0  0  0  0  0  0
    2.3467    0.0076    1.3768 H   0  0  0  0  0  0  0  0  0  0  0  0
    1.2826   -0.1857    2.7402 H   0  0  0  0  0  0  0  0  0  0  0  0
   -0.3796    0.6343   -1.8520 C   0  0  0  0  0  0  0  0  0  0  0  0
   -0.3796    0.6343   -0.5247 C   0  0  0  0  0  0  0  0  0  0  0  0
   -0.3796    1.9117    0.2654 C   0  0  0  0  0  0  0  0  0  0  0  0
   -0.3796   -0.6183    0.3124 C   0  0  0  0  0  3  0  0  0  0  0  0
   -0.3796   -1.9399   -0.4383 C   0  0  0  0  0  0  0  0  0  0  0  0
   -0.3796   -0.2805   -2.4302 H   0  0  0  0  0  0  0  0  0  0  0  0
   -0.3796    1.5629   -2.4102 H   0  0  0  0  0  0  0  0  0  0  0  0
   -1.2575    1.9638    0.9157 H   0  0  0  0  0  0  0  0  0  0  0  0
   -0.3796    2.7880   -0.3821 H   0  0  0  0  0  0  0  0  0  0  0  0
    0.4983    1.9638    0.9157 H   0  0  0  0  0  0  0  0  0  0  0  0
    0.6636   -0.5675    1.1122 H   0  0  0  0  0  0  0  0  0  0  0  0
   -1.2489   -0.5760    0.9789 H   0  0  0  0  0  0  0  0  0  0  0  0
    0.5032   -2.0366   -1.0729 H   0  0  0  0  0  0  0  0  0  0  0  0
   -1.2623   -2.0366   -1.0729 H   0  0  0  0  0  0  0  0  0  0  0  0
   -0.3796   -2.7754    0.2629 H   0  0  0  0  0  0  0  0  0  0  0  0
  1  2  1  0
  1  3  1  0
  1 14  1  0
  4  5  2  3
  4  9  1  0
  4 10  1  0
  5  6  1  0
  5  7  1  0
  6 11  1  0
  6 12  1  0
  6 13  1  0
  7  8  1  0
  7 15  1  0
  8 16  1  0
  8 17  1  0
  8 18  1  0
M  RAD  1   7   2
M  END
>  <reaction>  (13) 
rxn_103

>  <mol_properties>  (13) 
{"0": {"label": "*3", "atom_type": "N3s"}, "1": {"label": "*4", "atom_type": "H0"}, "4": {"label": "*0", "atom_type": "Cd"}, "6": {"label": "*1", "atom_type": "Cs"}, "13": {"label": "*2", "atom_type": "H0"}}

>  <type>  (13) 
unop_9

>  <geom_source>  (13) 
Heuristics

$$$$

     RDKit          3D

 18 16  0  0  0  0  0  0  0  0999 V2000
    1.6386   -0.5112    1.8453 N   0  0  0  0  0  0  0  0  0  0  0  0
    1.5405    0.3140    2.4215 H   0  0  0  0  0  0  0  0  0  0  0  0
    1.0275   -1.2819    2.0803 H   0  0  0  0  0  0  0  0  0  0  0  0
   -0.3669    0.6438   -1.8566 C   0  0  0  0  0  0  0  0  0  0  0  0
   -0.3669    0.6438   -0.5293 C   0  0  0  0  0  0  0  0  0  0  0  0
   -0.3669    1.9211    0.2608 C   0  0  0  0  0  0  0  0  0  0  0  0
   -0.3669   -0.6088    0.3078 C   0  0  0  0  0  3  0  0  0  0  0  0
   -0.3669   -1.9304   -0.4429 C   0  0  0  0  0  0  0  0  0  0  0  0
   -0.3669   -0.2711   -2.4348 H   0  0  0  0  0  0  0  0  0  0  0  0
   -0.3669    1.5723   -2.4148 H   0  0  0  0  0  0  0  0  0  0  0  0
   -1.2448    1.9732    0.9110 H   0  0  0  0  0  0  0  0  0  0  0  0
   -0.3669    2.7974   -0.3867 H   0  0  0  0  0  0  0  0  0  0  0  0
    0.5111    1.9732    0.9110 H   0  0  0  0  0  0  0  0  0  0  0  0
    0.6763   -0.5581    1.1075 H   0  0  0  0  0  0  0  0  0  0  0  0
   -1.2361   -0.5665    0.9742 H   0  0  0  0  0  0  0  0  0  0  0  0
    0.5159   -2.0272   -1.0776 H   0  0  0  0  0  0  0  0  0  0  0  0
   -1.2496   -2.0272   -1.0776 H   0  0  0  0  0  0  0  0  0  0  0  0
   -0.3669   -2.7659    0.2582 H   0  0  0  0  0  0  0  0  0  0  0  0
  1  2  1  0
  1  3  1  0
  1 14  1  0
  4  5  2  3
  4  9  1  0
  4 10  1  0
  5  6  1  0
  5  7  1  0
  6 11  1  0
  6 12  1  0
  6 13  1  0
  7  8  1  0
  7 15  1  0
  8 16  1  0
  8 17  1  0
  8 18  1  0
M  RAD  1   7   2
M  END
>  <reaction>  (14) 
rxn_103

>  <mol_properties>  (14) 
{"0": {"label": "*3", "atom_type": "N3s"}, "1": {"label": "*4", "atom_type": "H0"}, "4": {"label": "*0", "atom_type": "Cd"}, "6": {"label": "*1", "atom_type": "Cs"}, "13": {"label": "*2", "atom_type": "H0"}}

>  <type>  (14) 
unop_10

>  <geom_source>  (14) 
Heuristics

$$$$

     RDKit          3D

 18 16  0  0  0  0  0  0  0  0999 V2000
    1.6158   -0.5036    1.8516 N   0  0  0  0  0  0  0  0  0  0  0  0
    1.9114   -1.4546    2.0271 H   0  0  0  0  0  0  0  0  0  0  0  0
    2.5582   -0.1498    1.9480 H   0  0  0  0  0  0  0  0  0  0  0  0
   -0.3896    0.6514   -1.8503 C   0  0  0  0  0  0  0  0  0  0  0  0
   -0.3896    0.6514   -0.5230 C   0  0  0  0  0  0  0  0  0  0  0  0
   -0.3896    1.9288    0.2671 C   0  0  0  0  0  0  0  0  0  0  0  0
   -0.3896   -0.6012    0.3141 C   0  0  0  0  0  3  0  0  0  0  0  0
   -0.3896   -1.9228   -0.4366 C   0  0  0  0  0  0  0  0  0  0  0  0
   -0.3896   -0.2634   -2.4285 H   0  0  0  0  0  0  0  0  0  0  0  0
   -0.3896    1.5800   -2.4085 H   0  0  0  0  0  0  0  0  0  0  0  0
   -1.2676    1.9809    0.9174 H   0  0  0  0  0  0  0  0  0  0  0  0
   -0.3896    2.8051   -0.3804 H   0  0  0  0  0  0  0  0  0  0  0  0
    0.4883    1.9809    0.9174 H   0  0  0  0  0  0  0  0  0  0  0  0
    0.6535   -0.5504    1.1139 H   0  0  0  0  0  0  0  0  0  0  0  0
   -1.2589   -0.5589    0.9806 H   0  0  0  0  0  0  0  0  0  0  0  0
    0.4931   -2.0196   -1.0712 H   0  0  0  0  0  0  0  0  0  0  0  0
   -1.2724   -2.0196   -1.0712 H   0  0  0  0  0  0  0  0  0  0  0  0
   -0.3896   -2.7583    0.2646 H   0  0  0  0  0  0  0  0  0  0  0  0
  1  2  1  0
  1  3  1  0
  1 14  1  0
  4  5  2  3
  4  9  1  0
  4 10  1  0
  5  6  1  0
  5  7  1  0
  6 11  1  0
  6 12  1  0
  6 13  1  0
  7  8  1  0
  7 15  1  0
  8 16  1  0
  8 17  1  0
  8 18  1  0
M  RAD  1   7   2
M  END
>  <reaction>  (15) 
rxn_103

>  <mol_properties>  (15) 
{"0": {"label": "*3", "atom_type": "N3s"}, "1": {"label": "*4", "atom_type": "H0"}, "4": {"label": "*0", "atom_type": "Cd"}, "6": {"label": "*1", "atom_type": "Cs"}, "13": {"label": "*2", "atom_type": "H0"}}

>  <type>  (15) 
unop_11

>  <geom_source>  (15) 
Heuristics

$$$$

     RDKit          3D

 18 16  0  0  0  0  0  0  0  0999 V2000
    1.6320   -0.5201    1.8478 N   0  0  0  0  0  0  0  0  0  0  0  0
    2.1190    0.3457    1.6584 H   0  0  0  0  0  0  0  0  0  0  0  0
    0.9963   -0.5738    2.6324 H   0  0  0  0  0  0  0  0  0  0  0  0
   -0.3734    0.6349   -1.8540 C   0  0  0  0  0  0  0  0  0  0  0  0
   -0.3734    0.6349   -0.5268 C   0  0  0  0  0  0  0  0  0  0  0  0
   -0.3734    1.9123    0.2633 C   0  0  0  0  0  0  0  0  0  0  0  0
   -0.3734   -0.6177    0.3103 C   0  0  0  0  0  3  0  0  0  0  0  0
   -0.3734   -1.9393   -0.4404 C   0  0  0  0  0  0  0  0  0  0  0  0
   -0.3734   -0.2799   -2.4323 H   0  0  0  0  0  0  0  0  0  0  0  0
   -0.3734    1.5635   -2.4123 H   0  0  0  0  0  0  0  0  0  0  0  0
   -1.2513    1.9644    0.9136 H   0  0  0  0  0  0  0  0  0  0  0  0
   -0.3734    2.7886   -0.3842 H   0  0  0  0  0  0  0  0  0  0  0  0
    0.5045    1.9644    0.9136 H   0  0  0  0  0  0  0  0  0  0  0  0
    0.6697   -0.5669    1.1101 H   0  0  0  0  0  0  0  0  0  0  0  0
   -1.2427   -0.5754    0.9768 H   0  0  0  0  0  0  0  0  0  0  0  0
    0.5093   -2.0361   -1.0750 H   0  0  0  0  0  0  0  0  0  0  0  0
   -1.2561   -2.0361   -1.0750 H   0  0  0  0  0  0  0  0  0  0  0  0
   -0.3734   -2.7748    0.2608 H   0  0  0  0  0  0  0  0  0  0  0  0
  1  2  1  0
  1  3  1  0
  1 14  1  0
  4  5  2  3
  4  9  1  0
  4 10  1  0
  5  6  1  0
  5  7  1  0
  6 11  1  0
  6 12  1  0
  6 13  1  0
  7  8  1  0
  7 15  1  0
  8 16  1  0
  8 17  1  0
  8 18  1  0
M  RAD  1   7   2
M  END
>  <reaction>  (16) 
rxn_103

>  <mol_properties>  (16) 
{"0": {"label": "*3", "atom_type": "N3s"}, "1": {"label": "*4", "atom_type": "H0"}, "4": {"label": "*0", "atom_type": "Cd"}, "6": {"label": "*1", "atom_type": "Cs"}, "13": {"label": "*2", "atom_type": "H0"}}

>  <type>  (16) 
unop_12

>  <geom_source>  (16) 
Heuristics

$$$$
