
     RDKit          3D

  2  1  0  0  0  0  0  0  0  0999 V2000
    0.0000    0.0000    0.3721 H   0  0  0  0  0  0  0  0  0  0  0  0
    0.0000    0.0000   -0.3721 H   0  0  0  0  0  0  0  0  0  0  0  0
  1  2  1  0
M  END
>  <reaction>  (1) 
rxn_288

>  <mol_properties>  (1) 
{"0": {"label": "donator", "atom_type": "H0"}, "1": {"label": "d_hydrogen", "atom_type": "H0"}}

>  <type>  (1) 
r1h

$$$$

     RDKit          3D

  4  3  0  0  0  0  0  0  0  0999 V2000
    0.0000    0.0000    0.0000 C   0  0  0  0  0  3  0  0  0  0  0  0
    1.0638   -0.1747    0.0540 H   0  0  0  0  0  0  0  0  0  0  0  0
   -0.6833   -0.8351   -0.0280 H   0  0  0  0  0  0  0  0  0  0  0  0
   -0.3805    1.0098   -0.0260 H   0  0  0  0  0  0  0  0  0  0  0  0
  1  2  1  0
  1  3  1  0
  1  4  1  0
M  RAD  1   1   2
M  END
>  <reaction>  (2) 
rxn_288

>  <mol_properties>  (2) 
{"0": {"label": "acceptor", "atom_type": "Cs"}}

>  <type>  (2) 
r2

$$$$

     RDKit          3D

  5  4  0  0  0  0  0  0  0  0999 V2000
    0.0000    0.0000    0.0000 C   0  0  0  0  0  0  0  0  0  0  0  0
   -0.6486   -0.7720   -0.4113 H   0  0  0  0  0  0  0  0  0  0  0  0
   -0.3482    0.9787   -0.3267 H   0  0  0  0  0  0  0  0  0  0  0  0
   -0.0223   -0.0487    1.0876 H   0  0  0  0  0  0  0  0  0  0  0  0
    1.0191   -0.1580   -0.3496 H   0  0  0  0  0  0  0  0  0  0  0  0
  1  2  1  0
  1  3  1  0
  1  4  1  0
  1  5  1  0
M  END
>  <reaction>  (3) 
rxn_288

>  <mol_properties>  (3) 
{"0": {"label": "a_hydrogen", "atom_type": "H0"}, "1": {"label": "acceptor", "atom_type": "Cs"}}

>  <type>  (3) 
r2h

$$$$

     RDKit          3D

  6  4  0  0  0  0  0  0  0  0999 V2000
    0.0000    0.0000   -2.0625 H   0  0  0  0  0 15  0  0  0  0  0  0
    0.0000    0.0000   -1.1585 H   0  0  0  0  0  0  0  0  0  0  0  0
    0.0000    0.0000    0.2248 C   0  0  0  0  0  0  0  0  0  0  0  0
   -0.0000    1.0546    0.4788 H   0  0  0  0  0  0  0  0  0  0  0  0
   -0.9133   -0.5273    0.4788 H   0  0  0  0  0  0  0  0  0  0  0  0
    0.9133   -0.5273    0.4788 H   0  0  0  0  0  0  0  0  0  0  0  0
  2  3  1  0
  3  4  1  0
  3  5  1  0
  3  6  1  0
M  END
>  <reaction>  (4) 
rxn_288

>  <mol_properties>  (4) 
{"0": {"label": "*1", "atom_type": "H0"}, "1": {"label": "*2", "atom_type": "H0"}, "2": {"label": "*3", "atom_type": "Cs"}, "3": {"label": "*4", "atom_type": "H0"}}

>  <type>  (4) 
ts

$$$$

     RDKit          3D

  6  4  0  0  0  0  0  0  0  0999 V2000
    0.0000    0.0000   -2.0567 H   0  0  0  0  0 15  0  0  0  0  0  0
    0.0000    0.0000   -1.1637 H   0  0  0  0  0  0  0  0  0  0  0  0
    0.0000    0.0000    0.1430 C   0  0  0  0  0  0  0  0  0  0  0  0
    0.0000    1.0267    0.5060 H   0  0  0  0  0  0  0  0  0  0  0  0
   -0.8891   -0.5133    0.5060 H   0  0  0  0  0  0  0  0  0  0  0  0
    0.8891   -0.5133    0.5060 H   0  0  0  0  0  0  0  0  0  0  0  0
  2  3  1  0
  3  4  1  0
  3  5  1  0
  3  6  1  0
M  END
>  <reaction>  (5) 
rxn_288

>  <mol_properties>  (5) 
{"0": {"label": "*1", "atom_type": "H0"}, "1": {"label": "*2", "atom_type": "H0"}, "2": {"label": "*3", "atom_type": "Cs"}, "3": {"label": "*4", "atom_type": "H0"}}

>  <type>  (5) 
unop_1

>  <geom_source>  (5) 
Heuristics

$$$$

     RDKit          3D

  6  4  0  0  0  0  0  0  0  0999 V2000
   -0.3408   -0.0166    0.0165 C   0  0  0  0  0  0  0  0  0  0  0  0
   -0.8140   -0.8692   -0.5127 H   0  0  0  0  0  0  0  0  0  0  0  0
   -0.3870    0.8879   -0.6242 H   0  0  0  0  0  0  0  0  0  0  0  0
   -0.8811    0.1750    0.9662 H   0  0  0  0  0  0  0  0  0  0  0  0
    0.5493   -0.2213    0.2013 H   0  0  0  0  0  0  0  0  0  0  0  0
    1.8736    0.0441   -0.0471 H   0  0  0  0  0 15  0  0  0  0  0  0
  1  2  1  0
  1  3  1  0
  1  4  1  0
  1  5  1  0
M  END
>  <reaction>  (6) 
rxn_288

>  <mol_properties>  (6) 
{"0": {"label": "*1", "atom_type": "H0"}, "1": {"label": "*2", "atom_type": "H0"}, "2": {"label": "*3", "atom_type": "Cs"}, "3": {"label": "*4", "atom_type": "H0"}}

>  <type>  (6) 
unop_2

>  <geom_source>  (6) 
AutoTST

$$$$
